
     RDKit          3D

 60 63  0  0  0  0  0  0  0  0999 V2000
   -2.5248    3.6568   -3.1560 C   0  0  0  0  0  0  0  0  0  0  0  0
   -2.1149    2.5947   -2.4524 C   0  0  0  0  0  0  0  0  0  0  0  0
   -2.7757    1.2419   -2.4868 C   0  0  0  0  0  0  0  0  0  0  0  0
   -3.3349    0.9586   -1.1733 N   0  0  0  0  0  0  0  0  0  0  0  0
   -4.6668    1.2724   -0.9100 C   0  0  0  0  0  0  0  0  0  0  0  0
   -5.4363    1.7178   -1.7580 O   0  0  0  0  0  0  0  0  0  0  0  0
   -5.1732    1.0627    0.4809 C   0  0  0  0  0  0  0  0  0  0  0  0
   -6.4910    1.4533    0.7792 C   0  0  0  0  0  0  0  0  0  0  0  0
   -6.9949    1.3065    2.0709 C   0  0  0  0  0  0  0  0  0  0  0  0
   -6.1825    0.7761    3.0692 C   0  0  0  0  0  0  0  0  0  0  0  0
   -4.8662    0.3813    2.7835 C   0  0  0  0  0  0  0  0  0  0  0  0
   -4.3598    0.5093    1.4848 C   0  0  0  0  0  0  0  0  0  0  0  0
   -3.0480    0.1358    1.1023 N   0  0  0  0  0  0  0  0  0  0  0  0
   -1.9943   -0.5126    1.7237 C   0  0  0  0  0  0  0  0  0  0  0  0
   -1.9957   -1.2429    3.2925 S   0  0  0  0  0  0  0  0  0  0  0  0
   -0.7573   -2.5549    3.0846 C   0  0  0  0  0  0  0  0  0  0  0  0
    0.6606   -2.0118    3.2210 C   0  0  0  0  0  0  0  0  0  0  0  0
    1.1254   -1.7821    4.3346 O   0  0  0  0  0  0  0  0  0  0  0  0
    1.2886   -1.8780    1.9933 N   0  0  0  0  0  0  0  0  0  0  0  0
    2.5439   -1.3626    1.7214 C   0  0  0  0  0  0  0  0  0  0  0  0
    3.6152   -0.9661    2.9601 S   0  0  0  0  0  0  0  0  0  0  0  0
    4.8021   -0.4150    1.8638 C   0  0  0  0  0  0  0  0  0  0  0  0
    6.1033    0.0947    2.3933 C   0  0  0  0  0  0  0  0  0  0  0  0
    4.3876   -0.5159    0.5410 C   0  0  0  0  0  0  0  0  0  0  0  0
    5.2414   -0.0831   -0.6281 C   0  0  0  0  0  0  0  0  0  0  0  0
    5.9413   -1.2511   -1.3032 C   0  0  0  0  0  0  0  0  0  0  0  0
    3.0579   -1.1119    0.4538 C   0  0  0  0  0  0  0  0  0  0  0  0
    2.2794   -1.4422   -0.7491 C   0  0  0  0  0  0  0  0  0  0  0  0
    1.3300   -2.2220   -0.7294 O   0  0  0  0  0  0  0  0  0  0  0  0
    2.7055   -0.7974   -1.8701 O   0  0  0  0  0  0  0  0  0  0  0  0
    1.9188   -1.0206   -3.0485 C   0  0  0  0  0  0  0  0  0  0  0  0
    2.0620    0.2001   -3.9394 C   0  0  0  0  0  0  0  0  0  0  0  0
   -0.9602   -0.5643    0.9145 N   0  0  0  0  0  0  0  0  0  0  0  0
   -1.3107    0.0128   -0.2691 N   0  0  0  0  0  0  0  0  0  0  0  0
   -2.5670    0.3899   -0.1725 C   0  0  0  0  0  0  0  0  0  0  0  0
   -2.0058    4.6098   -3.0814 H   0  0  0  0  0  0  0  0  0  0  0  0
   -3.3957    3.6048   -3.8052 H   0  0  0  0  0  0  0  0  0  0  0  0
   -1.2415    2.6991   -1.8082 H   0  0  0  0  0  0  0  0  0  0  0  0
   -3.5682    1.2056   -3.2454 H   0  0  0  0  0  0  0  0  0  0  0  0
   -2.0354    0.4749   -2.7521 H   0  0  0  0  0  0  0  0  0  0  0  0
   -7.1261    1.8805    0.0056 H   0  0  0  0  0  0  0  0  0  0  0  0
   -8.0175    1.6125    2.2979 H   0  0  0  0  0  0  0  0  0  0  0  0
   -6.5702    0.6726    4.0781 H   0  0  0  0  0  0  0  0  0  0  0  0
   -4.2821    0.0070    3.6155 H   0  0  0  0  0  0  0  0  0  0  0  0
   -0.9021   -3.0792    2.1327 H   0  0  0  0  0  0  0  0  0  0  0  0
   -0.9027   -3.2992    3.8751 H   0  0  0  0  0  0  0  0  0  0  0  0
    0.7114   -2.0264    1.1619 H   0  0  0  0  0  0  0  0  0  0  0  0
    6.9351   -0.4282    1.9132 H   0  0  0  0  0  0  0  0  0  0  0  0
    6.2033    1.1635    2.1887 H   0  0  0  0  0  0  0  0  0  0  0  0
    6.2036   -0.0512    3.4714 H   0  0  0  0  0  0  0  0  0  0  0  0
    6.0016    0.6310   -0.2904 H   0  0  0  0  0  0  0  0  0  0  0  0
    4.6381    0.4728   -1.3527 H   0  0  0  0  0  0  0  0  0  0  0  0
    6.5519   -0.8973   -2.1393 H   0  0  0  0  0  0  0  0  0  0  0  0
    6.6005   -1.7765   -0.6005 H   0  0  0  0  0  0  0  0  0  0  0  0
    5.2228   -1.9811   -1.6934 H   0  0  0  0  0  0  0  0  0  0  0  0
    2.3045   -1.9100   -3.5611 H   0  0  0  0  0  0  0  0  0  0  0  0
    0.8587   -1.1655   -2.8106 H   0  0  0  0  0  0  0  0  0  0  0  0
    1.6665    1.0850   -3.4286 H   0  0  0  0  0  0  0  0  0  0  0  0
    3.1163    0.4022   -4.1595 H   0  0  0  0  0  0  0  0  0  0  0  0
    1.5244    0.0636   -4.8798 H   0  0  0  0  0  0  0  0  0  0  0  0
  1  2  2  0
  2  3  1  0
  3  4  1  0
  4  5  1  0
  5  6  2  0
  5  7  1  0
  7  8  2  0
  8  9  1  0
  9 10  2  0
 10 11  1  0
 11 12  2  0
 12 13  1  0
 13 14  1  0
 14 15  1  0
 15 16  1  0
 16 17  1  0
 17 18  2  0
 17 19  1  0
 19 20  1  0
 20 21  1  0
 21 22  1  0
 22 23  1  0
 22 24  2  0
 24 25  1  0
 25 26  1  0
 24 27  1  0
 27 28  1  0
 28 29  2  0
 28 30  1  0
 30 31  1  0
 31 32  1  0
 14 33  2  0
 33 34  1  0
 34 35  2  0
 35  4  1  0
 12  7  1  0
 35 13  1  0
 27 20  2  0
  1 36  1  0
  1 37  1  0
  2 38  1  0
  3 39  1  0
  3 40  1  0
  8 41  1  0
  9 42  1  0
 10 43  1  0
 11 44  1  0
 16 45  1  0
 16 46  1  0
 19 47  1  0
 23 48  1  0
 23 49  1  0
 23 50  1  0
 25 51  1  0
 25 52  1  0
 26 53  1  0
 26 54  1  0
 26 55  1  0
 31 56  1  0
 31 57  1  0
 32 58  1  0
 32 59  1  0
 32 60  1  0
M  END
$$$$
