
     RDKit          3D

 44 45  0  0  0  0  0  0  0  0999 V2000
   -4.0305    0.0616    3.1854 C   0  0  0  0  0  0  0  0  0  0  0  0
   -5.1258   -0.6710    2.4237 C   0  0  0  0  0  0  0  0  0  0  0  0
   -4.5649   -1.7091    1.4555 C   0  0  0  0  0  0  0  0  0  0  0  0
   -3.6983   -1.0979    0.4871 O   0  0  0  0  0  0  0  0  0  0  0  0
   -4.3096   -0.5839   -0.6094 C   0  0  0  0  0  0  0  0  0  0  0  0
   -5.5084   -0.6037   -0.8375 O   0  0  0  0  0  0  0  0  0  0  0  0
   -3.3094    0.0287   -1.5254 C   0  0  0  0  0  0  0  0  0  0  0  0
   -3.7675    0.5842   -2.7249 C   0  0  0  0  0  0  0  0  0  0  0  0
   -2.8655    1.1699   -3.6110 C   0  0  0  0  0  0  0  0  0  0  0  0
   -1.5020    1.2054   -3.3055 C   0  0  0  0  0  0  0  0  0  0  0  0
   -1.0280    0.6568   -2.1126 C   0  0  0  0  0  0  0  0  0  0  0  0
    0.3275    0.6549   -1.7345 N   0  0  0  0  0  0  0  0  0  0  0  0
    1.4110    1.1664   -2.4255 C   0  0  0  0  0  0  0  0  0  0  0  0
    1.3854    1.7260   -3.5181 O   0  0  0  0  0  0  0  0  0  0  0  0
    2.7385    0.9738   -1.6841 C   0  0  0  0  0  0  0  0  0  0  0  0
    2.5483    0.3063   -0.4372 O   0  0  0  0  0  0  0  0  0  0  0  0
    3.6634    0.0766    0.3203 C   0  0  0  0  0  0  0  0  0  0  0  0
    4.9717    0.4341   -0.0150 C   0  0  0  0  0  0  0  0  0  0  0  0
    6.0286    0.1385    0.8550 C   0  0  0  0  0  0  0  0  0  0  0  0
    5.7707   -0.5180    2.0650 C   0  0  0  0  0  0  0  0  0  0  0  0
    6.8780   -0.8284    2.9778 N   0  0  0  0  0  4  0  0  0  0  0  0
    8.0195   -0.4901    2.6342 O   0  0  0  0  0  0  0  0  0  0  0  0
    6.6054   -1.4101    4.0375 O   0  0  0  0  0  1  0  0  0  0  0  0
    4.4638   -0.8796    2.4086 C   0  0  0  0  0  0  0  0  0  0  0  0
    3.4176   -0.5791    1.5320 C   0  0  0  0  0  0  0  0  0  0  0  0
   -1.9389    0.0685   -1.2246 C   0  0  0  0  0  0  0  0  0  0  0  0
   -3.3814    0.6242    2.5070 H   0  0  0  0  0  0  0  0  0  0  0  0
   -3.4106   -0.6407    3.7518 H   0  0  0  0  0  0  0  0  0  0  0  0
   -4.4725    0.7706    3.8925 H   0  0  0  0  0  0  0  0  0  0  0  0
   -5.7933   -1.1667    3.1371 H   0  0  0  0  0  0  0  0  0  0  0  0
   -5.7199    0.0691    1.8760 H   0  0  0  0  0  0  0  0  0  0  0  0
   -3.9649   -2.4455    2.0012 H   0  0  0  0  0  0  0  0  0  0  0  0
   -5.3725   -2.2636    0.9629 H   0  0  0  0  0  0  0  0  0  0  0  0
   -4.8270    0.5634   -2.9738 H   0  0  0  0  0  0  0  0  0  0  0  0
   -3.2210    1.6017   -4.5438 H   0  0  0  0  0  0  0  0  0  0  0  0
   -0.8351    1.6717   -4.0246 H   0  0  0  0  0  0  0  0  0  0  0  0
    0.5607    0.2278   -0.8421 H   0  0  0  0  0  0  0  0  0  0  0  0
    3.1584    1.9724   -1.5164 H   0  0  0  0  0  0  0  0  0  0  0  0
    3.3850    0.3757   -2.3367 H   0  0  0  0  0  0  0  0  0  0  0  0
    5.2095    0.9438   -0.9442 H   0  0  0  0  0  0  0  0  0  0  0  0
    7.0404    0.4261    0.5742 H   0  0  0  0  0  0  0  0  0  0  0  0
    4.2431   -1.3901    3.3438 H   0  0  0  0  0  0  0  0  0  0  0  0
    2.4009   -0.8603    1.7990 H   0  0  0  0  0  0  0  0  0  0  0  0
   -1.5803   -0.3604   -0.2926 H   0  0  0  0  0  0  0  0  0  0  0  0
  1  2  1  0
  2  3  1  0
  3  4  1  0
  4  5  1  0
  5  6  2  0
  5  7  1  0
  7  8  2  0
  8  9  1  0
  9 10  2  0
 10 11  1  0
 11 12  1  0
 12 13  1  0
 13 14  2  0
 13 15  1  0
 15 16  1  0
 16 17  1  0
 17 18  2  0
 18 19  1  0
 19 20  2  0
 20 21  1  0
 21 22  2  0
 21 23  1  0
 20 24  1  0
 24 25  2  0
 11 26  2  0
 26  7  1  0
 25 17  1  0
  1 27  1  0
  1 28  1  0
  1 29  1  0
  2 30  1  0
  2 31  1  0
  3 32  1  0
  3 33  1  0
  8 34  1  0
  9 35  1  0
 10 36  1  0
 12 37  1  0
 15 38  1  0
 15 39  1  0
 18 40  1  0
 19 41  1  0
 24 42  1  0
 25 43  1  0
 26 44  1  0
M  CHG  2  21   1  23  -1
M  END
$$$$
