
     RDKit          3D

 39 41  0  0  0  0  0  0  0  0999 V2000
   -1.7035    1.6709   -1.0578 C   0  0  0  0  0  0  0  0  0  0  0  0
   -1.4877    0.4380   -0.3788 O   0  0  0  0  0  0  0  0  0  0  0  0
   -2.5989   -0.2388    0.0530 C   0  0  0  0  0  0  0  0  0  0  0  0
   -3.9048    0.2572    0.0407 C   0  0  0  0  0  0  0  0  0  0  0  0
   -4.9740   -0.5301    0.5030 C   0  0  0  0  0  0  0  0  0  0  0  0
   -6.3702    0.0224    0.5137 C   0  0  0  0  0  0  0  0  0  0  0  0
   -4.7215   -1.8151    1.0005 C   0  0  0  0  0  0  0  0  0  0  0  0
   -3.4223   -2.3182    1.0215 C   0  0  0  0  0  0  0  0  0  0  0  0
   -2.3721   -1.5248    0.5641 C   0  0  0  0  0  0  0  0  0  0  0  0
   -1.1044   -2.0486    0.5642 O   0  0  0  0  0  0  0  0  0  0  0  0
   -0.4591   -1.8139    1.8180 C   0  0  0  0  0  0  0  0  0  0  0  0
    0.9712   -1.3119    1.6065 C   0  0  0  0  0  0  0  0  0  0  0  0
    1.8538   -1.5812    2.4166 O   0  0  0  0  0  0  0  0  0  0  0  0
    1.0874   -0.5179    0.4893 N   0  0  0  0  0  0  0  0  0  0  0  0
    2.2033    0.1296    0.0317 C   0  0  0  0  0  0  0  0  0  0  0  0
    2.1830    0.8970   -1.0379 N   0  0  0  0  0  0  0  0  0  0  0  0
    3.4214    1.4494   -1.3070 N   0  0  0  0  0  0  0  0  0  0  0  0
    4.3188    1.0591   -0.4299 C   0  0  0  0  0  0  0  0  0  0  0  0
    5.8032    1.5333   -0.4902 C   0  0  0  0  0  0  0  0  0  0  0  0
    6.4875    1.6397   -1.8294 C   0  0  0  0  0  0  0  0  0  0  0  0
    6.8776    0.5484   -0.8761 C   0  0  0  0  0  0  0  0  0  0  0  0
    3.7269    0.0195    0.7884 S   0  0  0  0  0  0  0  0  0  0  0  0
   -2.3466    1.5347   -1.9336 H   0  0  0  0  0  0  0  0  0  0  0  0
   -2.1129    2.4246   -0.3776 H   0  0  0  0  0  0  0  0  0  0  0  0
   -0.7326    2.0325   -1.4097 H   0  0  0  0  0  0  0  0  0  0  0  0
   -4.1223    1.2564   -0.3238 H   0  0  0  0  0  0  0  0  0  0  0  0
   -7.1085   -0.7787    0.4025 H   0  0  0  0  0  0  0  0  0  0  0  0
   -6.5569    0.5478    1.4553 H   0  0  0  0  0  0  0  0  0  0  0  0
   -6.5206    0.7194   -0.3175 H   0  0  0  0  0  0  0  0  0  0  0  0
   -5.5378   -2.4333    1.3680 H   0  0  0  0  0  0  0  0  0  0  0  0
   -3.2319   -3.3226    1.3882 H   0  0  0  0  0  0  0  0  0  0  0  0
   -0.4110   -2.7696    2.3513 H   0  0  0  0  0  0  0  0  0  0  0  0
   -0.9772   -1.0783    2.4477 H   0  0  0  0  0  0  0  0  0  0  0  0
    0.2520   -0.3689   -0.0731 H   0  0  0  0  0  0  0  0  0  0  0  0
    6.0542    2.2857    0.2496 H   0  0  0  0  0  0  0  0  0  0  0  0
    5.9293    1.3658   -2.7183 H   0  0  0  0  0  0  0  0  0  0  0  0
    7.1789    2.4607   -1.9787 H   0  0  0  0  0  0  0  0  0  0  0  0
    7.8370    0.6262   -0.3778 H   0  0  0  0  0  0  0  0  0  0  0  0
    6.5915   -0.4665   -1.1288 H   0  0  0  0  0  0  0  0  0  0  0  0
  1  2  1  0
  2  3  1  0
  3  4  2  0
  4  5  1  0
  5  6  1  0
  5  7  2  0
  7  8  1  0
  8  9  2  0
  9 10  1  0
 10 11  1  0
 11 12  1  0
 12 13  2  0
 12 14  1  0
 14 15  1  0
 15 16  2  0
 16 17  1  0
 17 18  2  0
 18 19  1  0
 19 20  1  0
 20 21  1  0
 18 22  1  0
  9  3  1  0
 22 15  1  0
 21 19  1  0
  1 23  1  0
  1 24  1  0
  1 25  1  0
  4 26  1  0
  6 27  1  0
  6 28  1  0
  6 29  1  0
  7 30  1  0
  8 31  1  0
 11 32  1  0
 11 33  1  0
 14 34  1  0
 19 35  1  0
 20 36  1  0
 20 37  1  0
 21 38  1  0
 21 39  1  0
M  END
$$$$
