
     RDKit          3D

 57 60  0  0  0  0  0  0  0  0999 V2000
   -1.7908    1.3728    4.1667 C   0  0  0  0  0  0  0  0  0  0  0  0
   -1.8647    1.6264    2.7692 O   0  0  0  0  0  0  0  0  0  0  0  0
   -0.6996    1.7716    2.0716 C   0  0  0  0  0  0  0  0  0  0  0  0
    0.5732    1.7108    2.6511 C   0  0  0  0  0  0  0  0  0  0  0  0
    1.7257    1.8624    1.8695 C   0  0  0  0  0  0  0  0  0  0  0  0
    1.6195    2.0771    0.4931 C   0  0  0  0  0  0  0  0  0  0  0  0
    2.8221    2.2471   -0.3647 C   0  0  0  0  0  0  0  0  0  0  0  0
    2.7746    2.9779   -1.3473 O   0  0  0  0  0  0  0  0  0  0  0  0
    3.9308    1.5165    0.0031 N   0  0  0  0  0  0  0  0  0  0  0  0
    5.1077    1.4713   -0.8363 C   0  0  0  0  0  0  0  0  0  0  0  0
    5.0856    0.2484   -1.7200 C   0  0  0  0  0  0  0  0  0  0  0  0
    4.3974    0.2836   -2.9562 C   0  0  0  0  0  0  0  0  0  0  0  0
    4.3432   -0.8418   -3.7845 C   0  0  0  0  0  0  0  0  0  0  0  0
    4.9759   -1.9861   -3.3513 C   0  0  0  0  0  0  0  0  0  0  0  0
    5.6375   -2.0351   -2.1468 C   0  0  0  0  0  0  0  0  0  0  0  0
    5.7090   -0.9416   -1.3085 C   0  0  0  0  0  0  0  0  0  0  0  0
    6.1836   -3.2572   -1.9039 O   0  0  0  0  0  0  0  0  0  0  0  0
    5.8009   -3.9671   -3.1014 C   0  0  0  0  0  0  0  0  0  0  0  0
    5.0252   -3.1702   -4.0197 O   0  0  0  0  0  0  0  0  0  0  0  0
    0.3571    2.1596   -0.0973 C   0  0  0  0  0  0  0  0  0  0  0  0
   -0.7928    1.9955    0.6898 C   0  0  0  0  0  0  0  0  0  0  0  0
   -2.3793    2.0757   -0.1100 S   0  0  0  0  0  6  0  0  0  0  0  0
   -3.1614    3.0942    0.5580 O   0  0  0  0  0  0  0  0  0  0  0  0
   -2.1614    2.1453   -1.5426 O   0  0  0  0  0  0  0  0  0  0  0  0
   -3.0684    0.5420    0.1914 N   0  0  0  0  0  0  0  0  0  0  0  0
   -2.3382   -0.6006   -0.4020 C   0  0  0  0  0  0  0  0  0  0  0  0
   -4.5231    0.4962   -0.1137 C   0  0  0  0  0  0  0  0  0  0  0  0
   -5.2484   -0.5503    0.7066 C   0  0  0  0  0  0  0  0  0  0  0  0
   -5.2472   -0.4661    2.1078 C   0  0  0  0  0  0  0  0  0  0  0  0
   -5.9126   -1.4220    2.8760 C   0  0  0  0  0  0  0  0  0  0  0  0
   -6.5858   -2.4715    2.2512 C   0  0  0  0  0  0  0  0  0  0  0  0
   -6.5948   -2.5661    0.8588 C   0  0  0  0  0  0  0  0  0  0  0  0
   -5.9314   -1.6094    0.0881 C   0  0  0  0  0  0  0  0  0  0  0  0
   -1.3122    2.2040    4.6974 H   0  0  0  0  0  0  0  0  0  0  0  0
   -1.2778    0.4251    4.3675 H   0  0  0  0  0  0  0  0  0  0  0  0
   -2.8140    1.2839    4.5435 H   0  0  0  0  0  0  0  0  0  0  0  0
    0.7065    1.5568    3.7176 H   0  0  0  0  0  0  0  0  0  0  0  0
    2.6974    1.8428    2.3570 H   0  0  0  0  0  0  0  0  0  0  0  0
    3.8212    0.7649    0.6704 H   0  0  0  0  0  0  0  0  0  0  0  0
    5.9794    1.4435   -0.1731 H   0  0  0  0  0  0  0  0  0  0  0  0
    5.1900    2.3809   -1.4425 H   0  0  0  0  0  0  0  0  0  0  0  0
    3.8958    1.2001   -3.2693 H   0  0  0  0  0  0  0  0  0  0  0  0
    3.8195   -0.8151   -4.7333 H   0  0  0  0  0  0  0  0  0  0  0  0
    6.2375   -1.0123   -0.3640 H   0  0  0  0  0  0  0  0  0  0  0  0
    6.7093   -4.3068   -3.6125 H   0  0  0  0  0  0  0  0  0  0  0  0
    5.2099   -4.8448   -2.8150 H   0  0  0  0  0  0  0  0  0  0  0  0
    0.2766    2.3464   -1.1671 H   0  0  0  0  0  0  0  0  0  0  0  0
   -1.2897   -0.5980   -0.0918 H   0  0  0  0  0  0  0  0  0  0  0  0
   -2.7614   -1.5477   -0.0525 H   0  0  0  0  0  0  0  0  0  0  0  0
   -2.3919   -0.5808   -1.4950 H   0  0  0  0  0  0  0  0  0  0  0  0
   -4.6677    0.3124   -1.1867 H   0  0  0  0  0  0  0  0  0  0  0  0
   -5.0052    1.4565    0.1066 H   0  0  0  0  0  0  0  0  0  0  0  0
   -4.7191    0.3498    2.6004 H   0  0  0  0  0  0  0  0  0  0  0  0
   -5.9040   -1.3477    3.9616 H   0  0  0  0  0  0  0  0  0  0  0  0
   -7.1032   -3.2168    2.8495 H   0  0  0  0  0  0  0  0  0  0  0  0
   -7.1191   -3.3866    0.3753 H   0  0  0  0  0  0  0  0  0  0  0  0
   -5.9471   -1.6999   -0.9941 H   0  0  0  0  0  0  0  0  0  0  0  0
  1  2  1  0
  2  3  1  0
  3  4  2  0
  4  5  1  0
  5  6  2  0
  6  7  1  0
  7  8  2  0
  7  9  1  0
  9 10  1  0
 10 11  1  0
 11 12  2  0
 12 13  1  0
 13 14  2  0
 14 15  1  0
 15 16  2  0
 15 17  1  0
 17 18  1  0
 18 19  1  0
  6 20  1  0
 20 21  2  0
 21 22  1  0
 22 23  2  0
 22 24  2  0
 22 25  1  0
 25 26  1  0
 25 27  1  0
 27 28  1  0
 28 29  2  0
 29 30  1  0
 30 31  2  0
 31 32  1  0
 32 33  2  0
 21  3  1  0
 33 28  1  0
 16 11  1  0
 19 14  1  0
  1 34  1  0
  1 35  1  0
  1 36  1  0
  4 37  1  0
  5 38  1  0
  9 39  1  0
 10 40  1  0
 10 41  1  0
 12 42  1  0
 13 43  1  0
 16 44  1  0
 18 45  1  0
 18 46  1  0
 20 47  1  0
 26 48  1  0
 26 49  1  0
 26 50  1  0
 27 51  1  0
 27 52  1  0
 29 53  1  0
 30 54  1  0
 31 55  1  0
 32 56  1  0
 33 57  1  0
M  END
$$$$
