
     RDKit          3D

 52 57  0  0  0  0  0  0  0  0999 V2000
    4.9468   -2.4705    0.0125 C   0  0  0  0  0  0  0  0  0  0  0  0
    3.8666   -1.6132    0.6010 C   0  0  0  0  0  0  0  0  0  0  0  0
    3.6982   -1.4890    1.9928 C   0  0  0  0  0  0  0  0  0  0  0  0
    4.7431   -2.3120    3.1009 Cl  0  0  0  0  0  0  0  0  0  0  0  0
    2.6706   -0.6993    2.5452 C   0  0  0  0  0  0  0  0  0  0  0  0
    1.7773   -0.0110    1.7237 C   0  0  0  0  0  0  0  0  0  0  0  0
    1.9298   -0.1247    0.3495 C   0  0  0  0  0  0  0  0  0  0  0  0
    2.9525   -0.9235   -0.1877 C   0  0  0  0  0  0  0  0  0  0  0  0
    2.8746   -0.9129   -1.5783 N   0  0  0  0  0  0  0  0  0  0  0  0
    1.8044   -0.1414   -2.0373 C   0  0  0  0  0  0  0  0  0  0  0  0
    1.5169   -0.0008   -3.2173 O   0  0  0  0  0  0  0  0  0  0  0  0
    1.1288    0.4742   -0.7833 C   0  0  1  0  0  0  0  0  0  0  0  0
   -0.2812    0.0736   -0.5953 C   0  0  0  0  0  0  0  0  0  0  0  0
   -1.1113    1.1883   -0.4695 C   0  0  0  0  0  0  0  0  0  0  0  0
   -2.3993    0.7617   -0.2780 C   0  0  0  0  0  0  0  0  0  0  0  0
   -3.5218    1.4653   -0.1552 O   0  0  0  0  0  0  0  0  0  0  0  0
   -2.3815   -0.6468   -0.3251 N   0  0  0  0  0  0  0  0  0  0  0  0
   -3.5228   -1.5096   -0.2924 C   0  0  0  0  0  0  0  0  0  0  0  0
   -4.6641   -1.1582    0.4388 C   0  0  0  0  0  0  0  0  0  0  0  0
   -5.7704   -2.0116    0.4696 C   0  0  0  0  0  0  0  0  0  0  0  0
   -5.7501   -3.2128   -0.2362 C   0  0  0  0  0  0  0  0  0  0  0  0
   -4.6260   -3.5615   -0.9813 C   0  0  0  0  0  0  0  0  0  0  0  0
   -3.5161   -2.7138   -1.0137 C   0  0  0  0  0  0  0  0  0  0  0  0
   -1.0378   -1.0578   -0.4443 C   0  0  0  0  0  0  0  0  0  0  0  0
   -0.6150   -2.3184   -0.3574 O   0  0  0  0  0  0  0  0  0  0  0  0
   -0.3486    2.4488   -0.6053 C   0  0  1  0  0  0  0  0  0  0  0  0
   -0.4003    3.3627    0.6410 C   0  0  0  0  0  0  0  0  0  0  0  0
    0.4979    4.5340    0.5739 N   0  0  0  0  0  0  0  0  0  0  0  0
    1.6941    4.2627   -0.2478 C   0  0  0  0  0  0  0  0  0  0  0  0
    2.0979    2.7715   -0.3177 C   0  0  0  0  0  0  0  0  0  0  0  0
    1.0358    1.9603   -0.9005 N   0  0  0  0  0  0  0  0  0  0  0  0
    5.0385   -2.3416   -1.0704 H   0  0  0  0  0  0  0  0  0  0  0  0
    5.9219   -2.2086    0.4385 H   0  0  0  0  0  0  0  0  0  0  0  0
    4.7371   -3.5287    0.2067 H   0  0  0  0  0  0  0  0  0  0  0  0
    2.5616   -0.6283    3.6255 H   0  0  0  0  0  0  0  0  0  0  0  0
    0.9786    0.5850    2.1531 H   0  0  0  0  0  0  0  0  0  0  0  0
    3.4595   -1.4305   -2.2153 H   0  0  0  0  0  0  0  0  0  0  0  0
   -3.3126    2.3993   -0.3315 H   0  0  0  0  0  0  0  0  0  0  0  0
   -4.7076   -0.2395    1.0177 H   0  0  0  0  0  0  0  0  0  0  0  0
   -6.6497   -1.7350    1.0462 H   0  0  0  0  0  0  0  0  0  0  0  0
   -6.6153   -3.8704   -0.2154 H   0  0  0  0  0  0  0  0  0  0  0  0
   -4.6197   -4.4861   -1.5534 H   0  0  0  0  0  0  0  0  0  0  0  0
   -2.6807   -2.9869   -1.6557 H   0  0  0  0  0  0  0  0  0  0  0  0
   -1.2980   -2.8474    0.0932 H   0  0  0  0  0  0  0  0  0  0  0  0
   -0.7081    3.0034   -1.4816 H   0  0  0  0  0  0  0  0  0  0  0  0
   -0.1416    2.7802    1.5356 H   0  0  0  0  0  0  0  0  0  0  0  0
   -1.4240    3.7218    0.7990 H   0  0  0  0  0  0  0  0  0  0  0  0
    0.7823    4.7817    1.5211 H   0  0  0  0  0  0  0  0  0  0  0  0
    2.5314    4.8505    0.1451 H   0  0  0  0  0  0  0  0  0  0  0  0
    1.5041    4.6344   -1.2623 H   0  0  0  0  0  0  0  0  0  0  0  0
    3.0056    2.6728   -0.9232 H   0  0  0  0  0  0  0  0  0  0  0  0
    2.3476    2.4601    0.7018 H   0  0  0  0  0  0  0  0  0  0  0  0
  1  2  1  0
  2  3  2  0
  3  4  1  0
  3  5  1  0
  5  6  2  0
  6  7  1  0
  7  8  2  0
  8  9  1  0
  9 10  1  0
 10 11  2  0
 10 12  1  0
 12 13  1  0
 13 14  1  0
 14 15  2  0
 15 16  1  0
 15 17  1  0
 17 18  1  0
 18 19  2  0
 19 20  1  0
 20 21  2  0
 21 22  1  0
 22 23  2  0
 17 24  1  0
 24 25  1  0
 14 26  1  0
 26 27  1  0
 27 28  1  0
 28 29  1  0
 29 30  1  0
 30 31  1  0
  8  2  1  0
 12 31  1  6
 12  7  1  0
 24 13  2  0
 31 26  1  0
 23 18  1  0
  1 32  1  0
  1 33  1  0
  1 34  1  0
  5 35  1  0
  6 36  1  0
  9 37  1  0
 16 38  1  0
 19 39  1  0
 20 40  1  0
 21 41  1  0
 22 42  1  0
 23 43  1  0
 25 44  1  0
 26 45  1  6
 27 46  1  0
 27 47  1  0
 28 48  1  0
 29 49  1  0
 29 50  1  0
 30 51  1  0
 30 52  1  0
M  END
$$$$
