
     RDKit          3D

 48 49  0  0  0  0  0  0  0  0999 V2000
   -4.6584    2.1655   -0.3818 C   0  0  0  0  0  0  0  0  0  0  0  0
   -4.9040    0.9754    0.5329 C   0  0  0  0  0  0  0  0  0  0  0  0
   -5.2147   -0.2401   -0.2253 N   0  0  0  0  0  0  0  0  0  0  0  0
   -6.6143   -0.4626   -0.5845 C   0  0  0  0  0  0  0  0  0  0  0  0
   -7.3320   -1.2981    0.4636 C   0  0  0  0  0  0  0  0  0  0  0  0
   -4.2702   -1.1539   -0.6940 C   0  0  0  0  0  0  0  0  0  0  0  0
   -4.5398   -2.1183   -1.4053 O   0  0  0  0  0  0  0  0  0  0  0  0
   -2.8538   -0.9625   -0.3324 C   0  0  0  0  0  0  0  0  0  0  0  0
   -1.9583   -0.5147   -1.3031 C   0  0  0  0  0  0  0  0  0  0  0  0
   -0.6092   -0.3602   -0.9741 C   0  0  0  0  0  0  0  0  0  0  0  0
   -0.1479   -0.6628    0.3161 C   0  0  0  0  0  0  0  0  0  0  0  0
    1.2251   -0.4840    0.5598 N   0  0  0  0  0  0  0  0  0  0  0  0
    1.9216   -0.6868    1.7374 C   0  0  0  0  0  0  0  0  0  0  0  0
    1.4534   -1.0438    2.8148 O   0  0  0  0  0  0  0  0  0  0  0  0
    3.4244   -0.4205    1.5959 C   0  0  0  0  0  0  0  0  0  0  0  0
    3.7355    0.0425    0.2844 O   0  0  0  0  0  0  0  0  0  0  0  0
    5.0448    0.3006   -0.0193 C   0  0  0  0  0  0  0  0  0  0  0  0
    6.1107    0.1651    0.8762 C   0  0  0  0  0  0  0  0  0  0  0  0
    7.4184    0.4538    0.4673 C   0  0  0  0  0  0  0  0  0  0  0  0
    7.6612    0.8822   -0.8443 C   0  0  0  0  0  0  0  0  0  0  0  0
    9.0337    1.1836   -1.2699 N   0  0  0  0  0  4  0  0  0  0  0  0
    9.9311    1.0912   -0.4211 O   0  0  0  0  0  0  0  0  0  0  0  0
    9.2103    1.5116   -2.4512 O   0  0  0  0  0  1  0  0  0  0  0  0
    6.6077    1.0245   -1.7517 C   0  0  0  0  0  0  0  0  0  0  0  0
    5.3075    0.7330   -1.3331 C   0  0  0  0  0  0  0  0  0  0  0  0
    4.0247    0.9178   -2.4804 Cl  0  0  0  0  0  0  0  0  0  0  0  0
   -1.0543   -1.1311    1.2719 C   0  0  0  0  0  0  0  0  0  0  0  0
   -2.4058   -1.2908    0.9482 C   0  0  0  0  0  0  0  0  0  0  0  0
   -4.4273    3.0568    0.2099 H   0  0  0  0  0  0  0  0  0  0  0  0
   -5.5393    2.3823   -0.9943 H   0  0  0  0  0  0  0  0  0  0  0  0
   -3.8205    1.9792   -1.0604 H   0  0  0  0  0  0  0  0  0  0  0  0
   -4.0236    0.8200    1.1597 H   0  0  0  0  0  0  0  0  0  0  0  0
   -5.7388    1.1848    1.2110 H   0  0  0  0  0  0  0  0  0  0  0  0
   -7.1118    0.5056   -0.7061 H   0  0  0  0  0  0  0  0  0  0  0  0
   -6.6698   -0.9751   -1.5513 H   0  0  0  0  0  0  0  0  0  0  0  0
   -7.3183   -0.8022    1.4394 H   0  0  0  0  0  0  0  0  0  0  0  0
   -6.8560   -2.2769    0.5809 H   0  0  0  0  0  0  0  0  0  0  0  0
   -8.3754   -1.4565    0.1749 H   0  0  0  0  0  0  0  0  0  0  0  0
   -2.3060   -0.2971   -2.3095 H   0  0  0  0  0  0  0  0  0  0  0  0
    0.0760   -0.0094   -1.7423 H   0  0  0  0  0  0  0  0  0  0  0  0
    1.7931   -0.1632   -0.2209 H   0  0  0  0  0  0  0  0  0  0  0  0
    3.9389   -1.3671    1.7967 H   0  0  0  0  0  0  0  0  0  0  0  0
    3.6900    0.3420    2.3367 H   0  0  0  0  0  0  0  0  0  0  0  0
    5.9632   -0.1624    1.9019 H   0  0  0  0  0  0  0  0  0  0  0  0
    8.2322    0.3386    1.1820 H   0  0  0  0  0  0  0  0  0  0  0  0
    6.7846    1.3562   -2.7728 H   0  0  0  0  0  0  0  0  0  0  0  0
   -0.7385   -1.3954    2.2766 H   0  0  0  0  0  0  0  0  0  0  0  0
   -3.0999   -1.6766    1.6908 H   0  0  0  0  0  0  0  0  0  0  0  0
  1  2  1  0
  2  3  1  0
  3  4  1  0
  4  5  1  0
  3  6  1  0
  6  7  2  0
  6  8  1  0
  8  9  2  0
  9 10  1  0
 10 11  2  0
 11 12  1  0
 12 13  1  0
 13 14  2  0
 13 15  1  0
 15 16  1  0
 16 17  1  0
 17 18  2  0
 18 19  1  0
 19 20  2  0
 20 21  1  0
 21 22  2  0
 21 23  1  0
 20 24  1  0
 24 25  2  0
 25 26  1  0
 11 27  1  0
 27 28  2  0
 28  8  1  0
 25 17  1  0
  1 29  1  0
  1 30  1  0
  1 31  1  0
  2 32  1  0
  2 33  1  0
  4 34  1  0
  4 35  1  0
  5 36  1  0
  5 37  1  0
  5 38  1  0
  9 39  1  0
 10 40  1  0
 12 41  1  0
 15 42  1  0
 15 43  1  0
 18 44  1  0
 19 45  1  0
 24 46  1  0
 27 47  1  0
 28 48  1  0
M  CHG  2  21   1  23  -1
M  END
$$$$
