
     RDKit          3D

 58 60  0  0  0  0  0  0  0  0999 V2000
   -1.7968    3.9354   -2.3663 C   0  0  0  0  0  0  0  0  0  0  0  0
   -2.6897    2.7401   -2.1596 C   0  0  0  0  0  0  0  0  0  0  0  0
   -4.0472    2.8576   -2.5131 C   0  0  0  0  0  0  0  0  0  0  0  0
   -4.9272    1.7920   -2.3377 C   0  0  0  0  0  0  0  0  0  0  0  0
   -4.4482    0.5944   -1.8122 C   0  0  0  0  0  0  0  0  0  0  0  0
   -5.5456   -0.7943   -1.6260 S   0  0  0  0  0  6  0  0  0  0  0  0
   -4.7938   -1.9908   -1.9362 O   0  0  0  0  0  0  0  0  0  0  0  0
   -6.7660   -0.4787   -2.3408 O   0  0  0  0  0  0  0  0  0  0  0  0
   -5.9121   -0.8036    0.0287 N   0  0  0  0  0  0  0  0  0  0  0  0
   -4.8159   -1.1757    0.9699 C   0  0  0  0  0  0  0  0  0  0  0  0
   -5.4134   -1.4545    2.3544 C   0  0  0  0  0  0  0  0  0  0  0  0
   -6.1377   -0.3128    2.8440 O   0  0  0  0  0  0  0  0  0  0  0  0
   -7.2193    0.0083    1.9551 C   0  0  0  0  0  0  0  0  0  0  0  0
   -6.7030    0.3448    0.5503 C   0  0  0  0  0  0  0  0  0  0  0  0
   -3.0971    0.4495   -1.4818 C   0  0  0  0  0  0  0  0  0  0  0  0
   -2.2132    1.5244   -1.6191 C   0  0  0  0  0  0  0  0  0  0  0  0
   -0.8515    1.4243   -1.2478 N   0  0  0  0  0  0  0  0  0  0  0  0
   -0.2627    0.4235   -0.4818 C   0  0  0  0  0  0  0  0  0  0  0  0
   -0.8515   -0.5042    0.0656 O   0  0  0  0  0  0  0  0  0  0  0  0
    1.2481    0.6280   -0.3390 C   0  0  0  0  0  0  0  0  0  0  0  0
    1.8754   -0.5178    0.2297 O   0  0  0  0  0  0  0  0  0  0  0  0
    3.1664   -0.3146    0.6054 C   0  0  0  0  0  0  0  0  0  0  0  0
    3.7518    0.7597    0.5365 O   0  0  0  0  0  0  0  0  0  0  0  0
    3.7526   -1.5930    1.1915 C   0  0  0  0  0  0  0  0  0  0  0  0
    5.2063   -1.5229    1.2363 N   0  0  0  0  0  0  0  0  0  0  0  0
    5.9433   -1.9009    0.1319 C   0  0  0  0  0  0  0  0  0  0  0  0
    5.4405   -2.4053   -0.8655 O   0  0  0  0  0  0  0  0  0  0  0  0
    7.4055   -1.6195    0.1833 C   0  0  0  0  0  0  0  0  0  0  0  0
    8.1017   -1.5275    1.3956 C   0  0  0  0  0  0  0  0  0  0  0  0
    9.4738   -1.2636    1.3952 C   0  0  0  0  0  0  0  0  0  0  0  0
   10.1542   -1.0981    0.1890 C   0  0  0  0  0  0  0  0  0  0  0  0
    9.4689   -1.2043   -1.0205 C   0  0  0  0  0  0  0  0  0  0  0  0
    8.0983   -1.4694   -1.0249 C   0  0  0  0  0  0  0  0  0  0  0  0
   -1.3682    4.2591   -1.4125 H   0  0  0  0  0  0  0  0  0  0  0  0
   -2.3474    4.7852   -2.7830 H   0  0  0  0  0  0  0  0  0  0  0  0
   -0.9928    3.6910   -3.0679 H   0  0  0  0  0  0  0  0  0  0  0  0
   -4.4291    3.7872   -2.9322 H   0  0  0  0  0  0  0  0  0  0  0  0
   -5.9710    1.9004   -2.6246 H   0  0  0  0  0  0  0  0  0  0  0  0
   -4.1075   -0.3447    1.0485 H   0  0  0  0  0  0  0  0  0  0  0  0
   -4.2919   -2.0697    0.6200 H   0  0  0  0  0  0  0  0  0  0  0  0
   -4.6132   -1.6699    3.0690 H   0  0  0  0  0  0  0  0  0  0  0  0
   -6.0854   -2.3206    2.3304 H   0  0  0  0  0  0  0  0  0  0  0  0
   -7.7464    0.8714    2.3738 H   0  0  0  0  0  0  0  0  0  0  0  0
   -7.9218   -0.8337    1.9294 H   0  0  0  0  0  0  0  0  0  0  0  0
   -7.5577    0.5537   -0.1000 H   0  0  0  0  0  0  0  0  0  0  0  0
   -6.0615    1.2321    0.5983 H   0  0  0  0  0  0  0  0  0  0  0  0
   -2.7544   -0.5208   -1.1342 H   0  0  0  0  0  0  0  0  0  0  0  0
   -0.2615    2.2105   -1.4880 H   0  0  0  0  0  0  0  0  0  0  0  0
    1.6740    0.8085   -1.3322 H   0  0  0  0  0  0  0  0  0  0  0  0
    1.3946    1.5058    0.3018 H   0  0  0  0  0  0  0  0  0  0  0  0
    3.4428   -2.4516    0.5881 H   0  0  0  0  0  0  0  0  0  0  0  0
    3.3935   -1.7046    2.2182 H   0  0  0  0  0  0  0  0  0  0  0  0
    5.6022   -0.8035    1.8277 H   0  0  0  0  0  0  0  0  0  0  0  0
    7.5994   -1.6848    2.3451 H   0  0  0  0  0  0  0  0  0  0  0  0
   10.0152   -1.1956    2.3356 H   0  0  0  0  0  0  0  0  0  0  0  0
   11.2225   -0.8952    0.1909 H   0  0  0  0  0  0  0  0  0  0  0  0
   10.0008   -1.0841   -1.9606 H   0  0  0  0  0  0  0  0  0  0  0  0
    7.5699   -1.5567   -1.9726 H   0  0  0  0  0  0  0  0  0  0  0  0
  1  2  1  0
  2  3  2  0
  3  4  1  0
  4  5  2  0
  5  6  1  0
  6  7  2  0
  6  8  2  0
  6  9  1  0
  9 10  1  0
 10 11  1  0
 11 12  1  0
 12 13  1  0
 13 14  1  0
  5 15  1  0
 15 16  2  0
 16 17  1  0
 17 18  1  0
 18 19  2  0
 18 20  1  0
 20 21  1  0
 21 22  1  0
 22 23  2  0
 22 24  1  0
 24 25  1  0
 25 26  1  0
 26 27  2  0
 26 28  1  0
 28 29  2  0
 29 30  1  0
 30 31  2  0
 31 32  1  0
 32 33  2  0
 16  2  1  0
 33 28  1  0
 14  9  1  0
  1 34  1  0
  1 35  1  0
  1 36  1  0
  3 37  1  0
  4 38  1  0
 10 39  1  0
 10 40  1  0
 11 41  1  0
 11 42  1  0
 13 43  1  0
 13 44  1  0
 14 45  1  0
 14 46  1  0
 15 47  1  0
 17 48  1  0
 20 49  1  0
 20 50  1  0
 24 51  1  0
 24 52  1  0
 25 53  1  0
 29 54  1  0
 30 55  1  0
 31 56  1  0
 32 57  1  0
 33 58  1  0
M  END
$$$$
