
     RDKit          3D

 67 72  0  0  0  0  0  0  0  0999 V2000
   -4.7235   -4.3914    2.0312 C   0  0  0  0  0  0  0  0  0  0  0  0
   -3.6942   -3.3108    2.1704 C   0  0  0  0  0  0  0  0  0  0  0  0
   -3.3757   -2.7538    3.4243 C   0  0  0  0  0  0  0  0  0  0  0  0
   -4.1616   -3.2931    4.8696 Cl  0  0  0  0  0  0  0  0  0  0  0  0
   -2.4046   -1.7415    3.5605 C   0  0  0  0  0  0  0  0  0  0  0  0
   -1.7256   -1.2484    2.4467 C   0  0  0  0  0  0  0  0  0  0  0  0
   -2.0400   -1.7794    1.2068 C   0  0  0  0  0  0  0  0  0  0  0  0
   -2.9998   -2.7966    1.0820 C   0  0  0  0  0  0  0  0  0  0  0  0
   -3.1062   -3.1787   -0.2562 N   0  0  0  0  0  0  0  0  0  0  0  0
   -2.2425   -2.4478   -1.0754 C   0  0  0  0  0  0  0  0  0  0  0  0
   -2.1159   -2.6103   -2.2806 O   0  0  0  0  0  0  0  0  0  0  0  0
   -1.4901   -1.4608   -0.1511 C   0  0  1  0  0  0  0  0  0  0  0  0
   -1.7537   -0.0384   -0.4891 C   0  0  0  0  0  0  0  0  0  0  0  0
   -0.6198    0.5441   -1.0797 C   0  0  0  0  0  0  0  0  0  0  0  0
   -0.8909    1.8573   -1.3555 C   0  0  0  0  0  0  0  0  0  0  0  0
   -0.1428    2.7817   -1.9520 O   0  0  0  0  0  0  0  0  0  0  0  0
   -2.2265    2.0943   -0.9690 N   0  0  0  0  0  0  0  0  0  0  0  0
   -2.9605    3.3056   -1.1792 C   0  0  0  0  0  0  0  0  0  0  0  0
   -4.3382    3.2571   -1.4527 C   0  0  0  0  0  0  0  0  0  0  0  0
   -5.0557    4.4381   -1.6583 C   0  0  0  0  0  0  0  0  0  0  0  0
   -4.3996    5.6610   -1.5938 C   0  0  0  0  0  0  0  0  0  0  0  0
   -5.0900    6.7915   -1.7899 F   0  0  0  0  0  0  0  0  0  0  0  0
   -3.0364    5.7267   -1.3345 C   0  0  0  0  0  0  0  0  0  0  0  0
   -2.3121    4.5489   -1.1325 C   0  0  0  0  0  0  0  0  0  0  0  0
   -2.7286    0.9158   -0.3781 C   0  0  0  0  0  0  0  0  0  0  0  0
   -3.9144    0.8097    0.2202 O   0  0  0  0  0  0  0  0  0  0  0  0
    0.4515   -0.4664   -1.2257 C   0  0  1  0  0  0  0  0  0  0  0  0
    1.8719   -0.0678   -0.8234 C   0  0  0  0  0  0  0  0  0  0  0  0
    2.7337   -1.2399   -0.5821 N   0  0  0  0  0  0  0  0  0  0  0  0
    4.0756   -1.1096   -0.2881 C   0  0  0  0  0  0  0  0  0  0  0  0
    4.8419   -2.0570   -0.1771 O   0  0  0  0  0  0  0  0  0  0  0  0
    4.4330    0.1933   -0.1465 O   0  0  0  0  0  0  0  0  0  0  0  0
    5.7985    0.5640    0.1717 C   0  0  0  0  0  0  0  0  0  0  0  0
    6.2236    0.0126    1.5369 C   0  0  0  0  0  0  0  0  0  0  0  0
    6.7637    0.1469   -0.9430 C   0  0  0  0  0  0  0  0  0  0  0  0
    5.7742    2.0984    0.2494 C   0  0  0  0  0  0  0  0  0  0  0  0
    2.1683   -2.5704   -0.8435 C   0  0  0  0  0  0  0  0  0  0  0  0
    0.7073   -2.7511   -0.3426 C   0  0  0  0  0  0  0  0  0  0  0  0
   -0.0178   -1.4967   -0.2666 N   0  0  0  0  0  0  0  0  0  0  0  0
   -4.8460   -4.7232    0.9965 H   0  0  0  0  0  0  0  0  0  0  0  0
   -5.7002   -4.0320    2.3717 H   0  0  0  0  0  0  0  0  0  0  0  0
   -4.4341   -5.2702    2.6166 H   0  0  0  0  0  0  0  0  0  0  0  0
   -2.1773   -1.3347    4.5436 H   0  0  0  0  0  0  0  0  0  0  0  0
   -0.9762   -0.4690    2.5469 H   0  0  0  0  0  0  0  0  0  0  0  0
   -3.7193   -3.8883   -0.6260 H   0  0  0  0  0  0  0  0  0  0  0  0
    0.6806    2.3614   -2.2530 H   0  0  0  0  0  0  0  0  0  0  0  0
   -4.8628    2.3102   -1.5681 H   0  0  0  0  0  0  0  0  0  0  0  0
   -6.1172    4.4103   -1.8849 H   0  0  0  0  0  0  0  0  0  0  0  0
   -2.5435    6.6928   -1.2907 H   0  0  0  0  0  0  0  0  0  0  0  0
   -1.2507    4.6284   -0.9112 H   0  0  0  0  0  0  0  0  0  0  0  0
   -4.2027    1.6959    0.5037 H   0  0  0  0  0  0  0  0  0  0  0  0
    0.4340   -0.8649   -2.2494 H   0  0  0  0  0  0  0  0  0  0  0  0
    2.3308    0.5437   -1.6096 H   0  0  0  0  0  0  0  0  0  0  0  0
    1.8731    0.5333    0.0951 H   0  0  0  0  0  0  0  0  0  0  0  0
    6.3323   -1.0759    1.5233 H   0  0  0  0  0  0  0  0  0  0  0  0
    5.4724    0.2438    2.3004 H   0  0  0  0  0  0  0  0  0  0  0  0
    7.1839    0.4326    1.8542 H   0  0  0  0  0  0  0  0  0  0  0  0
    7.7607    0.5729   -0.7868 H   0  0  0  0  0  0  0  0  0  0  0  0
    6.3934    0.4754   -1.9208 H   0  0  0  0  0  0  0  0  0  0  0  0
    6.8783   -0.9397   -1.0000 H   0  0  0  0  0  0  0  0  0  0  0  0
    6.7619    2.5104    0.4821 H   0  0  0  0  0  0  0  0  0  0  0  0
    5.0682    2.4384    1.0163 H   0  0  0  0  0  0  0  0  0  0  0  0
    5.4326    2.5314   -0.6982 H   0  0  0  0  0  0  0  0  0  0  0  0
    2.1927   -2.6964   -1.9334 H   0  0  0  0  0  0  0  0  0  0  0  0
    2.8047   -3.3518   -0.4148 H   0  0  0  0  0  0  0  0  0  0  0  0
    0.2180   -3.4799   -0.9980 H   0  0  0  0  0  0  0  0  0  0  0  0
    0.7359   -3.1919    0.6607 H   0  0  0  0  0  0  0  0  0  0  0  0
  1  2  1  0
  2  3  2  0
  3  4  1  0
  3  5  1  0
  5  6  2  0
  6  7  1  0
  7  8  2  0
  8  9  1  0
  9 10  1  0
 10 11  2  0
 10 12  1  0
 12 13  1  0
 13 14  1  0
 14 15  2  0
 15 16  1  0
 15 17  1  0
 17 18  1  0
 18 19  2  0
 19 20  1  0
 20 21  2  0
 21 22  1  0
 21 23  1  0
 23 24  2  0
 17 25  1  0
 25 26  1  0
 14 27  1  0
 27 28  1  0
 28 29  1  0
 29 30  1  0
 30 31  2  0
 30 32  1  0
 32 33  1  0
 33 34  1  0
 33 35  1  0
 33 36  1  0
 29 37  1  0
 37 38  1  0
 38 39  1  0
  8  2  1  0
 12 39  1  1
 12  7  1  0
 25 13  2  0
 39 27  1  0
 24 18  1  0
  1 40  1  0
  1 41  1  0
  1 42  1  0
  5 43  1  0
  6 44  1  0
  9 45  1  0
 16 46  1  0
 19 47  1  0
 20 48  1  0
 23 49  1  0
 24 50  1  0
 26 51  1  0
 27 52  1  6
 28 53  1  0
 28 54  1  0
 34 55  1  0
 34 56  1  0
 34 57  1  0
 35 58  1  0
 35 59  1  0
 35 60  1  0
 36 61  1  0
 36 62  1  0
 36 63  1  0
 37 64  1  0
 37 65  1  0
 38 66  1  0
 38 67  1  0
M  END
$$$$
