
     RDKit          3D

 46 48  0  0  0  0  0  0  0  0999 V2000
   -1.7698    1.3940   -1.5554 C   0  0  0  0  0  0  0  0  0  0  0  0
   -2.0322   -0.1003   -1.5330 C   0  0  0  0  0  0  0  0  0  0  0  0
   -2.5890   -0.5011   -0.2044 N   0  0  0  0  0  4  0  0  0  0  0  0
   -1.7361   -0.9286    0.7759 C   0  0  0  0  0  0  0  0  0  0  0  0
   -0.2885   -1.0037    0.5455 C   0  0  0  0  0  0  0  0  0  0  0  0
    0.5718   -0.1520    1.1264 C   0  0  0  0  0  0  0  0  0  0  0  0
    2.0213   -0.1915    0.8871 C   0  0  0  0  0  0  0  0  0  0  0  0
    2.7348   -1.3934    0.8468 C   0  0  0  0  0  0  0  0  0  0  0  0
    4.1151   -1.3940    0.6221 C   0  0  0  0  0  0  0  0  0  0  0  0
    4.8040   -0.1912    0.4468 C   0  0  0  0  0  0  0  0  0  0  0  0
    6.1525   -0.0944    0.2162 O   0  0  0  0  0  0  0  0  0  0  0  0
    6.9099   -1.2957    0.1836 C   0  0  0  0  0  0  0  0  0  0  0  0
    4.0985    1.0261    0.5126 C   0  0  0  0  0  0  0  0  0  0  0  0
    4.8434    2.1643    0.3290 O   0  0  0  0  0  0  0  0  0  0  0  0
    4.2394    3.4114    0.6396 C   0  0  0  0  0  0  0  0  0  0  0  0
    2.7150    1.0170    0.7340 C   0  0  0  0  0  0  0  0  0  0  0  0
   -2.2196   -1.3184    2.0250 C   0  0  0  0  0  0  0  0  0  0  0  0
   -3.5750   -1.2743    2.2888 C   0  0  0  0  0  0  0  0  0  0  0  0
   -4.4472   -0.8297    1.3036 C   0  0  0  0  0  0  0  0  0  0  0  0
   -5.8225   -0.7748    1.5741 C   0  0  0  0  0  0  0  0  0  0  0  0
   -6.7183   -0.3215    0.6105 C   0  0  0  0  0  0  0  0  0  0  0  0
   -6.2484    0.0850   -0.6304 C   0  0  0  0  0  0  0  0  0  0  0  0
   -4.8793    0.0339   -0.9152 C   0  0  0  0  0  0  0  0  0  0  0  0
   -3.9446   -0.4288    0.0336 C   0  0  0  0  0  0  0  0  0  0  0  0
   -2.6858    1.9671   -1.3837 H   0  0  0  0  0  0  0  0  0  0  0  0
   -1.3613    1.6908   -2.5262 H   0  0  0  0  0  0  0  0  0  0  0  0
   -1.0521    1.6840   -0.7823 H   0  0  0  0  0  0  0  0  0  0  0  0
   -1.1163   -0.6608   -1.7362 H   0  0  0  0  0  0  0  0  0  0  0  0
   -2.7260   -0.4112   -2.3185 H   0  0  0  0  0  0  0  0  0  0  0  0
    0.0514   -1.7868   -0.1281 H   0  0  0  0  0  0  0  0  0  0  0  0
    0.2301    0.6432    1.7881 H   0  0  0  0  0  0  0  0  0  0  0  0
    2.2374   -2.3482    0.9997 H   0  0  0  0  0  0  0  0  0  0  0  0
    4.6263   -2.3511    0.5947 H   0  0  0  0  0  0  0  0  0  0  0  0
    7.9556   -1.0275    0.0045 H   0  0  0  0  0  0  0  0  0  0  0  0
    6.8606   -1.8200    1.1435 H   0  0  0  0  0  0  0  0  0  0  0  0
    6.5870   -1.9429   -0.6384 H   0  0  0  0  0  0  0  0  0  0  0  0
    3.8570    3.4255    1.6657 H   0  0  0  0  0  0  0  0  0  0  0  0
    5.0086    4.1856    0.5599 H   0  0  0  0  0  0  0  0  0  0  0  0
    3.4498    3.6521   -0.0795 H   0  0  0  0  0  0  0  0  0  0  0  0
    2.1608    1.9490    0.7736 H   0  0  0  0  0  0  0  0  0  0  0  0
   -1.5376   -1.6657    2.8005 H   0  0  0  0  0  0  0  0  0  0  0  0
   -3.9390   -1.5849    3.2681 H   0  0  0  0  0  0  0  0  0  0  0  0
   -6.2161   -1.0825    2.5432 H   0  0  0  0  0  0  0  0  0  0  0  0
   -7.7840   -0.2815    0.8318 H   0  0  0  0  0  0  0  0  0  0  0  0
   -6.9514    0.4463   -1.3804 H   0  0  0  0  0  0  0  0  0  0  0  0
   -4.5904    0.3809   -1.9023 H   0  0  0  0  0  0  0  0  0  0  0  0
  1  2  1  0
  2  3  1  0
  3  4  2  0
  4  5  1  0
  5  6  2  3
  6  7  1  0
  7  8  2  0
  8  9  1  0
  9 10  2  0
 10 11  1  0
 11 12  1  0
 10 13  1  0
 13 14  1  0
 14 15  1  0
 13 16  2  0
  4 17  1  0
 17 18  2  0
 18 19  1  0
 19 20  2  0
 20 21  1  0
 21 22  2  0
 22 23  1  0
 23 24  2  0
 24  3  1  0
 16  7  1  0
 24 19  1  0
  1 25  1  0
  1 26  1  0
  1 27  1  0
  2 28  1  0
  2 29  1  0
  5 30  1  0
  6 31  1  0
  8 32  1  0
  9 33  1  0
 12 34  1  0
 12 35  1  0
 12 36  1  0
 15 37  1  0
 15 38  1  0
 15 39  1  0
 16 40  1  0
 17 41  1  0
 18 42  1  0
 20 43  1  0
 21 44  1  0
 22 45  1  0
 23 46  1  0
M  CHG  1   3   1
M  END
$$$$
