
     RDKit          3D

 60 63  0  0  0  0  0  0  0  0999 V2000
   -9.0356   -0.7571   -0.3702 C   0  0  0  0  0  0  0  0  0  0  0  0
   -8.1593    0.3393   -0.1513 O   0  0  0  0  0  0  0  0  0  0  0  0
   -6.9056    0.0684    0.3385 C   0  0  0  0  0  0  0  0  0  0  0  0
   -6.4259   -1.2192    0.6121 C   0  0  0  0  0  0  0  0  0  0  0  0
   -5.1327   -1.4010    1.1054 C   0  0  0  0  0  0  0  0  0  0  0  0
   -4.3182   -0.2895    1.3171 C   0  0  0  0  0  0  0  0  0  0  0  0
   -2.6705   -0.4988    1.9386 S   0  0  0  0  0  6  0  0  0  0  0  0
   -2.4505    0.5158    2.9462 O   0  0  0  0  0  0  0  0  0  0  0  0
   -2.4620   -1.9004    2.2295 O   0  0  0  0  0  0  0  0  0  0  0  0
   -1.7280   -0.1011    0.6009 N   0  0  0  0  0  0  0  0  0  0  0  0
   -1.8313   -0.9492   -0.5963 C   0  0  0  0  0  0  0  0  0  0  0  0
   -0.5232   -0.6615   -1.2955 C   0  0  0  0  0  0  0  0  0  0  0  0
    0.4180   -0.5656   -0.2262 O   0  0  0  0  0  0  0  0  0  0  0  0
   -0.2807    0.0065    0.8981 C   0  0  0  0  0  0  0  0  0  0  0  0
    0.1138    1.4909    1.0852 C   0  0  0  0  0  0  0  0  0  0  0  0
    1.5370    1.6850    1.2982 N   0  0  0  0  0  0  0  0  0  0  0  0
    2.4111    1.8434    0.2456 C   0  0  0  0  0  0  0  0  0  0  0  0
    2.1132    2.0356   -0.9253 O   0  0  0  0  0  0  0  0  0  0  0  0
    3.8972    1.7546    0.6615 C   0  0  0  0  0  0  0  0  0  0  0  0
    4.1937    1.5425    1.8290 O   0  0  0  0  0  0  0  0  0  0  0  0
    4.7697    1.9176   -0.3880 N   0  0  0  0  0  0  0  0  0  0  0  0
    6.1826    1.6782   -0.2575 C   0  0  0  0  0  0  0  0  0  0  0  0
    6.5324    0.2820   -0.7053 C   0  0  0  0  0  0  0  0  0  0  0  0
    6.9150    0.0346   -2.0444 C   0  0  0  0  0  0  0  0  0  0  0  0
    7.2169   -1.2602   -2.4790 C   0  0  0  0  0  0  0  0  0  0  0  0
    7.1200   -2.2833   -1.5615 C   0  0  0  0  0  0  0  0  0  0  0  0
    6.7403   -2.0555   -0.2602 C   0  0  0  0  0  0  0  0  0  0  0  0
    6.4376   -0.7908    0.1978 C   0  0  0  0  0  0  0  0  0  0  0  0
    6.7027   -3.1977    0.4766 O   0  0  0  0  0  0  0  0  0  0  0  0
    7.0944   -4.1713   -0.5126 C   0  0  0  0  0  0  0  0  0  0  0  0
    7.3697   -3.5971   -1.8074 O   0  0  0  0  0  0  0  0  0  0  0  0
   -4.7827    1.0044    1.0613 C   0  0  0  0  0  0  0  0  0  0  0  0
   -6.0783    1.1892    0.5713 C   0  0  0  0  0  0  0  0  0  0  0  0
   -6.6250    2.4139    0.2775 O   0  0  0  0  0  0  0  0  0  0  0  0
   -5.8934    3.5712    0.6580 C   0  0  0  0  0  0  0  0  0  0  0  0
   -9.2475   -1.2868    0.5644 H   0  0  0  0  0  0  0  0  0  0  0  0
   -9.9819   -0.3587   -0.7481 H   0  0  0  0  0  0  0  0  0  0  0  0
   -8.6354   -1.4368   -1.1295 H   0  0  0  0  0  0  0  0  0  0  0  0
   -7.0373   -2.1017    0.4545 H   0  0  0  0  0  0  0  0  0  0  0  0
   -4.7756   -2.4060    1.3202 H   0  0  0  0  0  0  0  0  0  0  0  0
   -2.6900   -0.6862   -1.2177 H   0  0  0  0  0  0  0  0  0  0  0  0
   -1.8818   -2.0078   -0.3210 H   0  0  0  0  0  0  0  0  0  0  0  0
   -0.5461    0.2959   -1.8280 H   0  0  0  0  0  0  0  0  0  0  0  0
   -0.2273   -1.4514   -1.9905 H   0  0  0  0  0  0  0  0  0  0  0  0
    0.0134   -0.5784    1.7764 H   0  0  0  0  0  0  0  0  0  0  0  0
   -0.1814    2.0685    0.2010 H   0  0  0  0  0  0  0  0  0  0  0  0
   -0.3991    1.9192    1.9517 H   0  0  0  0  0  0  0  0  0  0  0  0
    1.9569    1.4464    2.1935 H   0  0  0  0  0  0  0  0  0  0  0  0
    4.3498    1.9608   -1.3122 H   0  0  0  0  0  0  0  0  0  0  0  0
    6.7009    2.4179   -0.8770 H   0  0  0  0  0  0  0  0  0  0  0  0
    6.5043    1.8375    0.7780 H   0  0  0  0  0  0  0  0  0  0  0  0
    6.9773    0.8566   -2.7552 H   0  0  0  0  0  0  0  0  0  0  0  0
    7.5129   -1.4560   -3.5032 H   0  0  0  0  0  0  0  0  0  0  0  0
    6.1294   -0.6374    1.2277 H   0  0  0  0  0  0  0  0  0  0  0  0
    7.9945   -4.6873   -0.1595 H   0  0  0  0  0  0  0  0  0  0  0  0
    6.2876   -4.9057   -0.6201 H   0  0  0  0  0  0  0  0  0  0  0  0
   -4.1181    1.8422    1.2460 H   0  0  0  0  0  0  0  0  0  0  0  0
   -5.6912    3.5783    1.7344 H   0  0  0  0  0  0  0  0  0  0  0  0
   -6.5093    4.4465    0.4299 H   0  0  0  0  0  0  0  0  0  0  0  0
   -4.9674    3.6567    0.0802 H   0  0  0  0  0  0  0  0  0  0  0  0
  1  2  1  0
  2  3  1  0
  3  4  2  0
  4  5  1  0
  5  6  2  0
  6  7  1  0
  7  8  2  0
  7  9  2  0
  7 10  1  0
 10 11  1  0
 11 12  1  0
 12 13  1  0
 13 14  1  0
 14 15  1  0
 15 16  1  0
 16 17  1  0
 17 18  2  0
 17 19  1  0
 19 20  2  0
 19 21  1  0
 21 22  1  0
 22 23  1  0
 23 24  2  0
 24 25  1  0
 25 26  2  0
 26 27  1  0
 27 28  2  0
 27 29  1  0
 29 30  1  0
 30 31  1  0
  6 32  1  0
 32 33  2  0
 33 34  1  0
 34 35  1  0
 33  3  1  0
 14 10  1  0
 28 23  1  0
 31 26  1  0
  1 36  1  0
  1 37  1  0
  1 38  1  0
  4 39  1  0
  5 40  1  0
 11 41  1  0
 11 42  1  0
 12 43  1  0
 12 44  1  0
 14 45  1  0
 15 46  1  0
 15 47  1  0
 16 48  1  0
 21 49  1  0
 22 50  1  0
 22 51  1  0
 24 52  1  0
 25 53  1  0
 28 54  1  0
 30 55  1  0
 30 56  1  0
 32 57  1  0
 35 58  1  0
 35 59  1  0
 35 60  1  0
M  END
$$$$
