
     RDKit          3D

 41 43  0  0  0  0  0  0  0  0999 V2000
   -1.7974   -1.1451   -2.5062 O   0  0  0  0  0  0  0  0  0  0  0  0
   -1.5697   -0.6945   -1.3891 C   0  0  0  0  0  0  0  0  0  0  0  0
   -2.5069   -0.2607   -0.4721 N   0  0  0  0  0  0  0  0  0  0  0  0
   -3.9228   -0.2969   -0.5719 C   0  0  0  0  0  0  0  0  0  0  0  0
   -4.5767   -0.8773   -1.6673 C   0  0  0  0  0  0  0  0  0  0  0  0
   -5.9731   -0.9028   -1.7452 C   0  0  0  0  0  0  0  0  0  0  0  0
   -6.7276   -0.3482   -0.7221 C   0  0  0  0  0  0  0  0  0  0  0  0
   -8.0895   -0.3532   -0.7606 O   0  0  0  0  0  0  0  0  0  0  0  0
   -6.1126    0.2297    0.3797 C   0  0  0  0  0  0  0  0  0  0  0  0
   -4.7110    0.2592    0.4660 C   0  0  0  0  0  0  0  0  0  0  0  0
   -4.0635    0.8732    1.6572 C   0  0  0  0  0  0  0  0  0  0  0  0
   -2.8610    0.9294    1.8559 O   0  0  0  0  0  0  0  0  0  0  0  0
   -4.9353    1.3872    2.5417 O   0  0  0  0  0  0  0  0  0  0  0  0
   -0.1439   -0.5539   -0.9642 C   0  0  0  0  0  0  0  0  0  0  0  0
    0.8298   -0.3827   -1.9539 C   0  0  0  0  0  0  0  0  0  0  0  0
    2.1784   -0.2529   -1.6052 C   0  0  0  0  0  0  0  0  0  0  0  0
    2.5796   -0.2996   -0.2638 C   0  0  0  0  0  0  0  0  0  0  0  0
    3.9595   -0.1601   -0.0041 N   0  0  0  0  0  0  0  0  0  0  0  0
    4.6016   -0.1583    1.2287 C   0  0  0  0  0  0  0  0  0  0  0  0
    4.0228   -0.2742    2.3050 O   0  0  0  0  0  0  0  0  0  0  0  0
    6.0499   -0.0006    1.1428 C   0  0  0  0  0  0  0  0  0  0  0  0
    6.9442    0.1241    0.0899 C   0  0  0  0  0  0  0  0  0  0  0  0
    8.2387    0.2467    0.6554 C   0  0  0  0  0  0  0  0  0  0  0  0
    8.0665    0.1899    2.0157 C   0  0  0  0  0  0  0  0  0  0  0  0
    6.7547    0.0410    2.3204 O   0  0  0  0  0  0  0  0  0  0  0  0
    1.6069   -0.4867    0.7202 C   0  0  0  0  0  0  0  0  0  0  0  0
    0.2538   -0.6181    0.3754 C   0  0  0  0  0  0  0  0  0  0  0  0
   -2.1543    0.2001    0.3676 H   0  0  0  0  0  0  0  0  0  0  0  0
   -4.0244   -1.3274   -2.4867 H   0  0  0  0  0  0  0  0  0  0  0  0
   -6.4428   -1.3606   -2.6109 H   0  0  0  0  0  0  0  0  0  0  0  0
   -8.3792   -0.7849   -1.5817 H   0  0  0  0  0  0  0  0  0  0  0  0
   -6.7339    0.6519    1.1652 H   0  0  0  0  0  0  0  0  0  0  0  0
   -4.3779    1.7515    3.2609 H   0  0  0  0  0  0  0  0  0  0  0  0
    0.5408   -0.3481   -3.0029 H   0  0  0  0  0  0  0  0  0  0  0  0
    2.9045   -0.1173   -2.4029 H   0  0  0  0  0  0  0  0  0  0  0  0
    4.5427   -0.0407   -0.8184 H   0  0  0  0  0  0  0  0  0  0  0  0
    6.7107    0.1264   -0.9647 H   0  0  0  0  0  0  0  0  0  0  0  0
    9.1802    0.3611    0.1364 H   0  0  0  0  0  0  0  0  0  0  0  0
    8.7391    0.2375    2.8612 H   0  0  0  0  0  0  0  0  0  0  0  0
    1.8614   -0.5454    1.7743 H   0  0  0  0  0  0  0  0  0  0  0  0
   -0.4627   -0.7932    1.1741 H   0  0  0  0  0  0  0  0  0  0  0  0
  1  2  2  0
  2  3  1  0
  3  4  1  0
  4  5  2  0
  5  6  1  0
  6  7  2  0
  7  8  1  0
  7  9  1  0
  9 10  2  0
 10 11  1  0
 11 12  2  0
 11 13  1  0
  2 14  1  0
 14 15  2  0
 15 16  1  0
 16 17  2  0
 17 18  1  0
 18 19  1  0
 19 20  2  0
 19 21  1  0
 21 22  2  0
 22 23  1  0
 23 24  2  0
 24 25  1  0
 17 26  1  0
 26 27  2  0
 10  4  1  0
 27 14  1  0
 25 21  1  0
  3 28  1  0
  5 29  1  0
  6 30  1  0
  8 31  1  0
  9 32  1  0
 13 33  1  0
 15 34  1  0
 16 35  1  0
 18 36  1  0
 22 37  1  0
 23 38  1  0
 24 39  1  0
 26 40  1  0
 27 41  1  0
M  END
$$$$
