
     RDKit          3D

 60 63  0  0  0  0  0  0  0  0999 V2000
    2.2371    3.1201   -3.2934 C   0  0  0  0  0  0  0  0  0  0  0  0
    2.9571    3.5117   -2.1312 O   0  0  0  0  0  0  0  0  0  0  0  0
    3.2165    2.5281   -1.2128 C   0  0  0  0  0  0  0  0  0  0  0  0
    3.0009    1.1650   -1.3946 C   0  0  0  0  0  0  0  0  0  0  0  0
    3.3381    0.2631   -0.3801 C   0  0  0  0  0  0  0  0  0  0  0  0
    3.8802    0.7102    0.8348 C   0  0  0  0  0  0  0  0  0  0  0  0
    4.2353   -0.2759    1.9170 C   0  0  0  0  0  0  0  0  0  0  0  0
    3.0570   -0.9937    2.3318 N   0  0  0  0  0  0  0  0  0  0  0  0
    3.0702   -2.3323    2.6561 C   0  0  0  0  0  0  0  0  0  0  0  0
    4.1141   -2.9836    2.7082 O   0  0  0  0  0  0  0  0  0  0  0  0
    1.6925   -2.9006    3.0635 C   0  0  0  0  0  0  0  0  0  0  0  0
    1.7438   -4.4081    3.3106 C   0  0  0  0  0  0  0  0  0  0  0  0
    0.6706   -2.5257    2.0697 N   0  0  0  0  0  0  0  0  0  0  0  0
    0.5639   -3.3355    0.9317 N   0  0  0  0  0  0  0  0  0  0  0  0
   -0.2618   -3.0425   -0.0365 C   0  0  0  0  0  0  0  0  0  0  0  0
   -0.3241   -3.9624   -1.2216 C   0  0  0  0  0  0  0  0  0  0  0  0
   -1.0810   -1.8612    0.0629 C   0  0  0  0  0  0  0  0  0  0  0  0
   -2.0671   -1.2991   -0.7280 C   0  0  0  0  0  0  0  0  0  0  0  0
   -2.7299   -1.8324   -1.9462 C   0  0  0  0  0  0  0  0  0  0  0  0
   -2.4057   -0.0932   -0.1005 N   0  0  0  0  0  0  0  0  0  0  0  0
   -3.2263    0.9853   -0.5459 C   0  0  0  0  0  0  0  0  0  0  0  0
   -3.7083    1.9021    0.4035 C   0  0  0  0  0  0  0  0  0  0  0  0
   -4.5020    2.9850    0.0138 C   0  0  0  0  0  0  0  0  0  0  0  0
   -4.8300    3.1731   -1.3311 C   0  0  0  0  0  0  0  0  0  0  0  0
   -5.6616    4.3500   -1.7586 C   0  0  0  0  0  0  0  0  0  0  0  0
   -4.3136    2.2867   -2.2838 C   0  0  0  0  0  0  0  0  0  0  0  0
   -3.5198    1.1968   -1.8966 C   0  0  0  0  0  0  0  0  0  0  0  0
   -1.8123    0.0003    1.1206 N   0  0  0  0  0  0  0  0  0  0  0  0
   -0.9677   -1.0286    1.1775 C   0  0  0  0  0  0  0  0  0  0  0  0
   -0.0259   -1.3120    2.2484 C   0  0  0  0  0  0  0  0  0  0  0  0
    0.1893   -0.5503    3.1928 O   0  0  0  0  0  0  0  0  0  0  0  0
    4.0941    2.0794    1.0091 C   0  0  0  0  0  0  0  0  0  0  0  0
    3.7639    2.9780   -0.0091 C   0  0  0  0  0  0  0  0  0  0  0  0
    1.2741    2.6646   -3.0323 H   0  0  0  0  0  0  0  0  0  0  0  0
    2.8326    2.4449   -3.9123 H   0  0  0  0  0  0  0  0  0  0  0  0
    2.0349    4.0208   -3.8794 H   0  0  0  0  0  0  0  0  0  0  0  0
    2.5892    0.7695   -2.3162 H   0  0  0  0  0  0  0  0  0  0  0  0
    3.1787   -0.8022   -0.5393 H   0  0  0  0  0  0  0  0  0  0  0  0
    4.6216    0.2336    2.8036 H   0  0  0  0  0  0  0  0  0  0  0  0
    5.0161   -0.9526    1.5572 H   0  0  0  0  0  0  0  0  0  0  0  0
    2.2530   -0.4367    2.6015 H   0  0  0  0  0  0  0  0  0  0  0  0
    1.4332   -2.4322    4.0185 H   0  0  0  0  0  0  0  0  0  0  0  0
    2.4555   -4.6471    4.1085 H   0  0  0  0  0  0  0  0  0  0  0  0
    2.0593   -4.9597    2.4186 H   0  0  0  0  0  0  0  0  0  0  0  0
    0.7544   -4.7758    3.6136 H   0  0  0  0  0  0  0  0  0  0  0  0
   -1.2368   -4.5577   -1.1631 H   0  0  0  0  0  0  0  0  0  0  0  0
    0.5351   -4.6367   -1.2259 H   0  0  0  0  0  0  0  0  0  0  0  0
   -0.3232   -3.3895   -2.1529 H   0  0  0  0  0  0  0  0  0  0  0  0
   -3.7800   -1.5370   -1.9992 H   0  0  0  0  0  0  0  0  0  0  0  0
   -2.7310   -2.9261   -1.9456 H   0  0  0  0  0  0  0  0  0  0  0  0
   -2.2069   -1.5044   -2.8503 H   0  0  0  0  0  0  0  0  0  0  0  0
   -3.4784    1.7822    1.4614 H   0  0  0  0  0  0  0  0  0  0  0  0
   -4.8625    3.6751    0.7721 H   0  0  0  0  0  0  0  0  0  0  0  0
   -5.0137    5.1900   -2.0279 H   0  0  0  0  0  0  0  0  0  0  0  0
   -6.2882    4.0895   -2.6183 H   0  0  0  0  0  0  0  0  0  0  0  0
   -6.3386    4.6605   -0.9532 H   0  0  0  0  0  0  0  0  0  0  0  0
   -4.5172    2.4453   -3.3409 H   0  0  0  0  0  0  0  0  0  0  0  0
   -3.1053    0.5832   -2.6882 H   0  0  0  0  0  0  0  0  0  0  0  0
    4.5215    2.4608    1.9337 H   0  0  0  0  0  0  0  0  0  0  0  0
    3.9349    4.0401    0.1370 H   0  0  0  0  0  0  0  0  0  0  0  0
  1  2  1  0
  2  3  1  0
  3  4  2  0
  4  5  1  0
  5  6  2  0
  6  7  1  0
  7  8  1  0
  8  9  1  0
  9 10  2  0
  9 11  1  0
 11 12  1  0
 11 13  1  0
 13 14  1  0
 14 15  2  0
 15 16  1  0
 15 17  1  0
 17 18  2  0
 18 19  1  0
 18 20  1  0
 20 21  1  0
 21 22  2  0
 22 23  1  0
 23 24  2  0
 24 25  1  0
 24 26  1  0
 26 27  2  0
 20 28  1  0
 28 29  2  0
 29 30  1  0
 30 31  2  0
  6 32  1  0
 32 33  2  0
 33  3  1  0
 30 13  1  0
 29 17  1  0
 27 21  1  0
  1 34  1  0
  1 35  1  0
  1 36  1  0
  4 37  1  0
  5 38  1  0
  7 39  1  0
  7 40  1  0
  8 41  1  0
 11 42  1  0
 12 43  1  0
 12 44  1  0
 12 45  1  0
 16 46  1  0
 16 47  1  0
 16 48  1  0
 19 49  1  0
 19 50  1  0
 19 51  1  0
 22 52  1  0
 23 53  1  0
 25 54  1  0
 25 55  1  0
 25 56  1  0
 26 57  1  0
 27 58  1  0
 32 59  1  0
 33 60  1  0
M  END
$$$$
