
     RDKit          3D

 52 55  0  0  0  0  0  0  0  0999 V2000
    7.6859   -2.4094    3.0490 C   0  0  0  0  0  0  0  0  0  0  0  0
    6.7656   -2.7949    2.0353 O   0  0  0  0  0  0  0  0  0  0  0  0
    5.6548   -2.0129    1.8825 C   0  0  0  0  0  0  0  0  0  0  0  0
    5.3498   -0.8655    2.6118 C   0  0  0  0  0  0  0  0  0  0  0  0
    4.1702   -0.1524    2.3528 C   0  0  0  0  0  0  0  0  0  0  0  0
    3.2829   -0.5784    1.3644 C   0  0  0  0  0  0  0  0  0  0  0  0
    2.0833    0.0828    1.0418 N   0  0  0  0  0  0  0  0  0  0  0  0
    1.5213    1.1874    1.6582 C   0  0  0  0  0  0  0  0  0  0  0  0
    1.9970    1.7972    2.6139 O   0  0  0  0  0  0  0  0  0  0  0  0
    0.2468    1.6903    0.9899 C   0  0  0  0  0  0  0  0  0  0  0  0
   -0.7997    0.3294    0.3878 S   0  0  0  0  0  0  0  0  0  0  0  0
   -2.1593    1.2295   -0.2930 C   0  0  0  0  0  0  0  0  0  0  0  0
   -2.1190    2.5240   -0.1926 N   0  0  0  0  0  0  0  0  0  0  0  0
   -3.2239    3.2030   -0.6103 C   0  0  0  0  0  0  0  0  0  0  0  0
   -4.3474    2.6423   -1.0530 C   0  0  0  0  0  0  0  0  0  0  0  0
   -4.4294    1.1723   -1.1663 C   0  0  0  0  0  0  0  0  0  0  0  0
   -5.4617    0.6279   -1.5585 O   0  0  0  0  0  0  0  0  0  0  0  0
   -3.2442    0.5126   -0.8145 N   0  0  0  0  0  0  0  0  0  0  0  0
   -3.1818   -0.8917   -1.0862 C   0  0  0  0  0  0  0  0  0  0  0  0
   -4.0937   -1.7530   -0.4573 C   0  0  0  0  0  0  0  0  0  0  0  0
   -4.0530   -3.1240   -0.7040 C   0  0  0  0  0  0  0  0  0  0  0  0
   -3.1119   -3.6417   -1.5897 C   0  0  0  0  0  0  0  0  0  0  0  0
   -2.2186   -2.7911   -2.2472 C   0  0  0  0  0  0  0  0  0  0  0  0
   -2.2544   -1.4116   -2.0169 C   0  0  0  0  0  0  0  0  0  0  0  0
   -1.4642   -0.4960   -2.6669 O   0  0  0  0  0  0  0  0  0  0  0  0
   -0.6585   -0.9732   -3.7389 C   0  0  0  0  0  0  0  0  0  0  0  0
   -5.6113    3.7288   -1.4596 S   0  0  0  0  0  0  0  0  0  0  0  0
   -4.5058    5.1748   -1.2962 C   0  0  0  0  0  0  0  0  0  0  0  0
   -3.2598    4.7001   -0.5389 C   0  0  0  0  0  0  0  0  0  0  0  0
    3.5941   -1.7291    0.6330 C   0  0  0  0  0  0  0  0  0  0  0  0
    4.7706   -2.4390    0.8915 C   0  0  0  0  0  0  0  0  0  0  0  0
    8.1161   -1.4248    2.8370 H   0  0  0  0  0  0  0  0  0  0  0  0
    8.5043   -3.1362    3.0514 H   0  0  0  0  0  0  0  0  0  0  0  0
    7.2171   -2.4328    4.0387 H   0  0  0  0  0  0  0  0  0  0  0  0
    6.0039   -0.4907    3.3919 H   0  0  0  0  0  0  0  0  0  0  0  0
    3.9776    0.7358    2.9462 H   0  0  0  0  0  0  0  0  0  0  0  0
    1.5138   -0.3411    0.3160 H   0  0  0  0  0  0  0  0  0  0  0  0
    0.5413    2.3374    0.1594 H   0  0  0  0  0  0  0  0  0  0  0  0
   -0.3113    2.2730    1.7302 H   0  0  0  0  0  0  0  0  0  0  0  0
   -4.8373   -1.3612    0.2333 H   0  0  0  0  0  0  0  0  0  0  0  0
   -4.7587   -3.7855   -0.2082 H   0  0  0  0  0  0  0  0  0  0  0  0
   -3.0823   -4.7119   -1.7819 H   0  0  0  0  0  0  0  0  0  0  0  0
   -1.5166   -3.2393   -2.9431 H   0  0  0  0  0  0  0  0  0  0  0  0
   -1.2698   -1.4408   -4.5176 H   0  0  0  0  0  0  0  0  0  0  0  0
    0.1144   -1.6583   -3.3742 H   0  0  0  0  0  0  0  0  0  0  0  0
   -0.1536   -0.1118   -4.1843 H   0  0  0  0  0  0  0  0  0  0  0  0
   -5.0109    5.9920   -0.7728 H   0  0  0  0  0  0  0  0  0  0  0  0
   -4.2374    5.5207   -2.3004 H   0  0  0  0  0  0  0  0  0  0  0  0
   -2.3609    5.1425   -0.9840 H   0  0  0  0  0  0  0  0  0  0  0  0
   -3.3025    5.0208    0.5098 H   0  0  0  0  0  0  0  0  0  0  0  0
    2.9291   -2.0940   -0.1450 H   0  0  0  0  0  0  0  0  0  0  0  0
    4.9988   -3.3322    0.3156 H   0  0  0  0  0  0  0  0  0  0  0  0
  1  2  1  0
  2  3  1  0
  3  4  2  0
  4  5  1  0
  5  6  2  0
  6  7  1  0
  7  8  1  0
  8  9  2  0
  8 10  1  0
 10 11  1  0
 11 12  1  0
 12 13  2  0
 13 14  1  0
 14 15  2  0
 15 16  1  0
 16 17  2  0
 16 18  1  0
 18 19  1  0
 19 20  2  0
 20 21  1  0
 21 22  2  0
 22 23  1  0
 23 24  2  0
 24 25  1  0
 25 26  1  0
 15 27  1  0
 27 28  1  0
 28 29  1  0
  6 30  1  0
 30 31  2  0
 31  3  1  0
 18 12  1  0
 24 19  1  0
 29 14  1  0
  1 32  1  0
  1 33  1  0
  1 34  1  0
  4 35  1  0
  5 36  1  0
  7 37  1  0
 10 38  1  0
 10 39  1  0
 20 40  1  0
 21 41  1  0
 22 42  1  0
 23 43  1  0
 26 44  1  0
 26 45  1  0
 26 46  1  0
 28 47  1  0
 28 48  1  0
 29 49  1  0
 29 50  1  0
 30 51  1  0
 31 52  1  0
M  END
$$$$
