
     RDKit          3D

 52 54  0  0  0  0  0  0  0  0999 V2000
    8.5173    0.6806   -1.8236 C   0  0  0  0  0  0  0  0  0  0  0  0
    7.3090   -0.1974   -1.6879 C   0  0  0  0  0  0  0  0  0  0  0  0
    6.7023   -0.7498   -2.8215 C   0  0  0  0  0  0  0  0  0  0  0  0
    5.5946   -1.5919   -2.6942 C   0  0  0  0  0  0  0  0  0  0  0  0
    5.0856   -1.9107   -1.4286 C   0  0  0  0  0  0  0  0  0  0  0  0
    3.8774   -2.7979   -1.2853 C   0  0  0  0  0  0  0  0  0  0  0  0
    2.6718   -2.0152   -1.2139 N   0  0  0  0  0  0  0  0  0  0  0  0
    2.0876   -1.6687   -0.0198 C   0  0  0  0  0  0  0  0  0  0  0  0
    2.4050   -2.0715    1.0910 O   0  0  0  0  0  0  0  0  0  0  0  0
    0.9255   -0.6605   -0.1725 C   0  0  0  0  0  0  0  0  0  0  0  0
    0.5931   -0.2700   -1.2833 O   0  0  0  0  0  0  0  0  0  0  0  0
    0.3623   -0.2882    1.0281 N   0  0  0  0  0  0  0  0  0  0  0  0
   -0.8671    0.4833    1.0898 C   0  0  0  0  0  0  0  0  0  0  0  0
   -2.1452   -0.3986    1.0958 C   0  0  0  0  0  0  0  0  0  0  0  0
   -2.1146   -1.2872   -0.0416 O   0  0  0  0  0  0  0  0  0  0  0  0
   -3.1804   -0.9243   -0.9265 C   0  0  0  0  0  0  0  0  0  0  0  0
   -3.6831    0.4238   -0.4567 C   0  0  0  0  0  0  0  0  0  0  0  0
   -3.4155    0.3441    0.9810 N   0  0  0  0  0  0  0  0  0  0  0  0
   -3.5953    1.7174    1.9214 S   0  0  0  0  0  6  0  0  0  0  0  0
   -2.9142    2.8044    1.2523 O   0  0  0  0  0  0  0  0  0  0  0  0
   -3.2766    1.3619    3.2867 O   0  0  0  0  0  0  0  0  0  0  0  0
   -5.3434    2.0117    1.8358 C   0  0  0  0  0  0  0  0  0  0  0  0
   -5.8368    3.1151    1.1330 C   0  0  0  0  0  0  0  0  0  0  0  0
   -7.2149    3.3335    1.0798 C   0  0  0  0  0  0  0  0  0  0  0  0
   -8.0825    2.4546    1.7313 C   0  0  0  0  0  0  0  0  0  0  0  0
   -9.9476    2.7542    1.6551 Br  0  0  0  0  0  0  0  0  0  0  0  0
   -7.5877    1.3588    2.4404 C   0  0  0  0  0  0  0  0  0  0  0  0
   -6.2110    1.1357    2.4970 C   0  0  0  0  0  0  0  0  0  0  0  0
    5.6976   -1.3601   -0.2947 C   0  0  0  0  0  0  0  0  0  0  0  0
    6.8045   -0.5181   -0.4230 C   0  0  0  0  0  0  0  0  0  0  0  0
    8.4888    1.2421   -2.7633 H   0  0  0  0  0  0  0  0  0  0  0  0
    8.5620    1.4123   -1.0100 H   0  0  0  0  0  0  0  0  0  0  0  0
    9.4264    0.0718   -1.8025 H   0  0  0  0  0  0  0  0  0  0  0  0
    7.0870   -0.5242   -3.8136 H   0  0  0  0  0  0  0  0  0  0  0  0
    5.1339   -1.9987   -3.5914 H   0  0  0  0  0  0  0  0  0  0  0  0
    3.7870   -3.4629   -2.1513 H   0  0  0  0  0  0  0  0  0  0  0  0
    3.9749   -3.4326   -0.3971 H   0  0  0  0  0  0  0  0  0  0  0  0
    2.3595   -1.4989   -2.0309 H   0  0  0  0  0  0  0  0  0  0  0  0
    0.7091   -0.7711    1.8534 H   0  0  0  0  0  0  0  0  0  0  0  0
   -0.8809    1.1605    0.2284 H   0  0  0  0  0  0  0  0  0  0  0  0
   -0.8067    1.0878    1.9995 H   0  0  0  0  0  0  0  0  0  0  0  0
   -2.1626   -1.0292    1.9911 H   0  0  0  0  0  0  0  0  0  0  0  0
   -2.8224   -0.9070   -1.9595 H   0  0  0  0  0  0  0  0  0  0  0  0
   -3.9590   -1.6896   -0.8379 H   0  0  0  0  0  0  0  0  0  0  0  0
   -4.7424    0.5575   -0.6865 H   0  0  0  0  0  0  0  0  0  0  0  0
   -3.1015    1.2283   -0.9186 H   0  0  0  0  0  0  0  0  0  0  0  0
   -5.1628    3.8065    0.6316 H   0  0  0  0  0  0  0  0  0  0  0  0
   -7.6019    4.1911    0.5345 H   0  0  0  0  0  0  0  0  0  0  0  0
   -8.2636    0.6789    2.9534 H   0  0  0  0  0  0  0  0  0  0  0  0
   -5.8207    0.2863    3.0543 H   0  0  0  0  0  0  0  0  0  0  0  0
    5.3111   -1.5848    0.6982 H   0  0  0  0  0  0  0  0  0  0  0  0
    7.2671   -0.1105    0.4731 H   0  0  0  0  0  0  0  0  0  0  0  0
  1  2  1  0
  2  3  2  0
  3  4  1  0
  4  5  2  0
  5  6  1  0
  6  7  1  0
  7  8  1  0
  8  9  2  0
  8 10  1  0
 10 11  2  0
 10 12  1  0
 12 13  1  0
 13 14  1  0
 14 15  1  0
 15 16  1  0
 16 17  1  0
 17 18  1  0
 18 19  1  0
 19 20  2  0
 19 21  2  0
 19 22  1  0
 22 23  2  0
 23 24  1  0
 24 25  2  0
 25 26  1  0
 25 27  1  0
 27 28  2  0
  5 29  1  0
 29 30  2  0
 30  2  1  0
 18 14  1  0
 28 22  1  0
  1 31  1  0
  1 32  1  0
  1 33  1  0
  3 34  1  0
  4 35  1  0
  6 36  1  0
  6 37  1  0
  7 38  1  0
 12 39  1  0
 13 40  1  0
 13 41  1  0
 14 42  1  0
 16 43  1  0
 16 44  1  0
 17 45  1  0
 17 46  1  0
 23 47  1  0
 24 48  1  0
 27 49  1  0
 28 50  1  0
 29 51  1  0
 30 52  1  0
M  END
$$$$
