
     RDKit          3D

 59 61  0  0  0  0  0  0  0  0999 V2000
   -7.7700   -0.0418    0.6742 C   0  0  0  0  0  0  0  0  0  0  0  0
   -6.4414   -0.1713    0.8018 C   0  0  0  0  0  0  0  0  0  0  0  0
   -5.3473    0.6154    0.0718 C   0  0  0  0  0  0  0  0  0  0  0  0
   -4.6863    1.4813    1.1772 C   0  0  0  0  0  0  0  0  0  0  0  0
   -5.8775    1.6184   -0.9831 C   0  0  0  0  0  0  0  0  0  0  0  0
   -4.3641   -0.3652   -0.6166 C   0  0  0  0  0  0  0  0  0  0  0  0
   -2.9962   -0.4064   -0.2695 C   0  0  0  0  0  0  0  0  0  0  0  0
   -2.0833   -1.2861   -0.8865 C   0  0  0  0  0  0  0  0  0  0  0  0
   -0.6197   -1.3220   -0.4765 C   0  0  2  0  0  0  0  0  0  0  0  0
   -0.3982   -2.3764    0.5992 C   0  0  0  0  0  0  0  0  0  0  0  0
    1.0610   -2.3890    0.9505 C   0  0  0  0  0  0  0  0  0  0  0  0
    1.6450   -3.3959    1.3464 O   0  0  0  0  0  0  0  0  0  0  0  0
    1.7822   -1.1030    0.8753 C   0  0  0  0  0  0  0  0  0  0  0  0
    1.0840    0.0140    0.4202 C   0  0  0  0  0  0  0  0  0  0  0  0
    1.7083    1.2561    0.3978 C   0  0  0  0  0  0  0  0  0  0  0  0
    3.0400    1.3729    0.7973 C   0  0  0  0  0  0  0  0  0  0  0  0
    3.5777    2.6264    0.7014 O   0  0  0  0  0  0  0  0  0  0  0  0
    3.7704    0.2664    1.2630 C   0  0  0  0  0  0  0  0  0  0  0  0
    5.2023    0.4012    1.7406 C   0  0  0  0  0  0  0  0  0  0  0  0
    6.1773    0.5114    0.5971 C   0  0  0  0  0  0  0  0  0  0  0  0
    7.0911    1.4742    0.3609 C   0  0  0  0  0  0  0  0  0  0  0  0
    7.3487    2.6727    1.2324 C   0  0  0  0  0  0  0  0  0  0  0  0
    7.9784    1.3990   -0.8561 C   0  0  0  0  0  0  0  0  0  0  0  0
    3.1196   -0.9803    1.2875 C   0  0  0  0  0  0  0  0  0  0  0  0
    3.8307   -2.0672    1.7340 O   0  0  0  0  0  0  0  0  0  0  0  0
   -0.2199   -0.0240    0.0028 O   0  0  0  0  0  0  0  0  0  0  0  0
   -2.5651   -2.1599   -1.8627 C   0  0  0  0  0  0  0  0  0  0  0  0
   -1.6934   -3.0368   -2.4458 O   0  0  0  0  0  0  0  0  0  0  0  0
   -3.9053   -2.1528   -2.2346 C   0  0  0  0  0  0  0  0  0  0  0  0
   -4.7881   -1.2626   -1.6162 C   0  0  0  0  0  0  0  0  0  0  0  0
   -6.1017   -1.2762   -1.9994 O   0  0  0  0  0  0  0  0  0  0  0  0
   -8.2221    0.6722   -0.0051 H   0  0  0  0  0  0  0  0  0  0  0  0
   -8.4417   -0.6702    1.2506 H   0  0  0  0  0  0  0  0  0  0  0  0
   -6.0780   -0.9237    1.5023 H   0  0  0  0  0  0  0  0  0  0  0  0
   -4.2536    0.8680    1.9775 H   0  0  0  0  0  0  0  0  0  0  0  0
   -5.4183    2.1499    1.6485 H   0  0  0  0  0  0  0  0  0  0  0  0
   -3.8909    2.1177    0.7710 H   0  0  0  0  0  0  0  0  0  0  0  0
   -6.5031    2.3922   -0.5215 H   0  0  0  0  0  0  0  0  0  0  0  0
   -5.0480    2.1292   -1.4877 H   0  0  0  0  0  0  0  0  0  0  0  0
   -6.4820    1.1423   -1.7613 H   0  0  0  0  0  0  0  0  0  0  0  0
   -2.6079    0.2582    0.4986 H   0  0  0  0  0  0  0  0  0  0  0  0
   -0.0116   -1.5305   -1.3686 H   0  0  0  0  0  0  0  0  0  0  0  0
   -0.9618   -2.1554    1.5133 H   0  0  0  0  0  0  0  0  0  0  0  0
   -0.6822   -3.3711    0.2391 H   0  0  0  0  0  0  0  0  0  0  0  0
    1.1688    2.1335    0.0507 H   0  0  0  0  0  0  0  0  0  0  0  0
    4.5466    2.5498    0.6822 H   0  0  0  0  0  0  0  0  0  0  0  0
    5.4934   -0.4601    2.3530 H   0  0  0  0  0  0  0  0  0  0  0  0
    5.2532    1.2543    2.4241 H   0  0  0  0  0  0  0  0  0  0  0  0
    6.1146   -0.3225   -0.1045 H   0  0  0  0  0  0  0  0  0  0  0  0
    6.7364    2.6958    2.1356 H   0  0  0  0  0  0  0  0  0  0  0  0
    7.1463    3.5926    0.6738 H   0  0  0  0  0  0  0  0  0  0  0  0
    8.3963    2.6869    1.5516 H   0  0  0  0  0  0  0  0  0  0  0  0
    9.0304    1.3515   -0.5562 H   0  0  0  0  0  0  0  0  0  0  0  0
    7.8343    2.2845   -1.4840 H   0  0  0  0  0  0  0  0  0  0  0  0
    7.7681    0.5180   -1.4717 H   0  0  0  0  0  0  0  0  0  0  0  0
    3.2413   -2.8558    1.7179 H   0  0  0  0  0  0  0  0  0  0  0  0
   -2.1670   -3.5607   -3.1138 H   0  0  0  0  0  0  0  0  0  0  0  0
   -4.2638   -2.8336   -2.9986 H   0  0  0  0  0  0  0  0  0  0  0  0
   -6.2569   -2.0054   -2.6194 H   0  0  0  0  0  0  0  0  0  0  0  0
  1  2  2  0
  2  3  1  0
  3  4  1  0
  3  5  1  0
  3  6  1  0
  6  7  2  0
  7  8  1  0
  8  9  1  0
  9 10  1  0
 10 11  1  0
 11 12  2  0
 11 13  1  0
 13 14  2  0
 14 15  1  0
 15 16  2  0
 16 17  1  0
 16 18  1  0
 18 19  1  0
 19 20  1  0
 20 21  2  3
 21 22  1  0
 21 23  1  0
 18 24  2  0
 24 25  1  0
 14 26  1  0
  8 27  2  0
 27 28  1  0
 27 29  1  0
 29 30  2  0
 30 31  1  0
 30  6  1  0
 26  9  1  0
 24 13  1  0
  1 32  1  0
  1 33  1  0
  2 34  1  0
  4 35  1  0
  4 36  1  0
  4 37  1  0
  5 38  1  0
  5 39  1  0
  5 40  1  0
  7 41  1  0
  9 42  1  6
 10 43  1  0
 10 44  1  0
 15 45  1  0
 17 46  1  0
 19 47  1  0
 19 48  1  0
 20 49  1  0
 22 50  1  0
 22 51  1  0
 22 52  1  0
 23 53  1  0
 23 54  1  0
 23 55  1  0
 25 56  1  0
 28 57  1  0
 29 58  1  0
 31 59  1  0
M  END
$$$$
