
     RDKit          3D

 52 56  0  0  0  0  0  0  0  0999 V2000
    2.5137   -2.3964    2.9507 O   0  0  0  0  0  0  0  0  0  0  0  0
    2.1482   -2.3257    1.7781 C   0  0  0  0  0  0  0  0  0  0  0  0
    1.3171   -3.4369    1.1593 C   0  0  0  0  0  0  0  0  0  0  0  0
   -0.4507   -3.0451    1.2182 S   0  0  0  0  0  0  0  0  0  0  0  0
   -0.6389   -2.0857   -0.2146 C   0  0  0  0  0  0  0  0  0  0  0  0
    0.3690   -1.6619   -0.9447 N   0  0  0  0  0  0  0  0  0  0  0  0
   -0.1459   -1.0319   -2.0409 N   0  0  0  0  0  0  0  0  0  0  0  0
   -1.4619   -1.0762   -1.9709 C   0  0  0  0  0  0  0  0  0  0  0  0
   -2.3728   -0.3460   -2.9045 C   0  0  0  0  0  0  0  0  0  0  0  0
   -3.0185    0.8480   -2.2606 C   0  0  0  0  0  0  0  0  0  0  0  0
   -2.4090    1.9261   -1.6506 C   0  0  0  0  0  0  0  0  0  0  0  0
   -3.3483    2.8648   -1.1397 C   0  0  0  0  0  0  0  0  0  0  0  0
   -4.6444    2.4826   -1.3894 C   0  0  0  0  0  0  0  0  0  0  0  0
   -4.7232    1.0079   -2.2451 S   0  0  0  0  0  0  0  0  0  0  0  0
   -1.8420   -1.7756   -0.8281 N   0  0  0  0  0  0  0  0  0  0  0  0
   -3.1581   -2.0664   -0.3972 C   0  0  0  0  0  0  0  0  0  0  0  0
   -3.5285   -1.8230    0.9351 C   0  0  0  0  0  0  0  0  0  0  0  0
   -4.8374   -2.0902    1.3525 C   0  0  0  0  0  0  0  0  0  0  0  0
   -5.7691   -2.6089    0.4507 C   0  0  0  0  0  0  0  0  0  0  0  0
   -5.3975   -2.8615   -0.8718 C   0  0  0  0  0  0  0  0  0  0  0  0
   -4.0954   -2.5925   -1.3000 C   0  0  0  0  0  0  0  0  0  0  0  0
    2.4221   -1.2910    0.8991 N   0  0  0  0  0  0  0  0  0  0  0  0
    3.2304   -0.1572    1.1251 C   0  0  0  0  0  0  0  0  0  0  0  0
    4.0540   -0.0037    2.2396 C   0  0  0  0  0  0  0  0  0  0  0  0
    4.8590    1.1308    2.3729 C   0  0  0  0  0  0  0  0  0  0  0  0
    4.8438    2.1166    1.3950 C   0  0  0  0  0  0  0  0  0  0  0  0
    3.9943    1.9912    0.2991 C   0  0  0  0  0  0  0  0  0  0  0  0
    3.2054    0.8502    0.1535 C   0  0  0  0  0  0  0  0  0  0  0  0
    3.8916    2.9442   -0.6825 O   0  0  0  0  0  0  0  0  0  0  0  0
    4.4940    4.1797   -0.2788 C   0  0  0  0  0  0  0  0  0  0  0  0
    5.8456    3.9256    0.3593 C   0  0  0  0  0  0  0  0  0  0  0  0
    5.6904    3.1838    1.5743 O   0  0  0  0  0  0  0  0  0  0  0  0
    1.6623   -3.6490    0.1414 H   0  0  0  0  0  0  0  0  0  0  0  0
    1.4824   -4.3485    1.7427 H   0  0  0  0  0  0  0  0  0  0  0  0
   -3.1060   -1.0253   -3.3419 H   0  0  0  0  0  0  0  0  0  0  0  0
   -1.7759    0.0158   -3.7549 H   0  0  0  0  0  0  0  0  0  0  0  0
   -1.3289    2.0285   -1.5629 H   0  0  0  0  0  0  0  0  0  0  0  0
   -3.0817    3.7705   -0.6136 H   0  0  0  0  0  0  0  0  0  0  0  0
   -5.5534    2.9987   -1.1167 H   0  0  0  0  0  0  0  0  0  0  0  0
   -2.8353   -1.3828    1.6544 H   0  0  0  0  0  0  0  0  0  0  0  0
   -5.1318   -1.8888    2.3780 H   0  0  0  0  0  0  0  0  0  0  0  0
   -6.7792   -2.8228    0.7788 H   0  0  0  0  0  0  0  0  0  0  0  0
   -6.1234   -3.2799   -1.5659 H   0  0  0  0  0  0  0  0  0  0  0  0
   -3.8307   -2.8416   -2.3179 H   0  0  0  0  0  0  0  0  0  0  0  0
    1.9123   -1.3018    0.0171 H   0  0  0  0  0  0  0  0  0  0  0  0
    4.1107   -0.7635    3.0092 H   0  0  0  0  0  0  0  0  0  0  0  0
    5.5180    1.2262    3.2359 H   0  0  0  0  0  0  0  0  0  0  0  0
    2.5581    0.7675   -0.7172 H   0  0  0  0  0  0  0  0  0  0  0  0
    4.6070    4.8021   -1.1724 H   0  0  0  0  0  0  0  0  0  0  0  0
    3.8136    4.6892    0.4150 H   0  0  0  0  0  0  0  0  0  0  0  0
    6.5071    3.3646   -0.3113 H   0  0  0  0  0  0  0  0  0  0  0  0
    6.3374    4.8652    0.6028 H   0  0  0  0  0  0  0  0  0  0  0  0
  1  2  2  0
  2  3  1  0
  3  4  1  0
  4  5  1  0
  5  6  2  0
  6  7  1  0
  7  8  2  0
  8  9  1  0
  9 10  1  0
 10 11  2  0
 11 12  1  0
 12 13  2  0
 13 14  1  0
  8 15  1  0
 15 16  1  0
 16 17  2  0
 17 18  1  0
 18 19  2  0
 19 20  1  0
 20 21  2  0
  2 22  1  0
 22 23  1  0
 23 24  2  0
 24 25  1  0
 25 26  2  0
 26 27  1  0
 27 28  2  0
 27 29  1  0
 29 30  1  0
 30 31  1  0
 31 32  1  0
 15  5  1  0
 21 16  1  0
 28 23  1  0
 14 10  1  0
 32 26  1  0
  3 33  1  0
  3 34  1  0
  9 35  1  0
  9 36  1  0
 11 37  1  0
 12 38  1  0
 13 39  1  0
 17 40  1  0
 18 41  1  0
 19 42  1  0
 20 43  1  0
 21 44  1  0
 22 45  1  0
 24 46  1  0
 25 47  1  0
 28 48  1  0
 30 49  1  0
 30 50  1  0
 31 51  1  0
 31 52  1  0
M  END
$$$$
