
     RDKit          3D

 46 49  0  0  0  0  0  0  0  0999 V2000
   -4.7598    2.4542    0.2142 N   0  0  0  0  0  0  0  0  0  0  0  0
   -4.1997    3.4700    0.9024 C   0  0  0  0  0  0  0  0  0  0  0  0
   -4.9401    4.4530    1.4141 N   0  0  0  0  0  0  0  0  0  0  0  0
   -4.0436    5.3556    1.9605 O   0  0  0  0  0  0  0  0  0  0  0  0
   -2.7395    4.9231    1.7870 N   0  0  0  0  0  0  0  0  0  0  0  0
   -2.8425    3.7389    1.1697 C   0  0  0  0  0  0  0  0  0  0  0  0
   -1.6264    3.0374    0.9191 N   0  0  0  0  0  0  0  0  0  0  0  0
   -0.4251    3.6898    1.0231 N   0  0  0  0  0  0  0  0  0  0  0  0
    0.5549    2.8837    0.6667 N   0  0  0  0  0  0  0  0  0  0  0  0
    0.0193    1.6581    0.4004 C   0  0  0  0  0  0  0  0  0  0  0  0
    0.8558    0.5141    0.0406 C   0  0  0  0  0  0  0  0  0  0  0  0
    0.3937   -0.6056   -0.1543 O   0  0  0  0  0  0  0  0  0  0  0  0
    2.1996    0.8517   -0.0293 N   0  0  0  0  0  0  0  0  0  0  0  0
    3.1455   -0.0906   -0.3063 N   0  0  0  0  0  0  0  0  0  0  0  0
    4.3675    0.3380   -0.3034 C   0  0  0  0  0  0  0  0  0  0  0  0
    5.5086   -0.5600   -0.5722 C   0  0  0  0  0  0  0  0  0  0  0  0
    6.8046   -0.0368   -0.5235 C   0  0  0  0  0  0  0  0  0  0  0  0
    7.8977   -0.8722   -0.7642 C   0  0  0  0  0  0  0  0  0  0  0  0
    7.6952   -2.2223   -1.0537 C   0  0  0  0  0  0  0  0  0  0  0  0
    6.4008   -2.7418   -1.1046 C   0  0  0  0  0  0  0  0  0  0  0  0
    5.3046   -1.9120   -0.8638 C   0  0  0  0  0  0  0  0  0  0  0  0
   -1.3590    1.7097    0.5788 C   0  0  0  0  0  0  0  0  0  0  0  0
   -2.3289    0.5896    0.5243 C   0  0  0  0  0  0  0  0  0  0  0  0
   -2.8800    0.3299   -1.1981 S   0  0  0  0  0  0  0  0  0  0  0  0
   -3.5631   -1.3041   -1.0095 C   0  0  0  0  0  0  0  0  0  0  0  0
   -4.9379   -1.4751   -0.8108 C   0  0  0  0  0  0  0  0  0  0  0  0
   -5.4687   -2.7564   -0.6476 C   0  0  0  0  0  0  0  0  0  0  0  0
   -4.6282   -3.8690   -0.6916 C   0  0  0  0  0  0  0  0  0  0  0  0
   -3.2573   -3.7019   -0.8933 C   0  0  0  0  0  0  0  0  0  0  0  0
   -2.7249   -2.4214   -1.0501 C   0  0  0  0  0  0  0  0  0  0  0  0
   -4.2670    2.0502   -0.5822 H   0  0  0  0  0  0  0  0  0  0  0  0
   -5.7444    2.5842   -0.0106 H   0  0  0  0  0  0  0  0  0  0  0  0
    2.4722    1.8094    0.1763 H   0  0  0  0  0  0  0  0  0  0  0  0
    4.6097    1.3961   -0.0931 H   0  0  0  0  0  0  0  0  0  0  0  0
    6.9764    1.0121   -0.2977 H   0  0  0  0  0  0  0  0  0  0  0  0
    8.9087   -0.4731   -0.7244 H   0  0  0  0  0  0  0  0  0  0  0  0
    8.5477   -2.8721   -1.2398 H   0  0  0  0  0  0  0  0  0  0  0  0
    6.2442   -3.7939   -1.3302 H   0  0  0  0  0  0  0  0  0  0  0  0
    4.2979   -2.3235   -0.9029 H   0  0  0  0  0  0  0  0  0  0  0  0
   -1.8517   -0.3241    0.8963 H   0  0  0  0  0  0  0  0  0  0  0  0
   -3.1841    0.7512    1.1851 H   0  0  0  0  0  0  0  0  0  0  0  0
   -5.6052   -0.6180   -0.7690 H   0  0  0  0  0  0  0  0  0  0  0  0
   -6.5353   -2.8879   -0.4813 H   0  0  0  0  0  0  0  0  0  0  0  0
   -5.0416   -4.8666   -0.5658 H   0  0  0  0  0  0  0  0  0  0  0  0
   -2.5992   -4.5674   -0.9250 H   0  0  0  0  0  0  0  0  0  0  0  0
   -1.6515   -2.3043   -1.1960 H   0  0  0  0  0  0  0  0  0  0  0  0
  1  2  1  0
  2  3  2  0
  3  4  1  0
  4  5  1  0
  5  6  2  0
  6  7  1  0
  7  8  1  0
  8  9  2  0
  9 10  1  0
 10 11  1  0
 11 12  2  0
 11 13  1  0
 13 14  1  0
 14 15  2  3
 15 16  1  0
 16 17  2  0
 17 18  1  0
 18 19  2  0
 19 20  1  0
 20 21  2  0
 10 22  2  0
 22 23  1  0
 23 24  1  0
 24 25  1  0
 25 26  2  0
 26 27  1  0
 27 28  2  0
 28 29  1  0
 29 30  2  0
  6  2  1  0
 22  7  1  0
 30 25  1  0
 21 16  1  0
  1 31  1  0
  1 32  1  0
 13 33  1  0
 15 34  1  0
 17 35  1  0
 18 36  1  0
 19 37  1  0
 20 38  1  0
 21 39  1  0
 23 40  1  0
 23 41  1  0
 26 42  1  0
 27 43  1  0
 28 44  1  0
 29 45  1  0
 30 46  1  0
M  END
$$$$
