
     RDKit          3D

 49 50  0  0  0  0  0  0  0  0999 V2000
    5.4767   -0.5915    0.7350 C   0  0  0  0  0  0  0  0  0  0  0  0
    3.9949   -0.3753    1.0497 C   0  0  0  0  0  0  0  0  0  0  0  0
    3.8520    0.5154    2.2844 C   0  0  0  0  0  0  0  0  0  0  0  0
    3.2794    0.2100   -0.1804 C   0  0  0  0  0  0  0  0  0  0  0  0
    1.7697    0.3447    0.0105 C   0  0  0  0  0  0  0  0  0  0  0  0
    1.1522    0.7598   -1.2773 N   0  0  0  0  0  4  0  0  0  0  0  0
    1.0786    2.0896   -1.5387 C   0  0  0  0  0  0  0  0  0  0  0  0
    0.5672    2.5657   -2.7383 C   0  0  0  0  0  0  0  0  0  0  0  0
    0.1198    1.6663   -3.6906 C   0  0  0  0  0  0  0  0  0  0  0  0
    0.1821    0.3075   -3.4147 C   0  0  0  0  0  0  0  0  0  0  0  0
    0.6914   -0.1429   -2.1884 C   0  0  0  0  0  0  0  0  0  0  0  0
    0.6887   -1.5873   -1.9266 C   0  0  0  0  0  0  0  0  0  0  0  0
   -0.1990   -2.2354   -1.1517 C   0  0  0  0  0  0  0  0  0  0  0  0
   -1.2800   -1.6044   -0.3872 C   0  0  0  0  0  0  0  0  0  0  0  0
   -2.3014   -0.8872   -1.0046 C   0  0  0  0  0  0  0  0  0  0  0  0
   -3.2884   -0.2527   -0.2358 C   0  0  0  0  0  0  0  0  0  0  0  0
   -3.3139   -0.3256    1.1681 C   0  0  0  0  0  0  0  0  0  0  0  0
   -4.2810    0.3429    1.9274 N   0  0  0  0  0  0  0  0  0  0  0  0
   -5.5335    0.7374    1.2760 C   0  0  0  0  0  0  0  0  0  0  0  0
   -4.4033    0.0370    3.3548 C   0  0  0  0  0  0  0  0  0  0  0  0
   -2.2815   -1.0746    1.7589 C   0  0  0  0  0  0  0  0  0  0  0  0
   -1.2891   -1.7140    1.0012 C   0  0  0  0  0  0  0  0  0  0  0  0
    5.9764    0.3553    0.5029 H   0  0  0  0  0  0  0  0  0  0  0  0
    5.5987   -1.2593   -0.1244 H   0  0  0  0  0  0  0  0  0  0  0  0
    5.9933   -1.0481    1.5861 H   0  0  0  0  0  0  0  0  0  0  0  0
    3.5543   -1.3538    1.2796 H   0  0  0  0  0  0  0  0  0  0  0  0
    2.8086    0.5854    2.6066 H   0  0  0  0  0  0  0  0  0  0  0  0
    4.4230    0.1079    3.1256 H   0  0  0  0  0  0  0  0  0  0  0  0
    4.2177    1.5289    2.0876 H   0  0  0  0  0  0  0  0  0  0  0  0
    3.7068    1.1895   -0.4305 H   0  0  0  0  0  0  0  0  0  0  0  0
    3.4752   -0.4364   -1.0453 H   0  0  0  0  0  0  0  0  0  0  0  0
    1.3286   -0.5884    0.3573 H   0  0  0  0  0  0  0  0  0  0  0  0
    1.5191    1.1110    0.7524 H   0  0  0  0  0  0  0  0  0  0  0  0
    1.4463    2.7722   -0.7770 H   0  0  0  0  0  0  0  0  0  0  0  0
    0.5209    3.6360   -2.9293 H   0  0  0  0  0  0  0  0  0  0  0  0
   -0.2840    2.0193   -4.6382 H   0  0  0  0  0  0  0  0  0  0  0  0
   -0.1848   -0.4041   -4.1530 H   0  0  0  0  0  0  0  0  0  0  0  0
    1.4489   -2.1577   -2.4569 H   0  0  0  0  0  0  0  0  0  0  0  0
   -0.1228   -3.3165   -1.0343 H   0  0  0  0  0  0  0  0  0  0  0  0
   -2.3610   -0.8134   -2.0875 H   0  0  0  0  0  0  0  0  0  0  0  0
   -4.0481    0.3045   -0.7773 H   0  0  0  0  0  0  0  0  0  0  0  0
   -6.0446   -0.1314    0.8463 H   0  0  0  0  0  0  0  0  0  0  0  0
   -5.3554    1.4849    0.4958 H   0  0  0  0  0  0  0  0  0  0  0  0
   -6.2217    1.2065    1.9881 H   0  0  0  0  0  0  0  0  0  0  0  0
   -5.1778    0.6525    3.8260 H   0  0  0  0  0  0  0  0  0  0  0  0
   -4.6720   -1.0135    3.5103 H   0  0  0  0  0  0  0  0  0  0  0  0
   -3.4752    0.2656    3.8897 H   0  0  0  0  0  0  0  0  0  0  0  0
   -2.2245   -1.1910    2.8376 H   0  0  0  0  0  0  0  0  0  0  0  0
   -0.5275   -2.2912    1.5214 H   0  0  0  0  0  0  0  0  0  0  0  0
  1  2  1  0
  2  3  1  0
  2  4  1  0
  4  5  1  0
  5  6  1  0
  6  7  2  0
  7  8  1  0
  8  9  2  0
  9 10  1  0
 10 11  2  0
 11 12  1  0
 12 13  2  3
 13 14  1  0
 14 15  2  0
 15 16  1  0
 16 17  2  0
 17 18  1  0
 18 19  1  0
 18 20  1  0
 17 21  1  0
 21 22  2  0
 11  6  1  0
 22 14  1  0
  1 23  1  0
  1 24  1  0
  1 25  1  0
  2 26  1  0
  3 27  1  0
  3 28  1  0
  3 29  1  0
  4 30  1  0
  4 31  1  0
  5 32  1  0
  5 33  1  0
  7 34  1  0
  8 35  1  0
  9 36  1  0
 10 37  1  0
 12 38  1  0
 13 39  1  0
 15 40  1  0
 16 41  1  0
 19 42  1  0
 19 43  1  0
 19 44  1  0
 20 45  1  0
 20 46  1  0
 20 47  1  0
 21 48  1  0
 22 49  1  0
M  CHG  1   6   1
M  END
$$$$
