
     RDKit          3D

 57 60  0  0  0  0  0  0  0  0999 V2000
   -5.9177   -2.4152    3.4166 C   0  0  0  0  0  0  0  0  0  0  0  0
   -6.0006   -1.7054    2.1869 O   0  0  0  0  0  0  0  0  0  0  0  0
   -4.9393   -0.9050    1.8611 C   0  0  0  0  0  0  0  0  0  0  0  0
   -3.8006   -0.7007    2.6373 C   0  0  0  0  0  0  0  0  0  0  0  0
   -2.7817    0.1474    2.1876 C   0  0  0  0  0  0  0  0  0  0  0  0
   -2.8953    0.7971    0.9589 C   0  0  0  0  0  0  0  0  0  0  0  0
   -1.9133    1.6668    0.4338 N   0  0  0  0  0  0  0  0  0  0  0  0
   -0.6905    2.0090    0.9786 C   0  0  0  0  0  0  0  0  0  0  0  0
   -0.2446    1.6151    2.0540 O   0  0  0  0  0  0  0  0  0  0  0  0
    0.1093    2.9578    0.1033 C   0  0  0  0  0  0  0  0  0  0  0  0
    1.3001    2.3073   -0.4188 N   0  0  0  0  0  0  0  0  0  0  0  0
    2.5266    2.3571    0.1859 C   0  0  0  0  0  0  0  0  0  0  0  0
    3.3977    1.5896   -0.5603 C   0  0  0  0  0  0  0  0  0  0  0  0
    5.0416    1.2724   -0.1261 S   0  0  0  0  0  6  0  0  0  0  0  0
    5.7135    0.8442   -1.3373 O   0  0  0  0  0  0  0  0  0  0  0  0
    5.4591    2.4794    0.5666 O   0  0  0  0  0  0  0  0  0  0  0  0
    4.9671   -0.0566    1.0640 C   0  0  0  0  0  0  0  0  0  0  0  0
    4.2517   -1.2605    0.5123 C   0  0  0  0  0  0  0  0  0  0  0  0
    2.9124   -1.5072    0.8504 C   0  0  0  0  0  0  0  0  0  0  0  0
    2.2411   -2.6107    0.3224 C   0  0  0  0  0  0  0  0  0  0  0  0
    2.9010   -3.4831   -0.5402 C   0  0  0  0  0  0  0  0  0  0  0  0
    4.2331   -3.2538   -0.8765 C   0  0  0  0  0  0  0  0  0  0  0  0
    4.9066   -2.1494   -0.3524 C   0  0  0  0  0  0  0  0  0  0  0  0
    2.6813    1.0766   -1.6810 C   0  0  0  0  0  0  0  0  0  0  0  0
    3.0027    0.2434   -2.7751 C   0  0  0  0  0  0  0  0  0  0  0  0
    2.0222   -0.0926   -3.7134 C   0  0  0  0  0  0  0  0  0  0  0  0
    0.7255    0.3862   -3.5798 C   0  0  0  0  0  0  0  0  0  0  0  0
    0.3726    1.2099   -2.5081 C   0  0  0  0  0  0  0  0  0  0  0  0
    1.3629    1.5436   -1.5680 C   0  0  0  0  0  0  0  0  0  0  0  0
   -4.0459    0.5929    0.1701 C   0  0  0  0  0  0  0  0  0  0  0  0
   -4.0663    1.2739   -1.0275 O   0  0  0  0  0  0  0  0  0  0  0  0
   -5.1988    1.0662   -1.8646 C   0  0  0  0  0  0  0  0  0  0  0  0
   -5.0583   -0.2550    0.6286 C   0  0  0  0  0  0  0  0  0  0  0  0
   -6.8284   -3.0137    3.5187 H   0  0  0  0  0  0  0  0  0  0  0  0
   -5.8748   -1.7272    4.2668 H   0  0  0  0  0  0  0  0  0  0  0  0
   -5.0654   -3.1029    3.4193 H   0  0  0  0  0  0  0  0  0  0  0  0
   -3.6678   -1.1832    3.6003 H   0  0  0  0  0  0  0  0  0  0  0  0
   -1.9127    0.2776    2.8241 H   0  0  0  0  0  0  0  0  0  0  0  0
   -2.1685    2.0412   -0.4753 H   0  0  0  0  0  0  0  0  0  0  0  0
   -0.4729    3.3408   -0.7403 H   0  0  0  0  0  0  0  0  0  0  0  0
    0.4177    3.8194    0.7055 H   0  0  0  0  0  0  0  0  0  0  0  0
    2.6828    2.9060    1.1069 H   0  0  0  0  0  0  0  0  0  0  0  0
    4.4732    0.3262    1.9633 H   0  0  0  0  0  0  0  0  0  0  0  0
    5.9972   -0.3103    1.3360 H   0  0  0  0  0  0  0  0  0  0  0  0
    2.3709   -0.8347    1.5147 H   0  0  0  0  0  0  0  0  0  0  0  0
    1.1992   -2.7840    0.5798 H   0  0  0  0  0  0  0  0  0  0  0  0
    2.3748   -4.3390   -0.9545 H   0  0  0  0  0  0  0  0  0  0  0  0
    4.7470   -3.9314   -1.5536 H   0  0  0  0  0  0  0  0  0  0  0  0
    5.9437   -1.9804   -0.6386 H   0  0  0  0  0  0  0  0  0  0  0  0
    4.0097   -0.1474   -2.8987 H   0  0  0  0  0  0  0  0  0  0  0  0
    2.2818   -0.7359   -4.5504 H   0  0  0  0  0  0  0  0  0  0  0  0
   -0.0255    0.1134   -4.3175 H   0  0  0  0  0  0  0  0  0  0  0  0
   -0.6467    1.5684   -2.4194 H   0  0  0  0  0  0  0  0  0  0  0  0
   -5.2818    0.0154   -2.1622 H   0  0  0  0  0  0  0  0  0  0  0  0
   -5.0541    1.6589   -2.7730 H   0  0  0  0  0  0  0  0  0  0  0  0
   -6.1161    1.4175   -1.3809 H   0  0  0  0  0  0  0  0  0  0  0  0
   -5.9584   -0.4355    0.0509 H   0  0  0  0  0  0  0  0  0  0  0  0
  1  2  1  0
  2  3  1  0
  3  4  2  0
  4  5  1  0
  5  6  2  0
  6  7  1  0
  7  8  1  0
  8  9  2  0
  8 10  1  0
 10 11  1  0
 11 12  1  0
 12 13  2  0
 13 14  1  0
 14 15  2  0
 14 16  2  0
 14 17  1  0
 17 18  1  0
 18 19  2  0
 19 20  1  0
 20 21  2  0
 21 22  1  0
 22 23  2  0
 13 24  1  0
 24 25  2  0
 25 26  1  0
 26 27  2  0
 27 28  1  0
 28 29  2  0
  6 30  1  0
 30 31  1  0
 31 32  1  0
 30 33  2  0
 33  3  1  0
 29 11  1  0
 23 18  1  0
 29 24  1  0
  1 34  1  0
  1 35  1  0
  1 36  1  0
  4 37  1  0
  5 38  1  0
  7 39  1  0
 10 40  1  0
 10 41  1  0
 12 42  1  0
 17 43  1  0
 17 44  1  0
 19 45  1  0
 20 46  1  0
 21 47  1  0
 22 48  1  0
 23 49  1  0
 25 50  1  0
 26 51  1  0
 27 52  1  0
 28 53  1  0
 32 54  1  0
 32 55  1  0
 32 56  1  0
 33 57  1  0
M  END
$$$$
