
     RDKit          3D

 51 55  0  0  0  0  0  0  0  0999 V2000
    2.4862   -1.1783    1.6924 O   0  0  0  0  0  0  0  0  0  0  0  0
    1.6877   -0.8934    0.8021 C   0  0  0  0  0  0  0  0  0  0  0  0
    0.4529   -1.7522    0.5150 C   0  0  0  0  0  0  0  0  0  0  0  0
   -0.8039   -1.0250    0.7311 N   0  0  0  0  0  0  0  0  0  0  0  0
   -1.2442   -0.1722   -0.2750 C   0  0  0  0  0  0  0  0  0  0  0  0
   -0.6518   -0.0655   -1.3534 O   0  0  0  0  0  0  0  0  0  0  0  0
   -2.4287    0.7128    0.0221 C   0  0  0  0  0  0  0  0  0  0  0  0
   -3.7355    0.0008   -0.2789 C   0  0  0  0  0  0  0  0  0  0  0  0
   -4.9179    0.8496    0.0670 C   0  0  0  0  0  0  0  0  0  0  0  0
   -6.0697    1.1830   -0.6183 C   0  0  0  0  0  0  0  0  0  0  0  0
   -6.8172    2.0259    0.2388 C   0  0  0  0  0  0  0  0  0  0  0  0
   -6.0780    2.1543    1.3905 C   0  0  0  0  0  0  0  0  0  0  0  0
   -4.9241    1.4464    1.2962 O   0  0  0  0  0  0  0  0  0  0  0  0
   -3.9196   -1.6513    0.4930 S   0  0  0  0  0  0  0  0  0  0  0  0
   -2.9238   -1.4552    1.9688 C   0  0  0  0  0  0  0  0  0  0  0  0
   -3.5774   -1.6691    3.1921 C   0  0  0  0  0  0  0  0  0  0  0  0
   -2.8604   -1.6995    4.3871 C   0  0  0  0  0  0  0  0  0  0  0  0
   -1.4799   -1.5394    4.3680 C   0  0  0  0  0  0  0  0  0  0  0  0
   -0.8161   -1.3324    3.1566 C   0  0  0  0  0  0  0  0  0  0  0  0
   -1.5238   -1.2656    1.9444 C   0  0  0  0  0  0  0  0  0  0  0  0
    1.8393    0.1892   -0.0344 N   0  0  0  0  0  0  0  0  0  0  0  0
    3.0094    1.0312   -0.0089 C   0  0  0  0  0  0  0  0  0  0  0  0
    3.9962    0.6082   -1.0665 C   0  0  0  0  0  0  0  0  0  0  0  0
    4.9313   -0.4175   -0.7921 C   0  0  0  0  0  0  0  0  0  0  0  0
    5.8416   -0.8427   -1.7646 C   0  0  0  0  0  0  0  0  0  0  0  0
    5.7900   -0.2336   -2.9986 C   0  0  0  0  0  0  0  0  0  0  0  0
    4.8787    0.7569   -3.2794 C   0  0  0  0  0  0  0  0  0  0  0  0
    3.9684    1.1969   -2.3414 C   0  0  0  0  0  0  0  0  0  0  0  0
    4.9923    1.2206   -4.5528 O   0  0  0  0  0  0  0  0  0  0  0  0
    6.0774    0.4053   -5.0417 C   0  0  0  0  0  0  0  0  0  0  0  0
    6.5916   -0.5177   -4.0597 O   0  0  0  0  0  0  0  0  0  0  0  0
    0.5067   -2.0857   -0.5286 H   0  0  0  0  0  0  0  0  0  0  0  0
    0.4859   -2.6561    1.1342 H   0  0  0  0  0  0  0  0  0  0  0  0
   -2.3654    1.0956    1.0481 H   0  0  0  0  0  0  0  0  0  0  0  0
   -2.3405    1.6074   -0.6099 H   0  0  0  0  0  0  0  0  0  0  0  0
   -3.7727   -0.1931   -1.3588 H   0  0  0  0  0  0  0  0  0  0  0  0
   -6.3377    0.8518   -1.6124 H   0  0  0  0  0  0  0  0  0  0  0  0
   -7.7778    2.4812    0.0440 H   0  0  0  0  0  0  0  0  0  0  0  0
   -6.2265    2.6833    2.3214 H   0  0  0  0  0  0  0  0  0  0  0  0
   -4.6535   -1.8315    3.2205 H   0  0  0  0  0  0  0  0  0  0  0  0
   -3.3785   -1.8658    5.3284 H   0  0  0  0  0  0  0  0  0  0  0  0
   -0.9142   -1.5725    5.2965 H   0  0  0  0  0  0  0  0  0  0  0  0
    0.2615   -1.1891    3.1901 H   0  0  0  0  0  0  0  0  0  0  0  0
    1.2115    0.2631   -0.8346 H   0  0  0  0  0  0  0  0  0  0  0  0
    3.4788    1.0098    0.9812 H   0  0  0  0  0  0  0  0  0  0  0  0
    2.6771    2.0599   -0.1875 H   0  0  0  0  0  0  0  0  0  0  0  0
    4.9416   -0.8904    0.1898 H   0  0  0  0  0  0  0  0  0  0  0  0
    6.5605   -1.6272   -1.5563 H   0  0  0  0  0  0  0  0  0  0  0  0
    3.2562    1.9748   -2.5934 H   0  0  0  0  0  0  0  0  0  0  0  0
    6.8922    1.0637   -5.3641 H   0  0  0  0  0  0  0  0  0  0  0  0
    5.7238   -0.1654   -5.9082 H   0  0  0  0  0  0  0  0  0  0  0  0
  1  2  2  0
  2  3  1  0
  3  4  1  0
  4  5  1  0
  5  6  2  0
  5  7  1  0
  7  8  1  0
  8  9  1  0
  9 10  2  0
 10 11  1  0
 11 12  2  0
 12 13  1  0
  8 14  1  0
 14 15  1  0
 15 16  2  0
 16 17  1  0
 17 18  2  0
 18 19  1  0
 19 20  2  0
  2 21  1  0
 21 22  1  0
 22 23  1  0
 23 24  2  0
 24 25  1  0
 25 26  2  0
 26 27  1  0
 27 28  2  0
 27 29  1  0
 29 30  1  0
 30 31  1  0
 20  4  1  0
 28 23  1  0
 13  9  1  0
 20 15  1  0
 31 26  1  0
  3 32  1  0
  3 33  1  0
  7 34  1  0
  7 35  1  0
  8 36  1  0
 10 37  1  0
 11 38  1  0
 12 39  1  0
 16 40  1  0
 17 41  1  0
 18 42  1  0
 19 43  1  0
 21 44  1  0
 22 45  1  0
 22 46  1  0
 24 47  1  0
 25 48  1  0
 28 49  1  0
 30 50  1  0
 30 51  1  0
M  END
$$$$
