
     RDKit          3D

 43 45  0  0  0  0  0  0  0  0999 V2000
    8.0980   -0.3517   -0.0736 C   0  0  0  0  0  0  0  0  0  0  0  0
    6.6980   -0.3475    0.2102 O   0  0  0  0  0  0  0  0  0  0  0  0
    5.9743    0.4606   -0.6043 C   0  0  0  0  0  0  0  0  0  0  0  0
    6.4199    1.1417   -1.5143 O   0  0  0  0  0  0  0  0  0  0  0  0
    4.5307    0.4133   -0.2440 C   0  0  0  0  0  0  0  0  0  0  0  0
    3.6393    1.2064   -0.9750 C   0  0  0  0  0  0  0  0  0  0  0  0
    2.2753    1.1928   -0.6713 C   0  0  0  0  0  0  0  0  0  0  0  0
    1.7825    0.3887    0.3594 C   0  0  0  0  0  0  0  0  0  0  0  0
    0.4314    0.4694    0.5461 O   0  0  0  0  0  0  0  0  0  0  0  0
   -0.1430   -0.3871    1.5237 C   0  0  0  0  0  0  0  0  0  0  0  0
   -1.6715   -0.2381    1.5968 C   0  0  0  0  0  0  0  0  0  0  0  0
   -2.1785   -0.1258    2.7175 O   0  0  0  0  0  0  0  0  0  0  0  0
   -2.3946   -0.2994    0.3907 N   0  0  0  0  0  0  0  0  0  0  0  0
   -1.7592   -0.7899   -0.8402 C   0  0  0  0  0  0  0  0  0  0  0  0
   -2.7051   -1.6020   -1.7048 C   0  0  0  0  0  0  0  0  0  0  0  0
   -3.8662   -0.7270   -2.1226 C   0  0  0  0  0  0  0  0  0  0  0  0
   -4.4776   -0.0382   -0.9322 C   0  0  0  0  0  0  0  0  0  0  0  0
   -5.7947    0.4421   -1.0695 C   0  0  0  0  0  0  0  0  0  0  0  0
   -6.4212    1.1101   -0.0246 C   0  0  0  0  0  0  0  0  0  0  0  0
   -5.7312    1.3165    1.1605 C   0  0  0  0  0  0  0  0  0  0  0  0
   -4.4171    0.8543    1.3015 C   0  0  0  0  0  0  0  0  0  0  0  0
   -3.7608    0.1637    0.2700 C   0  0  0  0  0  0  0  0  0  0  0  0
    2.6686   -0.4006    1.0931 C   0  0  0  0  0  0  0  0  0  0  0  0
    4.0374   -0.3896    0.7928 C   0  0  0  0  0  0  0  0  0  0  0  0
    8.5189    0.6501    0.0576 H   0  0  0  0  0  0  0  0  0  0  0  0
    8.5849   -1.0272    0.6351 H   0  0  0  0  0  0  0  0  0  0  0  0
    8.2826   -0.7212   -1.0871 H   0  0  0  0  0  0  0  0  0  0  0  0
    4.0009    1.8409   -1.7821 H   0  0  0  0  0  0  0  0  0  0  0  0
    1.5927    1.8174   -1.2435 H   0  0  0  0  0  0  0  0  0  0  0  0
    0.0852   -1.4419    1.3293 H   0  0  0  0  0  0  0  0  0  0  0  0
    0.2491   -0.1126    2.5115 H   0  0  0  0  0  0  0  0  0  0  0  0
   -1.3756    0.0801   -1.3872 H   0  0  0  0  0  0  0  0  0  0  0  0
   -0.9093   -1.4338   -0.6004 H   0  0  0  0  0  0  0  0  0  0  0  0
   -3.0692   -2.4714   -1.1424 H   0  0  0  0  0  0  0  0  0  0  0  0
   -2.1833   -1.9803   -2.5907 H   0  0  0  0  0  0  0  0  0  0  0  0
   -4.6137   -1.3481   -2.6304 H   0  0  0  0  0  0  0  0  0  0  0  0
   -3.5279    0.0373   -2.8331 H   0  0  0  0  0  0  0  0  0  0  0  0
   -6.3375    0.2928   -2.0007 H   0  0  0  0  0  0  0  0  0  0  0  0
   -7.4388    1.4735   -0.1365 H   0  0  0  0  0  0  0  0  0  0  0  0
   -6.2051    1.8461    1.9833 H   0  0  0  0  0  0  0  0  0  0  0  0
   -3.9302    1.0807    2.2439 H   0  0  0  0  0  0  0  0  0  0  0  0
    2.3349   -1.0323    1.9103 H   0  0  0  0  0  0  0  0  0  0  0  0
    4.7069   -1.0129    1.3812 H   0  0  0  0  0  0  0  0  0  0  0  0
  1  2  1  0
  2  3  1  0
  3  4  2  0
  3  5  1  0
  5  6  2  0
  6  7  1  0
  7  8  2  0
  8  9  1  0
  9 10  1  0
 10 11  1  0
 11 12  2  0
 11 13  1  0
 13 14  1  0
 14 15  1  0
 15 16  1  0
 16 17  1  0
 17 18  2  0
 18 19  1  0
 19 20  2  0
 20 21  1  0
 21 22  2  0
  8 23  1  0
 23 24  2  0
 24  5  1  0
 22 13  1  0
 22 17  1  0
  1 25  1  0
  1 26  1  0
  1 27  1  0
  6 28  1  0
  7 29  1  0
 10 30  1  0
 10 31  1  0
 14 32  1  0
 14 33  1  0
 15 34  1  0
 15 35  1  0
 16 36  1  0
 16 37  1  0
 18 38  1  0
 19 39  1  0
 20 40  1  0
 21 41  1  0
 23 42  1  0
 24 43  1  0
M  END
$$$$
