
     RDKit          3D

 44 44  0  0  0  0  0  0  0  0999 V2000
   -4.6327   -0.0240    1.5300 C   0  0  0  0  0  0  0  0  0  0  0  0
   -3.1234    0.1996    1.7090 C   0  0  0  0  0  0  0  0  0  0  0  0
   -2.9386    1.3703    2.6942 C   0  0  0  0  0  0  0  0  0  0  0  0
   -2.3751    0.4358    0.3537 C   0  0  0  0  0  0  0  0  0  0  0  0
   -2.8495    1.6782   -0.1843 O   0  0  0  0  0  0  0  0  0  0  0  0
   -0.9191    0.5672    0.6038 C   0  0  0  0  0  0  0  0  0  0  0  0
    0.2651    0.6636    0.7874 C   0  0  0  0  0  0  0  0  0  0  0  0
    1.7173    0.7648    1.0018 C   0  0  0  0  0  0  0  0  0  0  0  0
    2.4510   -0.1444    0.1140 N   0  0  0  0  0  0  0  0  0  0  0  0
    2.4024    0.2629   -1.2995 C   0  0  0  0  0  0  0  0  0  0  0  0
    3.7254    0.8054   -1.8380 C   0  0  0  0  0  0  0  0  0  0  0  0
    4.8560   -0.2076   -1.6751 C   0  0  0  0  0  0  0  0  0  0  0  0
    4.6914   -1.0639   -0.4209 C   0  0  0  0  0  0  0  0  0  0  0  0
    3.8118   -0.3729    0.6180 C   0  0  0  0  0  0  0  0  0  0  0  0
   -2.6418   -0.6759   -0.7169 C   0  0  0  0  0  0  0  0  0  0  0  0
   -2.2623   -2.0868   -0.2487 C   0  0  0  0  0  0  0  0  0  0  0  0
   -1.9583   -0.3949   -2.0678 C   0  0  0  0  0  0  0  0  0  0  0  0
   -5.1028    0.8113    1.0007 H   0  0  0  0  0  0  0  0  0  0  0  0
   -5.1278   -0.1244    2.5025 H   0  0  0  0  0  0  0  0  0  0  0  0
   -4.8412   -0.9432    0.9754 H   0  0  0  0  0  0  0  0  0  0  0  0
   -2.7089   -0.6924    2.1970 H   0  0  0  0  0  0  0  0  0  0  0  0
   -3.3530    2.3026    2.2964 H   0  0  0  0  0  0  0  0  0  0  0  0
   -3.4473    1.1586    3.6414 H   0  0  0  0  0  0  0  0  0  0  0  0
   -1.8833    1.5379    2.9295 H   0  0  0  0  0  0  0  0  0  0  0  0
   -2.1547    2.0174   -0.7734 H   0  0  0  0  0  0  0  0  0  0  0  0
    2.0561    1.7999    0.8708 H   0  0  0  0  0  0  0  0  0  0  0  0
    1.9097    0.4974    2.0489 H   0  0  0  0  0  0  0  0  0  0  0  0
    2.1264   -0.6230   -1.8858 H   0  0  0  0  0  0  0  0  0  0  0  0
    1.6140    1.0001   -1.4933 H   0  0  0  0  0  0  0  0  0  0  0  0
    3.9818    1.7309   -1.3064 H   0  0  0  0  0  0  0  0  0  0  0  0
    3.6222    1.0736   -2.8957 H   0  0  0  0  0  0  0  0  0  0  0  0
    5.8120    0.3284   -1.6424 H   0  0  0  0  0  0  0  0  0  0  0  0
    4.9018   -0.8650   -2.5517 H   0  0  0  0  0  0  0  0  0  0  0  0
    4.2440   -2.0286   -0.6935 H   0  0  0  0  0  0  0  0  0  0  0  0
    5.6760   -1.2894    0.0046 H   0  0  0  0  0  0  0  0  0  0  0  0
    3.7605   -1.0034    1.5136 H   0  0  0  0  0  0  0  0  0  0  0  0
    4.2866    0.5722    0.9146 H   0  0  0  0  0  0  0  0  0  0  0  0
   -3.7164   -0.6768   -0.9417 H   0  0  0  0  0  0  0  0  0  0  0  0
   -2.4973   -2.8242   -1.0244 H   0  0  0  0  0  0  0  0  0  0  0  0
   -2.8170   -2.3789    0.6471 H   0  0  0  0  0  0  0  0  0  0  0  0
   -1.1925   -2.1674   -0.0307 H   0  0  0  0  0  0  0  0  0  0  0  0
   -0.8670   -0.4083   -1.9844 H   0  0  0  0  0  0  0  0  0  0  0  0
   -2.2404   -1.1567   -2.8034 H   0  0  0  0  0  0  0  0  0  0  0  0
   -2.2612    0.5739   -2.4765 H   0  0  0  0  0  0  0  0  0  0  0  0
  1  2  1  0
  2  3  1  0
  2  4  1  0
  4  5  1  0
  4  6  1  0
  6  7  3  0
  7  8  1  0
  8  9  1  0
  9 10  1  0
 10 11  1  0
 11 12  1  0
 12 13  1  0
 13 14  1  0
  4 15  1  0
 15 16  1  0
 15 17  1  0
 14  9  1  0
  1 18  1  0
  1 19  1  0
  1 20  1  0
  2 21  1  0
  3 22  1  0
  3 23  1  0
  3 24  1  0
  5 25  1  0
  8 26  1  0
  8 27  1  0
 10 28  1  0
 10 29  1  0
 11 30  1  0
 11 31  1  0
 12 32  1  0
 12 33  1  0
 13 34  1  0
 13 35  1  0
 14 36  1  0
 14 37  1  0
 15 38  1  0
 16 39  1  0
 16 40  1  0
 16 41  1  0
 17 42  1  0
 17 43  1  0
 17 44  1  0
M  END
$$$$
