
     RDKit          3D

 34 36  0  0  0  0  0  0  0  0999 V2000
    3.7668   -0.9934   -1.2214 N   0  0  0  0  0  0  0  0  0  0  0  0
    2.4558   -1.2135   -0.6134 C   0  0  0  0  0  0  0  0  0  0  0  0
    2.2487   -0.3019    0.5936 C   0  0  0  0  0  0  0  0  0  0  0  0
    0.9153   -0.5315    1.3260 C   0  0  0  0  0  0  0  0  0  0  0  0
   -0.2604   -0.0543    0.5554 N   0  0  0  0  0  0  0  0  0  0  0  0
   -1.0399   -1.0249   -0.1483 C   0  0  0  0  0  0  0  0  0  0  0  0
   -0.7142   -2.4021   -0.1736 C   0  0  0  0  0  0  0  0  0  0  0  0
   -1.4752   -3.3575   -0.8627 C   0  0  0  0  0  0  0  0  0  0  0  0
   -2.6030   -2.9719   -1.5613 C   0  0  0  0  0  0  0  0  0  0  0  0
   -2.9588   -1.6309   -1.5675 C   0  0  0  0  0  0  0  0  0  0  0  0
   -2.1943   -0.6659   -0.8760 C   0  0  0  0  0  0  0  0  0  0  0  0
   -2.8103    0.9913   -1.0136 S   0  0  0  0  0  0  0  0  0  0  0  0
   -1.6504    1.9175   -0.0467 C   0  0  0  0  0  0  0  0  0  0  0  0
   -1.9172    3.3024    0.0201 C   0  0  0  0  0  0  0  0  0  0  0  0
   -1.0976    4.1600    0.7421 C   0  0  0  0  0  0  0  0  0  0  0  0
   -0.0046    3.6309    1.4015 C   0  0  0  0  0  0  0  0  0  0  0  0
    1.0328    4.6692    2.3020 Cl  0  0  0  0  0  0  0  0  0  0  0  0
    0.2678    2.2589    1.3416 C   0  0  0  0  0  0  0  0  0  0  0  0
   -0.5419    1.3504    0.6168 C   0  0  0  0  0  0  0  0  0  0  0  0
    4.5003   -1.0877   -0.5207 H   0  0  0  0  0  0  0  0  0  0  0  0
    3.8248   -0.0350   -1.5657 H   0  0  0  0  0  0  0  0  0  0  0  0
    1.6896   -1.0344   -1.3734 H   0  0  0  0  0  0  0  0  0  0  0  0
    2.3909   -2.2634   -0.3109 H   0  0  0  0  0  0  0  0  0  0  0  0
    2.3429    0.7416    0.2728 H   0  0  0  0  0  0  0  0  0  0  0  0
    3.0577   -0.4789    1.3146 H   0  0  0  0  0  0  0  0  0  0  0  0
    0.8394   -1.5761    1.6388 H   0  0  0  0  0  0  0  0  0  0  0  0
    0.9473   -0.0339    2.3037 H   0  0  0  0  0  0  0  0  0  0  0  0
    0.1554   -2.8041    0.3312 H   0  0  0  0  0  0  0  0  0  0  0  0
   -1.1737   -4.4021   -0.8490 H   0  0  0  0  0  0  0  0  0  0  0  0
   -3.1993   -3.7028   -2.0995 H   0  0  0  0  0  0  0  0  0  0  0  0
   -3.8465   -1.3322   -2.1227 H   0  0  0  0  0  0  0  0  0  0  0  0
   -2.7783    3.7208   -0.4991 H   0  0  0  0  0  0  0  0  0  0  0  0
   -1.3179    5.2224    0.7819 H   0  0  0  0  0  0  0  0  0  0  0  0
    1.1479    1.9328    1.8837 H   0  0  0  0  0  0  0  0  0  0  0  0
  1  2  1  0
  2  3  1  0
  3  4  1  0
  4  5  1  0
  5  6  1  0
  6  7  2  0
  7  8  1  0
  8  9  2  0
  9 10  1  0
 10 11  2  0
 11 12  1  0
 12 13  1  0
 13 14  2  0
 14 15  1  0
 15 16  2  0
 16 17  1  0
 16 18  1  0
 18 19  2  0
 19  5  1  0
 11  6  1  0
 19 13  1  0
  1 20  1  0
  1 21  1  0
  2 22  1  0
  2 23  1  0
  3 24  1  0
  3 25  1  0
  4 26  1  0
  4 27  1  0
  7 28  1  0
  8 29  1  0
  9 30  1  0
 10 31  1  0
 14 32  1  0
 15 33  1  0
 18 34  1  0
M  END
$$$$
