
     RDKit          3D

 61 66  0  0  0  0  0  0  0  0999 V2000
    9.4257    2.2996    2.4021 F   0  0  0  0  0  0  0  0  0  0  0  0
    8.2077    1.8801    2.0342 C   0  0  0  0  0  0  0  0  0  0  0  0
    7.9964    1.4460    0.7291 C   0  0  0  0  0  0  0  0  0  0  0  0
    6.7294    1.0047    0.3442 C   0  0  0  0  0  0  0  0  0  0  0  0
    5.6719    1.0019    1.2679 C   0  0  0  0  0  0  0  0  0  0  0  0
    4.3074    0.4905    0.8641 C   0  0  0  0  0  0  0  0  0  0  0  0
    4.1894   -1.0286    1.0904 C   0  0  0  0  0  0  0  0  0  0  0  0
    2.9184   -1.6594    0.7159 N   0  0  0  0  0  0  0  0  0  0  0  0
    1.7992   -1.3095    1.6122 C   0  0  0  0  0  0  0  0  0  0  0  0
    0.4202   -1.7004    1.0339 C   0  0  0  0  0  0  0  0  0  0  0  0
    0.1512   -1.0182   -0.2623 N   0  0  0  0  0  0  0  0  0  0  0  0
   -0.9236   -0.1692   -0.2764 C   0  0  0  0  0  0  0  0  0  0  0  0
   -0.9639    1.1711    0.0687 C   0  0  0  0  0  0  0  0  0  0  0  0
   -2.3050    1.5978    0.0019 C   0  0  0  0  0  0  0  0  0  0  0  0
   -3.0682    0.5238   -0.4272 C   0  0  0  0  0  0  0  0  0  0  0  0
   -4.4934    0.3780   -0.6559 C   0  0  0  0  0  0  0  0  0  0  0  0
   -5.4152    1.5317   -0.4873 C   0  0  0  0  0  0  0  0  0  0  0  0
   -6.5825    1.3590    0.2652 C   0  0  0  0  0  0  0  0  0  0  0  0
   -7.4731    2.4222    0.4214 C   0  0  0  0  0  0  0  0  0  0  0  0
   -7.2057    3.6515   -0.1839 C   0  0  0  0  0  0  0  0  0  0  0  0
   -6.0536    3.8185   -0.9523 C   0  0  0  0  0  0  0  0  0  0  0  0
   -5.1603    2.7578   -1.1122 C   0  0  0  0  0  0  0  0  0  0  0  0
   -5.0036   -0.7698   -0.9985 N   0  0  0  0  0  0  0  0  0  0  0  0
   -4.1467   -1.8668   -1.2126 C   0  0  0  0  0  0  0  0  0  0  0  0
   -4.7320   -3.0682   -1.6331 C   0  0  0  0  0  0  0  0  0  0  0  0
   -3.9466   -4.1904   -1.8973 C   0  0  0  0  0  0  0  0  0  0  0  0
   -2.5617   -4.1161   -1.7504 C   0  0  0  0  0  0  0  0  0  0  0  0
   -1.9588   -2.9251   -1.3308 C   0  0  0  0  0  0  0  0  0  0  0  0
   -2.7490   -1.8065   -1.0492 C   0  0  0  0  0  0  0  0  0  0  0  0
   -2.2229   -0.5634   -0.6061 N   0  0  0  0  0  0  0  0  0  0  0  0
    1.3677   -0.5739   -0.9816 C   0  0  0  0  0  0  0  0  0  0  0  0
    2.5583   -1.5206   -0.7082 C   0  0  0  0  0  0  0  0  0  0  0  0
    5.9075    1.4393    2.5809 C   0  0  0  0  0  0  0  0  0  0  0  0
    7.1759    1.8811    2.9620 C   0  0  0  0  0  0  0  0  0  0  0  0
    8.8202    1.4501    0.0239 H   0  0  0  0  0  0  0  0  0  0  0  0
    6.5714    0.6620   -0.6775 H   0  0  0  0  0  0  0  0  0  0  0  0
    3.5454    1.0336    1.4340 H   0  0  0  0  0  0  0  0  0  0  0  0
    4.1352    0.7439   -0.1883 H   0  0  0  0  0  0  0  0  0  0  0  0
    4.3936   -1.2564    2.1452 H   0  0  0  0  0  0  0  0  0  0  0  0
    4.9914   -1.5358    0.5369 H   0  0  0  0  0  0  0  0  0  0  0  0
    1.7824   -0.2335    1.8210 H   0  0  0  0  0  0  0  0  0  0  0  0
    1.9402   -1.8241    2.5704 H   0  0  0  0  0  0  0  0  0  0  0  0
    0.3893   -2.7843    0.8673 H   0  0  0  0  0  0  0  0  0  0  0  0
   -0.3591   -1.4741    1.7742 H   0  0  0  0  0  0  0  0  0  0  0  0
   -0.1156    1.7651    0.3877 H   0  0  0  0  0  0  0  0  0  0  0  0
   -2.6691    2.5850    0.2566 H   0  0  0  0  0  0  0  0  0  0  0  0
   -6.7975    0.3980    0.7273 H   0  0  0  0  0  0  0  0  0  0  0  0
   -8.3778    2.2889    1.0091 H   0  0  0  0  0  0  0  0  0  0  0  0
   -7.9016    4.4787   -0.0657 H   0  0  0  0  0  0  0  0  0  0  0  0
   -5.8572    4.7724   -1.4359 H   0  0  0  0  0  0  0  0  0  0  0  0
   -4.2827    2.8895   -1.7391 H   0  0  0  0  0  0  0  0  0  0  0  0
   -5.8120   -3.1201   -1.7613 H   0  0  0  0  0  0  0  0  0  0  0  0
   -4.4154   -5.1153   -2.2273 H   0  0  0  0  0  0  0  0  0  0  0  0
   -1.9466   -4.9855   -1.9688 H   0  0  0  0  0  0  0  0  0  0  0  0
   -0.8772   -2.9007   -1.2514 H   0  0  0  0  0  0  0  0  0  0  0  0
    1.1591   -0.5641   -2.0581 H   0  0  0  0  0  0  0  0  0  0  0  0
    1.6474    0.4454   -0.6896 H   0  0  0  0  0  0  0  0  0  0  0  0
    3.4200   -1.2193   -1.3162 H   0  0  0  0  0  0  0  0  0  0  0  0
    2.2841   -2.5219   -1.0646 H   0  0  0  0  0  0  0  0  0  0  0  0
    5.1050    1.4354    3.3140 H   0  0  0  0  0  0  0  0  0  0  0  0
    7.3668    2.2189    3.9766 H   0  0  0  0  0  0  0  0  0  0  0  0
  1  2  1  0
  2  3  2  0
  3  4  1  0
  4  5  2  0
  5  6  1  0
  6  7  1  0
  7  8  1  0
  8  9  1  0
  9 10  1  0
 10 11  1  0
 11 12  1  0
 12 13  2  0
 13 14  1  0
 14 15  2  0
 15 16  1  0
 16 17  1  0
 17 18  2  0
 18 19  1  0
 19 20  2  0
 20 21  1  0
 21 22  2  0
 16 23  2  0
 23 24  1  0
 24 25  2  0
 25 26  1  0
 26 27  2  0
 27 28  1  0
 28 29  2  0
 29 30  1  0
 11 31  1  0
 31 32  1  0
  5 33  1  0
 33 34  2  0
 34  2  1  0
 32  8  1  0
 30 12  1  0
 30 15  1  0
 22 17  1  0
 29 24  1  0
  3 35  1  0
  4 36  1  0
  6 37  1  0
  6 38  1  0
  7 39  1  0
  7 40  1  0
  9 41  1  0
  9 42  1  0
 10 43  1  0
 10 44  1  0
 13 45  1  0
 14 46  1  0
 18 47  1  0
 19 48  1  0
 20 49  1  0
 21 50  1  0
 22 51  1  0
 25 52  1  0
 26 53  1  0
 27 54  1  0
 28 55  1  0
 31 56  1  0
 31 57  1  0
 32 58  1  0
 32 59  1  0
 33 60  1  0
 34 61  1  0
M  END
$$$$
