
     RDKit          3D

 26 27  0  0  0  0  0  0  0  0999 V2000
   -1.1858    2.0478   -1.3223 O   0  0  0  0  0  0  0  0  0  0  0  0
   -1.3868    0.9720   -0.7610 C   0  0  0  0  0  0  0  0  0  0  0  0
   -0.2397    0.1347   -0.1788 C   0  0  0  0  0  0  0  0  0  0  0  0
    1.0229    0.7536   -0.3735 O   0  0  0  0  0  0  0  0  0  0  0  0
    2.1379    0.1122    0.0988 C   0  0  0  0  0  0  0  0  0  0  0  0
    2.1248   -1.1191    0.7649 C   0  0  0  0  0  0  0  0  0  0  0  0
    3.3181   -1.6976    1.2119 C   0  0  0  0  0  0  0  0  0  0  0  0
    4.5351   -1.0547    0.9993 C   0  0  0  0  0  0  0  0  0  0  0  0
    4.5627    0.1709    0.3378 C   0  0  0  0  0  0  0  0  0  0  0  0
    3.3720    0.7512   -0.1098 C   0  0  0  0  0  0  0  0  0  0  0  0
    3.4743    2.2737   -0.9239 Cl  0  0  0  0  0  0  0  0  0  0  0  0
   -2.7336    0.4261   -0.6149 C   0  0  0  0  0  0  0  0  0  0  0  0
   -3.9184    0.9966   -1.0567 C   0  0  0  0  0  0  0  0  0  0  0  0
   -4.9855    0.1374   -0.7095 C   0  0  0  0  0  0  0  0  0  0  0  0
   -4.4379   -0.9436   -0.0617 C   0  0  0  0  0  0  0  0  0  0  0  0
   -3.0802   -0.7634   -0.0081 N   0  0  0  0  0  0  0  0  0  0  0  0
   -0.2545   -0.8372   -0.6866 H   0  0  0  0  0  0  0  0  0  0  0  0
   -0.4310    0.0207    0.8950 H   0  0  0  0  0  0  0  0  0  0  0  0
    1.2052   -1.6608    0.9559 H   0  0  0  0  0  0  0  0  0  0  0  0
    3.2969   -2.6548    1.7285 H   0  0  0  0  0  0  0  0  0  0  0  0
    5.4608   -1.5062    1.3475 H   0  0  0  0  0  0  0  0  0  0  0  0
    5.5129    0.6722    0.1722 H   0  0  0  0  0  0  0  0  0  0  0  0
   -3.9922    1.9440   -1.5791 H   0  0  0  0  0  0  0  0  0  0  0  0
   -6.0378    0.2931   -0.9113 H   0  0  0  0  0  0  0  0  0  0  0  0
   -4.8983   -1.8250    0.3653 H   0  0  0  0  0  0  0  0  0  0  0  0
   -2.4418   -1.4205    0.4197 H   0  0  0  0  0  0  0  0  0  0  0  0
  1  2  2  0
  2  3  1  0
  3  4  1  0
  4  5  1  0
  5  6  2  0
  6  7  1  0
  7  8  2  0
  8  9  1  0
  9 10  2  0
 10 11  1  0
  2 12  1  0
 12 13  2  0
 13 14  1  0
 14 15  2  0
 15 16  1  0
 10  5  1  0
 16 12  1  0
  3 17  1  0
  3 18  1  0
  6 19  1  0
  7 20  1  0
  8 21  1  0
  9 22  1  0
 13 23  1  0
 14 24  1  0
 15 25  1  0
 16 26  1  0
M  END
$$$$
