
     RDKit          3D

 53 58  0  0  0  0  0  0  0  0999 V2000
   -1.1148   -1.5282    0.1211 O   0  0  0  0  0  0  0  0  0  0  0  0
   -1.5028   -0.3630    0.0117 C   0  0  0  0  0  0  0  0  0  0  0  0
   -0.6130    0.8101    0.4722 C   0  0  0  0  0  0  0  0  0  0  0  0
    0.7853    0.3870    0.6691 N   0  0  0  0  0  4  0  0  0  0  0  0
    1.8918    0.7558   -0.0930 C   0  0  0  0  0  0  0  0  0  0  0  0
    3.0158    0.0939    0.3922 C   0  0  0  0  0  0  0  0  0  0  0  0
    4.4775    0.1858   -0.1840 C   0  0  0  0  0  0  0  0  0  0  0  0
    5.5017   -0.6066    0.3373 C   0  0  0  0  0  0  0  0  0  0  0  0
    6.7984   -0.5165   -0.1852 C   0  0  0  0  0  0  0  0  0  0  0  0
    7.0821    0.3662   -1.2304 C   0  0  0  0  0  0  0  0  0  0  0  0
    8.7031    0.4252   -1.8201 Cl  0  0  0  0  0  0  0  0  0  0  0  0
    6.0583    1.1581   -1.7575 C   0  0  0  0  0  0  0  0  0  0  0  0
    6.3206    2.2727   -3.0526 Cl  0  0  0  0  0  0  0  0  0  0  0  0
    4.7590    1.0658   -1.2372 C   0  0  0  0  0  0  0  0  0  0  0  0
    2.5207   -0.6303    1.4619 N   0  0  0  0  0  0  0  0  0  0  0  0
    1.2047   -0.4783    1.5901 C   0  0  0  0  0  0  0  0  0  0  0  0
    0.6335   -1.2519    2.7188 C   0  0  0  0  0  0  0  0  0  0  0  0
    1.8990   -1.6556    3.5001 C   0  0  0  0  0  0  0  0  0  0  0  0
    3.0579   -1.5297    2.4741 C   0  0  0  0  0  0  0  0  0  0  0  0
   -2.7823    0.0413   -0.3922 N   0  0  0  0  0  0  0  0  0  0  0  0
   -2.9241    0.9136   -1.5313 C   0  0  0  0  0  0  0  0  0  0  0  0
   -1.8870    0.9635   -2.4907 C   0  0  0  0  0  0  0  0  0  0  0  0
   -1.9629    1.7980   -3.6098 C   0  0  0  0  0  0  0  0  0  0  0  0
   -3.0775    2.6011   -3.7973 C   0  0  0  0  0  0  0  0  0  0  0  0
   -4.1246    2.5463   -2.8807 C   0  0  0  0  0  0  0  0  0  0  0  0
   -4.0636    1.6960   -1.7631 C   0  0  0  0  0  0  0  0  0  0  0  0
   -5.4492    1.7069   -0.6672 S   0  0  0  0  0  0  0  0  0  0  0  0
   -5.2205    0.1427    0.1387 C   0  0  0  0  0  0  0  0  0  0  0  0
   -6.3511   -0.3958    0.7795 C   0  0  0  0  0  0  0  0  0  0  0  0
   -6.2579   -1.5604    1.5342 C   0  0  0  0  0  0  0  0  0  0  0  0
   -5.0295   -2.1886    1.6633 C   0  0  0  0  0  0  0  0  0  0  0  0
   -3.9004   -1.6563    1.0306 C   0  0  0  0  0  0  0  0  0  0  0  0
   -3.9674   -0.4913    0.2372 C   0  0  0  0  0  0  0  0  0  0  0  0
   -0.6241    1.6461   -0.2307 H   0  0  0  0  0  0  0  0  0  0  0  0
   -0.9895    1.1687    1.4371 H   0  0  0  0  0  0  0  0  0  0  0  0
    1.7349    1.4428   -0.9080 H   0  0  0  0  0  0  0  0  0  0  0  0
    5.3313   -1.3168    1.1385 H   0  0  0  0  0  0  0  0  0  0  0  0
    7.5888   -1.1433    0.2274 H   0  0  0  0  0  0  0  0  0  0  0  0
    3.9894    1.6992   -1.6697 H   0  0  0  0  0  0  0  0  0  0  0  0
    0.1226   -2.1171    2.2937 H   0  0  0  0  0  0  0  0  0  0  0  0
   -0.0431   -0.6104    3.2857 H   0  0  0  0  0  0  0  0  0  0  0  0
    2.0638   -0.9392    4.3138 H   0  0  0  0  0  0  0  0  0  0  0  0
    1.8286   -2.6537    3.9414 H   0  0  0  0  0  0  0  0  0  0  0  0
    3.2780   -2.4938    2.0066 H   0  0  0  0  0  0  0  0  0  0  0  0
    3.9512   -1.1091    2.9417 H   0  0  0  0  0  0  0  0  0  0  0  0
   -1.0195    0.3105   -2.4223 H   0  0  0  0  0  0  0  0  0  0  0  0
   -1.1592    1.8102   -4.3443 H   0  0  0  0  0  0  0  0  0  0  0  0
   -3.1467    3.2537   -4.6659 H   0  0  0  0  0  0  0  0  0  0  0  0
   -5.0013    3.1693   -3.0524 H   0  0  0  0  0  0  0  0  0  0  0  0
   -7.3192    0.0986    0.6998 H   0  0  0  0  0  0  0  0  0  0  0  0
   -7.1395   -1.9711    2.0194 H   0  0  0  0  0  0  0  0  0  0  0  0
   -4.9465   -3.1039    2.2452 H   0  0  0  0  0  0  0  0  0  0  0  0
   -2.9807   -2.2185    1.1568 H   0  0  0  0  0  0  0  0  0  0  0  0
  1  2  2  0
  2  3  1  0
  3  4  1  0
  4  5  1  0
  5  6  2  0
  6  7  1  0
  7  8  2  0
  8  9  1  0
  9 10  2  0
 10 11  1  0
 10 12  1  0
 12 13  1  0
 12 14  2  0
  6 15  1  0
 15 16  1  0
 16 17  1  0
 17 18  1  0
 18 19  1  0
  2 20  1  0
 20 21  1  0
 21 22  2  0
 22 23  1  0
 23 24  2  0
 24 25  1  0
 25 26  2  0
 26 27  1  0
 27 28  1  0
 28 29  2  0
 29 30  1  0
 30 31  2  0
 31 32  1  0
 32 33  2  0
 16  4  2  0
 33 20  1  0
 14  7  1  0
 19 15  1  0
 26 21  1  0
 33 28  1  0
  3 34  1  0
  3 35  1  0
  5 36  1  0
  8 37  1  0
  9 38  1  0
 14 39  1  0
 17 40  1  0
 17 41  1  0
 18 42  1  0
 18 43  1  0
 19 44  1  0
 19 45  1  0
 22 46  1  0
 23 47  1  0
 24 48  1  0
 25 49  1  0
 29 50  1  0
 30 51  1  0
 31 52  1  0
 32 53  1  0
M  CHG  1   4   1
M  END
$$$$
