
     RDKit          3D

 34 36  0  0  0  0  0  0  0  0999 V2000
   -0.0408   -0.0466    2.3216 O   0  0  0  0  0  0  0  0  0  0  0  0
    0.3677    0.0053    1.1700 C   0  0  0  0  0  0  0  0  0  0  0  0
    1.8055   -0.1946    0.9163 C   0  0  0  0  0  0  0  0  0  0  0  0
    2.3672   -1.4493    1.1687 C   0  0  0  0  0  0  0  0  0  0  0  0
    3.7310   -1.6490    0.9466 C   0  0  0  0  0  0  0  0  0  0  0  0
    4.5207   -0.5927    0.4887 C   0  0  0  0  0  0  0  0  0  0  0  0
    6.2006   -0.8415    0.2133 Cl  0  0  0  0  0  0  0  0  0  0  0  0
    3.9618    0.6660    0.2568 C   0  0  0  0  0  0  0  0  0  0  0  0
    2.5983    0.8709    0.4768 C   0  0  0  0  0  0  0  0  0  0  0  0
   -0.4567    0.2259    0.0976 N   0  0  0  0  0  0  0  0  0  0  0  0
   -0.1296    0.1471   -1.3331 C   0  0  0  0  0  0  0  0  0  0  0  0
   -0.7039   -1.1634   -1.8108 C   0  0  0  0  0  0  0  0  0  0  0  0
   -2.0424   -1.0398   -1.8341 C   0  0  0  0  0  0  0  0  0  0  0  0
   -2.3575    0.3413   -1.2789 C   0  0  0  0  0  0  0  0  0  0  0  0
   -1.1771    1.0770   -1.9441 C   0  0  0  0  0  0  0  0  0  0  0  0
   -1.9633    0.3957    0.2475 C   0  0  0  0  0  0  0  0  0  0  0  0
   -2.4089    1.7134    0.8758 C   0  0  0  0  0  0  0  0  0  0  0  0
   -3.7419    1.9022    0.7224 F   0  0  0  0  0  0  0  0  0  0  0  0
   -2.1379    1.8217    2.1899 F   0  0  0  0  0  0  0  0  0  0  0  0
   -1.8123    2.7776    0.2808 F   0  0  0  0  0  0  0  0  0  0  0  0
   -2.7101   -0.6774    1.0464 C   0  0  0  0  0  0  0  0  0  0  0  0
   -2.2768   -1.9305    0.7609 F   0  0  0  0  0  0  0  0  0  0  0  0
   -2.6333   -0.5394    2.3835 F   0  0  0  0  0  0  0  0  0  0  0  0
   -4.0335   -0.6588    0.7350 F   0  0  0  0  0  0  0  0  0  0  0  0
    1.7484   -2.2627    1.5414 H   0  0  0  0  0  0  0  0  0  0  0  0
    4.1722   -2.6236    1.1397 H   0  0  0  0  0  0  0  0  0  0  0  0
    4.5846    1.4891   -0.0845 H   0  0  0  0  0  0  0  0  0  0  0  0
    2.1636    1.8546    0.3186 H   0  0  0  0  0  0  0  0  0  0  0  0
    0.9047    0.3376   -1.6135 H   0  0  0  0  0  0  0  0  0  0  0  0
   -0.1321   -2.0402   -2.0760 H   0  0  0  0  0  0  0  0  0  0  0  0
   -2.7593   -1.8040   -2.0991 H   0  0  0  0  0  0  0  0  0  0  0  0
   -3.3448    0.7220   -1.5457 H   0  0  0  0  0  0  0  0  0  0  0  0
   -1.0602    2.1180   -1.6364 H   0  0  0  0  0  0  0  0  0  0  0  0
   -1.2040    1.0483   -3.0420 H   0  0  0  0  0  0  0  0  0  0  0  0
  1  2  2  0
  2  3  1  0
  3  4  2  0
  4  5  1  0
  5  6  2  0
  6  7  1  0
  6  8  1  0
  8  9  2  0
  2 10  1  0
 10 11  1  0
 11 12  1  0
 12 13  2  0
 13 14  1  0
 14 15  1  0
 14 16  1  0
 16 17  1  0
 17 18  1  0
 17 19  1  0
 17 20  1  0
 16 21  1  0
 21 22  1  0
 21 23  1  0
 21 24  1  0
  9  3  1  0
 16 10  1  0
 15 11  1  0
  4 25  1  0
  5 26  1  0
  8 27  1  0
  9 28  1  0
 11 29  1  0
 12 30  1  0
 13 31  1  0
 14 32  1  0
 15 33  1  0
 15 34  1  0
M  END
$$$$
