
     RDKit          3D

 37 39  0  0  0  0  0  0  0  0999 V2000
    3.0434    1.6867    4.4243 C   0  0  0  0  0  0  0  0  0  0  0  0
    2.2122    1.4122    3.3024 O   0  0  0  0  0  0  0  0  0  0  0  0
    2.0943    0.1000    2.9269 C   0  0  0  0  0  0  0  0  0  0  0  0
    2.7295   -0.9833    3.5290 C   0  0  0  0  0  0  0  0  0  0  0  0
    2.5267   -2.2893    3.0649 C   0  0  0  0  0  0  0  0  0  0  0  0
    1.6722   -2.4720    1.9719 C   0  0  0  0  0  0  0  0  0  0  0  0
    1.2885   -3.6304    1.3364 N   0  0  0  0  0  0  0  0  0  0  0  0
    0.4212   -3.3451    0.3147 C   0  0  0  0  0  0  0  0  0  0  0  0
    0.2593   -1.9774    0.2643 C   0  0  0  0  0  0  0  0  0  0  0  0
   -0.5747   -1.3365   -0.7025 C   0  0  0  0  0  0  0  0  0  0  0  0
   -0.3426   -0.1280   -1.2419 C   0  0  0  0  0  0  0  0  0  0  0  0
   -1.2130    0.5201   -2.2285 C   0  0  0  0  0  0  0  0  0  0  0  0
   -1.4112    1.8977   -2.1514 C   0  0  0  0  0  0  0  0  0  0  0  0
   -2.2127    2.5342   -3.0921 C   0  0  0  0  0  0  0  0  0  0  0  0
   -2.7970    1.8303   -4.0869 N   0  0  0  0  0  4  0  0  0  0  0  0
   -3.6331    2.5279   -5.0784 C   0  0  0  0  0  0  0  0  0  0  0  0
   -2.5992    0.4978   -4.1973 C   0  0  0  0  0  0  0  0  0  0  0  0
   -1.8070   -0.1800   -3.2772 C   0  0  0  0  0  0  0  0  0  0  0  0
    1.0306   -1.4118    1.3283 C   0  0  0  0  0  0  0  0  0  0  0  0
    1.2435   -0.1099    1.8325 C   0  0  0  0  0  0  0  0  0  0  0  0
    2.6637    1.1962    5.3267 H   0  0  0  0  0  0  0  0  0  0  0  0
    3.0224    2.7668    4.5988 H   0  0  0  0  0  0  0  0  0  0  0  0
    4.0817    1.4020    4.2246 H   0  0  0  0  0  0  0  0  0  0  0  0
    3.3942   -0.8525    4.3774 H   0  0  0  0  0  0  0  0  0  0  0  0
    3.0179   -3.1289    3.5475 H   0  0  0  0  0  0  0  0  0  0  0  0
    1.5975   -4.5565    1.5997 H   0  0  0  0  0  0  0  0  0  0  0  0
    0.0125   -4.1431   -0.2908 H   0  0  0  0  0  0  0  0  0  0  0  0
   -1.4477   -1.9055   -1.0148 H   0  0  0  0  0  0  0  0  0  0  0  0
    0.5394    0.4369   -0.9460 H   0  0  0  0  0  0  0  0  0  0  0  0
   -0.9510    2.4819   -1.3559 H   0  0  0  0  0  0  0  0  0  0  0  0
   -2.3898    3.6056   -3.0583 H   0  0  0  0  0  0  0  0  0  0  0  0
   -2.9768    2.8517   -5.8900 H   0  0  0  0  0  0  0  0  0  0  0  0
   -4.1149    3.3850   -4.6008 H   0  0  0  0  0  0  0  0  0  0  0  0
   -4.3998    1.8417   -5.4472 H   0  0  0  0  0  0  0  0  0  0  0  0
   -3.0734   -0.0166   -5.0285 H   0  0  0  0  0  0  0  0  0  0  0  0
   -1.6492   -1.2502   -3.3957 H   0  0  0  0  0  0  0  0  0  0  0  0
    0.7423    0.7425    1.3869 H   0  0  0  0  0  0  0  0  0  0  0  0
  1  2  1  0
  2  3  1  0
  3  4  2  0
  4  5  1  0
  5  6  2  0
  6  7  1  0
  7  8  1  0
  8  9  2  0
  9 10  1  0
 10 11  2  3
 11 12  1  0
 12 13  2  0
 13 14  1  0
 14 15  2  0
 15 16  1  0
 15 17  1  0
 17 18  2  0
  9 19  1  0
 19 20  2  0
 20  3  1  0
 19  6  1  0
 18 12  1  0
  1 21  1  0
  1 22  1  0
  1 23  1  0
  4 24  1  0
  5 25  1  0
  7 26  1  0
  8 27  1  0
 10 28  1  0
 11 29  1  0
 13 30  1  0
 14 31  1  0
 16 32  1  0
 16 33  1  0
 16 34  1  0
 17 35  1  0
 18 36  1  0
 20 37  1  0
M  CHG  1  15   1
M  END
$$$$
