
     RDKit          3D

 74 79  0  0  0  0  0  0  0  0999 V2000
    9.0243   -1.8497   -4.1324 C   0  0  0  0  0  0  0  0  0  0  0  0
    7.8004   -2.5282   -3.8797 O   0  0  0  0  0  0  0  0  0  0  0  0
    6.9317   -1.9273   -3.0076 C   0  0  0  0  0  0  0  0  0  0  0  0
    5.7348   -2.6175   -2.8161 C   0  0  0  0  0  0  0  0  0  0  0  0
    4.7538   -2.1212   -1.9486 C   0  0  0  0  0  0  0  0  0  0  0  0
    4.9428   -0.9187   -1.2421 C   0  0  0  0  0  0  0  0  0  0  0  0
    3.9208   -0.4071   -0.3045 C   0  0  0  0  0  0  0  0  0  0  0  0
    2.5661   -0.5873   -0.5141 C   0  0  0  0  0  0  0  0  0  0  0  0
    1.6647   -0.1335    0.4509 C   0  0  0  0  0  0  0  0  0  0  0  0
    0.2380   -0.3586    0.1263 C   0  0  0  0  0  0  0  0  0  0  0  0
   -0.1037   -1.4955   -0.1826 O   0  0  0  0  0  0  0  0  0  0  0  0
   -0.5690    0.7583    0.1813 N   0  0  0  0  0  0  0  0  0  0  0  0
   -1.9391    0.8126   -0.1532 C   0  0  0  0  0  0  0  0  0  0  0  0
   -2.5546   -0.1472   -0.9568 C   0  0  0  0  0  0  0  0  0  0  0  0
   -3.9224   -0.0629   -1.2109 C   0  0  0  0  0  0  0  0  0  0  0  0
   -4.6906   -1.2840   -2.2545 S   0  0  0  0  0  6  0  0  0  0  0  0
   -6.0352   -0.8180   -2.5276 O   0  0  0  0  0  0  0  0  0  0  0  0
   -3.7686   -1.5800   -3.3300 O   0  0  0  0  0  0  0  0  0  0  0  0
   -4.8220   -2.6392   -1.2640 N   0  0  0  0  0  0  0  0  0  0  0  0
   -3.6227   -3.4892   -1.0523 C   0  0  0  0  0  0  0  0  0  0  0  0
   -3.9897   -4.6653   -0.1386 C   0  0  0  0  0  0  0  0  0  0  0  0
   -4.3941   -4.2457    1.1713 O   0  0  0  0  0  0  0  0  0  0  0  0
   -5.0071   -2.9497    1.2018 C   0  0  0  0  0  0  0  0  0  0  0  0
   -5.7394   -2.5809   -0.0951 C   0  0  0  0  0  0  0  0  0  0  0  0
   -4.6749    1.0028   -0.7104 C   0  0  0  0  0  0  0  0  0  0  0  0
   -4.0506    1.9844    0.0617 C   0  0  0  0  0  0  0  0  0  0  0  0
   -2.6769    1.9152    0.3446 C   0  0  0  0  0  0  0  0  0  0  0  0
   -2.0156    2.8696    1.1574 N   0  0  0  0  0  0  0  0  0  0  0  0
   -2.3218    2.6888    2.6001 C   0  0  0  0  0  0  0  0  0  0  0  0
   -3.2639    3.7833    3.1276 C   0  0  0  0  0  0  0  0  0  0  0  0
   -2.7690    5.1199    2.9479 O   0  0  0  0  0  0  0  0  0  0  0  0
   -1.8680    5.2537    1.8330 C   0  0  0  0  0  0  0  0  0  0  0  0
   -2.1675    4.2723    0.6897 C   0  0  0  0  0  0  0  0  0  0  0  0
    2.1210    0.4650    1.6436 C   0  0  0  0  0  0  0  0  0  0  0  0
    1.2971    0.8572    2.7316 C   0  0  0  0  0  0  0  0  0  0  0  0
    1.8390    1.4565    3.8672 C   0  0  0  0  0  0  0  0  0  0  0  0
    3.2083    1.6632    3.9402 C   0  0  0  0  0  0  0  0  0  0  0  0
    4.0273    1.2536    2.8857 C   0  0  0  0  0  0  0  0  0  0  0  0
    3.5159    0.6437    1.7450 C   0  0  0  0  0  0  0  0  0  0  0  0
    4.3804    0.2386    0.7968 N   0  0  0  0  0  0  0  0  0  0  0  0
    6.1588   -0.2384   -1.4438 C   0  0  0  0  0  0  0  0  0  0  0  0
    7.1415   -0.7339   -2.3176 C   0  0  0  0  0  0  0  0  0  0  0  0
    8.8474   -0.8726   -4.5979 H   0  0  0  0  0  0  0  0  0  0  0  0
    9.5987   -2.4574   -4.8390 H   0  0  0  0  0  0  0  0  0  0  0  0
    9.6197   -1.7526   -3.2190 H   0  0  0  0  0  0  0  0  0  0  0  0
    5.5629   -3.5549   -3.3424 H   0  0  0  0  0  0  0  0  0  0  0  0
    3.8482   -2.7137   -1.8133 H   0  0  0  0  0  0  0  0  0  0  0  0
    2.1947   -1.0754   -1.4108 H   0  0  0  0  0  0  0  0  0  0  0  0
   -0.2302    1.6054    0.6280 H   0  0  0  0  0  0  0  0  0  0  0  0
   -1.9761   -0.9432   -1.4181 H   0  0  0  0  0  0  0  0  0  0  0  0
   -3.2659   -3.8695   -2.0134 H   0  0  0  0  0  0  0  0  0  0  0  0
   -2.8293   -2.9097   -0.5748 H   0  0  0  0  0  0  0  0  0  0  0  0
   -4.8055   -5.2553   -0.5682 H   0  0  0  0  0  0  0  0  0  0  0  0
   -3.1357   -5.3333   -0.0197 H   0  0  0  0  0  0  0  0  0  0  0  0
   -4.2207   -2.2161    1.4185 H   0  0  0  0  0  0  0  0  0  0  0  0
   -5.7010   -2.9338    2.0494 H   0  0  0  0  0  0  0  0  0  0  0  0
   -6.5459   -3.2966   -0.2857 H   0  0  0  0  0  0  0  0  0  0  0  0
   -6.1952   -1.5919    0.0128 H   0  0  0  0  0  0  0  0  0  0  0  0
   -5.7382    1.0899   -0.9267 H   0  0  0  0  0  0  0  0  0  0  0  0
   -4.6553    2.8024    0.4407 H   0  0  0  0  0  0  0  0  0  0  0  0
   -1.3752    2.7530    3.1468 H   0  0  0  0  0  0  0  0  0  0  0  0
   -2.7501    1.7041    2.8159 H   0  0  0  0  0  0  0  0  0  0  0  0
   -3.4390    3.6428    4.1978 H   0  0  0  0  0  0  0  0  0  0  0  0
   -4.2424    3.7240    2.6360 H   0  0  0  0  0  0  0  0  0  0  0  0
   -0.8461    5.1124    2.2071 H   0  0  0  0  0  0  0  0  0  0  0  0
   -1.9570    6.2886    1.4777 H   0  0  0  0  0  0  0  0  0  0  0  0
   -1.4703    4.4483   -0.1348 H   0  0  0  0  0  0  0  0  0  0  0  0
   -3.1788    4.4740    0.3257 H   0  0  0  0  0  0  0  0  0  0  0  0
    0.2240    0.6786    2.7101 H   0  0  0  0  0  0  0  0  0  0  0  0
    1.1981    1.7534    4.6939 H   0  0  0  0  0  0  0  0  0  0  0  0
    3.6494    2.1209    4.8221 H   0  0  0  0  0  0  0  0  0  0  0  0
    5.1037    1.3965    2.9615 H   0  0  0  0  0  0  0  0  0  0  0  0
    6.3519    0.6895   -0.9038 H   0  0  0  0  0  0  0  0  0  0  0  0
    8.0585   -0.1673   -2.4302 H   0  0  0  0  0  0  0  0  0  0  0  0
  1  2  1  0
  2  3  1  0
  3  4  2  0
  4  5  1  0
  5  6  2  0
  6  7  1  0
  7  8  2  0
  8  9  1  0
  9 10  1  0
 10 11  2  0
 10 12  1  0
 12 13  1  0
 13 14  2  0
 14 15  1  0
 15 16  1  0
 16 17  2  0
 16 18  2  0
 16 19  1  0
 19 20  1  0
 20 21  1  0
 21 22  1  0
 22 23  1  0
 23 24  1  0
 15 25  2  0
 25 26  1  0
 26 27  2  0
 27 28  1  0
 28 29  1  0
 29 30  1  0
 30 31  1  0
 31 32  1  0
 32 33  1  0
  9 34  2  0
 34 35  1  0
 35 36  2  0
 36 37  1  0
 37 38  2  0
 38 39  1  0
 39 40  2  0
  6 41  1  0
 41 42  2  0
 42  3  1  0
 40  7  1  0
 27 13  1  0
 33 28  1  0
 39 34  1  0
 24 19  1  0
  1 43  1  0
  1 44  1  0
  1 45  1  0
  4 46  1  0
  5 47  1  0
  8 48  1  0
 12 49  1  0
 14 50  1  0
 20 51  1  0
 20 52  1  0
 21 53  1  0
 21 54  1  0
 23 55  1  0
 23 56  1  0
 24 57  1  0
 24 58  1  0
 25 59  1  0
 26 60  1  0
 29 61  1  0
 29 62  1  0
 30 63  1  0
 30 64  1  0
 32 65  1  0
 32 66  1  0
 33 67  1  0
 33 68  1  0
 35 69  1  0
 36 70  1  0
 37 71  1  0
 38 72  1  0
 41 73  1  0
 42 74  1  0
M  END
$$$$
