
     RDKit          3D

 70 75  0  0  0  0  0  0  0  0999 V2000
   -4.5283   -3.6354    2.4001 C   0  0  0  0  0  0  0  0  0  0  0  0
   -3.5920   -2.9201    1.4618 C   0  0  0  0  0  0  0  0  0  0  0  0
   -2.8223   -1.8453    1.9682 C   0  0  0  0  0  0  0  0  0  0  0  0
   -1.9464   -1.1257    1.1529 C   0  0  0  0  0  0  0  0  0  0  0  0
   -1.8386   -1.4907   -0.1794 C   0  0  0  0  0  0  0  0  0  0  0  0
   -2.5993   -2.5549   -0.6806 C   0  0  0  0  0  0  0  0  0  0  0  0
   -3.4680   -3.3045    0.1074 C   0  0  0  0  0  0  0  0  0  0  0  0
   -4.2823   -4.4161   -0.4874 C   0  0  0  0  0  0  0  0  0  0  0  0
   -2.3586   -2.7079   -2.0436 N   0  0  0  0  0  0  0  0  0  0  0  0
   -1.4554   -1.7567   -2.5228 C   0  0  0  0  0  0  0  0  0  0  0  0
   -1.1048   -1.6707   -3.6913 O   0  0  0  0  0  0  0  0  0  0  0  0
   -1.0135   -0.9070   -1.3009 C   0  0  1  0  0  0  0  0  0  0  0  0
   -1.3579    0.5264   -1.4010 C   0  0  0  0  0  0  0  0  0  0  0  0
   -0.2349    1.3264   -1.1952 C   0  0  0  0  0  0  0  0  0  0  0  0
   -0.5984    2.6407   -1.2907 C   0  0  0  0  0  0  0  0  0  0  0  0
    0.1898    3.7134   -1.2468 O   0  0  0  0  0  0  0  0  0  0  0  0
   -1.9830    2.6647   -1.5413 N   0  0  0  0  0  0  0  0  0  0  0  0
   -2.7802    3.8338   -1.7097 C   0  0  0  0  0  0  0  0  0  0  0  0
   -3.7827    3.8629   -2.6885 C   0  0  0  0  0  0  0  0  0  0  0  0
   -4.5588    5.0111   -2.8543 C   0  0  0  0  0  0  0  0  0  0  0  0
   -4.3408    6.1265   -2.0462 C   0  0  0  0  0  0  0  0  0  0  0  0
   -3.3453    6.0989   -1.0698 C   0  0  0  0  0  0  0  0  0  0  0  0
   -2.5614    4.9564   -0.9002 C   0  0  0  0  0  0  0  0  0  0  0  0
   -2.4457    1.3361   -1.5970 C   0  0  0  0  0  0  0  0  0  0  0  0
   -3.7212    0.9782   -1.7370 O   0  0  0  0  0  0  0  0  0  0  0  0
    0.9892    0.5221   -1.0127 C   0  0  1  0  0  0  0  0  0  0  0  0
    1.7283    0.7709    0.3134 C   0  0  0  0  0  0  0  0  0  0  0  0
    2.7861   -0.2179    0.5460 N   0  0  0  0  0  0  0  0  0  0  0  0
    3.9266    0.1471    1.2289 C   0  0  0  0  0  0  0  0  0  0  0  0
    4.0954    1.2542    1.7229 O   0  0  0  0  0  0  0  0  0  0  0  0
    4.8306   -0.8653    1.2800 O   0  0  0  0  0  0  0  0  0  0  0  0
    6.1124   -0.6903    1.9360 C   0  0  0  0  0  0  0  0  0  0  0  0
    5.9417   -0.4099    3.4335 C   0  0  0  0  0  0  0  0  0  0  0  0
    6.8200   -2.0444    1.7700 C   0  0  0  0  0  0  0  0  0  0  0  0
    6.9528    0.3873    1.2409 C   0  0  0  0  0  0  0  0  0  0  0  0
    2.5884   -1.5541   -0.0253 C   0  0  0  0  0  0  0  0  0  0  0  0
    1.1008   -1.8625   -0.2836 C   0  0  0  0  0  0  0  0  0  0  0  0
    0.4793   -0.8840   -1.1709 N   0  0  0  0  0  0  0  0  0  0  0  0
   -4.5905   -3.1288    3.3690 H   0  0  0  0  0  0  0  0  0  0  0  0
   -4.1761   -4.6561    2.5796 H   0  0  0  0  0  0  0  0  0  0  0  0
   -5.5406   -3.6625    1.9837 H   0  0  0  0  0  0  0  0  0  0  0  0
   -2.9149   -1.5555    3.0140 H   0  0  0  0  0  0  0  0  0  0  0  0
   -1.3761   -0.2944    1.5550 H   0  0  0  0  0  0  0  0  0  0  0  0
   -4.5370   -5.1771    0.2558 H   0  0  0  0  0  0  0  0  0  0  0  0
   -5.2076   -4.0147   -0.9125 H   0  0  0  0  0  0  0  0  0  0  0  0
   -3.7269   -4.9365   -1.2744 H   0  0  0  0  0  0  0  0  0  0  0  0
   -2.8054   -3.3724   -2.6544 H   0  0  0  0  0  0  0  0  0  0  0  0
   -0.2443    4.4454   -1.7205 H   0  0  0  0  0  0  0  0  0  0  0  0
   -3.9414    3.0225   -3.3627 H   0  0  0  0  0  0  0  0  0  0  0  0
   -5.3271    5.0409   -3.6238 H   0  0  0  0  0  0  0  0  0  0  0  0
   -4.9472    7.0198   -2.1787 H   0  0  0  0  0  0  0  0  0  0  0  0
   -3.1856    6.9669   -0.4340 H   0  0  0  0  0  0  0  0  0  0  0  0
   -1.8186    4.9463   -0.1041 H   0  0  0  0  0  0  0  0  0  0  0  0
   -4.2922    1.7266   -1.4894 H   0  0  0  0  0  0  0  0  0  0  0  0
    1.6794    0.7086   -1.8454 H   0  0  0  0  0  0  0  0  0  0  0  0
    1.0388    0.6987    1.1644 H   0  0  0  0  0  0  0  0  0  0  0  0
    2.1482    1.7834    0.3307 H   0  0  0  0  0  0  0  0  0  0  0  0
    6.9039   -0.4420    3.9563 H   0  0  0  0  0  0  0  0  0  0  0  0
    5.5017    0.5741    3.6194 H   0  0  0  0  0  0  0  0  0  0  0  0
    5.2714   -1.1457    3.8918 H   0  0  0  0  0  0  0  0  0  0  0  0
    6.9359   -2.2958    0.7093 H   0  0  0  0  0  0  0  0  0  0  0  0
    7.8107   -2.0459    2.2362 H   0  0  0  0  0  0  0  0  0  0  0  0
    6.2265   -2.8513    2.2152 H   0  0  0  0  0  0  0  0  0  0  0  0
    6.5328    1.3876    1.3813 H   0  0  0  0  0  0  0  0  0  0  0  0
    6.9924    0.2119    0.1597 H   0  0  0  0  0  0  0  0  0  0  0  0
    7.9773    0.4050    1.6284 H   0  0  0  0  0  0  0  0  0  0  0  0
    3.0069   -2.3076    0.6517 H   0  0  0  0  0  0  0  0  0  0  0  0
    3.1583   -1.5966   -0.9618 H   0  0  0  0  0  0  0  0  0  0  0  0
    1.0118   -2.8627   -0.7217 H   0  0  0  0  0  0  0  0  0  0  0  0
    0.6137   -1.8858    0.6961 H   0  0  0  0  0  0  0  0  0  0  0  0
  1  2  1  0
  2  3  2  0
  3  4  1  0
  4  5  2  0
  5  6  1  0
  6  7  2  0
  7  8  1  0
  6  9  1  0
  9 10  1  0
 10 11  2  0
 10 12  1  0
 12 13  1  0
 13 14  1  0
 14 15  2  0
 15 16  1  0
 15 17  1  0
 17 18  1  0
 18 19  2  0
 19 20  1  0
 20 21  2  0
 21 22  1  0
 22 23  2  0
 17 24  1  0
 24 25  1  0
 14 26  1  0
 26 27  1  0
 27 28  1  0
 28 29  1  0
 29 30  2  0
 29 31  1  0
 31 32  1  0
 32 33  1  0
 32 34  1  0
 32 35  1  0
 28 36  1  0
 36 37  1  0
 37 38  1  0
  7  2  1  0
 12 38  1  1
 12  5  1  0
 24 13  2  0
 38 26  1  0
 23 18  1  0
  1 39  1  0
  1 40  1  0
  1 41  1  0
  3 42  1  0
  4 43  1  0
  8 44  1  0
  8 45  1  0
  8 46  1  0
  9 47  1  0
 16 48  1  0
 19 49  1  0
 20 50  1  0
 21 51  1  0
 22 52  1  0
 23 53  1  0
 25 54  1  0
 26 55  1  6
 27 56  1  0
 27 57  1  0
 33 58  1  0
 33 59  1  0
 33 60  1  0
 34 61  1  0
 34 62  1  0
 34 63  1  0
 35 64  1  0
 35 65  1  0
 35 66  1  0
 36 67  1  0
 36 68  1  0
 37 69  1  0
 37 70  1  0
M  END
$$$$
