
     RDKit          3D

 60 63  0  0  0  0  0  0  0  0999 V2000
   -6.1176    5.1956   -0.9572 C   0  0  0  0  0  0  0  0  0  0  0  0
   -6.5616    3.9415   -1.1204 C   0  0  0  0  0  0  0  0  0  0  0  0
   -6.7008    2.9367   -0.0138 C   0  0  0  0  0  0  0  0  0  0  0  0
   -5.6742    1.9168   -0.1637 N   0  0  0  0  0  0  0  0  0  0  0  0
   -5.9182    0.8152   -0.9733 C   0  0  0  0  0  0  0  0  0  0  0  0
   -6.9826    0.6339   -1.5622 O   0  0  0  0  0  0  0  0  0  0  0  0
   -4.8240   -0.1854   -1.1406 C   0  0  0  0  0  0  0  0  0  0  0  0
   -5.0518   -1.2865   -1.9815 C   0  0  0  0  0  0  0  0  0  0  0  0
   -4.0536   -2.2370   -2.1831 C   0  0  0  0  0  0  0  0  0  0  0  0
   -2.8247   -2.0897   -1.5471 C   0  0  0  0  0  0  0  0  0  0  0  0
   -2.5867   -0.9972   -0.7048 C   0  0  0  0  0  0  0  0  0  0  0  0
   -3.5863   -0.0399   -0.4914 C   0  0  0  0  0  0  0  0  0  0  0  0
   -3.4362    1.0966    0.3367 N   0  0  0  0  0  0  0  0  0  0  0  0
   -2.4283    1.5859    1.1484 C   0  0  0  0  0  0  0  0  0  0  0  0
   -0.9078    0.8382    1.4938 S   0  0  0  0  0  0  0  0  0  0  0  0
    0.0450    2.2647    2.1077 C   0  0  0  0  0  0  0  0  0  0  0  0
    1.5027    1.9100    2.3949 C   0  0  0  0  0  0  0  0  0  0  0  0
    2.0974    2.4913    3.2997 O   0  0  0  0  0  0  0  0  0  0  0  0
    2.0325    0.9779    1.5191 N   0  0  0  0  0  0  0  0  0  0  0  0
    3.3012    0.4177    1.5196 C   0  0  0  0  0  0  0  0  0  0  0  0
    4.5014    0.9681    2.5721 S   0  0  0  0  0  0  0  0  0  0  0  0
    5.6489   -0.1476    1.9857 C   0  0  0  0  0  0  0  0  0  0  0  0
    7.0167   -0.1374    2.5920 C   0  0  0  0  0  0  0  0  0  0  0  0
    5.1382   -0.9416    0.9665 C   0  0  0  0  0  0  0  0  0  0  0  0
    5.9576   -1.9796    0.2373 C   0  0  0  0  0  0  0  0  0  0  0  0
    5.9080   -3.3428    0.9110 C   0  0  0  0  0  0  0  0  0  0  0  0
    3.7348   -0.6237    0.7054 C   0  0  0  0  0  0  0  0  0  0  0  0
    2.8184   -1.2586   -0.2522 C   0  0  0  0  0  0  0  0  0  0  0  0
    1.7331   -0.7669   -0.5567 O   0  0  0  0  0  0  0  0  0  0  0  0
    3.2665   -2.4541   -0.7252 O   0  0  0  0  0  0  0  0  0  0  0  0
    2.4082   -3.1427   -1.6426 C   0  0  0  0  0  0  0  0  0  0  0  0
    2.7647   -2.7551   -3.0661 C   0  0  0  0  0  0  0  0  0  0  0  0
   -2.7935    2.7310    1.6807 N   0  0  0  0  0  0  0  0  0  0  0  0
   -4.0600    3.0111    1.2559 N   0  0  0  0  0  0  0  0  0  0  0  0
   -4.4469    2.0343    0.4658 C   0  0  0  0  0  0  0  0  0  0  0  0
   -5.8012    5.5638    0.0140 H   0  0  0  0  0  0  0  0  0  0  0  0
   -6.0491    5.8777   -1.7967 H   0  0  0  0  0  0  0  0  0  0  0  0
   -6.8639    3.6108   -2.1120 H   0  0  0  0  0  0  0  0  0  0  0  0
   -7.6929    2.4765   -0.0661 H   0  0  0  0  0  0  0  0  0  0  0  0
   -6.6168    3.4021    0.9755 H   0  0  0  0  0  0  0  0  0  0  0  0
   -6.0095   -1.4059   -2.4862 H   0  0  0  0  0  0  0  0  0  0  0  0
   -4.2350   -3.0859   -2.8382 H   0  0  0  0  0  0  0  0  0  0  0  0
   -2.0407   -2.8280   -1.7095 H   0  0  0  0  0  0  0  0  0  0  0  0
   -1.6011   -0.9475   -0.2576 H   0  0  0  0  0  0  0  0  0  0  0  0
   -0.4073    2.6127    3.0429 H   0  0  0  0  0  0  0  0  0  0  0  0
    0.0320    3.0815    1.3774 H   0  0  0  0  0  0  0  0  0  0  0  0
    1.3880    0.5835    0.8331 H   0  0  0  0  0  0  0  0  0  0  0  0
    6.9667   -0.0539    3.6827 H   0  0  0  0  0  0  0  0  0  0  0  0
    7.5938    0.7082    2.2075 H   0  0  0  0  0  0  0  0  0  0  0  0
    7.5667   -1.0545    2.3656 H   0  0  0  0  0  0  0  0  0  0  0  0
    5.6324   -2.0605   -0.8044 H   0  0  0  0  0  0  0  0  0  0  0  0
    7.0024   -1.6491    0.1792 H   0  0  0  0  0  0  0  0  0  0  0  0
    4.8827   -3.7182    0.9906 H   0  0  0  0  0  0  0  0  0  0  0  0
    6.3238   -3.2995    1.9227 H   0  0  0  0  0  0  0  0  0  0  0  0
    6.4918   -4.0699    0.3382 H   0  0  0  0  0  0  0  0  0  0  0  0
    1.3469   -2.9567   -1.4319 H   0  0  0  0  0  0  0  0  0  0  0  0
    2.5816   -4.2139   -1.4972 H   0  0  0  0  0  0  0  0  0  0  0  0
    2.5881   -1.6860   -3.2389 H   0  0  0  0  0  0  0  0  0  0  0  0
    3.8275   -2.9387   -3.2597 H   0  0  0  0  0  0  0  0  0  0  0  0
    2.1723   -3.3294   -3.7865 H   0  0  0  0  0  0  0  0  0  0  0  0
  1  2  2  0
  2  3  1  0
  3  4  1  0
  4  5  1  0
  5  6  2  0
  5  7  1  0
  7  8  2  0
  8  9  1  0
  9 10  2  0
 10 11  1  0
 11 12  2  0
 12 13  1  0
 13 14  1  0
 14 15  1  0
 15 16  1  0
 16 17  1  0
 17 18  2  0
 17 19  1  0
 19 20  1  0
 20 21  1  0
 21 22  1  0
 22 23  1  0
 22 24  2  0
 24 25  1  0
 25 26  1  0
 24 27  1  0
 27 28  1  0
 28 29  2  0
 28 30  1  0
 30 31  1  0
 31 32  1  0
 14 33  2  0
 33 34  1  0
 34 35  2  0
 35  4  1  0
 12  7  1  0
 35 13  1  0
 27 20  2  0
  1 36  1  0
  1 37  1  0
  2 38  1  0
  3 39  1  0
  3 40  1  0
  8 41  1  0
  9 42  1  0
 10 43  1  0
 11 44  1  0
 16 45  1  0
 16 46  1  0
 19 47  1  0
 23 48  1  0
 23 49  1  0
 23 50  1  0
 25 51  1  0
 25 52  1  0
 26 53  1  0
 26 54  1  0
 26 55  1  0
 31 56  1  0
 31 57  1  0
 32 58  1  0
 32 59  1  0
 32 60  1  0
M  END
$$$$
