
     RDKit          3D

 68 70  0  0  0  0  0  0  0  0999 V2000
   -5.2940    2.7389    3.1416 C   0  0  0  0  0  0  0  0  0  0  0  0
   -4.9245    2.5466    1.7825 O   0  0  0  0  0  0  0  0  0  0  0  0
   -4.0274    1.5486    1.5214 C   0  0  0  0  0  0  0  0  0  0  0  0
   -3.4466    0.6995    2.4606 C   0  0  0  0  0  0  0  0  0  0  0  0
   -2.5405   -0.2870    2.0528 C   0  0  0  0  0  0  0  0  0  0  0  0
   -2.2007   -0.4509    0.6992 C   0  0  0  0  0  0  0  0  0  0  0  0
   -1.2126   -1.5495    0.3028 C   0  0  0  0  0  0  0  0  0  0  0  0
   -1.4963   -2.3116   -1.0268 C   0  0  0  0  0  0  0  0  0  0  0  0
   -0.5886   -2.7332   -1.7449 O   0  0  0  0  0  0  0  0  0  0  0  0
   -2.8323   -2.5986   -1.2658 N   0  0  0  0  0  0  0  0  0  0  0  0
   -3.3458   -3.2601   -2.4748 C   0  0  0  0  0  0  0  0  0  0  0  0
   -2.7657   -4.6755   -2.6277 C   0  0  0  0  0  0  0  0  0  0  0  0
   -3.0381   -2.4218   -3.7249 C   0  0  0  0  0  0  0  0  0  0  0  0
   -4.8746   -3.3835   -2.3326 C   0  0  0  0  0  0  0  0  0  0  0  0
    0.2014   -1.1333    0.4099 N   0  0  0  0  0  0  0  0  0  0  0  0
    1.0744   -2.0170    1.1831 C   0  0  0  0  0  0  0  0  0  0  0  0
    0.8821   -1.7714    2.6370 C   0  0  0  0  0  0  0  0  0  0  0  0
    1.3003   -0.7780    3.4988 C   0  0  0  0  0  0  0  0  0  0  0  0
    0.7989   -1.1197    4.7780 C   0  0  0  0  0  0  0  0  0  0  0  0
    0.1085   -2.2972    4.6173 C   0  0  0  0  0  0  0  0  0  0  0  0
    0.1477   -2.6979    3.3205 O   0  0  0  0  0  0  0  0  0  0  0  0
    0.6751   -0.1320   -0.4289 C   0  0  0  0  0  0  0  0  0  0  0  0
   -0.0294    0.4215   -1.2732 O   0  0  0  0  0  0  0  0  0  0  0  0
    2.1285    0.2771   -0.2714 C   0  0  0  0  0  0  0  0  0  0  0  0
    2.4461    1.5370   -1.0721 C   0  0  0  0  0  0  0  0  0  0  0  0
    3.8598    2.0187   -0.8189 C   0  0  0  0  0  0  0  0  0  0  0  0
    4.6126    1.4591   -0.0280 O   0  0  0  0  0  0  0  0  0  0  0  0
    4.1615    3.1334   -1.5673 N   0  0  0  0  0  0  0  0  0  0  0  0
    5.3662    3.8000   -1.5523 C   0  0  0  0  0  0  0  0  0  0  0  0
    6.5363    3.5257   -0.8114 C   0  0  0  0  0  0  0  0  0  0  0  0
    7.4209    4.5055   -1.1868 C   0  0  0  0  0  0  0  0  0  0  0  0
    8.8091    4.8347   -0.8225 C   0  0  0  0  0  0  0  0  0  0  0  0
    6.8228    5.3194   -2.0954 O   0  0  0  0  0  0  0  0  0  0  0  0
    5.5330    4.8784   -2.3264 N   0  0  0  0  0  0  0  0  0  0  0  0
   -2.7811    0.4214   -0.2321 C   0  0  0  0  0  0  0  0  0  0  0  0
   -3.6865    1.4051    0.1763 C   0  0  0  0  0  0  0  0  0  0  0  0
   -4.4280    3.0175    3.7508 H   0  0  0  0  0  0  0  0  0  0  0  0
   -5.7924    1.8509    3.5441 H   0  0  0  0  0  0  0  0  0  0  0  0
   -6.0079    3.5673    3.1802 H   0  0  0  0  0  0  0  0  0  0  0  0
   -3.6708    0.7776    3.5190 H   0  0  0  0  0  0  0  0  0  0  0  0
   -2.0973   -0.9314    2.8101 H   0  0  0  0  0  0  0  0  0  0  0  0
   -1.3639   -2.3439    1.0497 H   0  0  0  0  0  0  0  0  0  0  0  0
   -3.5108   -2.1048   -0.6976 H   0  0  0  0  0  0  0  0  0  0  0  0
   -1.6884   -4.6626   -2.8199 H   0  0  0  0  0  0  0  0  0  0  0  0
   -2.9294   -5.2671   -1.7196 H   0  0  0  0  0  0  0  0  0  0  0  0
   -3.2348   -5.2062   -3.4644 H   0  0  0  0  0  0  0  0  0  0  0  0
   -3.4265   -1.4023   -3.6201 H   0  0  0  0  0  0  0  0  0  0  0  0
   -3.4905   -2.8643   -4.6194 H   0  0  0  0  0  0  0  0  0  0  0  0
   -1.9618   -2.3423   -3.9076 H   0  0  0  0  0  0  0  0  0  0  0  0
   -5.3425   -2.3974   -2.2275 H   0  0  0  0  0  0  0  0  0  0  0  0
   -5.3206   -3.8747   -3.2047 H   0  0  0  0  0  0  0  0  0  0  0  0
   -5.1420   -3.9664   -1.4434 H   0  0  0  0  0  0  0  0  0  0  0  0
    0.8378   -3.0552    0.9217 H   0  0  0  0  0  0  0  0  0  0  0  0
    2.1271   -1.8742    0.9323 H   0  0  0  0  0  0  0  0  0  0  0  0
    1.8964    0.0853    3.2366 H   0  0  0  0  0  0  0  0  0  0  0  0
    0.9294   -0.5773    5.7041 H   0  0  0  0  0  0  0  0  0  0  0  0
   -0.4374   -2.9436    5.2904 H   0  0  0  0  0  0  0  0  0  0  0  0
    2.3332    0.4570    0.7891 H   0  0  0  0  0  0  0  0  0  0  0  0
    2.7667   -0.5399   -0.6256 H   0  0  0  0  0  0  0  0  0  0  0  0
    1.7560    2.3438   -0.7972 H   0  0  0  0  0  0  0  0  0  0  0  0
    2.3299    1.3411   -2.1448 H   0  0  0  0  0  0  0  0  0  0  0  0
    3.4771    3.5336   -2.1952 H   0  0  0  0  0  0  0  0  0  0  0  0
    6.7150    2.7299   -0.1043 H   0  0  0  0  0  0  0  0  0  0  0  0
    8.8546    5.8106   -0.3297 H   0  0  0  0  0  0  0  0  0  0  0  0
    9.2233    4.0877   -0.1382 H   0  0  0  0  0  0  0  0  0  0  0  0
    9.4435    4.8680   -1.7136 H   0  0  0  0  0  0  0  0  0  0  0  0
   -2.5247    0.3576   -1.2889 H   0  0  0  0  0  0  0  0  0  0  0  0
   -4.1208    2.0733   -0.5638 H   0  0  0  0  0  0  0  0  0  0  0  0
  1  2  1  0
  2  3  1  0
  3  4  2  0
  4  5  1  0
  5  6  2  0
  6  7  1  0
  7  8  1  0
  8  9  2  0
  8 10  1  0
 10 11  1  0
 11 12  1  0
 11 13  1  0
 11 14  1  0
  7 15  1  0
 15 16  1  0
 16 17  1  0
 17 18  2  0
 18 19  1  0
 19 20  2  0
 20 21  1  0
 15 22  1  0
 22 23  2  0
 22 24  1  0
 24 25  1  0
 25 26  1  0
 26 27  2  0
 26 28  1  0
 28 29  1  0
 29 30  1  0
 30 31  2  0
 31 32  1  0
 31 33  1  0
 33 34  1  0
  6 35  1  0
 35 36  2  0
 36  3  1  0
 21 17  1  0
 34 29  2  0
  1 37  1  0
  1 38  1  0
  1 39  1  0
  4 40  1  0
  5 41  1  0
  7 42  1  0
 10 43  1  0
 12 44  1  0
 12 45  1  0
 12 46  1  0
 13 47  1  0
 13 48  1  0
 13 49  1  0
 14 50  1  0
 14 51  1  0
 14 52  1  0
 16 53  1  0
 16 54  1  0
 18 55  1  0
 19 56  1  0
 20 57  1  0
 24 58  1  0
 24 59  1  0
 25 60  1  0
 25 61  1  0
 28 62  1  0
 30 63  1  0
 32 64  1  0
 32 65  1  0
 32 66  1  0
 35 67  1  0
 36 68  1  0
M  END
$$$$
