
     RDKit          3D

 37 38  0  0  0  0  0  0  0  0999 V2000
   -5.1092    2.5308   -0.3767 C   0  0  0  0  0  0  0  0  0  0  0  0
   -4.6230    1.3901    0.3151 O   0  0  0  0  0  0  0  0  0  0  0  0
   -3.4197    0.8632   -0.0834 C   0  0  0  0  0  0  0  0  0  0  0  0
   -2.6352    1.3815   -1.1200 C   0  0  0  0  0  0  0  0  0  0  0  0
   -1.4188    0.7802   -1.4558 C   0  0  0  0  0  0  0  0  0  0  0  0
   -0.9753   -0.3418   -0.7500 C   0  0  0  0  0  0  0  0  0  0  0  0
    0.3129   -1.0144   -1.0720 C   0  0  0  0  0  0  0  0  0  0  0  0
    0.4514   -2.2123   -0.8541 O   0  0  0  0  0  0  0  0  0  0  0  0
    1.3130   -0.2094   -1.5749 N   0  0  0  0  0  0  0  0  0  0  0  0
    2.6462   -0.7218   -1.7978 C   0  0  0  0  0  0  0  0  0  0  0  0
    3.5424   -0.4102   -0.6255 C   0  0  0  0  0  0  0  0  0  0  0  0
    4.3914    0.7039   -0.6464 C   0  0  0  0  0  0  0  0  0  0  0  0
    5.1999    0.9968    0.4550 C   0  0  0  0  0  0  0  0  0  0  0  0
    5.1644    0.1848    1.5925 C   0  0  0  0  0  0  0  0  0  0  0  0
    6.1906    0.6116    2.9155 Cl  0  0  0  0  0  0  0  0  0  0  0  0
    4.3147   -0.9251    1.6278 C   0  0  0  0  0  0  0  0  0  0  0  0
    4.2110   -1.9690    3.0005 Cl  0  0  0  0  0  0  0  0  0  0  0  0
    3.5079   -1.2176    0.5232 C   0  0  0  0  0  0  0  0  0  0  0  0
   -1.7637   -0.8766    0.2770 C   0  0  0  0  0  0  0  0  0  0  0  0
   -2.9818   -0.2796    0.6183 C   0  0  0  0  0  0  0  0  0  0  0  0
   -3.8114   -0.7285    1.6164 O   0  0  0  0  0  0  0  0  0  0  0  0
   -3.4354   -1.9146    2.3028 C   0  0  0  0  0  0  0  0  0  0  0  0
   -5.2856    2.3063   -1.4338 H   0  0  0  0  0  0  0  0  0  0  0  0
   -4.4308    3.3823   -0.2601 H   0  0  0  0  0  0  0  0  0  0  0  0
   -6.0695    2.8082    0.0685 H   0  0  0  0  0  0  0  0  0  0  0  0
   -2.9481    2.2488   -1.6921 H   0  0  0  0  0  0  0  0  0  0  0  0
   -0.8469    1.1837   -2.2866 H   0  0  0  0  0  0  0  0  0  0  0  0
    1.2112    0.7933   -1.5093 H   0  0  0  0  0  0  0  0  0  0  0  0
    3.0285   -0.2450   -2.7072 H   0  0  0  0  0  0  0  0  0  0  0  0
    2.6238   -1.8017   -1.9830 H   0  0  0  0  0  0  0  0  0  0  0  0
    4.4322    1.3512   -1.5204 H   0  0  0  0  0  0  0  0  0  0  0  0
    5.8568    1.8631    0.4211 H   0  0  0  0  0  0  0  0  0  0  0  0
    2.8398   -2.0784    0.5538 H   0  0  0  0  0  0  0  0  0  0  0  0
   -1.3990   -1.7572    0.7975 H   0  0  0  0  0  0  0  0  0  0  0  0
   -2.4991   -1.7718    2.8522 H   0  0  0  0  0  0  0  0  0  0  0  0
   -4.2178   -2.1398    3.0339 H   0  0  0  0  0  0  0  0  0  0  0  0
   -3.3677   -2.7650    1.6163 H   0  0  0  0  0  0  0  0  0  0  0  0
  1  2  1  0
  2  3  1  0
  3  4  2  0
  4  5  1  0
  5  6  2  0
  6  7  1  0
  7  8  2  0
  7  9  1  0
  9 10  1  0
 10 11  1  0
 11 12  2  0
 12 13  1  0
 13 14  2  0
 14 15  1  0
 14 16  1  0
 16 17  1  0
 16 18  2  0
  6 19  1  0
 19 20  2  0
 20 21  1  0
 21 22  1  0
 20  3  1  0
 18 11  1  0
  1 23  1  0
  1 24  1  0
  1 25  1  0
  4 26  1  0
  5 27  1  0
  9 28  1  0
 10 29  1  0
 10 30  1  0
 12 31  1  0
 13 32  1  0
 18 33  1  0
 19 34  1  0
 22 35  1  0
 22 36  1  0
 22 37  1  0
M  END
$$$$
