
     RDKit          3D

 40 42  0  0  0  0  0  0  0  0999 V2000
   -6.3732    1.0466   -0.7297 C   0  0  0  0  0  0  0  0  0  0  0  0
   -5.2514    0.3268   -0.8668 C   0  0  0  0  0  0  0  0  0  0  0  0
   -4.5385   -0.3597    0.2619 C   0  0  0  0  0  0  0  0  0  0  0  0
   -3.1357    0.0397    0.3423 N   0  0  0  0  0  0  0  0  0  0  0  0
   -2.0976   -0.6720   -0.2075 C   0  0  0  0  0  0  0  0  0  0  0  0
   -0.9226   -0.0245    0.1045 C   0  0  0  0  0  0  0  0  0  0  0  0
    0.3538   -0.5156   -0.3080 C   0  0  0  0  0  0  0  0  0  0  0  0
    1.4898   -0.4104    0.4017 C   0  0  0  0  0  0  0  0  0  0  0  0
    2.7891   -0.9291   -0.0392 C   0  0  0  0  0  0  0  0  0  0  0  0
    2.9248   -2.1651   -0.6696 C   0  0  0  0  0  0  0  0  0  0  0  0
    4.1871   -2.6166   -1.0386 C   0  0  0  0  0  0  0  0  0  0  0  0
    5.2858   -1.8700   -0.7893 N   0  0  0  0  0  4  0  0  0  0  0  0
    6.6131   -2.3732   -1.1820 C   0  0  0  0  0  0  0  0  0  0  0  0
    5.1819   -0.6794   -0.1584 C   0  0  0  0  0  0  0  0  0  0  0  0
    3.9398   -0.1902    0.2302 C   0  0  0  0  0  0  0  0  0  0  0  0
   -1.2596    1.1528    0.8431 C   0  0  0  0  0  0  0  0  0  0  0  0
   -0.5260    2.2297    1.3913 C   0  0  0  0  0  0  0  0  0  0  0  0
   -1.1892    3.2535    2.0767 C   0  0  0  0  0  0  0  0  0  0  0  0
   -2.5712    3.2274    2.2176 C   0  0  0  0  0  0  0  0  0  0  0  0
   -3.3267    2.1862    1.6741 C   0  0  0  0  0  0  0  0  0  0  0  0
   -2.6532    1.1613    0.9879 C   0  0  0  0  0  0  0  0  0  0  0  0
   -6.8541    1.1866    0.2338 H   0  0  0  0  0  0  0  0  0  0  0  0
   -6.8373    1.5199   -1.5906 H   0  0  0  0  0  0  0  0  0  0  0  0
   -4.8142    0.2215   -1.8577 H   0  0  0  0  0  0  0  0  0  0  0  0
   -4.5626   -1.4445    0.1078 H   0  0  0  0  0  0  0  0  0  0  0  0
   -4.9980   -0.1569    1.2355 H   0  0  0  0  0  0  0  0  0  0  0  0
   -2.2859   -1.5839   -0.7594 H   0  0  0  0  0  0  0  0  0  0  0  0
    0.3658   -1.0284   -1.2675 H   0  0  0  0  0  0  0  0  0  0  0  0
    1.4791    0.0846    1.3708 H   0  0  0  0  0  0  0  0  0  0  0  0
    2.0565   -2.7911   -0.8662 H   0  0  0  0  0  0  0  0  0  0  0  0
    4.3282   -3.5764   -1.5279 H   0  0  0  0  0  0  0  0  0  0  0  0
    7.2659   -1.5255   -1.4055 H   0  0  0  0  0  0  0  0  0  0  0  0
    6.5105   -2.9954   -2.0748 H   0  0  0  0  0  0  0  0  0  0  0  0
    7.0034   -2.9554   -0.3437 H   0  0  0  0  0  0  0  0  0  0  0  0
    6.0975   -0.1269    0.0336 H   0  0  0  0  0  0  0  0  0  0  0  0
    3.8769    0.7722    0.7355 H   0  0  0  0  0  0  0  0  0  0  0  0
    0.5510    2.2819    1.2758 H   0  0  0  0  0  0  0  0  0  0  0  0
   -0.6205    4.0798    2.4957 H   0  0  0  0  0  0  0  0  0  0  0  0
   -3.0749    4.0326    2.7481 H   0  0  0  0  0  0  0  0  0  0  0  0
   -4.4076    2.1867    1.7753 H   0  0  0  0  0  0  0  0  0  0  0  0
  1  2  2  0
  2  3  1  0
  3  4  1  0
  4  5  1  0
  5  6  2  0
  6  7  1  0
  7  8  2  3
  8  9  1  0
  9 10  2  0
 10 11  1  0
 11 12  2  0
 12 13  1  0
 12 14  1  0
 14 15  2  0
  6 16  1  0
 16 17  2  0
 17 18  1  0
 18 19  2  0
 19 20  1  0
 20 21  2  0
 21  4  1  0
 15  9  1  0
 21 16  1  0
  1 22  1  0
  1 23  1  0
  2 24  1  0
  3 25  1  0
  3 26  1  0
  5 27  1  0
  7 28  1  0
  8 29  1  0
 10 30  1  0
 11 31  1  0
 13 32  1  0
 13 33  1  0
 13 34  1  0
 14 35  1  0
 15 36  1  0
 17 37  1  0
 18 38  1  0
 19 39  1  0
 20 40  1  0
M  CHG  1  12   1
M  END
$$$$
