
     RDKit          3D

 73 75  0  0  0  0  0  0  0  0999 V2000
   -0.0811   -0.7183   -4.0541 C   0  0  0  0  0  0  0  0  0  0  0  0
   -0.1935   -0.6093   -2.5375 C   0  0  0  0  0  0  0  0  0  0  0  0
   -1.5559   -0.0574   -2.0961 C   0  0  0  0  0  0  0  0  0  0  0  0
   -1.5535    0.2467   -0.2791 S   0  0  0  0  0  0  0  0  0  0  0  0
   -0.5497    1.6835   -0.1949 C   0  0  0  0  0  0  0  0  0  0  0  0
   -0.6363    2.5279   -1.1681 N   0  0  0  0  0  0  0  0  0  0  0  0
    0.1465    3.6841   -1.1311 C   0  0  0  0  0  0  0  0  0  0  0  0
    0.0383    4.6041   -2.1762 C   0  0  0  0  0  0  0  0  0  0  0  0
    0.8143    5.7697   -2.1871 C   0  0  0  0  0  0  0  0  0  0  0  0
    0.7688    6.7192   -3.1780 O   0  0  0  0  0  0  0  0  0  0  0  0
   -0.0235    6.4384   -4.3240 C   0  0  0  0  0  0  0  0  0  0  0  0
    1.7058    6.0258   -1.1239 C   0  0  0  0  0  0  0  0  0  0  0  0
    2.4281    7.1894   -1.2078 O   0  0  0  0  0  0  0  0  0  0  0  0
    3.2251    7.5538   -0.0898 C   0  0  0  0  0  0  0  0  0  0  0  0
    1.8163    5.1040   -0.0808 C   0  0  0  0  0  0  0  0  0  0  0  0
    1.0352    3.9425   -0.0968 C   0  0  0  0  0  0  0  0  0  0  0  0
    1.1359    2.9432    0.9788 C   0  0  0  0  0  0  0  0  0  0  0  0
    1.9716    3.1033    1.8661 O   0  0  0  0  0  0  0  0  0  0  0  0
    0.2769    1.8461    0.9053 N   0  0  0  0  0  0  0  0  0  0  0  0
    0.4067    0.8631    1.9905 C   0  0  0  0  0  0  0  0  0  0  0  0
    1.4875   -0.1800    1.6781 C   0  0  0  0  0  0  0  0  0  0  0  0
    1.6194   -1.1980    2.7826 C   0  0  0  0  0  0  0  0  0  0  0  0
    2.4167   -0.9238    3.8975 C   0  0  0  0  0  0  0  0  0  0  0  0
    2.5303   -1.8526    4.9342 C   0  0  0  0  0  0  0  0  0  0  0  0
    1.8466   -3.0706    4.8716 C   0  0  0  0  0  0  0  0  0  0  0  0
    1.8979   -4.0400    5.8430 O   0  0  0  0  0  0  0  0  0  0  0  0
    2.7478   -3.8093    6.9577 C   0  0  0  0  0  0  0  0  0  0  0  0
    1.0369   -3.3555    3.7536 C   0  0  0  0  0  0  0  0  0  0  0  0
    0.3962   -4.5703    3.7685 O   0  0  0  0  0  0  0  0  0  0  0  0
   -0.3693   -4.9302    2.6283 C   0  0  0  0  0  0  0  0  0  0  0  0
    0.9269   -2.4158    2.7201 C   0  0  0  0  0  0  0  0  0  0  0  0
   -2.6853   -1.0399   -2.4326 C   0  0  0  0  0  0  0  0  0  0  0  0
   -3.4560   -0.8405   -3.3693 O   0  0  0  0  0  0  0  0  0  0  0  0
   -2.7243   -2.1905   -1.6669 N   0  0  0  0  0  0  0  0  0  0  0  0
   -3.8102   -3.1450   -1.8067 C   0  0  0  0  0  0  0  0  0  0  0  0
   -3.7533   -3.9567   -3.1058 C   0  0  0  0  0  0  0  0  0  0  0  0
   -4.7146   -5.0156   -3.0971 O   0  0  0  0  0  0  0  0  0  0  0  0
   -4.2304   -6.2025   -2.4836 C   0  0  0  0  0  0  0  0  0  0  0  0
    0.9227   -1.0542   -4.3332 H   0  0  0  0  0  0  0  0  0  0  0  0
   -0.2593    0.2507   -4.5300 H   0  0  0  0  0  0  0  0  0  0  0  0
   -0.7981   -1.4391   -4.4590 H   0  0  0  0  0  0  0  0  0  0  0  0
   -0.0091   -1.5989   -2.1029 H   0  0  0  0  0  0  0  0  0  0  0  0
    0.6150    0.0467   -2.1943 H   0  0  0  0  0  0  0  0  0  0  0  0
   -1.7915    0.8773   -2.6147 H   0  0  0  0  0  0  0  0  0  0  0  0
   -0.6673    4.3815   -2.9700 H   0  0  0  0  0  0  0  0  0  0  0  0
   -1.0862    6.3956   -4.0653 H   0  0  0  0  0  0  0  0  0  0  0  0
    0.1142    7.2583   -5.0347 H   0  0  0  0  0  0  0  0  0  0  0  0
    0.3015    5.5162   -4.8150 H   0  0  0  0  0  0  0  0  0  0  0  0
    4.0421    6.8413    0.0591 H   0  0  0  0  0  0  0  0  0  0  0  0
    2.6167    7.6544    0.8145 H   0  0  0  0  0  0  0  0  0  0  0  0
    3.6707    8.5309   -0.3004 H   0  0  0  0  0  0  0  0  0  0  0  0
    2.5006    5.2586    0.7472 H   0  0  0  0  0  0  0  0  0  0  0  0
    0.6598    1.3900    2.9195 H   0  0  0  0  0  0  0  0  0  0  0  0
   -0.5564    0.3805    2.1854 H   0  0  0  0  0  0  0  0  0  0  0  0
    1.2685   -0.6914    0.7324 H   0  0  0  0  0  0  0  0  0  0  0  0
    2.4573    0.3100    1.5210 H   0  0  0  0  0  0  0  0  0  0  0  0
    2.9557    0.0197    3.9693 H   0  0  0  0  0  0  0  0  0  0  0  0
    3.1591   -1.5922    5.7791 H   0  0  0  0  0  0  0  0  0  0  0  0
    2.4184   -2.9366    7.5325 H   0  0  0  0  0  0  0  0  0  0  0  0
    3.7923   -3.7069    6.6437 H   0  0  0  0  0  0  0  0  0  0  0  0
    2.6812   -4.6820    7.6159 H   0  0  0  0  0  0  0  0  0  0  0  0
   -1.2224   -4.2563    2.4998 H   0  0  0  0  0  0  0  0  0  0  0  0
    0.2508   -4.9628    1.7266 H   0  0  0  0  0  0  0  0  0  0  0  0
   -0.7641   -5.9369    2.7939 H   0  0  0  0  0  0  0  0  0  0  0  0
    0.3055   -2.6121    1.8528 H   0  0  0  0  0  0  0  0  0  0  0  0
   -2.2893   -2.1142   -0.7538 H   0  0  0  0  0  0  0  0  0  0  0  0
   -4.7652   -2.6098   -1.7419 H   0  0  0  0  0  0  0  0  0  0  0  0
   -3.7627   -3.8074   -0.9364 H   0  0  0  0  0  0  0  0  0  0  0  0
   -2.7467   -4.3533   -3.2872 H   0  0  0  0  0  0  0  0  0  0  0  0
   -3.9976   -3.3127   -3.9565 H   0  0  0  0  0  0  0  0  0  0  0  0
   -3.9637   -6.0249   -1.4387 H   0  0  0  0  0  0  0  0  0  0  0  0
   -3.3666   -6.5912   -3.0316 H   0  0  0  0  0  0  0  0  0  0  0  0
   -5.0248   -6.9522   -2.5158 H   0  0  0  0  0  0  0  0  0  0  0  0
  1  2  1  0
  2  3  1  0
  3  4  1  0
  4  5  1  0
  5  6  2  0
  6  7  1  0
  7  8  2  0
  8  9  1  0
  9 10  1  0
 10 11  1  0
  9 12  2  0
 12 13  1  0
 13 14  1  0
 12 15  1  0
 15 16  2  0
 16 17  1  0
 17 18  2  0
 17 19  1  0
 19 20  1  0
 20 21  1  0
 21 22  1  0
 22 23  2  0
 23 24  1  0
 24 25  2  0
 25 26  1  0
 26 27  1  0
 25 28  1  0
 28 29  1  0
 29 30  1  0
 28 31  2  0
  3 32  1  0
 32 33  2  0
 32 34  1  0
 34 35  1  0
 35 36  1  0
 36 37  1  0
 37 38  1  0
 19  5  1  0
 31 22  1  0
 16  7  1  0
  1 39  1  0
  1 40  1  0
  1 41  1  0
  2 42  1  0
  2 43  1  0
  3 44  1  0
  8 45  1  0
 11 46  1  0
 11 47  1  0
 11 48  1  0
 14 49  1  0
 14 50  1  0
 14 51  1  0
 15 52  1  0
 20 53  1  0
 20 54  1  0
 21 55  1  0
 21 56  1  0
 23 57  1  0
 24 58  1  0
 27 59  1  0
 27 60  1  0
 27 61  1  0
 30 62  1  0
 30 63  1  0
 30 64  1  0
 31 65  1  0
 34 66  1  0
 35 67  1  0
 35 68  1  0
 36 69  1  0
 36 70  1  0
 38 71  1  0
 38 72  1  0
 38 73  1  0
M  END
$$$$
