
     RDKit          3D

 68 71  0  0  0  0  0  0  0  0999 V2000
   -1.8309   -5.0930   -2.5458 C   0  0  0  0  0  0  0  0  0  0  0  0
   -1.7683   -3.7882   -1.8095 C   0  0  0  0  0  0  0  0  0  0  0  0
   -1.9536   -3.7404   -0.4255 C   0  0  0  0  0  0  0  0  0  0  0  0
   -1.9185   -2.5187    0.2524 C   0  0  0  0  0  0  0  0  0  0  0  0
   -1.7157   -1.3116   -0.4377 C   0  0  0  0  0  0  0  0  0  0  0  0
   -1.6922    0.0024    0.3441 C   0  0  0  0  0  0  0  0  0  0  0  0
   -2.3741    1.2364   -0.3149 C   0  0  0  0  0  0  0  0  0  0  0  0
   -2.0102    2.3925   -0.0882 O   0  0  0  0  0  0  0  0  0  0  0  0
   -3.5063    0.9641   -1.0631 N   0  0  0  0  0  0  0  0  0  0  0  0
   -4.3242    2.0193   -1.6358 C   0  0  0  0  0  0  0  0  0  0  0  0
   -5.3412    2.5519   -0.6293 C   0  0  0  0  0  0  0  0  0  0  0  0
   -6.4729    1.5287   -0.6564 C   0  0  0  0  0  0  0  0  0  0  0  0
   -6.4285    0.8881   -2.0438 C   0  0  0  0  0  0  0  0  0  0  0  0
   -5.2158    1.4878   -2.7540 C   0  0  0  0  0  0  0  0  0  0  0  0
   -0.3634    0.3379    0.8969 N   0  0  0  0  0  0  0  0  0  0  0  0
   -0.3170    0.6289    2.3300 C   0  0  0  0  0  0  0  0  0  0  0  0
   -0.3489   -0.6394    3.1053 C   0  0  0  0  0  0  0  0  0  0  0  0
    0.5841   -1.6242    3.3592 C   0  0  0  0  0  0  0  0  0  0  0  0
   -0.0583   -2.5823    4.1799 C   0  0  0  0  0  0  0  0  0  0  0  0
   -1.3388   -2.1227    4.3762 C   0  0  0  0  0  0  0  0  0  0  0  0
   -1.5270   -0.9470    3.7239 O   0  0  0  0  0  0  0  0  0  0  0  0
    0.6756    0.6287    0.0221 C   0  0  0  0  0  0  0  0  0  0  0  0
    0.5362    0.6377   -1.2014 O   0  0  0  0  0  0  0  0  0  0  0  0
    2.0302    0.9451    0.6303 C   0  0  0  0  0  0  0  0  0  0  0  0
    3.1203    1.0033   -0.4360 C   0  0  0  0  0  0  0  0  0  0  0  0
    4.4907    1.2178    0.1727 C   0  0  0  0  0  0  0  0  0  0  0  0
    4.6686    1.2852    1.3848 O   0  0  0  0  0  0  0  0  0  0  0  0
    5.4675    1.3129   -0.7922 N   0  0  0  0  0  0  0  0  0  0  0  0
    6.8092    1.5055   -0.5517 C   0  0  0  0  0  0  0  0  0  0  0  0
    7.4913    1.6507    0.6759 C   0  0  0  0  0  0  0  0  0  0  0  0
    8.8074    1.8144    0.3229 C   0  0  0  0  0  0  0  0  0  0  0  0
   10.0580    2.0160    1.0732 C   0  0  0  0  0  0  0  0  0  0  0  0
    8.9129    1.7702   -1.0308 O   0  0  0  0  0  0  0  0  0  0  0  0
    7.6599    1.5768   -1.5818 N   0  0  0  0  0  0  0  0  0  0  0  0
   -1.5332   -1.3717   -1.8270 C   0  0  0  0  0  0  0  0  0  0  0  0
   -1.5671   -2.5931   -2.5059 C   0  0  0  0  0  0  0  0  0  0  0  0
   -1.5632   -5.9282   -1.8900 H   0  0  0  0  0  0  0  0  0  0  0  0
   -2.8425   -5.2578   -2.9297 H   0  0  0  0  0  0  0  0  0  0  0  0
   -1.1262   -5.0997   -3.3841 H   0  0  0  0  0  0  0  0  0  0  0  0
   -2.1199   -4.6552    0.1388 H   0  0  0  0  0  0  0  0  0  0  0  0
   -2.0534   -2.5182    1.3320 H   0  0  0  0  0  0  0  0  0  0  0  0
   -2.3544   -0.1759    1.2055 H   0  0  0  0  0  0  0  0  0  0  0  0
   -3.8358    0.0068   -1.1160 H   0  0  0  0  0  0  0  0  0  0  0  0
   -3.6633    2.8159   -1.9935 H   0  0  0  0  0  0  0  0  0  0  0  0
   -4.9347    2.6823    0.3784 H   0  0  0  0  0  0  0  0  0  0  0  0
   -5.7229    3.5229   -0.9684 H   0  0  0  0  0  0  0  0  0  0  0  0
   -6.3091    0.7621    0.1100 H   0  0  0  0  0  0  0  0  0  0  0  0
   -7.4416    1.9950   -0.4513 H   0  0  0  0  0  0  0  0  0  0  0  0
   -6.3224   -0.1987   -1.9501 H   0  0  0  0  0  0  0  0  0  0  0  0
   -7.3477    1.0789   -2.6073 H   0  0  0  0  0  0  0  0  0  0  0  0
   -5.5473    2.3202   -3.3871 H   0  0  0  0  0  0  0  0  0  0  0  0
   -4.7156    0.7562   -3.3967 H   0  0  0  0  0  0  0  0  0  0  0  0
    0.5764    1.1930    2.6049 H   0  0  0  0  0  0  0  0  0  0  0  0
   -1.1707    1.2693    2.5817 H   0  0  0  0  0  0  0  0  0  0  0  0
    1.6024   -1.6479    2.9961 H   0  0  0  0  0  0  0  0  0  0  0  0
    0.3609   -3.4944    4.5809 H   0  0  0  0  0  0  0  0  0  0  0  0
   -2.1932   -2.4962    4.9237 H   0  0  0  0  0  0  0  0  0  0  0  0
    1.9730    1.9159    1.1350 H   0  0  0  0  0  0  0  0  0  0  0  0
    2.2789    0.1734    1.3663 H   0  0  0  0  0  0  0  0  0  0  0  0
    3.1424    0.0657   -1.0049 H   0  0  0  0  0  0  0  0  0  0  0  0
    2.9176    1.8216   -1.1378 H   0  0  0  0  0  0  0  0  0  0  0  0
    5.2310    1.2430   -1.7731 H   0  0  0  0  0  0  0  0  0  0  0  0
    7.0871    1.6393    1.6769 H   0  0  0  0  0  0  0  0  0  0  0  0
   10.7489    1.1861    0.8966 H   0  0  0  0  0  0  0  0  0  0  0  0
    9.8658    2.0760    2.1488 H   0  0  0  0  0  0  0  0  0  0  0  0
   10.5469    2.9444    0.7630 H   0  0  0  0  0  0  0  0  0  0  0  0
   -1.3506   -0.4637   -2.4007 H   0  0  0  0  0  0  0  0  0  0  0  0
   -1.4228   -2.6020   -3.5842 H   0  0  0  0  0  0  0  0  0  0  0  0
  1  2  1  0
  2  3  2  0
  3  4  1  0
  4  5  2  0
  5  6  1  0
  6  7  1  0
  7  8  2  0
  7  9  1  0
  9 10  1  0
 10 11  1  0
 11 12  1  0
 12 13  1  0
 13 14  1  0
  6 15  1  0
 15 16  1  0
 16 17  1  0
 17 18  2  0
 18 19  1  0
 19 20  2  0
 20 21  1  0
 15 22  1  0
 22 23  2  0
 22 24  1  0
 24 25  1  0
 25 26  1  0
 26 27  2  0
 26 28  1  0
 28 29  1  0
 29 30  1  0
 30 31  2  0
 31 32  1  0
 31 33  1  0
 33 34  1  0
  5 35  1  0
 35 36  2  0
 36  2  1  0
 14 10  1  0
 21 17  1  0
 34 29  2  0
  1 37  1  0
  1 38  1  0
  1 39  1  0
  3 40  1  0
  4 41  1  0
  6 42  1  0
  9 43  1  0
 10 44  1  0
 11 45  1  0
 11 46  1  0
 12 47  1  0
 12 48  1  0
 13 49  1  0
 13 50  1  0
 14 51  1  0
 14 52  1  0
 16 53  1  0
 16 54  1  0
 18 55  1  0
 19 56  1  0
 20 57  1  0
 24 58  1  0
 24 59  1  0
 25 60  1  0
 25 61  1  0
 28 62  1  0
 30 63  1  0
 32 64  1  0
 32 65  1  0
 32 66  1  0
 35 67  1  0
 36 68  1  0
M  END
$$$$
