
     RDKit          3D

 42 44  0  0  0  0  0  0  0  0999 V2000
   -4.2171   -2.0889   -0.6276 C   0  0  0  0  0  0  0  0  0  0  0  0
   -4.0947   -0.9245    0.3564 C   0  0  0  0  0  0  0  0  0  0  0  0
   -4.1238   -1.4107    1.8062 C   0  0  0  0  0  0  0  0  0  0  0  0
   -2.9072   -0.1109    0.0839 N   0  0  0  0  0  0  0  0  0  0  0  0
   -1.6133   -0.5737    0.1657 C   0  0  0  0  0  0  0  0  0  0  0  0
   -0.7607    0.4578   -0.1577 C   0  0  0  0  0  0  0  0  0  0  0  0
    0.6683    0.3938   -0.2004 C   0  0  0  0  0  0  0  0  0  0  0  0
    1.4236   -0.6621    0.1492 C   0  0  0  0  0  0  0  0  0  0  0  0
    2.8887   -0.6667    0.0863 C   0  0  0  0  0  0  0  0  0  0  0  0
    3.5839   -0.1711   -1.0157 C   0  0  0  0  0  0  0  0  0  0  0  0
    4.9731   -0.2236   -1.0350 C   0  0  0  0  0  0  0  0  0  0  0  0
    5.6558   -0.7624   -0.0005 N   0  0  0  0  0  4  0  0  0  0  0  0
    7.1278   -0.7975   -0.0319 C   0  0  0  0  0  0  0  0  0  0  0  0
    5.0026   -1.2550    1.0757 C   0  0  0  0  0  0  0  0  0  0  0  0
    3.6140   -1.2260    1.1362 C   0  0  0  0  0  0  0  0  0  0  0  0
   -1.5676    1.6011   -0.4502 C   0  0  0  0  0  0  0  0  0  0  0  0
   -1.2849    2.9316   -0.8360 C   0  0  0  0  0  0  0  0  0  0  0  0
   -2.3302    3.8346   -1.0514 C   0  0  0  0  0  0  0  0  0  0  0  0
   -3.6500    3.4336   -0.8887 C   0  0  0  0  0  0  0  0  0  0  0  0
   -3.9610    2.1254   -0.5076 C   0  0  0  0  0  0  0  0  0  0  0  0
   -2.9067    1.2201   -0.2916 C   0  0  0  0  0  0  0  0  0  0  0  0
   -5.1587   -2.6265   -0.4730 H   0  0  0  0  0  0  0  0  0  0  0  0
   -3.3986   -2.8075   -0.5112 H   0  0  0  0  0  0  0  0  0  0  0  0
   -4.2003   -1.7289   -1.6622 H   0  0  0  0  0  0  0  0  0  0  0  0
   -4.9685   -0.2814    0.2111 H   0  0  0  0  0  0  0  0  0  0  0  0
   -5.0626   -1.9331    2.0187 H   0  0  0  0  0  0  0  0  0  0  0  0
   -4.0416   -0.5684    2.5018 H   0  0  0  0  0  0  0  0  0  0  0  0
   -3.3010   -2.1014    2.0204 H   0  0  0  0  0  0  0  0  0  0  0  0
   -1.4199   -1.6006    0.4441 H   0  0  0  0  0  0  0  0  0  0  0  0
    1.1634    1.3018   -0.5378 H   0  0  0  0  0  0  0  0  0  0  0  0
    0.9599   -1.5720    0.5238 H   0  0  0  0  0  0  0  0  0  0  0  0
    3.0528    0.2489   -1.8681 H   0  0  0  0  0  0  0  0  0  0  0  0
    5.5450    0.1601   -1.8752 H   0  0  0  0  0  0  0  0  0  0  0  0
    7.4874    0.0689    0.5281 H   0  0  0  0  0  0  0  0  0  0  0  0
    7.4717   -0.7586   -1.0684 H   0  0  0  0  0  0  0  0  0  0  0  0
    7.4676   -1.7294    0.4273 H   0  0  0  0  0  0  0  0  0  0  0  0
    5.6002   -1.6695    1.8826 H   0  0  0  0  0  0  0  0  0  0  0  0
    3.1054   -1.6293    2.0101 H   0  0  0  0  0  0  0  0  0  0  0  0
   -0.2599    3.2635   -0.9664 H   0  0  0  0  0  0  0  0  0  0  0  0
   -2.1089    4.8570   -1.3480 H   0  0  0  0  0  0  0  0  0  0  0  0
   -4.4543    4.1459   -1.0597 H   0  0  0  0  0  0  0  0  0  0  0  0
   -4.9997    1.8352   -0.3866 H   0  0  0  0  0  0  0  0  0  0  0  0
  1  2  1  0
  2  3  1  0
  2  4  1  0
  4  5  1  0
  5  6  2  0
  6  7  1  0
  7  8  2  3
  8  9  1  0
  9 10  2  0
 10 11  1  0
 11 12  2  0
 12 13  1  0
 12 14  1  0
 14 15  2  0
  6 16  1  0
 16 17  2  0
 17 18  1  0
 18 19  2  0
 19 20  1  0
 20 21  2  0
 21  4  1  0
 15  9  1  0
 21 16  1  0
  1 22  1  0
  1 23  1  0
  1 24  1  0
  2 25  1  0
  3 26  1  0
  3 27  1  0
  3 28  1  0
  5 29  1  0
  7 30  1  0
  8 31  1  0
 10 32  1  0
 11 33  1  0
 13 34  1  0
 13 35  1  0
 13 36  1  0
 14 37  1  0
 15 38  1  0
 17 39  1  0
 18 40  1  0
 19 41  1  0
 20 42  1  0
M  CHG  1  12   1
M  END
$$$$
