
     RDKit          3D

 52 55  0  0  0  0  0  0  0  0999 V2000
    7.5762   -0.4335   -0.7243 C   0  0  0  0  0  0  0  0  0  0  0  0
    6.1743   -0.1410   -0.3443 C   0  0  0  0  0  0  0  0  0  0  0  0
    5.3430   -0.8565    0.5418 C   0  0  0  0  0  0  0  0  0  0  0  0
    4.1233   -0.2036    0.5268 C   0  0  0  0  0  0  0  0  0  0  0  0
    2.9299   -0.5569    1.2514 C   0  0  0  0  0  0  0  0  0  0  0  0
    2.9482   -1.0081    2.3914 O   0  0  0  0  0  0  0  0  0  0  0  0
    1.7602   -0.4009    0.5447 N   0  0  0  0  0  0  0  0  0  0  0  0
    0.4764   -0.7359    1.1289 C   0  0  0  0  0  0  0  0  0  0  0  0
    0.0057    0.3906    2.0813 C   0  0  0  0  0  0  0  0  0  0  0  0
   -1.5232    0.3759    2.3739 C   0  0  0  0  0  0  0  0  0  0  0  0
   -1.9210   -0.9166    3.1158 C   0  0  0  0  0  0  0  0  0  0  0  0
   -1.8657    1.5702    3.2850 C   0  0  0  0  0  0  0  0  0  0  0  0
   -2.3301    0.5139    1.0442 C   0  0  0  0  0  0  0  0  0  0  0  0
   -1.7625   -0.3590   -0.0268 C   0  0  0  0  0  0  0  0  0  0  0  0
   -0.5053   -0.9358    0.0241 C   0  0  0  0  0  0  0  0  0  0  0  0
   -0.4598   -1.7808   -1.0901 C   0  0  0  0  0  0  0  0  0  0  0  0
   -1.5663   -1.7104   -1.8239 N   0  0  0  0  0  0  0  0  0  0  0  0
   -2.3634   -0.7926   -1.2022 N   0  0  0  0  0  0  0  0  0  0  0  0
   -3.6055   -0.4355   -1.8118 C   0  0  0  0  0  0  0  0  0  0  0  0
   -4.0745   -1.2048   -2.8960 C   0  0  0  0  0  0  0  0  0  0  0  0
   -5.2835   -0.8975   -3.5291 C   0  0  0  0  0  0  0  0  0  0  0  0
   -6.0348    0.1885   -3.0939 C   0  0  0  0  0  0  0  0  0  0  0  0
   -5.5653    0.9580   -2.0374 C   0  0  0  0  0  0  0  0  0  0  0  0
   -6.2781    2.0168   -1.6295 F   0  0  0  0  0  0  0  0  0  0  0  0
   -4.3628    0.6627   -1.3957 C   0  0  0  0  0  0  0  0  0  0  0  0
    4.3265    0.8915   -0.2754 N   0  0  0  0  0  0  0  0  0  0  0  0
    3.4380    2.0099   -0.4950 C   0  0  0  0  0  0  0  0  0  0  0  0
    5.5375    0.9126   -0.8652 N   0  0  0  0  0  0  0  0  0  0  0  0
    8.0053   -1.2078   -0.0799 H   0  0  0  0  0  0  0  0  0  0  0  0
    8.1981    0.4630   -0.6339 H   0  0  0  0  0  0  0  0  0  0  0  0
    7.6249   -0.7869   -1.7594 H   0  0  0  0  0  0  0  0  0  0  0  0
    5.5822   -1.7487    1.1051 H   0  0  0  0  0  0  0  0  0  0  0  0
    1.8032   -0.1925   -0.4426 H   0  0  0  0  0  0  0  0  0  0  0  0
    0.5779   -1.6722    1.6915 H   0  0  0  0  0  0  0  0  0  0  0  0
    0.2629    1.3649    1.6391 H   0  0  0  0  0  0  0  0  0  0  0  0
    0.5735    0.3327    3.0193 H   0  0  0  0  0  0  0  0  0  0  0  0
   -1.7566   -1.8136    2.5109 H   0  0  0  0  0  0  0  0  0  0  0  0
   -1.3430   -1.0308    4.0400 H   0  0  0  0  0  0  0  0  0  0  0  0
   -2.9823   -0.9005    3.3893 H   0  0  0  0  0  0  0  0  0  0  0  0
   -2.9391    1.6057    3.5029 H   0  0  0  0  0  0  0  0  0  0  0  0
   -1.5900    2.5207    2.8145 H   0  0  0  0  0  0  0  0  0  0  0  0
   -1.3318    1.5053    4.2398 H   0  0  0  0  0  0  0  0  0  0  0  0
   -3.3802    0.2667    1.2360 H   0  0  0  0  0  0  0  0  0  0  0  0
   -2.2764    1.5543    0.6995 H   0  0  0  0  0  0  0  0  0  0  0  0
    0.3296   -2.4559   -1.3971 H   0  0  0  0  0  0  0  0  0  0  0  0
   -3.5075   -2.0620   -3.2587 H   0  0  0  0  0  0  0  0  0  0  0  0
   -5.6307   -1.5062   -4.3602 H   0  0  0  0  0  0  0  0  0  0  0  0
   -6.9736    0.4452   -3.5738 H   0  0  0  0  0  0  0  0  0  0  0  0
   -4.0567    1.3378   -0.6105 H   0  0  0  0  0  0  0  0  0  0  0  0
    2.8504    2.1893    0.4084 H   0  0  0  0  0  0  0  0  0  0  0  0
    4.0321    2.9007   -0.7173 H   0  0  0  0  0  0  0  0  0  0  0  0
    2.7902    1.7696   -1.3411 H   0  0  0  0  0  0  0  0  0  0  0  0
  1  2  1  0
  2  3  1  0
  3  4  2  0
  4  5  1  0
  5  6  2  0
  5  7  1  0
  7  8  1  0
  8  9  1  0
  9 10  1  0
 10 11  1  0
 10 12  1  0
 10 13  1  0
 13 14  1  0
 14 15  2  0
 15 16  1  0
 16 17  2  0
 17 18  1  0
 18 19  1  0
 19 20  2  0
 20 21  1  0
 21 22  2  0
 22 23  1  0
 23 24  1  0
 23 25  2  0
  4 26  1  0
 26 27  1  0
 26 28  1  0
 28  2  2  0
 15  8  1  0
 25 19  1  0
 18 14  1  0
  1 29  1  0
  1 30  1  0
  1 31  1  0
  3 32  1  0
  7 33  1  0
  8 34  1  0
  9 35  1  0
  9 36  1  0
 11 37  1  0
 11 38  1  0
 11 39  1  0
 12 40  1  0
 12 41  1  0
 12 42  1  0
 13 43  1  0
 13 44  1  0
 16 45  1  0
 20 46  1  0
 21 47  1  0
 22 48  1  0
 25 49  1  0
 27 50  1  0
 27 51  1  0
 27 52  1  0
M  END
$$$$
