
     RDKit          3D

 34 36  0  0  0  0  0  0  0  0999 V2000
    3.5415   -0.1352   -1.5285 C   0  0  0  0  0  0  0  0  0  0  0  0
    3.9990   -0.2369   -0.1604 N   0  0  0  0  0  0  0  0  0  0  0  0
    5.2025   -0.8002    0.0751 N   0  0  0  0  0  0  0  0  0  0  0  0
    5.3729   -0.6341    1.3887 C   0  0  0  0  0  0  0  0  0  0  0  0
    4.2742   -0.0002    1.9922 C   0  0  0  0  0  0  0  0  0  0  0  0
    4.1337    0.3535    3.6435 Cl  0  0  0  0  0  0  0  0  0  0  0  0
    3.3677    0.2164    0.9738 C   0  0  0  0  0  0  0  0  0  0  0  0
    2.0664    0.8390    1.0415 C   0  0  0  0  0  0  0  0  0  0  0  0
    1.9087    1.9145    1.6028 O   0  0  0  0  0  0  0  0  0  0  0  0
    1.0869    0.0799    0.4312 N   0  0  0  0  0  0  0  0  0  0  0  0
   -0.2612    0.3774    0.2826 C   0  0  0  0  0  0  0  0  0  0  0  0
   -0.9158    1.8572    0.8378 S   0  0  0  0  0  0  0  0  0  0  0  0
   -2.4390    1.4019    0.3445 C   0  0  0  0  0  0  0  0  0  0  0  0
   -2.4945    0.1706   -0.2492 C   0  0  0  0  0  0  0  0  0  0  0  0
   -1.2121   -0.4528   -0.3266 C   0  0  0  0  0  0  0  0  0  0  0  0
   -0.8373   -1.7409   -0.9091 C   0  0  0  0  0  0  0  0  0  0  0  0
   -1.8025   -2.4291   -1.5814 N   0  0  0  0  0  0  0  0  0  0  0  0
    0.3042   -2.1937   -0.8405 O   0  0  0  0  0  0  0  0  0  0  0  0
   -3.8954   -0.1467   -0.6384 C   0  0  0  0  0  0  0  0  0  0  0  0
   -4.7200    0.9339    0.1271 C   0  0  0  0  0  0  0  0  0  0  0  0
   -3.7409    2.1003    0.4450 C   0  0  0  0  0  0  0  0  0  0  0  0
    2.9519   -1.0260   -1.7566 H   0  0  0  0  0  0  0  0  0  0  0  0
    2.9409    0.7698   -1.6445 H   0  0  0  0  0  0  0  0  0  0  0  0
    4.4093   -0.0768   -2.1912 H   0  0  0  0  0  0  0  0  0  0  0  0
    6.2868   -0.9847    1.8502 H   0  0  0  0  0  0  0  0  0  0  0  0
    1.3404   -0.8526    0.1063 H   0  0  0  0  0  0  0  0  0  0  0  0
   -2.6916   -2.0270   -1.8278 H   0  0  0  0  0  0  0  0  0  0  0  0
   -1.5142   -3.2742   -2.0558 H   0  0  0  0  0  0  0  0  0  0  0  0
   -4.0277   -0.0307   -1.7193 H   0  0  0  0  0  0  0  0  0  0  0  0
   -4.2035   -1.1517   -0.3371 H   0  0  0  0  0  0  0  0  0  0  0  0
   -5.0813    0.5036    1.0707 H   0  0  0  0  0  0  0  0  0  0  0  0
   -5.5960    1.2666   -0.4382 H   0  0  0  0  0  0  0  0  0  0  0  0
   -3.9336    2.5219    1.4352 H   0  0  0  0  0  0  0  0  0  0  0  0
   -3.8201    2.8868   -0.3125 H   0  0  0  0  0  0  0  0  0  0  0  0
  1  2  1  0
  2  3  1  0
  3  4  2  0
  4  5  1  0
  5  6  1  0
  5  7  2  0
  7  8  1  0
  8  9  2  0
  8 10  1  0
 10 11  1  0
 11 12  1  0
 12 13  1  0
 13 14  2  0
 14 15  1  0
 15 16  1  0
 16 17  1  0
 16 18  2  0
 14 19  1  0
 19 20  1  0
 20 21  1  0
  7  2  1  0
 15 11  2  0
 21 13  1  0
  1 22  1  0
  1 23  1  0
  1 24  1  0
  4 25  1  0
 10 26  1  0
 17 27  1  0
 17 28  1  0
 19 29  1  0
 19 30  1  0
 20 31  1  0
 20 32  1  0
 21 33  1  0
 21 34  1  0
M  END
$$$$
