
     RDKit          3D

 56 61  0  0  0  0  0  0  0  0999 V2000
    1.6445    3.0714    2.3315 O   0  0  0  0  0  0  0  0  0  0  0  0
    1.1473    2.9945    1.2165 C   0  0  0  0  0  0  0  0  0  0  0  0
    0.7415    4.0807    0.4412 N   0  0  0  0  0  0  0  0  0  0  0  0
    0.3046    3.6666   -0.8112 C   0  0  0  0  0  0  0  0  0  0  0  0
   -0.1425    4.4736   -1.8370 C   0  0  0  0  0  0  0  0  0  0  0  0
   -0.5164    3.8492   -3.0286 C   0  0  0  0  0  0  0  0  0  0  0  0
   -0.4348    2.4515   -3.1646 C   0  0  0  0  0  0  0  0  0  0  0  0
    0.0213    1.6536   -2.1105 C   0  0  0  0  0  0  0  0  0  0  0  0
    0.3888    2.2743   -0.9269 C   0  0  0  0  0  0  0  0  0  0  0  0
    0.9161    1.7155    0.3639 C   0  0  0  0  0  0  0  0  0  0  0  0
    2.1821    0.9073    0.2284 N   0  0  0  0  0  0  0  0  0  0  0  0
    1.9073   -0.5287    0.6086 C   0  0  2  0  0  0  0  0  0  0  0  0
    2.1232   -1.4835   -0.5788 C   0  0  0  0  0  0  0  0  0  0  0  0
    3.5813   -1.7600   -0.8685 C   0  0  0  0  0  0  0  0  0  0  0  0
    4.3514   -0.8367   -1.5874 C   0  0  0  0  0  0  0  0  0  0  0  0
    5.6989   -1.0881   -1.8484 C   0  0  0  0  0  0  0  0  0  0  0  0
    6.2889   -2.2668   -1.3966 C   0  0  0  0  0  0  0  0  0  0  0  0
    5.5336   -3.1917   -0.6779 C   0  0  0  0  0  0  0  0  0  0  0  0
    4.1864   -2.9400   -0.4134 C   0  0  0  0  0  0  0  0  0  0  0  0
    0.5027   -0.4949    1.0741 C   0  0  0  0  0  0  0  0  0  0  0  0
   -0.0561    0.7756    0.9305 C   0  0  0  0  0  0  0  0  0  0  0  0
   -1.3502    0.7461    1.3762 C   0  0  0  0  0  0  0  0  0  0  0  0
   -2.2512    1.7199    1.4117 O   0  0  0  0  0  0  0  0  0  0  0  0
   -1.5727   -0.5466    1.8372 N   0  0  0  0  0  0  0  0  0  0  0  0
   -2.7511   -1.0024    2.5709 C   0  0  0  0  0  0  0  0  0  0  0  0
   -3.9691   -1.1434    1.6897 C   0  0  0  0  0  0  0  0  0  0  0  0
   -5.1508   -0.4542    2.0005 C   0  0  0  0  0  0  0  0  0  0  0  0
   -6.2842   -0.5930    1.1983 C   0  0  0  0  0  0  0  0  0  0  0  0
   -6.2532   -1.4308    0.0853 C   0  0  0  0  0  0  0  0  0  0  0  0
   -5.0906   -2.1326   -0.2259 C   0  0  0  0  0  0  0  0  0  0  0  0
   -3.9555   -1.9932    0.5730 C   0  0  0  0  0  0  0  0  0  0  0  0
   -0.4356   -1.3192    1.6361 C   0  0  0  0  0  0  0  0  0  0  0  0
   -0.3979   -2.5972    1.9894 O   0  0  0  0  0  0  0  0  0  0  0  0
    0.7957    5.0340    0.7644 H   0  0  0  0  0  0  0  0  0  0  0  0
   -0.2016    5.5502   -1.7316 H   0  0  0  0  0  0  0  0  0  0  0  0
   -0.8738    4.4482   -3.8629 H   0  0  0  0  0  0  0  0  0  0  0  0
   -0.7298    1.9850   -4.1015 H   0  0  0  0  0  0  0  0  0  0  0  0
    0.0804    0.5760   -2.2173 H   0  0  0  0  0  0  0  0  0  0  0  0
    2.8086    1.2688    0.9525 H   0  0  0  0  0  0  0  0  0  0  0  0
    2.5620   -0.8020    1.4458 H   0  0  0  0  0  0  0  0  0  0  0  0
    1.6239   -2.4420   -0.3746 H   0  0  0  0  0  0  0  0  0  0  0  0
    1.6390   -1.1051   -1.4894 H   0  0  0  0  0  0  0  0  0  0  0  0
    3.9045    0.0901   -1.9423 H   0  0  0  0  0  0  0  0  0  0  0  0
    6.2873   -0.3631   -2.4033 H   0  0  0  0  0  0  0  0  0  0  0  0
    7.3376   -2.4624   -1.6015 H   0  0  0  0  0  0  0  0  0  0  0  0
    5.9929   -4.1116   -0.3269 H   0  0  0  0  0  0  0  0  0  0  0  0
    3.6135   -3.6757    0.1453 H   0  0  0  0  0  0  0  0  0  0  0  0
   -3.1423    1.3291    1.4207 H   0  0  0  0  0  0  0  0  0  0  0  0
   -2.9171   -0.2700    3.3703 H   0  0  0  0  0  0  0  0  0  0  0  0
   -2.5321   -1.9605    3.0538 H   0  0  0  0  0  0  0  0  0  0  0  0
   -5.2016    0.1936    2.8736 H   0  0  0  0  0  0  0  0  0  0  0  0
   -7.1950   -0.0523    1.4442 H   0  0  0  0  0  0  0  0  0  0  0  0
   -7.1364   -1.5400   -0.5380 H   0  0  0  0  0  0  0  0  0  0  0  0
   -5.0672   -2.7895   -1.0916 H   0  0  0  0  0  0  0  0  0  0  0  0
   -3.0560   -2.5520    0.3169 H   0  0  0  0  0  0  0  0  0  0  0  0
    0.4996   -2.9255    1.8061 H   0  0  0  0  0  0  0  0  0  0  0  0
  1  2  2  0
  2  3  1  0
  3  4  1  0
  4  5  2  0
  5  6  1  0
  6  7  2  0
  7  8  1  0
  8  9  2  0
  9 10  1  0
 10 11  1  0
 11 12  1  0
 12 13  1  0
 13 14  1  0
 14 15  2  0
 15 16  1  0
 16 17  2  0
 17 18  1  0
 18 19  2  0
 12 20  1  0
 20 21  1  0
 21 22  2  0
 22 23  1  0
 22 24  1  0
 24 25  1  0
 25 26  1  0
 26 27  2  0
 27 28  1  0
 28 29  2  0
 29 30  1  0
 30 31  2  0
 24 32  1  0
 32 33  1  0
 10  2  1  0
 19 14  1  0
 32 20  2  0
  9  4  1  0
 21 10  1  0
 31 26  1  0
  3 34  1  0
  5 35  1  0
  6 36  1  0
  7 37  1  0
  8 38  1  0
 11 39  1  0
 12 40  1  1
 13 41  1  0
 13 42  1  0
 15 43  1  0
 16 44  1  0
 17 45  1  0
 18 46  1  0
 19 47  1  0
 23 48  1  0
 25 49  1  0
 25 50  1  0
 27 51  1  0
 28 52  1  0
 29 53  1  0
 30 54  1  0
 31 55  1  0
 33 56  1  0
M  END
$$$$
