
     RDKit          3D

 51 55  0  0  0  0  0  0  0  0999 V2000
    3.4485    2.1613   -0.6008 F   0  0  0  0  0  0  0  0  0  0  0  0
    4.5383    1.7985    0.0912 C   0  0  0  0  0  0  0  0  0  0  0  0
    5.3098    2.7856    0.6966 C   0  0  0  0  0  0  0  0  0  0  0  0
    6.4410    2.4247    1.4258 C   0  0  0  0  0  0  0  0  0  0  0  0
    6.7904    1.0789    1.5449 C   0  0  0  0  0  0  0  0  0  0  0  0
    6.0111    0.0921    0.9349 C   0  0  0  0  0  0  0  0  0  0  0  0
    4.8745    0.4454    0.1960 C   0  0  0  0  0  0  0  0  0  0  0  0
    4.0139   -0.6077   -0.4568 C   0  0  0  0  0  0  0  0  0  0  0  0
    2.7384   -0.8837    0.3588 C   0  0  0  0  0  0  0  0  0  0  0  0
    1.9386   -1.9962   -0.1887 N   0  0  0  0  0  0  0  0  0  0  0  0
    0.9031   -2.4340    0.7785 C   0  0  0  0  0  0  0  0  0  0  0  0
   -0.2832   -1.4615    0.9604 C   0  0  0  0  0  0  0  0  0  0  0  0
   -0.9125   -1.1501   -0.3381 N   0  0  0  0  0  0  0  0  0  0  0  0
   -2.1586   -0.5259   -0.3124 C   0  0  0  0  0  0  0  0  0  0  0  0
   -2.2766    0.6864   -0.7929 N   0  0  0  0  0  0  0  0  0  0  0  0
   -3.5157    1.3559   -0.7516 C   0  0  0  0  0  0  0  0  0  0  0  0
   -3.5851    2.6535   -1.2622 C   0  0  0  0  0  0  0  0  0  0  0  0
   -4.7866    3.3669   -1.2376 C   0  0  0  0  0  0  0  0  0  0  0  0
   -5.9353    2.7858   -0.6988 C   0  0  0  0  0  0  0  0  0  0  0  0
   -5.8898    1.4902   -0.1829 C   0  0  0  0  0  0  0  0  0  0  0  0
   -4.6805    0.7893   -0.2139 C   0  0  0  0  0  0  0  0  0  0  0  0
   -4.5483   -0.5213    0.2723 N   0  0  0  0  0  0  0  0  0  0  0  0
   -5.4936   -1.3500    0.8292 C   0  0  0  0  0  0  0  0  0  0  0  0
   -4.8997   -2.5663    1.0903 C   0  0  0  0  0  0  0  0  0  0  0  0
   -3.5468   -2.4662    0.6908 C   0  0  0  0  0  0  0  0  0  0  0  0
   -3.3415   -1.1814    0.2205 C   0  0  0  0  0  0  0  0  0  0  0  0
    0.0722   -0.6605   -1.3258 C   0  0  0  0  0  0  0  0  0  0  0  0
    1.2550   -1.6462   -1.4582 C   0  0  0  0  0  0  0  0  0  0  0  0
    5.0231    3.8274    0.5960 H   0  0  0  0  0  0  0  0  0  0  0  0
    7.0494    3.1897    1.9013 H   0  0  0  0  0  0  0  0  0  0  0  0
    7.6726    0.7964    2.1148 H   0  0  0  0  0  0  0  0  0  0  0  0
    6.2969   -0.9525    1.0399 H   0  0  0  0  0  0  0  0  0  0  0  0
    3.7731   -0.2723   -1.4721 H   0  0  0  0  0  0  0  0  0  0  0  0
    4.5908   -1.5345   -0.5713 H   0  0  0  0  0  0  0  0  0  0  0  0
    2.1457    0.0331    0.4584 H   0  0  0  0  0  0  0  0  0  0  0  0
    3.0566   -1.1515    1.3758 H   0  0  0  0  0  0  0  0  0  0  0  0
    1.3619   -2.6406    1.7532 H   0  0  0  0  0  0  0  0  0  0  0  0
    0.5101   -3.3987    0.4303 H   0  0  0  0  0  0  0  0  0  0  0  0
    0.0537   -0.5319    1.4353 H   0  0  0  0  0  0  0  0  0  0  0  0
   -0.9998   -1.9243    1.6457 H   0  0  0  0  0  0  0  0  0  0  0  0
   -2.6917    3.1092   -1.6809 H   0  0  0  0  0  0  0  0  0  0  0  0
   -4.8234    4.3762   -1.6395 H   0  0  0  0  0  0  0  0  0  0  0  0
   -6.8679    3.3447   -0.6828 H   0  0  0  0  0  0  0  0  0  0  0  0
   -6.7959    1.0583    0.2283 H   0  0  0  0  0  0  0  0  0  0  0  0
   -6.5134   -1.0288    0.9830 H   0  0  0  0  0  0  0  0  0  0  0  0
   -5.3922   -3.4333    1.5115 H   0  0  0  0  0  0  0  0  0  0  0  0
   -2.8000   -3.2478    0.7370 H   0  0  0  0  0  0  0  0  0  0  0  0
   -0.4065   -0.5711   -2.3088 H   0  0  0  0  0  0  0  0  0  0  0  0
    0.4334    0.3347   -1.0400 H   0  0  0  0  0  0  0  0  0  0  0  0
    1.9691   -1.2643   -2.1950 H   0  0  0  0  0  0  0  0  0  0  0  0
    0.8737   -2.5815   -1.8906 H   0  0  0  0  0  0  0  0  0  0  0  0
  1  2  1  0
  2  3  2  0
  3  4  1  0
  4  5  2  0
  5  6  1  0
  6  7  2  0
  7  8  1  0
  8  9  1  0
  9 10  1  0
 10 11  1  0
 11 12  1  0
 12 13  1  0
 13 14  1  0
 14 15  2  0
 15 16  1  0
 16 17  2  0
 17 18  1  0
 18 19  2  0
 19 20  1  0
 20 21  2  0
 21 22  1  0
 22 23  1  0
 23 24  2  0
 24 25  1  0
 25 26  2  0
 13 27  1  0
 27 28  1  0
  7  2  1  0
 28 10  1  0
 26 14  1  0
 21 16  1  0
 26 22  1  0
  3 29  1  0
  4 30  1  0
  5 31  1  0
  6 32  1  0
  8 33  1  0
  8 34  1  0
  9 35  1  0
  9 36  1  0
 11 37  1  0
 11 38  1  0
 12 39  1  0
 12 40  1  0
 17 41  1  0
 18 42  1  0
 19 43  1  0
 20 44  1  0
 23 45  1  0
 24 46  1  0
 25 47  1  0
 27 48  1  0
 27 49  1  0
 28 50  1  0
 28 51  1  0
M  END
$$$$
