
     RDKit          3D

 49 53  0  0  0  0  0  0  0  0999 V2000
    6.2070   -0.0353    1.3588 C   0  0  0  0  0  0  0  0  0  0  0  0
    4.8610   -0.5866    1.7056 C   0  0  0  0  0  0  0  0  0  0  0  0
    4.6726   -2.2726    1.8796 S   0  0  0  0  0  0  0  0  0  0  0  0
    3.0201   -2.1227    2.2335 C   0  0  0  0  0  0  0  0  0  0  0  0
    2.2949   -3.2261    2.4864 N   0  0  0  0  0  0  0  0  0  0  0  0
    1.0210   -2.9551    2.7545 C   0  0  0  0  0  0  0  0  0  0  0  0
    0.4360   -1.7531    2.7734 N   0  0  0  0  0  0  0  0  0  0  0  0
    1.2025   -0.6691    2.5191 C   0  0  0  0  0  0  0  0  0  0  0  0
    0.4130    0.9094    2.6292 S   0  0  0  0  0  0  0  0  0  0  0  0
   -0.9940    0.6273    1.4811 C   0  0  0  0  0  0  0  0  0  0  0  0
   -1.9669    1.7938    1.6501 C   0  0  0  0  0  0  0  0  0  0  0  0
   -0.5088    0.5292    0.0153 C   0  0  0  0  0  0  0  0  0  0  0  0
    0.6641    0.6822   -0.3295 O   0  0  0  0  0  0  0  0  0  0  0  0
   -1.5517    0.2948   -0.8977 N   0  0  0  0  0  0  0  0  0  0  0  0
   -2.1685   -1.0059   -0.9487 C   0  0  0  0  0  0  0  0  0  0  0  0
   -1.5381   -2.0952   -0.3075 C   0  0  0  0  0  0  0  0  0  0  0  0
   -2.0868   -3.3807   -0.3163 C   0  0  0  0  0  0  0  0  0  0  0  0
   -3.2814   -3.6148   -0.9776 C   0  0  0  0  0  0  0  0  0  0  0  0
   -3.9112   -2.5646   -1.6388 C   0  0  0  0  0  0  0  0  0  0  0  0
   -3.3593   -1.2697   -1.6392 C   0  0  0  0  0  0  0  0  0  0  0  0
   -4.2666   -0.0344   -2.5195 S   0  0  0  0  0  0  0  0  0  0  0  0
   -3.0282    1.2207   -2.6921 C   0  0  0  0  0  0  0  0  0  0  0  0
   -3.3022    2.2250   -3.6404 C   0  0  0  0  0  0  0  0  0  0  0  0
   -2.4498    3.3120   -3.8023 C   0  0  0  0  0  0  0  0  0  0  0  0
   -1.3215    3.4112   -3.0052 C   0  0  0  0  0  0  0  0  0  0  0  0
   -1.0449    2.4178   -2.0598 C   0  0  0  0  0  0  0  0  0  0  0  0
   -1.8758    1.2883   -1.8918 C   0  0  0  0  0  0  0  0  0  0  0  0
    2.5731   -0.8078    2.2301 C   0  0  0  0  0  0  0  0  0  0  0  0
    3.6713    0.1018    1.9146 C   0  0  0  0  0  0  0  0  0  0  0  0
    3.5496    1.5921    1.8129 C   0  0  0  0  0  0  0  0  0  0  0  0
    6.1613    0.4993    0.4042 H   0  0  0  0  0  0  0  0  0  0  0  0
    6.9699   -0.8155    1.2674 H   0  0  0  0  0  0  0  0  0  0  0  0
    6.5392    0.6650    2.1324 H   0  0  0  0  0  0  0  0  0  0  0  0
    0.3842   -3.8048    2.9799 H   0  0  0  0  0  0  0  0  0  0  0  0
   -1.5044   -0.2939    1.7736 H   0  0  0  0  0  0  0  0  0  0  0  0
   -2.8760    1.6331    1.0603 H   0  0  0  0  0  0  0  0  0  0  0  0
   -2.2822    1.9080    2.6934 H   0  0  0  0  0  0  0  0  0  0  0  0
   -1.5282    2.7400    1.3125 H   0  0  0  0  0  0  0  0  0  0  0  0
   -0.5756   -1.9798    0.1852 H   0  0  0  0  0  0  0  0  0  0  0  0
   -1.5693   -4.1960    0.1833 H   0  0  0  0  0  0  0  0  0  0  0  0
   -3.7163   -4.6107   -0.9928 H   0  0  0  0  0  0  0  0  0  0  0  0
   -4.8432   -2.7645   -2.1653 H   0  0  0  0  0  0  0  0  0  0  0  0
   -4.1983    2.1697   -4.2564 H   0  0  0  0  0  0  0  0  0  0  0  0
   -2.6727    4.0791   -4.5390 H   0  0  0  0  0  0  0  0  0  0  0  0
   -0.6468    4.2571   -3.1146 H   0  0  0  0  0  0  0  0  0  0  0  0
   -0.1384    2.5521   -1.4749 H   0  0  0  0  0  0  0  0  0  0  0  0
    2.8292    1.8687    1.0376 H   0  0  0  0  0  0  0  0  0  0  0  0
    3.2360    2.0169    2.7713 H   0  0  0  0  0  0  0  0  0  0  0  0
    4.5009    2.0643    1.5487 H   0  0  0  0  0  0  0  0  0  0  0  0
  1  2  1  0
  2  3  1  0
  3  4  1  0
  4  5  2  0
  5  6  1  0
  6  7  2  0
  7  8  1  0
  8  9  1  0
  9 10  1  0
 10 11  1  0
 10 12  1  0
 12 13  2  0
 12 14  1  0
 14 15  1  0
 15 16  2  0
 16 17  1  0
 17 18  2  0
 18 19  1  0
 19 20  2  0
 20 21  1  0
 21 22  1  0
 22 23  2  0
 23 24  1  0
 24 25  2  0
 25 26  1  0
 26 27  2  0
  8 28  2  0
 28 29  1  0
 29 30  1  0
 29  2  2  0
 28  4  1  0
 27 14  1  0
 20 15  1  0
 27 22  1  0
  1 31  1  0
  1 32  1  0
  1 33  1  0
  6 34  1  0
 10 35  1  0
 11 36  1  0
 11 37  1  0
 11 38  1  0
 16 39  1  0
 17 40  1  0
 18 41  1  0
 19 42  1  0
 23 43  1  0
 24 44  1  0
 25 45  1  0
 26 46  1  0
 30 47  1  0
 30 48  1  0
 30 49  1  0
M  END
$$$$
