
     RDKit          3D

 32 33  0  0  0  0  0  0  0  0999 V2000
   -5.2819   -0.1800    0.2247 C   0  0  0  0  0  0  0  0  0  0  0  0
   -4.3668    0.1295   -0.9498 C   0  0  0  0  0  0  0  0  0  0  0  0
   -2.9263   -0.3400   -0.7403 C   0  0  0  0  0  0  0  0  0  0  0  0
   -2.2128    0.3901    0.4016 C   0  0  0  0  0  0  0  0  0  0  0  0
   -0.8055    0.0014    0.4944 N   0  0  0  0  0  0  0  0  0  0  0  0
   -0.4354   -1.1249    1.1598 C   0  0  0  0  0  0  0  0  0  0  0  0
   -1.1235   -1.9215    1.7643 O   0  0  0  0  0  0  0  0  0  0  0  0
    1.0749   -1.2368    0.9855 C   0  0  0  0  0  0  0  0  0  0  0  0
    1.7244   -2.1267    1.4999 O   0  0  0  0  0  0  0  0  0  0  0  0
    1.4413   -0.1597    0.2161 N   0  0  0  0  0  0  0  0  0  0  0  0
    2.8045    0.0971   -0.1262 C   0  0  0  0  0  0  0  0  0  0  0  0
    3.3100    1.3982   -0.2612 C   0  0  0  0  0  0  0  0  0  0  0  0
    4.6520    1.6278   -0.5883 C   0  0  0  0  0  0  0  0  0  0  0  0
    5.5199    0.5584   -0.7763 C   0  0  0  0  0  0  0  0  0  0  0  0
    5.0483   -0.7401   -0.6274 C   0  0  0  0  0  0  0  0  0  0  0  0
    3.7068   -0.9667   -0.3000 C   0  0  0  0  0  0  0  0  0  0  0  0
    0.2964    0.5713   -0.1295 C   0  0  0  0  0  0  0  0  0  0  0  0
    0.1745    1.8705   -1.1866 S   0  0  0  0  0  0  0  0  0  0  0  0
   -5.2611   -1.2468    0.4689 H   0  0  0  0  0  0  0  0  0  0  0  0
   -6.3136    0.0910   -0.0217 H   0  0  0  0  0  0  0  0  0  0  0  0
   -4.9956    0.3854    1.1163 H   0  0  0  0  0  0  0  0  0  0  0  0
   -4.7669   -0.3649   -1.8430 H   0  0  0  0  0  0  0  0  0  0  0  0
   -4.3824    1.2070   -1.1506 H   0  0  0  0  0  0  0  0  0  0  0  0
   -2.3750   -0.1856   -1.6757 H   0  0  0  0  0  0  0  0  0  0  0  0
   -2.9139   -1.4213   -0.5553 H   0  0  0  0  0  0  0  0  0  0  0  0
   -2.2862    1.4740    0.2694 H   0  0  0  0  0  0  0  0  0  0  0  0
   -2.6894    0.1421    1.3566 H   0  0  0  0  0  0  0  0  0  0  0  0
    2.6966    2.2728   -0.0679 H   0  0  0  0  0  0  0  0  0  0  0  0
    5.0185    2.6473   -0.6836 H   0  0  0  0  0  0  0  0  0  0  0  0
    6.5621    0.7366   -1.0282 H   0  0  0  0  0  0  0  0  0  0  0  0
    5.7210   -1.5833   -0.7650 H   0  0  0  0  0  0  0  0  0  0  0  0
    3.3849   -2.0023   -0.2110 H   0  0  0  0  0  0  0  0  0  0  0  0
  1  2  1  0
  2  3  1  0
  3  4  1  0
  4  5  1  0
  5  6  1  0
  6  7  2  0
  6  8  1  0
  8  9  2  0
  8 10  1  0
 10 11  1  0
 11 12  2  0
 12 13  1  0
 13 14  2  0
 14 15  1  0
 15 16  2  0
 10 17  1  0
 17 18  2  0
 17  5  1  0
 16 11  1  0
  1 19  1  0
  1 20  1  0
  1 21  1  0
  2 22  1  0
  2 23  1  0
  3 24  1  0
  3 25  1  0
  4 26  1  0
  4 27  1  0
 12 28  1  0
 13 29  1  0
 14 30  1  0
 15 31  1  0
 16 32  1  0
M  END
$$$$
