
     RDKit          3D

 48 51  0  0  0  0  0  0  0  0999 V2000
    3.2998    3.0285   -0.7144 C   0  0  0  0  0  0  0  0  0  0  0  0
    3.2963    1.8247   -1.6446 C   0  0  0  0  0  0  0  0  0  0  0  0
    2.9544    0.6066   -0.9159 N   0  0  0  0  0  0  0  0  0  0  0  0
    1.6815    0.0674   -0.7029 C   0  0  0  0  0  0  0  0  0  0  0  0
    0.5134    0.6006   -1.1107 C   0  0  0  0  0  0  0  0  0  0  0  0
   -0.8212    0.0272   -0.8867 C   0  0  0  0  0  0  0  0  0  0  0  0
   -1.2212   -1.0276   -1.7087 C   0  0  0  0  0  0  0  0  0  0  0  0
   -2.4674   -1.6007   -1.5464 C   0  0  0  0  0  0  0  0  0  0  0  0
   -3.3161   -1.1184   -0.5588 C   0  0  0  0  0  0  0  0  0  0  0  0
   -4.5800   -1.7055   -0.3883 C   0  0  0  0  0  0  0  0  0  0  0  0
   -5.4638   -1.2454    0.5910 C   0  0  0  0  0  0  0  0  0  0  0  0
   -6.7988   -1.9064    0.7843 C   0  0  0  0  0  0  0  0  0  0  0  0
   -5.0613   -0.2044    1.4245 C   0  0  0  0  0  0  0  0  0  0  0  0
   -3.8038    0.3905    1.2646 C   0  0  0  0  0  0  0  0  0  0  0  0
   -2.9024   -0.0409    0.2715 C   0  0  0  0  0  0  0  0  0  0  0  0
   -1.6588    0.5208    0.0762 N   0  0  0  0  0  4  0  0  0  0  0  0
   -1.2187    1.6835    0.9064 C   0  0  0  0  0  0  0  0  0  0  0  0
   -0.6276    1.2092    2.2201 C   0  0  0  0  0  0  0  0  0  0  0  0
    1.6939   -1.4536    0.2367 S   0  0  0  0  0  0  0  0  0  0  0  0
    3.4692   -1.3085    0.3750 C   0  0  0  0  0  0  0  0  0  0  0  0
    4.3021   -2.1905    1.0498 C   0  0  0  0  0  0  0  0  0  0  0  0
    5.6693   -1.9245    1.0708 C   0  0  0  0  0  0  0  0  0  0  0  0
    6.1770   -0.7909    0.4251 C   0  0  0  0  0  0  0  0  0  0  0  0
    5.3260    0.0919   -0.2532 C   0  0  0  0  0  0  0  0  0  0  0  0
    3.9585   -0.1607   -0.2877 C   0  0  0  0  0  0  0  0  0  0  0  0
    2.3212    3.1665   -0.2427 H   0  0  0  0  0  0  0  0  0  0  0  0
    3.5387    3.9383   -1.2737 H   0  0  0  0  0  0  0  0  0  0  0  0
    4.0413    2.9153    0.0829 H   0  0  0  0  0  0  0  0  0  0  0  0
    2.5739    1.9978   -2.4510 H   0  0  0  0  0  0  0  0  0  0  0  0
    4.2632    1.7349   -2.1524 H   0  0  0  0  0  0  0  0  0  0  0  0
    0.5070    1.5280   -1.6748 H   0  0  0  0  0  0  0  0  0  0  0  0
   -0.5536   -1.4152   -2.4779 H   0  0  0  0  0  0  0  0  0  0  0  0
   -2.7621   -2.4279   -2.1916 H   0  0  0  0  0  0  0  0  0  0  0  0
   -4.8888   -2.5366   -1.0243 H   0  0  0  0  0  0  0  0  0  0  0  0
   -7.5311   -1.1981    1.1857 H   0  0  0  0  0  0  0  0  0  0  0  0
   -6.7024   -2.7472    1.4780 H   0  0  0  0  0  0  0  0  0  0  0  0
   -7.1925   -2.2752   -0.1687 H   0  0  0  0  0  0  0  0  0  0  0  0
   -5.7269    0.1519    2.2111 H   0  0  0  0  0  0  0  0  0  0  0  0
   -3.5691    1.1897    1.9606 H   0  0  0  0  0  0  0  0  0  0  0  0
   -0.4952    2.2849    0.3499 H   0  0  0  0  0  0  0  0  0  0  0  0
   -2.0749    2.3478    1.0560 H   0  0  0  0  0  0  0  0  0  0  0  0
    0.2727    0.6121    2.0592 H   0  0  0  0  0  0  0  0  0  0  0  0
   -0.3524    2.0684    2.8397 H   0  0  0  0  0  0  0  0  0  0  0  0
   -1.3316    0.5942    2.7875 H   0  0  0  0  0  0  0  0  0  0  0  0
    3.9052   -3.0679    1.5502 H   0  0  0  0  0  0  0  0  0  0  0  0
    6.3466   -2.5990    1.5905 H   0  0  0  0  0  0  0  0  0  0  0  0
    7.2475   -0.5944    0.4502 H   0  0  0  0  0  0  0  0  0  0  0  0
    5.7632    0.9590   -0.7357 H   0  0  0  0  0  0  0  0  0  0  0  0
  1  2  1  0
  2  3  1  0
  3  4  1  0
  4  5  2  3
  5  6  1  0
  6  7  2  0
  7  8  1  0
  8  9  2  0
  9 10  1  0
 10 11  2  0
 11 12  1  0
 11 13  1  0
 13 14  2  0
 14 15  1  0
 15 16  2  0
 16 17  1  0
 17 18  1  0
  4 19  1  0
 19 20  1  0
 20 21  2  0
 21 22  1  0
 22 23  2  0
 23 24  1  0
 24 25  2  0
 25  3  1  0
 16  6  1  0
 25 20  1  0
 15  9  1  0
  1 26  1  0
  1 27  1  0
  1 28  1  0
  2 29  1  0
  2 30  1  0
  5 31  1  0
  7 32  1  0
  8 33  1  0
 10 34  1  0
 12 35  1  0
 12 36  1  0
 12 37  1  0
 13 38  1  0
 14 39  1  0
 17 40  1  0
 17 41  1  0
 18 42  1  0
 18 43  1  0
 18 44  1  0
 21 45  1  0
 22 46  1  0
 23 47  1  0
 24 48  1  0
M  CHG  1  16   1
M  END
$$$$
