
     RDKit          3D

 39 41  0  0  0  0  0  0  0  0999 V2000
   -1.3671   -1.9265   -1.2227 O   0  0  0  0  0  0  0  0  0  0  0  0
   -1.9931   -1.0420   -0.6454 C   0  0  0  0  0  0  0  0  0  0  0  0
   -3.5009   -0.8913   -0.8713 C   0  0  0  0  0  0  0  0  0  0  0  0
   -4.0306    0.1833   -0.0991 O   0  0  0  0  0  0  0  0  0  0  0  0
   -5.3724    0.4229   -0.2111 C   0  0  0  0  0  0  0  0  0  0  0  0
   -6.2706   -0.2895   -1.0074 C   0  0  0  0  0  0  0  0  0  0  0  0
   -7.6236    0.0642   -1.0267 C   0  0  0  0  0  0  0  0  0  0  0  0
   -8.0834    1.1282   -0.2528 C   0  0  0  0  0  0  0  0  0  0  0  0
   -7.1911    1.8421    0.5426 C   0  0  0  0  0  0  0  0  0  0  0  0
   -5.8407    1.4890    0.5618 C   0  0  0  0  0  0  0  0  0  0  0  0
   -1.4918   -0.1125    0.2352 N   0  0  0  0  0  0  0  0  0  0  0  0
   -0.1944    0.0378    0.6462 C   0  0  0  0  0  0  0  0  0  0  0  0
    0.1624    0.9544    1.5186 N   0  0  0  0  0  0  0  0  0  0  0  0
    1.5173    0.9262    1.7817 N   0  0  0  0  0  0  0  0  0  0  0  0
    2.1341   -0.0093    1.0869 C   0  0  0  0  0  0  0  0  0  0  0  0
    3.5960   -0.3030    1.1525 C   0  0  0  0  0  0  0  0  0  0  0  0
    4.1778    0.1607   -0.0737 O   0  0  0  0  0  0  0  0  0  0  0  0
    5.5283   -0.0547   -0.0585 C   0  0  0  0  0  0  0  0  0  0  0  0
    6.0416   -1.2836   -0.4686 C   0  0  0  0  0  0  0  0  0  0  0  0
    7.4220   -1.4828   -0.4759 C   0  0  0  0  0  0  0  0  0  0  0  0
    8.2782   -0.4502   -0.0886 C   0  0  0  0  0  0  0  0  0  0  0  0
    7.7566    0.7859    0.2975 C   0  0  0  0  0  0  0  0  0  0  0  0
    6.3768    0.9882    0.3056 C   0  0  0  0  0  0  0  0  0  0  0  0
    1.0866   -0.9315    0.0826 S   0  0  0  0  0  0  0  0  0  0  0  0
   -3.6473   -0.6973   -1.9401 H   0  0  0  0  0  0  0  0  0  0  0  0
   -3.9658   -1.8375   -0.5712 H   0  0  0  0  0  0  0  0  0  0  0  0
   -5.9578   -1.1241   -1.6258 H   0  0  0  0  0  0  0  0  0  0  0  0
   -8.3203   -0.4927   -1.6486 H   0  0  0  0  0  0  0  0  0  0  0  0
   -9.1355    1.4008   -0.2706 H   0  0  0  0  0  0  0  0  0  0  0  0
   -7.5437    2.6737    1.1469 H   0  0  0  0  0  0  0  0  0  0  0  0
   -5.1506    2.0523    1.1849 H   0  0  0  0  0  0  0  0  0  0  0  0
   -2.1456    0.5464    0.6444 H   0  0  0  0  0  0  0  0  0  0  0  0
    4.0351    0.2286    2.0064 H   0  0  0  0  0  0  0  0  0  0  0  0
    3.7592   -1.3806    1.2814 H   0  0  0  0  0  0  0  0  0  0  0  0
    5.3750   -2.0786   -0.7895 H   0  0  0  0  0  0  0  0  0  0  0  0
    7.8319   -2.4383   -0.7921 H   0  0  0  0  0  0  0  0  0  0  0  0
    9.3544   -0.6049   -0.0993 H   0  0  0  0  0  0  0  0  0  0  0  0
    8.4255    1.5931    0.5843 H   0  0  0  0  0  0  0  0  0  0  0  0
    5.9676    1.9534    0.5905 H   0  0  0  0  0  0  0  0  0  0  0  0
  1  2  2  0
  2  3  1  0
  3  4  1  0
  4  5  1  0
  5  6  2  0
  6  7  1  0
  7  8  2  0
  8  9  1  0
  9 10  2  0
  2 11  1  0
 11 12  1  0
 12 13  2  0
 13 14  1  0
 14 15  2  0
 15 16  1  0
 16 17  1  0
 17 18  1  0
 18 19  2  0
 19 20  1  0
 20 21  2  0
 21 22  1  0
 22 23  2  0
 15 24  1  0
 10  5  1  0
 24 12  1  0
 23 18  1  0
  3 25  1  0
  3 26  1  0
  6 27  1  0
  7 28  1  0
  8 29  1  0
  9 30  1  0
 10 31  1  0
 11 32  1  0
 16 33  1  0
 16 34  1  0
 19 35  1  0
 20 36  1  0
 21 37  1  0
 22 38  1  0
 23 39  1  0
M  END
$$$$
