
     RDKit          3D

 50 52  0  0  0  0  0  0  0  0999 V2000
    7.2004   -2.2952    0.7301 C   0  0  0  0  0  0  0  0  0  0  0  0
    7.2556   -2.4262    2.1755 N   0  0  0  0  0  0  0  0  0  0  0  0
    7.1264   -1.0812    3.1604 S   0  0  0  0  0  6  0  0  0  0  0  0
    8.1128   -0.1132    2.7357 O   0  0  0  0  0  0  0  0  0  0  0  0
    7.0676   -1.5692    4.5201 O   0  0  0  0  0  0  0  0  0  0  0  0
    5.5170   -0.4537    2.7402 C   0  0  0  0  0  0  0  0  0  0  0  0
    5.3990    0.6687    1.9147 C   0  0  0  0  0  0  0  0  0  0  0  0
    4.1302    1.1639    1.5989 C   0  0  0  0  0  0  0  0  0  0  0  0
    2.9827    0.5373    2.1074 C   0  0  0  0  0  0  0  0  0  0  0  0
    1.6089    1.0289    1.7994 C   0  0  0  0  0  0  0  0  0  0  0  0
    0.6742    0.7538    2.5433 O   0  0  0  0  0  0  0  0  0  0  0  0
    1.4622    1.7577    0.6374 N   0  0  0  0  0  0  0  0  0  0  0  0
    0.1345    2.0644    0.1363 C   0  0  0  0  0  0  0  0  0  0  0  0
   -0.2598    1.0311   -0.9224 C   0  0  0  0  0  0  0  0  0  0  0  0
    0.5732    0.4366   -1.6058 O   0  0  0  0  0  0  0  0  0  0  0  0
   -1.6183    0.8667   -1.0776 N   0  0  0  0  0  0  0  0  0  0  0  0
   -2.1638    0.0406   -2.1428 C   0  0  0  0  0  0  0  0  0  0  0  0
   -3.6168   -0.3521   -1.8673 C   0  0  0  0  0  0  0  0  0  0  0  0
   -4.1439   -1.2689   -2.9671 C   0  0  0  0  0  0  0  0  0  0  0  0
   -5.4801   -1.6943   -2.6741 O   0  0  0  0  0  0  0  0  0  0  0  0
   -6.2630   -0.6445   -2.2682 C   0  0  0  0  0  0  0  0  0  0  0  0
   -7.6402   -0.8570   -2.2607 C   0  0  0  0  0  0  0  0  0  0  0  0
   -8.5006    0.1738   -1.8799 C   0  0  0  0  0  0  0  0  0  0  0  0
   -7.9824    1.4144   -1.5049 C   0  0  0  0  0  0  0  0  0  0  0  0
   -6.6022    1.6230   -1.4988 C   0  0  0  0  0  0  0  0  0  0  0  0
   -5.7427    0.5893   -1.8658 C   0  0  0  0  0  0  0  0  0  0  0  0
   -4.3990    0.8577   -1.8155 O   0  0  0  0  0  0  0  0  0  0  0  0
    3.1167   -0.5706    2.9577 C   0  0  0  0  0  0  0  0  0  0  0  0
    4.3823   -1.0679    3.2771 C   0  0  0  0  0  0  0  0  0  0  0  0
    7.7903   -3.0971    0.2767 H   0  0  0  0  0  0  0  0  0  0  0  0
    6.1683   -2.3914    0.3827 H   0  0  0  0  0  0  0  0  0  0  0  0
    7.6140   -1.3435    0.3877 H   0  0  0  0  0  0  0  0  0  0  0  0
    7.0112   -3.3113    2.6147 H   0  0  0  0  0  0  0  0  0  0  0  0
    6.2844    1.1676    1.5250 H   0  0  0  0  0  0  0  0  0  0  0  0
    4.0567    2.0545    0.9805 H   0  0  0  0  0  0  0  0  0  0  0  0
    2.1653    1.6293   -0.0806 H   0  0  0  0  0  0  0  0  0  0  0  0
    0.1787    3.0458   -0.3447 H   0  0  0  0  0  0  0  0  0  0  0  0
   -0.5977    2.0860    0.9484 H   0  0  0  0  0  0  0  0  0  0  0  0
   -2.2452    1.5388   -0.6482 H   0  0  0  0  0  0  0  0  0  0  0  0
   -1.5352   -0.8493   -2.2572 H   0  0  0  0  0  0  0  0  0  0  0  0
   -2.0899    0.6343   -3.0614 H   0  0  0  0  0  0  0  0  0  0  0  0
   -3.6918   -0.8402   -0.8857 H   0  0  0  0  0  0  0  0  0  0  0  0
   -4.1464   -0.7716   -3.9457 H   0  0  0  0  0  0  0  0  0  0  0  0
   -3.5265   -2.1699   -3.0476 H   0  0  0  0  0  0  0  0  0  0  0  0
   -8.0430   -1.8205   -2.5603 H   0  0  0  0  0  0  0  0  0  0  0  0
   -9.5753    0.0102   -1.8792 H   0  0  0  0  0  0  0  0  0  0  0  0
   -8.6540    2.2176   -1.2122 H   0  0  0  0  0  0  0  0  0  0  0  0
   -6.1997    2.5860   -1.1983 H   0  0  0  0  0  0  0  0  0  0  0  0
    2.2310   -1.0465    3.3765 H   0  0  0  0  0  0  0  0  0  0  0  0
    4.4739   -1.9211    3.9458 H   0  0  0  0  0  0  0  0  0  0  0  0
  1  2  1  0
  2  3  1  0
  3  4  2  0
  3  5  2  0
  3  6  1  0
  6  7  2  0
  7  8  1  0
  8  9  2  0
  9 10  1  0
 10 11  2  0
 10 12  1  0
 12 13  1  0
 13 14  1  0
 14 15  2  0
 14 16  1  0
 16 17  1  0
 17 18  1  0
 18 19  1  0
 19 20  1  0
 20 21  1  0
 21 22  2  0
 22 23  1  0
 23 24  2  0
 24 25  1  0
 25 26  2  0
 26 27  1  0
  9 28  1  0
 28 29  2  0
 29  6  1  0
 27 18  1  0
 26 21  1  0
  1 30  1  0
  1 31  1  0
  1 32  1  0
  2 33  1  0
  7 34  1  0
  8 35  1  0
 12 36  1  0
 13 37  1  0
 13 38  1  0
 16 39  1  0
 17 40  1  0
 17 41  1  0
 18 42  1  0
 19 43  1  0
 19 44  1  0
 22 45  1  0
 23 46  1  0
 24 47  1  0
 25 48  1  0
 28 49  1  0
 29 50  1  0
M  END
$$$$
