
     RDKit          3D

 53 54  0  0  0  0  0  0  0  0999 V2000
   -5.4882    1.7401    1.0325 C   0  0  0  0  0  0  0  0  0  0  0  0
   -5.9021    0.6385    0.0748 C   0  0  0  0  0  0  0  0  0  0  0  0
   -4.8690   -0.3995   -0.0940 N   0  0  0  0  0  0  0  0  0  0  0  0
   -4.6570   -1.3345    1.0244 C   0  0  0  0  0  0  0  0  0  0  0  0
   -5.5135   -2.5764    0.8268 C   0  0  0  0  0  0  0  0  0  0  0  0
   -3.7393   -0.3103   -1.3423 S   0  0  0  0  0  6  0  0  0  0  0  0
   -3.1590   -1.6250   -1.5230 O   0  0  0  0  0  0  0  0  0  0  0  0
   -4.3313    0.4044   -2.4532 O   0  0  0  0  0  0  0  0  0  0  0  0
   -2.4549    0.7301   -0.6714 C   0  0  0  0  0  0  0  0  0  0  0  0
   -2.4316    2.0940   -0.9865 C   0  0  0  0  0  0  0  0  0  0  0  0
   -1.3999    2.8982   -0.5025 C   0  0  0  0  0  0  0  0  0  0  0  0
   -0.3817    2.3353    0.2711 C   0  0  0  0  0  0  0  0  0  0  0  0
   -0.3792    0.9601    0.5550 C   0  0  0  0  0  0  0  0  0  0  0  0
    0.7609    0.4077    1.3379 C   0  0  0  0  0  0  0  0  0  0  0  0
    1.6440    1.0918    1.8352 O   0  0  0  0  0  0  0  0  0  0  0  0
    0.6924   -0.9459    1.3897 O   0  0  0  0  0  0  0  0  0  0  0  0
    1.8158   -1.5740    2.0091 C   0  0  0  0  0  0  0  0  0  0  0  0
    3.0891   -1.4278    1.1735 C   0  0  0  0  0  0  0  0  0  0  0  0
    3.2398   -1.9789    0.0829 O   0  0  0  0  0  0  0  0  0  0  0  0
    4.0395   -0.5791    1.7068 N   0  0  0  0  0  0  0  0  0  0  0  0
    5.2425   -0.2736    0.9519 C   0  0  0  0  0  0  0  0  0  0  0  0
    4.9592    0.6174   -0.2676 C   0  0  0  0  0  0  0  0  0  0  0  0
    5.7153    0.2024   -1.4313 N   0  0  0  0  0  0  0  0  0  0  0  0
    5.2411   -0.6180   -2.4264 C   0  0  0  0  0  0  0  0  0  0  0  0
    3.9900   -1.1568   -2.3754 O   0  0  0  0  0  0  0  0  0  0  0  0
    6.0989   -0.8264   -3.4285 C   0  0  0  0  0  0  0  0  0  0  0  0
    7.6062   -0.0085   -3.1555 S   0  0  0  0  0  0  0  0  0  0  0  0
    7.0246    0.6272   -1.6077 C   0  0  0  0  0  0  0  0  0  0  0  0
    7.6948    1.3075   -0.8449 O   0  0  0  0  0  0  0  0  0  0  0  0
   -1.4214    0.1535    0.0773 C   0  0  0  0  0  0  0  0  0  0  0  0
   -6.3062    2.4585    1.1493 H   0  0  0  0  0  0  0  0  0  0  0  0
   -5.2437    1.3507    2.0250 H   0  0  0  0  0  0  0  0  0  0  0  0
   -4.6186    2.2881    0.6661 H   0  0  0  0  0  0  0  0  0  0  0  0
   -6.1706    1.0723   -0.8941 H   0  0  0  0  0  0  0  0  0  0  0  0
   -6.8180    0.1617    0.4447 H   0  0  0  0  0  0  0  0  0  0  0  0
   -4.9053   -0.8617    1.9807 H   0  0  0  0  0  0  0  0  0  0  0  0
   -3.6053   -1.6274    1.0971 H   0  0  0  0  0  0  0  0  0  0  0  0
   -5.3629   -3.2790    1.6522 H   0  0  0  0  0  0  0  0  0  0  0  0
   -5.2544   -3.0835   -0.1064 H   0  0  0  0  0  0  0  0  0  0  0  0
   -6.5767   -2.3221    0.7852 H   0  0  0  0  0  0  0  0  0  0  0  0
   -3.2095    2.5342   -1.6084 H   0  0  0  0  0  0  0  0  0  0  0  0
   -1.3798    3.9608   -0.7420 H   0  0  0  0  0  0  0  0  0  0  0  0
    0.4234    2.9730    0.6344 H   0  0  0  0  0  0  0  0  0  0  0  0
    1.9548   -1.1952    3.0288 H   0  0  0  0  0  0  0  0  0  0  0  0
    1.5997   -2.6445    2.0938 H   0  0  0  0  0  0  0  0  0  0  0  0
    3.7052    0.1249    2.3648 H   0  0  0  0  0  0  0  0  0  0  0  0
    5.9450    0.2203    1.6336 H   0  0  0  0  0  0  0  0  0  0  0  0
    5.6879   -1.2300    0.6461 H   0  0  0  0  0  0  0  0  0  0  0  0
    3.8937    0.6538   -0.5260 H   0  0  0  0  0  0  0  0  0  0  0  0
    5.2431    1.6486   -0.0195 H   0  0  0  0  0  0  0  0  0  0  0  0
    3.7967   -1.4250   -1.4502 H   0  0  0  0  0  0  0  0  0  0  0  0
    5.9005   -1.4330   -4.3009 H   0  0  0  0  0  0  0  0  0  0  0  0
   -1.4248   -0.9190    0.2633 H   0  0  0  0  0  0  0  0  0  0  0  0
  1  2  1  0
  2  3  1  0
  3  4  1  0
  4  5  1  0
  3  6  1  0
  6  7  2  0
  6  8  2  0
  6  9  1  0
  9 10  2  0
 10 11  1  0
 11 12  2  0
 12 13  1  0
 13 14  1  0
 14 15  2  0
 14 16  1  0
 16 17  1  0
 17 18  1  0
 18 19  2  0
 18 20  1  0
 20 21  1  0
 21 22  1  0
 22 23  1  0
 23 24  1  0
 24 25  1  0
 24 26  2  0
 26 27  1  0
 27 28  1  0
 28 29  2  0
 13 30  2  0
 30  9  1  0
 28 23  1  0
  1 31  1  0
  1 32  1  0
  1 33  1  0
  2 34  1  0
  2 35  1  0
  4 36  1  0
  4 37  1  0
  5 38  1  0
  5 39  1  0
  5 40  1  0
 10 41  1  0
 11 42  1  0
 12 43  1  0
 17 44  1  0
 17 45  1  0
 20 46  1  0
 21 47  1  0
 21 48  1  0
 22 49  1  0
 22 50  1  0
 25 51  1  0
 26 52  1  0
 30 53  1  0
M  END
$$$$
