
     RDKit          3D

 38 40  0  0  0  0  0  0  0  0999 V2000
   -5.2599    2.9126    1.0013 C   0  0  0  0  0  0  0  0  0  0  0  0
   -4.4735    1.7849    0.3991 C   0  0  0  0  0  0  0  0  0  0  0  0
   -4.3492    1.6733   -0.9928 C   0  0  0  0  0  0  0  0  0  0  0  0
   -3.5944    0.6428   -1.5552 C   0  0  0  0  0  0  0  0  0  0  0  0
   -2.9456   -0.2693   -0.7193 C   0  0  0  0  0  0  0  0  0  0  0  0
   -1.9950   -1.5836   -1.4362 S   0  0  0  0  0  6  0  0  0  0  0  0
   -2.6580   -1.9789   -2.6619 O   0  0  0  0  0  0  0  0  0  0  0  0
   -1.6848   -2.5573   -0.4120 O   0  0  0  0  0  0  0  0  0  0  0  0
   -0.5725   -0.7982   -1.9129 N   0  0  0  0  0  0  0  0  0  0  0  0
    0.4144   -0.5513   -0.9195 C   0  0  0  0  0  0  0  0  0  0  0  0
    0.3618    0.6264   -0.1775 C   0  0  0  0  0  0  0  0  0  0  0  0
    1.3035    0.8538    0.8242 C   0  0  0  0  0  0  0  0  0  0  0  0
    2.2918   -0.0960    1.0785 C   0  0  0  0  0  0  0  0  0  0  0  0
    3.1771    0.2169    2.0739 O   0  0  0  0  0  0  0  0  0  0  0  0
    2.3479   -1.2925    0.3480 C   0  0  0  0  0  0  0  0  0  0  0  0
    3.5231   -2.5973    0.6769 S   0  0  0  0  0  0  0  0  0  0  0  0
    5.0316   -1.8306    0.2743 C   0  0  0  0  0  0  0  0  0  0  0  0
    5.7629   -2.1319   -0.8389 N   0  0  0  0  0  0  0  0  0  0  0  0
    6.8035   -1.3400   -0.7315 C   0  0  0  0  0  0  0  0  0  0  0  0
    6.6957   -0.5988    0.4025 N   0  0  0  0  0  0  0  0  0  0  0  0
    5.5652   -0.8935    1.0692 N   0  0  0  0  0  0  0  0  0  0  0  0
    1.3906   -1.5133   -0.6525 C   0  0  0  0  0  0  0  0  0  0  0  0
   -3.0601   -0.1713    0.6693 C   0  0  0  0  0  0  0  0  0  0  0  0
   -3.8155    0.8625    1.2247 C   0  0  0  0  0  0  0  0  0  0  0  0
   -6.0851    3.2076    0.3447 H   0  0  0  0  0  0  0  0  0  0  0  0
   -4.6092    3.7774    1.1629 H   0  0  0  0  0  0  0  0  0  0  0  0
   -5.6985    2.6149    1.9595 H   0  0  0  0  0  0  0  0  0  0  0  0
   -4.8461    2.3870   -1.6470 H   0  0  0  0  0  0  0  0  0  0  0  0
   -3.5153    0.5579   -2.6366 H   0  0  0  0  0  0  0  0  0  0  0  0
   -0.2548   -1.1595   -2.8120 H   0  0  0  0  0  0  0  0  0  0  0  0
   -0.3997    1.3756   -0.3754 H   0  0  0  0  0  0  0  0  0  0  0  0
    1.2715    1.7708    1.4064 H   0  0  0  0  0  0  0  0  0  0  0  0
    3.9720   -0.3482    1.9640 H   0  0  0  0  0  0  0  0  0  0  0  0
    7.6354   -1.2640   -1.4174 H   0  0  0  0  0  0  0  0  0  0  0  0
    7.3294    0.1010    0.7737 H   0  0  0  0  0  0  0  0  0  0  0  0
    1.3934   -2.4463   -1.2112 H   0  0  0  0  0  0  0  0  0  0  0  0
   -2.5616   -0.8853    1.3218 H   0  0  0  0  0  0  0  0  0  0  0  0
   -3.8922    0.9417    2.3074 H   0  0  0  0  0  0  0  0  0  0  0  0
  1  2  1  0
  2  3  2  0
  3  4  1  0
  4  5  2  0
  5  6  1  0
  6  7  2  0
  6  8  2  0
  6  9  1  0
  9 10  1  0
 10 11  2  0
 11 12  1  0
 12 13  2  0
 13 14  1  0
 13 15  1  0
 15 16  1  0
 16 17  1  0
 17 18  1  0
 18 19  2  0
 19 20  1  0
 20 21  1  0
 15 22  2  0
  5 23  1  0
 23 24  2  0
 24  2  1  0
 22 10  1  0
 21 17  2  0
  1 25  1  0
  1 26  1  0
  1 27  1  0
  3 28  1  0
  4 29  1  0
  9 30  1  0
 11 31  1  0
 12 32  1  0
 14 33  1  0
 19 34  1  0
 20 35  1  0
 22 36  1  0
 23 37  1  0
 24 38  1  0
M  END
$$$$
