
     RDKit          3D

 60 65  0  0  0  0  0  0  0  0999 V2000
    2.1580   -3.0083   -2.6922 C   0  0  0  0  0  0  0  0  0  0  0  0
    3.3799   -2.2050   -2.9409 C   0  0  0  0  0  0  0  0  0  0  0  0
    3.9559   -2.2356   -4.1498 N   0  0  0  0  0  0  0  0  0  0  0  0
    5.0954   -1.4633   -4.0435 O   0  0  0  0  0  0  0  0  0  0  0  0
    5.1862   -0.9590   -2.7848 C   0  0  0  0  0  0  0  0  0  0  0  0
    6.3721   -0.1346   -2.4934 C   0  0  0  0  0  0  0  0  0  0  0  0
    4.0961   -1.3622   -2.0495 C   0  0  0  0  0  0  0  0  0  0  0  0
    3.8511   -1.0334   -0.6639 C   0  0  0  0  0  0  0  0  0  0  0  0
    4.7220   -1.2228    0.1830 O   0  0  0  0  0  0  0  0  0  0  0  0
    2.6039   -0.5001   -0.3264 N   0  0  0  0  0  0  0  0  0  0  0  0
    2.3567   -0.2699    1.0904 C   0  0  0  0  0  0  0  0  0  0  0  0
    0.9717    0.3120    1.3733 C   0  0  0  0  0  0  0  0  0  0  0  0
   -0.1123   -0.3508    0.4930 C   0  0  0  0  0  0  0  0  0  0  0  0
    0.2487   -0.1701   -1.0144 C   0  0  0  0  0  0  0  0  0  0  0  0
    1.7171    0.1849   -1.2576 C   0  0  0  0  0  0  0  0  0  0  0  0
   -0.0372   -1.7893    0.6909 O   0  0  0  0  0  0  0  0  0  0  0  0
   -0.6702   -2.3171    1.7750 C   0  0  0  0  0  0  0  0  0  0  0  0
   -0.3327   -3.6319    2.0983 C   0  0  0  0  0  0  0  0  0  0  0  0
   -0.9141   -4.2492    3.2065 C   0  0  0  0  0  0  0  0  0  0  0  0
   -1.8325   -3.5484    3.9805 C   0  0  0  0  0  0  0  0  0  0  0  0
   -2.3848   -4.1420    5.0459 F   0  0  0  0  0  0  0  0  0  0  0  0
   -2.1848   -2.2435    3.6658 C   0  0  0  0  0  0  0  0  0  0  0  0
   -1.6041   -1.6366    2.5497 C   0  0  0  0  0  0  0  0  0  0  0  0
   -1.9578   -0.2600    2.1807 C   0  0  0  0  0  0  0  0  0  0  0  0
   -2.5440    0.4555    2.9885 O   0  0  0  0  0  0  0  0  0  0  0  0
   -1.5382    0.1906    0.7877 C   0  0  0  0  0  0  0  0  0  0  0  0
   -1.6900    1.6983    0.6298 C   0  0  0  0  0  0  0  0  0  0  0  0
   -2.9978    1.7329   -0.0820 C   0  0  0  0  0  0  0  0  0  0  0  0
   -3.7401    2.9976   -0.3026 C   0  0  0  0  0  0  0  0  0  0  0  0
   -3.2216    4.2333    0.1042 C   0  0  0  0  0  0  0  0  0  0  0  0
   -3.9403    5.4087   -0.1384 C   0  0  0  0  0  0  0  0  0  0  0  0
   -5.1738    5.3499   -0.7859 C   0  0  0  0  0  0  0  0  0  0  0  0
   -6.0504    6.7992   -1.0853 Cl  0  0  0  0  0  0  0  0  0  0  0  0
   -5.6988    4.1256   -1.1915 C   0  0  0  0  0  0  0  0  0  0  0  0
   -4.9822    2.9500   -0.9498 C   0  0  0  0  0  0  0  0  0  0  0  0
   -3.4082    0.5878   -0.5257 N   0  0  0  0  0  0  0  0  0  0  0  0
   -2.4672   -0.3899   -0.1423 O   0  0  0  0  0  0  0  0  0  0  0  0
    1.9514   -3.1042   -1.6241 H   0  0  0  0  0  0  0  0  0  0  0  0
    2.2708   -4.0203   -3.0984 H   0  0  0  0  0  0  0  0  0  0  0  0
    1.2906   -2.5421   -3.1713 H   0  0  0  0  0  0  0  0  0  0  0  0
    6.7294    0.3726   -3.3967 H   0  0  0  0  0  0  0  0  0  0  0  0
    7.1821   -0.7611   -2.1080 H   0  0  0  0  0  0  0  0  0  0  0  0
    6.1432    0.6306   -1.7475 H   0  0  0  0  0  0  0  0  0  0  0  0
    2.4859   -1.2263    1.6121 H   0  0  0  0  0  0  0  0  0  0  0  0
    3.1257    0.4113    1.4739 H   0  0  0  0  0  0  0  0  0  0  0  0
    0.7627    0.1819    2.4412 H   0  0  0  0  0  0  0  0  0  0  0  0
    0.9949    1.3930    1.1901 H   0  0  0  0  0  0  0  0  0  0  0  0
   -0.3536    0.6137   -1.4929 H   0  0  0  0  0  0  0  0  0  0  0  0
    0.0171   -1.0989   -1.5561 H   0  0  0  0  0  0  0  0  0  0  0  0
    1.9769   -0.0025   -2.3009 H   0  0  0  0  0  0  0  0  0  0  0  0
    1.8703    1.2608   -1.1048 H   0  0  0  0  0  0  0  0  0  0  0  0
    0.3917   -4.1730    1.4942 H   0  0  0  0  0  0  0  0  0  0  0  0
   -0.6550   -5.2694    3.4718 H   0  0  0  0  0  0  0  0  0  0  0  0
   -2.9080   -1.7188    4.2819 H   0  0  0  0  0  0  0  0  0  0  0  0
   -1.7143    2.2477    1.5746 H   0  0  0  0  0  0  0  0  0  0  0  0
   -0.9348    2.1481   -0.0210 H   0  0  0  0  0  0  0  0  0  0  0  0
   -2.2638    4.3129    0.6104 H   0  0  0  0  0  0  0  0  0  0  0  0
   -3.5334    6.3660    0.1787 H   0  0  0  0  0  0  0  0  0  0  0  0
   -6.6600    4.0759   -1.6962 H   0  0  0  0  0  0  0  0  0  0  0  0
   -5.4016    1.9985   -1.2714 H   0  0  0  0  0  0  0  0  0  0  0  0
  1  2  1  0
  2  3  2  0
  3  4  1  0
  4  5  1  0
  5  6  1  0
  5  7  2  0
  7  8  1  0
  8  9  2  0
  8 10  1  0
 10 11  1  0
 11 12  1  0
 12 13  1  0
 13 14  1  0
 14 15  1  0
 13 16  1  0
 16 17  1  0
 17 18  2  0
 18 19  1  0
 19 20  2  0
 20 21  1  0
 20 22  1  0
 22 23  2  0
 23 24  1  0
 24 25  2  0
 24 26  1  0
 26 27  1  0
 27 28  1  0
 28 29  1  0
 29 30  2  0
 30 31  1  0
 31 32  2  0
 32 33  1  0
 32 34  1  0
 34 35  2  0
 28 36  2  0
 36 37  1  0
  7  2  1  0
 15 10  1  0
 23 17  1  0
 37 26  1  0
 26 13  1  0
 35 29  1  0
  1 38  1  0
  1 39  1  0
  1 40  1  0
  6 41  1  0
  6 42  1  0
  6 43  1  0
 11 44  1  0
 11 45  1  0
 12 46  1  0
 12 47  1  0
 14 48  1  0
 14 49  1  0
 15 50  1  0
 15 51  1  0
 18 52  1  0
 19 53  1  0
 22 54  1  0
 27 55  1  0
 27 56  1  0
 30 57  1  0
 31 58  1  0
 34 59  1  0
 35 60  1  0
M  END
$$$$
