
     RDKit          3D

 34 36  0  0  0  0  0  0  0  0999 V2000
   -0.1775   -2.3216    0.0531 O   0  0  0  0  0  0  0  0  0  0  0  0
    0.2921   -1.1917    0.0557 C   0  0  0  0  0  0  0  0  0  0  0  0
    1.7480   -1.0266    0.2383 C   0  0  0  0  0  0  0  0  0  0  0  0
    2.6145   -1.6779   -0.6455 C   0  0  0  0  0  0  0  0  0  0  0  0
    3.9952   -1.5481   -0.4812 C   0  0  0  0  0  0  0  0  0  0  0  0
    4.4987   -0.7832    0.5719 C   0  0  0  0  0  0  0  0  0  0  0  0
    6.1997   -0.6227    0.7723 Cl  0  0  0  0  0  0  0  0  0  0  0  0
    3.6348   -0.1532    1.4695 C   0  0  0  0  0  0  0  0  0  0  0  0
    2.2533   -0.2801    1.3086 C   0  0  0  0  0  0  0  0  0  0  0  0
   -0.4802   -0.0738   -0.1261 N   0  0  0  0  0  0  0  0  0  0  0  0
   -0.0417    1.3119   -0.3472 C   0  0  0  0  0  0  0  0  0  0  0  0
   -0.5272    2.0857    0.8535 C   0  0  0  0  0  0  0  0  0  0  0  0
   -1.8650    2.1836    0.7653 C   0  0  0  0  0  0  0  0  0  0  0  0
   -2.2751    1.4005   -0.4723 C   0  0  0  0  0  0  0  0  0  0  0  0
   -1.0786    1.8150   -1.3524 C   0  0  0  0  0  0  0  0  0  0  0  0
   -1.9968   -0.1365   -0.2524 C   0  0  0  0  0  0  0  0  0  0  0  0
   -2.5434   -0.9439   -1.4321 C   0  0  0  0  0  0  0  0  0  0  0  0
   -3.8451   -0.6343   -1.6610 F   0  0  0  0  0  0  0  0  0  0  0  0
   -1.8879   -0.6559   -2.5847 F   0  0  0  0  0  0  0  0  0  0  0  0
   -2.4820   -2.2791   -1.2844 F   0  0  0  0  0  0  0  0  0  0  0  0
   -2.7507   -0.6782    0.9617 C   0  0  0  0  0  0  0  0  0  0  0  0
   -2.6851   -2.0155    1.1063 F   0  0  0  0  0  0  0  0  0  0  0  0
   -4.0672   -0.3549    0.8915 F   0  0  0  0  0  0  0  0  0  0  0  0
   -2.2958   -0.1503    2.1263 F   0  0  0  0  0  0  0  0  0  0  0  0
    2.2163   -2.2880   -1.4536 H   0  0  0  0  0  0  0  0  0  0  0  0
    4.6700   -2.0511   -1.1693 H   0  0  0  0  0  0  0  0  0  0  0  0
    4.0317    0.4250    2.3002 H   0  0  0  0  0  0  0  0  0  0  0  0
    1.5810    0.1830    2.0262 H   0  0  0  0  0  0  0  0  0  0  0  0
    1.0010    1.4536   -0.6295 H   0  0  0  0  0  0  0  0  0  0  0  0
    0.0955    2.4824    1.6410 H   0  0  0  0  0  0  0  0  0  0  0  0
   -2.5296    2.6520    1.4773 H   0  0  0  0  0  0  0  0  0  0  0  0
   -3.2532    1.6720   -0.8728 H   0  0  0  0  0  0  0  0  0  0  0  0
   -1.0269    1.3055   -2.3164 H   0  0  0  0  0  0  0  0  0  0  0  0
   -1.0227    2.8964   -1.5379 H   0  0  0  0  0  0  0  0  0  0  0  0
  1  2  2  0
  2  3  1  0
  3  4  2  0
  4  5  1  0
  5  6  2  0
  6  7  1  0
  6  8  1  0
  8  9  2  0
  2 10  1  0
 10 11  1  0
 11 12  1  0
 12 13  2  0
 13 14  1  0
 14 15  1  0
 14 16  1  0
 16 17  1  0
 17 18  1  0
 17 19  1  0
 17 20  1  0
 16 21  1  0
 21 22  1  0
 21 23  1  0
 21 24  1  0
  9  3  1  0
 16 10  1  0
 15 11  1  0
  4 25  1  0
  5 26  1  0
  8 27  1  0
  9 28  1  0
 11 29  1  0
 12 30  1  0
 13 31  1  0
 14 32  1  0
 15 33  1  0
 15 34  1  0
M  END
$$$$
