
     RDKit          3D

 71 72  0  0  0  0  0  0  0  0999 V2000
   -5.1793   -3.9618   -3.2842 C   0  0  0  0  0  0  0  0  0  0  0  0
   -4.3957   -2.8537   -2.8528 O   0  0  0  0  0  0  0  0  0  0  0  0
   -3.8531   -2.9070   -1.5939 C   0  0  0  0  0  0  0  0  0  0  0  0
   -4.0553   -3.9678   -0.7056 C   0  0  0  0  0  0  0  0  0  0  0  0
   -3.3893   -3.9925    0.5228 C   0  0  0  0  0  0  0  0  0  0  0  0
   -2.5314   -2.9584    0.8747 C   0  0  0  0  0  0  0  0  0  0  0  0
   -2.3323   -1.8530    0.0228 C   0  0  0  0  0  0  0  0  0  0  0  0
   -1.3765   -0.7578    0.4932 C   0  0  0  0  0  0  0  0  0  0  0  0
   -1.8497    0.7100    0.2856 C   0  0  0  0  0  0  0  0  0  0  0  0
   -3.0336    1.0416    0.2567 O   0  0  0  0  0  0  0  0  0  0  0  0
   -0.8146    1.6274    0.3384 N   0  0  0  0  0  0  0  0  0  0  0  0
   -0.9413    3.0789    0.1318 C   0  0  0  0  0  0  0  0  0  0  0  0
    0.4506    3.7045    0.3341 C   0  0  0  0  0  0  0  0  0  0  0  0
   -1.9039    3.7134    1.1492 C   0  0  0  0  0  0  0  0  0  0  0  0
   -1.4175    3.3686   -1.2992 C   0  0  0  0  0  0  0  0  0  0  0  0
    0.0537   -1.0108    0.1073 N   0  0  0  0  0  0  0  0  0  0  0  0
    1.0426   -1.3523    1.0260 C   0  0  0  0  0  0  0  0  0  0  0  0
    2.1391   -1.8028    0.6823 O   0  0  0  0  0  0  0  0  0  0  0  0
    0.7661   -1.1067    2.5013 C   0  0  0  0  0  0  0  0  0  0  0  0
    2.0352   -1.1945    3.3474 C   0  0  0  0  0  0  0  0  0  0  0  0
    2.9328    0.0047    3.1005 C   0  0  0  0  0  0  0  0  0  0  0  0
    2.8139    1.0303    3.7711 O   0  0  0  0  0  0  0  0  0  0  0  0
    3.7803   -0.1648    2.0383 N   0  0  0  0  0  0  0  0  0  0  0  0
    4.7550    0.7214    1.6390 C   0  0  0  0  0  0  0  0  0  0  0  0
    5.1925    1.9087    2.2648 C   0  0  0  0  0  0  0  0  0  0  0  0
    6.2003    2.3708    1.4580 C   0  0  0  0  0  0  0  0  0  0  0  0
    7.1122    3.5265    1.5052 C   0  0  0  0  0  0  0  0  0  0  0  0
    6.3582    1.5230    0.4099 O   0  0  0  0  0  0  0  0  0  0  0  0
    5.4568    0.4838    0.5273 N   0  0  0  0  0  0  0  0  0  0  0  0
    0.3772   -1.0472   -1.3431 C   0  0  0  0  0  0  0  0  0  0  0  0
    1.5968   -0.1868   -1.7181 C   0  0  0  0  0  0  0  0  0  0  0  0
    0.5434   -2.4703   -1.8829 C   0  0  0  0  0  0  0  0  0  0  0  0
   -3.0184   -1.8315   -1.2117 C   0  0  0  0  0  0  0  0  0  0  0  0
   -2.7647   -0.7708   -2.0478 O   0  0  0  0  0  0  0  0  0  0  0  0
   -3.9403   -0.1058   -2.5075 C   0  0  0  0  0  0  0  0  0  0  0  0
   -5.4740   -3.7822   -4.3217 H   0  0  0  0  0  0  0  0  0  0  0  0
   -6.0907   -4.0468   -2.6798 H   0  0  0  0  0  0  0  0  0  0  0  0
   -4.6028   -4.8917   -3.2650 H   0  0  0  0  0  0  0  0  0  0  0  0
   -4.7056   -4.8038   -0.9421 H   0  0  0  0  0  0  0  0  0  0  0  0
   -3.5425   -4.8254    1.2048 H   0  0  0  0  0  0  0  0  0  0  0  0
   -2.0256   -3.0134    1.8347 H   0  0  0  0  0  0  0  0  0  0  0  0
   -1.4310   -0.8165    1.5863 H   0  0  0  0  0  0  0  0  0  0  0  0
    0.1167    1.2371    0.2530 H   0  0  0  0  0  0  0  0  0  0  0  0
    0.4326    4.7896    0.1810 H   0  0  0  0  0  0  0  0  0  0  0  0
    1.1873    3.2829   -0.3589 H   0  0  0  0  0  0  0  0  0  0  0  0
    0.8131    3.5148    1.3529 H   0  0  0  0  0  0  0  0  0  0  0  0
   -2.9405    3.3856    1.0017 H   0  0  0  0  0  0  0  0  0  0  0  0
   -1.8992    4.8088    1.0646 H   0  0  0  0  0  0  0  0  0  0  0  0
   -1.6259    3.4464    2.1755 H   0  0  0  0  0  0  0  0  0  0  0  0
   -2.4455    3.0283   -1.4600 H   0  0  0  0  0  0  0  0  0  0  0  0
   -1.3839    4.4374   -1.5243 H   0  0  0  0  0  0  0  0  0  0  0  0
   -0.7902    2.8499   -2.0305 H   0  0  0  0  0  0  0  0  0  0  0  0
    0.0675   -1.8805    2.8417 H   0  0  0  0  0  0  0  0  0  0  0  0
    0.3097   -0.1193    2.6363 H   0  0  0  0  0  0  0  0  0  0  0  0
    1.7714   -1.1946    4.4115 H   0  0  0  0  0  0  0  0  0  0  0  0
    2.5864   -2.1235    3.1608 H   0  0  0  0  0  0  0  0  0  0  0  0
    3.6518   -0.9597    1.4104 H   0  0  0  0  0  0  0  0  0  0  0  0
    4.8448    2.3526    3.1847 H   0  0  0  0  0  0  0  0  0  0  0  0
    8.1254    3.2056    1.7622 H   0  0  0  0  0  0  0  0  0  0  0  0
    7.1478    4.0315    0.5347 H   0  0  0  0  0  0  0  0  0  0  0  0
    6.7808    4.2513    2.2542 H   0  0  0  0  0  0  0  0  0  0  0  0
   -0.4558   -0.5767   -1.8671 H   0  0  0  0  0  0  0  0  0  0  0  0
    1.6506   -0.0744   -2.8099 H   0  0  0  0  0  0  0  0  0  0  0  0
    2.5448   -0.6185   -1.3836 H   0  0  0  0  0  0  0  0  0  0  0  0
    1.5212    0.8168   -1.2905 H   0  0  0  0  0  0  0  0  0  0  0  0
    0.6824   -2.4544   -2.9704 H   0  0  0  0  0  0  0  0  0  0  0  0
   -0.3377   -3.0833   -1.6742 H   0  0  0  0  0  0  0  0  0  0  0  0
    1.4047   -2.9830   -1.4442 H   0  0  0  0  0  0  0  0  0  0  0  0
   -4.7970   -0.2217   -1.8326 H   0  0  0  0  0  0  0  0  0  0  0  0
   -4.1901   -0.4496   -3.5147 H   0  0  0  0  0  0  0  0  0  0  0  0
   -3.7106    0.9629   -2.5744 H   0  0  0  0  0  0  0  0  0  0  0  0
  1  2  1  0
  2  3  1  0
  3  4  2  0
  4  5  1  0
  5  6  2  0
  6  7  1  0
  7  8  1  0
  8  9  1  0
  9 10  2  0
  9 11  1  0
 11 12  1  0
 12 13  1  0
 12 14  1  0
 12 15  1  0
  8 16  1  0
 16 17  1  0
 17 18  2  0
 17 19  1  0
 19 20  1  0
 20 21  1  0
 21 22  2  0
 21 23  1  0
 23 24  1  0
 24 25  1  0
 25 26  2  0
 26 27  1  0
 26 28  1  0
 28 29  1  0
 16 30  1  0
 30 31  1  0
 30 32  1  0
  7 33  2  0
 33 34  1  0
 34 35  1  0
 33  3  1  0
 29 24  2  0
  1 36  1  0
  1 37  1  0
  1 38  1  0
  4 39  1  0
  5 40  1  0
  6 41  1  0
  8 42  1  0
 11 43  1  0
 13 44  1  0
 13 45  1  0
 13 46  1  0
 14 47  1  0
 14 48  1  0
 14 49  1  0
 15 50  1  0
 15 51  1  0
 15 52  1  0
 19 53  1  0
 19 54  1  0
 20 55  1  0
 20 56  1  0
 23 57  1  0
 25 58  1  0
 27 59  1  0
 27 60  1  0
 27 61  1  0
 30 62  1  0
 31 63  1  0
 31 64  1  0
 31 65  1  0
 32 66  1  0
 32 67  1  0
 32 68  1  0
 35 69  1  0
 35 70  1  0
 35 71  1  0
M  END
$$$$
