
     RDKit          3D

 40 42  0  0  0  0  0  0  0  0999 V2000
   -5.2592   -1.2317   -0.5672 C   0  0  0  0  0  0  0  0  0  0  0  0
   -3.9298   -0.6477   -0.1890 C   0  0  0  0  0  0  0  0  0  0  0  0
   -3.2205    0.1431   -1.0929 C   0  0  0  0  0  0  0  0  0  0  0  0
   -1.9583    0.6745   -0.7708 C   0  0  0  0  0  0  0  0  0  0  0  0
   -1.3024    1.5539   -1.8055 C   0  0  0  0  0  0  0  0  0  0  0  0
   -1.3953    0.3933    0.5029 C   0  0  0  0  0  0  0  0  0  0  0  0
    0.2344    1.0760    0.8979 S   0  0  0  0  0  6  0  0  0  0  0  0
    0.6313    0.6787    2.2330 O   0  0  0  0  0  0  0  0  0  0  0  0
    0.1967    2.4822    0.5497 O   0  0  0  0  0  0  0  0  0  0  0  0
    1.2382    0.2307   -0.1935 N   0  0  0  0  0  0  0  0  0  0  0  0
    1.2360   -1.2652   -0.0649 C   0  0  0  0  0  0  0  0  0  0  0  0
    2.6037   -1.7402   -0.5802 C   0  0  0  0  0  0  0  0  0  0  0  0
    3.4245   -0.4970   -0.4808 C   0  0  0  0  0  0  0  0  0  0  0  0
    4.7960   -0.3747   -0.6449 C   0  0  0  0  0  0  0  0  0  0  0  0
    5.3567    0.9020   -0.5923 C   0  0  0  0  0  0  0  0  0  0  0  0
    4.5432    2.0288   -0.4026 C   0  0  0  0  0  0  0  0  0  0  0  0
    3.1598    1.8923   -0.2501 C   0  0  0  0  0  0  0  0  0  0  0  0
    2.6182    0.6189   -0.2559 C   0  0  0  0  0  0  0  0  0  0  0  0
   -2.1062   -0.4075    1.4300 C   0  0  0  0  0  0  0  0  0  0  0  0
   -1.6204   -0.7498    2.8126 C   0  0  0  0  0  0  0  0  0  0  0  0
   -3.3624   -0.9243    1.0561 C   0  0  0  0  0  0  0  0  0  0  0  0
   -5.1174   -2.2089   -1.0389 H   0  0  0  0  0  0  0  0  0  0  0  0
   -5.7907   -0.5756   -1.2646 H   0  0  0  0  0  0  0  0  0  0  0  0
   -5.8981   -1.3529    0.3139 H   0  0  0  0  0  0  0  0  0  0  0  0
   -3.6626    0.3565   -2.0658 H   0  0  0  0  0  0  0  0  0  0  0  0
   -1.8294    1.4978   -2.7651 H   0  0  0  0  0  0  0  0  0  0  0  0
   -0.2755    1.2445   -2.0091 H   0  0  0  0  0  0  0  0  0  0  0  0
   -1.3276    2.6003   -1.4882 H   0  0  0  0  0  0  0  0  0  0  0  0
    1.1219   -1.5661    0.9829 H   0  0  0  0  0  0  0  0  0  0  0  0
    0.4222   -1.7060   -0.6484 H   0  0  0  0  0  0  0  0  0  0  0  0
    2.9992   -2.5568    0.0304 H   0  0  0  0  0  0  0  0  0  0  0  0
    2.5355   -2.0599   -1.6254 H   0  0  0  0  0  0  0  0  0  0  0  0
    5.4207   -1.2444   -0.8219 H   0  0  0  0  0  0  0  0  0  0  0  0
    6.4298    1.0283   -0.7160 H   0  0  0  0  0  0  0  0  0  0  0  0
    4.9901    3.0202   -0.3841 H   0  0  0  0  0  0  0  0  0  0  0  0
    2.5442    2.7773   -0.1337 H   0  0  0  0  0  0  0  0  0  0  0  0
   -2.3505   -1.3609    3.3558 H   0  0  0  0  0  0  0  0  0  0  0  0
   -1.4778    0.1578    3.4066 H   0  0  0  0  0  0  0  0  0  0  0  0
   -0.7003   -1.3391    2.7645 H   0  0  0  0  0  0  0  0  0  0  0  0
   -3.9175   -1.5488    1.7560 H   0  0  0  0  0  0  0  0  0  0  0  0
  1  2  1  0
  2  3  2  0
  3  4  1  0
  4  5  1  0
  4  6  2  0
  6  7  1  0
  7  8  2  0
  7  9  2  0
  7 10  1  0
 10 11  1  0
 11 12  1  0
 12 13  1  0
 13 14  2  0
 14 15  1  0
 15 16  2  0
 16 17  1  0
 17 18  2  0
  6 19  1  0
 19 20  1  0
 19 21  2  0
 21  2  1  0
 18 10  1  0
 18 13  1  0
  1 22  1  0
  1 23  1  0
  1 24  1  0
  3 25  1  0
  5 26  1  0
  5 27  1  0
  5 28  1  0
 11 29  1  0
 11 30  1  0
 12 31  1  0
 12 32  1  0
 14 33  1  0
 15 34  1  0
 16 35  1  0
 17 36  1  0
 20 37  1  0
 20 38  1  0
 20 39  1  0
 21 40  1  0
M  END
$$$$
