
     RDKit          3D

 36 38  0  0  0  0  0  0  0  0999 V2000
   -2.0820    3.4374    0.9707 C   0  0  0  0  0  0  0  0  0  0  0  0
   -2.2809    2.1728    0.3397 O   0  0  0  0  0  0  0  0  0  0  0  0
   -1.1535    1.4065    0.2586 C   0  0  0  0  0  0  0  0  0  0  0  0
   -0.0572    1.7568    0.6833 O   0  0  0  0  0  0  0  0  0  0  0  0
   -1.3876    0.1206   -0.3933 C   0  0  0  0  0  0  0  0  0  0  0  0
   -0.3800   -0.8231   -0.6163 C   0  0  0  0  0  0  0  0  0  0  0  0
    0.9525   -0.7009   -0.2633 N   0  0  0  0  0  0  0  0  0  0  0  0
    1.9808   -1.6022   -0.4623 C   0  0  0  0  0  0  0  0  0  0  0  0
    1.9227   -2.7031   -0.9972 O   0  0  0  0  0  0  0  0  0  0  0  0
    3.2589   -1.0856    0.0665 C   0  0  0  0  0  0  0  0  0  0  0  0
    4.5217   -1.7331    0.0405 C   0  0  0  0  0  0  0  0  0  0  0  0
    5.3931   -0.8611    0.6474 C   0  0  0  0  0  0  0  0  0  0  0  0
    4.6502    0.2255    0.9971 N   0  0  0  0  0  0  0  0  0  0  0  0
    5.1164    1.4166    1.6653 C   0  0  0  0  0  0  0  0  0  0  0  0
    3.3516    0.1235    0.6598 N   0  0  0  0  0  0  0  0  0  0  0  0
   -0.9525   -2.2314   -1.4140 S   0  0  0  0  0  0  0  0  0  0  0  0
   -2.4988   -1.6171   -1.4627 C   0  0  0  0  0  0  0  0  0  0  0  0
   -2.6237   -0.3801   -0.8976 C   0  0  0  0  0  0  0  0  0  0  0  0
   -4.0297    0.0966   -0.9815 C   0  0  0  0  0  0  0  0  0  0  0  0
   -4.8016   -1.1996   -1.3829 C   0  0  0  0  0  0  0  0  0  0  0  0
   -3.7574   -2.1705   -2.0111 C   0  0  0  0  0  0  0  0  0  0  0  0
   -1.3639    4.0398    0.4056 H   0  0  0  0  0  0  0  0  0  0  0  0
   -3.0403    3.9639    0.9829 H   0  0  0  0  0  0  0  0  0  0  0  0
   -1.7487    3.3026    2.0044 H   0  0  0  0  0  0  0  0  0  0  0  0
    1.2342    0.1619    0.2097 H   0  0  0  0  0  0  0  0  0  0  0  0
    4.7450   -2.7078   -0.3716 H   0  0  0  0  0  0  0  0  0  0  0  0
    6.4525   -0.9265    0.8521 H   0  0  0  0  0  0  0  0  0  0  0  0
    6.1876    1.3280    1.8622 H   0  0  0  0  0  0  0  0  0  0  0  0
    4.9259    2.2735    1.0143 H   0  0  0  0  0  0  0  0  0  0  0  0
    4.5709    1.5192    2.6066 H   0  0  0  0  0  0  0  0  0  0  0  0
   -4.4036    0.4930   -0.0336 H   0  0  0  0  0  0  0  0  0  0  0  0
   -4.1294    0.8587   -1.7615 H   0  0  0  0  0  0  0  0  0  0  0  0
   -5.6375   -0.9930   -2.0585 H   0  0  0  0  0  0  0  0  0  0  0  0
   -5.2174   -1.6607   -0.4771 H   0  0  0  0  0  0  0  0  0  0  0  0
   -3.7724   -2.0964   -3.1033 H   0  0  0  0  0  0  0  0  0  0  0  0
   -3.9456   -3.2044   -1.7095 H   0  0  0  0  0  0  0  0  0  0  0  0
  1  2  1  0
  2  3  1  0
  3  4  2  0
  3  5  1  0
  5  6  2  0
  6  7  1  0
  7  8  1  0
  8  9  2  0
  8 10  1  0
 10 11  1  0
 11 12  2  0
 12 13  1  0
 13 14  1  0
 13 15  1  0
  6 16  1  0
 16 17  1  0
 17 18  2  0
 18 19  1  0
 19 20  1  0
 20 21  1  0
 18  5  1  0
 15 10  2  0
 21 17  1  0
  1 22  1  0
  1 23  1  0
  1 24  1  0
  7 25  1  0
 11 26  1  0
 12 27  1  0
 14 28  1  0
 14 29  1  0
 14 30  1  0
 19 31  1  0
 19 32  1  0
 20 33  1  0
 20 34  1  0
 21 35  1  0
 21 36  1  0
M  END
$$$$
