
     RDKit          3D

 56 58  0  0  0  0  0  0  0  0999 V2000
   -7.0731   -1.1922   -0.3987 C   0  0  0  0  0  0  0  0  0  0  0  0
   -6.7393   -0.2682    0.7657 C   0  0  0  0  0  0  0  0  0  0  0  0
   -5.7584    0.7595    0.3832 N   0  0  0  0  0  0  0  0  0  0  0  0
   -6.2726    2.1329    0.2527 C   0  0  0  0  0  0  0  0  0  0  0  0
   -6.8648    2.3798   -1.1285 C   0  0  0  0  0  0  0  0  0  0  0  0
   -4.4225    0.4571    0.1468 C   0  0  0  0  0  0  0  0  0  0  0  0
   -3.5621    1.3376   -0.5297 C   0  0  0  0  0  0  0  0  0  0  0  0
   -2.2123    1.0383   -0.7720 C   0  0  0  0  0  0  0  0  0  0  0  0
   -1.6593   -0.1611   -0.3283 C   0  0  0  0  0  0  0  0  0  0  0  0
   -0.2476   -0.4443   -0.6128 C   0  0  0  0  0  0  0  0  0  0  0  0
    0.5733   -1.0371    0.2689 C   0  0  0  0  0  0  0  0  0  0  0  0
    1.9909   -1.2677   -0.0272 C   0  0  0  0  0  0  0  0  0  0  0  0
    2.3159   -2.2876   -0.9211 C   0  0  0  0  0  0  0  0  0  0  0  0
    3.6383   -2.5441   -1.2295 C   0  0  0  0  0  0  0  0  0  0  0  0
    4.6361   -1.7705   -0.6502 C   0  0  0  0  0  0  0  0  0  0  0  0
    5.9789   -2.0203   -0.9674 C   0  0  0  0  0  0  0  0  0  0  0  0
    7.0007   -1.2495   -0.4128 C   0  0  0  0  0  0  0  0  0  0  0  0
    6.6885   -0.2170    0.4612 C   0  0  0  0  0  0  0  0  0  0  0  0
    7.5792    0.6232    1.0674 O   0  0  0  0  0  0  0  0  0  0  0  0
    8.9601    0.4313    0.7735 C   0  0  0  0  0  0  0  0  0  0  0  0
    5.3494    0.0345    0.7874 C   0  0  0  0  0  0  0  0  0  0  0  0
    4.2943   -0.7284    0.2540 C   0  0  0  0  0  0  0  0  0  0  0  0
    2.9678   -0.5077    0.5551 N   0  0  0  0  0  4  0  0  0  0  0  0
    2.5788    0.5745    1.5124 C   0  0  0  0  0  0  0  0  0  0  0  0
    2.4578    1.8975    0.7787 C   0  0  0  0  0  0  0  0  0  0  0  0
   -2.4915   -1.0625    0.3315 C   0  0  0  0  0  0  0  0  0  0  0  0
   -3.8415   -0.7515    0.5633 C   0  0  0  0  0  0  0  0  0  0  0  0
   -7.8427   -1.9121   -0.1010 H   0  0  0  0  0  0  0  0  0  0  0  0
   -7.4534   -0.6270   -1.2561 H   0  0  0  0  0  0  0  0  0  0  0  0
   -6.1999   -1.7577   -0.7368 H   0  0  0  0  0  0  0  0  0  0  0  0
   -7.6725    0.2067    1.0935 H   0  0  0  0  0  0  0  0  0  0  0  0
   -6.3945   -0.8416    1.6338 H   0  0  0  0  0  0  0  0  0  0  0  0
   -5.4991    2.8769    0.4788 H   0  0  0  0  0  0  0  0  0  0  0  0
   -7.0511    2.3096    1.0071 H   0  0  0  0  0  0  0  0  0  0  0  0
   -7.7437    1.7487   -1.2967 H   0  0  0  0  0  0  0  0  0  0  0  0
   -7.1809    3.4248   -1.2220 H   0  0  0  0  0  0  0  0  0  0  0  0
   -6.1444    2.1675   -1.9257 H   0  0  0  0  0  0  0  0  0  0  0  0
   -3.9295    2.2833   -0.9172 H   0  0  0  0  0  0  0  0  0  0  0  0
   -1.6126    1.7655   -1.3140 H   0  0  0  0  0  0  0  0  0  0  0  0
    0.1074   -0.1050   -1.5851 H   0  0  0  0  0  0  0  0  0  0  0  0
    0.2255   -1.3607    1.2473 H   0  0  0  0  0  0  0  0  0  0  0  0
    1.5341   -2.8924   -1.3797 H   0  0  0  0  0  0  0  0  0  0  0  0
    3.8775   -3.3462   -1.9278 H   0  0  0  0  0  0  0  0  0  0  0  0
    6.2507   -2.8199   -1.6571 H   0  0  0  0  0  0  0  0  0  0  0  0
    8.0264   -1.4796   -0.6892 H   0  0  0  0  0  0  0  0  0  0  0  0
    9.1592    0.5726   -0.2941 H   0  0  0  0  0  0  0  0  0  0  0  0
    9.5269    1.1897    1.3226 H   0  0  0  0  0  0  0  0  0  0  0  0
    9.3000   -0.5528    1.1142 H   0  0  0  0  0  0  0  0  0  0  0  0
    5.1806    0.8622    1.4695 H   0  0  0  0  0  0  0  0  0  0  0  0
    3.3129    0.6136    2.3216 H   0  0  0  0  0  0  0  0  0  0  0  0
    1.6382    0.3149    2.0053 H   0  0  0  0  0  0  0  0  0  0  0  0
    2.1698    2.6906    1.4757 H   0  0  0  0  0  0  0  0  0  0  0  0
    1.7016    1.8483   -0.0104 H   0  0  0  0  0  0  0  0  0  0  0  0
    3.4025    2.1861    0.3086 H   0  0  0  0  0  0  0  0  0  0  0  0
   -2.1235   -2.0278    0.6685 H   0  0  0  0  0  0  0  0  0  0  0  0
   -4.4305   -1.4946    1.0925 H   0  0  0  0  0  0  0  0  0  0  0  0
  1  2  1  0
  2  3  1  0
  3  4  1  0
  4  5  1  0
  3  6  1  0
  6  7  2  0
  7  8  1  0
  8  9  2  0
  9 10  1  0
 10 11  2  3
 11 12  1  0
 12 13  2  0
 13 14  1  0
 14 15  2  0
 15 16  1  0
 16 17  2  0
 17 18  1  0
 18 19  1  0
 19 20  1  0
 18 21  2  0
 21 22  1  0
 22 23  2  0
 23 24  1  0
 24 25  1  0
  9 26  1  0
 26 27  2  0
 27  6  1  0
 23 12  1  0
 22 15  1  0
  1 28  1  0
  1 29  1  0
  1 30  1  0
  2 31  1  0
  2 32  1  0
  4 33  1  0
  4 34  1  0
  5 35  1  0
  5 36  1  0
  5 37  1  0
  7 38  1  0
  8 39  1  0
 10 40  1  0
 11 41  1  0
 13 42  1  0
 14 43  1  0
 16 44  1  0
 17 45  1  0
 20 46  1  0
 20 47  1  0
 20 48  1  0
 21 49  1  0
 24 50  1  0
 24 51  1  0
 25 52  1  0
 25 53  1  0
 25 54  1  0
 26 55  1  0
 27 56  1  0
M  CHG  1  23   1
M  END
$$$$
