
     RDKit          3D

 30 31  0  0  0  0  0  0  0  0999 V2000
    4.4841   -0.8250   -1.5605 C   0  0  0  0  0  0  0  0  0  0  0  0
    3.2701   -0.9688   -2.2865 O   0  0  0  0  0  0  0  0  0  0  0  0
    2.1226   -1.0928   -1.5526 C   0  0  0  0  0  0  0  0  0  0  0  0
    2.0332   -1.0837   -0.1606 C   0  0  0  0  0  0  0  0  0  0  0  0
    0.7884   -1.2204    0.4658 C   0  0  0  0  0  0  0  0  0  0  0  0
   -0.3809   -1.3649   -0.2932 C   0  0  0  0  0  0  0  0  0  0  0  0
   -1.6880   -1.5319    0.3679 C   0  0  0  0  0  0  0  0  0  0  0  0
   -2.2417   -2.8525    0.3919 C   0  0  0  0  0  0  0  0  0  0  0  0
   -2.7151   -3.9118    0.4299 N   0  0  0  0  0  0  0  0  0  0  0  0
   -2.3808   -0.5374    0.9643 C   0  0  0  0  0  0  0  0  0  0  0  0
   -2.0664    0.8972    1.0621 C   0  0  0  0  0  0  0  0  0  0  0  0
   -2.7450    1.6944    1.9812 C   0  0  0  0  0  0  0  0  0  0  0  0
   -2.4503    3.0552    2.0443 C   0  0  0  0  0  0  0  0  0  0  0  0
   -1.4943    3.5841    1.1876 C   0  0  0  0  0  0  0  0  0  0  0  0
   -0.8734    2.7252    0.2992 C   0  0  0  0  0  0  0  0  0  0  0  0
   -1.1435    1.4042    0.2198 N   0  0  0  0  0  0  0  0  0  0  0  0
   -0.2864   -1.3750   -1.6894 C   0  0  0  0  0  0  0  0  0  0  0  0
    0.9582   -1.2386   -2.3105 C   0  0  0  0  0  0  0  0  0  0  0  0
    4.6792   -1.7049   -0.9386 H   0  0  0  0  0  0  0  0  0  0  0  0
    4.4791    0.0910   -0.9605 H   0  0  0  0  0  0  0  0  0  0  0  0
    5.2995   -0.7429   -2.2857 H   0  0  0  0  0  0  0  0  0  0  0  0
    2.9088   -0.9687    0.4689 H   0  0  0  0  0  0  0  0  0  0  0  0
    0.7388   -1.2035    1.5521 H   0  0  0  0  0  0  0  0  0  0  0  0
   -3.3224   -0.7992    1.4471 H   0  0  0  0  0  0  0  0  0  0  0  0
   -3.4921    1.2753    2.6474 H   0  0  0  0  0  0  0  0  0  0  0  0
   -2.9646    3.6953    2.7555 H   0  0  0  0  0  0  0  0  0  0  0  0
   -1.2409    4.6379    1.2091 H   0  0  0  0  0  0  0  0  0  0  0  0
   -0.1196    3.0835   -0.3962 H   0  0  0  0  0  0  0  0  0  0  0  0
   -1.1764   -1.4786   -2.3054 H   0  0  0  0  0  0  0  0  0  0  0  0
    1.0199   -1.2429   -3.3959 H   0  0  0  0  0  0  0  0  0  0  0  0
  1  2  1  0
  2  3  1  0
  3  4  2  0
  4  5  1  0
  5  6  2  0
  6  7  1  0
  7  8  1  0
  8  9  3  0
  7 10  2  3
 10 11  1  0
 11 12  2  0
 12 13  1  0
 13 14  2  0
 14 15  1  0
 15 16  2  0
  6 17  1  0
 17 18  2  0
 18  3  1  0
 16 11  1  0
  1 19  1  0
  1 20  1  0
  1 21  1  0
  4 22  1  0
  5 23  1  0
 10 24  1  0
 12 25  1  0
 13 26  1  0
 14 27  1  0
 15 28  1  0
 17 29  1  0
 18 30  1  0
M  END
$$$$
