
     RDKit          3D

 41 42  0  0  0  0  0  0  0  0999 V2000
   -5.0868    1.7338    0.5485 C   0  0  0  0  0  0  0  0  0  0  0  0
   -4.6545    0.3867    1.1069 C   0  0  0  0  0  0  0  0  0  0  0  0
   -3.7417   -0.3080    0.1888 N   0  0  0  0  0  0  0  0  0  0  0  0
   -4.3664   -1.1332   -0.8552 C   0  0  0  0  0  0  0  0  0  0  0  0
   -4.2226   -0.5045   -2.2349 C   0  0  0  0  0  0  0  0  0  0  0  0
   -2.3604   -0.2023    0.3192 C   0  0  0  0  0  0  0  0  0  0  0  0
   -1.7534    0.7873    1.1106 C   0  0  0  0  0  0  0  0  0  0  0  0
   -0.3597    0.9009    1.2450 C   0  0  0  0  0  0  0  0  0  0  0  0
    0.4928    0.0238    0.5777 C   0  0  0  0  0  0  0  0  0  0  0  0
    1.9547    0.0819    0.7065 C   0  0  0  0  0  0  0  0  0  0  0  0
    2.6472    1.2293    0.7778 C   0  0  0  0  0  0  0  0  0  0  0  0
    4.1227    1.3078    0.9358 C   0  0  0  0  0  0  0  0  0  0  0  0
    4.6121    2.2524    1.5488 O   0  0  0  0  0  0  0  0  0  0  0  0
    5.0041    0.2709    0.3641 C   0  0  0  0  0  0  0  0  0  0  0  0
    6.1723   -0.0883    1.0387 C   0  0  0  0  0  0  0  0  0  0  0  0
    7.0112   -1.0536    0.4872 C   0  0  0  0  0  0  0  0  0  0  0  0
    6.6548   -1.6176   -0.7281 C   0  0  0  0  0  0  0  0  0  0  0  0
    5.5417   -1.2783   -1.4164 N   0  0  0  0  0  0  0  0  0  0  0  0
    4.7477   -0.3299   -0.8613 C   0  0  0  0  0  0  0  0  0  0  0  0
   -0.0808   -0.9798   -0.2006 C   0  0  0  0  0  0  0  0  0  0  0  0
   -1.4758   -1.0809   -0.3281 C   0  0  0  0  0  0  0  0  0  0  0  0
   -4.2295    2.3774    0.3297 H   0  0  0  0  0  0  0  0  0  0  0  0
   -5.6574    1.6113   -0.3773 H   0  0  0  0  0  0  0  0  0  0  0  0
   -5.7274    2.2522    1.2689 H   0  0  0  0  0  0  0  0  0  0  0  0
   -4.2142    0.5067    2.1036 H   0  0  0  0  0  0  0  0  0  0  0  0
   -5.5486   -0.2269    1.2753 H   0  0  0  0  0  0  0  0  0  0  0  0
   -3.9671   -2.1534   -0.8462 H   0  0  0  0  0  0  0  0  0  0  0  0
   -5.4386   -1.2486   -0.6526 H   0  0  0  0  0  0  0  0  0  0  0  0
   -4.6602    0.4982   -2.2612 H   0  0  0  0  0  0  0  0  0  0  0  0
   -3.1757   -0.4169   -2.5391 H   0  0  0  0  0  0  0  0  0  0  0  0
   -4.7374   -1.1173   -2.9818 H   0  0  0  0  0  0  0  0  0  0  0  0
   -2.3522    1.5200    1.6430 H   0  0  0  0  0  0  0  0  0  0  0  0
    0.0348    1.6837    1.8883 H   0  0  0  0  0  0  0  0  0  0  0  0
    2.4509   -0.8851    0.7407 H   0  0  0  0  0  0  0  0  0  0  0  0
    2.1559    2.1976    0.7913 H   0  0  0  0  0  0  0  0  0  0  0  0
    6.4275    0.3816    1.9858 H   0  0  0  0  0  0  0  0  0  0  0  0
    7.9231   -1.3547    0.9912 H   0  0  0  0  0  0  0  0  0  0  0  0
    7.2770   -2.3750   -1.1974 H   0  0  0  0  0  0  0  0  0  0  0  0
    3.8853   -0.0612   -1.4648 H   0  0  0  0  0  0  0  0  0  0  0  0
    0.5429   -1.6984   -0.7277 H   0  0  0  0  0  0  0  0  0  0  0  0
   -1.8483   -1.8895   -0.9491 H   0  0  0  0  0  0  0  0  0  0  0  0
  1  2  1  0
  2  3  1  0
  3  4  1  0
  4  5  1  0
  3  6  1  0
  6  7  2  0
  7  8  1  0
  8  9  2  0
  9 10  1  0
 10 11  2  3
 11 12  1  0
 12 13  2  0
 12 14  1  0
 14 15  2  0
 15 16  1  0
 16 17  2  0
 17 18  1  0
 18 19  2  0
  9 20  1  0
 20 21  2  0
 21  6  1  0
 19 14  1  0
  1 22  1  0
  1 23  1  0
  1 24  1  0
  2 25  1  0
  2 26  1  0
  4 27  1  0
  4 28  1  0
  5 29  1  0
  5 30  1  0
  5 31  1  0
  7 32  1  0
  8 33  1  0
 10 34  1  0
 11 35  1  0
 15 36  1  0
 16 37  1  0
 17 38  1  0
 19 39  1  0
 20 40  1  0
 21 41  1  0
M  END
$$$$
