
     RDKit          3D

 67 72  0  0  0  0  0  0  0  0999 V2000
    3.3577    0.3905   -1.8871 O   0  0  0  0  0  0  0  0  0  0  0  0
    2.6903    0.1581   -0.8772 C   0  0  0  0  0  0  0  0  0  0  0  0
    3.2430    0.4122    0.5442 C   0  0  0  0  0  0  0  0  0  0  0  0
    4.7785    0.4982    0.5110 C   0  0  0  0  0  0  0  0  0  0  0  0
    5.3776    0.9114    1.8377 C   0  0  0  0  0  0  0  0  0  0  0  0
    5.9127   -0.0508    2.7051 C   0  0  0  0  0  0  0  0  0  0  0  0
    6.4462    0.3273    3.9378 C   0  0  0  0  0  0  0  0  0  0  0  0
    6.4518    1.6690    4.3141 C   0  0  0  0  0  0  0  0  0  0  0  0
    5.9234    2.6339    3.4586 C   0  0  0  0  0  0  0  0  0  0  0  0
    5.3874    2.2583    2.2257 C   0  0  0  0  0  0  0  0  0  0  0  0
    2.8092   -0.6634    1.4403 N   0  0  0  0  0  0  0  0  0  0  0  0
    1.4135   -0.7830    1.4602 C   0  0  0  0  0  0  0  0  0  0  0  0
    0.8909   -1.1355    2.6409 N   0  0  0  0  0  0  0  0  0  0  0  0
   -0.4311   -1.3067    2.6593 C   0  0  0  0  0  0  0  0  0  0  0  0
   -1.2674   -1.1090    1.6338 N   0  0  0  0  0  0  0  0  0  0  0  0
   -0.7289   -0.7201    0.4575 C   0  0  0  0  0  0  0  0  0  0  0  0
   -1.6330   -0.3232   -0.5564 N   0  0  0  0  0  0  0  0  0  0  0  0
   -2.9538   -1.0000   -0.4810 C   0  0  0  0  0  0  0  0  0  0  0  0
   -4.0423   -0.1536    0.2148 C   0  0  0  0  0  0  0  0  0  0  0  0
   -4.2145    1.1519   -0.4556 N   0  0  0  0  0  0  0  0  0  0  0  0
   -5.4470    1.7825   -0.4969 C   0  0  0  0  0  0  0  0  0  0  0  0
   -6.4390    1.5262    0.4648 C   0  0  0  0  0  0  0  0  0  0  0  0
   -7.6872    2.1604    0.4340 C   0  0  0  0  0  0  0  0  0  0  0  0
   -7.9779    3.0780   -0.5677 C   0  0  0  0  0  0  0  0  0  0  0  0
   -7.0185    3.3601   -1.5315 C   0  0  0  0  0  0  0  0  0  0  0  0
   -5.7725    2.7203   -1.4908 C   0  0  0  0  0  0  0  0  0  0  0  0
   -3.0530    1.6589   -1.2052 C   0  0  0  0  0  0  0  0  0  0  0  0
   -1.7305    1.1648   -0.5750 C   0  0  0  0  0  0  0  0  0  0  0  0
    0.6597   -0.5891    0.2950 C   0  0  0  0  0  0  0  0  0  0  0  0
    1.3515   -0.2652   -0.9295 N   0  0  0  0  0  0  0  0  0  0  0  0
    0.8356   -0.7017   -2.2260 C   0  0  0  0  0  0  0  0  0  0  0  0
    1.0878   -2.1753   -2.4817 C   0  0  0  0  0  0  0  0  0  0  0  0
    0.1237   -3.1374   -2.1449 C   0  0  0  0  0  0  0  0  0  0  0  0
    0.3716   -4.4963   -2.3500 C   0  0  0  0  0  0  0  0  0  0  0  0
    1.5856   -4.9013   -2.9006 C   0  0  0  0  0  0  0  0  0  0  0  0
    1.9225   -6.7400   -3.1806 Br  0  0  0  0  0  0  0  0  0  0  0  0
    2.5542   -3.9609   -3.2437 C   0  0  0  0  0  0  0  0  0  0  0  0
    2.3070   -2.6032   -3.0303 C   0  0  0  0  0  0  0  0  0  0  0  0
    2.8318    1.3719    0.8860 H   0  0  0  0  0  0  0  0  0  0  0  0
    5.1047    1.2230   -0.2461 H   0  0  0  0  0  0  0  0  0  0  0  0
    5.2054   -0.4638    0.1982 H   0  0  0  0  0  0  0  0  0  0  0  0
    5.9170   -1.1023    2.4256 H   0  0  0  0  0  0  0  0  0  0  0  0
    6.8602   -0.4262    4.6026 H   0  0  0  0  0  0  0  0  0  0  0  0
    6.8709    1.9627    5.2733 H   0  0  0  0  0  0  0  0  0  0  0  0
    5.9342    3.6815    3.7501 H   0  0  0  0  0  0  0  0  0  0  0  0
    4.9846    3.0258    1.5682 H   0  0  0  0  0  0  0  0  0  0  0  0
    3.1349   -0.6070    2.4026 H   0  0  0  0  0  0  0  0  0  0  0  0
   -0.8717   -1.6252    3.5970 H   0  0  0  0  0  0  0  0  0  0  0  0
   -2.8855   -1.9942   -0.0217 H   0  0  0  0  0  0  0  0  0  0  0  0
   -3.2706   -1.1832   -1.5169 H   0  0  0  0  0  0  0  0  0  0  0  0
   -3.7836    0.0165    1.2660 H   0  0  0  0  0  0  0  0  0  0  0  0
   -4.9713   -0.7355    0.1823 H   0  0  0  0  0  0  0  0  0  0  0  0
   -6.2471    0.8377    1.2832 H   0  0  0  0  0  0  0  0  0  0  0  0
   -8.4252    1.9380    1.2002 H   0  0  0  0  0  0  0  0  0  0  0  0
   -8.9452    3.5724   -0.5947 H   0  0  0  0  0  0  0  0  0  0  0  0
   -7.2340    4.0749   -2.3217 H   0  0  0  0  0  0  0  0  0  0  0  0
   -5.0633    2.9609   -2.2769 H   0  0  0  0  0  0  0  0  0  0  0  0
   -3.1165    1.3266   -2.2482 H   0  0  0  0  0  0  0  0  0  0  0  0
   -3.0320    2.7553   -1.1933 H   0  0  0  0  0  0  0  0  0  0  0  0
   -1.6689    1.5708    0.4454 H   0  0  0  0  0  0  0  0  0  0  0  0
   -0.8924    1.5795   -1.1470 H   0  0  0  0  0  0  0  0  0  0  0  0
    1.3315   -0.1283   -3.0202 H   0  0  0  0  0  0  0  0  0  0  0  0
   -0.2190   -0.4677   -2.3621 H   0  0  0  0  0  0  0  0  0  0  0  0
   -0.8273   -2.8349   -1.7134 H   0  0  0  0  0  0  0  0  0  0  0  0
   -0.3850   -5.2269   -2.0746 H   0  0  0  0  0  0  0  0  0  0  0  0
    3.5032   -4.2715   -3.6738 H   0  0  0  0  0  0  0  0  0  0  0  0
    3.0753   -1.8766   -3.2932 H   0  0  0  0  0  0  0  0  0  0  0  0
  1  2  2  0
  2  3  1  0
  3  4  1  0
  4  5  1  0
  5  6  2  0
  6  7  1  0
  7  8  2  0
  8  9  1  0
  9 10  2  0
  3 11  1  0
 11 12  1  0
 12 13  2  0
 13 14  1  0
 14 15  2  0
 15 16  1  0
 16 17  1  0
 17 18  1  0
 18 19  1  0
 19 20  1  0
 20 21  1  0
 21 22  2  0
 22 23  1  0
 23 24  2  0
 24 25  1  0
 25 26  2  0
 20 27  1  0
 27 28  1  0
 16 29  2  0
 29 30  1  0
 30 31  1  0
 31 32  1  0
 32 33  2  0
 33 34  1  0
 34 35  2  0
 35 36  1  0
 35 37  1  0
 37 38  2  0
 30  2  1  0
 38 32  1  0
 10  5  1  0
 29 12  1  0
 28 17  1  0
 26 21  1  0
  3 39  1  0
  4 40  1  0
  4 41  1  0
  6 42  1  0
  7 43  1  0
  8 44  1  0
  9 45  1  0
 10 46  1  0
 11 47  1  0
 14 48  1  0
 18 49  1  0
 18 50  1  0
 19 51  1  0
 19 52  1  0
 22 53  1  0
 23 54  1  0
 24 55  1  0
 25 56  1  0
 26 57  1  0
 27 58  1  0
 27 59  1  0
 28 60  1  0
 28 61  1  0
 31 62  1  0
 31 63  1  0
 33 64  1  0
 34 65  1  0
 37 66  1  0
 38 67  1  0
M  END
$$$$
