
     RDKit          3D

 52 54  0  0  0  0  0  0  0  0999 V2000
    6.2520   -0.9967   -1.2748 C   0  0  0  0  0  0  0  0  0  0  0  0
    4.9095   -0.6742   -0.6871 C   0  0  0  0  0  0  0  0  0  0  0  0
    3.8778   -0.1849   -1.4980 C   0  0  0  0  0  0  0  0  0  0  0  0
    2.6306    0.1502   -0.9534 C   0  0  0  0  0  0  0  0  0  0  0  0
    1.5412    0.6724   -1.8455 C   0  0  0  0  0  0  0  0  0  0  0  0
    2.4425    0.0213    0.4325 C   0  0  0  0  0  0  0  0  0  0  0  0
    1.2245    0.3570    0.9650 O   0  0  0  0  0  0  0  0  0  0  0  0
    1.2343    1.7114    1.4334 C   0  0  0  0  0  0  0  0  0  0  0  0
   -0.1720    2.3181    1.4158 C   0  0  0  0  0  0  0  0  0  0  0  0
   -0.3849    3.4258    1.9050 O   0  0  0  0  0  0  0  0  0  0  0  0
   -1.0981    1.5039    0.8063 N   0  0  0  0  0  0  0  0  0  0  0  0
   -2.4659    1.7260    0.5644 C   0  0  0  0  0  0  0  0  0  0  0  0
   -3.1300    2.9093    0.8859 C   0  0  0  0  0  0  0  0  0  0  0  0
   -4.4898    3.0432    0.6045 C   0  0  0  0  0  0  0  0  0  0  0  0
   -5.1880    1.9971    0.0056 C   0  0  0  0  0  0  0  0  0  0  0  0
   -4.5293    0.8112   -0.3226 C   0  0  0  0  0  0  0  0  0  0  0  0
   -3.1618    0.6588   -0.0579 C   0  0  0  0  0  0  0  0  0  0  0  0
   -2.4553   -0.5337   -0.3405 N   0  0  0  0  0  0  0  0  0  0  0  0
   -2.6687   -1.5859    0.6862 C   0  0  0  0  0  0  0  0  0  0  0  0
   -3.4185   -2.7936    0.1018 C   0  0  0  0  0  0  0  0  0  0  0  0
   -2.7603   -3.3926   -1.0281 O   0  0  0  0  0  0  0  0  0  0  0  0
   -2.0098   -2.4518   -1.8133 C   0  0  0  0  0  0  0  0  0  0  0  0
   -2.5670   -1.0225   -1.7326 C   0  0  0  0  0  0  0  0  0  0  0  0
    3.4488   -0.4989    1.2602 C   0  0  0  0  0  0  0  0  0  0  0  0
    3.2483   -0.6817    2.7368 C   0  0  0  0  0  0  0  0  0  0  0  0
    4.6896   -0.8173    0.6890 C   0  0  0  0  0  0  0  0  0  0  0  0
    6.7135   -1.8392   -0.7506 H   0  0  0  0  0  0  0  0  0  0  0  0
    6.9114   -0.1257   -1.1997 H   0  0  0  0  0  0  0  0  0  0  0  0
    6.1611   -1.2809   -2.3287 H   0  0  0  0  0  0  0  0  0  0  0  0
    4.0500   -0.0646   -2.5667 H   0  0  0  0  0  0  0  0  0  0  0  0
    1.7936    0.5431   -2.9045 H   0  0  0  0  0  0  0  0  0  0  0  0
    0.6070    0.1310   -1.6672 H   0  0  0  0  0  0  0  0  0  0  0  0
    1.3821    1.7405   -1.6646 H   0  0  0  0  0  0  0  0  0  0  0  0
    1.5864    1.7252    2.4716 H   0  0  0  0  0  0  0  0  0  0  0  0
    1.8728    2.3595    0.8166 H   0  0  0  0  0  0  0  0  0  0  0  0
   -0.7746    0.5904    0.4867 H   0  0  0  0  0  0  0  0  0  0  0  0
   -2.6141    3.7408    1.3536 H   0  0  0  0  0  0  0  0  0  0  0  0
   -5.0018    3.9680    0.8579 H   0  0  0  0  0  0  0  0  0  0  0  0
   -6.2485    2.1033   -0.2031 H   0  0  0  0  0  0  0  0  0  0  0  0
   -5.1030    0.0053   -0.7693 H   0  0  0  0  0  0  0  0  0  0  0  0
   -1.6764   -1.9125    1.0228 H   0  0  0  0  0  0  0  0  0  0  0  0
   -3.2018   -1.2058    1.5676 H   0  0  0  0  0  0  0  0  0  0  0  0
   -3.5321   -3.5700    0.8648 H   0  0  0  0  0  0  0  0  0  0  0  0
   -4.4266   -2.5043   -0.2179 H   0  0  0  0  0  0  0  0  0  0  0  0
   -2.0200   -2.8071   -2.8484 H   0  0  0  0  0  0  0  0  0  0  0  0
   -0.9704   -2.4776   -1.4646 H   0  0  0  0  0  0  0  0  0  0  0  0
   -3.6072   -1.0324   -2.0783 H   0  0  0  0  0  0  0  0  0  0  0  0
   -1.9927   -0.3630   -2.3917 H   0  0  0  0  0  0  0  0  0  0  0  0
    3.4447    0.2583    3.2625 H   0  0  0  0  0  0  0  0  0  0  0  0
    2.2295   -1.0151    2.9586 H   0  0  0  0  0  0  0  0  0  0  0  0
    3.9252   -1.4472    3.1322 H   0  0  0  0  0  0  0  0  0  0  0  0
    5.4926   -1.1917    1.3218 H   0  0  0  0  0  0  0  0  0  0  0  0
  1  2  1  0
  2  3  2  0
  3  4  1  0
  4  5  1  0
  4  6  2  0
  6  7  1  0
  7  8  1  0
  8  9  1  0
  9 10  2  0
  9 11  1  0
 11 12  1  0
 12 13  2  0
 13 14  1  0
 14 15  2  0
 15 16  1  0
 16 17  2  0
 17 18  1  0
 18 19  1  0
 19 20  1  0
 20 21  1  0
 21 22  1  0
 22 23  1  0
  6 24  1  0
 24 25  1  0
 24 26  2  0
 26  2  1  0
 17 12  1  0
 23 18  1  0
  1 27  1  0
  1 28  1  0
  1 29  1  0
  3 30  1  0
  5 31  1  0
  5 32  1  0
  5 33  1  0
  8 34  1  0
  8 35  1  0
 11 36  1  0
 13 37  1  0
 14 38  1  0
 15 39  1  0
 16 40  1  0
 19 41  1  0
 19 42  1  0
 20 43  1  0
 20 44  1  0
 22 45  1  0
 22 46  1  0
 23 47  1  0
 23 48  1  0
 25 49  1  0
 25 50  1  0
 25 51  1  0
 26 52  1  0
M  END
$$$$
