
     RDKit          3D

 63 67  0  0  0  0  0  0  0  0999 V2000
    3.0273    5.3858   -3.8695 C   0  0  0  0  0  0  0  0  0  0  0  0
    3.2623    4.9212   -2.5465 O   0  0  0  0  0  0  0  0  0  0  0  0
    3.2846    3.5665   -2.3619 C   0  0  0  0  0  0  0  0  0  0  0  0
    3.5280    3.1601   -1.0483 C   0  0  0  0  0  0  0  0  0  0  0  0
    3.5776    1.8029   -0.7182 C   0  0  0  0  0  0  0  0  0  0  0  0
    3.3835    0.8276   -1.7023 C   0  0  0  0  0  0  0  0  0  0  0  0
    3.4174   -0.5986   -1.3527 C   0  0  0  0  0  0  0  0  0  0  0  0
    4.6321   -1.5782   -2.0564 S   0  0  0  0  0  0  0  0  0  0  0  0
    4.1095   -2.9855   -1.2253 C   0  0  0  0  0  0  0  0  0  0  0  0
    4.6723   -4.2737   -1.3097 C   0  0  0  0  0  0  0  0  0  0  0  0
    4.1137   -5.3160   -0.5612 C   0  0  0  0  0  0  0  0  0  0  0  0
    3.0145   -5.0894    0.2552 C   0  0  0  0  0  0  0  0  0  0  0  0
    2.3805   -6.0226    1.0293 O   0  0  0  0  0  0  0  0  0  0  0  0
    2.9017   -7.3453    1.0019 C   0  0  0  0  0  0  0  0  0  0  0  0
    2.4645   -3.8039    0.3290 C   0  0  0  0  0  0  0  0  0  0  0  0
    3.0093   -2.7204   -0.4101 C   0  0  0  0  0  0  0  0  0  0  0  0
    2.6163   -1.3287   -0.4862 C   0  0  0  0  0  0  0  0  0  0  0  0
    1.5114   -0.7142    0.2454 C   0  0  0  0  0  0  0  0  0  0  0  0
    0.3973   -0.2116   -0.4349 C   0  0  0  0  0  0  0  0  0  0  0  0
   -0.6558    0.3838    0.2697 C   0  0  0  0  0  0  0  0  0  0  0  0
   -0.6050    0.4788    1.6604 C   0  0  0  0  0  0  0  0  0  0  0  0
   -1.5594    1.0267    2.4708 O   0  0  0  0  0  0  0  0  0  0  0  0
   -2.6382    1.7460    1.8661 C   0  0  0  0  0  0  0  0  0  0  0  0
   -3.8261    0.8090    1.5846 C   0  0  0  0  0  0  0  0  0  0  0  0
   -4.9479    1.4590    0.8840 N   0  0  0  0  0  0  0  0  0  0  0  0
   -5.9899    0.4805    0.4979 C   0  0  0  0  0  0  0  0  0  0  0  0
   -7.1939    0.4572    1.4526 C   0  0  0  0  0  0  0  0  0  0  0  0
   -7.8622    1.7225    1.5489 O   0  0  0  0  0  0  0  0  0  0  0  0
   -6.9973    2.8365    1.2880 C   0  0  0  0  0  0  0  0  0  0  0  0
   -5.5392    2.5566    1.6830 C   0  0  0  0  0  0  0  0  0  0  0  0
    0.5021   -0.0384    2.3389 C   0  0  0  0  0  0  0  0  0  0  0  0
    1.5569   -0.6303    1.6397 C   0  0  0  0  0  0  0  0  0  0  0  0
    3.1373    1.2394   -3.0192 C   0  0  0  0  0  0  0  0  0  0  0  0
    3.0889    2.6000   -3.3479 C   0  0  0  0  0  0  0  0  0  0  0  0
    2.0389    5.0777   -4.2262 H   0  0  0  0  0  0  0  0  0  0  0  0
    3.0471    6.4797   -3.8480 H   0  0  0  0  0  0  0  0  0  0  0  0
    3.8162    5.0520   -4.5517 H   0  0  0  0  0  0  0  0  0  0  0  0
    3.6796    3.9067   -0.2726 H   0  0  0  0  0  0  0  0  0  0  0  0
    3.7688    1.5159    0.3132 H   0  0  0  0  0  0  0  0  0  0  0  0
    5.5312   -4.4589   -1.9492 H   0  0  0  0  0  0  0  0  0  0  0  0
    4.5697   -6.2970   -0.6468 H   0  0  0  0  0  0  0  0  0  0  0  0
    2.2904   -7.9592    1.6703 H   0  0  0  0  0  0  0  0  0  0  0  0
    3.9311   -7.3720    1.3740 H   0  0  0  0  0  0  0  0  0  0  0  0
    2.8322   -7.7762   -0.0024 H   0  0  0  0  0  0  0  0  0  0  0  0
    1.5990   -3.6371    0.9667 H   0  0  0  0  0  0  0  0  0  0  0  0
    0.3391   -0.2775   -1.5191 H   0  0  0  0  0  0  0  0  0  0  0  0
   -1.4995    0.7539   -0.3031 H   0  0  0  0  0  0  0  0  0  0  0  0
   -2.9395    2.5017    2.6005 H   0  0  0  0  0  0  0  0  0  0  0  0
   -2.3193    2.3040    0.9778 H   0  0  0  0  0  0  0  0  0  0  0  0
   -4.1597    0.3543    2.5272 H   0  0  0  0  0  0  0  0  0  0  0  0
   -3.4602   -0.0247    0.9728 H   0  0  0  0  0  0  0  0  0  0  0  0
   -5.5781   -0.5295    0.3868 H   0  0  0  0  0  0  0  0  0  0  0  0
   -6.3467    0.7748   -0.4973 H   0  0  0  0  0  0  0  0  0  0  0  0
   -7.9314   -0.2753    1.1091 H   0  0  0  0  0  0  0  0  0  0  0  0
   -6.8839    0.1578    2.4606 H   0  0  0  0  0  0  0  0  0  0  0  0
   -7.0742    3.0920    0.2245 H   0  0  0  0  0  0  0  0  0  0  0  0
   -7.3835    3.6895    1.8553 H   0  0  0  0  0  0  0  0  0  0  0  0
   -5.5221    2.3023    2.7510 H   0  0  0  0  0  0  0  0  0  0  0  0
   -4.9454    3.4656    1.5400 H   0  0  0  0  0  0  0  0  0  0  0  0
    0.5466    0.0253    3.4235 H   0  0  0  0  0  0  0  0  0  0  0  0
    2.4110   -1.0172    2.1904 H   0  0  0  0  0  0  0  0  0  0  0  0
    2.9741    0.5017   -3.8020 H   0  0  0  0  0  0  0  0  0  0  0  0
    2.8947    2.8667   -4.3812 H   0  0  0  0  0  0  0  0  0  0  0  0
  1  2  1  0
  2  3  1  0
  3  4  2  0
  4  5  1  0
  5  6  2  0
  6  7  1  0
  7  8  1  0
  8  9  1  0
  9 10  2  0
 10 11  1  0
 11 12  2  0
 12 13  1  0
 13 14  1  0
 12 15  1  0
 15 16  2  0
 16 17  1  0
 17 18  1  0
 18 19  2  0
 19 20  1  0
 20 21  2  0
 21 22  1  0
 22 23  1  0
 23 24  1  0
 24 25  1  0
 25 26  1  0
 26 27  1  0
 27 28  1  0
 28 29  1  0
 29 30  1  0
 21 31  1  0
 31 32  2  0
  6 33  1  0
 33 34  2  0
 34  3  1  0
 17  7  2  0
 32 18  1  0
 16  9  1  0
 30 25  1  0
  1 35  1  0
  1 36  1  0
  1 37  1  0
  4 38  1  0
  5 39  1  0
 10 40  1  0
 11 41  1  0
 14 42  1  0
 14 43  1  0
 14 44  1  0
 15 45  1  0
 19 46  1  0
 20 47  1  0
 23 48  1  0
 23 49  1  0
 24 50  1  0
 24 51  1  0
 26 52  1  0
 26 53  1  0
 27 54  1  0
 27 55  1  0
 29 56  1  0
 29 57  1  0
 30 58  1  0
 30 59  1  0
 31 60  1  0
 32 61  1  0
 33 62  1  0
 34 63  1  0
M  END
$$$$
