
     RDKit          3D

 59 62  0  0  0  0  0  0  0  0999 V2000
   -8.7788    3.0445    1.9688 C   0  0  0  0  0  0  0  0  0  0  0  0
   -7.9097    2.0323    1.2785 C   0  0  0  0  0  0  0  0  0  0  0  0
   -7.2555    2.3651    0.0829 C   0  0  0  0  0  0  0  0  0  0  0  0
   -6.4321    1.4355   -0.5511 C   0  0  0  0  0  0  0  0  0  0  0  0
   -6.2514    0.1758    0.0259 C   0  0  0  0  0  0  0  0  0  0  0  0
   -5.3634   -0.7969   -0.6348 C   0  0  0  0  0  0  0  0  0  0  0  0
   -5.8531   -1.5276   -1.4918 O   0  0  0  0  0  0  0  0  0  0  0  0
   -4.0226   -0.8078   -0.2682 N   0  0  0  0  0  0  0  0  0  0  0  0
   -3.4627   -0.0716    0.8764 C   0  0  0  0  0  0  0  0  0  0  0  0
   -2.0012    0.3584    0.6495 C   0  0  0  0  0  0  0  0  0  0  0  0
   -1.1789   -0.7945    0.2074 N   0  0  0  0  0  0  0  0  0  0  0  0
    0.1904   -0.4874    0.2226 C   0  0  0  0  0  0  0  0  0  0  0  0
    0.8507   -0.4202    1.4581 C   0  0  0  0  0  0  0  0  0  0  0  0
    2.2052   -0.0785    1.5463 C   0  0  0  0  0  0  0  0  0  0  0  0
    2.9380    0.2191    0.3963 C   0  0  0  0  0  0  0  0  0  0  0  0
    4.2810    0.6078    0.5737 N   0  0  0  0  0  0  0  0  0  0  0  0
    5.1908    0.9979   -0.3979 C   0  0  0  0  0  0  0  0  0  0  0  0
    5.0051    1.0036   -1.6109 O   0  0  0  0  0  0  0  0  0  0  0  0
    6.4947    1.5074    0.1960 C   0  0  0  0  0  0  0  0  0  0  0  0
    7.3965    0.1652    1.0383 S   0  0  0  0  0  0  0  0  0  0  0  0
    7.9012   -0.7898   -0.3821 C   0  0  0  0  0  0  0  0  0  0  0  0
    8.8092   -0.2667   -1.3119 C   0  0  0  0  0  0  0  0  0  0  0  0
    9.1860   -1.0156   -2.4320 C   0  0  0  0  0  0  0  0  0  0  0  0
    8.6645   -2.2934   -2.6157 C   0  0  0  0  0  0  0  0  0  0  0  0
    9.1288   -3.2140   -3.9961 Cl  0  0  0  0  0  0  0  0  0  0  0  0
    7.7726   -2.8314   -1.6852 C   0  0  0  0  0  0  0  0  0  0  0  0
    7.3941   -2.0797   -0.5670 C   0  0  0  0  0  0  0  0  0  0  0  0
    2.2993    0.1397   -0.8397 C   0  0  0  0  0  0  0  0  0  0  0  0
    0.9434   -0.2179   -0.9229 C   0  0  0  0  0  0  0  0  0  0  0  0
   -1.7211   -1.4234   -1.0203 C   0  0  0  0  0  0  0  0  0  0  0  0
   -3.1708   -1.8863   -0.7834 C   0  0  0  0  0  0  0  0  0  0  0  0
   -6.8947   -0.1730    1.2146 C   0  0  0  0  0  0  0  0  0  0  0  0
   -7.7158    0.7621    1.8445 C   0  0  0  0  0  0  0  0  0  0  0  0
   -9.3308    3.6415    1.2382 H   0  0  0  0  0  0  0  0  0  0  0  0
   -9.5162    2.5547    2.6135 H   0  0  0  0  0  0  0  0  0  0  0  0
   -8.1669    3.7139    2.5817 H   0  0  0  0  0  0  0  0  0  0  0  0
   -7.3930    3.3483   -0.3632 H   0  0  0  0  0  0  0  0  0  0  0  0
   -5.9355    1.6868   -1.4847 H   0  0  0  0  0  0  0  0  0  0  0  0
   -4.0588    0.8159    1.1036 H   0  0  0  0  0  0  0  0  0  0  0  0
   -3.5253   -0.7420    1.7420 H   0  0  0  0  0  0  0  0  0  0  0  0
   -1.6224    0.7867    1.5849 H   0  0  0  0  0  0  0  0  0  0  0  0
   -1.9704    1.1450   -0.1152 H   0  0  0  0  0  0  0  0  0  0  0  0
    0.3034   -0.6479    2.3706 H   0  0  0  0  0  0  0  0  0  0  0  0
    2.6663   -0.0394    2.5312 H   0  0  0  0  0  0  0  0  0  0  0  0
    4.6299    0.5899    1.5239 H   0  0  0  0  0  0  0  0  0  0  0  0
    7.1048    1.9709   -0.5866 H   0  0  0  0  0  0  0  0  0  0  0  0
    6.2621    2.2902    0.9281 H   0  0  0  0  0  0  0  0  0  0  0  0
    9.2328    0.7274   -1.1788 H   0  0  0  0  0  0  0  0  0  0  0  0
    9.8778   -0.5894   -3.1576 H   0  0  0  0  0  0  0  0  0  0  0  0
    7.3685   -3.8308   -1.8257 H   0  0  0  0  0  0  0  0  0  0  0  0
    6.6990   -2.5119    0.1523 H   0  0  0  0  0  0  0  0  0  0  0  0
    2.8213    0.3554   -1.7671 H   0  0  0  0  0  0  0  0  0  0  0  0
    0.4916   -0.2475   -1.9106 H   0  0  0  0  0  0  0  0  0  0  0  0
   -1.7136   -0.7092   -1.8536 H   0  0  0  0  0  0  0  0  0  0  0  0
   -1.1164   -2.2938   -1.3017 H   0  0  0  0  0  0  0  0  0  0  0  0
   -3.1926   -2.6897   -0.0356 H   0  0  0  0  0  0  0  0  0  0  0  0
   -3.5847   -2.2942   -1.7123 H   0  0  0  0  0  0  0  0  0  0  0  0
   -6.7575   -1.1619    1.6442 H   0  0  0  0  0  0  0  0  0  0  0  0
   -8.2129    0.4924    2.7745 H   0  0  0  0  0  0  0  0  0  0  0  0
  1  2  1  0
  2  3  2  0
  3  4  1  0
  4  5  2  0
  5  6  1  0
  6  7  2  0
  6  8  1  0
  8  9  1  0
  9 10  1  0
 10 11  1  0
 11 12  1  0
 12 13  2  0
 13 14  1  0
 14 15  2  0
 15 16  1  0
 16 17  1  0
 17 18  2  0
 17 19  1  0
 19 20  1  0
 20 21  1  0
 21 22  2  0
 22 23  1  0
 23 24  2  0
 24 25  1  0
 24 26  1  0
 26 27  2  0
 15 28  1  0
 28 29  2  0
 11 30  1  0
 30 31  1  0
  5 32  1  0
 32 33  2  0
 33  2  1  0
 31  8  1  0
 29 12  1  0
 27 21  1  0
  1 34  1  0
  1 35  1  0
  1 36  1  0
  3 37  1  0
  4 38  1  0
  9 39  1  0
  9 40  1  0
 10 41  1  0
 10 42  1  0
 13 43  1  0
 14 44  1  0
 16 45  1  0
 19 46  1  0
 19 47  1  0
 22 48  1  0
 23 49  1  0
 26 50  1  0
 27 51  1  0
 28 52  1  0
 29 53  1  0
 30 54  1  0
 30 55  1  0
 31 56  1  0
 31 57  1  0
 32 58  1  0
 33 59  1  0
M  END
$$$$
