
     RDKit          3D

 46 47  0  0  0  0  0  0  0  0999 V2000
    0.7259   -1.7737   -2.6727 C   0  0  0  0  0  0  0  0  0  0  0  0
    1.8098   -0.7444   -2.4932 C   0  0  0  0  0  0  0  0  0  0  0  0
    2.7344   -0.6584   -3.2933 O   0  0  0  0  0  0  0  0  0  0  0  0
    1.5984    0.0432   -1.3781 N   0  0  0  0  0  0  0  0  0  0  0  0
    2.3847    1.1202   -0.9164 C   0  0  0  0  0  0  0  0  0  0  0  0
    3.5009    1.6094   -1.5974 C   0  0  0  0  0  0  0  0  0  0  0  0
    4.2086    2.7128   -1.1051 C   0  0  0  0  0  0  0  0  0  0  0  0
    3.8029    3.3453    0.0673 C   0  0  0  0  0  0  0  0  0  0  0  0
    2.6995    2.8637    0.7646 C   0  0  0  0  0  0  0  0  0  0  0  0
    2.0171    1.7433    0.2894 C   0  0  0  0  0  0  0  0  0  0  0  0
    0.9409    1.2998    1.0211 O   0  0  0  0  0  0  0  0  0  0  0  0
    1.3140    0.1967    1.8732 C   0  0  0  0  0  0  0  0  0  0  0  0
    1.4117    0.6801    3.3150 C   0  0  0  0  0  0  0  0  0  0  0  0
    0.1982   -0.8454    1.7385 C   0  0  0  0  0  0  0  0  0  0  0  0
    0.4289   -2.0326    1.5314 O   0  0  0  0  0  0  0  0  0  0  0  0
   -1.0758   -0.3283    1.8731 N   0  0  0  0  0  0  0  0  0  0  0  0
   -2.2590   -1.1321    1.6202 C   0  0  0  0  0  0  0  0  0  0  0  0
   -3.4182   -0.6550    2.4945 C   0  0  0  0  0  0  0  0  0  0  0  0
   -2.6161   -1.1024    0.1424 C   0  0  0  0  0  0  0  0  0  0  0  0
   -2.6115   -2.2954   -0.5992 C   0  0  0  0  0  0  0  0  0  0  0  0
   -2.9459   -2.2941   -1.9539 C   0  0  0  0  0  0  0  0  0  0  0  0
   -3.2816   -1.1007   -2.5738 C   0  0  0  0  0  0  0  0  0  0  0  0
   -3.5980   -1.0963   -3.8777 F   0  0  0  0  0  0  0  0  0  0  0  0
   -3.2826    0.0948   -1.8674 C   0  0  0  0  0  0  0  0  0  0  0  0
   -2.9515    0.0970   -0.5122 C   0  0  0  0  0  0  0  0  0  0  0  0
    1.0748   -2.5614   -3.3451 H   0  0  0  0  0  0  0  0  0  0  0  0
    0.4686   -2.2327   -1.7138 H   0  0  0  0  0  0  0  0  0  0  0  0
   -0.1542   -1.2943   -3.1061 H   0  0  0  0  0  0  0  0  0  0  0  0
    0.7710   -0.1570   -0.8292 H   0  0  0  0  0  0  0  0  0  0  0  0
    3.8446    1.1629   -2.5250 H   0  0  0  0  0  0  0  0  0  0  0  0
    5.0725    3.0819   -1.6513 H   0  0  0  0  0  0  0  0  0  0  0  0
    4.3479    4.2110    0.4347 H   0  0  0  0  0  0  0  0  0  0  0  0
    2.3782    3.3569    1.6769 H   0  0  0  0  0  0  0  0  0  0  0  0
    2.2550   -0.2779    1.5652 H   0  0  0  0  0  0  0  0  0  0  0  0
    2.2463    1.3805    3.4295 H   0  0  0  0  0  0  0  0  0  0  0  0
    1.5597   -0.1577    4.0028 H   0  0  0  0  0  0  0  0  0  0  0  0
    0.5076    1.2186    3.6190 H   0  0  0  0  0  0  0  0  0  0  0  0
   -1.1557    0.6751    1.7661 H   0  0  0  0  0  0  0  0  0  0  0  0
   -2.0303   -2.1646    1.9120 H   0  0  0  0  0  0  0  0  0  0  0  0
   -3.6505    0.4014    2.3247 H   0  0  0  0  0  0  0  0  0  0  0  0
   -4.3243   -1.2367    2.2999 H   0  0  0  0  0  0  0  0  0  0  0  0
   -3.1640   -0.7622    3.5550 H   0  0  0  0  0  0  0  0  0  0  0  0
   -2.3379   -3.2363   -0.1255 H   0  0  0  0  0  0  0  0  0  0  0  0
   -2.9433   -3.2159   -2.5282 H   0  0  0  0  0  0  0  0  0  0  0  0
   -3.5425    1.0181   -2.3778 H   0  0  0  0  0  0  0  0  0  0  0  0
   -2.9592    1.0427    0.0270 H   0  0  0  0  0  0  0  0  0  0  0  0
  1  2  1  0
  2  3  2  0
  2  4  1  0
  4  5  1  0
  5  6  2  0
  6  7  1  0
  7  8  2  0
  8  9  1  0
  9 10  2  0
 10 11  1  0
 11 12  1  0
 12 13  1  0
 12 14  1  0
 14 15  2  0
 14 16  1  0
 16 17  1  0
 17 18  1  0
 17 19  1  0
 19 20  2  0
 20 21  1  0
 21 22  2  0
 22 23  1  0
 22 24  1  0
 24 25  2  0
 10  5  1  0
 25 19  1  0
  1 26  1  0
  1 27  1  0
  1 28  1  0
  4 29  1  0
  6 30  1  0
  7 31  1  0
  8 32  1  0
  9 33  1  0
 12 34  1  0
 13 35  1  0
 13 36  1  0
 13 37  1  0
 16 38  1  0
 17 39  1  0
 18 40  1  0
 18 41  1  0
 18 42  1  0
 20 43  1  0
 21 44  1  0
 24 45  1  0
 25 46  1  0
M  END
$$$$
