
     RDKit          3D

 55 60  0  0  0  0  0  0  0  0999 V2000
    5.1899   -0.6998   -0.4087 O   0  0  0  0  0  0  0  0  0  0  0  0
    4.3073   -0.6445    0.4452 C   0  0  0  0  0  0  0  0  0  0  0  0
    4.6561   -0.5767    1.8565 C   0  0  0  0  0  0  0  0  0  0  0  0
    5.8409   -0.0294    2.4315 C   0  0  0  0  0  0  0  0  0  0  0  0
    5.7491   -0.2276    3.7885 C   0  0  0  0  0  0  0  0  0  0  0  0
    4.6017   -0.8851    4.0927 O   0  0  0  0  0  0  0  0  0  0  0  0
    3.9573   -1.1148    2.9196 C   0  0  0  0  0  0  0  0  0  0  0  0
    2.9423   -0.6821    0.1097 N   0  0  0  0  0  0  0  0  0  0  0  0
    2.6459   -0.9996   -1.2804 C   0  0  0  0  0  0  0  0  0  0  0  0
    1.2020   -1.4616   -1.4562 C   0  0  0  0  0  0  0  0  0  0  0  0
    0.1831   -0.4224   -0.9101 C   0  0  0  0  0  0  0  0  0  0  0  0
    0.5696   -0.1571    0.5691 C   0  0  0  0  0  0  0  0  0  0  0  0
    2.0256    0.2799    0.7164 C   0  0  0  0  0  0  0  0  0  0  0  0
    0.3486    0.8459   -1.5897 O   0  0  0  0  0  0  0  0  0  0  0  0
   -0.1315    0.9056   -2.8683 C   0  0  0  0  0  0  0  0  0  0  0  0
    0.3645    1.9398   -3.6634 C   0  0  0  0  0  0  0  0  0  0  0  0
   -0.0575    2.0623   -4.9884 C   0  0  0  0  0  0  0  0  0  0  0  0
   -0.9789    1.1557   -5.5051 C   0  0  0  0  0  0  0  0  0  0  0  0
   -1.3788    1.2780   -6.7766 F   0  0  0  0  0  0  0  0  0  0  0  0
   -1.4910    0.1294   -4.7220 C   0  0  0  0  0  0  0  0  0  0  0  0
   -1.0676    0.0139   -3.3954 C   0  0  0  0  0  0  0  0  0  0  0  0
   -1.6153   -1.0442   -2.5257 C   0  0  0  0  0  0  0  0  0  0  0  0
   -2.3269   -1.9184   -3.0093 O   0  0  0  0  0  0  0  0  0  0  0  0
   -1.2867   -0.9131   -1.0425 C   0  0  0  0  0  0  0  0  0  0  0  0
   -2.3489   -0.0118   -0.4214 C   0  0  0  0  0  0  0  0  0  0  0  0
   -2.6584   -0.8073    0.7983 C   0  0  0  0  0  0  0  0  0  0  0  0
   -3.4897   -0.2677    1.9000 C   0  0  0  0  0  0  0  0  0  0  0  0
   -3.6520   -1.0321    3.0641 C   0  0  0  0  0  0  0  0  0  0  0  0
   -4.4296   -0.5512    4.1214 C   0  0  0  0  0  0  0  0  0  0  0  0
   -5.0480    0.6923    4.0148 C   0  0  0  0  0  0  0  0  0  0  0  0
   -6.0065    1.2866    5.3129 Cl  0  0  0  0  0  0  0  0  0  0  0  0
   -4.8968    1.4576    2.8594 C   0  0  0  0  0  0  0  0  0  0  0  0
   -4.1175    0.9796    1.8000 C   0  0  0  0  0  0  0  0  0  0  0  0
   -2.1474   -1.9954    0.8156 N   0  0  0  0  0  0  0  0  0  0  0  0
   -1.4519   -2.1812   -0.4007 O   0  0  0  0  0  0  0  0  0  0  0  0
    6.6572    0.4470    1.9055 H   0  0  0  0  0  0  0  0  0  0  0  0
    6.3885    0.0136    4.6266 H   0  0  0  0  0  0  0  0  0  0  0  0
    3.0325   -1.6700    2.9999 H   0  0  0  0  0  0  0  0  0  0  0  0
    2.8576   -0.1121   -1.8890 H   0  0  0  0  0  0  0  0  0  0  0  0
    3.3199   -1.7942   -1.6219 H   0  0  0  0  0  0  0  0  0  0  0  0
    1.0445   -1.6595   -2.5220 H   0  0  0  0  0  0  0  0  0  0  0  0
    1.0709   -2.4172   -0.9322 H   0  0  0  0  0  0  0  0  0  0  0  0
   -0.0529    0.6371    0.9957 H   0  0  0  0  0  0  0  0  0  0  0  0
    0.4166   -1.0621    1.1692 H   0  0  0  0  0  0  0  0  0  0  0  0
    2.2487    0.4387    1.7736 H   0  0  0  0  0  0  0  0  0  0  0  0
    2.1955    1.2470    0.2258 H   0  0  0  0  0  0  0  0  0  0  0  0
    1.0890    2.6433   -3.2592 H   0  0  0  0  0  0  0  0  0  0  0  0
    0.3270    2.8564   -5.6228 H   0  0  0  0  0  0  0  0  0  0  0  0
   -2.2124   -0.5629   -5.1474 H   0  0  0  0  0  0  0  0  0  0  0  0
   -1.9886    0.9925   -0.1862 H   0  0  0  0  0  0  0  0  0  0  0  0
   -3.2588    0.0665   -1.0278 H   0  0  0  0  0  0  0  0  0  0  0  0
   -3.1774   -2.0084    3.1561 H   0  0  0  0  0  0  0  0  0  0  0  0
   -4.5487   -1.1528    5.0191 H   0  0  0  0  0  0  0  0  0  0  0  0
   -5.3856    2.4254    2.7762 H   0  0  0  0  0  0  0  0  0  0  0  0
   -4.0265    1.5944    0.9094 H   0  0  0  0  0  0  0  0  0  0  0  0
  1  2  2  0
  2  3  1  0
  3  4  1  0
  4  5  2  0
  5  6  1  0
  6  7  1  0
  2  8  1  0
  8  9  1  0
  9 10  1  0
 10 11  1  0
 11 12  1  0
 12 13  1  0
 11 14  1  0
 14 15  1  0
 15 16  2  0
 16 17  1  0
 17 18  2  0
 18 19  1  0
 18 20  1  0
 20 21  2  0
 21 22  1  0
 22 23  2  0
 22 24  1  0
 24 25  1  0
 25 26  1  0
 26 27  1  0
 27 28  2  0
 28 29  1  0
 29 30  2  0
 30 31  1  0
 30 32  1  0
 32 33  2  0
 26 34  2  0
 34 35  1  0
  7  3  2  0
 13  8  1  0
 21 15  1  0
 35 24  1  0
 24 11  1  0
 33 27  1  0
  4 36  1  0
  5 37  1  0
  7 38  1  0
  9 39  1  0
  9 40  1  0
 10 41  1  0
 10 42  1  0
 12 43  1  0
 12 44  1  0
 13 45  1  0
 13 46  1  0
 16 47  1  0
 17 48  1  0
 20 49  1  0
 25 50  1  0
 25 51  1  0
 28 52  1  0
 29 53  1  0
 32 54  1  0
 33 55  1  0
M  END
$$$$
