
     RDKit          3D

 40 44  0  0  0  0  0  0  0  0999 V2000
   -8.6658   -1.9160    1.5697 O   0  0  0  0  0  0  0  0  0  0  0  0
   -7.8668   -1.0085    1.6815 C   0  0  0  0  0  0  0  0  0  0  0  0
   -8.1200    0.0418    2.4865 O   0  0  0  0  0  0  0  0  0  0  0  0
   -6.5520   -0.8711    1.0133 C   0  0  0  0  0  0  0  0  0  0  0  0
   -5.5011   -0.2487    1.7033 C   0  0  0  0  0  0  0  0  0  0  0  0
   -4.2375   -0.1280    1.1151 C   0  0  0  0  0  0  0  0  0  0  0  0
   -3.9909   -0.6243   -0.1722 C   0  0  0  0  0  0  0  0  0  0  0  0
   -2.6736   -0.5032   -0.7929 C   0  0  0  0  0  0  0  0  0  0  0  0
   -2.1351   -0.8814   -2.0013 C   0  0  0  0  0  0  0  0  0  0  0  0
   -0.7827   -0.4581   -1.9881 C   0  0  0  0  0  0  0  0  0  0  0  0
   -0.5307    0.1508   -0.7649 C   0  0  0  0  0  0  0  0  0  0  0  0
    0.6261    0.7671   -0.2118 C   0  0  0  0  0  0  0  0  0  0  0  0
    1.9044    0.4833   -0.4943 C   0  0  0  0  0  0  0  0  0  0  0  0
    2.5610   -0.7162   -1.5783 S   0  0  0  0  0  0  0  0  0  0  0  0
    4.1565   -0.2488   -1.1385 C   0  0  0  0  0  0  0  0  0  0  0  0
    5.3362   -0.6604   -1.5093 N   0  0  0  0  0  0  0  0  0  0  0  0
    6.1957    0.1332   -0.7738 C   0  0  0  0  0  0  0  0  0  0  0  0
    7.5982    0.1428   -0.7545 C   0  0  0  0  0  0  0  0  0  0  0  0
    8.2554    1.0516    0.0850 C   0  0  0  0  0  0  0  0  0  0  0  0
    7.5339    1.9356    0.8912 C   0  0  0  0  0  0  0  0  0  0  0  0
    6.1348    1.9461    0.8903 C   0  0  0  0  0  0  0  0  0  0  0  0
    5.4990    1.0311    0.0454 C   0  0  0  0  0  0  0  0  0  0  0  0
    4.1848    0.7494   -0.2235 N   0  0  0  0  0  0  0  0  0  0  0  0
    2.9775    1.2426    0.2169 C   0  0  0  0  0  0  0  0  0  0  0  0
    2.8879    2.1378    1.0366 O   0  0  0  0  0  0  0  0  0  0  0  0
   -1.7143    0.1260   -0.0574 O   0  0  0  0  0  0  0  0  0  0  0  0
   -5.0484   -1.2426   -0.8556 C   0  0  0  0  0  0  0  0  0  0  0  0
   -6.3198   -1.3676   -0.2732 C   0  0  0  0  0  0  0  0  0  0  0  0
   -7.5470   -2.1055   -1.2413 Cl  0  0  0  0  0  0  0  0  0  0  0  0
   -9.0103   -0.1530    2.8495 H   0  0  0  0  0  0  0  0  0  0  0  0
   -5.6539    0.1417    2.7078 H   0  0  0  0  0  0  0  0  0  0  0  0
   -3.4440    0.3594    1.6798 H   0  0  0  0  0  0  0  0  0  0  0  0
   -2.6456   -1.3919   -2.8055 H   0  0  0  0  0  0  0  0  0  0  0  0
   -0.0804   -0.5796   -2.8007 H   0  0  0  0  0  0  0  0  0  0  0  0
    0.4164    1.5214    0.5463 H   0  0  0  0  0  0  0  0  0  0  0  0
    8.1567   -0.5444   -1.3811 H   0  0  0  0  0  0  0  0  0  0  0  0
    9.3430    1.0673    0.1078 H   0  0  0  0  0  0  0  0  0  0  0  0
    8.0707    2.6313    1.5342 H   0  0  0  0  0  0  0  0  0  0  0  0
    5.5747    2.6338    1.5175 H   0  0  0  0  0  0  0  0  0  0  0  0
   -4.8931   -1.6325   -1.8594 H   0  0  0  0  0  0  0  0  0  0  0  0
  1  2  2  0
  2  3  1  0
  2  4  1  0
  4  5  2  0
  5  6  1  0
  6  7  2  0
  7  8  1  0
  8  9  2  0
  9 10  1  0
 10 11  2  0
 11 12  1  0
 12 13  2  3
 13 14  1  0
 14 15  1  0
 15 16  2  0
 16 17  1  0
 17 18  2  0
 18 19  1  0
 19 20  2  0
 20 21  1  0
 21 22  2  0
 22 23  1  0
 23 24  1  0
 24 25  2  0
 11 26  1  0
  7 27  1  0
 27 28  2  0
 28 29  1  0
 28  4  1  0
 26  8  1  0
 24 13  1  0
 23 15  1  0
 22 17  1  0
  3 30  1  0
  5 31  1  0
  6 32  1  0
  9 33  1  0
 10 34  1  0
 12 35  1  0
 18 36  1  0
 19 37  1  0
 20 38  1  0
 21 39  1  0
 27 40  1  0
M  END
$$$$
