
     RDKit          3D

 62 65  0  0  0  0  0  0  0  0999 V2000
   -2.3563    1.1953    3.9648 C   0  0  0  0  0  0  0  0  0  0  0  0
   -2.3073    1.9503    2.6427 C   0  0  0  0  0  0  0  0  0  0  0  0
   -2.5991    1.0605    1.5271 N   0  0  0  0  0  0  0  0  0  0  0  0
   -1.7395    0.3244    0.6989 C   0  0  0  0  0  0  0  0  0  0  0  0
   -0.4031    0.1362    0.7154 C   0  0  0  0  0  0  0  0  0  0  0  0
    0.5690    0.5862    1.6863 C   0  0  0  0  0  0  0  0  0  0  0  0
    1.9042    0.5262    1.5772 C   0  0  0  0  0  0  0  0  0  0  0  0
    2.6157    0.0415    0.3799 C   0  0  0  0  0  0  0  0  0  0  0  0
    2.8214    0.7137   -0.7137 N   0  0  0  0  0  4  0  0  0  0  0  0
    2.4802    2.1129   -1.0414 C   0  0  0  0  0  0  0  0  0  0  0  0
    1.2821    2.1809   -1.9684 C   0  0  0  0  0  0  0  0  0  0  0  0
    3.6137   -0.1061   -1.6476 C   0  0  0  0  0  0  0  0  0  0  0  0
    4.0633    0.2115   -2.9171 C   0  0  0  0  0  0  0  0  0  0  0  0
    4.8025   -0.7571   -3.5999 C   0  0  0  0  0  0  0  0  0  0  0  0
    5.0766   -2.0015   -3.0059 C   0  0  0  0  0  0  0  0  0  0  0  0
    4.6187   -2.3000   -1.7201 C   0  0  0  0  0  0  0  0  0  0  0  0
    3.8852   -1.3354   -1.0508 C   0  0  0  0  0  0  0  0  0  0  0  0
    3.2795   -1.3578    0.3253 C   0  0  0  0  0  0  0  0  0  0  0  0
    4.3624   -1.4798    1.4011 C   0  0  0  0  0  0  0  0  0  0  0  0
    2.2427   -2.4751    0.4621 C   0  0  0  0  0  0  0  0  0  0  0  0
   -2.6162   -0.3818   -0.4028 C   0  0  0  0  0  0  0  0  0  0  0  0
   -2.4963   -1.9118   -0.3337 C   0  0  0  0  0  0  0  0  0  0  0  0
   -2.2868    0.1348   -1.8102 C   0  0  0  0  0  0  0  0  0  0  0  0
   -4.0128    0.0482   -0.0012 C   0  0  0  0  0  0  0  0  0  0  0  0
   -5.2280   -0.2782   -0.5919 C   0  0  0  0  0  0  0  0  0  0  0  0
   -6.3944    0.2387   -0.0335 C   0  0  0  0  0  0  0  0  0  0  0  0
   -6.3315    1.0658    1.0952 C   0  0  0  0  0  0  0  0  0  0  0  0
   -5.1011    1.3892    1.6785 C   0  0  0  0  0  0  0  0  0  0  0  0
   -3.9350    0.8805    1.1269 C   0  0  0  0  0  0  0  0  0  0  0  0
   -1.6802    0.3331    3.9594 H   0  0  0  0  0  0  0  0  0  0  0  0
   -3.3643    0.8201    4.1723 H   0  0  0  0  0  0  0  0  0  0  0  0
   -2.0639    1.8520    4.7919 H   0  0  0  0  0  0  0  0  0  0  0  0
   -1.3285    2.4215    2.5114 H   0  0  0  0  0  0  0  0  0  0  0  0
   -3.0039    2.7967    2.6760 H   0  0  0  0  0  0  0  0  0  0  0  0
   -0.0030   -0.4806   -0.0864 H   0  0  0  0  0  0  0  0  0  0  0  0
    0.1808    0.9472    2.6338 H   0  0  0  0  0  0  0  0  0  0  0  0
    2.5280    0.8274    2.4181 H   0  0  0  0  0  0  0  0  0  0  0  0
    2.2625    2.6477   -0.1110 H   0  0  0  0  0  0  0  0  0  0  0  0
    3.3597    2.5877   -1.4889 H   0  0  0  0  0  0  0  0  0  0  0  0
    1.0723    3.2242   -2.2203 H   0  0  0  0  0  0  0  0  0  0  0  0
    1.4443    1.6376   -2.9038 H   0  0  0  0  0  0  0  0  0  0  0  0
    0.3865    1.7678   -1.4974 H   0  0  0  0  0  0  0  0  0  0  0  0
    3.8699    1.1663   -3.3944 H   0  0  0  0  0  0  0  0  0  0  0  0
    5.1746   -0.5529   -4.6041 H   0  0  0  0  0  0  0  0  0  0  0  0
    5.6558   -2.7418   -3.5583 H   0  0  0  0  0  0  0  0  0  0  0  0
    4.8422   -3.2645   -1.2687 H   0  0  0  0  0  0  0  0  0  0  0  0
    3.9267   -1.4539    2.4063 H   0  0  0  0  0  0  0  0  0  0  0  0
    5.0877   -0.6608    1.3401 H   0  0  0  0  0  0  0  0  0  0  0  0
    4.9173   -2.4199    1.3043 H   0  0  0  0  0  0  0  0  0  0  0  0
    1.7583   -2.4517    1.4450 H   0  0  0  0  0  0  0  0  0  0  0  0
    1.4537   -2.3876   -0.2945 H   0  0  0  0  0  0  0  0  0  0  0  0
    2.6986   -3.4640    0.3415 H   0  0  0  0  0  0  0  0  0  0  0  0
   -2.7099   -2.2843    0.6744 H   0  0  0  0  0  0  0  0  0  0  0  0
   -3.1979   -2.4017   -1.0177 H   0  0  0  0  0  0  0  0  0  0  0  0
   -1.4910   -2.2514   -0.6070 H   0  0  0  0  0  0  0  0  0  0  0  0
   -2.3641    1.2266   -1.8683 H   0  0  0  0  0  0  0  0  0  0  0  0
   -2.9738   -0.2789   -2.5581 H   0  0  0  0  0  0  0  0  0  0  0  0
   -1.2709   -0.1409   -2.1121 H   0  0  0  0  0  0  0  0  0  0  0  0
   -5.2776   -0.9203   -1.4660 H   0  0  0  0  0  0  0  0  0  0  0  0
   -7.3588   -0.0014   -0.4731 H   0  0  0  0  0  0  0  0  0  0  0  0
   -7.2510    1.4616    1.5218 H   0  0  0  0  0  0  0  0  0  0  0  0
   -5.0902    2.0270    2.5540 H   0  0  0  0  0  0  0  0  0  0  0  0
  1  2  1  0
  2  3  1  0
  3  4  1  0
  4  5  2  3
  5  6  1  0
  6  7  2  3
  7  8  1  0
  8  9  2  0
  9 10  1  0
 10 11  1  0
  9 12  1  0
 12 13  2  0
 13 14  1  0
 14 15  2  0
 15 16  1  0
 16 17  2  0
 17 18  1  0
 18 19  1  0
 18 20  1  0
  4 21  1  0
 21 22  1  0
 21 23  1  0
 21 24  1  0
 24 25  2  0
 25 26  1  0
 26 27  2  0
 27 28  1  0
 28 29  2  0
 29  3  1  0
 18  8  1  0
 29 24  1  0
 17 12  1  0
  1 30  1  0
  1 31  1  0
  1 32  1  0
  2 33  1  0
  2 34  1  0
  5 35  1  0
  6 36  1  0
  7 37  1  0
 10 38  1  0
 10 39  1  0
 11 40  1  0
 11 41  1  0
 11 42  1  0
 13 43  1  0
 14 44  1  0
 15 45  1  0
 16 46  1  0
 19 47  1  0
 19 48  1  0
 19 49  1  0
 20 50  1  0
 20 51  1  0
 20 52  1  0
 22 53  1  0
 22 54  1  0
 22 55  1  0
 23 56  1  0
 23 57  1  0
 23 58  1  0
 25 59  1  0
 26 60  1  0
 27 61  1  0
 28 62  1  0
M  CHG  1   9   1
M  END
$$$$
