
     RDKit          3D

 54 57  0  0  0  0  0  0  0  0999 V2000
   -4.9954    0.6416   -3.6545 C   0  0  0  0  0  0  0  0  0  0  0  0
   -4.8755   -0.4950   -2.8065 O   0  0  0  0  0  0  0  0  0  0  0  0
   -3.8668   -0.4737   -1.8837 C   0  0  0  0  0  0  0  0  0  0  0  0
   -3.8088   -1.5976   -1.0568 C   0  0  0  0  0  0  0  0  0  0  0  0
   -2.8326   -1.7078   -0.0623 C   0  0  0  0  0  0  0  0  0  0  0  0
   -1.8976   -0.6828    0.1091 C   0  0  0  0  0  0  0  0  0  0  0  0
   -0.9115   -0.7804    1.1246 N   0  0  0  0  0  0  0  0  0  0  0  0
   -1.0951   -1.1475    2.4552 C   0  0  0  0  0  0  0  0  0  0  0  0
   -2.4050   -1.3487    3.1461 C   0  0  0  0  0  0  0  0  0  0  0  0
   -3.2072   -0.0860    3.2605 C   0  0  0  0  0  0  0  0  0  0  0  0
   -4.3996    0.2474    2.6393 C   0  0  0  0  0  0  0  0  0  0  0  0
   -4.7610    1.5466    3.0585 C   0  0  0  0  0  0  0  0  0  0  0  0
   -3.7911    1.9773    3.9326 C   0  0  0  0  0  0  0  0  0  0  0  0
   -2.8544    0.9828    4.0588 N   0  0  0  0  0  0  0  0  0  0  0  0
   -1.6805    1.0814    4.9014 C   0  0  0  0  0  0  0  0  0  0  0  0
    0.0707   -1.1481    3.0771 N   0  0  0  0  0  0  0  0  0  0  0  0
    1.0290   -0.7454    2.1940 N   0  0  0  0  0  0  0  0  0  0  0  0
    0.4451   -0.5172    1.0403 C   0  0  0  0  0  0  0  0  0  0  0  0
    1.3076   -0.1364   -0.4170 S   0  0  0  0  0  0  0  0  0  0  0  0
    2.8879    0.4185    0.2838 C   0  0  0  0  0  0  0  0  0  0  0  0
    3.8237    0.8035   -0.8505 C   0  0  0  0  0  0  0  0  0  0  0  0
    3.8392    1.9486   -1.2939 O   0  0  0  0  0  0  0  0  0  0  0  0
    4.6035   -0.2583   -1.2880 N   0  0  0  0  0  0  0  0  0  0  0  0
    5.5742   -0.2480   -2.3116 C   0  0  0  0  0  0  0  0  0  0  0  0
    5.8891    0.8755   -3.0832 C   0  0  0  0  0  0  0  0  0  0  0  0
    6.8703    0.8050   -4.0802 C   0  0  0  0  0  0  0  0  0  0  0  0
    7.5463   -0.3890   -4.3130 C   0  0  0  0  0  0  0  0  0  0  0  0
    7.2289   -1.5040   -3.5497 C   0  0  0  0  0  0  0  0  0  0  0  0
    7.8650   -2.6600   -3.7754 F   0  0  0  0  0  0  0  0  0  0  0  0
    6.2545   -1.4456   -2.5568 C   0  0  0  0  0  0  0  0  0  0  0  0
   -1.9440    0.4411   -0.7241 C   0  0  0  0  0  0  0  0  0  0  0  0
   -2.9285    0.5441   -1.7150 C   0  0  0  0  0  0  0  0  0  0  0  0
   -4.1066    0.7606   -4.2824 H   0  0  0  0  0  0  0  0  0  0  0  0
   -5.8509    0.4755   -4.3161 H   0  0  0  0  0  0  0  0  0  0  0  0
   -5.1952    1.5485   -3.0752 H   0  0  0  0  0  0  0  0  0  0  0  0
   -4.5307   -2.3993   -1.1945 H   0  0  0  0  0  0  0  0  0  0  0  0
   -2.8015   -2.6193    0.5280 H   0  0  0  0  0  0  0  0  0  0  0  0
   -2.2176   -1.7378    4.1555 H   0  0  0  0  0  0  0  0  0  0  0  0
   -2.9925   -2.1276    2.6531 H   0  0  0  0  0  0  0  0  0  0  0  0
   -4.9488   -0.3776    1.9467 H   0  0  0  0  0  0  0  0  0  0  0  0
   -5.6346    2.1082    2.7558 H   0  0  0  0  0  0  0  0  0  0  0  0
   -3.6956    2.9103    4.4729 H   0  0  0  0  0  0  0  0  0  0  0  0
   -1.8245    1.8864    5.6278 H   0  0  0  0  0  0  0  0  0  0  0  0
   -0.8220    1.3053    4.2660 H   0  0  0  0  0  0  0  0  0  0  0  0
   -1.5419    0.1388    5.4348 H   0  0  0  0  0  0  0  0  0  0  0  0
    3.3404   -0.3748    0.8877 H   0  0  0  0  0  0  0  0  0  0  0  0
    2.7405    1.2923    0.9261 H   0  0  0  0  0  0  0  0  0  0  0  0
    4.4521   -1.1505   -0.8318 H   0  0  0  0  0  0  0  0  0  0  0  0
    5.3845    1.8251   -2.9397 H   0  0  0  0  0  0  0  0  0  0  0  0
    7.0989    1.6870   -4.6737 H   0  0  0  0  0  0  0  0  0  0  0  0
    8.3080   -0.4582   -5.0824 H   0  0  0  0  0  0  0  0  0  0  0  0
    6.0481   -2.3463   -1.9882 H   0  0  0  0  0  0  0  0  0  0  0  0
   -1.2544    1.2734   -0.5983 H   0  0  0  0  0  0  0  0  0  0  0  0
   -2.9361    1.4380   -2.3316 H   0  0  0  0  0  0  0  0  0  0  0  0
  1  2  1  0
  2  3  1  0
  3  4  2  0
  4  5  1  0
  5  6  2  0
  6  7  1  0
  7  8  1  0
  8  9  1  0
  9 10  1  0
 10 11  2  0
 11 12  1  0
 12 13  2  0
 13 14  1  0
 14 15  1  0
  8 16  2  0
 16 17  1  0
 17 18  2  0
 18 19  1  0
 19 20  1  0
 20 21  1  0
 21 22  2  0
 21 23  1  0
 23 24  1  0
 24 25  2  0
 25 26  1  0
 26 27  2  0
 27 28  1  0
 28 29  1  0
 28 30  2  0
  6 31  1  0
 31 32  2  0
 32  3  1  0
 18  7  1  0
 30 24  1  0
 14 10  1  0
  1 33  1  0
  1 34  1  0
  1 35  1  0
  4 36  1  0
  5 37  1  0
  9 38  1  0
  9 39  1  0
 11 40  1  0
 12 41  1  0
 13 42  1  0
 15 43  1  0
 15 44  1  0
 15 45  1  0
 20 46  1  0
 20 47  1  0
 23 48  1  0
 25 49  1  0
 26 50  1  0
 27 51  1  0
 30 52  1  0
 31 53  1  0
 32 54  1  0
M  END
$$$$
