
     RDKit          3D

 33 35  0  0  0  0  0  0  0  0999 V2000
    4.9160   -1.6056   -1.3588 C   0  0  0  0  0  0  0  0  0  0  0  0
    4.3101   -0.2455   -1.0733 C   0  0  0  0  0  0  0  0  0  0  0  0
    2.9133   -0.3536   -0.7150 N   0  0  0  0  0  0  0  0  0  0  0  0
    2.2413    0.6664   -0.0936 C   0  0  0  0  0  0  0  0  0  0  0  0
    2.8072    1.6818    0.3150 O   0  0  0  0  0  0  0  0  0  0  0  0
    0.7617    0.4943    0.0725 C   0  0  0  0  0  0  0  0  0  0  0  0
    0.0812    1.4445    0.7668 C   0  0  0  0  0  0  0  0  0  0  0  0
    0.6457    2.5737    1.3351 O   0  0  0  0  0  0  0  0  0  0  0  0
   -1.3686    1.3315    0.9746 C   0  0  0  0  0  0  0  0  0  0  0  0
   -2.1915    2.2228    1.6626 C   0  0  0  0  0  0  0  0  0  0  0  0
   -3.5774    1.9726    1.7767 C   0  0  0  0  0  0  0  0  0  0  0  0
   -4.1630    0.8306    1.2065 C   0  0  0  0  0  0  0  0  0  0  0  0
   -3.3444   -0.0482    0.5263 C   0  0  0  0  0  0  0  0  0  0  0  0
   -1.9899    0.2273    0.4344 C   0  0  0  0  0  0  0  0  0  0  0  0
   -1.3186   -0.7475   -0.2775 N   0  0  0  0  0  0  0  0  0  0  0  0
    0.0284   -0.6940   -0.5120 C   0  0  0  0  0  0  0  0  0  0  0  0
    0.6183   -1.5554   -1.1643 O   0  0  0  0  0  0  0  0  0  0  0  0
   -2.2722   -1.7652   -0.7194 C   0  0  0  0  0  0  0  0  0  0  0  0
   -3.6587   -1.3319   -0.1789 C   0  0  0  0  0  0  0  0  0  0  0  0
    5.9708   -1.5051   -1.6319 H   0  0  0  0  0  0  0  0  0  0  0  0
    4.3936   -2.1026   -2.1831 H   0  0  0  0  0  0  0  0  0  0  0  0
    4.8477   -2.2561   -0.4805 H   0  0  0  0  0  0  0  0  0  0  0  0
    4.8530    0.2499   -0.2612 H   0  0  0  0  0  0  0  0  0  0  0  0
    4.3744    0.3943   -1.9597 H   0  0  0  0  0  0  0  0  0  0  0  0
    2.3580   -1.0976   -1.1415 H   0  0  0  0  0  0  0  0  0  0  0  0
    1.6081    2.5760    1.1266 H   0  0  0  0  0  0  0  0  0  0  0  0
   -1.7699    3.1171    2.1162 H   0  0  0  0  0  0  0  0  0  0  0  0
   -4.2008    2.6817    2.3185 H   0  0  0  0  0  0  0  0  0  0  0  0
   -5.2292    0.6514    1.3024 H   0  0  0  0  0  0  0  0  0  0  0  0
   -2.2573   -1.8160   -1.8137 H   0  0  0  0  0  0  0  0  0  0  0  0
   -1.9643   -2.7401   -0.3262 H   0  0  0  0  0  0  0  0  0  0  0  0
   -4.3660   -1.1738   -0.9986 H   0  0  0  0  0  0  0  0  0  0  0  0
   -4.0570   -2.0776    0.5159 H   0  0  0  0  0  0  0  0  0  0  0  0
  1  2  1  0
  2  3  1  0
  3  4  1  0
  4  5  2  0
  4  6  1  0
  6  7  2  0
  7  8  1  0
  7  9  1  0
  9 10  2  0
 10 11  1  0
 11 12  2  0
 12 13  1  0
 13 14  2  0
 14 15  1  0
 15 16  1  0
 16 17  2  0
 15 18  1  0
 18 19  1  0
 16  6  1  0
 14  9  1  0
 19 13  1  0
  1 20  1  0
  1 21  1  0
  1 22  1  0
  2 23  1  0
  2 24  1  0
  3 25  1  0
  8 26  1  0
 10 27  1  0
 11 28  1  0
 12 29  1  0
 18 30  1  0
 18 31  1  0
 19 32  1  0
 19 33  1  0
M  END
$$$$
