
     RDKit          3D

 58 61  0  0  0  0  0  0  0  0999 V2000
   -3.3216    6.3349    0.5408 C   0  0  0  0  0  0  0  0  0  0  0  0
   -2.4854    5.1865    0.4781 O   0  0  0  0  0  0  0  0  0  0  0  0
   -3.0704    3.9776    0.7394 C   0  0  0  0  0  0  0  0  0  0  0  0
   -4.3988    3.7709    1.0849 C   0  0  0  0  0  0  0  0  0  0  0  0
   -4.8801    2.4791    1.3270 C   0  0  0  0  0  0  0  0  0  0  0  0
   -4.0007    1.3846    1.2192 C   0  0  0  0  0  0  0  0  0  0  0  0
   -4.3812   -0.2712    1.4712 S   0  0  0  0  0  0  0  0  0  0  0  0
   -2.7855   -0.7797    1.1284 C   0  0  0  0  0  0  0  0  0  0  0  0
   -2.4790   -2.2120    1.2135 C   0  0  0  0  0  0  0  0  0  0  0  0
   -1.8767   -2.7153    2.3765 C   0  0  0  0  0  0  0  0  0  0  0  0
   -1.5610   -4.0713    2.4831 C   0  0  0  0  0  0  0  0  0  0  0  0
   -1.8345   -4.9365    1.4252 C   0  0  0  0  0  0  0  0  0  0  0  0
   -2.4281   -4.4495    0.2603 C   0  0  0  0  0  0  0  0  0  0  0  0
   -2.7648   -3.0957    0.1595 C   0  0  0  0  0  0  0  0  0  0  0  0
   -3.2994   -2.5987   -1.0039 O   0  0  0  0  0  0  0  0  0  0  0  0
   -4.5676   -3.1839   -1.2938 C   0  0  0  0  0  0  0  0  0  0  0  0
   -1.9584    0.2914    0.8323 C   0  0  0  0  0  0  0  0  0  0  0  0
   -0.5442    0.1049    0.5263 C   0  0  0  0  0  0  0  0  0  0  0  0
   -0.1506   -0.5196   -0.6619 C   0  0  0  0  0  0  0  0  0  0  0  0
    1.2067   -0.6958   -0.9538 C   0  0  0  0  0  0  0  0  0  0  0  0
    2.1798   -0.2444   -0.0620 C   0  0  0  0  0  0  0  0  0  0  0  0
    3.5331   -0.3537   -0.2234 O   0  0  0  0  0  0  0  0  0  0  0  0
    3.9978   -0.9861   -1.4193 C   0  0  0  0  0  0  0  0  0  0  0  0
    5.5387   -1.0139   -1.4178 C   0  0  0  0  0  0  0  0  0  0  0  0
    6.1847    0.2035   -1.9588 N   0  0  0  0  0  0  0  0  0  0  0  0
    5.8639    1.3914   -1.1638 C   0  0  0  0  0  0  0  0  0  0  0  0
    7.6370    0.0162   -2.0061 C   0  0  0  0  0  0  0  0  0  0  0  0
    1.7842    0.3847    1.1216 C   0  0  0  0  0  0  0  0  0  0  0  0
    0.4305    0.5613    1.4176 C   0  0  0  0  0  0  0  0  0  0  0  0
   -2.6584    1.5565    0.8790 C   0  0  0  0  0  0  0  0  0  0  0  0
   -2.2067    2.8805    0.6364 C   0  0  0  0  0  0  0  0  0  0  0  0
   -4.1293    6.2766   -0.1964 H   0  0  0  0  0  0  0  0  0  0  0  0
   -3.7173    6.4797    1.5515 H   0  0  0  0  0  0  0  0  0  0  0  0
   -2.7095    7.2081    0.2949 H   0  0  0  0  0  0  0  0  0  0  0  0
   -5.1001    4.5940    1.1761 H   0  0  0  0  0  0  0  0  0  0  0  0
   -5.9217    2.3245    1.5945 H   0  0  0  0  0  0  0  0  0  0  0  0
   -1.6457   -2.0475    3.2036 H   0  0  0  0  0  0  0  0  0  0  0  0
   -1.0912   -4.4485    3.3879 H   0  0  0  0  0  0  0  0  0  0  0  0
   -1.5727   -5.9887    1.5024 H   0  0  0  0  0  0  0  0  0  0  0  0
   -2.6049   -5.1256   -0.5707 H   0  0  0  0  0  0  0  0  0  0  0  0
   -4.4441   -4.1778   -1.7350 H   0  0  0  0  0  0  0  0  0  0  0  0
   -5.2071   -3.2352   -0.4051 H   0  0  0  0  0  0  0  0  0  0  0  0
   -5.0670   -2.5489   -2.0317 H   0  0  0  0  0  0  0  0  0  0  0  0
   -0.8986   -0.8753   -1.3680 H   0  0  0  0  0  0  0  0  0  0  0  0
    1.4642   -1.1885   -1.8851 H   0  0  0  0  0  0  0  0  0  0  0  0
    3.6398   -2.0231   -1.4343 H   0  0  0  0  0  0  0  0  0  0  0  0
    3.6313   -0.4623   -2.3108 H   0  0  0  0  0  0  0  0  0  0  0  0
    5.9046   -1.2223   -0.4038 H   0  0  0  0  0  0  0  0  0  0  0  0
    5.8374   -1.8536   -2.0584 H   0  0  0  0  0  0  0  0  0  0  0  0
    6.4071    2.2657   -1.5418 H   0  0  0  0  0  0  0  0  0  0  0  0
    6.1192    1.2631   -0.1058 H   0  0  0  0  0  0  0  0  0  0  0  0
    4.8023    1.6445   -1.2441 H   0  0  0  0  0  0  0  0  0  0  0  0
    8.1234    0.8885   -2.4568 H   0  0  0  0  0  0  0  0  0  0  0  0
    7.8952   -0.8429   -2.6353 H   0  0  0  0  0  0  0  0  0  0  0  0
    8.0668   -0.1430   -1.0104 H   0  0  0  0  0  0  0  0  0  0  0  0
    2.5376    0.7404    1.8199 H   0  0  0  0  0  0  0  0  0  0  0  0
    0.1455    1.0518    2.3450 H   0  0  0  0  0  0  0  0  0  0  0  0
   -1.1682    3.0497    0.3593 H   0  0  0  0  0  0  0  0  0  0  0  0
  1  2  1  0
  2  3  1  0
  3  4  2  0
  4  5  1  0
  5  6  2  0
  6  7  1  0
  7  8  1  0
  8  9  1  0
  9 10  2  0
 10 11  1  0
 11 12  2  0
 12 13  1  0
 13 14  2  0
 14 15  1  0
 15 16  1  0
  8 17  2  0
 17 18  1  0
 18 19  2  0
 19 20  1  0
 20 21  2  0
 21 22  1  0
 22 23  1  0
 23 24  1  0
 24 25  1  0
 25 26  1  0
 25 27  1  0
 21 28  1  0
 28 29  2  0
 17 30  1  0
 30 31  2  0
 31  3  1  0
 30  6  1  0
 14  9  1  0
 29 18  1  0
  1 32  1  0
  1 33  1  0
  1 34  1  0
  4 35  1  0
  5 36  1  0
 10 37  1  0
 11 38  1  0
 12 39  1  0
 13 40  1  0
 16 41  1  0
 16 42  1  0
 16 43  1  0
 19 44  1  0
 20 45  1  0
 23 46  1  0
 23 47  1  0
 24 48  1  0
 24 49  1  0
 26 50  1  0
 26 51  1  0
 26 52  1  0
 27 53  1  0
 27 54  1  0
 27 55  1  0
 28 56  1  0
 29 57  1  0
 31 58  1  0
M  END
$$$$
