
     RDKit          3D

 42 44  0  0  0  0  0  0  0  0999 V2000
    6.5239   -0.7667   -2.1615 C   0  0  0  0  0  0  0  0  0  0  0  0
    5.7777   -1.1255   -0.9960 O   0  0  0  0  0  0  0  0  0  0  0  0
    4.4557   -0.7852   -1.0527 C   0  0  0  0  0  0  0  0  0  0  0  0
    3.9169   -0.2531   -2.0134 O   0  0  0  0  0  0  0  0  0  0  0  0
    3.7696   -1.2275    0.2149 C   0  0  0  0  0  0  0  0  0  0  0  0
    2.5759   -0.4455    0.5034 N   0  0  0  0  0  0  0  0  0  0  0  0
    1.3002   -0.8230    0.1616 C   0  0  0  0  0  0  0  0  0  0  0  0
    0.4320    0.1494    0.6083 C   0  0  0  0  0  0  0  0  0  0  0  0
   -0.9878    0.1637    0.4299 C   0  0  0  0  0  0  0  0  0  0  0  0
   -1.7209   -0.7981   -0.1569 C   0  0  0  0  0  0  0  0  0  0  0  0
   -3.1751   -0.7161   -0.3264 C   0  0  0  0  0  0  0  0  0  0  0  0
   -3.7986    0.4379   -0.7989 C   0  0  0  0  0  0  0  0  0  0  0  0
   -5.1777    0.4539   -0.9721 C   0  0  0  0  0  0  0  0  0  0  0  0
   -5.9199   -0.6394   -0.6882 N   0  0  0  0  0  4  0  0  0  0  0  0
   -7.3786   -0.6002   -0.8877 C   0  0  0  0  0  0  0  0  0  0  0  0
   -5.3344   -1.7766   -0.2505 C   0  0  0  0  0  0  0  0  0  0  0  0
   -3.9578   -1.8386   -0.0657 C   0  0  0  0  0  0  0  0  0  0  0  0
    1.2134    1.1497    1.2695 C   0  0  0  0  0  0  0  0  0  0  0  0
    0.9111    2.3628    1.9283 C   0  0  0  0  0  0  0  0  0  0  0  0
    1.9407    3.1331    2.4788 C   0  0  0  0  0  0  0  0  0  0  0  0
    3.2631    2.7163    2.3813 C   0  0  0  0  0  0  0  0  0  0  0  0
    3.5939    1.5224    1.7353 C   0  0  0  0  0  0  0  0  0  0  0  0
    2.5532    0.7525    1.1886 C   0  0  0  0  0  0  0  0  0  0  0  0
    6.1488   -1.3079   -3.0356 H   0  0  0  0  0  0  0  0  0  0  0  0
    6.4836    0.3146   -2.3259 H   0  0  0  0  0  0  0  0  0  0  0  0
    7.5661   -1.0534   -1.9969 H   0  0  0  0  0  0  0  0  0  0  0  0
    4.4429   -1.1289    1.0725 H   0  0  0  0  0  0  0  0  0  0  0  0
    3.4781   -2.2782    0.1169 H   0  0  0  0  0  0  0  0  0  0  0  0
    1.1314   -1.7392   -0.3882 H   0  0  0  0  0  0  0  0  0  0  0  0
   -1.4952    1.0446    0.8164 H   0  0  0  0  0  0  0  0  0  0  0  0
   -1.2480   -1.7042   -0.5284 H   0  0  0  0  0  0  0  0  0  0  0  0
   -3.2174    1.3237   -1.0491 H   0  0  0  0  0  0  0  0  0  0  0  0
   -5.6947    1.3338   -1.3440 H   0  0  0  0  0  0  0  0  0  0  0  0
   -7.8560   -1.2820   -0.1794 H   0  0  0  0  0  0  0  0  0  0  0  0
   -7.7370    0.4166   -0.7079 H   0  0  0  0  0  0  0  0  0  0  0  0
   -7.5763   -0.9068   -1.9178 H   0  0  0  0  0  0  0  0  0  0  0  0
   -5.9747   -2.6321   -0.0544 H   0  0  0  0  0  0  0  0  0  0  0  0
   -3.5037   -2.7628    0.2883 H   0  0  0  0  0  0  0  0  0  0  0  0
   -0.1150    2.7061    2.0130 H   0  0  0  0  0  0  0  0  0  0  0  0
    1.7050    4.0664    2.9846 H   0  0  0  0  0  0  0  0  0  0  0  0
    4.0531    3.3285    2.8113 H   0  0  0  0  0  0  0  0  0  0  0  0
    4.6325    1.2151    1.6636 H   0  0  0  0  0  0  0  0  0  0  0  0
  1  2  1  0
  2  3  1  0
  3  4  2  0
  3  5  1  0
  5  6  1  0
  6  7  1  0
  7  8  2  0
  8  9  1  0
  9 10  2  3
 10 11  1  0
 11 12  2  0
 12 13  1  0
 13 14  2  0
 14 15  1  0
 14 16  1  0
 16 17  2  0
  8 18  1  0
 18 19  2  0
 19 20  1  0
 20 21  2  0
 21 22  1  0
 22 23  2  0
 23  6  1  0
 17 11  1  0
 23 18  1  0
  1 24  1  0
  1 25  1  0
  1 26  1  0
  5 27  1  0
  5 28  1  0
  7 29  1  0
  9 30  1  0
 10 31  1  0
 12 32  1  0
 13 33  1  0
 15 34  1  0
 15 35  1  0
 15 36  1  0
 16 37  1  0
 17 38  1  0
 19 39  1  0
 20 40  1  0
 21 41  1  0
 22 42  1  0
M  CHG  1  14   1
M  END
$$$$
