
     RDKit          3D

 67 72  0  0  0  0  0  0  0  0999 V2000
   -5.5353    4.0836    0.6304 C   0  0  0  0  0  0  0  0  0  0  0  0
   -4.4273    3.4501   -0.1556 C   0  0  0  0  0  0  0  0  0  0  0  0
   -4.2273    3.7452   -1.5182 C   0  0  0  0  0  0  0  0  0  0  0  0
   -5.2577    4.8569   -2.3547 Cl  0  0  0  0  0  0  0  0  0  0  0  0
   -3.1803    3.1587   -2.2572 C   0  0  0  0  0  0  0  0  0  0  0  0
   -2.3000    2.2576   -1.6583 C   0  0  0  0  0  0  0  0  0  0  0  0
   -2.4896    1.9566   -0.3199 C   0  0  0  0  0  0  0  0  0  0  0  0
   -3.5293    2.5535    0.4109 C   0  0  0  0  0  0  0  0  0  0  0  0
   -3.4835    2.1141    1.7347 N   0  0  0  0  0  0  0  0  0  0  0  0
   -2.4374    1.2138    1.9477 C   0  0  0  0  0  0  0  0  0  0  0  0
   -2.1658    0.6991    3.0228 O   0  0  0  0  0  0  0  0  0  0  0  0
   -1.7162    1.0480    0.5885 C   0  0  1  0  0  0  0  0  0  0  0  0
   -1.7550   -0.3423    0.0666 C   0  0  0  0  0  0  0  0  0  0  0  0
   -0.5032   -0.9595    0.2302 C   0  0  0  0  0  0  0  0  0  0  0  0
   -0.5812   -2.2455   -0.2330 C   0  0  0  0  0  0  0  0  0  0  0  0
    0.3469   -3.1963   -0.2870 O   0  0  0  0  0  0  0  0  0  0  0  0
   -1.8831   -2.4198   -0.7487 N   0  0  0  0  0  0  0  0  0  0  0  0
   -2.3641   -3.5618   -1.4662 C   0  0  0  0  0  0  0  0  0  0  0  0
   -1.8563   -4.8417   -1.2090 C   0  0  0  0  0  0  0  0  0  0  0  0
   -2.3367   -5.9369   -1.9258 C   0  0  0  0  0  0  0  0  0  0  0  0
   -1.8558   -7.1580   -1.6580 F   0  0  0  0  0  0  0  0  0  0  0  0
   -3.3085   -5.7894   -2.9038 C   0  0  0  0  0  0  0  0  0  0  0  0
   -3.7985   -4.5196   -3.1655 C   0  0  0  0  0  0  0  0  0  0  0  0
   -4.7260   -4.3556   -4.1176 F   0  0  0  0  0  0  0  0  0  0  0  0
   -3.3402   -3.4066   -2.4624 C   0  0  0  0  0  0  0  0  0  0  0  0
   -2.6277   -1.2578   -0.4537 C   0  0  0  0  0  0  0  0  0  0  0  0
   -3.9440   -1.1329   -0.6149 O   0  0  0  0  0  0  0  0  0  0  0  0
    0.4259   -0.0245    0.9020 C   0  0  1  0  0  0  0  0  0  0  0  0
    1.8706    0.0660    0.4228 C   0  0  0  0  0  0  0  0  0  0  0  0
    2.5575    1.2078    1.0594 N   0  0  0  0  0  0  0  0  0  0  0  0
    3.9386    1.2632    1.1516 C   0  0  0  0  0  0  0  0  0  0  0  0
    4.5551    2.2766    1.4531 O   0  0  0  0  0  0  0  0  0  0  0  0
    4.5161    0.0665    0.8722 O   0  0  0  0  0  0  0  0  0  0  0  0
    5.9571   -0.0974    0.9136 C   0  0  0  0  0  0  0  0  0  0  0  0
    6.5066    0.1430    2.3238 C   0  0  0  0  0  0  0  0  0  0  0  0
    6.6492    0.7842   -0.1318 C   0  0  0  0  0  0  0  0  0  0  0  0
    6.1890   -1.5707    0.5436 C   0  0  0  0  0  0  0  0  0  0  0  0
    1.8192    2.4818    1.1060 C   0  0  0  0  0  0  0  0  0  0  0  0
    0.3126    2.3340    1.4395 C   0  0  0  0  0  0  0  0  0  0  0  0
   -0.2525    1.2777    0.6160 N   0  0  0  0  0  0  0  0  0  0  0  0
   -5.6027    3.6928    1.6494 H   0  0  0  0  0  0  0  0  0  0  0  0
   -6.5020    3.8890    0.1543 H   0  0  0  0  0  0  0  0  0  0  0  0
   -5.3765    5.1644    0.7042 H   0  0  0  0  0  0  0  0  0  0  0  0
   -3.0515    3.4071   -3.3086 H   0  0  0  0  0  0  0  0  0  0  0  0
   -1.4926    1.8035   -2.2245 H   0  0  0  0  0  0  0  0  0  0  0  0
   -4.1134    2.3850    2.4738 H   0  0  0  0  0  0  0  0  0  0  0  0
    1.1575   -2.8602    0.1329 H   0  0  0  0  0  0  0  0  0  0  0  0
   -1.1138   -5.0290   -0.4397 H   0  0  0  0  0  0  0  0  0  0  0  0
   -3.6724   -6.6475   -3.4560 H   0  0  0  0  0  0  0  0  0  0  0  0
   -3.7242   -2.4317   -2.7525 H   0  0  0  0  0  0  0  0  0  0  0  0
   -4.3504   -2.0178   -0.6023 H   0  0  0  0  0  0  0  0  0  0  0  0
    0.4062   -0.2308    1.9821 H   0  0  0  0  0  0  0  0  0  0  0  0
    1.9298    0.2129   -0.6633 H   0  0  0  0  0  0  0  0  0  0  0  0
    2.3949   -0.8677    0.6516 H   0  0  0  0  0  0  0  0  0  0  0  0
    6.4357    1.1945    2.6173 H   0  0  0  0  0  0  0  0  0  0  0  0
    5.9377   -0.4295    3.0652 H   0  0  0  0  0  0  0  0  0  0  0  0
    7.5610   -0.1455    2.3950 H   0  0  0  0  0  0  0  0  0  0  0  0
    7.7133    0.5390   -0.2182 H   0  0  0  0  0  0  0  0  0  0  0  0
    6.1818    0.6607   -1.1152 H   0  0  0  0  0  0  0  0  0  0  0  0
    6.5790    1.8473    0.1173 H   0  0  0  0  0  0  0  0  0  0  0  0
    5.6763   -2.2348    1.2493 H   0  0  0  0  0  0  0  0  0  0  0  0
    5.7747   -1.7940   -0.4464 H   0  0  0  0  0  0  0  0  0  0  0  0
    7.2537   -1.8264    0.5391 H   0  0  0  0  0  0  0  0  0  0  0  0
    1.9321    2.9430    0.1163 H   0  0  0  0  0  0  0  0  0  0  0  0
    2.2893    3.1532    1.8332 H   0  0  0  0  0  0  0  0  0  0  0  0
   -0.1834    3.2913    1.2449 H   0  0  0  0  0  0  0  0  0  0  0  0
    0.1979    2.1096    2.5067 H   0  0  0  0  0  0  0  0  0  0  0  0
  1  2  1  0
  2  3  2  0
  3  4  1  0
  3  5  1  0
  5  6  2  0
  6  7  1  0
  7  8  2  0
  8  9  1  0
  9 10  1  0
 10 11  2  0
 10 12  1  0
 12 13  1  0
 13 14  1  0
 14 15  2  0
 15 16  1  0
 15 17  1  0
 17 18  1  0
 18 19  2  0
 19 20  1  0
 20 21  1  0
 20 22  2  0
 22 23  1  0
 23 24  1  0
 23 25  2  0
 17 26  1  0
 26 27  1  0
 14 28  1  0
 28 29  1  0
 29 30  1  0
 30 31  1  0
 31 32  2  0
 31 33  1  0
 33 34  1  0
 34 35  1  0
 34 36  1  0
 34 37  1  0
 30 38  1  0
 38 39  1  0
 39 40  1  0
  8  2  1  0
 12 40  1  1
 12  7  1  0
 26 13  2  0
 40 28  1  0
 25 18  1  0
  1 41  1  0
  1 42  1  0
  1 43  1  0
  5 44  1  0
  6 45  1  0
  9 46  1  0
 16 47  1  0
 19 48  1  0
 22 49  1  0
 25 50  1  0
 27 51  1  0
 28 52  1  1
 29 53  1  0
 29 54  1  0
 35 55  1  0
 35 56  1  0
 35 57  1  0
 36 58  1  0
 36 59  1  0
 36 60  1  0
 37 61  1  0
 37 62  1  0
 37 63  1  0
 38 64  1  0
 38 65  1  0
 39 66  1  0
 39 67  1  0
M  END
$$$$
