
     RDKit          3D

 44 44  0  0  0  0  0  0  0  0999 V2000
   -4.5550    2.1496    0.2974 C   0  0  0  0  0  0  0  0  0  0  0  0
   -3.4882    1.5848    1.2229 C   0  0  0  0  0  0  0  0  0  0  0  0
   -2.8349    0.4053    0.6394 N   0  0  0  0  0  0  0  0  0  0  0  0
   -3.4981   -0.8882    0.8572 C   0  0  0  0  0  0  0  0  0  0  0  0
   -4.1511   -1.4142   -0.4142 C   0  0  0  0  0  0  0  0  0  0  0  0
   -1.6597    0.5169   -0.0998 C   0  0  0  0  0  0  0  0  0  0  0  0
   -1.1871    1.7494   -0.5777 C   0  0  0  0  0  0  0  0  0  0  0  0
   -0.0073    1.8599   -1.3236 C   0  0  0  0  0  0  0  0  0  0  0  0
    0.7510    0.7319   -1.6171 C   0  0  0  0  0  0  0  0  0  0  0  0
    0.3327   -0.5056   -1.1506 C   0  0  0  0  0  0  0  0  0  0  0  0
    0.9825   -1.6974   -1.3223 O   0  0  0  0  0  0  0  0  0  0  0  0
    2.2533   -1.6863   -1.9505 C   0  0  0  0  0  0  0  0  0  0  0  0
    3.4204   -0.9970   -1.2196 C   0  0  0  0  0  0  0  0  0  0  0  0
    4.1698   -0.2416   -1.8449 O   0  0  0  0  0  0  0  0  0  0  0  0
    3.6240   -1.2665    0.1316 N   0  0  0  0  0  0  0  0  0  0  0  0
    2.7789   -2.1618    0.9108 C   0  0  0  0  0  0  0  0  0  0  0  0
    4.5842   -0.4370    0.8686 C   0  0  0  0  0  0  0  0  0  0  0  0
    3.9529    0.7586    1.5844 C   0  0  0  0  0  0  0  0  0  0  0  0
    3.6178    1.8601    0.6731 C   0  0  0  0  0  0  0  0  0  0  0  0
    3.3552    2.7691    0.0005 N   0  0  0  0  0  0  0  0  0  0  0  0
   -0.8601   -0.5982   -0.4127 C   0  0  0  0  0  0  0  0  0  0  0  0
   -4.1485    2.4026   -0.6863 H   0  0  0  0  0  0  0  0  0  0  0  0
   -4.9878    3.0566    0.7311 H   0  0  0  0  0  0  0  0  0  0  0  0
   -5.3673    1.4316    0.1487 H   0  0  0  0  0  0  0  0  0  0  0  0
   -2.7607    2.3602    1.4897 H   0  0  0  0  0  0  0  0  0  0  0  0
   -3.9591    1.3121    2.1759 H   0  0  0  0  0  0  0  0  0  0  0  0
   -2.8015   -1.6249    1.2722 H   0  0  0  0  0  0  0  0  0  0  0  0
   -4.2832   -0.7843    1.6167 H   0  0  0  0  0  0  0  0  0  0  0  0
   -4.8797   -0.7009   -0.8111 H   0  0  0  0  0  0  0  0  0  0  0  0
   -3.4177   -1.6108   -1.2016 H   0  0  0  0  0  0  0  0  0  0  0  0
   -4.6759   -2.3520   -0.2056 H   0  0  0  0  0  0  0  0  0  0  0  0
   -1.7361    2.6688   -0.4001 H   0  0  0  0  0  0  0  0  0  0  0  0
    0.3235    2.8362   -1.6715 H   0  0  0  0  0  0  0  0  0  0  0  0
    1.6565    0.8695   -2.1990 H   0  0  0  0  0  0  0  0  0  0  0  0
    2.1647   -1.2674   -2.9611 H   0  0  0  0  0  0  0  0  0  0  0  0
    2.5525   -2.7319   -2.0922 H   0  0  0  0  0  0  0  0  0  0  0  0
    2.3997   -2.9809    0.2965 H   0  0  0  0  0  0  0  0  0  0  0  0
    3.3635   -2.5974    1.7264 H   0  0  0  0  0  0  0  0  0  0  0  0
    1.9433   -1.5923    1.3258 H   0  0  0  0  0  0  0  0  0  0  0  0
    5.3769   -0.0957    0.1921 H   0  0  0  0  0  0  0  0  0  0  0  0
    5.0684   -1.0874    1.6071 H   0  0  0  0  0  0  0  0  0  0  0  0
    3.0598    0.4503    2.1389 H   0  0  0  0  0  0  0  0  0  0  0  0
    4.6695    1.1348    2.3245 H   0  0  0  0  0  0  0  0  0  0  0  0
   -1.1419   -1.5887   -0.0701 H   0  0  0  0  0  0  0  0  0  0  0  0
  1  2  1  0
  2  3  1  0
  3  4  1  0
  4  5  1  0
  3  6  1  0
  6  7  2  0
  7  8  1  0
  8  9  2  0
  9 10  1  0
 10 11  1  0
 11 12  1  0
 12 13  1  0
 13 14  2  0
 13 15  1  0
 15 16  1  0
 15 17  1  0
 17 18  1  0
 18 19  1  0
 19 20  3  0
 10 21  2  0
 21  6  1  0
  1 22  1  0
  1 23  1  0
  1 24  1  0
  2 25  1  0
  2 26  1  0
  4 27  1  0
  4 28  1  0
  5 29  1  0
  5 30  1  0
  5 31  1  0
  7 32  1  0
  8 33  1  0
  9 34  1  0
 12 35  1  0
 12 36  1  0
 16 37  1  0
 16 38  1  0
 16 39  1  0
 17 40  1  0
 17 41  1  0
 18 42  1  0
 18 43  1  0
 21 44  1  0
M  END
$$$$
