
     RDKit          3D

 51 55  0  0  0  0  0  0  0  0999 V2000
   -0.0732   -1.6486   -1.5600 O   0  0  0  0  0  0  0  0  0  0  0  0
    0.2274   -0.5485   -2.0149 C   0  0  0  0  0  0  0  0  0  0  0  0
   -0.6825    0.6853   -1.9203 C   0  0  0  0  0  0  0  0  0  0  0  0
   -1.5025    0.6576   -0.7080 N   0  0  0  0  0  0  0  0  0  0  0  0
   -0.8677    1.0124    0.4782 C   0  0  0  0  0  0  0  0  0  0  0  0
    0.3379    1.2701    0.5333 O   0  0  0  0  0  0  0  0  0  0  0  0
   -1.7244    1.1476    1.7110 C   0  0  0  0  0  0  0  0  0  0  0  0
   -1.8562   -0.1849    2.4268 C   0  0  0  0  0  0  0  0  0  0  0  0
   -2.7323   -0.0732    3.6354 C   0  0  0  0  0  0  0  0  0  0  0  0
   -2.5785   -0.4772    4.9467 C   0  0  0  0  0  0  0  0  0  0  0  0
   -3.7567   -0.0887    5.6268 C   0  0  0  0  0  0  0  0  0  0  0  0
   -4.5544    0.5261    4.6918 C   0  0  0  0  0  0  0  0  0  0  0  0
   -3.9421    0.5432    3.4813 O   0  0  0  0  0  0  0  0  0  0  0  0
   -2.4204   -1.5868    1.3918 S   0  0  0  0  0  0  0  0  0  0  0  0
   -3.3850   -0.7420    0.1439 C   0  0  0  0  0  0  0  0  0  0  0  0
   -4.7226   -1.1503    0.0213 C   0  0  0  0  0  0  0  0  0  0  0  0
   -5.5329   -0.6519   -0.9978 C   0  0  0  0  0  0  0  0  0  0  0  0
   -5.0093    0.2496   -1.9159 C   0  0  0  0  0  0  0  0  0  0  0  0
   -3.6776    0.6573   -1.8120 C   0  0  0  0  0  0  0  0  0  0  0  0
   -2.8471    0.1776   -0.7838 C   0  0  0  0  0  0  0  0  0  0  0  0
    1.3899   -0.3235   -2.7285 N   0  0  0  0  0  0  0  0  0  0  0  0
    2.4275   -1.3269   -2.8140 C   0  0  0  0  0  0  0  0  0  0  0  0
    3.6349   -0.9054   -2.0142 C   0  0  0  0  0  0  0  0  0  0  0  0
    3.5817   -0.9095   -0.5996 C   0  0  0  0  0  0  0  0  0  0  0  0
    4.6807   -0.5048    0.1652 C   0  0  0  0  0  0  0  0  0  0  0  0
    5.8129   -0.0991   -0.5060 C   0  0  0  0  0  0  0  0  0  0  0  0
    5.8732   -0.0860   -1.8796 C   0  0  0  0  0  0  0  0  0  0  0  0
    4.8070   -0.4811   -2.6610 C   0  0  0  0  0  0  0  0  0  0  0  0
    7.0747    0.3524   -2.3425 O   0  0  0  0  0  0  0  0  0  0  0  0
    7.7607    0.6207   -1.1010 C   0  0  0  0  0  0  0  0  0  0  0  0
    6.9696    0.3273    0.0688 O   0  0  0  0  0  0  0  0  0  0  0  0
   -0.0674    1.5935   -1.9044 H   0  0  0  0  0  0  0  0  0  0  0  0
   -1.2885    0.7117   -2.8305 H   0  0  0  0  0  0  0  0  0  0  0  0
   -2.6883    1.6052    1.4562 H   0  0  0  0  0  0  0  0  0  0  0  0
   -1.2382    1.8784    2.3725 H   0  0  0  0  0  0  0  0  0  0  0  0
   -0.8574   -0.4818    2.7718 H   0  0  0  0  0  0  0  0  0  0  0  0
   -1.7214   -0.9945    5.3557 H   0  0  0  0  0  0  0  0  0  0  0  0
   -3.9968   -0.2406    6.6694 H   0  0  0  0  0  0  0  0  0  0  0  0
   -5.5344    0.9806    4.7260 H   0  0  0  0  0  0  0  0  0  0  0  0
   -5.1410   -1.8751    0.7175 H   0  0  0  0  0  0  0  0  0  0  0  0
   -6.5674   -0.9762   -1.0770 H   0  0  0  0  0  0  0  0  0  0  0  0
   -5.6379    0.6420   -2.7113 H   0  0  0  0  0  0  0  0  0  0  0  0
   -3.3170    1.3943   -2.5247 H   0  0  0  0  0  0  0  0  0  0  0  0
    1.6719    0.6319   -2.9052 H   0  0  0  0  0  0  0  0  0  0  0  0
    2.6859   -1.4264   -3.8740 H   0  0  0  0  0  0  0  0  0  0  0  0
    2.0741   -2.3051   -2.4704 H   0  0  0  0  0  0  0  0  0  0  0  0
    2.6689   -1.2247   -0.0933 H   0  0  0  0  0  0  0  0  0  0  0  0
    4.6410   -0.5063    1.2486 H   0  0  0  0  0  0  0  0  0  0  0  0
    4.8857   -0.4569   -3.7427 H   0  0  0  0  0  0  0  0  0  0  0  0
    8.6748    0.0156   -1.0688 H   0  0  0  0  0  0  0  0  0  0  0  0
    8.0406    1.6802   -1.0784 H   0  0  0  0  0  0  0  0  0  0  0  0
  1  2  2  0
  2  3  1  0
  3  4  1  0
  4  5  1  0
  5  6  2  0
  5  7  1  0
  7  8  1  0
  8  9  1  0
  9 10  2  0
 10 11  1  0
 11 12  2  0
 12 13  1  0
  8 14  1  0
 14 15  1  0
 15 16  2  0
 16 17  1  0
 17 18  2  0
 18 19  1  0
 19 20  2  0
  2 21  1  0
 21 22  1  0
 22 23  1  0
 23 24  2  0
 24 25  1  0
 25 26  2  0
 26 27  1  0
 27 28  2  0
 27 29  1  0
 29 30  1  0
 30 31  1  0
 20  4  1  0
 28 23  1  0
 13  9  1  0
 20 15  1  0
 31 26  1  0
  3 32  1  0
  3 33  1  0
  7 34  1  0
  7 35  1  0
  8 36  1  0
 10 37  1  0
 11 38  1  0
 12 39  1  0
 16 40  1  0
 17 41  1  0
 18 42  1  0
 19 43  1  0
 21 44  1  0
 22 45  1  0
 22 46  1  0
 24 47  1  0
 25 48  1  0
 28 49  1  0
 30 50  1  0
 30 51  1  0
M  END
$$$$
