
     RDKit          3D

 33 34  0  0  0  0  0  0  0  0999 V2000
   -5.3842    1.1825   -1.4188 N   0  0  0  0  0  0  0  0  0  0  0  0
   -4.2344    0.9898   -0.6465 C   0  0  0  0  0  0  0  0  0  0  0  0
   -4.2451    1.2883    0.7180 C   0  0  0  0  0  0  0  0  0  0  0  0
   -3.1419    0.9886    1.5241 C   0  0  0  0  0  0  0  0  0  0  0  0
   -2.0260    0.3417    0.9811 C   0  0  0  0  0  0  0  0  0  0  0  0
   -0.8776    0.0442    1.8788 C   0  0  0  0  0  0  0  0  0  0  0  0
   -0.8112    0.4192    3.0389 O   0  0  0  0  0  0  0  0  0  0  0  0
    0.0549   -0.6958    1.2304 O   0  0  0  0  0  0  0  0  0  0  0  0
    1.2232   -0.9892    2.0124 C   0  0  0  0  0  0  0  0  0  0  0  0
    2.1996   -1.8130    1.1733 C   0  0  0  0  0  0  0  0  0  0  0  0
    2.8502   -1.0017    0.0770 C   0  0  0  0  0  0  0  0  0  0  0  0
    2.3147   -0.9974   -1.2180 C   0  0  0  0  0  0  0  0  0  0  0  0
    2.9064   -0.2350   -2.2261 C   0  0  0  0  0  0  0  0  0  0  0  0
    4.0365    0.5318   -1.9489 C   0  0  0  0  0  0  0  0  0  0  0  0
    4.5749    0.5382   -0.6635 C   0  0  0  0  0  0  0  0  0  0  0  0
    3.9844   -0.2235    0.3461 C   0  0  0  0  0  0  0  0  0  0  0  0
   -2.0341   -0.0105   -0.3735 C   0  0  0  0  0  0  0  0  0  0  0  0
   -3.1422    0.2948   -1.1720 C   0  0  0  0  0  0  0  0  0  0  0  0
   -5.2071    1.2425   -2.4166 H   0  0  0  0  0  0  0  0  0  0  0  0
   -5.9818    1.9343   -1.0888 H   0  0  0  0  0  0  0  0  0  0  0  0
   -5.1142    1.7606    1.1689 H   0  0  0  0  0  0  0  0  0  0  0  0
   -3.1652    1.2508    2.5801 H   0  0  0  0  0  0  0  0  0  0  0  0
    0.9204   -1.5803    2.8848 H   0  0  0  0  0  0  0  0  0  0  0  0
    1.6872   -0.0553    2.3518 H   0  0  0  0  0  0  0  0  0  0  0  0
    2.9845   -2.2231    1.8205 H   0  0  0  0  0  0  0  0  0  0  0  0
    1.6807   -2.6708    0.7274 H   0  0  0  0  0  0  0  0  0  0  0  0
    1.4301   -1.5871   -1.4471 H   0  0  0  0  0  0  0  0  0  0  0  0
    2.4848   -0.2384   -3.2276 H   0  0  0  0  0  0  0  0  0  0  0  0
    4.4966    1.1259   -2.7339 H   0  0  0  0  0  0  0  0  0  0  0  0
    5.4547    1.1382   -0.4464 H   0  0  0  0  0  0  0  0  0  0  0  0
    4.4153   -0.2049    1.3446 H   0  0  0  0  0  0  0  0  0  0  0  0
   -1.1914   -0.5298   -0.8220 H   0  0  0  0  0  0  0  0  0  0  0  0
   -3.1424   -0.0156   -2.2139 H   0  0  0  0  0  0  0  0  0  0  0  0
  1  2  1  0
  2  3  2  0
  3  4  1  0
  4  5  2  0
  5  6  1  0
  6  7  2  0
  6  8  1  0
  8  9  1  0
  9 10  1  0
 10 11  1  0
 11 12  2  0
 12 13  1  0
 13 14  2  0
 14 15  1  0
 15 16  2  0
  5 17  1  0
 17 18  2  0
 18  2  1  0
 16 11  1  0
  1 19  1  0
  1 20  1  0
  3 21  1  0
  4 22  1  0
  9 23  1  0
  9 24  1  0
 10 25  1  0
 10 26  1  0
 12 27  1  0
 13 28  1  0
 14 29  1  0
 15 30  1  0
 16 31  1  0
 17 32  1  0
 18 33  1  0
M  END
$$$$
