
     RDKit          3D

 38 39  0  0  0  0  0  0  0  0999 V2000
   -4.7374    2.4128   -0.2503 C   0  0  0  0  0  0  0  0  0  0  0  0
   -3.5880    1.6258   -0.5417 O   0  0  0  0  0  0  0  0  0  0  0  0
   -3.2953    0.5866    0.3006 C   0  0  0  0  0  0  0  0  0  0  0  0
   -4.0614    0.2472    1.4233 C   0  0  0  0  0  0  0  0  0  0  0  0
   -3.7195   -0.8533    2.2160 C   0  0  0  0  0  0  0  0  0  0  0  0
   -2.6117   -1.6321    1.8966 C   0  0  0  0  0  0  0  0  0  0  0  0
   -1.8394   -1.3071    0.7845 C   0  0  0  0  0  0  0  0  0  0  0  0
   -2.1693   -0.1960   -0.0085 C   0  0  0  0  0  0  0  0  0  0  0  0
   -1.2794    0.0822   -1.1676 C   0  0  0  0  0  0  0  0  0  0  0  0
   -0.7888   -0.8657   -1.7839 O   0  0  0  0  0  0  0  0  0  0  0  0
   -0.9638    1.5358   -1.5149 C   0  0  0  0  0  0  0  0  0  0  0  0
    0.3186    1.6661   -2.1372 O   0  0  0  0  0  0  0  0  0  0  0  0
    1.3523    1.4245   -1.2913 C   0  0  0  0  0  0  0  0  0  0  0  0
    1.2727    1.2557   -0.0869 O   0  0  0  0  0  0  0  0  0  0  0  0
    2.5916    1.4092   -2.0933 C   0  0  0  0  0  0  0  0  0  0  0  0
    3.6426    0.6047   -1.8699 C   0  0  0  0  0  0  0  0  0  0  0  0
    3.7474   -0.4492   -0.8547 C   0  0  0  0  0  0  0  0  0  0  0  0
    4.8443   -0.4567    0.0147 C   0  0  0  0  0  0  0  0  0  0  0  0
    4.9882   -1.4728    0.9625 C   0  0  0  0  0  0  0  0  0  0  0  0
    4.0426   -2.4943    1.0408 C   0  0  0  0  0  0  0  0  0  0  0  0
    2.9551   -2.5026    0.1694 C   0  0  0  0  0  0  0  0  0  0  0  0
    2.8103   -1.4876   -0.7789 C   0  0  0  0  0  0  0  0  0  0  0  0
   -4.8118    3.1896   -1.0178 H   0  0  0  0  0  0  0  0  0  0  0  0
   -5.6513    1.8106   -0.2985 H   0  0  0  0  0  0  0  0  0  0  0  0
   -4.6386    2.9119    0.7193 H   0  0  0  0  0  0  0  0  0  0  0  0
   -4.9407    0.8150    1.7114 H   0  0  0  0  0  0  0  0  0  0  0  0
   -4.3251   -1.1047    3.0838 H   0  0  0  0  0  0  0  0  0  0  0  0
   -2.3473   -2.4884    2.5104 H   0  0  0  0  0  0  0  0  0  0  0  0
   -0.9695   -1.9139    0.5383 H   0  0  0  0  0  0  0  0  0  0  0  0
   -1.7030    1.8798   -2.2446 H   0  0  0  0  0  0  0  0  0  0  0  0
   -1.0121    2.1838   -0.6329 H   0  0  0  0  0  0  0  0  0  0  0  0
    2.6150    2.1117   -2.9183 H   0  0  0  0  0  0  0  0  0  0  0  0
    4.5177    0.7017   -2.5089 H   0  0  0  0  0  0  0  0  0  0  0  0
    5.5891    0.3340   -0.0307 H   0  0  0  0  0  0  0  0  0  0  0  0
    5.8377   -1.4659    1.6399 H   0  0  0  0  0  0  0  0  0  0  0  0
    4.1537   -3.2833    1.7796 H   0  0  0  0  0  0  0  0  0  0  0  0
    2.2164   -3.2980    0.2236 H   0  0  0  0  0  0  0  0  0  0  0  0
    1.9579   -1.5170   -1.4551 H   0  0  0  0  0  0  0  0  0  0  0  0
  1  2  1  0
  2  3  1  0
  3  4  2  0
  4  5  1  0
  5  6  2  0
  6  7  1  0
  7  8  2  0
  8  9  1  0
  9 10  2  0
  9 11  1  0
 11 12  1  0
 12 13  1  0
 13 14  2  0
 13 15  1  0
 15 16  2  3
 16 17  1  0
 17 18  2  0
 18 19  1  0
 19 20  2  0
 20 21  1  0
 21 22  2  0
  8  3  1  0
 22 17  1  0
  1 23  1  0
  1 24  1  0
  1 25  1  0
  4 26  1  0
  5 27  1  0
  6 28  1  0
  7 29  1  0
 11 30  1  0
 11 31  1  0
 15 32  1  0
 16 33  1  0
 18 34  1  0
 19 35  1  0
 20 36  1  0
 21 37  1  0
 22 38  1  0
M  END
$$$$
