
     RDKit          3D

 44 46  0  0  0  0  0  0  0  0999 V2000
   -4.5099   -2.6347    3.8678 C   0  0  0  0  0  0  0  0  0  0  0  0
   -3.5790   -1.7129    3.1266 C   0  0  0  0  0  0  0  0  0  0  0  0
   -3.8900   -1.3488    1.8043 C   0  0  0  0  0  0  0  0  0  0  0  0
   -3.0574   -0.5046    1.0492 C   0  0  0  0  0  0  0  0  0  0  0  0
   -3.4773   -0.1489   -0.3503 C   0  0  0  0  0  0  0  0  0  0  0  0
   -1.8881   -0.0165    1.6557 C   0  0  0  0  0  0  0  0  0  0  0  0
   -0.7678    1.0834    0.8004 S   0  0  0  0  0  6  0  0  0  0  0  0
   -1.5516    2.0832    0.1106 O   0  0  0  0  0  0  0  0  0  0  0  0
    0.2893    1.4506    1.7211 O   0  0  0  0  0  0  0  0  0  0  0  0
   -0.0560    0.0067   -0.3216 N   0  0  0  0  0  0  0  0  0  0  0  0
    0.7004    0.6618   -1.3500 C   0  0  0  0  0  0  0  0  0  0  0  0
    0.0485    1.1040   -2.4983 C   0  0  0  0  0  0  0  0  0  0  0  0
    0.7662    1.7768   -3.4850 C   0  0  0  0  0  0  0  0  0  0  0  0
    2.1301    2.0114   -3.3162 C   0  0  0  0  0  0  0  0  0  0  0  0
    2.7511    2.6673   -4.3432 O   0  0  0  0  0  0  0  0  0  0  0  0
    2.7949    1.5994   -2.1516 C   0  0  0  0  0  0  0  0  0  0  0  0
    4.5085    1.9628   -1.7946 S   0  0  0  0  0  0  0  0  0  0  0  0
    5.3472    1.0844   -3.0389 C   0  0  0  0  0  0  0  0  0  0  0  0
    5.1283    1.3133   -4.3738 N   0  0  0  0  0  0  0  0  0  0  0  0
    5.9667    0.4859   -4.9535 C   0  0  0  0  0  0  0  0  0  0  0  0
    6.6687   -0.1888   -4.0046 N   0  0  0  0  0  0  0  0  0  0  0  0
    6.2941    0.1817   -2.7702 N   0  0  0  0  0  0  0  0  0  0  0  0
    2.0593    0.9284   -1.1627 C   0  0  0  0  0  0  0  0  0  0  0  0
   -1.5661   -0.3765    2.9745 C   0  0  0  0  0  0  0  0  0  0  0  0
   -2.3926   -1.2372    3.7118 C   0  0  0  0  0  0  0  0  0  0  0  0
   -2.0094   -1.5912    5.1232 C   0  0  0  0  0  0  0  0  0  0  0  0
   -4.0805   -3.6404    3.9154 H   0  0  0  0  0  0  0  0  0  0  0  0
   -5.4839   -2.7018    3.3728 H   0  0  0  0  0  0  0  0  0  0  0  0
   -4.6943   -2.2688    4.8824 H   0  0  0  0  0  0  0  0  0  0  0  0
   -4.8075   -1.7296    1.3550 H   0  0  0  0  0  0  0  0  0  0  0  0
   -2.6706   -0.3408   -1.0630 H   0  0  0  0  0  0  0  0  0  0  0  0
   -4.3289   -0.7572   -0.6760 H   0  0  0  0  0  0  0  0  0  0  0  0
   -3.7868    0.8993   -0.4041 H   0  0  0  0  0  0  0  0  0  0  0  0
    0.5327   -0.6333    0.2155 H   0  0  0  0  0  0  0  0  0  0  0  0
   -1.0166    0.9348   -2.6287 H   0  0  0  0  0  0  0  0  0  0  0  0
    0.2644    2.1211   -4.3851 H   0  0  0  0  0  0  0  0  0  0  0  0
    3.7018    2.4292   -4.3230 H   0  0  0  0  0  0  0  0  0  0  0  0
    6.1088    0.3402   -6.0154 H   0  0  0  0  0  0  0  0  0  0  0  0
    7.3898   -0.8932   -4.1169 H   0  0  0  0  0  0  0  0  0  0  0  0
    2.5453    0.6310   -0.2368 H   0  0  0  0  0  0  0  0  0  0  0  0
   -0.6631    0.0168    3.4408 H   0  0  0  0  0  0  0  0  0  0  0  0
   -2.6543   -1.0635    5.8318 H   0  0  0  0  0  0  0  0  0  0  0  0
   -0.9718   -1.3149    5.3367 H   0  0  0  0  0  0  0  0  0  0  0  0
   -2.0924   -2.6700    5.2883 H   0  0  0  0  0  0  0  0  0  0  0  0
  1  2  1  0
  2  3  2  0
  3  4  1  0
  4  5  1  0
  4  6  2  0
  6  7  1  0
  7  8  2  0
  7  9  2  0
  7 10  1  0
 10 11  1  0
 11 12  2  0
 12 13  1  0
 13 14  2  0
 14 15  1  0
 14 16  1  0
 16 17  1  0
 17 18  1  0
 18 19  1  0
 19 20  2  0
 20 21  1  0
 21 22  1  0
 16 23  2  0
  6 24  1  0
 24 25  2  0
 25 26  1  0
 25  2  1  0
 23 11  1  0
 22 18  2  0
  1 27  1  0
  1 28  1  0
  1 29  1  0
  3 30  1  0
  5 31  1  0
  5 32  1  0
  5 33  1  0
 10 34  1  0
 12 35  1  0
 13 36  1  0
 15 37  1  0
 20 38  1  0
 21 39  1  0
 23 40  1  0
 24 41  1  0
 26 42  1  0
 26 43  1  0
 26 44  1  0
M  END
$$$$
