
     RDKit          3D

 37 40  0  0  0  0  0  0  0  0999 V2000
   -1.3069   -2.9688    0.8025 C   0  0  0  0  0  0  0  0  0  0  0  0
   -0.5255   -1.7370    0.4403 C   0  0  0  0  0  0  0  0  0  0  0  0
    0.8796   -1.7843    0.4171 C   0  0  0  0  0  0  0  0  0  0  0  0
    1.6254   -0.6337    0.0817 C   0  0  0  0  0  0  0  0  0  0  0  0
    0.9403    0.5443   -0.2223 C   0  0  0  0  0  0  0  0  0  0  0  0
    1.8988    1.4919   -0.5062 N   0  0  0  0  0  0  0  0  0  0  0  0
    3.1663    0.9721   -0.3974 C   0  0  0  0  0  0  0  0  0  0  0  0
    4.4120    1.5793   -0.5961 C   0  0  0  0  0  0  0  0  0  0  0  0
    5.5521    0.7919   -0.4105 C   0  0  0  0  0  0  0  0  0  0  0  0
    5.4473   -0.5471   -0.0414 C   0  0  0  0  0  0  0  0  0  0  0  0
    4.1929   -1.1368    0.1526 C   0  0  0  0  0  0  0  0  0  0  0  0
    3.0272   -0.3637   -0.0285 C   0  0  0  0  0  0  0  0  0  0  0  0
   -0.4627    0.6159   -0.2058 C   0  0  0  0  0  0  0  0  0  0  0  0
   -1.1824   -0.5399    0.1249 C   0  0  0  0  0  0  0  0  0  0  0  0
   -2.5517   -0.5606    0.1773 O   0  0  0  0  0  0  0  0  0  0  0  0
   -3.2922    0.5893   -0.2782 C   0  0  0  0  0  0  0  0  0  0  0  0
   -4.0204    0.1674   -1.5598 C   0  0  0  0  0  0  0  0  0  0  0  0
   -4.3175    0.8911    0.8215 C   0  0  0  0  0  0  0  0  0  0  0  0
   -2.4770    1.8338   -0.5496 C   0  0  0  0  0  0  0  0  0  0  0  0
   -1.1418    1.8594   -0.5153 C   0  0  0  0  0  0  0  0  0  0  0  0
   -1.9079   -2.7863    1.6992 H   0  0  0  0  0  0  0  0  0  0  0  0
   -0.6465   -3.8168    1.0122 H   0  0  0  0  0  0  0  0  0  0  0  0
   -1.9644   -3.2574   -0.0240 H   0  0  0  0  0  0  0  0  0  0  0  0
    1.4027   -2.7058    0.6579 H   0  0  0  0  0  0  0  0  0  0  0  0
    1.6999    2.4463   -0.7635 H   0  0  0  0  0  0  0  0  0  0  0  0
    4.4977    2.6221   -0.8835 H   0  0  0  0  0  0  0  0  0  0  0  0
    6.5358    1.2325   -0.5567 H   0  0  0  0  0  0  0  0  0  0  0  0
    6.3467   -1.1417    0.0979 H   0  0  0  0  0  0  0  0  0  0  0  0
    4.1202   -2.1813    0.4403 H   0  0  0  0  0  0  0  0  0  0  0  0
   -4.6732    0.9604   -1.9410 H   0  0  0  0  0  0  0  0  0  0  0  0
   -4.6299   -0.7272   -1.3859 H   0  0  0  0  0  0  0  0  0  0  0  0
   -3.3045   -0.0967   -2.3475 H   0  0  0  0  0  0  0  0  0  0  0  0
   -4.9866    1.7137    0.5459 H   0  0  0  0  0  0  0  0  0  0  0  0
   -3.8160    1.1550    1.7605 H   0  0  0  0  0  0  0  0  0  0  0  0
   -4.9299    0.0077    1.0378 H   0  0  0  0  0  0  0  0  0  0  0  0
   -3.0185    2.7440   -0.7934 H   0  0  0  0  0  0  0  0  0  0  0  0
   -0.5895    2.7669   -0.7172 H   0  0  0  0  0  0  0  0  0  0  0  0
  1  2  1  0
  2  3  2  0
  3  4  1  0
  4  5  2  0
  5  6  1  0
  6  7  1  0
  7  8  2  0
  8  9  1  0
  9 10  2  0
 10 11  1  0
 11 12  2  0
  5 13  1  0
 13 14  2  0
 14 15  1  0
 15 16  1  0
 16 17  1  0
 16 18  1  0
 16 19  1  0
 19 20  2  0
 14  2  1  0
 12  4  1  0
 20 13  1  0
 12  7  1  0
  1 21  1  0
  1 22  1  0
  1 23  1  0
  3 24  1  0
  6 25  1  0
  8 26  1  0
  9 27  1  0
 10 28  1  0
 11 29  1  0
 17 30  1  0
 17 31  1  0
 17 32  1  0
 18 33  1  0
 18 34  1  0
 18 35  1  0
 19 36  1  0
 20 37  1  0
M  END
$$$$
