
     RDKit          3D

 29 29  0  0  0  0  0  0  0  0999 V2000
   -4.7841   -0.4542   -2.4051 C   0  0  0  0  0  0  0  0  0  0  0  0
   -4.4851   -0.7370   -1.2765 C   0  0  0  0  0  0  0  0  0  0  0  0
   -4.1223   -1.0835    0.1049 C   0  0  0  0  0  0  0  0  0  0  0  0
   -2.8896   -1.8679    0.1635 N   0  0  0  0  0  0  0  0  0  0  0  0
   -1.6988   -1.0526   -0.0876 C   0  0  0  0  0  0  0  0  0  0  0  0
   -0.4463   -1.9211    0.0592 C   0  0  0  0  0  0  0  0  0  0  0  0
    0.8282   -1.1451   -0.2708 C   0  0  0  0  0  0  0  0  0  0  0  0
    0.9553   -0.0511    0.6345 O   0  0  0  0  0  0  0  0  0  0  0  0
    2.0042    0.8119    0.4605 C   0  0  0  0  0  0  0  0  0  0  0  0
    3.0394    0.6257   -0.4618 C   0  0  0  0  0  0  0  0  0  0  0  0
    4.0734    1.5630   -0.5622 C   0  0  0  0  0  0  0  0  0  0  0  0
    4.0783    2.6880    0.2592 C   0  0  0  0  0  0  0  0  0  0  0  0
    5.3539    3.8344    0.1276 Cl  0  0  0  0  0  0  0  0  0  0  0  0
    3.0597    2.8890    1.1840 C   0  0  0  0  0  0  0  0  0  0  0  0
    2.0280    1.9524    1.2833 C   0  0  0  0  0  0  0  0  0  0  0  0
    0.7801    2.2474    2.4453 Cl  0  0  0  0  0  0  0  0  0  0  0  0
   -5.0510   -0.2014   -3.4053 H   0  0  0  0  0  0  0  0  0  0  0  0
   -4.9265   -1.6878    0.5399 H   0  0  0  0  0  0  0  0  0  0  0  0
   -4.0439   -0.1847    0.7272 H   0  0  0  0  0  0  0  0  0  0  0  0
   -2.9485   -2.6225   -0.5184 H   0  0  0  0  0  0  0  0  0  0  0  0
   -1.7269   -0.6252   -1.0966 H   0  0  0  0  0  0  0  0  0  0  0  0
   -1.6570   -0.2256    0.6308 H   0  0  0  0  0  0  0  0  0  0  0  0
   -0.3867   -2.2905    1.0908 H   0  0  0  0  0  0  0  0  0  0  0  0
   -0.5100   -2.7930   -0.6031 H   0  0  0  0  0  0  0  0  0  0  0  0
    0.7756   -0.7813   -1.3042 H   0  0  0  0  0  0  0  0  0  0  0  0
    1.6851   -1.8200   -0.1603 H   0  0  0  0  0  0  0  0  0  0  0  0
    3.0768   -0.2403   -1.1150 H   0  0  0  0  0  0  0  0  0  0  0  0
    4.8728    1.4064   -1.2829 H   0  0  0  0  0  0  0  0  0  0  0  0
    3.0659    3.7667    1.8241 H   0  0  0  0  0  0  0  0  0  0  0  0
  1  2  3  0
  2  3  1  0
  3  4  1  0
  4  5  1  0
  5  6  1  0
  6  7  1  0
  7  8  1  0
  8  9  1  0
  9 10  2  0
 10 11  1  0
 11 12  2  0
 12 13  1  0
 12 14  1  0
 14 15  2  0
 15 16  1  0
 15  9  1  0
  1 17  1  0
  3 18  1  0
  3 19  1  0
  4 20  1  0
  5 21  1  0
  5 22  1  0
  6 23  1  0
  6 24  1  0
  7 25  1  0
  7 26  1  0
 10 27  1  0
 11 28  1  0
 14 29  1  0
M  END
$$$$
