
     RDKit          3D

 57 59  0  0  0  0  0  0  0  0999 V2000
    5.0364    0.5028    3.3869 C   0  0  0  0  0  0  0  0  0  0  0  0
    3.8694    1.0464    2.7820 O   0  0  0  0  0  0  0  0  0  0  0  0
    3.7800    0.9361    1.4193 C   0  0  0  0  0  0  0  0  0  0  0  0
    4.6418    0.2052    0.5979 C   0  0  0  0  0  0  0  0  0  0  0  0
    4.4539    0.1844   -0.7917 C   0  0  0  0  0  0  0  0  0  0  0  0
    3.4015    0.8906   -1.3694 C   0  0  0  0  0  0  0  0  0  0  0  0
    3.1015    0.9321   -2.6985 O   0  0  0  0  0  0  0  0  0  0  0  0
    4.1559    0.6802   -3.6407 C   0  0  0  0  0  0  0  0  0  0  0  0
    4.2378   -0.7799   -4.1099 C   0  0  0  0  0  0  0  0  0  0  0  0
    2.6408   -1.4150   -4.7308 S   0  0  0  0  0  0  0  0  0  0  0  0
    1.9795   -1.9810   -3.2374 C   0  0  0  0  0  0  0  0  0  0  0  0
    2.5735   -2.7962   -2.3977 N   0  0  0  0  0  0  0  0  0  0  0  0
    1.7350   -2.9691   -1.3238 N   0  0  0  0  0  0  0  0  0  0  0  0
    0.6471   -2.2536   -1.5333 C   0  0  0  0  0  0  0  0  0  0  0  0
   -0.5081   -2.1366   -0.6031 C   0  0  0  0  0  0  0  0  0  0  0  0
   -0.3244   -0.9547    0.3526 C   0  0  0  0  0  0  0  0  0  0  0  0
   -1.5028   -0.7156    1.1698 N   0  0  0  0  0  0  0  0  0  0  0  0
   -2.6259   -0.1164    0.6327 C   0  0  0  0  0  0  0  0  0  0  0  0
   -2.6982    0.1986   -0.5533 O   0  0  0  0  0  0  0  0  0  0  0  0
   -3.7704    0.1606    1.5515 C   0  0  0  0  0  0  0  0  0  0  0  0
   -3.9061   -0.4354    2.8065 C   0  0  0  0  0  0  0  0  0  0  0  0
   -5.0096   -0.1286    3.6113 C   0  0  0  0  0  0  0  0  0  0  0  0
   -5.9962    0.7567    3.1729 C   0  0  0  0  0  0  0  0  0  0  0  0
   -7.0205    0.9577    4.0555 O   0  0  0  0  0  0  0  0  0  0  0  0
   -8.0685    1.8243    3.6428 C   0  0  0  0  0  0  0  0  0  0  0  0
   -5.8740    1.3388    1.9119 C   0  0  0  0  0  0  0  0  0  0  0  0
   -4.7669    1.0426    1.1069 C   0  0  0  0  0  0  0  0  0  0  0  0
    0.7594   -1.6087   -2.7455 N   0  0  0  0  0  0  0  0  0  0  0  0
   -0.1805   -0.6993   -3.3473 C   0  0  0  0  0  0  0  0  0  0  0  0
    2.5222    1.5975   -0.5451 C   0  0  0  0  0  0  0  0  0  0  0  0
    2.7128    1.6244    0.8398 C   0  0  0  0  0  0  0  0  0  0  0  0
    5.0421   -0.5906    3.3122 H   0  0  0  0  0  0  0  0  0  0  0  0
    5.0214    0.7642    4.4499 H   0  0  0  0  0  0  0  0  0  0  0  0
    5.9497    0.9346    2.9548 H   0  0  0  0  0  0  0  0  0  0  0  0
    5.4648   -0.3745    1.0041 H   0  0  0  0  0  0  0  0  0  0  0  0
    5.1356   -0.4167   -1.3844 H   0  0  0  0  0  0  0  0  0  0  0  0
    3.9449    1.3154   -4.5106 H   0  0  0  0  0  0  0  0  0  0  0  0
    5.1300    1.0281   -3.2610 H   0  0  0  0  0  0  0  0  0  0  0  0
    4.6043   -1.4326   -3.3131 H   0  0  0  0  0  0  0  0  0  0  0  0
    4.9661   -0.8468   -4.9297 H   0  0  0  0  0  0  0  0  0  0  0  0
   -0.5996   -3.0599   -0.0217 H   0  0  0  0  0  0  0  0  0  0  0  0
   -1.4434   -2.0490   -1.1679 H   0  0  0  0  0  0  0  0  0  0  0  0
   -0.1102   -0.0319   -0.2029 H   0  0  0  0  0  0  0  0  0  0  0  0
    0.5176   -1.1286    1.0327 H   0  0  0  0  0  0  0  0  0  0  0  0
   -1.4112   -0.8442    2.1694 H   0  0  0  0  0  0  0  0  0  0  0  0
   -3.1871   -1.1578    3.1783 H   0  0  0  0  0  0  0  0  0  0  0  0
   -5.1066   -0.5922    4.5916 H   0  0  0  0  0  0  0  0  0  0  0  0
   -7.6943    2.8352    3.4668 H   0  0  0  0  0  0  0  0  0  0  0  0
   -8.8014    1.8745    4.4536 H   0  0  0  0  0  0  0  0  0  0  0  0
   -8.5791    1.4308    2.7575 H   0  0  0  0  0  0  0  0  0  0  0  0
   -6.6161    2.0232    1.5222 H   0  0  0  0  0  0  0  0  0  0  0  0
   -4.6879    1.5030    0.1225 H   0  0  0  0  0  0  0  0  0  0  0  0
   -0.6750   -1.2136   -4.1795 H   0  0  0  0  0  0  0  0  0  0  0  0
   -0.9256   -0.3816   -2.6171 H   0  0  0  0  0  0  0  0  0  0  0  0
    0.3485    0.1874   -3.7061 H   0  0  0  0  0  0  0  0  0  0  0  0
    1.6878    2.1421   -0.9816 H   0  0  0  0  0  0  0  0  0  0  0  0
    2.0283    2.1926    1.4679 H   0  0  0  0  0  0  0  0  0  0  0  0
  1  2  1  0
  2  3  1  0
  3  4  2  0
  4  5  1  0
  5  6  2  0
  6  7  1  0
  7  8  1  0
  8  9  1  0
  9 10  1  0
 10 11  1  0
 11 12  2  0
 12 13  1  0
 13 14  2  0
 14 15  1  0
 15 16  1  0
 16 17  1  0
 17 18  1  0
 18 19  2  0
 18 20  1  0
 20 21  2  0
 21 22  1  0
 22 23  2  0
 23 24  1  0
 24 25  1  0
 23 26  1  0
 26 27  2  0
 14 28  1  0
 28 29  1  0
  6 30  1  0
 30 31  2  0
 31  3  1  0
 28 11  1  0
 27 20  1  0
  1 32  1  0
  1 33  1  0
  1 34  1  0
  4 35  1  0
  5 36  1  0
  8 37  1  0
  8 38  1  0
  9 39  1  0
  9 40  1  0
 15 41  1  0
 15 42  1  0
 16 43  1  0
 16 44  1  0
 17 45  1  0
 21 46  1  0
 22 47  1  0
 25 48  1  0
 25 49  1  0
 25 50  1  0
 26 51  1  0
 27 52  1  0
 29 53  1  0
 29 54  1  0
 29 55  1  0
 30 56  1  0
 31 57  1  0
M  END
$$$$
