
     RDKit          3D

 36 37  0  0  0  0  0  0  0  0999 V2000
    6.4910   -0.8175    0.7572 C   0  0  0  0  0  0  0  0  0  0  0  0
    5.1440   -0.6117    0.3298 O   0  0  0  0  0  0  0  0  0  0  0  0
    4.4873    0.3513    1.0244 C   0  0  0  0  0  0  0  0  0  0  0  0
    4.9526    1.0131    1.9391 O   0  0  0  0  0  0  0  0  0  0  0  0
    3.0947    0.5063    0.5222 C   0  0  0  0  0  0  0  0  0  0  0  0
    2.5848   -0.2599   -0.5325 C   0  0  0  0  0  0  0  0  0  0  0  0
    1.2671   -0.0745   -0.9662 C   0  0  0  0  0  0  0  0  0  0  0  0
    0.4307    0.8714   -0.3522 C   0  0  0  0  0  0  0  0  0  0  0  0
   -0.9973    1.1075   -0.8247 C   0  0  0  0  0  0  0  0  0  0  0  0
   -1.4293    0.0715   -1.7156 O   0  0  0  0  0  0  0  0  0  0  0  0
   -2.8512    0.0266   -1.7743 C   0  0  0  0  0  0  0  0  0  0  0  0
   -3.3984   -0.4506   -0.4184 C   0  0  0  0  0  0  0  0  0  0  0  0
   -3.4718   -1.9847   -0.3722 C   0  0  0  0  0  0  0  0  0  0  0  0
   -4.8107    0.1207   -0.2196 C   0  0  0  0  0  0  0  0  0  0  0  0
   -2.4519    0.0385    0.6915 C   0  0  0  0  0  0  0  0  0  0  0  0
   -1.8707    1.2799    0.3010 O   0  0  0  0  0  0  0  0  0  0  0  0
    0.9574    1.6428    0.6977 C   0  0  0  0  0  0  0  0  0  0  0  0
    2.2731    1.4603    1.1338 C   0  0  0  0  0  0  0  0  0  0  0  0
    6.9257   -1.6072    0.1381 H   0  0  0  0  0  0  0  0  0  0  0  0
    7.0807    0.0943    0.6198 H   0  0  0  0  0  0  0  0  0  0  0  0
    6.5165   -1.1431    1.8019 H   0  0  0  0  0  0  0  0  0  0  0  0
    3.1990   -1.0058   -1.0308 H   0  0  0  0  0  0  0  0  0  0  0  0
    0.8965   -0.6801   -1.7918 H   0  0  0  0  0  0  0  0  0  0  0  0
   -1.0023    2.0501   -1.3855 H   0  0  0  0  0  0  0  0  0  0  0  0
   -3.1385   -0.6565   -2.5812 H   0  0  0  0  0  0  0  0  0  0  0  0
   -3.2266    1.0204   -2.0511 H   0  0  0  0  0  0  0  0  0  0  0  0
   -3.8244   -2.3338    0.6049 H   0  0  0  0  0  0  0  0  0  0  0  0
   -2.4893   -2.4346   -0.5543 H   0  0  0  0  0  0  0  0  0  0  0  0
   -4.1592   -2.3716   -1.1328 H   0  0  0  0  0  0  0  0  0  0  0  0
   -4.7966    1.2163   -0.2018 H   0  0  0  0  0  0  0  0  0  0  0  0
   -5.2465   -0.2202    0.7262 H   0  0  0  0  0  0  0  0  0  0  0  0
   -5.4807   -0.1928   -1.0281 H   0  0  0  0  0  0  0  0  0  0  0  0
   -1.6525   -0.6822    0.9059 H   0  0  0  0  0  0  0  0  0  0  0  0
   -2.9917    0.1972    1.6315 H   0  0  0  0  0  0  0  0  0  0  0  0
    0.3360    2.3912    1.1879 H   0  0  0  0  0  0  0  0  0  0  0  0
    2.6526    2.0676    1.9537 H   0  0  0  0  0  0  0  0  0  0  0  0
  1  2  1  0
  2  3  1  0
  3  4  2  0
  3  5  1  0
  5  6  2  0
  6  7  1  0
  7  8  2  0
  8  9  1  0
  9 10  1  0
 10 11  1  0
 11 12  1  0
 12 13  1  0
 12 14  1  0
 12 15  1  0
 15 16  1  0
  8 17  1  0
 17 18  2  0
 18  5  1  0
 16  9  1  0
  1 19  1  0
  1 20  1  0
  1 21  1  0
  6 22  1  0
  7 23  1  0
  9 24  1  0
 11 25  1  0
 11 26  1  0
 13 27  1  0
 13 28  1  0
 13 29  1  0
 14 30  1  0
 14 31  1  0
 14 32  1  0
 15 33  1  0
 15 34  1  0
 17 35  1  0
 18 36  1  0
M  END
$$$$
