
     RDKit          3D

 40 42  0  0  0  0  0  0  0  0999 V2000
   -2.2319   -1.5181   -2.2098 O   0  0  0  0  0  0  0  0  0  0  0  0
   -1.9352   -0.7958   -1.2663 C   0  0  0  0  0  0  0  0  0  0  0  0
   -2.8042   -0.1900   -0.3806 N   0  0  0  0  0  0  0  0  0  0  0  0
   -4.2205   -0.1914   -0.3904 C   0  0  0  0  0  0  0  0  0  0  0  0
   -4.9495   -0.7679   -1.4399 C   0  0  0  0  0  0  0  0  0  0  0  0
   -6.3480   -0.7596   -1.4418 C   0  0  0  0  0  0  0  0  0  0  0  0
   -7.0459   -0.1718   -0.3947 C   0  0  0  0  0  0  0  0  0  0  0  0
   -6.3430    0.4117    0.6566 C   0  0  0  0  0  0  0  0  0  0  0  0
   -4.9348    0.4115    0.6711 C   0  0  0  0  0  0  0  0  0  0  0  0
   -4.3118    1.0688    1.8551 C   0  0  0  0  0  0  0  0  0  0  0  0
   -4.9149    1.5624    2.7917 O   0  0  0  0  0  0  0  0  0  0  0  0
   -2.9630    1.0983    1.8411 O   0  0  0  0  0  0  0  0  0  0  0  0
   -0.4900   -0.5525   -0.9904 C   0  0  0  0  0  0  0  0  0  0  0  0
    0.4265   -1.5714   -1.2671 C   0  0  0  0  0  0  0  0  0  0  0  0
    1.7928   -1.3825   -1.0251 C   0  0  0  0  0  0  0  0  0  0  0  0
    2.2601   -0.1695   -0.5165 C   0  0  0  0  0  0  0  0  0  0  0  0
    3.6135    0.1036   -0.2475 N   0  0  0  0  0  0  0  0  0  0  0  0
    4.7071   -0.7306   -0.4028 C   0  0  0  0  0  0  0  0  0  0  0  0
    4.6712   -1.8872   -0.8076 O   0  0  0  0  0  0  0  0  0  0  0  0
    5.9541   -0.0888   -0.0241 C   0  0  0  0  0  0  0  0  0  0  0  0
    7.2555   -0.5547   -0.0291 C   0  0  0  0  0  0  0  0  0  0  0  0
    8.0696    0.5033    0.4434 C   0  0  0  0  0  0  0  0  0  0  0  0
    7.2200    1.5517    0.7095 C   0  0  0  0  0  0  0  0  0  0  0  0
    7.7477    3.2536    1.3746 Br  0  0  0  0  0  0  0  0  0  0  0  0
    5.9346    1.2056    0.4305 O   0  0  0  0  0  0  0  0  0  0  0  0
    1.3403    0.8564   -0.2591 C   0  0  0  0  0  0  0  0  0  0  0  0
   -0.0267    0.6712   -0.4960 C   0  0  0  0  0  0  0  0  0  0  0  0
   -2.3969    0.2630    0.4362 H   0  0  0  0  0  0  0  0  0  0  0  0
   -4.4555   -1.2352   -2.2869 H   0  0  0  0  0  0  0  0  0  0  0  0
   -6.8868   -1.2165   -2.2690 H   0  0  0  0  0  0  0  0  0  0  0  0
   -8.1330   -0.1667   -0.3963 H   0  0  0  0  0  0  0  0  0  0  0  0
   -6.9017    0.8701    1.4715 H   0  0  0  0  0  0  0  0  0  0  0  0
   -2.7572    1.5465    2.6925 H   0  0  0  0  0  0  0  0  0  0  0  0
    0.0820   -2.5215   -1.6724 H   0  0  0  0  0  0  0  0  0  0  0  0
    2.4626   -2.2061   -1.2534 H   0  0  0  0  0  0  0  0  0  0  0  0
    3.8368    1.0278    0.1070 H   0  0  0  0  0  0  0  0  0  0  0  0
    7.5657   -1.5438   -0.3403 H   0  0  0  0  0  0  0  0  0  0  0  0
    9.1431    0.4986    0.5727 H   0  0  0  0  0  0  0  0  0  0  0  0
    1.6755    1.8187    0.1210 H   0  0  0  0  0  0  0  0  0  0  0  0
   -0.7082    1.4985   -0.3169 H   0  0  0  0  0  0  0  0  0  0  0  0
  1  2  2  0
  2  3  1  0
  3  4  1  0
  4  5  2  0
  5  6  1  0
  6  7  2  0
  7  8  1  0
  8  9  2  0
  9 10  1  0
 10 11  2  0
 10 12  1  0
  2 13  1  0
 13 14  2  0
 14 15  1  0
 15 16  2  0
 16 17  1  0
 17 18  1  0
 18 19  2  0
 18 20  1  0
 20 21  2  0
 21 22  1  0
 22 23  2  0
 23 24  1  0
 23 25  1  0
 16 26  1  0
 26 27  2  0
  9  4  1  0
 27 13  1  0
 25 20  1  0
  3 28  1  0
  5 29  1  0
  6 30  1  0
  7 31  1  0
  8 32  1  0
 12 33  1  0
 14 34  1  0
 15 35  1  0
 17 36  1  0
 21 37  1  0
 22 38  1  0
 26 39  1  0
 27 40  1  0
M  END
$$$$
