
     RDKit          3D

 38 39  0  0  0  0  0  0  0  0999 V2000
    0.2326    1.7408    0.9181 C   0  0  0  0  0  0  0  0  0  0  0  0
   -0.2854    0.3800    0.8672 N   0  0  0  0  0  0  0  0  0  0  0  0
   -1.7422    0.2240    0.8955 C   0  0  0  0  0  0  0  0  0  0  0  0
   -2.3498    0.2374   -0.5069 C   0  0  0  0  0  0  0  0  0  0  0  0
   -3.8404    0.0423   -0.4466 C   0  0  0  0  0  0  0  0  0  0  0  0
   -4.3868   -1.2384   -0.4871 C   0  0  0  0  0  0  0  0  0  0  0  0
   -5.7688   -1.3810   -0.4075 C   0  0  0  0  0  0  0  0  0  0  0  0
   -6.5642   -0.2483   -0.2870 C   0  0  0  0  0  0  0  0  0  0  0  0
   -5.9400    0.9867   -0.2464 C   0  0  0  0  0  0  0  0  0  0  0  0
   -4.6012    1.1567   -0.3185 N   0  0  0  0  0  0  0  0  0  0  0  0
    0.4786   -0.7555    0.6007 C   0  0  0  0  0  0  0  0  0  0  0  0
    0.0122   -1.8911    0.5439 O   0  0  0  0  0  0  0  0  0  0  0  0
    1.9267   -0.6048    0.3578 C   0  0  0  0  0  0  0  0  0  0  0  0
    2.8268   -1.1857    1.2502 C   0  0  0  0  0  0  0  0  0  0  0  0
    4.1979   -1.0701    1.0139 C   0  0  0  0  0  0  0  0  0  0  0  0
    4.6767   -0.3918   -0.1145 C   0  0  0  0  0  0  0  0  0  0  0  0
    6.0385   -0.3583   -0.2128 O   0  0  0  0  0  0  0  0  0  0  0  0
    6.6060    0.3117   -1.3252 C   0  0  0  0  0  0  0  0  0  0  0  0
    6.2297   -0.2647   -2.4866 F   0  0  0  0  0  0  0  0  0  0  0  0
    7.9523    0.2379   -1.2359 F   0  0  0  0  0  0  0  0  0  0  0  0
    6.2575    1.6165   -1.3361 F   0  0  0  0  0  0  0  0  0  0  0  0
    3.7651    0.1667   -1.0151 C   0  0  0  0  0  0  0  0  0  0  0  0
    2.3894    0.0548   -0.7841 C   0  0  0  0  0  0  0  0  0  0  0  0
   -0.3027    2.3036    1.6882 H   0  0  0  0  0  0  0  0  0  0  0  0
    1.2958    1.7603    1.1650 H   0  0  0  0  0  0  0  0  0  0  0  0
    0.0753    2.2126   -0.0557 H   0  0  0  0  0  0  0  0  0  0  0  0
   -1.9792   -0.7249    1.3934 H   0  0  0  0  0  0  0  0  0  0  0  0
   -2.1706    1.0169    1.5206 H   0  0  0  0  0  0  0  0  0  0  0  0
   -2.1327    1.1930   -1.0002 H   0  0  0  0  0  0  0  0  0  0  0  0
   -1.8976   -0.5369   -1.1388 H   0  0  0  0  0  0  0  0  0  0  0  0
   -3.7488   -2.1131   -0.5757 H   0  0  0  0  0  0  0  0  0  0  0  0
   -6.2195   -2.3687   -0.4386 H   0  0  0  0  0  0  0  0  0  0  0  0
   -7.6434   -0.3258   -0.2238 H   0  0  0  0  0  0  0  0  0  0  0  0
   -6.5175    1.9017   -0.1513 H   0  0  0  0  0  0  0  0  0  0  0  0
    2.4641   -1.7279    2.1199 H   0  0  0  0  0  0  0  0  0  0  0  0
    4.8988   -1.5212    1.7136 H   0  0  0  0  0  0  0  0  0  0  0  0
    4.0827    0.6909   -1.9123 H   0  0  0  0  0  0  0  0  0  0  0  0
    1.6844    0.4734   -1.4984 H   0  0  0  0  0  0  0  0  0  0  0  0
  1  2  1  0
  2  3  1  0
  3  4  1  0
  4  5  1  0
  5  6  2  0
  6  7  1  0
  7  8  2  0
  8  9  1  0
  9 10  2  0
  2 11  1  0
 11 12  2  0
 11 13  1  0
 13 14  2  0
 14 15  1  0
 15 16  2  0
 16 17  1  0
 17 18  1  0
 18 19  1  0
 18 20  1  0
 18 21  1  0
 16 22  1  0
 22 23  2  0
 10  5  1  0
 23 13  1  0
  1 24  1  0
  1 25  1  0
  1 26  1  0
  3 27  1  0
  3 28  1  0
  4 29  1  0
  4 30  1  0
  6 31  1  0
  7 32  1  0
  8 33  1  0
  9 34  1  0
 14 35  1  0
 15 36  1  0
 22 37  1  0
 23 38  1  0
M  END
$$$$
