
     RDKit          3D

 41 44  0  0  0  0  0  0  0  0999 V2000
    5.5070    2.3675    0.4906 C   0  0  0  0  0  0  0  0  0  0  0  0
    4.4271    1.3363    0.3651 C   0  0  0  0  0  0  0  0  0  0  0  0
    4.7397   -0.0193    0.2953 C   0  0  0  0  0  0  0  0  0  0  0  0
    3.7245   -0.9835    0.2100 C   0  0  0  0  0  0  0  0  0  0  0  0
    2.3637   -0.6348    0.2012 C   0  0  0  0  0  0  0  0  0  0  0  0
    1.3606   -1.6411    0.1117 N   0  0  0  0  0  0  0  0  0  0  0  0
    1.5629   -3.0545    0.0330 C   0  0  0  0  0  0  0  0  0  0  0  0
    2.5909   -3.7115    0.0258 O   0  0  0  0  0  0  0  0  0  0  0  0
    0.2903   -3.6368   -0.0410 N   0  0  0  0  0  0  0  0  0  0  0  0
   -0.6604   -2.6307   -0.0107 C   0  0  0  0  0  0  0  0  0  0  0  0
   -2.0246   -2.6486   -0.0552 C   0  0  0  0  0  0  0  0  0  0  0  0
   -2.7699   -3.9345   -0.1554 C   0  0  0  0  0  0  0  0  0  0  0  0
   -4.1339   -3.8285   -0.1927 N   0  0  0  0  0  0  0  0  0  0  0  0
   -2.2047   -5.0198   -0.2019 O   0  0  0  0  0  0  0  0  0  0  0  0
   -2.7628   -1.5114   -0.0114 N   0  0  0  0  0  0  0  0  0  0  0  0
   -2.0558   -0.3627    0.0788 C   0  0  0  0  0  0  0  0  0  0  0  0
   -2.8327    0.8673    0.1269 C   0  0  0  0  0  0  0  0  0  0  0  0
   -4.1869    1.1449    0.0993 C   0  0  0  0  0  0  0  0  0  0  0  0
   -4.3192    2.5527    0.1792 C   0  0  0  0  0  0  0  0  0  0  0  0
   -3.0394    3.0563    0.2513 C   0  0  0  0  0  0  0  0  0  0  0  0
   -2.4846    4.4205    0.3510 C   0  0  0  0  0  0  0  0  0  0  0  0
   -2.1331    2.0406    0.2202 O   0  0  0  0  0  0  0  0  0  0  0  0
   -0.7125   -0.2560    0.1277 N   0  0  0  0  0  0  0  0  0  0  0  0
   -0.0394   -1.4075    0.0817 C   0  0  0  0  0  0  0  0  0  0  0  0
    2.0721    0.7353    0.2885 C   0  0  0  0  0  0  0  0  0  0  0  0
    3.0834    1.7050    0.3742 C   0  0  0  0  0  0  0  0  0  0  0  0
    5.7385    2.5411    1.5459 H   0  0  0  0  0  0  0  0  0  0  0  0
    6.4183    2.0433   -0.0230 H   0  0  0  0  0  0  0  0  0  0  0  0
    5.1978    3.3144    0.0356 H   0  0  0  0  0  0  0  0  0  0  0  0
    5.7772   -0.3470    0.3050 H   0  0  0  0  0  0  0  0  0  0  0  0
    4.0494   -2.0179    0.1523 H   0  0  0  0  0  0  0  0  0  0  0  0
    0.1042   -4.6309   -0.1066 H   0  0  0  0  0  0  0  0  0  0  0  0
   -4.5826   -2.9210   -0.1533 H   0  0  0  0  0  0  0  0  0  0  0  0
   -4.6945   -4.6667   -0.2606 H   0  0  0  0  0  0  0  0  0  0  0  0
   -4.9796    0.4134    0.0295 H   0  0  0  0  0  0  0  0  0  0  0  0
   -5.2336    3.1298    0.1838 H   0  0  0  0  0  0  0  0  0  0  0  0
   -1.8949    4.5278    1.2665 H   0  0  0  0  0  0  0  0  0  0  0  0
   -1.8371    4.6338   -0.5049 H   0  0  0  0  0  0  0  0  0  0  0  0
   -3.2830    5.1687    0.3697 H   0  0  0  0  0  0  0  0  0  0  0  0
    1.0561    1.1127    0.2984 H   0  0  0  0  0  0  0  0  0  0  0  0
    2.8012    2.7532    0.4473 H   0  0  0  0  0  0  0  0  0  0  0  0
  1  2  1  0
  2  3  2  0
  3  4  1  0
  4  5  2  0
  5  6  1  0
  6  7  1  0
  7  8  2  0
  7  9  1  0
  9 10  1  0
 10 11  2  0
 11 12  1  0
 12 13  1  0
 12 14  2  0
 11 15  1  0
 15 16  2  0
 16 17  1  0
 17 18  2  0
 18 19  1  0
 19 20  2  0
 20 21  1  0
 20 22  1  0
 16 23  1  0
 23 24  2  0
  5 25  1  0
 25 26  2  0
 26  2  1  0
 24  6  1  0
 24 10  1  0
 22 17  1  0
  1 27  1  0
  1 28  1  0
  1 29  1  0
  3 30  1  0
  4 31  1  0
  9 32  1  0
 13 33  1  0
 13 34  1  0
 18 35  1  0
 19 36  1  0
 21 37  1  0
 21 38  1  0
 21 39  1  0
 25 40  1  0
 26 41  1  0
M  END
$$$$
