
     RDKit          3D

 37 38  0  0  0  0  0  0  0  0999 V2000
    5.1405   -0.7968   -1.1219 C   0  0  0  0  0  0  0  0  0  0  0  0
    3.8122   -0.1687   -1.5033 C   0  0  0  0  0  0  0  0  0  0  0  0
    3.0375    0.2202   -0.3414 N   0  0  0  0  0  0  0  0  0  0  0  0
    2.0395   -0.4933    0.2487 C   0  0  0  0  0  0  0  0  0  0  0  0
    1.5948    0.2621    1.3159 C   0  0  0  0  0  0  0  0  0  0  0  0
    0.5149   -0.0787    2.2783 C   0  0  0  0  0  0  0  0  0  0  0  0
   -0.7560    0.1524    1.6273 N   0  0  0  0  0  0  0  0  0  0  0  0
   -1.4780   -0.8876    1.0846 C   0  0  0  0  0  0  0  0  0  0  0  0
   -1.1786   -2.0692    1.2051 O   0  0  0  0  0  0  0  0  0  0  0  0
   -2.6710   -0.5105    0.2787 C   0  0  0  0  0  0  0  0  0  0  0  0
   -3.4118    0.6486    0.5527 C   0  0  0  0  0  0  0  0  0  0  0  0
   -4.5323    0.9668   -0.2194 C   0  0  0  0  0  0  0  0  0  0  0  0
   -4.9231    0.1283   -1.2643 C   0  0  0  0  0  0  0  0  0  0  0  0
   -4.1891   -1.0367   -1.5284 C   0  0  0  0  0  0  0  0  0  0  0  0
   -4.6018   -1.9197   -2.6259 N   0  0  0  0  0  4  0  0  0  0  0  0
   -3.8496   -2.8566   -2.9270 O   0  0  0  0  0  0  0  0  0  0  0  0
   -5.6761   -1.6702   -3.1911 O   0  0  0  0  0  1  0  0  0  0  0  0
   -3.0665   -1.3643   -0.7589 C   0  0  0  0  0  0  0  0  0  0  0  0
    2.4061    1.4304    1.2758 C   0  0  0  0  0  0  0  0  0  0  0  0
    2.3780    2.5975    2.1922 C   0  0  0  0  0  0  0  0  0  0  0  0
    3.2734    1.4007    0.2568 N   0  0  0  0  0  0  0  0  0  0  0  0
    4.9914   -1.6923   -0.5093 H   0  0  0  0  0  0  0  0  0  0  0  0
    5.7577   -0.0984   -0.5468 H   0  0  0  0  0  0  0  0  0  0  0  0
    5.6966   -1.0846   -2.0193 H   0  0  0  0  0  0  0  0  0  0  0  0
    3.9657    0.7272   -2.1148 H   0  0  0  0  0  0  0  0  0  0  0  0
    3.2089   -0.8734   -2.0862 H   0  0  0  0  0  0  0  0  0  0  0  0
    1.7269   -1.4612   -0.1203 H   0  0  0  0  0  0  0  0  0  0  0  0
    0.5508    0.5696    3.1591 H   0  0  0  0  0  0  0  0  0  0  0  0
    0.6022   -1.1172    2.6136 H   0  0  0  0  0  0  0  0  0  0  0  0
   -0.9199    1.0891    1.2877 H   0  0  0  0  0  0  0  0  0  0  0  0
   -3.1463    1.2992    1.3824 H   0  0  0  0  0  0  0  0  0  0  0  0
   -5.1070    1.8648   -0.0004 H   0  0  0  0  0  0  0  0  0  0  0  0
   -5.7989    0.3904   -1.8556 H   0  0  0  0  0  0  0  0  0  0  0  0
   -2.4954   -2.2712   -0.9540 H   0  0  0  0  0  0  0  0  0  0  0  0
    3.0682    3.3830    1.8673 H   0  0  0  0  0  0  0  0  0  0  0  0
    2.6636    2.2926    3.2039 H   0  0  0  0  0  0  0  0  0  0  0  0
    1.3722    3.0278    2.2311 H   0  0  0  0  0  0  0  0  0  0  0  0
  1  2  1  0
  2  3  1  0
  3  4  1  0
  4  5  2  0
  5  6  1  0
  6  7  1  0
  7  8  1  0
  8  9  2  0
  8 10  1  0
 10 11  2  0
 11 12  1  0
 12 13  2  0
 13 14  1  0
 14 15  1  0
 15 16  2  0
 15 17  1  0
 14 18  2  0
  5 19  1  0
 19 20  1  0
 19 21  2  0
 21  3  1  0
 18 10  1  0
  1 22  1  0
  1 23  1  0
  1 24  1  0
  2 25  1  0
  2 26  1  0
  4 27  1  0
  6 28  1  0
  6 29  1  0
  7 30  1  0
 11 31  1  0
 12 32  1  0
 13 33  1  0
 18 34  1  0
 20 35  1  0
 20 36  1  0
 20 37  1  0
M  CHG  2  15   1  17  -1
M  END
$$$$
