
     RDKit          3D

 19 19  0  0  0  0  0  0  0  0999 V2000
   -3.3827   -0.4118   -1.8673 C   0  0  0  0  0  0  0  0  0  0  0  0
   -2.7055   -0.6962   -0.5344 C   0  0  0  0  0  0  0  0  0  0  0  0
   -1.2475   -0.2435   -0.5511 C   0  0  0  0  0  0  0  0  0  0  0  0
   -0.4709   -0.5981    1.0546 S   0  0  0  0  0  0  0  0  0  0  0  0
    1.1445    0.0115    0.7743 C   0  0  0  0  0  0  0  0  0  0  0  0
    1.5295    0.5198   -0.3753 N   0  0  0  0  0  0  0  0  0  0  0  0
    2.8481    0.9316   -0.3408 N   0  0  0  0  0  0  0  0  0  0  0  0
    3.4090    0.7186    0.8283 C   0  0  0  0  0  0  0  0  0  0  0  0
    4.6876    1.0189    1.1280 N   0  0  0  0  0  0  0  0  0  0  0  0
    2.3632   -0.0137    1.9776 S   0  0  0  0  0  0  0  0  0  0  0  0
   -2.8804   -0.9411   -2.6833 H   0  0  0  0  0  0  0  0  0  0  0  0
   -3.3706    0.6593   -2.0928 H   0  0  0  0  0  0  0  0  0  0  0  0
   -4.4261   -0.7414   -1.8400 H   0  0  0  0  0  0  0  0  0  0  0  0
   -2.7694   -1.7720   -0.3302 H   0  0  0  0  0  0  0  0  0  0  0  0
   -3.2579   -0.1770    0.2582 H   0  0  0  0  0  0  0  0  0  0  0  0
   -0.7014   -0.7706   -1.3410 H   0  0  0  0  0  0  0  0  0  0  0  0
   -1.1922    0.8324   -0.7496 H   0  0  0  0  0  0  0  0  0  0  0  0
    5.1267    0.5008    1.8799 H   0  0  0  0  0  0  0  0  0  0  0  0
    5.2959    1.1727    0.3303 H   0  0  0  0  0  0  0  0  0  0  0  0
  1  2  1  0
  2  3  1  0
  3  4  1  0
  4  5  1  0
  5  6  2  0
  6  7  1  0
  7  8  2  0
  8  9  1  0
  8 10  1  0
 10  5  1  0
  1 11  1  0
  1 12  1  0
  1 13  1  0
  2 14  1  0
  2 15  1  0
  3 16  1  0
  3 17  1  0
  9 18  1  0
  9 19  1  0
M  END
$$$$
