
     RDKit          3D

 25 26  0  0  0  0  0  0  0  0999 V2000
    5.2392    1.2607    0.9487 O   0  0  0  0  0  0  0  0  0  0  0  0
    4.8918    0.1574    0.5051 N   0  0  0  0  0  4  0  0  0  0  0  0
    5.6513   -0.8079    0.3453 O   0  0  0  0  0  1  0  0  0  0  0  0
    3.4919   -0.0157    0.1487 C   0  0  0  0  0  0  0  0  0  0  0  0
    2.5781    1.0262    0.2848 C   0  0  0  0  0  0  0  0  0  0  0  0
    1.2483    0.7987   -0.0747 C   0  0  0  0  0  0  0  0  0  0  0  0
    0.8628   -0.4557   -0.5454 C   0  0  0  0  0  0  0  0  0  0  0  0
   -0.4424   -0.7387   -0.9473 N   0  0  0  0  0  0  0  0  0  0  0  0
   -1.6882   -0.3285   -0.4385 C   0  0  0  0  0  0  0  0  0  0  0  0
   -2.8259   -0.5245   -1.2359 C   0  0  0  0  0  0  0  0  0  0  0  0
   -4.0914   -0.1202   -0.8027 C   0  0  0  0  0  0  0  0  0  0  0  0
   -4.2381    0.4888    0.4398 C   0  0  0  0  0  0  0  0  0  0  0  0
   -3.1207    0.6904    1.2456 C   0  0  0  0  0  0  0  0  0  0  0  0
   -1.8554    0.2861    0.8073 C   0  0  0  0  0  0  0  0  0  0  0  0
    1.7567   -1.4592   -0.6986 N   0  0  0  0  0  0  0  0  0  0  0  0
    3.0475   -1.2295   -0.3447 C   0  0  0  0  0  0  0  0  0  0  0  0
    2.8762    2.0055    0.6507 H   0  0  0  0  0  0  0  0  0  0  0  0
    0.5285    1.6091   -0.0121 H   0  0  0  0  0  0  0  0  0  0  0  0
   -0.4658   -1.6879   -1.3098 H   0  0  0  0  0  0  0  0  0  0  0  0
   -2.7289   -0.9866   -2.2158 H   0  0  0  0  0  0  0  0  0  0  0  0
   -4.9587   -0.2787   -1.4380 H   0  0  0  0  0  0  0  0  0  0  0  0
   -5.2209    0.8032    0.7808 H   0  0  0  0  0  0  0  0  0  0  0  0
   -3.2321    1.1573    2.2210 H   0  0  0  0  0  0  0  0  0  0  0  0
   -1.0121    0.4311    1.4756 H   0  0  0  0  0  0  0  0  0  0  0  0
    3.7083   -2.0817   -0.4836 H   0  0  0  0  0  0  0  0  0  0  0  0
  1  2  2  0
  2  3  1  0
  2  4  1  0
  4  5  2  0
  5  6  1  0
  6  7  2  0
  7  8  1  0
  8  9  1  0
  9 10  2  0
 10 11  1  0
 11 12  2  0
 12 13  1  0
 13 14  2  0
  7 15  1  0
 15 16  2  0
 16  4  1  0
 14  9  1  0
  5 17  1  0
  6 18  1  0
  8 19  1  0
 10 20  1  0
 11 21  1  0
 12 22  1  0
 13 23  1  0
 14 24  1  0
 16 25  1  0
M  CHG  2   2   1   3  -1
M  END
$$$$
