
     RDKit          3D

 36 36  0  0  0  0  0  0  0  0999 V2000
    0.1490   -3.9220    3.6585 C   0  0  0  0  0  0  0  0  0  0  0  0
    1.2820   -3.0230    3.1965 C   0  0  0  0  0  0  0  0  0  0  0  0
    1.7103   -3.3566    1.8772 O   0  0  0  0  0  0  0  0  0  0  0  0
    0.8657   -2.8174    0.8584 C   0  0  0  0  0  0  0  0  0  0  0  0
    1.4519   -3.2158   -0.4915 C   0  0  0  0  0  0  0  0  0  0  0  0
    0.5934   -2.7795   -1.6726 C   0  0  0  0  0  0  0  0  0  0  0  0
    0.6316   -1.3445   -1.8965 N   0  0  0  0  0  0  0  0  0  0  0  0
   -0.3282   -0.4986   -1.3852 C   0  0  0  0  0  0  0  0  0  0  0  0
   -1.2620   -0.9107   -0.7013 O   0  0  0  0  0  0  0  0  0  0  0  0
   -0.1707    0.9620   -1.6981 C   0  0  0  0  0  0  0  0  0  0  0  0
    0.8856    1.3822   -2.5454 C   0  0  0  0  0  0  0  0  0  0  0  0
    1.7594    1.6887   -3.2449 N   0  0  0  0  0  0  0  0  0  0  0  0
   -1.0553    1.7958   -1.1180 C   0  0  0  0  0  0  0  0  0  0  0  0
   -1.1044    3.2145   -1.2558 C   0  0  0  0  0  0  0  0  0  0  0  0
   -0.6677    4.0863   -2.2549 C   0  0  0  0  0  0  0  0  0  0  0  0
   -0.9945    5.4135   -1.8708 C   0  0  0  0  0  0  0  0  0  0  0  0
   -1.6265    5.2860   -0.6637 C   0  0  0  0  0  0  0  0  0  0  0  0
   -2.1944    6.2521    0.2220 N   0  0  0  0  0  4  0  0  0  0  0  0
   -2.1230    7.4343   -0.1405 O   0  0  0  0  0  0  0  0  0  0  0  0
   -2.7084    5.8450    1.2713 O   0  0  0  0  0  1  0  0  0  0  0  0
   -1.7119    3.9885   -0.2830 O   0  0  0  0  0  0  0  0  0  0  0  0
   -0.0850   -3.7363    4.7108 H   0  0  0  0  0  0  0  0  0  0  0  0
   -0.7590   -3.7520    3.0725 H   0  0  0  0  0  0  0  0  0  0  0  0
    0.4186   -4.9760    3.5361 H   0  0  0  0  0  0  0  0  0  0  0  0
    2.1429   -3.1732    3.8563 H   0  0  0  0  0  0  0  0  0  0  0  0
    1.0035   -1.9650    3.2587 H   0  0  0  0  0  0  0  0  0  0  0  0
    0.8378   -1.7275    0.9590 H   0  0  0  0  0  0  0  0  0  0  0  0
   -0.1477   -3.2178    0.9605 H   0  0  0  0  0  0  0  0  0  0  0  0
    1.5631   -4.3073   -0.5157 H   0  0  0  0  0  0  0  0  0  0  0  0
    2.4671   -2.8096   -0.5836 H   0  0  0  0  0  0  0  0  0  0  0  0
    0.9784   -3.2410   -2.5885 H   0  0  0  0  0  0  0  0  0  0  0  0
   -0.4427   -3.1113   -1.5450 H   0  0  0  0  0  0  0  0  0  0  0  0
    1.4213   -0.9933   -2.4264 H   0  0  0  0  0  0  0  0  0  0  0  0
   -1.8052    1.3868   -0.4407 H   0  0  0  0  0  0  0  0  0  0  0  0
   -0.1742    3.8112   -3.1782 H   0  0  0  0  0  0  0  0  0  0  0  0
   -0.8006    6.3317   -2.4087 H   0  0  0  0  0  0  0  0  0  0  0  0
  1  2  1  0
  2  3  1  0
  3  4  1  0
  4  5  1  0
  5  6  1  0
  6  7  1  0
  7  8  1  0
  8  9  2  0
  8 10  1  0
 10 11  1  0
 11 12  3  0
 10 13  2  3
 13 14  1  0
 14 15  2  0
 15 16  1  0
 16 17  2  0
 17 18  1  0
 18 19  2  0
 18 20  1  0
 17 21  1  0
 21 14  1  0
  1 22  1  0
  1 23  1  0
  1 24  1  0
  2 25  1  0
  2 26  1  0
  4 27  1  0
  4 28  1  0
  5 29  1  0
  5 30  1  0
  6 31  1  0
  6 32  1  0
  7 33  1  0
 13 34  1  0
 15 35  1  0
 16 36  1  0
M  CHG  2  18   1  20  -1
M  END
$$$$
