
     RDKit          3D

 30 33  0  0  0  0  0  0  0  0999 V2000
    5.0453    1.6151   -0.1278 C   0  0  0  0  0  0  0  0  0  0  0  0
    4.6538    0.2664    0.3245 C   0  0  0  0  0  0  0  0  0  0  0  0
    5.2645   -0.6955    1.0915 C   0  0  0  0  0  0  0  0  0  0  0  0
    4.3478   -1.7714    1.1657 C   0  0  0  0  0  0  0  0  0  0  0  0
    3.2068   -1.4115    0.4580 C   0  0  0  0  0  0  0  0  0  0  0  0
    2.0321   -2.1726    0.2301 C   0  0  0  0  0  0  0  0  0  0  0  0
    0.7995   -1.6552    0.1210 C   0  0  0  0  0  0  0  0  0  0  0  0
   -0.5692   -2.7103   -0.2781 S   0  0  0  0  0  0  0  0  0  0  0  0
   -1.6110   -1.3536   -0.2877 C   0  0  0  0  0  0  0  0  0  0  0  0
   -2.8796   -1.1666   -0.5085 N   0  0  0  0  0  0  0  0  0  0  0  0
   -2.9963    0.2005   -0.2985 C   0  0  0  0  0  0  0  0  0  0  0  0
   -4.3700    0.9409   -0.4469 C   0  0  0  0  0  0  0  0  0  0  0  0
   -5.5425    0.3032   -0.7921 C   0  0  0  0  0  0  0  0  0  0  0  0
   -6.6435    1.2078   -0.8576 C   0  0  0  0  0  0  0  0  0  0  0  0
   -6.2664    2.4992   -0.5596 C   0  0  0  0  0  0  0  0  0  0  0  0
   -4.5952    2.6135   -0.2043 S   0  0  0  0  0  0  0  0  0  0  0  0
   -1.8521    0.8269    0.0409 N   0  0  0  0  0  0  0  0  0  0  0  0
   -0.9880   -0.2031    0.0287 N   0  0  0  0  0  0  0  0  0  0  0  0
    0.3629   -0.2264    0.3118 C   0  0  0  0  0  0  0  0  0  0  0  0
    0.9693    0.7588    0.6835 O   0  0  0  0  0  0  0  0  0  0  0  0
    3.4312   -0.1670   -0.0768 O   0  0  0  0  0  0  0  0  0  0  0  0
    6.0344    1.8858    0.2543 H   0  0  0  0  0  0  0  0  0  0  0  0
    5.0783    1.6578   -1.2207 H   0  0  0  0  0  0  0  0  0  0  0  0
    4.3272    2.3612    0.2262 H   0  0  0  0  0  0  0  0  0  0  0  0
    6.2450   -0.6295    1.5417 H   0  0  0  0  0  0  0  0  0  0  0  0
    4.4936   -2.7063    1.6894 H   0  0  0  0  0  0  0  0  0  0  0  0
    2.1766   -3.2450    0.1221 H   0  0  0  0  0  0  0  0  0  0  0  0
   -5.6079   -0.7606   -0.9883 H   0  0  0  0  0  0  0  0  0  0  0  0
   -7.6583    0.9254   -1.1100 H   0  0  0  0  0  0  0  0  0  0  0  0
   -6.8883    3.3835   -0.5324 H   0  0  0  0  0  0  0  0  0  0  0  0
  1  2  1  0
  2  3  2  0
  3  4  1  0
  4  5  2  0
  5  6  1  0
  6  7  2  3
  7  8  1  0
  8  9  1  0
  9 10  2  0
 10 11  1  0
 11 12  1  0
 12 13  2  0
 13 14  1  0
 14 15  2  0
 15 16  1  0
 11 17  2  0
 17 18  1  0
 18 19  1  0
 19 20  2  0
  5 21  1  0
 21  2  1  0
 19  7  1  0
 18  9  1  0
 16 12  1  0
  1 22  1  0
  1 23  1  0
  1 24  1  0
  3 25  1  0
  4 26  1  0
  6 27  1  0
 13 28  1  0
 14 29  1  0
 15 30  1  0
M  END
$$$$
