
     RDKit          3D

 59 62  0  0  0  0  0  0  0  0999 V2000
    9.3518   -0.2607    3.8506 C   0  0  0  0  0  0  0  0  0  0  0  0
    8.0479   -0.0857    3.1302 C   0  0  0  0  0  0  0  0  0  0  0  0
    8.0102    0.4985    1.8603 C   0  0  0  0  0  0  0  0  0  0  0  0
    6.7996    0.6342    1.1686 C   0  0  0  0  0  0  0  0  0  0  0  0
    5.6036    0.1885    1.7411 C   0  0  0  0  0  0  0  0  0  0  0  0
    4.3449    0.2977    1.0715 N   0  0  0  0  0  0  0  0  0  0  0  0
    3.3136   -0.4831    1.4944 N   0  0  0  0  0  0  0  0  0  0  0  0
    2.3650   -0.3384    0.5667 C   0  0  0  0  0  0  0  0  0  0  0  0
    1.0815   -1.0273    0.5269 C   0  0  0  0  0  0  0  0  0  0  0  0
    0.7193   -1.8469    1.3686 O   0  0  0  0  0  0  0  0  0  0  0  0
    0.2928   -0.6431   -0.5777 N   0  0  0  0  0  0  0  0  0  0  0  0
   -1.0427   -1.2136   -0.7272 C   0  0  0  0  0  0  0  0  0  0  0  0
   -2.0788   -0.4182    0.0703 C   0  0  0  0  0  0  0  0  0  0  0  0
   -3.4313   -1.1222    0.1441 C   0  0  0  0  0  0  0  0  0  0  0  0
   -4.1832   -1.1430   -1.1724 C   0  0  0  0  0  0  0  0  0  0  0  0
   -3.7761   -0.6111   -2.1983 O   0  0  0  0  0  0  0  0  0  0  0  0
   -5.3746   -1.8290   -1.0909 N   0  0  0  0  0  0  0  0  0  0  0  0
   -6.3200   -1.8241   -2.1845 C   0  0  0  0  0  0  0  0  0  0  0  0
   -7.2737   -0.7091   -1.9696 C   0  0  0  0  0  0  0  0  0  0  0  0
   -7.3111    0.5984   -2.4061 C   0  0  0  0  0  0  0  0  0  0  0  0
   -8.4740    1.1746   -1.8424 C   0  0  0  0  0  0  0  0  0  0  0  0
   -9.0730    0.1855   -1.0925 C   0  0  0  0  0  0  0  0  0  0  0  0
  -10.2949    0.1358   -0.2656 C   0  0  0  0  0  0  0  0  0  0  0  0
   -8.3456   -0.9644   -1.1641 O   0  0  0  0  0  0  0  0  0  0  0  0
    0.6496    0.3230   -1.5235 N   0  0  0  0  0  0  0  0  0  0  0  0
    1.8012    0.9309   -1.4653 C   0  0  0  0  0  0  0  0  0  0  0  0
    2.1263    1.9465   -2.5234 C   0  0  0  0  0  0  0  0  0  0  0  0
    2.7146    0.6161   -0.3942 C   0  0  0  0  0  0  0  0  0  0  0  0
    3.9514    1.1035   -0.0046 C   0  0  0  0  0  0  0  0  0  0  0  0
    4.7216    2.2651   -0.5187 C   0  0  0  0  0  0  0  0  0  0  0  0
    5.6504   -0.4353    2.9990 C   0  0  0  0  0  0  0  0  0  0  0  0
    6.8605   -0.5676    3.6868 C   0  0  0  0  0  0  0  0  0  0  0  0
    9.8076   -1.2164    3.5730 H   0  0  0  0  0  0  0  0  0  0  0  0
    9.2045   -0.2408    4.9358 H   0  0  0  0  0  0  0  0  0  0  0  0
   10.0467    0.5487    3.6022 H   0  0  0  0  0  0  0  0  0  0  0  0
    8.9301    0.8425    1.3913 H   0  0  0  0  0  0  0  0  0  0  0  0
    6.8465    1.0466    0.1681 H   0  0  0  0  0  0  0  0  0  0  0  0
   -1.0170   -2.2525   -0.3786 H   0  0  0  0  0  0  0  0  0  0  0  0
   -1.2891   -1.2355   -1.7940 H   0  0  0  0  0  0  0  0  0  0  0  0
   -1.7146   -0.2727    1.0951 H   0  0  0  0  0  0  0  0  0  0  0  0
   -2.1888    0.5833   -0.3634 H   0  0  0  0  0  0  0  0  0  0  0  0
   -4.0611   -0.5944    0.8706 H   0  0  0  0  0  0  0  0  0  0  0  0
   -3.3039   -2.1521    0.4966 H   0  0  0  0  0  0  0  0  0  0  0  0
   -5.7505   -2.0364   -0.1751 H   0  0  0  0  0  0  0  0  0  0  0  0
   -5.8007   -1.7190   -3.1424 H   0  0  0  0  0  0  0  0  0  0  0  0
   -6.8412   -2.7866   -2.1750 H   0  0  0  0  0  0  0  0  0  0  0  0
   -6.5782    1.0722   -3.0456 H   0  0  0  0  0  0  0  0  0  0  0  0
   -8.8302    2.1880   -1.9637 H   0  0  0  0  0  0  0  0  0  0  0  0
  -10.6992    1.1400   -0.1034 H   0  0  0  0  0  0  0  0  0  0  0  0
  -11.0638   -0.4680   -0.7577 H   0  0  0  0  0  0  0  0  0  0  0  0
  -10.0810   -0.3059    0.7127 H   0  0  0  0  0  0  0  0  0  0  0  0
    2.0689    2.9506   -2.0947 H   0  0  0  0  0  0  0  0  0  0  0  0
    3.1292    1.7712   -2.9222 H   0  0  0  0  0  0  0  0  0  0  0  0
    1.4088    1.8805   -3.3471 H   0  0  0  0  0  0  0  0  0  0  0  0
    5.3119    2.7467    0.2667 H   0  0  0  0  0  0  0  0  0  0  0  0
    5.3791    1.9635   -1.3393 H   0  0  0  0  0  0  0  0  0  0  0  0
    4.0503    3.0425   -0.8948 H   0  0  0  0  0  0  0  0  0  0  0  0
    4.7444   -0.8193    3.4671 H   0  0  0  0  0  0  0  0  0  0  0  0
    6.8645   -1.0522    4.6609 H   0  0  0  0  0  0  0  0  0  0  0  0
  1  2  1  0
  2  3  2  0
  3  4  1  0
  4  5  2  0
  5  6  1  0
  6  7  1  0
  7  8  2  0
  8  9  1  0
  9 10  2  0
  9 11  1  0
 11 12  1  0
 12 13  1  0
 13 14  1  0
 14 15  1  0
 15 16  2  0
 15 17  1  0
 17 18  1  0
 18 19  1  0
 19 20  2  0
 20 21  1  0
 21 22  2  0
 22 23  1  0
 22 24  1  0
 11 25  1  0
 25 26  2  0
 26 27  1  0
 26 28  1  0
 28 29  2  0
 29 30  1  0
  5 31  1  0
 31 32  2  0
 32  2  1  0
 29  6  1  0
 28  8  1  0
 24 19  1  0
  1 33  1  0
  1 34  1  0
  1 35  1  0
  3 36  1  0
  4 37  1  0
 12 38  1  0
 12 39  1  0
 13 40  1  0
 13 41  1  0
 14 42  1  0
 14 43  1  0
 17 44  1  0
 18 45  1  0
 18 46  1  0
 20 47  1  0
 21 48  1  0
 23 49  1  0
 23 50  1  0
 23 51  1  0
 27 52  1  0
 27 53  1  0
 27 54  1  0
 30 55  1  0
 30 56  1  0
 30 57  1  0
 31 58  1  0
 32 59  1  0
M  END
$$$$
