
     RDKit          3D

 43 45  0  0  0  0  0  0  0  0999 V2000
    7.9309    0.6991    1.8635 C   0  0  0  0  0  0  0  0  0  0  0  0
    6.6462    0.1276    1.6136 O   0  0  0  0  0  0  0  0  0  0  0  0
    5.7864    0.9619    0.9778 C   0  0  0  0  0  0  0  0  0  0  0  0
    6.0290    2.1061    0.6266 O   0  0  0  0  0  0  0  0  0  0  0  0
    4.4743    0.2961    0.7536 C   0  0  0  0  0  0  0  0  0  0  0  0
    4.2153   -1.0167    1.1622 C   0  0  0  0  0  0  0  0  0  0  0  0
    2.9618   -1.5881    0.9232 C   0  0  0  0  0  0  0  0  0  0  0  0
    1.9561   -0.8645    0.2766 C   0  0  0  0  0  0  0  0  0  0  0  0
    0.7833   -1.5460    0.1113 O   0  0  0  0  0  0  0  0  0  0  0  0
   -0.2609   -0.8837   -0.6025 C   0  0  0  0  0  0  0  0  0  0  0  0
   -1.4790   -1.8090   -0.7298 C   0  0  0  0  0  0  0  0  0  0  0  0
   -1.3337   -3.0374   -0.6933 O   0  0  0  0  0  0  0  0  0  0  0  0
   -2.7630   -1.2394   -0.7838 N   0  0  0  0  0  0  0  0  0  0  0  0
   -3.8348   -2.1342   -0.3360 C   0  0  0  0  0  0  0  0  0  0  0  0
   -5.2391   -1.5553   -0.3812 C   0  0  0  0  0  0  0  0  0  0  0  0
   -5.2316   -0.1658    0.2266 C   0  0  0  0  0  0  0  0  0  0  0  0
   -4.2741    0.6831   -0.5638 C   0  0  0  0  0  0  0  0  0  0  0  0
   -4.5762    2.0369   -0.7821 C   0  0  0  0  0  0  0  0  0  0  0  0
   -3.7372    2.8289   -1.5590 C   0  0  0  0  0  0  0  0  0  0  0  0
   -2.6049    2.2678   -2.1365 C   0  0  0  0  0  0  0  0  0  0  0  0
   -2.2894    0.9251   -1.9038 C   0  0  0  0  0  0  0  0  0  0  0  0
   -3.0841    0.1253   -1.0724 C   0  0  0  0  0  0  0  0  0  0  0  0
    2.2111    0.4452   -0.1303 C   0  0  0  0  0  0  0  0  0  0  0  0
    3.4648    1.0221    0.1071 C   0  0  0  0  0  0  0  0  0  0  0  0
    8.4231    0.9628    0.9221 H   0  0  0  0  0  0  0  0  0  0  0  0
    8.5412   -0.0503    2.3750 H   0  0  0  0  0  0  0  0  0  0  0  0
    7.8411    1.5751    2.5137 H   0  0  0  0  0  0  0  0  0  0  0  0
    4.9743   -1.6094    1.6663 H   0  0  0  0  0  0  0  0  0  0  0  0
    2.7662   -2.6100    1.2422 H   0  0  0  0  0  0  0  0  0  0  0  0
   -0.5454    0.0152   -0.0474 H   0  0  0  0  0  0  0  0  0  0  0  0
    0.0922   -0.6595   -1.6135 H   0  0  0  0  0  0  0  0  0  0  0  0
   -3.5954   -2.4330    0.6936 H   0  0  0  0  0  0  0  0  0  0  0  0
   -3.8040   -3.0467   -0.9443 H   0  0  0  0  0  0  0  0  0  0  0  0
   -5.5853   -1.5093   -1.4222 H   0  0  0  0  0  0  0  0  0  0  0  0
   -5.9322   -2.2086    0.1601 H   0  0  0  0  0  0  0  0  0  0  0  0
   -4.9190   -0.1908    1.2769 H   0  0  0  0  0  0  0  0  0  0  0  0
   -6.2452    0.2492    0.1847 H   0  0  0  0  0  0  0  0  0  0  0  0
   -5.4795    2.4737   -0.3615 H   0  0  0  0  0  0  0  0  0  0  0  0
   -3.9825    3.8727   -1.7373 H   0  0  0  0  0  0  0  0  0  0  0  0
   -1.9720    2.8701   -2.7840 H   0  0  0  0  0  0  0  0  0  0  0  0
   -1.4407    0.5192   -2.4416 H   0  0  0  0  0  0  0  0  0  0  0  0
    1.4617    1.0493   -0.6307 H   0  0  0  0  0  0  0  0  0  0  0  0
    3.6500    2.0455   -0.2155 H   0  0  0  0  0  0  0  0  0  0  0  0
  1  2  1  0
  2  3  1  0
  3  4  2  0
  3  5  1  0
  5  6  2  0
  6  7  1  0
  7  8  2  0
  8  9  1  0
  9 10  1  0
 10 11  1  0
 11 12  2  0
 11 13  1  0
 13 14  1  0
 14 15  1  0
 15 16  1  0
 16 17  1  0
 17 18  2  0
 18 19  1  0
 19 20  2  0
 20 21  1  0
 21 22  2  0
  8 23  1  0
 23 24  2  0
 24  5  1  0
 22 13  1  0
 22 17  1  0
  1 25  1  0
  1 26  1  0
  1 27  1  0
  6 28  1  0
  7 29  1  0
 10 30  1  0
 10 31  1  0
 14 32  1  0
 14 33  1  0
 15 34  1  0
 15 35  1  0
 16 36  1  0
 16 37  1  0
 18 38  1  0
 19 39  1  0
 20 40  1  0
 21 41  1  0
 23 42  1  0
 24 43  1  0
M  END
$$$$
