
     RDKit          3D

 34 36  0  0  0  0  0  0  0  0999 V2000
    4.7154    1.9317    0.8321 C   0  0  0  0  0  0  0  0  0  0  0  0
    4.5411    0.5856    0.3296 N   0  0  0  0  0  0  0  0  0  0  0  0
    5.6197   -0.2247    0.2702 N   0  0  0  0  0  0  0  0  0  0  0  0
    5.1323   -1.3579   -0.2326 C   0  0  0  0  0  0  0  0  0  0  0  0
    3.7509   -1.2811   -0.4764 C   0  0  0  0  0  0  0  0  0  0  0  0
    2.8343   -2.5367   -1.1534 Cl  0  0  0  0  0  0  0  0  0  0  0  0
    3.3667   -0.0104   -0.0844 C   0  0  0  0  0  0  0  0  0  0  0  0
    2.0818    0.6651   -0.0956 C   0  0  0  0  0  0  0  0  0  0  0  0
    2.0236    1.8897   -0.0753 O   0  0  0  0  0  0  0  0  0  0  0  0
    0.9927   -0.1853   -0.0754 N   0  0  0  0  0  0  0  0  0  0  0  0
   -0.3544    0.1545   -0.1287 C   0  0  0  0  0  0  0  0  0  0  0  0
   -0.8500    1.7578   -0.4795 S   0  0  0  0  0  0  0  0  0  0  0  0
   -2.4512    1.3088   -0.4320 C   0  0  0  0  0  0  0  0  0  0  0  0
   -2.6552   -0.0137   -0.1511 C   0  0  0  0  0  0  0  0  0  0  0  0
   -1.4321   -0.7231    0.0527 C   0  0  0  0  0  0  0  0  0  0  0  0
   -1.2351   -2.1318    0.3879 C   0  0  0  0  0  0  0  0  0  0  0  0
   -2.3402   -2.8428    0.7552 N   0  0  0  0  0  0  0  0  0  0  0  0
   -0.1325   -2.6729    0.3887 O   0  0  0  0  0  0  0  0  0  0  0  0
   -4.1116   -0.3204   -0.1560 C   0  0  0  0  0  0  0  0  0  0  0  0
   -4.7265    0.9446   -0.8307 C   0  0  0  0  0  0  0  0  0  0  0  0
   -3.6884    2.0907   -0.6570 C   0  0  0  0  0  0  0  0  0  0  0  0
    5.7334    2.0461    1.2150 H   0  0  0  0  0  0  0  0  0  0  0  0
    4.5530    2.6307    0.0085 H   0  0  0  0  0  0  0  0  0  0  0  0
    4.0042    2.0987    1.6445 H   0  0  0  0  0  0  0  0  0  0  0  0
    5.8038   -2.1889   -0.4055 H   0  0  0  0  0  0  0  0  0  0  0  0
    1.1699   -1.1838    0.0351 H   0  0  0  0  0  0  0  0  0  0  0  0
   -3.1935   -2.3867    1.0347 H   0  0  0  0  0  0  0  0  0  0  0  0
   -2.1674   -3.7734    1.1110 H   0  0  0  0  0  0  0  0  0  0  0  0
   -4.3547   -1.2217   -0.7254 H   0  0  0  0  0  0  0  0  0  0  0  0
   -4.4845   -0.4220    0.8686 H   0  0  0  0  0  0  0  0  0  0  0  0
   -4.8633    0.7456   -1.9020 H   0  0  0  0  0  0  0  0  0  0  0  0
   -5.7063    1.2025   -0.4168 H   0  0  0  0  0  0  0  0  0  0  0  0
   -3.9294    2.6988    0.2209 H   0  0  0  0  0  0  0  0  0  0  0  0
   -3.6465    2.7264   -1.5455 H   0  0  0  0  0  0  0  0  0  0  0  0
  1  2  1  0
  2  3  1  0
  3  4  2  0
  4  5  1  0
  5  6  1  0
  5  7  2  0
  7  8  1  0
  8  9  2  0
  8 10  1  0
 10 11  1  0
 11 12  1  0
 12 13  1  0
 13 14  2  0
 14 15  1  0
 15 16  1  0
 16 17  1  0
 16 18  2  0
 14 19  1  0
 19 20  1  0
 20 21  1  0
  7  2  1  0
 15 11  2  0
 21 13  1  0
  1 22  1  0
  1 23  1  0
  1 24  1  0
  4 25  1  0
 10 26  1  0
 17 27  1  0
 17 28  1  0
 19 29  1  0
 19 30  1  0
 20 31  1  0
 20 32  1  0
 21 33  1  0
 21 34  1  0
M  END
$$$$
