
     RDKit          3D

 56 61  0  0  0  0  0  0  0  0999 V2000
    9.3127    2.5713   -1.1236 C   0  0  0  0  0  0  0  0  0  0  0  0
    7.8989    2.5422   -0.9723 O   0  0  0  0  0  0  0  0  0  0  0  0
    7.3300    1.3350   -0.6729 C   0  0  0  0  0  0  0  0  0  0  0  0
    8.0085    0.1353   -0.4883 C   0  0  0  0  0  0  0  0  0  0  0  0
    7.2932   -1.0241   -0.1848 C   0  0  0  0  0  0  0  0  0  0  0  0
    5.8954   -0.9901   -0.0639 C   0  0  0  0  0  0  0  0  0  0  0  0
    5.1716   -2.1536    0.2419 C   0  0  0  0  0  0  0  0  0  0  0  0
    3.7798   -2.0435    0.3475 C   0  0  0  0  0  0  0  0  0  0  0  0
    2.6991   -2.9155    0.6231 C   0  0  0  0  0  0  0  0  0  0  0  0
    1.5442   -2.1514    0.5882 C   0  0  0  0  0  0  0  0  0  0  0  0
    0.1593   -2.5603    0.7443 C   0  0  0  0  0  0  0  0  0  0  0  0
   -0.1654   -3.7358    0.5562 O   0  0  0  0  0  0  0  0  0  0  0  0
   -0.8077   -1.6211    1.1019 N   0  0  0  0  0  0  0  0  0  0  0  0
   -0.5773   -0.3299    1.7461 C   0  0  0  0  0  0  0  0  0  0  0  0
   -1.4375    0.7845    1.1115 C   0  0  0  0  0  0  0  0  0  0  0  0
   -2.7958    0.3696    0.6915 N   0  0  0  0  0  0  0  0  0  0  0  0
   -3.7634    1.4576    0.8719 C   0  0  0  0  0  0  0  0  0  0  0  0
   -5.0779    1.2154    0.1588 C   0  0  0  0  0  0  0  0  0  0  0  0
   -5.0979    0.9832   -1.2378 C   0  0  0  0  0  0  0  0  0  0  0  0
   -6.3005    0.7680   -1.9178 C   0  0  0  0  0  0  0  0  0  0  0  0
   -7.4639    0.7941   -1.1817 C   0  0  0  0  0  0  0  0  0  0  0  0
   -7.4575    1.0227    0.1741 C   0  0  0  0  0  0  0  0  0  0  0  0
   -6.2876    1.2382    0.8723 C   0  0  0  0  0  0  0  0  0  0  0  0
   -8.7082    1.0083    0.7089 O   0  0  0  0  0  0  0  0  0  0  0  0
   -9.5015    0.7434   -0.4669 C   0  0  0  0  0  0  0  0  0  0  0  0
   -8.7189    0.6068   -1.6707 O   0  0  0  0  0  0  0  0  0  0  0  0
   -3.2037   -0.8865    1.3411 C   0  0  0  0  0  0  0  0  0  0  0  0
   -2.2117   -2.0286    1.0298 C   0  0  0  0  0  0  0  0  0  0  0  0
    1.8664   -0.8624    0.2614 O   0  0  0  0  0  0  0  0  0  0  0  0
    3.2186   -0.7914    0.1348 C   0  0  0  0  0  0  0  0  0  0  0  0
    3.8641    0.3482   -0.1546 N   0  0  0  0  0  0  0  0  0  0  0  0
    5.1951    0.2261   -0.2502 C   0  0  0  0  0  0  0  0  0  0  0  0
    5.9359    1.3599   -0.5505 C   0  0  0  0  0  0  0  0  0  0  0  0
    9.6019    3.5983   -1.3664 H   0  0  0  0  0  0  0  0  0  0  0  0
    9.6346    1.9301   -1.9507 H   0  0  0  0  0  0  0  0  0  0  0  0
    9.8147    2.2955   -0.1903 H   0  0  0  0  0  0  0  0  0  0  0  0
    9.0878    0.0657   -0.5726 H   0  0  0  0  0  0  0  0  0  0  0  0
    7.8373   -1.9558   -0.0437 H   0  0  0  0  0  0  0  0  0  0  0  0
    5.6637   -3.1090    0.3922 H   0  0  0  0  0  0  0  0  0  0  0  0
    2.7365   -3.9781    0.8216 H   0  0  0  0  0  0  0  0  0  0  0  0
   -0.8712   -0.4603    2.7963 H   0  0  0  0  0  0  0  0  0  0  0  0
    0.4700   -0.0343    1.7763 H   0  0  0  0  0  0  0  0  0  0  0  0
   -0.9244    1.1578    0.2171 H   0  0  0  0  0  0  0  0  0  0  0  0
   -1.4745    1.6155    1.8278 H   0  0  0  0  0  0  0  0  0  0  0  0
   -3.9360    1.6414    1.9406 H   0  0  0  0  0  0  0  0  0  0  0  0
   -3.3561    2.3903    0.4584 H   0  0  0  0  0  0  0  0  0  0  0  0
   -4.1601    0.9620   -1.7915 H   0  0  0  0  0  0  0  0  0  0  0  0
   -6.3165    0.5850   -2.9859 H   0  0  0  0  0  0  0  0  0  0  0  0
   -6.3155    1.4168    1.9415 H   0  0  0  0  0  0  0  0  0  0  0  0
  -10.2121    1.5669   -0.6025 H   0  0  0  0  0  0  0  0  0  0  0  0
  -10.0646   -0.1834   -0.3079 H   0  0  0  0  0  0  0  0  0  0  0  0
   -4.1950   -1.2094    1.0037 H   0  0  0  0  0  0  0  0  0  0  0  0
   -3.2686   -0.7428    2.4279 H   0  0  0  0  0  0  0  0  0  0  0  0
   -2.3682   -2.8552    1.7328 H   0  0  0  0  0  0  0  0  0  0  0  0
   -2.3913   -2.4148    0.0187 H   0  0  0  0  0  0  0  0  0  0  0  0
    5.4110    2.3020   -0.6973 H   0  0  0  0  0  0  0  0  0  0  0  0
  1  2  1  0
  2  3  1  0
  3  4  2  0
  4  5  1  0
  5  6  2  0
  6  7  1  0
  7  8  2  0
  8  9  1  0
  9 10  2  0
 10 11  1  0
 11 12  2  0
 11 13  1  0
 13 14  1  0
 14 15  1  0
 15 16  1  0
 16 17  1  0
 17 18  1  0
 18 19  2  0
 19 20  1  0
 20 21  2  0
 21 22  1  0
 22 23  2  0
 22 24  1  0
 24 25  1  0
 25 26  1  0
 16 27  1  0
 27 28  1  0
 10 29  1  0
 29 30  1  0
 30 31  2  0
 31 32  1  0
 32 33  2  0
 33  3  1  0
 32  6  1  0
 30  8  1  0
 28 13  1  0
 23 18  1  0
 26 21  1  0
  1 34  1  0
  1 35  1  0
  1 36  1  0
  4 37  1  0
  5 38  1  0
  7 39  1  0
  9 40  1  0
 14 41  1  0
 14 42  1  0
 15 43  1  0
 15 44  1  0
 17 45  1  0
 17 46  1  0
 19 47  1  0
 20 48  1  0
 23 49  1  0
 25 50  1  0
 25 51  1  0
 27 52  1  0
 27 53  1  0
 28 54  1  0
 28 55  1  0
 33 56  1  0
M  END
$$$$
