
     RDKit          3D

 40 41  0  0  0  0  0  0  0  0999 V2000
   -6.9266   -0.3742    0.1226 C   0  0  0  0  0  0  0  0  0  0  0  0
   -5.4435   -0.1930   -0.0192 C   0  0  0  0  0  0  0  0  0  0  0  0
   -4.7774    0.7890    0.7058 C   0  0  0  0  0  0  0  0  0  0  0  0
   -3.4001    0.9169    0.5791 C   0  0  0  0  0  0  0  0  0  0  0  0
   -2.6891    0.0535   -0.2620 C   0  0  0  0  0  0  0  0  0  0  0  0
   -1.2399    0.2060   -0.4181 C   0  0  0  0  0  0  0  0  0  0  0  0
   -0.3876    0.0307    0.6044 C   0  0  0  0  0  0  0  0  0  0  0  0
    1.0673    0.2025    0.4903 C   0  0  0  0  0  0  0  0  0  0  0  0
    1.7898   -0.1760   -0.6405 C   0  0  0  0  0  0  0  0  0  0  0  0
    3.1837   -0.0097   -0.6891 C   0  0  0  0  0  0  0  0  0  0  0  0
    3.9190    0.5204    0.3846 C   0  0  0  0  0  0  0  0  0  0  0  0
    5.3017    0.7065    0.3174 N   0  0  0  0  0  0  0  0  0  0  0  0
    6.0437    1.0502    1.5303 C   0  0  0  0  0  0  0  0  0  0  0  0
    6.0707    0.0149   -0.7166 C   0  0  0  0  0  0  0  0  0  0  0  0
    3.1662    0.8882    1.5119 C   0  0  0  0  0  0  0  0  0  0  0  0
    1.7729    0.7250    1.5731 C   0  0  0  0  0  0  0  0  0  0  0  0
   -3.3548   -0.9119   -0.9524 N   0  0  0  0  0  4  0  0  0  0  0  0
   -2.6225   -1.8574   -1.8190 C   0  0  0  0  0  0  0  0  0  0  0  0
   -4.6985   -1.0425   -0.8357 C   0  0  0  0  0  0  0  0  0  0  0  0
   -7.4194    0.5835    0.3207 H   0  0  0  0  0  0  0  0  0  0  0  0
   -7.1423   -1.0612    0.9466 H   0  0  0  0  0  0  0  0  0  0  0  0
   -7.3601   -0.7784   -0.7982 H   0  0  0  0  0  0  0  0  0  0  0  0
   -5.3232    1.4620    1.3670 H   0  0  0  0  0  0  0  0  0  0  0  0
   -2.8827    1.6983    1.1343 H   0  0  0  0  0  0  0  0  0  0  0  0
   -0.8910    0.4940   -1.4063 H   0  0  0  0  0  0  0  0  0  0  0  0
   -0.7441   -0.2276    1.6011 H   0  0  0  0  0  0  0  0  0  0  0  0
    1.2996   -0.6106   -1.5062 H   0  0  0  0  0  0  0  0  0  0  0  0
    3.6821   -0.3085   -1.6068 H   0  0  0  0  0  0  0  0  0  0  0  0
    7.1097    1.1914    1.3190 H   0  0  0  0  0  0  0  0  0  0  0  0
    5.6942    1.9982    1.9533 H   0  0  0  0  0  0  0  0  0  0  0  0
    5.9571    0.2571    2.2811 H   0  0  0  0  0  0  0  0  0  0  0  0
    5.9506   -1.0711   -0.6347 H   0  0  0  0  0  0  0  0  0  0  0  0
    5.7721    0.3437   -1.7177 H   0  0  0  0  0  0  0  0  0  0  0  0
    7.1410    0.2351   -0.6347 H   0  0  0  0  0  0  0  0  0  0  0  0
    3.6462    1.3186    2.3861 H   0  0  0  0  0  0  0  0  0  0  0  0
    1.2585    1.0302    2.4818 H   0  0  0  0  0  0  0  0  0  0  0  0
   -1.8716   -2.3706   -1.2126 H   0  0  0  0  0  0  0  0  0  0  0  0
   -3.3118   -2.5962   -2.2357 H   0  0  0  0  0  0  0  0  0  0  0  0
   -2.1659   -1.2888   -2.6332 H   0  0  0  0  0  0  0  0  0  0  0  0
   -5.1741   -1.8382   -1.4037 H   0  0  0  0  0  0  0  0  0  0  0  0
  1  2  1  0
  2  3  2  0
  3  4  1  0
  4  5  2  0
  5  6  1  0
  6  7  2  3
  7  8  1  0
  8  9  2  0
  9 10  1  0
 10 11  2  0
 11 12  1  0
 12 13  1  0
 12 14  1  0
 11 15  1  0
 15 16  2  0
  5 17  1  0
 17 18  1  0
 17 19  2  0
 19  2  1  0
 16  8  1  0
  1 20  1  0
  1 21  1  0
  1 22  1  0
  3 23  1  0
  4 24  1  0
  6 25  1  0
  7 26  1  0
  9 27  1  0
 10 28  1  0
 13 29  1  0
 13 30  1  0
 13 31  1  0
 14 32  1  0
 14 33  1  0
 14 34  1  0
 15 35  1  0
 16 36  1  0
 18 37  1  0
 18 38  1  0
 18 39  1  0
 19 40  1  0
M  CHG  1  17   1
M  END
$$$$
