
     RDKit          3D

 44 44  0  0  0  0  0  0  0  0999 V2000
   -0.6316   -2.0886    0.1706 C   0  0  0  0  0  0  0  0  0  0  0  0
   -1.5305   -1.4974    1.2665 C   0  0  0  0  0  0  0  0  0  0  0  0
   -2.6808   -2.4734    1.5537 C   0  0  0  0  0  0  0  0  0  0  0  0
   -2.0139   -0.0217    1.0469 C   0  0  0  0  0  0  0  0  0  0  0  0
   -2.4491    0.4411    2.3409 O   0  0  0  0  0  0  0  0  0  0  0  0
   -0.8659    0.8379    0.6803 C   0  0  0  0  0  0  0  0  0  0  0  0
    0.0714    1.5305    0.3843 C   0  0  0  0  0  0  0  0  0  0  0  0
    1.2270    2.3646    0.0204 C   0  0  0  0  0  0  0  0  0  0  0  0
    2.4208    1.6006   -0.3565 N   0  0  0  0  0  0  0  0  0  0  0  0
    2.9427    0.7615    0.7178 C   0  0  0  0  0  0  0  0  0  0  0  0
    4.3665    0.3020    0.3808 C   0  0  0  0  0  0  0  0  0  0  0  0
    4.5604   -0.0399   -1.0988 C   0  0  0  0  0  0  0  0  0  0  0  0
    3.2272   -0.3059   -1.7826 C   0  0  0  0  0  0  0  0  0  0  0  0
    2.2701    0.8845   -1.6291 C   0  0  0  0  0  0  0  0  0  0  0  0
   -3.2123    0.1911    0.0607 C   0  0  0  0  0  0  0  0  0  0  0  0
   -3.6911    1.6570    0.0296 C   0  0  0  0  0  0  0  0  0  0  0  0
   -2.9667   -0.2756   -1.3760 C   0  0  0  0  0  0  0  0  0  0  0  0
   -0.2577   -3.0708    0.4835 H   0  0  0  0  0  0  0  0  0  0  0  0
   -1.1552   -2.2369   -0.7743 H   0  0  0  0  0  0  0  0  0  0  0  0
    0.2474   -1.4666   -0.0185 H   0  0  0  0  0  0  0  0  0  0  0  0
   -0.9166   -1.4908    2.1806 H   0  0  0  0  0  0  0  0  0  0  0  0
   -3.3175   -2.6186    0.6757 H   0  0  0  0  0  0  0  0  0  0  0  0
   -2.2867   -3.4556    1.8379 H   0  0  0  0  0  0  0  0  0  0  0  0
   -3.3077   -2.1264    2.3804 H   0  0  0  0  0  0  0  0  0  0  0  0
   -3.3082    0.0332    2.5316 H   0  0  0  0  0  0  0  0  0  0  0  0
    1.4761    3.0253    0.8599 H   0  0  0  0  0  0  0  0  0  0  0  0
    0.9517    3.0337   -0.8043 H   0  0  0  0  0  0  0  0  0  0  0  0
    2.9827    1.3149    1.6641 H   0  0  0  0  0  0  0  0  0  0  0  0
    2.3011   -0.1126    0.8877 H   0  0  0  0  0  0  0  0  0  0  0  0
    5.0880    1.0804    0.6589 H   0  0  0  0  0  0  0  0  0  0  0  0
    4.6057   -0.5747    0.9948 H   0  0  0  0  0  0  0  0  0  0  0  0
    5.2243   -0.9056   -1.1999 H   0  0  0  0  0  0  0  0  0  0  0  0
    5.0605    0.7980   -1.6008 H   0  0  0  0  0  0  0  0  0  0  0  0
    2.7711   -1.2019   -1.3423 H   0  0  0  0  0  0  0  0  0  0  0  0
    3.3841   -0.5195   -2.8459 H   0  0  0  0  0  0  0  0  0  0  0  0
    1.2515    0.5058   -1.7773 H   0  0  0  0  0  0  0  0  0  0  0  0
    2.4592    1.5987   -2.4397 H   0  0  0  0  0  0  0  0  0  0  0  0
   -4.0705   -0.3769    0.4448 H   0  0  0  0  0  0  0  0  0  0  0  0
   -3.9254    2.0259    1.0330 H   0  0  0  0  0  0  0  0  0  0  0  0
   -2.9414    2.3196   -0.4149 H   0  0  0  0  0  0  0  0  0  0  0  0
   -4.6054    1.7476   -0.5678 H   0  0  0  0  0  0  0  0  0  0  0  0
   -3.7772    0.0527   -2.0367 H   0  0  0  0  0  0  0  0  0  0  0  0
   -2.9482   -1.3658   -1.4382 H   0  0  0  0  0  0  0  0  0  0  0  0
   -2.0301    0.1185   -1.7818 H   0  0  0  0  0  0  0  0  0  0  0  0
  1  2  1  0
  2  3  1  0
  2  4  1  0
  4  5  1  0
  4  6  1  0
  6  7  3  0
  7  8  1  0
  8  9  1  0
  9 10  1  0
 10 11  1  0
 11 12  1  0
 12 13  1  0
 13 14  1  0
  4 15  1  0
 15 16  1  0
 15 17  1  0
 14  9  1  0
  1 18  1  0
  1 19  1  0
  1 20  1  0
  2 21  1  0
  3 22  1  0
  3 23  1  0
  3 24  1  0
  5 25  1  0
  8 26  1  0
  8 27  1  0
 10 28  1  0
 10 29  1  0
 11 30  1  0
 11 31  1  0
 12 32  1  0
 12 33  1  0
 13 34  1  0
 13 35  1  0
 14 36  1  0
 14 37  1  0
 15 38  1  0
 16 39  1  0
 16 40  1  0
 16 41  1  0
 17 42  1  0
 17 43  1  0
 17 44  1  0
M  END
$$$$
