
     RDKit          3D

 32 34  0  0  0  0  0  0  0  0999 V2000
    7.0248   -0.5885    0.1031 C   0  0  0  0  0  0  0  0  0  0  0  0
    5.6977   -0.3361    0.7183 C   0  0  0  0  0  0  0  0  0  0  0  0
    5.4400   -0.0492    2.0448 C   0  0  0  0  0  0  0  0  0  0  0  0
    3.7570    0.1633    2.2772 S   0  0  0  0  0  0  0  0  0  0  0  0
    3.4968   -0.1393    0.6241 C   0  0  0  0  0  0  0  0  0  0  0  0
    2.2615   -0.1327    0.0327 N   0  0  0  0  0  0  0  0  0  0  0  0
    1.0413    0.0889    0.6346 C   0  0  0  0  0  0  0  0  0  0  0  0
    0.8760    0.3120    1.8295 O   0  0  0  0  0  0  0  0  0  0  0  0
   -0.0819    0.0345   -0.2948 C   0  0  0  0  0  0  0  0  0  0  0  0
   -0.1867   -0.1057   -1.6680 C   0  0  0  0  0  0  0  0  0  0  0  0
   -1.5699   -0.0753   -1.9821 C   0  0  0  0  0  0  0  0  0  0  0  0
   -2.2473    0.0706   -0.7899 C   0  0  0  0  0  0  0  0  0  0  0  0
   -3.6501    0.1770   -0.3907 C   0  0  0  0  0  0  0  0  0  0  0  0
   -3.9769    1.0215    0.6892 C   0  0  0  0  0  0  0  0  0  0  0  0
   -5.2988    1.1830    1.1135 C   0  0  0  0  0  0  0  0  0  0  0  0
   -6.3176    0.4973    0.4634 C   0  0  0  0  0  0  0  0  0  0  0  0
   -7.9462    0.6931    0.9802 Cl  0  0  0  0  0  0  0  0  0  0  0  0
   -6.0261   -0.3503   -0.6007 C   0  0  0  0  0  0  0  0  0  0  0  0
   -4.7002   -0.5131   -1.0255 C   0  0  0  0  0  0  0  0  0  0  0  0
   -4.4451   -1.6290   -2.3252 Cl  0  0  0  0  0  0  0  0  0  0  0  0
   -1.3428    0.1475    0.2302 O   0  0  0  0  0  0  0  0  0  0  0  0
    4.5717   -0.3836   -0.0896 N   0  0  0  0  0  0  0  0  0  0  0  0
    7.8280   -0.5260    0.8441 H   0  0  0  0  0  0  0  0  0  0  0  0
    7.0501   -1.5865   -0.3451 H   0  0  0  0  0  0  0  0  0  0  0  0
    7.2245    0.1487   -0.6807 H   0  0  0  0  0  0  0  0  0  0  0  0
    6.1372    0.0435    2.8651 H   0  0  0  0  0  0  0  0  0  0  0  0
    2.3110   -0.3354   -0.9524 H   0  0  0  0  0  0  0  0  0  0  0  0
    0.6227   -0.2070   -2.3768 H   0  0  0  0  0  0  0  0  0  0  0  0
   -2.0113   -0.1427   -2.9670 H   0  0  0  0  0  0  0  0  0  0  0  0
   -3.1917    1.5683    1.2118 H   0  0  0  0  0  0  0  0  0  0  0  0
   -5.5191    1.8424    1.9494 H   0  0  0  0  0  0  0  0  0  0  0  0
   -6.8286   -0.8913   -1.0958 H   0  0  0  0  0  0  0  0  0  0  0  0
  1  2  1  0
  2  3  2  0
  3  4  1  0
  4  5  1  0
  5  6  1  0
  6  7  1  0
  7  8  2  0
  7  9  1  0
  9 10  2  0
 10 11  1  0
 11 12  2  0
 12 13  1  0
 13 14  2  0
 14 15  1  0
 15 16  2  0
 16 17  1  0
 16 18  1  0
 18 19  2  0
 19 20  1  0
 12 21  1  0
  5 22  2  0
 22  2  1  0
 21  9  1  0
 19 13  1  0
  1 23  1  0
  1 24  1  0
  1 25  1  0
  3 26  1  0
  6 27  1  0
 10 28  1  0
 11 29  1  0
 14 30  1  0
 15 31  1  0
 18 32  1  0
M  END
$$$$
