
     RDKit          3D

 36 38  0  0  0  0  0  0  0  0999 V2000
   -2.0987    3.4030    1.0451 C   0  0  0  0  0  0  0  0  0  0  0  0
   -2.3004    2.1310    0.4305 O   0  0  0  0  0  0  0  0  0  0  0  0
   -1.1618    1.3887    0.2975 C   0  0  0  0  0  0  0  0  0  0  0  0
   -0.0538    1.7650    0.6661 O   0  0  0  0  0  0  0  0  0  0  0  0
   -1.4013    0.0905   -0.3276 C   0  0  0  0  0  0  0  0  0  0  0  0
   -0.3953   -0.8570   -0.5421 C   0  0  0  0  0  0  0  0  0  0  0  0
    0.9429   -0.7223   -0.2162 N   0  0  0  0  0  0  0  0  0  0  0  0
    1.9693   -1.6279   -0.4058 C   0  0  0  0  0  0  0  0  0  0  0  0
    1.9036   -2.7453   -0.9044 O   0  0  0  0  0  0  0  0  0  0  0  0
    3.2558   -1.0929    0.0830 C   0  0  0  0  0  0  0  0  0  0  0  0
    4.5188   -1.7399    0.0567 C   0  0  0  0  0  0  0  0  0  0  0  0
    5.3995   -0.8471    0.6183 C   0  0  0  0  0  0  0  0  0  0  0  0
    4.6614    0.2502    0.9439 N   0  0  0  0  0  0  0  0  0  0  0  0
    5.1376    1.4637    1.5629 C   0  0  0  0  0  0  0  0  0  0  0  0
    3.3572    0.1357    0.6330 N   0  0  0  0  0  0  0  0  0  0  0  0
   -0.9800   -2.2918   -1.2817 S   0  0  0  0  0  0  0  0  0  0  0  0
   -2.5273   -1.6795   -1.3263 C   0  0  0  0  0  0  0  0  0  0  0  0
   -2.6427   -0.4220   -0.8063 C   0  0  0  0  0  0  0  0  0  0  0  0
   -4.0504    0.0510   -0.8822 C   0  0  0  0  0  0  0  0  0  0  0  0
   -4.7043   -0.9897   -1.8447 C   0  0  0  0  0  0  0  0  0  0  0  0
   -3.7965   -2.2559   -1.8241 C   0  0  0  0  0  0  0  0  0  0  0  0
   -1.7043    3.2820    2.0590 H   0  0  0  0  0  0  0  0  0  0  0  0
   -3.0681    3.9052    1.1097 H   0  0  0  0  0  0  0  0  0  0  0  0
   -1.4290    4.0206    0.4385 H   0  0  0  0  0  0  0  0  0  0  0  0
    1.2317    0.1564    0.2219 H   0  0  0  0  0  0  0  0  0  0  0  0
    4.7363   -2.7278   -0.3261 H   0  0  0  0  0  0  0  0  0  0  0  0
    6.4625   -0.9047    0.8062 H   0  0  0  0  0  0  0  0  0  0  0  0
    6.2101    1.3778    1.7549 H   0  0  0  0  0  0  0  0  0  0  0  0
    4.6002    1.6041    2.5042 H   0  0  0  0  0  0  0  0  0  0  0  0
    4.9449    2.2960    0.8814 H   0  0  0  0  0  0  0  0  0  0  0  0
   -4.1395    1.0629   -1.2867 H   0  0  0  0  0  0  0  0  0  0  0  0
   -4.5221    0.0088    0.1052 H   0  0  0  0  0  0  0  0  0  0  0  0
   -4.7154   -0.5754   -2.8616 H   0  0  0  0  0  0  0  0  0  0  0  0
   -5.7398   -1.2150   -1.5713 H   0  0  0  0  0  0  0  0  0  0  0  0
   -4.1892   -2.9986   -1.1220 H   0  0  0  0  0  0  0  0  0  0  0  0
   -3.7118   -2.6994   -2.8199 H   0  0  0  0  0  0  0  0  0  0  0  0
  1  2  1  0
  2  3  1  0
  3  4  2  0
  3  5  1  0
  5  6  2  0
  6  7  1  0
  7  8  1  0
  8  9  2  0
  8 10  1  0
 10 11  1  0
 11 12  2  0
 12 13  1  0
 13 14  1  0
 13 15  1  0
  6 16  1  0
 16 17  1  0
 17 18  2  0
 18 19  1  0
 19 20  1  0
 20 21  1  0
 18  5  1  0
 15 10  2  0
 21 17  1  0
  1 22  1  0
  1 23  1  0
  1 24  1  0
  7 25  1  0
 11 26  1  0
 12 27  1  0
 14 28  1  0
 14 29  1  0
 14 30  1  0
 19 31  1  0
 19 32  1  0
 20 33  1  0
 20 34  1  0
 21 35  1  0
 21 36  1  0
M  END
$$$$
