
     RDKit          3D

 33 34  0  0  0  0  0  0  0  0999 V2000
   -6.5012    1.5501    0.2451 N   0  0  0  0  0  0  0  0  0  0  0  0
   -5.1600    1.2520    0.5052 C   0  0  0  0  0  0  0  0  0  0  0  0
   -4.5467    1.7250    1.6674 C   0  0  0  0  0  0  0  0  0  0  0  0
   -3.1772    1.5361    1.8808 C   0  0  0  0  0  0  0  0  0  0  0  0
   -2.3912    0.9060    0.9090 C   0  0  0  0  0  0  0  0  0  0  0  0
   -0.9389    0.7311    1.1824 C   0  0  0  0  0  0  0  0  0  0  0  0
   -0.3969    1.0985    2.2127 O   0  0  0  0  0  0  0  0  0  0  0  0
   -0.3268    0.1149    0.1407 O   0  0  0  0  0  0  0  0  0  0  0  0
    1.0825   -0.0925    0.3234 C   0  0  0  0  0  0  0  0  0  0  0  0
    1.6258   -0.7862   -0.9227 C   0  0  0  0  0  0  0  0  0  0  0  0
    3.1053   -1.0507   -0.8298 C   0  0  0  0  0  0  0  0  0  0  0  0
    3.5797   -2.2455   -0.2722 C   0  0  0  0  0  0  0  0  0  0  0  0
    4.9515   -2.4810   -0.1683 C   0  0  0  0  0  0  0  0  0  0  0  0
    5.8603   -1.5243   -0.6163 C   0  0  0  0  0  0  0  0  0  0  0  0
    5.3986   -0.3305   -1.1673 C   0  0  0  0  0  0  0  0  0  0  0  0
    4.0273   -0.0928   -1.2722 C   0  0  0  0  0  0  0  0  0  0  0  0
   -2.9906    0.4836   -0.2832 C   0  0  0  0  0  0  0  0  0  0  0  0
   -4.3620    0.6766   -0.4868 C   0  0  0  0  0  0  0  0  0  0  0  0
   -7.0670    1.6723    1.0794 H   0  0  0  0  0  0  0  0  0  0  0  0
   -6.9401    0.9321   -0.4302 H   0  0  0  0  0  0  0  0  0  0  0  0
   -5.1302    2.2466    2.4218 H   0  0  0  0  0  0  0  0  0  0  0  0
   -2.7263    1.8965    2.8035 H   0  0  0  0  0  0  0  0  0  0  0  0
    1.2470   -0.7169    1.2101 H   0  0  0  0  0  0  0  0  0  0  0  0
    1.5778    0.8755    0.4679 H   0  0  0  0  0  0  0  0  0  0  0  0
    1.0859   -1.7274   -1.0904 H   0  0  0  0  0  0  0  0  0  0  0  0
    1.4080   -0.1796   -1.8116 H   0  0  0  0  0  0  0  0  0  0  0  0
    2.8835   -3.0008    0.0856 H   0  0  0  0  0  0  0  0  0  0  0  0
    5.3113   -3.4110    0.2641 H   0  0  0  0  0  0  0  0  0  0  0  0
    6.9282   -1.7081   -0.5341 H   0  0  0  0  0  0  0  0  0  0  0  0
    6.1071    0.4172   -1.5142 H   0  0  0  0  0  0  0  0  0  0  0  0
    3.6832    0.8458   -1.7013 H   0  0  0  0  0  0  0  0  0  0  0  0
   -2.4053    0.0157   -1.0703 H   0  0  0  0  0  0  0  0  0  0  0  0
   -4.8023    0.3715   -1.4329 H   0  0  0  0  0  0  0  0  0  0  0  0
  1  2  1  0
  2  3  2  0
  3  4  1  0
  4  5  2  0
  5  6  1  0
  6  7  2  0
  6  8  1  0
  8  9  1  0
  9 10  1  0
 10 11  1  0
 11 12  2  0
 12 13  1  0
 13 14  2  0
 14 15  1  0
 15 16  2  0
  5 17  1  0
 17 18  2  0
 18  2  1  0
 16 11  1  0
  1 19  1  0
  1 20  1  0
  3 21  1  0
  4 22  1  0
  9 23  1  0
  9 24  1  0
 10 25  1  0
 10 26  1  0
 12 27  1  0
 13 28  1  0
 14 29  1  0
 15 30  1  0
 16 31  1  0
 17 32  1  0
 18 33  1  0
M  END
$$$$
