
     RDKit          3D

 35 37  0  0  0  0  0  0  0  0999 V2000
    7.3370    0.0332    0.5222 C   0  0  0  0  0  0  0  0  0  0  0  0
    6.1512    0.7435    0.8558 O   0  0  0  0  0  0  0  0  0  0  0  0
    4.9655    0.1850    0.4674 C   0  0  0  0  0  0  0  0  0  0  0  0
    4.8102   -1.0155   -0.2237 C   0  0  0  0  0  0  0  0  0  0  0  0
    3.5292   -1.4731   -0.5605 C   0  0  0  0  0  0  0  0  0  0  0  0
    2.3842   -0.7410   -0.2133 C   0  0  0  0  0  0  0  0  0  0  0  0
    1.0659   -1.2424   -0.5772 C   0  0  0  0  0  0  0  0  0  0  0  0
    0.7197   -2.3368   -1.2278 N   0  0  0  0  0  0  0  0  0  0  0  0
   -0.6596   -2.3265   -1.3004 N   0  0  0  0  0  0  0  0  0  0  0  0
   -1.0529   -1.2289   -0.6922 C   0  0  0  0  0  0  0  0  0  0  0  0
   -2.3450   -0.8226   -0.5244 N   0  0  0  0  0  0  0  0  0  0  0  0
   -2.6826    0.3659    0.0753 C   0  0  0  0  0  0  0  0  0  0  0  0
   -1.9090    1.2197    0.4919 O   0  0  0  0  0  0  0  0  0  0  0  0
   -4.1478    0.6260    0.1799 C   0  0  0  0  0  0  0  0  0  0  0  0
   -5.0759   -0.4096    0.3705 C   0  0  0  0  0  0  0  0  0  0  0  0
   -6.4385   -0.1135    0.4657 C   0  0  0  0  0  0  0  0  0  0  0  0
   -6.8653    1.2079    0.3794 C   0  0  0  0  0  0  0  0  0  0  0  0
   -8.1720    1.4847    0.4723 F   0  0  0  0  0  0  0  0  0  0  0  0
   -5.9558    2.2447    0.2072 C   0  0  0  0  0  0  0  0  0  0  0  0
   -4.5933    1.9552    0.1124 C   0  0  0  0  0  0  0  0  0  0  0  0
   -0.0168   -0.4930   -0.2038 O   0  0  0  0  0  0  0  0  0  0  0  0
    2.5517    0.4644    0.4809 C   0  0  0  0  0  0  0  0  0  0  0  0
    3.8311    0.9200    0.8165 C   0  0  0  0  0  0  0  0  0  0  0  0
    8.1883    0.6080    0.8995 H   0  0  0  0  0  0  0  0  0  0  0  0
    7.4510   -0.0572   -0.5631 H   0  0  0  0  0  0  0  0  0  0  0  0
    7.3580   -0.9490    1.0058 H   0  0  0  0  0  0  0  0  0  0  0  0
    5.6605   -1.6221   -0.5173 H   0  0  0  0  0  0  0  0  0  0  0  0
    3.4317   -2.4139   -1.1009 H   0  0  0  0  0  0  0  0  0  0  0  0
   -3.0345   -1.4280   -0.9419 H   0  0  0  0  0  0  0  0  0  0  0  0
   -4.7595   -1.4433    0.4789 H   0  0  0  0  0  0  0  0  0  0  0  0
   -7.1701   -0.9016    0.6179 H   0  0  0  0  0  0  0  0  0  0  0  0
   -6.3101    3.2695    0.1528 H   0  0  0  0  0  0  0  0  0  0  0  0
   -3.8786    2.7669   -0.0146 H   0  0  0  0  0  0  0  0  0  0  0  0
    1.6901    1.0651    0.7692 H   0  0  0  0  0  0  0  0  0  0  0  0
    3.9419    1.8582    1.3555 H   0  0  0  0  0  0  0  0  0  0  0  0
  1  2  1  0
  2  3  1  0
  3  4  2  0
  4  5  1  0
  5  6  2  0
  6  7  1  0
  7  8  2  0
  8  9  1  0
  9 10  2  0
 10 11  1  0
 11 12  1  0
 12 13  2  0
 12 14  1  0
 14 15  2  0
 15 16  1  0
 16 17  2  0
 17 18  1  0
 17 19  1  0
 19 20  2  0
 10 21  1  0
  6 22  1  0
 22 23  2  0
 23  3  1  0
 21  7  1  0
 20 14  1  0
  1 24  1  0
  1 25  1  0
  1 26  1  0
  4 27  1  0
  5 28  1  0
 11 29  1  0
 15 30  1  0
 16 31  1  0
 19 32  1  0
 20 33  1  0
 22 34  1  0
 23 35  1  0
M  END
$$$$
