
     RDKit          3D

 62 65  0  0  0  0  0  0  0  0999 V2000
   -2.6144   -2.0204   -1.2059 C   0  0  0  0  0  0  0  0  0  0  0  0
   -2.2123   -1.8461    0.2524 C   0  0  0  0  0  0  0  0  0  0  0  0
   -2.7076   -0.5865    0.8054 N   0  0  0  0  0  0  0  0  0  0  0  0
   -2.3179    0.7190    0.4470 C   0  0  0  0  0  0  0  0  0  0  0  0
   -1.1351    1.2159    0.0304 C   0  0  0  0  0  0  0  0  0  0  0  0
    0.1441    0.5489   -0.0589 C   0  0  0  0  0  0  0  0  0  0  0  0
    1.2112    1.1322   -0.6234 C   0  0  0  0  0  0  0  0  0  0  0  0
    2.5317    0.4715   -0.6294 C   0  0  0  0  0  0  0  0  0  0  0  0
    2.8368   -0.6667   -1.1810 N   0  0  0  0  0  4  0  0  0  0  0  0
    2.0050   -1.5829   -1.9870 C   0  0  0  0  0  0  0  0  0  0  0  0
    1.6178   -2.8050   -1.1742 C   0  0  0  0  0  0  0  0  0  0  0  0
    4.2756   -0.9318   -0.9895 C   0  0  0  0  0  0  0  0  0  0  0  0
    5.0303   -2.0039   -1.4317 C   0  0  0  0  0  0  0  0  0  0  0  0
    6.3903   -2.0133   -1.1104 C   0  0  0  0  0  0  0  0  0  0  0  0
    6.9588   -0.9657   -0.3676 C   0  0  0  0  0  0  0  0  0  0  0  0
    6.1807    0.1108    0.0637 C   0  0  0  0  0  0  0  0  0  0  0  0
    4.8338    0.1132   -0.2601 C   0  0  0  0  0  0  0  0  0  0  0  0
    3.7649    1.1260    0.0434 C   0  0  0  0  0  0  0  0  0  0  0  0
    4.0885    2.4785   -0.5976 C   0  0  0  0  0  0  0  0  0  0  0  0
    3.5415    1.2672    1.5513 C   0  0  0  0  0  0  0  0  0  0  0  0
   -3.5462    1.6782    0.6398 C   0  0  0  0  0  0  0  0  0  0  0  0
   -4.0089    2.2765   -0.6971 C   0  0  0  0  0  0  0  0  0  0  0  0
   -3.2603    2.7830    1.6685 C   0  0  0  0  0  0  0  0  0  0  0  0
   -4.5933    0.7238    1.1753 C   0  0  0  0  0  0  0  0  0  0  0  0
   -5.9051    0.9919    1.5505 C   0  0  0  0  0  0  0  0  0  0  0  0
   -6.6950   -0.0641    1.9996 C   0  0  0  0  0  0  0  0  0  0  0  0
   -6.1693   -1.3599    2.0683 C   0  0  0  0  0  0  0  0  0  0  0  0
   -4.8472   -1.6176    1.6864 C   0  0  0  0  0  0  0  0  0  0  0  0
   -4.0560   -0.5714    1.2329 C   0  0  0  0  0  0  0  0  0  0  0  0
   -3.7027   -2.0276   -1.3229 H   0  0  0  0  0  0  0  0  0  0  0  0
   -2.2146   -1.2139   -1.8287 H   0  0  0  0  0  0  0  0  0  0  0  0
   -2.2262   -2.9679   -1.5928 H   0  0  0  0  0  0  0  0  0  0  0  0
   -2.5548   -2.7091    0.8334 H   0  0  0  0  0  0  0  0  0  0  0  0
   -1.1263   -1.8981    0.3293 H   0  0  0  0  0  0  0  0  0  0  0  0
   -1.1099    2.2774   -0.2189 H   0  0  0  0  0  0  0  0  0  0  0  0
    0.2303   -0.4145    0.4264 H   0  0  0  0  0  0  0  0  0  0  0  0
    1.1638    2.1396   -1.0290 H   0  0  0  0  0  0  0  0  0  0  0  0
    2.5607   -1.8585   -2.8894 H   0  0  0  0  0  0  0  0  0  0  0  0
    1.1088   -1.0450   -2.3123 H   0  0  0  0  0  0  0  0  0  0  0  0
    2.4880   -3.4145   -0.9110 H   0  0  0  0  0  0  0  0  0  0  0  0
    0.9349   -3.4365   -1.7515 H   0  0  0  0  0  0  0  0  0  0  0  0
    1.1175   -2.5321   -0.2407 H   0  0  0  0  0  0  0  0  0  0  0  0
    4.6172   -2.8239   -2.0083 H   0  0  0  0  0  0  0  0  0  0  0  0
    7.0226   -2.8390   -1.4365 H   0  0  0  0  0  0  0  0  0  0  0  0
    8.0220   -0.9936   -0.1283 H   0  0  0  0  0  0  0  0  0  0  0  0
    6.6340    0.9178    0.6338 H   0  0  0  0  0  0  0  0  0  0  0  0
    3.3011    3.2136   -0.3977 H   0  0  0  0  0  0  0  0  0  0  0  0
    4.1847    2.3934   -1.6867 H   0  0  0  0  0  0  0  0  0  0  0  0
    5.0286    2.8903   -0.2135 H   0  0  0  0  0  0  0  0  0  0  0  0
    3.2668    0.3088    2.0080 H   0  0  0  0  0  0  0  0  0  0  0  0
    2.7323    1.9734    1.7687 H   0  0  0  0  0  0  0  0  0  0  0  0
    4.4432    1.6288    2.0582 H   0  0  0  0  0  0  0  0  0  0  0  0
   -3.2551    2.9509   -1.1186 H   0  0  0  0  0  0  0  0  0  0  0  0
   -4.9322    2.8551   -0.5771 H   0  0  0  0  0  0  0  0  0  0  0  0
   -4.2082    1.4954   -1.4411 H   0  0  0  0  0  0  0  0  0  0  0  0
   -4.1580    3.3766    1.8775 H   0  0  0  0  0  0  0  0  0  0  0  0
   -2.9164    2.3654    2.6226 H   0  0  0  0  0  0  0  0  0  0  0  0
   -2.4907    3.4767    1.3128 H   0  0  0  0  0  0  0  0  0  0  0  0
   -6.3135    1.9959    1.4963 H   0  0  0  0  0  0  0  0  0  0  0  0
   -7.7241    0.1174    2.3011 H   0  0  0  0  0  0  0  0  0  0  0  0
   -6.7952   -2.1736    2.4279 H   0  0  0  0  0  0  0  0  0  0  0  0
   -4.4711   -2.6298    1.7719 H   0  0  0  0  0  0  0  0  0  0  0  0
  1  2  1  0
  2  3  1  0
  3  4  1  0
  4  5  2  3
  5  6  1  0
  6  7  2  3
  7  8  1  0
  8  9  2  0
  9 10  1  0
 10 11  1  0
  9 12  1  0
 12 13  2  0
 13 14  1  0
 14 15  2  0
 15 16  1  0
 16 17  2  0
 17 18  1  0
 18 19  1  0
 18 20  1  0
  4 21  1  0
 21 22  1  0
 21 23  1  0
 21 24  1  0
 24 25  2  0
 25 26  1  0
 26 27  2  0
 27 28  1  0
 28 29  2  0
 29  3  1  0
 18  8  1  0
 29 24  1  0
 17 12  1  0
  1 30  1  0
  1 31  1  0
  1 32  1  0
  2 33  1  0
  2 34  1  0
  5 35  1  0
  6 36  1  0
  7 37  1  0
 10 38  1  0
 10 39  1  0
 11 40  1  0
 11 41  1  0
 11 42  1  0
 13 43  1  0
 14 44  1  0
 15 45  1  0
 16 46  1  0
 19 47  1  0
 19 48  1  0
 19 49  1  0
 20 50  1  0
 20 51  1  0
 20 52  1  0
 22 53  1  0
 22 54  1  0
 22 55  1  0
 23 56  1  0
 23 57  1  0
 23 58  1  0
 25 59  1  0
 26 60  1  0
 27 61  1  0
 28 62  1  0
M  CHG  1   9   1
M  END
$$$$
