
     RDKit          3D

 61 67  0  0  0  0  0  0  0  0999 V2000
    3.1113    2.2850    2.2539 O   0  0  0  0  0  0  0  0  0  0  0  0
    3.1065    1.3978    1.4037 C   0  0  0  0  0  0  0  0  0  0  0  0
    4.3875    1.0866    0.7265 C   0  0  0  0  0  0  0  0  0  0  0  0
    5.1558    2.1565    0.2203 C   0  0  0  0  0  0  0  0  0  0  0  0
    6.3815    1.9134   -0.4066 C   0  0  0  0  0  0  0  0  0  0  0  0
    6.8046    0.6043   -0.4952 C   0  0  0  0  0  0  0  0  0  0  0  0
    6.0640   -0.4359    0.0179 C   0  0  0  0  0  0  0  0  0  0  0  0
    4.8552   -0.2309    0.6470 C   0  0  0  0  0  0  0  0  0  0  0  0
    6.6655   -1.6409   -0.1682 O   0  0  0  0  0  0  0  0  0  0  0  0
    7.8727   -1.2416   -0.8508 C   0  0  0  0  0  0  0  0  0  0  0  0
    7.9639    0.1819   -1.0661 O   0  0  0  0  0  0  0  0  0  0  0  0
    1.9577    0.6854    1.0516 N   0  0  0  0  0  0  0  0  0  0  0  0
    1.8193   -0.0739   -0.1898 C   0  0  0  0  0  0  0  0  0  0  0  0
    0.3762   -0.0866   -0.6870 C   0  0  0  0  0  0  0  0  0  0  0  0
   -0.5673   -0.7395    0.3559 C   0  0  0  0  0  0  0  0  0  0  0  0
   -0.2007   -0.2657    1.7963 C   0  0  0  0  0  0  0  0  0  0  0  0
    0.7476    0.9282    1.8260 C   0  0  0  0  0  0  0  0  0  0  0  0
   -0.2708   -2.1674    0.3853 O   0  0  0  0  0  0  0  0  0  0  0  0
   -0.8470   -2.9627   -0.5609 C   0  0  0  0  0  0  0  0  0  0  0  0
   -0.3546   -4.2648   -0.6501 C   0  0  0  0  0  0  0  0  0  0  0  0
   -0.8635   -5.1422   -1.6114 C   0  0  0  0  0  0  0  0  0  0  0  0
   -1.8666   -4.7141   -2.4817 C   0  0  0  0  0  0  0  0  0  0  0  0
   -2.4821   -5.7952   -3.6696 Cl  0  0  0  0  0  0  0  0  0  0  0  0
   -2.3728   -3.4201   -2.3934 C   0  0  0  0  0  0  0  0  0  0  0  0
   -1.8638   -2.5555   -1.4193 C   0  0  0  0  0  0  0  0  0  0  0  0
   -2.3867   -1.1894   -1.2847 C   0  0  0  0  0  0  0  0  0  0  0  0
   -3.0152   -0.6815   -2.2091 O   0  0  0  0  0  0  0  0  0  0  0  0
   -2.0680   -0.4901    0.0306 C   0  0  0  0  0  0  0  0  0  0  0  0
   -2.4934    0.9697    0.0085 C   0  0  0  0  0  0  0  0  0  0  0  0
   -3.8370    0.8288    0.6411 C   0  0  0  0  0  0  0  0  0  0  0  0
   -4.8320    1.9276    0.6318 C   0  0  0  0  0  0  0  0  0  0  0  0
   -4.5381    3.1788    0.0778 C   0  0  0  0  0  0  0  0  0  0  0  0
   -5.4978    4.1950    0.0961 C   0  0  0  0  0  0  0  0  0  0  0  0
   -6.7492    3.9676    0.6673 C   0  0  0  0  0  0  0  0  0  0  0  0
   -7.0465    2.7241    1.2215 C   0  0  0  0  0  0  0  0  0  0  0  0
   -6.0909    1.7063    1.2048 C   0  0  0  0  0  0  0  0  0  0  0  0
   -4.0426   -0.3078    1.2273 N   0  0  0  0  0  0  0  0  0  0  0  0
   -2.8919   -1.1026    1.0378 O   0  0  0  0  0  0  0  0  0  0  0  0
    4.7949    3.1778    0.3248 H   0  0  0  0  0  0  0  0  0  0  0  0
    6.9828    2.7249   -0.8008 H   0  0  0  0  0  0  0  0  0  0  0  0
    4.3055   -1.0607    1.0750 H   0  0  0  0  0  0  0  0  0  0  0  0
    7.9077   -1.7453   -1.8235 H   0  0  0  0  0  0  0  0  0  0  0  0
    8.7351   -1.5637   -0.2564 H   0  0  0  0  0  0  0  0  0  0  0  0
    2.4645    0.3595   -0.9606 H   0  0  0  0  0  0  0  0  0  0  0  0
    2.1620   -1.0954    0.0050 H   0  0  0  0  0  0  0  0  0  0  0  0
    0.0649    0.9434   -0.8989 H   0  0  0  0  0  0  0  0  0  0  0  0
    0.3516   -0.6310   -1.6380 H   0  0  0  0  0  0  0  0  0  0  0  0
   -1.0949   -0.0086    2.3750 H   0  0  0  0  0  0  0  0  0  0  0  0
    0.2758   -1.0882    2.3480 H   0  0  0  0  0  0  0  0  0  0  0  0
    0.2692    1.8244    1.4151 H   0  0  0  0  0  0  0  0  0  0  0  0
    1.0136    1.1574    2.8647 H   0  0  0  0  0  0  0  0  0  0  0  0
    0.4304   -4.5982    0.0253 H   0  0  0  0  0  0  0  0  0  0  0  0
   -0.4733   -6.1555   -1.6766 H   0  0  0  0  0  0  0  0  0  0  0  0
   -3.1613   -3.0881   -3.0650 H   0  0  0  0  0  0  0  0  0  0  0  0
   -2.5381    1.4075   -0.9910 H   0  0  0  0  0  0  0  0  0  0  0  0
   -1.8873    1.6075    0.6570 H   0  0  0  0  0  0  0  0  0  0  0  0
   -3.5730    3.3914   -0.3715 H   0  0  0  0  0  0  0  0  0  0  0  0
   -5.2689    5.1669   -0.3352 H   0  0  0  0  0  0  0  0  0  0  0  0
   -7.4935    4.7602    0.6810 H   0  0  0  0  0  0  0  0  0  0  0  0
   -8.0214    2.5445    1.6680 H   0  0  0  0  0  0  0  0  0  0  0  0
   -6.3366    0.7404    1.6417 H   0  0  0  0  0  0  0  0  0  0  0  0
  1  2  2  0
  2  3  1  0
  3  4  2  0
  4  5  1  0
  5  6  2  0
  6  7  1  0
  7  8  2  0
  7  9  1  0
  9 10  1  0
 10 11  1  0
  2 12  1  0
 12 13  1  0
 13 14  1  0
 14 15  1  0
 15 16  1  0
 16 17  1  0
 15 18  1  0
 18 19  1  0
 19 20  2  0
 20 21  1  0
 21 22  2  0
 22 23  1  0
 22 24  1  0
 24 25  2  0
 25 26  1  0
 26 27  2  0
 26 28  1  0
 28 29  1  0
 29 30  1  0
 30 31  1  0
 31 32  2  0
 32 33  1  0
 33 34  2  0
 34 35  1  0
 35 36  2  0
 30 37  2  0
 37 38  1  0
  8  3  1  0
 17 12  1  0
 25 19  1  0
 38 28  1  0
 11  6  1  0
 28 15  1  0
 36 31  1  0
  4 39  1  0
  5 40  1  0
  8 41  1  0
 10 42  1  0
 10 43  1  0
 13 44  1  0
 13 45  1  0
 14 46  1  0
 14 47  1  0
 16 48  1  0
 16 49  1  0
 17 50  1  0
 17 51  1  0
 20 52  1  0
 21 53  1  0
 24 54  1  0
 29 55  1  0
 29 56  1  0
 32 57  1  0
 33 58  1  0
 34 59  1  0
 35 60  1  0
 36 61  1  0
M  END
$$$$
