
     RDKit          3D

 44 46  0  0  0  0  0  0  0  0999 V2000
   -4.9561    1.5940    1.6957 C   0  0  0  0  0  0  0  0  0  0  0  0
   -4.3328    0.4542    0.9439 C   0  0  0  0  0  0  0  0  0  0  0  0
   -3.8735    0.6406   -0.3672 C   0  0  0  0  0  0  0  0  0  0  0  0
   -3.2641   -0.4068   -1.0590 C   0  0  0  0  0  0  0  0  0  0  0  0
   -3.0898   -1.6396   -0.4255 C   0  0  0  0  0  0  0  0  0  0  0  0
   -2.3004   -2.9759   -1.2939 S   0  0  0  0  0  6  0  0  0  0  0  0
   -2.8001   -4.2152   -0.7351 O   0  0  0  0  0  0  0  0  0  0  0  0
   -2.3842   -2.7077   -2.7135 O   0  0  0  0  0  0  0  0  0  0  0  0
   -0.6886   -2.8553   -0.7912 N   0  0  0  0  0  0  0  0  0  0  0  0
   -0.0102   -1.6134   -0.9439 C   0  0  0  0  0  0  0  0  0  0  0  0
    0.2723   -1.1108   -2.2132 C   0  0  0  0  0  0  0  0  0  0  0  0
    0.8909    0.1374   -2.3608 C   0  0  0  0  0  0  0  0  0  0  0  0
    1.1880    0.6752   -3.7312 C   0  0  0  0  0  0  0  0  0  0  0  0
    1.2265    0.8673   -1.2113 C   0  0  0  0  0  0  0  0  0  0  0  0
    1.8354    2.0811   -1.4020 O   0  0  0  0  0  0  0  0  0  0  0  0
    0.9420    0.3724    0.0727 C   0  0  0  0  0  0  0  0  0  0  0  0
    1.2506    1.2908    1.5756 S   0  0  0  0  0  0  0  0  0  0  0  0
    2.9891    1.3430    1.6047 C   0  0  0  0  0  0  0  0  0  0  0  0
    3.6720    2.1052    0.7418 N   0  0  0  0  0  0  0  0  0  0  0  0
    4.9388    1.8518    1.1148 N   0  0  0  0  0  0  0  0  0  0  0  0
    4.9826    0.9750    2.1620 C   0  0  0  0  0  0  0  0  0  0  0  0
    6.2458    0.5190    2.7776 C   0  0  0  0  0  0  0  0  0  0  0  0
    3.7533    0.6411    2.4911 N   0  0  0  0  0  0  0  0  0  0  0  0
    0.3183   -0.8761    0.1940 C   0  0  0  0  0  0  0  0  0  0  0  0
   -3.5469   -1.8426    0.8791 C   0  0  0  0  0  0  0  0  0  0  0  0
   -4.1585   -0.7911    1.5635 C   0  0  0  0  0  0  0  0  0  0  0  0
   -5.4844    2.2690    1.0142 H   0  0  0  0  0  0  0  0  0  0  0  0
   -4.1830    2.1590    2.2255 H   0  0  0  0  0  0  0  0  0  0  0  0
   -5.6888    1.2282    2.4227 H   0  0  0  0  0  0  0  0  0  0  0  0
   -3.9897    1.6049   -0.8583 H   0  0  0  0  0  0  0  0  0  0  0  0
   -2.9189   -0.2494   -2.0786 H   0  0  0  0  0  0  0  0  0  0  0  0
   -0.5239   -3.3856    0.0629 H   0  0  0  0  0  0  0  0  0  0  0  0
    0.0109   -1.6932   -3.0949 H   0  0  0  0  0  0  0  0  0  0  0  0
    0.8542   -0.0137   -4.5143 H   0  0  0  0  0  0  0  0  0  0  0  0
    0.6706    1.6276   -3.8853 H   0  0  0  0  0  0  0  0  0  0  0  0
    2.2657    0.8222   -3.8552 H   0  0  0  0  0  0  0  0  0  0  0  0
    2.3224    2.3093   -0.5811 H   0  0  0  0  0  0  0  0  0  0  0  0
    5.7052    2.3001    0.6240 H   0  0  0  0  0  0  0  0  0  0  0  0
    6.0453   -0.1773    3.5976 H   0  0  0  0  0  0  0  0  0  0  0  0
    6.8712    0.0060    2.0407 H   0  0  0  0  0  0  0  0  0  0  0  0
    6.8070    1.3674    3.1810 H   0  0  0  0  0  0  0  0  0  0  0  0
    0.0716   -1.2623    1.1796 H   0  0  0  0  0  0  0  0  0  0  0  0
   -3.4322   -2.8075    1.3674 H   0  0  0  0  0  0  0  0  0  0  0  0
   -4.5039   -0.9484    2.5834 H   0  0  0  0  0  0  0  0  0  0  0  0
  1  2  1  0
  2  3  2  0
  3  4  1  0
  4  5  2  0
  5  6  1  0
  6  7  2  0
  6  8  2  0
  6  9  1  0
  9 10  1  0
 10 11  2  0
 11 12  1  0
 12 13  1  0
 12 14  2  0
 14 15  1  0
 14 16  1  0
 16 17  1  0
 17 18  1  0
 18 19  2  0
 19 20  1  0
 20 21  1  0
 21 22  1  0
 21 23  2  0
 16 24  2  0
  5 25  1  0
 25 26  2  0
 26  2  1  0
 24 10  1  0
 23 18  1  0
  1 27  1  0
  1 28  1  0
  1 29  1  0
  3 30  1  0
  4 31  1  0
  9 32  1  0
 11 33  1  0
 13 34  1  0
 13 35  1  0
 13 36  1  0
 15 37  1  0
 20 38  1  0
 22 39  1  0
 22 40  1  0
 22 41  1  0
 24 42  1  0
 25 43  1  0
 26 44  1  0
M  END
$$$$
