
     RDKit          3D

 48 49  0  0  0  0  0  0  0  0999 V2000
   -6.0609   -1.7803    0.4759 C   0  0  0  0  0  0  0  0  0  0  0  0
   -5.7155   -0.4674   -0.2149 C   0  0  0  0  0  0  0  0  0  0  0  0
   -4.2858   -0.1743   -0.1347 N   0  0  0  0  0  0  0  0  0  0  0  0
   -3.4310   -0.6977   -1.2051 C   0  0  0  0  0  0  0  0  0  0  0  0
   -3.4317    0.2050   -2.4289 C   0  0  0  0  0  0  0  0  0  0  0  0
   -3.8266    0.4969    1.0009 C   0  0  0  0  0  0  0  0  0  0  0  0
   -4.5484    0.8675    1.9246 O   0  0  0  0  0  0  0  0  0  0  0  0
   -2.3831    0.7597    1.1303 C   0  0  0  0  0  0  0  0  0  0  0  0
   -1.6160   -0.0645    1.9553 C   0  0  0  0  0  0  0  0  0  0  0  0
   -0.2475    0.1810    2.0892 C   0  0  0  0  0  0  0  0  0  0  0  0
    0.3561    1.2529    1.4137 C   0  0  0  0  0  0  0  0  0  0  0  0
    1.7406    1.4237    1.5956 N   0  0  0  0  0  0  0  0  0  0  0  0
    2.5657    2.3771    1.0211 C   0  0  0  0  0  0  0  0  0  0  0  0
    2.2342    3.2829    0.2614 O   0  0  0  0  0  0  0  0  0  0  0  0
    4.0252    2.2176    1.4617 C   0  0  0  0  0  0  0  0  0  0  0  0
    4.4357    0.8663    1.6339 O   0  0  0  0  0  0  0  0  0  0  0  0
    4.5859    0.0733    0.5240 C   0  0  0  0  0  0  0  0  0  0  0  0
    4.5803    0.5399   -0.7957 C   0  0  0  0  0  0  0  0  0  0  0  0
    4.7387   -0.3531   -1.8634 C   0  0  0  0  0  0  0  0  0  0  0  0
    4.9079   -1.7208   -1.6112 C   0  0  0  0  0  0  0  0  0  0  0  0
    5.0718   -2.6529   -2.7346 N   0  0  0  0  0  4  0  0  0  0  0  0
    5.1751   -3.8598   -2.4708 O   0  0  0  0  0  0  0  0  0  0  0  0
    5.0939   -2.1747   -3.8789 O   0  0  0  0  0  1  0  0  0  0  0  0
    4.9180   -2.2045   -0.3000 C   0  0  0  0  0  0  0  0  0  0  0  0
    4.7577   -1.3048    0.7579 C   0  0  0  0  0  0  0  0  0  0  0  0
    4.7484   -1.9422    2.3663 Cl  0  0  0  0  0  0  0  0  0  0  0  0
   -0.4316    2.0827    0.6086 C   0  0  0  0  0  0  0  0  0  0  0  0
   -1.8025    1.8419    0.4697 C   0  0  0  0  0  0  0  0  0  0  0  0
   -5.5249   -2.6183    0.0192 H   0  0  0  0  0  0  0  0  0  0  0  0
   -5.7920   -1.7503    1.5371 H   0  0  0  0  0  0  0  0  0  0  0  0
   -7.1349   -1.9789    0.4013 H   0  0  0  0  0  0  0  0  0  0  0  0
   -6.2802    0.3457    0.2583 H   0  0  0  0  0  0  0  0  0  0  0  0
   -6.0168   -0.5030   -1.2680 H   0  0  0  0  0  0  0  0  0  0  0  0
   -3.7908   -1.6963   -1.4751 H   0  0  0  0  0  0  0  0  0  0  0  0
   -2.4053   -0.8215   -0.8489 H   0  0  0  0  0  0  0  0  0  0  0  0
   -3.0655    1.2073   -2.1855 H   0  0  0  0  0  0  0  0  0  0  0  0
   -4.4374    0.3132   -2.8451 H   0  0  0  0  0  0  0  0  0  0  0  0
   -2.7869   -0.2123   -3.2087 H   0  0  0  0  0  0  0  0  0  0  0  0
   -2.0820   -0.8879    2.4908 H   0  0  0  0  0  0  0  0  0  0  0  0
    0.3358   -0.4734    2.7329 H   0  0  0  0  0  0  0  0  0  0  0  0
    2.2072    0.7445    2.1903 H   0  0  0  0  0  0  0  0  0  0  0  0
    4.6974    2.7581    0.7866 H   0  0  0  0  0  0  0  0  0  0  0  0
    4.1107    2.7043    2.4396 H   0  0  0  0  0  0  0  0  0  0  0  0
    4.4563    1.5915   -1.0387 H   0  0  0  0  0  0  0  0  0  0  0  0
    4.7280    0.0352   -2.8815 H   0  0  0  0  0  0  0  0  0  0  0  0
    5.0459   -3.2648   -0.0920 H   0  0  0  0  0  0  0  0  0  0  0  0
   -0.0106    2.9327    0.0793 H   0  0  0  0  0  0  0  0  0  0  0  0
   -2.4089    2.5031   -0.1441 H   0  0  0  0  0  0  0  0  0  0  0  0
  1  2  1  0
  2  3  1  0
  3  4  1  0
  4  5  1  0
  3  6  1  0
  6  7  2  0
  6  8  1  0
  8  9  2  0
  9 10  1  0
 10 11  2  0
 11 12  1  0
 12 13  1  0
 13 14  2  0
 13 15  1  0
 15 16  1  0
 16 17  1  0
 17 18  2  0
 18 19  1  0
 19 20  2  0
 20 21  1  0
 21 22  2  0
 21 23  1  0
 20 24  1  0
 24 25  2  0
 25 26  1  0
 11 27  1  0
 27 28  2  0
 28  8  1  0
 25 17  1  0
  1 29  1  0
  1 30  1  0
  1 31  1  0
  2 32  1  0
  2 33  1  0
  4 34  1  0
  4 35  1  0
  5 36  1  0
  5 37  1  0
  5 38  1  0
  9 39  1  0
 10 40  1  0
 12 41  1  0
 15 42  1  0
 15 43  1  0
 18 44  1  0
 19 45  1  0
 24 46  1  0
 27 47  1  0
 28 48  1  0
M  CHG  2  21   1  23  -1
M  END
$$$$
