
     RDKit          3D

 57 62  0  0  0  0  0  0  0  0999 V2000
    6.9151   -2.7635    2.1762 C   0  0  0  0  0  0  0  0  0  0  0  0
    5.8851   -2.2186    1.2477 C   0  0  0  0  0  0  0  0  0  0  0  0
    4.9362   -2.9042    0.5193 C   0  0  0  0  0  0  0  0  0  0  0  0
    4.1287   -2.0322   -0.2681 C   0  0  0  0  0  0  0  0  0  0  0  0
    4.4700   -0.7026   -0.1016 C   0  0  0  0  0  0  0  0  0  0  0  0
    3.9045    0.4878   -0.7218 C   0  0  0  0  0  0  0  0  0  0  0  0
    4.6117    1.3843   -1.1858 O   0  0  0  0  0  0  0  0  0  0  0  0
    2.5064    0.5854   -0.7993 N   0  0  0  0  0  0  0  0  0  0  0  0
    1.9401    1.6905   -1.5627 C   0  0  0  0  0  0  0  0  0  0  0  0
    0.5142    1.3787   -2.0027 C   0  0  0  0  0  0  0  0  0  0  0  0
   -0.4469    1.1660   -0.7894 C   0  0  0  0  0  0  0  0  0  0  0  0
    0.3752    0.6547    0.4300 C   0  0  0  0  0  0  0  0  0  0  0  0
    1.5833   -0.1862    0.0321 C   0  0  0  0  0  0  0  0  0  0  0  0
   -0.9630    2.4538   -0.3537 O   0  0  0  0  0  0  0  0  0  0  0  0
   -1.9119    3.0280   -1.1535 C   0  0  0  0  0  0  0  0  0  0  0  0
   -2.1404    4.3892   -0.9567 C   0  0  0  0  0  0  0  0  0  0  0  0
   -3.0732    5.0621   -1.7495 C   0  0  0  0  0  0  0  0  0  0  0  0
   -3.7785    4.3696   -2.7345 C   0  0  0  0  0  0  0  0  0  0  0  0
   -4.9246    5.2043   -3.7071 Cl  0  0  0  0  0  0  0  0  0  0  0  0
   -3.5674    3.0069   -2.9291 C   0  0  0  0  0  0  0  0  0  0  0  0
   -2.6377    2.3396   -2.1258 C   0  0  0  0  0  0  0  0  0  0  0  0
   -2.4251    0.8872   -2.2751 C   0  0  0  0  0  0  0  0  0  0  0  0
   -2.9186    0.2940   -3.2275 O   0  0  0  0  0  0  0  0  0  0  0  0
   -1.6339    0.2246   -1.1521 C   0  0  0  0  0  0  0  0  0  0  0  0
   -2.6198   -0.0848   -0.0280 C   0  0  0  0  0  0  0  0  0  0  0  0
   -2.2229   -1.4890    0.2668 C   0  0  0  0  0  0  0  0  0  0  0  0
   -2.7389   -2.2182    1.4402 C   0  0  0  0  0  0  0  0  0  0  0  0
   -3.6692   -1.6640    2.3206 C   0  0  0  0  0  0  0  0  0  0  0  0
   -4.1058   -2.4125    3.4134 C   0  0  0  0  0  0  0  0  0  0  0  0
   -3.5957   -3.6891    3.5874 C   0  0  0  0  0  0  0  0  0  0  0  0
   -2.6967   -4.2539    2.7543 N   0  0  0  0  0  0  0  0  0  0  0  0
   -2.2916   -3.5097    1.6956 C   0  0  0  0  0  0  0  0  0  0  0  0
   -1.3908   -2.0074   -0.5762 N   0  0  0  0  0  0  0  0  0  0  0  0
   -1.1488   -1.0492   -1.5850 O   0  0  0  0  0  0  0  0  0  0  0  0
    5.7968   -0.5331    0.9682 S   0  0  0  0  0  0  0  0  0  0  0  0
    7.9231   -2.5185    1.8258 H   0  0  0  0  0  0  0  0  0  0  0  0
    6.8405   -3.8539    2.2456 H   0  0  0  0  0  0  0  0  0  0  0  0
    6.7849   -2.3549    3.1838 H   0  0  0  0  0  0  0  0  0  0  0  0
    4.8312   -3.9828    0.5381 H   0  0  0  0  0  0  0  0  0  0  0  0
    3.3415   -2.3687   -0.9321 H   0  0  0  0  0  0  0  0  0  0  0  0
    1.9722    2.5893   -0.9358 H   0  0  0  0  0  0  0  0  0  0  0  0
    2.5646    1.8817   -2.4426 H   0  0  0  0  0  0  0  0  0  0  0  0
    0.5464    0.4757   -2.6254 H   0  0  0  0  0  0  0  0  0  0  0  0
    0.1730    2.1969   -2.6461 H   0  0  0  0  0  0  0  0  0  0  0  0
    0.7358    1.5176    1.0091 H   0  0  0  0  0  0  0  0  0  0  0  0
   -0.2443    0.0960    1.1364 H   0  0  0  0  0  0  0  0  0  0  0  0
    2.0900   -0.5259    0.9404 H   0  0  0  0  0  0  0  0  0  0  0  0
    1.2810   -1.0680   -0.5397 H   0  0  0  0  0  0  0  0  0  0  0  0
   -1.5826    4.9334   -0.1975 H   0  0  0  0  0  0  0  0  0  0  0  0
   -3.2412    6.1262   -1.5979 H   0  0  0  0  0  0  0  0  0  0  0  0
   -4.1244    2.4665   -3.6917 H   0  0  0  0  0  0  0  0  0  0  0  0
   -3.6657   -0.0789   -0.3542 H   0  0  0  0  0  0  0  0  0  0  0  0
   -2.5105    0.5695    0.8403 H   0  0  0  0  0  0  0  0  0  0  0  0
   -4.0702   -0.6656    2.1781 H   0  0  0  0  0  0  0  0  0  0  0  0
   -4.8305   -2.0109    4.1139 H   0  0  0  0  0  0  0  0  0  0  0  0
   -3.9058   -4.3094    4.4240 H   0  0  0  0  0  0  0  0  0  0  0  0
   -1.5748   -4.0042    1.0440 H   0  0  0  0  0  0  0  0  0  0  0  0
  1  2  1  0
  2  3  2  0
  3  4  1  0
  4  5  2  0
  5  6  1  0
  6  7  2  0
  6  8  1  0
  8  9  1  0
  9 10  1  0
 10 11  1  0
 11 12  1  0
 12 13  1  0
 11 14  1  0
 14 15  1  0
 15 16  2  0
 16 17  1  0
 17 18  2  0
 18 19  1  0
 18 20  1  0
 20 21  2  0
 21 22  1  0
 22 23  2  0
 22 24  1  0
 24 25  1  0
 25 26  1  0
 26 27  1  0
 27 28  2  0
 28 29  1  0
 29 30  2  0
 30 31  1  0
 31 32  2  0
 26 33  2  0
 33 34  1  0
  5 35  1  0
 35  2  1  0
 13  8  1  0
 21 15  1  0
 34 24  1  0
 24 11  1  0
 32 27  1  0
  1 36  1  0
  1 37  1  0
  1 38  1  0
  3 39  1  0
  4 40  1  0
  9 41  1  0
  9 42  1  0
 10 43  1  0
 10 44  1  0
 12 45  1  0
 12 46  1  0
 13 47  1  0
 13 48  1  0
 16 49  1  0
 17 50  1  0
 20 51  1  0
 25 52  1  0
 25 53  1  0
 28 54  1  0
 29 55  1  0
 30 56  1  0
 32 57  1  0
M  END
$$$$
