
     RDKit          3D

 65 69  0  0  0  0  0  0  0  0999 V2000
   -2.8833   -3.8540    2.2728 C   0  0  0  0  0  0  0  0  0  0  0  0
   -3.5176   -4.4861    1.1671 O   0  0  0  0  0  0  0  0  0  0  0  0
   -3.8814   -3.6782    0.1242 C   0  0  0  0  0  0  0  0  0  0  0  0
   -4.3481   -4.3547   -1.0041 C   0  0  0  0  0  0  0  0  0  0  0  0
   -4.7436   -3.6508   -2.1402 C   0  0  0  0  0  0  0  0  0  0  0  0
   -4.6752   -2.2580   -2.1528 C   0  0  0  0  0  0  0  0  0  0  0  0
   -4.2204   -1.5585   -1.0261 C   0  0  0  0  0  0  0  0  0  0  0  0
   -4.1350   -0.0885   -1.0329 C   0  0  0  0  0  0  0  0  0  0  0  0
   -5.5599    0.8095   -1.3482 S   0  0  0  0  0  0  0  0  0  0  0  0
   -4.7647    2.3184   -1.1673 C   0  0  0  0  0  0  0  0  0  0  0  0
   -5.3408    3.5973   -1.2935 C   0  0  0  0  0  0  0  0  0  0  0  0
   -4.5390    4.7304   -1.1154 C   0  0  0  0  0  0  0  0  0  0  0  0
   -3.1889    4.6017   -0.8209 C   0  0  0  0  0  0  0  0  0  0  0  0
   -2.3051    5.6281   -0.6280 O   0  0  0  0  0  0  0  0  0  0  0  0
   -2.8106    6.9500   -0.7662 C   0  0  0  0  0  0  0  0  0  0  0  0
   -2.6297    3.3242   -0.6975 C   0  0  0  0  0  0  0  0  0  0  0  0
   -3.4139    2.1519   -0.8650 C   0  0  0  0  0  0  0  0  0  0  0  0
   -3.0574    0.7507   -0.7816 C   0  0  0  0  0  0  0  0  0  0  0  0
   -1.7286    0.2328   -0.4643 C   0  0  0  0  0  0  0  0  0  0  0  0
   -1.1771    0.4587    0.8006 C   0  0  0  0  0  0  0  0  0  0  0  0
    0.0906   -0.0390    1.1096 C   0  0  0  0  0  0  0  0  0  0  0  0
    0.8229   -0.7611    0.1638 C   0  0  0  0  0  0  0  0  0  0  0  0
    2.0466   -1.1877    0.5984 O   0  0  0  0  0  0  0  0  0  0  0  0
    2.8738   -1.8723   -0.3472 C   0  0  0  0  0  0  0  0  0  0  0  0
    4.2261   -2.2109    0.3092 C   0  0  0  0  0  0  0  0  0  0  0  0
    5.2640   -1.1680    0.1683 N   0  0  0  0  0  0  0  0  0  0  0  0
    4.9185    0.0917    0.8299 C   0  0  0  0  0  0  0  0  0  0  0  0
    5.9144    1.1916    0.4363 C   0  0  0  0  0  0  0  0  0  0  0  0
    7.3528    0.6917    0.2976 C   0  0  0  0  0  0  0  0  0  0  0  0
    7.5559   -0.5974    1.0761 C   0  0  0  0  0  0  0  0  0  0  0  0
    6.5669   -1.6825    0.6302 C   0  0  0  0  0  0  0  0  0  0  0  0
    0.2741   -0.9855   -1.0990 C   0  0  0  0  0  0  0  0  0  0  0  0
   -0.9959   -0.4876   -1.4135 C   0  0  0  0  0  0  0  0  0  0  0  0
   -3.8291   -2.2827    0.1128 C   0  0  0  0  0  0  0  0  0  0  0  0
   -3.5755   -3.1792    2.7878 H   0  0  0  0  0  0  0  0  0  0  0  0
   -1.9736   -3.3285    1.9620 H   0  0  0  0  0  0  0  0  0  0  0  0
   -2.5918   -4.6353    2.9822 H   0  0  0  0  0  0  0  0  0  0  0  0
   -4.3997   -5.4408   -0.9974 H   0  0  0  0  0  0  0  0  0  0  0  0
   -5.1028   -4.1875   -3.0135 H   0  0  0  0  0  0  0  0  0  0  0  0
   -4.9765   -1.7233   -3.0505 H   0  0  0  0  0  0  0  0  0  0  0  0
   -6.3968    3.7056   -1.5267 H   0  0  0  0  0  0  0  0  0  0  0  0
   -5.0115    5.7019   -1.2177 H   0  0  0  0  0  0  0  0  0  0  0  0
   -1.9818    7.6444   -0.5974 H   0  0  0  0  0  0  0  0  0  0  0  0
   -3.5788    7.1590   -0.0142 H   0  0  0  0  0  0  0  0  0  0  0  0
   -3.1894    7.1245   -1.7786 H   0  0  0  0  0  0  0  0  0  0  0  0
   -1.5691    3.2333   -0.4719 H   0  0  0  0  0  0  0  0  0  0  0  0
   -1.7281    1.0180    1.5528 H   0  0  0  0  0  0  0  0  0  0  0  0
    0.5133    0.1410    2.0949 H   0  0  0  0  0  0  0  0  0  0  0  0
    3.0327   -1.2658   -1.2477 H   0  0  0  0  0  0  0  0  0  0  0  0
    2.3842   -2.8140   -0.6259 H   0  0  0  0  0  0  0  0  0  0  0  0
    4.0752   -2.4583    1.3680 H   0  0  0  0  0  0  0  0  0  0  0  0
    4.6010   -3.1118   -0.1941 H   0  0  0  0  0  0  0  0  0  0  0  0
    4.9003   -0.0350    1.9203 H   0  0  0  0  0  0  0  0  0  0  0  0
    3.9270    0.4479    0.5346 H   0  0  0  0  0  0  0  0  0  0  0  0
    5.8722    1.9867    1.1901 H   0  0  0  0  0  0  0  0  0  0  0  0
    5.6122    1.6485   -0.5137 H   0  0  0  0  0  0  0  0  0  0  0  0
    7.5733    0.5110   -0.7621 H   0  0  0  0  0  0  0  0  0  0  0  0
    8.0534    1.4633    0.6357 H   0  0  0  0  0  0  0  0  0  0  0  0
    7.4197   -0.3952    2.1463 H   0  0  0  0  0  0  0  0  0  0  0  0
    8.5831   -0.9580    0.9495 H   0  0  0  0  0  0  0  0  0  0  0  0
    6.4470   -2.3810    1.4684 H   0  0  0  0  0  0  0  0  0  0  0  0
    7.0124   -2.2515   -0.1946 H   0  0  0  0  0  0  0  0  0  0  0  0
    0.8041   -1.5435   -1.8634 H   0  0  0  0  0  0  0  0  0  0  0  0
   -1.4073   -0.6693   -2.4039 H   0  0  0  0  0  0  0  0  0  0  0  0
   -3.4897   -1.7324    0.9840 H   0  0  0  0  0  0  0  0  0  0  0  0
  1  2  1  0
  2  3  1  0
  3  4  2  0
  4  5  1  0
  5  6  2  0
  6  7  1  0
  7  8  1  0
  8  9  1  0
  9 10  1  0
 10 11  2  0
 11 12  1  0
 12 13  2  0
 13 14  1  0
 14 15  1  0
 13 16  1  0
 16 17  2  0
 17 18  1  0
 18 19  1  0
 19 20  2  0
 20 21  1  0
 21 22  2  0
 22 23  1  0
 23 24  1  0
 24 25  1  0
 25 26  1  0
 26 27  1  0
 27 28  1  0
 28 29  1  0
 29 30  1  0
 30 31  1  0
 22 32  1  0
 32 33  2  0
  7 34  2  0
 34  3  1  0
 18  8  2  0
 33 19  1  0
 17 10  1  0
 31 26  1  0
  1 35  1  0
  1 36  1  0
  1 37  1  0
  4 38  1  0
  5 39  1  0
  6 40  1  0
 11 41  1  0
 12 42  1  0
 15 43  1  0
 15 44  1  0
 15 45  1  0
 16 46  1  0
 20 47  1  0
 21 48  1  0
 24 49  1  0
 24 50  1  0
 25 51  1  0
 25 52  1  0
 27 53  1  0
 27 54  1  0
 28 55  1  0
 28 56  1  0
 29 57  1  0
 29 58  1  0
 30 59  1  0
 30 60  1  0
 31 61  1  0
 31 62  1  0
 32 63  1  0
 33 64  1  0
 34 65  1  0
M  END
$$$$
