
     RDKit          3D

 47 49  0  0  0  0  0  0  0  0999 V2000
    8.4206    0.5238    0.9150 C   0  0  0  0  0  0  0  0  0  0  0  0
    7.5188   -0.4151    0.1283 C   0  0  0  0  0  0  0  0  0  0  0  0
    6.0617   -0.0665    0.2974 C   0  0  0  0  0  0  0  0  0  0  0  0
    5.3147   -0.6239    1.3431 C   0  0  0  0  0  0  0  0  0  0  0  0
    3.9705   -0.2831    1.5110 C   0  0  0  0  0  0  0  0  0  0  0  0
    3.3531    0.6115    0.6350 C   0  0  0  0  0  0  0  0  0  0  0  0
    2.0020    0.9405    0.7970 N   0  0  0  0  0  0  0  0  0  0  0  0
    1.1130    0.2370    0.1852 C   0  0  0  0  0  0  0  0  0  0  0  0
    1.3188   -0.8281   -0.6336 N   0  0  0  0  0  0  0  0  0  0  0  0
    0.2214   -1.4275   -1.1782 C   0  0  0  0  0  0  0  0  0  0  0  0
    0.2527   -2.3951   -1.9218 O   0  0  0  0  0  0  0  0  0  0  0  0
   -1.0123   -0.7273   -0.7273 C   0  0  0  0  0  0  0  0  0  0  0  0
   -2.2304   -1.1283   -1.1147 C   0  0  0  0  0  0  0  0  0  0  0  0
   -3.5103   -0.5250   -0.7212 C   0  0  0  0  0  0  0  0  0  0  0  0
   -4.4405   -1.3077   -0.0217 C   0  0  0  0  0  0  0  0  0  0  0  0
   -5.6732   -0.7690    0.3428 C   0  0  0  0  0  0  0  0  0  0  0  0
   -6.6679   -1.4209    1.0286 O   0  0  0  0  0  0  0  0  0  0  0  0
   -6.4037   -2.7634    1.4193 C   0  0  0  0  0  0  0  0  0  0  0  0
   -5.9666    0.5577   -0.0055 C   0  0  0  0  0  0  0  0  0  0  0  0
   -7.1858    1.0799    0.3579 O   0  0  0  0  0  0  0  0  0  0  0  0
   -5.0547    1.3547   -0.7070 C   0  0  0  0  0  0  0  0  0  0  0  0
   -5.4563    2.6316   -0.9956 O   0  0  0  0  0  0  0  0  0  0  0  0
   -4.4911    3.5094   -1.5566 C   0  0  0  0  0  0  0  0  0  0  0  0
   -3.8264    0.7977   -1.0706 C   0  0  0  0  0  0  0  0  0  0  0  0
   -0.5939    0.5720    0.3272 S   0  0  0  0  0  0  0  0  0  0  0  0
    4.1020    1.1895   -0.3917 C   0  0  0  0  0  0  0  0  0  0  0  0
    5.4464    0.8513   -0.5634 C   0  0  0  0  0  0  0  0  0  0  0  0
    8.2962    1.5615    0.5873 H   0  0  0  0  0  0  0  0  0  0  0  0
    8.1999    0.4813    1.9870 H   0  0  0  0  0  0  0  0  0  0  0  0
    9.4701    0.2471    0.7736 H   0  0  0  0  0  0  0  0  0  0  0  0
    7.7849   -0.3804   -0.9352 H   0  0  0  0  0  0  0  0  0  0  0  0
    7.6899   -1.4497    0.4499 H   0  0  0  0  0  0  0  0  0  0  0  0
    5.7778   -1.3193    2.0399 H   0  0  0  0  0  0  0  0  0  0  0  0
    3.4038   -0.7111    2.3337 H   0  0  0  0  0  0  0  0  0  0  0  0
    2.2407   -1.1795   -0.8377 H   0  0  0  0  0  0  0  0  0  0  0  0
   -2.3229   -1.9949   -1.7689 H   0  0  0  0  0  0  0  0  0  0  0  0
   -4.1776   -2.3305    0.2283 H   0  0  0  0  0  0  0  0  0  0  0  0
   -5.5479   -2.8151    2.1005 H   0  0  0  0  0  0  0  0  0  0  0  0
   -7.2812   -3.1328    1.9586 H   0  0  0  0  0  0  0  0  0  0  0  0
   -6.2548   -3.4060    0.5454 H   0  0  0  0  0  0  0  0  0  0  0  0
   -7.6431    0.3590    0.8293 H   0  0  0  0  0  0  0  0  0  0  0  0
   -3.6134    3.6034   -0.9083 H   0  0  0  0  0  0  0  0  0  0  0  0
   -4.2065    3.1873   -2.5635 H   0  0  0  0  0  0  0  0  0  0  0  0
   -4.9487    4.4997   -1.6420 H   0  0  0  0  0  0  0  0  0  0  0  0
   -3.1009    1.3746   -1.6349 H   0  0  0  0  0  0  0  0  0  0  0  0
    3.6381    1.9129   -1.0570 H   0  0  0  0  0  0  0  0  0  0  0  0
    6.0131    1.3168   -1.3670 H   0  0  0  0  0  0  0  0  0  0  0  0
  1  2  1  0
  2  3  1  0
  3  4  2  0
  4  5  1  0
  5  6  2  0
  6  7  1  0
  7  8  2  3
  8  9  1  0
  9 10  1  0
 10 11  2  0
 10 12  1  0
 12 13  2  3
 13 14  1  0
 14 15  2  0
 15 16  1  0
 16 17  1  0
 17 18  1  0
 16 19  2  0
 19 20  1  0
 19 21  1  0
 21 22  1  0
 22 23  1  0
 21 24  2  0
 12 25  1  0
  6 26  1  0
 26 27  2  0
 27  3  1  0
 25  8  1  0
 24 14  1  0
  1 28  1  0
  1 29  1  0
  1 30  1  0
  2 31  1  0
  2 32  1  0
  4 33  1  0
  5 34  1  0
  9 35  1  0
 13 36  1  0
 15 37  1  0
 18 38  1  0
 18 39  1  0
 18 40  1  0
 20 41  1  0
 23 42  1  0
 23 43  1  0
 23 44  1  0
 24 45  1  0
 26 46  1  0
 27 47  1  0
M  END
$$$$
