
     RDKit          3D

 33 35  0  0  0  0  0  0  0  0999 V2000
   -1.5240    2.1342    2.5143 C   0  0  0  0  0  0  0  0  0  0  0  0
   -2.6193    2.2558    1.6053 O   0  0  0  0  0  0  0  0  0  0  0  0
   -2.5852    1.4004    0.5073 C   0  0  0  0  0  0  0  0  0  0  0  0
   -3.7857    1.3626   -0.2136 C   0  0  0  0  0  0  0  0  0  0  0  0
   -3.9277    0.5490   -1.3363 C   0  0  0  0  0  0  0  0  0  0  0  0
   -2.8754   -0.2579   -1.7841 C   0  0  0  0  0  0  0  0  0  0  0  0
   -2.9316   -1.0942   -2.8665 O   0  0  0  0  0  0  0  0  0  0  0  0
   -4.1863   -1.2342   -3.5205 C   0  0  0  0  0  0  0  0  0  0  0  0
   -1.6581   -0.1896   -1.0698 C   0  0  0  0  0  0  0  0  0  0  0  0
   -0.1746   -1.0312   -1.3829 S   0  0  0  0  0  0  0  0  0  0  0  0
    0.5425   -0.2536   -0.0549 C   0  0  0  0  0  0  0  0  0  0  0  0
    1.8545   -0.5832    0.1433 N   0  0  0  0  0  0  0  0  0  0  0  0
    2.6016   -0.0705    1.1871 C   0  0  0  0  0  0  0  0  0  0  0  0
    2.1521    0.6827    2.0470 O   0  0  0  0  0  0  0  0  0  0  0  0
    4.0002   -0.5131    1.1872 C   0  0  0  0  0  0  0  0  0  0  0  0
    4.7353   -1.2077    0.2377 C   0  0  0  0  0  0  0  0  0  0  0  0
    6.0896   -1.4312    0.6422 C   0  0  0  0  0  0  0  0  0  0  0  0
    6.3310   -0.8984    1.8817 C   0  0  0  0  0  0  0  0  0  0  0  0
    8.0259   -0.9979    2.7609 Br  0  0  0  0  0  0  0  0  0  0  0  0
    4.9826   -0.1366    2.5557 S   0  0  0  0  0  0  0  0  0  0  0  0
   -0.2114    0.5680    0.6156 N   0  0  0  0  0  0  0  0  0  0  0  0
   -1.4848    0.6225    0.0592 C   0  0  0  0  0  0  0  0  0  0  0  0
   -0.6117    2.5692    2.0898 H   0  0  0  0  0  0  0  0  0  0  0  0
   -1.7713    2.7148    3.4105 H   0  0  0  0  0  0  0  0  0  0  0  0
   -1.3783    1.0956    2.8341 H   0  0  0  0  0  0  0  0  0  0  0  0
   -4.6205    1.9801    0.1142 H   0  0  0  0  0  0  0  0  0  0  0  0
   -4.8861    0.5665   -1.8473 H   0  0  0  0  0  0  0  0  0  0  0  0
   -4.0704   -1.9816   -4.3116 H   0  0  0  0  0  0  0  0  0  0  0  0
   -4.4887   -0.2964   -3.9930 H   0  0  0  0  0  0  0  0  0  0  0  0
   -4.9562   -1.5942   -2.8315 H   0  0  0  0  0  0  0  0  0  0  0  0
    2.2476   -1.2375   -0.5113 H   0  0  0  0  0  0  0  0  0  0  0  0
    4.3510   -1.5418   -0.7178 H   0  0  0  0  0  0  0  0  0  0  0  0
    6.8334   -1.9506    0.0480 H   0  0  0  0  0  0  0  0  0  0  0  0
  1  2  1  0
  2  3  1  0
  3  4  2  0
  4  5  1  0
  5  6  2  0
  6  7  1  0
  7  8  1  0
  6  9  1  0
  9 10  1  0
 10 11  1  0
 11 12  1  0
 12 13  1  0
 13 14  2  0
 13 15  1  0
 15 16  2  0
 16 17  1  0
 17 18  2  0
 18 19  1  0
 18 20  1  0
 11 21  2  0
 21 22  1  0
 22  3  1  0
 22  9  2  0
 20 15  1  0
  1 23  1  0
  1 24  1  0
  1 25  1  0
  4 26  1  0
  5 27  1  0
  8 28  1  0
  8 29  1  0
  8 30  1  0
 12 31  1  0
 16 32  1  0
 17 33  1  0
M  END
$$$$
