
     RDKit          3D

 57 59  0  0  0  0  0  0  0  0999 V2000
    6.9570   -3.5796   -3.4281 C   0  0  0  0  0  0  0  0  0  0  0  0
    6.7485   -2.2937   -2.8587 O   0  0  0  0  0  0  0  0  0  0  0  0
    6.3537   -2.2538   -1.5499 C   0  0  0  0  0  0  0  0  0  0  0  0
    6.1336   -3.3561   -0.7242 C   0  0  0  0  0  0  0  0  0  0  0  0
    5.7280   -3.1728    0.6032 C   0  0  0  0  0  0  0  0  0  0  0  0
    5.5448   -1.8851    1.1242 C   0  0  0  0  0  0  0  0  0  0  0  0
    5.0837   -1.6854    2.5441 C   0  0  0  0  0  0  0  0  0  0  0  0
    3.6526   -1.5461    2.6035 N   0  0  0  0  0  0  0  0  0  0  0  0
    3.0338   -0.3194    2.6320 C   0  0  0  0  0  0  0  0  0  0  0  0
    3.5786    0.7686    2.7576 O   0  0  0  0  0  0  0  0  0  0  0  0
    1.4989   -0.4012    2.4697 C   0  0  0  0  0  0  0  0  0  0  0  0
    0.9586   -1.4842    2.2912 O   0  0  0  0  0  0  0  0  0  0  0  0
    0.8738    0.8240    2.5465 N   0  0  0  0  0  0  0  0  0  0  0  0
   -0.5213    0.9917    2.1750 C   0  0  0  0  0  0  0  0  0  0  0  0
   -0.7195    1.2953    0.6652 C   0  0  0  0  0  0  0  0  0  0  0  0
   -0.0627    0.2713   -0.1128 O   0  0  0  0  0  0  0  0  0  0  0  0
   -1.0607   -0.4462   -0.8470 C   0  0  0  0  0  0  0  0  0  0  0  0
   -2.3901   -0.0696   -0.2300 C   0  0  0  0  0  0  0  0  0  0  0  0
   -2.1220    1.3013    0.2081 N   0  0  0  0  0  0  0  0  0  0  0  0
   -3.2477    2.0876    1.1656 S   0  0  0  0  0  6  0  0  0  0  0  0
   -2.7420    3.4144    1.4411 O   0  0  0  0  0  0  0  0  0  0  0  0
   -3.6163    1.1899    2.2390 O   0  0  0  0  0  0  0  0  0  0  0  0
   -4.6320    2.2531    0.0699 C   0  0  0  0  0  0  0  0  0  0  0  0
   -4.5322    3.1160   -1.0227 C   0  0  0  0  0  0  0  0  0  0  0  0
   -5.6177    3.2475   -1.8898 C   0  0  0  0  0  0  0  0  0  0  0  0
   -6.7995    2.5314   -1.6692 C   0  0  0  0  0  0  0  0  0  0  0  0
   -7.7799    2.7542   -2.5961 O   0  0  0  0  0  0  0  0  0  0  0  0
   -9.0180    2.0828   -2.4000 C   0  0  0  0  0  0  0  0  0  0  0  0
   -6.8908    1.6774   -0.5669 C   0  0  0  0  0  0  0  0  0  0  0  0
   -5.8077    1.5376    0.3074 C   0  0  0  0  0  0  0  0  0  0  0  0
    5.7582   -0.7832    0.2874 C   0  0  0  0  0  0  0  0  0  0  0  0
    6.1622   -0.9695   -1.0366 C   0  0  0  0  0  0  0  0  0  0  0  0
    7.7623   -4.1136   -2.9129 H   0  0  0  0  0  0  0  0  0  0  0  0
    6.0318   -4.1652   -3.4306 H   0  0  0  0  0  0  0  0  0  0  0  0
    7.2639   -3.4388   -4.4688 H   0  0  0  0  0  0  0  0  0  0  0  0
    6.2652   -4.3720   -1.0806 H   0  0  0  0  0  0  0  0  0  0  0  0
    5.5558   -4.0468    1.2276 H   0  0  0  0  0  0  0  0  0  0  0  0
    5.5733   -0.8084    2.9828 H   0  0  0  0  0  0  0  0  0  0  0  0
    5.3553   -2.5508    3.1587 H   0  0  0  0  0  0  0  0  0  0  0  0
    3.0612   -2.3354    2.3600 H   0  0  0  0  0  0  0  0  0  0  0  0
    1.4879    1.6328    2.6032 H   0  0  0  0  0  0  0  0  0  0  0  0
   -1.0537    0.0735    2.4475 H   0  0  0  0  0  0  0  0  0  0  0  0
   -0.9086    1.8086    2.7909 H   0  0  0  0  0  0  0  0  0  0  0  0
   -0.2409    2.2461    0.4070 H   0  0  0  0  0  0  0  0  0  0  0  0
   -0.8609   -1.5203   -0.8028 H   0  0  0  0  0  0  0  0  0  0  0  0
   -1.0022   -0.1205   -1.8913 H   0  0  0  0  0  0  0  0  0  0  0  0
   -2.6090   -0.7168    0.6258 H   0  0  0  0  0  0  0  0  0  0  0  0
   -3.2015   -0.1345   -0.9582 H   0  0  0  0  0  0  0  0  0  0  0  0
   -3.6217    3.6832   -1.2021 H   0  0  0  0  0  0  0  0  0  0  0  0
   -5.5468    3.9172   -2.7442 H   0  0  0  0  0  0  0  0  0  0  0  0
   -8.8897    0.9968   -2.4545 H   0  0  0  0  0  0  0  0  0  0  0  0
   -9.6912    2.3796   -3.2099 H   0  0  0  0  0  0  0  0  0  0  0  0
   -9.4830    2.3798   -1.4544 H   0  0  0  0  0  0  0  0  0  0  0  0
   -7.7913    1.1088   -0.3581 H   0  0  0  0  0  0  0  0  0  0  0  0
   -5.8936    0.8747    1.1658 H   0  0  0  0  0  0  0  0  0  0  0  0
    5.6061    0.2280    0.6612 H   0  0  0  0  0  0  0  0  0  0  0  0
    6.3253   -0.1043   -1.6748 H   0  0  0  0  0  0  0  0  0  0  0  0
  1  2  1  0
  2  3  1  0
  3  4  2  0
  4  5  1  0
  5  6  2  0
  6  7  1  0
  7  8  1  0
  8  9  1  0
  9 10  2  0
  9 11  1  0
 11 12  2  0
 11 13  1  0
 13 14  1  0
 14 15  1  0
 15 16  1  0
 16 17  1  0
 17 18  1  0
 18 19  1  0
 19 20  1  0
 20 21  2  0
 20 22  2  0
 20 23  1  0
 23 24  2  0
 24 25  1  0
 25 26  2  0
 26 27  1  0
 27 28  1  0
 26 29  1  0
 29 30  2  0
  6 31  1  0
 31 32  2  0
 32  3  1  0
 19 15  1  0
 30 23  1  0
  1 33  1  0
  1 34  1  0
  1 35  1  0
  4 36  1  0
  5 37  1  0
  7 38  1  0
  7 39  1  0
  8 40  1  0
 13 41  1  0
 14 42  1  0
 14 43  1  0
 15 44  1  0
 17 45  1  0
 17 46  1  0
 18 47  1  0
 18 48  1  0
 24 49  1  0
 25 50  1  0
 28 51  1  0
 28 52  1  0
 28 53  1  0
 29 54  1  0
 30 55  1  0
 31 56  1  0
 32 57  1  0
M  END
$$$$
