
     RDKit          3D

 37 39  0  0  0  0  0  0  0  0999 V2000
    5.6780    2.6379   -2.9897 C   0  0  0  0  0  0  0  0  0  0  0  0
    4.2590    2.6474   -3.0836 O   0  0  0  0  0  0  0  0  0  0  0  0
    3.5675    1.9527   -2.1270 C   0  0  0  0  0  0  0  0  0  0  0  0
    2.1818    2.0029   -2.2726 C   0  0  0  0  0  0  0  0  0  0  0  0
    1.3304    1.3429   -1.3769 C   0  0  0  0  0  0  0  0  0  0  0  0
    1.8796    0.6038   -0.3086 C   0  0  0  0  0  0  0  0  0  0  0  0
    1.3484   -0.1753    0.7676 C   0  0  0  0  0  0  0  0  0  0  0  0
   -0.0073   -0.4858    1.0938 C   0  0  0  0  0  0  0  0  0  0  0  0
   -0.9906   -0.6914    0.2014 C   0  0  0  0  0  0  0  0  0  0  0  0
   -2.3764   -1.0138    0.5582 C   0  0  0  0  0  0  0  0  0  0  0  0
   -3.4139   -0.4587   -0.1891 C   0  0  0  0  0  0  0  0  0  0  0  0
   -4.7327   -0.7737    0.1187 C   0  0  0  0  0  0  0  0  0  0  0  0
   -5.0189   -1.6282    1.1258 N   0  0  0  0  0  4  0  0  0  0  0  0
   -6.4238   -1.9390    1.4404 C   0  0  0  0  0  0  0  0  0  0  0  0
   -4.0300   -2.1865    1.8587 C   0  0  0  0  0  0  0  0  0  0  0  0
   -2.6971   -1.8979    1.5872 C   0  0  0  0  0  0  0  0  0  0  0  0
    2.4103   -0.6066    1.5327 C   0  0  0  0  0  0  0  0  0  0  0  0
    3.5637   -0.1582    0.9455 N   0  0  0  0  0  0  0  0  0  0  0  0
    3.2704    0.5845   -0.1759 C   0  0  0  0  0  0  0  0  0  0  0  0
    4.1363    1.2406   -1.0669 C   0  0  0  0  0  0  0  0  0  0  0  0
    6.0733    1.6214   -3.0879 H   0  0  0  0  0  0  0  0  0  0  0  0
    6.0148    3.1057   -2.0587 H   0  0  0  0  0  0  0  0  0  0  0  0
    6.0720    3.2300   -3.8213 H   0  0  0  0  0  0  0  0  0  0  0  0
    1.7534    2.5705   -3.0959 H   0  0  0  0  0  0  0  0  0  0  0  0
    0.2574    1.4201   -1.5115 H   0  0  0  0  0  0  0  0  0  0  0  0
   -0.2208   -0.5749    2.1569 H   0  0  0  0  0  0  0  0  0  0  0  0
   -0.7790   -0.6229   -0.8638 H   0  0  0  0  0  0  0  0  0  0  0  0
   -3.2040    0.2294   -1.0064 H   0  0  0  0  0  0  0  0  0  0  0  0
   -5.5645   -0.3471   -0.4351 H   0  0  0  0  0  0  0  0  0  0  0  0
   -7.0175   -1.8811    0.5244 H   0  0  0  0  0  0  0  0  0  0  0  0
   -6.7650   -1.2037    2.1732 H   0  0  0  0  0  0  0  0  0  0  0  0
   -6.4847   -2.9518    1.8468 H   0  0  0  0  0  0  0  0  0  0  0  0
   -4.3143   -2.8654    2.6579 H   0  0  0  0  0  0  0  0  0  0  0  0
   -1.9176   -2.3764    2.1771 H   0  0  0  0  0  0  0  0  0  0  0  0
    2.4552   -1.2049    2.4330 H   0  0  0  0  0  0  0  0  0  0  0  0
    4.4993   -0.3330    1.2872 H   0  0  0  0  0  0  0  0  0  0  0  0
    5.2071    1.1866   -0.9140 H   0  0  0  0  0  0  0  0  0  0  0  0
  1  2  1  0
  2  3  1  0
  3  4  2  0
  4  5  1  0
  5  6  2  0
  6  7  1  0
  7  8  1  0
  8  9  2  3
  9 10  1  0
 10 11  2  0
 11 12  1  0
 12 13  2  0
 13 14  1  0
 13 15  1  0
 15 16  2  0
  7 17  2  0
 17 18  1  0
 18 19  1  0
 19 20  2  0
 20  3  1  0
 19  6  1  0
 16 10  1  0
  1 21  1  0
  1 22  1  0
  1 23  1  0
  4 24  1  0
  5 25  1  0
  8 26  1  0
  9 27  1  0
 11 28  1  0
 12 29  1  0
 14 30  1  0
 14 31  1  0
 14 32  1  0
 15 33  1  0
 16 34  1  0
 17 35  1  0
 18 36  1  0
 20 37  1  0
M  CHG  1  13   1
M  END
$$$$
