
     RDKit          3D

 37 39  0  0  0  0  0  0  0  0999 V2000
    5.0736    1.5521    2.7324 O   0  0  0  0  0  0  0  0  0  0  0  0
    5.7816    0.6536    1.8838 C   0  0  0  0  0  0  0  0  0  0  0  0
    5.2761    0.7926    0.4491 C   0  0  0  0  0  0  0  0  0  0  0  0
    3.8683    0.3193    0.3650 N   0  0  0  0  0  4  0  0  0  0  0  0
    3.6011   -0.9363   -0.0588 C   0  0  0  0  0  0  0  0  0  0  0  0
    2.2901   -1.3906   -0.1497 C   0  0  0  0  0  0  0  0  0  0  0  0
    1.2384   -0.5411    0.1869 C   0  0  0  0  0  0  0  0  0  0  0  0
   -0.1389   -1.0400    0.1100 C   0  0  0  0  0  0  0  0  0  0  0  0
   -1.1632   -0.3235   -0.3846 C   0  0  0  0  0  0  0  0  0  0  0  0
   -2.5222   -0.7595   -0.4885 C   0  0  0  0  0  0  0  0  0  0  0  0
   -3.0360   -1.9508   -0.0218 C   0  0  0  0  0  0  0  0  0  0  0  0
   -4.3754   -1.9788   -0.3151 N   0  0  0  0  0  0  0  0  0  0  0  0
   -4.7459   -0.8249   -0.9652 C   0  0  0  0  0  0  0  0  0  0  0  0
   -5.9999   -0.4286   -1.4459 C   0  0  0  0  0  0  0  0  0  0  0  0
   -6.0900    0.8151   -2.0761 C   0  0  0  0  0  0  0  0  0  0  0  0
   -4.9695    1.6283   -2.2190 C   0  0  0  0  0  0  0  0  0  0  0  0
   -3.7227    1.2170   -1.7325 C   0  0  0  0  0  0  0  0  0  0  0  0
   -3.6011   -0.0350   -1.0902 C   0  0  0  0  0  0  0  0  0  0  0  0
    1.5376    0.7434    0.6376 C   0  0  0  0  0  0  0  0  0  0  0  0
    2.8628    1.1555    0.7150 C   0  0  0  0  0  0  0  0  0  0  0  0
    5.4826    1.5074    3.6197 H   0  0  0  0  0  0  0  0  0  0  0  0
    6.8452    0.9062    1.9295 H   0  0  0  0  0  0  0  0  0  0  0  0
    5.6370   -0.3644    2.2583 H   0  0  0  0  0  0  0  0  0  0  0  0
    5.2826    1.8362    0.1148 H   0  0  0  0  0  0  0  0  0  0  0  0
    5.8784    0.1976   -0.2448 H   0  0  0  0  0  0  0  0  0  0  0  0
    4.4412   -1.5723   -0.3223 H   0  0  0  0  0  0  0  0  0  0  0  0
    2.0957   -2.4048   -0.4946 H   0  0  0  0  0  0  0  0  0  0  0  0
   -0.2973   -2.0569    0.4612 H   0  0  0  0  0  0  0  0  0  0  0  0
   -0.9675    0.6784   -0.7605 H   0  0  0  0  0  0  0  0  0  0  0  0
   -2.5836   -2.7851    0.4958 H   0  0  0  0  0  0  0  0  0  0  0  0
   -5.0083   -2.7338   -0.0880 H   0  0  0  0  0  0  0  0  0  0  0  0
   -6.8765   -1.0594   -1.3371 H   0  0  0  0  0  0  0  0  0  0  0  0
   -7.0509    1.1511   -2.4604 H   0  0  0  0  0  0  0  0  0  0  0  0
   -5.0634    2.5921   -2.7138 H   0  0  0  0  0  0  0  0  0  0  0  0
   -2.8607    1.8645   -1.8550 H   0  0  0  0  0  0  0  0  0  0  0  0
    0.7486    1.4274    0.9446 H   0  0  0  0  0  0  0  0  0  0  0  0
    3.1320    2.1478    1.0679 H   0  0  0  0  0  0  0  0  0  0  0  0
  1  2  1  0
  2  3  1  0
  3  4  1  0
  4  5  2  0
  5  6  1  0
  6  7  2  0
  7  8  1  0
  8  9  2  3
  9 10  1  0
 10 11  2  0
 11 12  1  0
 12 13  1  0
 13 14  2  0
 14 15  1  0
 15 16  2  0
 16 17  1  0
 17 18  2  0
  7 19  1  0
 19 20  2  0
 20  4  1  0
 18 10  1  0
 18 13  1  0
  1 21  1  0
  2 22  1  0
  2 23  1  0
  3 24  1  0
  3 25  1  0
  5 26  1  0
  6 27  1  0
  8 28  1  0
  9 29  1  0
 11 30  1  0
 12 31  1  0
 14 32  1  0
 15 33  1  0
 16 34  1  0
 17 35  1  0
 19 36  1  0
 20 37  1  0
M  CHG  1   4   1
M  END
$$$$
