
     RDKit          3D

 47 48  0  0  0  0  0  0  0  0999 V2000
   -5.0973   -0.9893    1.3487 C   0  0  0  0  0  0  0  0  0  0  0  0
   -4.6279    0.2632    0.6245 C   0  0  0  0  0  0  0  0  0  0  0  0
   -3.5045    0.9008    1.3275 N   0  0  0  0  0  0  0  0  0  0  0  0
   -3.8642    1.8265    2.4149 C   0  0  0  0  0  0  0  0  0  0  0  0
   -3.5032    1.2592    3.7813 C   0  0  0  0  0  0  0  0  0  0  0  0
   -2.1821    0.6625    0.9655 C   0  0  0  0  0  0  0  0  0  0  0  0
   -1.1379    1.5138    1.3609 C   0  0  0  0  0  0  0  0  0  0  0  0
    0.1950    1.2874    0.9963 C   0  0  0  0  0  0  0  0  0  0  0  0
    0.5335    0.1844    0.2141 C   0  0  0  0  0  0  0  0  0  0  0  0
    1.9324   -0.0587   -0.1584 C   0  0  0  0  0  0  0  0  0  0  0  0
    2.6306    0.8131   -0.9005 C   0  0  0  0  0  0  0  0  0  0  0  0
    3.9831    0.5111   -1.3637 C   0  0  0  0  0  0  0  0  0  0  0  0
    5.0735    1.1466   -0.7612 C   0  0  0  0  0  0  0  0  0  0  0  0
    6.3650    0.8542   -1.1795 C   0  0  0  0  0  0  0  0  0  0  0  0
    6.5528   -0.0715   -2.1937 C   0  0  0  0  0  0  0  0  0  0  0  0
    5.4478   -0.6822   -2.7737 C   0  0  0  0  0  0  0  0  0  0  0  0
    4.1901   -0.3860   -2.3674 N   0  0  0  0  0  4  0  0  0  0  0  0
    3.0534   -1.0573   -3.0350 C   0  0  0  0  0  0  0  0  0  0  0  0
   -0.4757   -0.7029   -0.1892 C   0  0  0  0  0  0  0  0  0  0  0  0
   -0.0701   -1.7689   -0.9614 O   0  0  0  0  0  0  0  0  0  0  0  0
   -1.0231   -2.8073   -1.1709 C   0  0  0  0  0  0  0  0  0  0  0  0
   -1.8073   -0.4479    0.1821 C   0  0  0  0  0  0  0  0  0  0  0  0
   -4.2867   -1.7132    1.4755 H   0  0  0  0  0  0  0  0  0  0  0  0
   -5.9009   -1.4723    0.7841 H   0  0  0  0  0  0  0  0  0  0  0  0
   -5.4865   -0.7468    2.3425 H   0  0  0  0  0  0  0  0  0  0  0  0
   -4.3756    0.0327   -0.4171 H   0  0  0  0  0  0  0  0  0  0  0  0
   -5.4675    0.9664    0.5545 H   0  0  0  0  0  0  0  0  0  0  0  0
   -3.4068    2.8106    2.2651 H   0  0  0  0  0  0  0  0  0  0  0  0
   -4.9455    2.0134    2.4080 H   0  0  0  0  0  0  0  0  0  0  0  0
   -3.8307    1.9436    4.5703 H   0  0  0  0  0  0  0  0  0  0  0  0
   -3.9879    0.2925    3.9494 H   0  0  0  0  0  0  0  0  0  0  0  0
   -2.4249    1.1130    3.8930 H   0  0  0  0  0  0  0  0  0  0  0  0
   -1.3367    2.3956    1.9630 H   0  0  0  0  0  0  0  0  0  0  0  0
    0.9552    1.9829    1.3433 H   0  0  0  0  0  0  0  0  0  0  0  0
    2.3304   -1.0234    0.1499 H   0  0  0  0  0  0  0  0  0  0  0  0
    2.2129    1.7684   -1.2099 H   0  0  0  0  0  0  0  0  0  0  0  0
    4.9190    1.8650    0.0425 H   0  0  0  0  0  0  0  0  0  0  0  0
    7.2189    1.3427   -0.7121 H   0  0  0  0  0  0  0  0  0  0  0  0
    7.5573   -0.3177   -2.5320 H   0  0  0  0  0  0  0  0  0  0  0  0
    5.5638   -1.4130   -3.5695 H   0  0  0  0  0  0  0  0  0  0  0  0
    2.6684   -1.8224   -2.3570 H   0  0  0  0  0  0  0  0  0  0  0  0
    2.2945   -0.3124   -3.2867 H   0  0  0  0  0  0  0  0  0  0  0  0
    3.3975   -1.5268   -3.9605 H   0  0  0  0  0  0  0  0  0  0  0  0
   -1.4035   -3.1986   -0.2214 H   0  0  0  0  0  0  0  0  0  0  0  0
   -0.5125   -3.6263   -1.6868 H   0  0  0  0  0  0  0  0  0  0  0  0
   -1.8373   -2.4652   -1.8177 H   0  0  0  0  0  0  0  0  0  0  0  0
   -2.5789   -1.1396   -0.1313 H   0  0  0  0  0  0  0  0  0  0  0  0
  1  2  1  0
  2  3  1  0
  3  4  1  0
  4  5  1  0
  3  6  1  0
  6  7  2  0
  7  8  1  0
  8  9  2  0
  9 10  1  0
 10 11  2  3
 11 12  1  0
 12 13  2  0
 13 14  1  0
 14 15  2  0
 15 16  1  0
 16 17  2  0
 17 18  1  0
  9 19  1  0
 19 20  1  0
 20 21  1  0
 19 22  2  0
 22  6  1  0
 17 12  1  0
  1 23  1  0
  1 24  1  0
  1 25  1  0
  2 26  1  0
  2 27  1  0
  4 28  1  0
  4 29  1  0
  5 30  1  0
  5 31  1  0
  5 32  1  0
  7 33  1  0
  8 34  1  0
 10 35  1  0
 11 36  1  0
 13 37  1  0
 14 38  1  0
 15 39  1  0
 16 40  1  0
 18 41  1  0
 18 42  1  0
 18 43  1  0
 21 44  1  0
 21 45  1  0
 21 46  1  0
 22 47  1  0
M  CHG  1  17   1
M  END
$$$$
