
     RDKit          3D

 57 59  0  0  0  0  0  0  0  0999 V2000
   -7.3655   -2.9678   -1.1176 C   0  0  0  0  0  0  0  0  0  0  0  0
   -6.6508   -1.8734   -1.6738 O   0  0  0  0  0  0  0  0  0  0  0  0
   -5.3485   -1.6924   -1.2794 C   0  0  0  0  0  0  0  0  0  0  0  0
   -4.6871   -2.4990   -0.3458 C   0  0  0  0  0  0  0  0  0  0  0  0
   -3.3597   -2.2365   -0.0023 C   0  0  0  0  0  0  0  0  0  0  0  0
   -2.6983   -1.1503   -0.5778 C   0  0  0  0  0  0  0  0  0  0  0  0
   -0.9921   -0.8426   -0.1693 S   0  0  0  0  0  6  0  0  0  0  0  0
   -0.4061   -0.1269   -1.2839 O   0  0  0  0  0  0  0  0  0  0  0  0
   -0.4273   -2.0925    0.2924 O   0  0  0  0  0  0  0  0  0  0  0  0
   -1.0491    0.2013    1.1323 N   0  0  0  0  0  0  0  0  0  0  0  0
   -1.5892   -0.2435    2.4162 C   0  0  0  0  0  0  0  0  0  0  0  0
   -1.9332    1.0632    3.0968 C   0  0  0  0  0  0  0  0  0  0  0  0
   -2.3312    1.9201    2.0176 O   0  0  0  0  0  0  0  0  0  0  0  0
   -1.4696    1.5909    0.9127 C   0  0  0  0  0  0  0  0  0  0  0  0
   -0.2660    2.5699    0.8868 C   0  0  0  0  0  0  0  0  0  0  0  0
    0.8897    2.1137    0.1418 N   0  0  0  0  0  0  0  0  0  0  0  0
    1.8762    1.3618    0.7434 C   0  0  0  0  0  0  0  0  0  0  0  0
    1.9848    1.1416    1.9425 O   0  0  0  0  0  0  0  0  0  0  0  0
    2.8887    0.7512   -0.2541 C   0  0  0  0  0  0  0  0  0  0  0  0
    2.9210    1.1364   -1.4139 O   0  0  0  0  0  0  0  0  0  0  0  0
    3.6914   -0.2122    0.3071 N   0  0  0  0  0  0  0  0  0  0  0  0
    4.7735   -0.8303   -0.4119 C   0  0  0  0  0  0  0  0  0  0  0  0
    6.0894   -0.1822   -0.0631 C   0  0  0  0  0  0  0  0  0  0  0  0
    6.9159   -0.7292    0.9312 C   0  0  0  0  0  0  0  0  0  0  0  0
    8.1230   -0.1111    1.2625 C   0  0  0  0  0  0  0  0  0  0  0  0
    8.5001    1.0552    0.6071 C   0  0  0  0  0  0  0  0  0  0  0  0
    9.6580    1.6474    0.9290 F   0  0  0  0  0  0  0  0  0  0  0  0
    7.6924    1.6182   -0.3731 C   0  0  0  0  0  0  0  0  0  0  0  0
    6.4856    1.0021   -0.7067 C   0  0  0  0  0  0  0  0  0  0  0  0
   -3.3345   -0.3559   -1.5373 C   0  0  0  0  0  0  0  0  0  0  0  0
   -4.6629   -0.6172   -1.8860 C   0  0  0  0  0  0  0  0  0  0  0  0
   -5.3798    0.1141   -2.8005 O   0  0  0  0  0  0  0  0  0  0  0  0
   -4.6939    1.1249   -3.5268 C   0  0  0  0  0  0  0  0  0  0  0  0
   -6.8954   -3.9215   -1.3790 H   0  0  0  0  0  0  0  0  0  0  0  0
   -8.3712   -2.9642   -1.5485 H   0  0  0  0  0  0  0  0  0  0  0  0
   -7.4689   -2.8607   -0.0331 H   0  0  0  0  0  0  0  0  0  0  0  0
   -5.1761   -3.3451    0.1261 H   0  0  0  0  0  0  0  0  0  0  0  0
   -2.8520   -2.8854    0.7086 H   0  0  0  0  0  0  0  0  0  0  0  0
   -2.5007   -0.8303    2.2785 H   0  0  0  0  0  0  0  0  0  0  0  0
   -0.8649   -0.8244    2.9912 H   0  0  0  0  0  0  0  0  0  0  0  0
   -2.7487    0.9647    3.8180 H   0  0  0  0  0  0  0  0  0  0  0  0
   -1.0654    1.5046    3.5991 H   0  0  0  0  0  0  0  0  0  0  0  0
   -2.0537    1.7081   -0.0029 H   0  0  0  0  0  0  0  0  0  0  0  0
   -0.5888    3.5183    0.4433 H   0  0  0  0  0  0  0  0  0  0  0  0
    0.0515    2.8053    1.9093 H   0  0  0  0  0  0  0  0  0  0  0  0
    0.8416    2.0237   -0.8723 H   0  0  0  0  0  0  0  0  0  0  0  0
    3.6132   -0.3362    1.3114 H   0  0  0  0  0  0  0  0  0  0  0  0
    4.5994   -0.7742   -1.4929 H   0  0  0  0  0  0  0  0  0  0  0  0
    4.7854   -1.8920   -0.1396 H   0  0  0  0  0  0  0  0  0  0  0  0
    6.6238   -1.6380    1.4528 H   0  0  0  0  0  0  0  0  0  0  0  0
    8.7691   -0.5286    2.0280 H   0  0  0  0  0  0  0  0  0  0  0  0
    8.0033    2.5329   -0.8677 H   0  0  0  0  0  0  0  0  0  0  0  0
    5.8482    1.4491   -1.4687 H   0  0  0  0  0  0  0  0  0  0  0  0
   -2.7802    0.4520   -2.0031 H   0  0  0  0  0  0  0  0  0  0  0  0
   -3.8582    0.7054   -4.0975 H   0  0  0  0  0  0  0  0  0  0  0  0
   -4.3574    1.9269   -2.8615 H   0  0  0  0  0  0  0  0  0  0  0  0
   -5.3989    1.5606   -4.2414 H   0  0  0  0  0  0  0  0  0  0  0  0
  1  2  1  0
  2  3  1  0
  3  4  2  0
  4  5  1  0
  5  6  2  0
  6  7  1  0
  7  8  2  0
  7  9  2  0
  7 10  1  0
 10 11  1  0
 11 12  1  0
 12 13  1  0
 13 14  1  0
 14 15  1  0
 15 16  1  0
 16 17  1  0
 17 18  2  0
 17 19  1  0
 19 20  2  0
 19 21  1  0
 21 22  1  0
 22 23  1  0
 23 24  2  0
 24 25  1  0
 25 26  2  0
 26 27  1  0
 26 28  1  0
 28 29  2  0
  6 30  1  0
 30 31  2  0
 31 32  1  0
 32 33  1  0
 31  3  1  0
 14 10  1  0
 29 23  1  0
  1 34  1  0
  1 35  1  0
  1 36  1  0
  4 37  1  0
  5 38  1  0
 11 39  1  0
 11 40  1  0
 12 41  1  0
 12 42  1  0
 14 43  1  0
 15 44  1  0
 15 45  1  0
 16 46  1  0
 21 47  1  0
 22 48  1  0
 22 49  1  0
 24 50  1  0
 25 51  1  0
 28 52  1  0
 29 53  1  0
 30 54  1  0
 33 55  1  0
 33 56  1  0
 33 57  1  0
M  END
$$$$
