
     RDKit          3D

 43 45  0  0  0  0  0  0  0  0999 V2000
   -3.9201    2.7909    2.2785 C   0  0  0  0  0  0  0  0  0  0  0  0
   -3.6235    2.3891    0.9469 O   0  0  0  0  0  0  0  0  0  0  0  0
   -3.1585    1.1161    0.7702 C   0  0  0  0  0  0  0  0  0  0  0  0
   -2.9910    0.1578    1.7716 C   0  0  0  0  0  0  0  0  0  0  0  0
   -2.5020   -1.1150    1.4565 C   0  0  0  0  0  0  0  0  0  0  0  0
   -2.1908   -1.4415    0.1356 C   0  0  0  0  0  0  0  0  0  0  0  0
   -1.6484   -2.6635   -0.1595 O   0  0  0  0  0  0  0  0  0  0  0  0
   -2.5870   -3.7182    0.0712 C   0  0  0  0  0  0  0  0  0  0  0  0
   -2.3380   -0.4762   -0.8610 C   0  0  0  0  0  0  0  0  0  0  0  0
   -1.9108   -0.8543   -2.5379 S   0  0  0  0  0  6  0  0  0  0  0  0
   -2.5984   -2.0770   -2.9000 O   0  0  0  0  0  0  0  0  0  0  0  0
   -2.0789    0.3451   -3.3328 O   0  0  0  0  0  0  0  0  0  0  0  0
   -0.2540   -1.2213   -2.4483 N   0  0  0  0  0  0  0  0  0  0  0  0
    0.6203   -0.2509   -1.8718 C   0  0  0  0  0  0  0  0  0  0  0  0
    0.8252    0.9818   -2.4876 C   0  0  0  0  0  0  0  0  0  0  0  0
    1.6551    1.9287   -1.8885 C   0  0  0  0  0  0  0  0  0  0  0  0
    2.2856    1.6371   -0.6805 C   0  0  0  0  0  0  0  0  0  0  0  0
    3.0851    2.6224   -0.1686 O   0  0  0  0  0  0  0  0  0  0  0  0
    2.0916    0.4007   -0.0484 C   0  0  0  0  0  0  0  0  0  0  0  0
    2.7902   -0.0164    1.5423 S   0  0  0  0  0  0  0  0  0  0  0  0
    4.4921   -0.0362    1.1839 C   0  0  0  0  0  0  0  0  0  0  0  0
    5.2341   -1.1786    1.0888 N   0  0  0  0  0  0  0  0  0  0  0  0
    6.4343   -0.7276    0.8091 C   0  0  0  0  0  0  0  0  0  0  0  0
    6.4071    0.6305    0.7486 N   0  0  0  0  0  0  0  0  0  0  0  0
    5.1701    1.1022    0.9868 N   0  0  0  0  0  0  0  0  0  0  0  0
    1.2512   -0.5414   -0.6588 C   0  0  0  0  0  0  0  0  0  0  0  0
   -2.8307    0.7953   -0.5485 C   0  0  0  0  0  0  0  0  0  0  0  0
   -4.7332    2.1898    2.6997 H   0  0  0  0  0  0  0  0  0  0  0  0
   -4.2574    3.8314    2.2461 H   0  0  0  0  0  0  0  0  0  0  0  0
   -3.0280    2.7494    2.9127 H   0  0  0  0  0  0  0  0  0  0  0  0
   -3.2218    0.3715    2.8102 H   0  0  0  0  0  0  0  0  0  0  0  0
   -2.3489   -1.8372    2.2540 H   0  0  0  0  0  0  0  0  0  0  0  0
   -2.6280   -3.9682    1.1363 H   0  0  0  0  0  0  0  0  0  0  0  0
   -3.5873   -3.4668   -0.3037 H   0  0  0  0  0  0  0  0  0  0  0  0
   -2.2342   -4.6007   -0.4707 H   0  0  0  0  0  0  0  0  0  0  0  0
   -0.1446   -2.1824   -2.1208 H   0  0  0  0  0  0  0  0  0  0  0  0
    0.3469    1.2162   -3.4357 H   0  0  0  0  0  0  0  0  0  0  0  0
    1.8125    2.8929   -2.3647 H   0  0  0  0  0  0  0  0  0  0  0  0
    3.7024    2.2119    0.4743 H   0  0  0  0  0  0  0  0  0  0  0  0
    7.3269   -1.3149    0.6444 H   0  0  0  0  0  0  0  0  0  0  0  0
    7.1628    1.2790    0.5544 H   0  0  0  0  0  0  0  0  0  0  0  0
    1.0768   -1.5001   -0.1756 H   0  0  0  0  0  0  0  0  0  0  0  0
   -2.9547    1.5483   -1.3245 H   0  0  0  0  0  0  0  0  0  0  0  0
  1  2  1  0
  2  3  1  0
  3  4  2  0
  4  5  1  0
  5  6  2  0
  6  7  1  0
  7  8  1  0
  6  9  1  0
  9 10  1  0
 10 11  2  0
 10 12  2  0
 10 13  1  0
 13 14  1  0
 14 15  2  0
 15 16  1  0
 16 17  2  0
 17 18  1  0
 17 19  1  0
 19 20  1  0
 20 21  1  0
 21 22  1  0
 22 23  2  0
 23 24  1  0
 24 25  1  0
 19 26  2  0
  9 27  2  0
 27  3  1  0
 26 14  1  0
 25 21  2  0
  1 28  1  0
  1 29  1  0
  1 30  1  0
  4 31  1  0
  5 32  1  0
  8 33  1  0
  8 34  1  0
  8 35  1  0
 13 36  1  0
 15 37  1  0
 16 38  1  0
 18 39  1  0
 23 40  1  0
 24 41  1  0
 26 42  1  0
 27 43  1  0
M  END
$$$$
