
     RDKit          3D

 47 48  0  0  0  0  0  0  0  0999 V2000
   -5.2629    0.8862    0.6906 C   0  0  0  0  0  0  0  0  0  0  0  0
   -4.5719   -0.4412    0.9631 C   0  0  0  0  0  0  0  0  0  0  0  0
   -3.4154   -0.2723    1.8558 N   0  0  0  0  0  0  0  0  0  0  0  0
   -3.7059   -0.2796    3.2994 C   0  0  0  0  0  0  0  0  0  0  0  0
   -3.5285    1.1007    3.9182 C   0  0  0  0  0  0  0  0  0  0  0  0
   -2.1221   -0.1322    1.3618 C   0  0  0  0  0  0  0  0  0  0  0  0
   -0.9919   -0.3225    2.1707 C   0  0  0  0  0  0  0  0  0  0  0  0
    0.3134   -0.1950    1.6788 C   0  0  0  0  0  0  0  0  0  0  0  0
    0.5425    0.1287    0.3408 C   0  0  0  0  0  0  0  0  0  0  0  0
    1.9432    0.2530   -0.0976 C   0  0  0  0  0  0  0  0  0  0  0  0
    2.4132   -0.3724   -1.1885 C   0  0  0  0  0  0  0  0  0  0  0  0
    3.8006   -0.2549   -1.6410 C   0  0  0  0  0  0  0  0  0  0  0  0
    4.3536    1.0045   -1.9112 C   0  0  0  0  0  0  0  0  0  0  0  0
    5.6587    1.1105   -2.3735 C   0  0  0  0  0  0  0  0  0  0  0  0
    6.3997   -0.0432   -2.5690 C   0  0  0  0  0  0  0  0  0  0  0  0
    5.8233   -1.2775   -2.2980 C   0  0  0  0  0  0  0  0  0  0  0  0
    4.5508   -1.3738   -1.8434 N   0  0  0  0  0  4  0  0  0  0  0  0
    4.0020   -2.7132   -1.5492 C   0  0  0  0  0  0  0  0  0  0  0  0
   -0.5624    0.3613   -0.4944 C   0  0  0  0  0  0  0  0  0  0  0  0
   -0.2862    0.7207   -1.7929 O   0  0  0  0  0  0  0  0  0  0  0  0
   -1.3574    1.2643   -2.5578 C   0  0  0  0  0  0  0  0  0  0  0  0
   -1.8635    0.2134    0.0207 C   0  0  0  0  0  0  0  0  0  0  0  0
   -5.6783    1.3098    1.6103 H   0  0  0  0  0  0  0  0  0  0  0  0
   -4.5749    1.6229    0.2649 H   0  0  0  0  0  0  0  0  0  0  0  0
   -6.0886    0.7436   -0.0136 H   0  0  0  0  0  0  0  0  0  0  0  0
   -4.2895   -0.9275    0.0222 H   0  0  0  0  0  0  0  0  0  0  0  0
   -5.2951   -1.1281    1.4208 H   0  0  0  0  0  0  0  0  0  0  0  0
   -3.0965   -1.0249    3.8221 H   0  0  0  0  0  0  0  0  0  0  0  0
   -4.7437   -0.5909    3.4730 H   0  0  0  0  0  0  0  0  0  0  0  0
   -3.8022    1.0747    4.9778 H   0  0  0  0  0  0  0  0  0  0  0  0
   -2.4947    1.4514    3.8493 H   0  0  0  0  0  0  0  0  0  0  0  0
   -4.1635    1.8417    3.4230 H   0  0  0  0  0  0  0  0  0  0  0  0
   -1.0956   -0.5927    3.2175 H   0  0  0  0  0  0  0  0  0  0  0  0
    1.1422   -0.3611    2.3633 H   0  0  0  0  0  0  0  0  0  0  0  0
    2.5759    0.8707    0.5365 H   0  0  0  0  0  0  0  0  0  0  0  0
    1.7561   -0.9925   -1.7938 H   0  0  0  0  0  0  0  0  0  0  0  0
    3.7607    1.9079   -1.7723 H   0  0  0  0  0  0  0  0  0  0  0  0
    6.0899    2.0880   -2.5850 H   0  0  0  0  0  0  0  0  0  0  0  0
    7.4232    0.0178   -2.9334 H   0  0  0  0  0  0  0  0  0  0  0  0
    6.3811   -2.1988   -2.4430 H   0  0  0  0  0  0  0  0  0  0  0  0
    4.7825   -3.4702   -1.6619 H   0  0  0  0  0  0  0  0  0  0  0  0
    3.1962   -2.9128   -2.2601 H   0  0  0  0  0  0  0  0  0  0  0  0
    3.6442   -2.7232   -0.5163 H   0  0  0  0  0  0  0  0  0  0  0  0
   -0.9383    1.6376   -3.4973 H   0  0  0  0  0  0  0  0  0  0  0  0
   -1.8280    2.1097   -2.0447 H   0  0  0  0  0  0  0  0  0  0  0  0
   -2.0902    0.4901   -2.8067 H   0  0  0  0  0  0  0  0  0  0  0  0
   -2.7059    0.3915   -0.6357 H   0  0  0  0  0  0  0  0  0  0  0  0
  1  2  1  0
  2  3  1  0
  3  4  1  0
  4  5  1  0
  3  6  1  0
  6  7  2  0
  7  8  1  0
  8  9  2  0
  9 10  1  0
 10 11  2  3
 11 12  1  0
 12 13  2  0
 13 14  1  0
 14 15  2  0
 15 16  1  0
 16 17  2  0
 17 18  1  0
  9 19  1  0
 19 20  1  0
 20 21  1  0
 19 22  2  0
 22  6  1  0
 17 12  1  0
  1 23  1  0
  1 24  1  0
  1 25  1  0
  2 26  1  0
  2 27  1  0
  4 28  1  0
  4 29  1  0
  5 30  1  0
  5 31  1  0
  5 32  1  0
  7 33  1  0
  8 34  1  0
 10 35  1  0
 11 36  1  0
 13 37  1  0
 14 38  1  0
 15 39  1  0
 16 40  1  0
 18 41  1  0
 18 42  1  0
 18 43  1  0
 21 44  1  0
 21 45  1  0
 21 46  1  0
 22 47  1  0
M  CHG  1  17   1
M  END
$$$$
