
     RDKit          3D

 39 41  0  0  0  0  0  0  0  0999 V2000
   -1.1981    0.5773   -2.6957 O   0  0  0  0  0  0  0  0  0  0  0  0
   -1.3254   -0.6089   -1.8801 S   0  0  0  0  0  6  0  0  0  0  0  0
   -1.1555   -1.9384   -2.4224 O   0  0  0  0  0  0  0  0  0  0  0  0
   -0.3037   -0.4298   -0.5694 N   0  0  0  0  0  0  0  0  0  0  0  0
    0.1275   -1.6319    0.1640 C   0  0  0  0  0  0  0  0  0  0  0  0
    0.9637   -1.2300    1.3839 C   0  0  0  0  0  0  0  0  0  0  0  0
    2.2618   -0.5916    1.0113 C   0  0  0  0  0  0  0  0  0  0  0  0
    3.5386   -0.9126    1.4239 C   0  0  0  0  0  0  0  0  0  0  0  0
    4.3699   -0.0217    0.7928 N   0  0  0  0  0  0  0  0  0  0  0  0
    5.7560    0.0982    0.8557 C   0  0  0  0  0  0  0  0  0  0  0  0
    6.3618    1.0599    0.1382 C   0  0  0  0  0  0  0  0  0  0  0  0
    5.5479    1.9453   -0.6824 C   0  0  0  0  0  0  0  0  0  0  0  0
    4.2068    1.8221   -0.7367 C   0  0  0  0  0  0  0  0  0  0  0  0
    3.5598    0.8057    0.0220 C   0  0  0  0  0  0  0  0  0  0  0  0
    2.2894    0.4804    0.1418 N   0  0  0  0  0  0  0  0  0  0  0  0
   -2.9181   -0.5211   -1.0914 C   0  0  0  0  0  0  0  0  0  0  0  0
   -3.7343   -1.6538   -1.0331 C   0  0  0  0  0  0  0  0  0  0  0  0
   -4.9828   -1.5626   -0.4189 C   0  0  0  0  0  0  0  0  0  0  0  0
   -5.4027   -0.3482    0.1233 C   0  0  0  0  0  0  0  0  0  0  0  0
   -6.6054   -0.2892    0.7097 F   0  0  0  0  0  0  0  0  0  0  0  0
   -4.6013    0.7919    0.0655 C   0  0  0  0  0  0  0  0  0  0  0  0
   -5.1057    2.0707    0.6638 C   0  0  0  0  0  0  0  0  0  0  0  0
   -5.3557    1.9666    1.9981 F   0  0  0  0  0  0  0  0  0  0  0  0
   -4.2226    3.1025    0.5389 F   0  0  0  0  0  0  0  0  0  0  0  0
   -6.2604    2.5068    0.0907 F   0  0  0  0  0  0  0  0  0  0  0  0
   -3.3447    0.7009   -0.5536 C   0  0  0  0  0  0  0  0  0  0  0  0
    0.4459    0.2610   -0.7263 H   0  0  0  0  0  0  0  0  0  0  0  0
    0.7244   -2.2690   -0.4983 H   0  0  0  0  0  0  0  0  0  0  0  0
   -0.7527   -2.1908    0.4983 H   0  0  0  0  0  0  0  0  0  0  0  0
    0.3977   -0.5324    2.0133 H   0  0  0  0  0  0  0  0  0  0  0  0
    1.1592   -2.1245    1.9874 H   0  0  0  0  0  0  0  0  0  0  0  0
    3.9168   -1.6730    2.0914 H   0  0  0  0  0  0  0  0  0  0  0  0
    6.2915   -0.5980    1.4878 H   0  0  0  0  0  0  0  0  0  0  0  0
    7.4380    1.1962    0.1511 H   0  0  0  0  0  0  0  0  0  0  0  0
    6.0559    2.7150   -1.2559 H   0  0  0  0  0  0  0  0  0  0  0  0
    3.5991    2.4798   -1.3477 H   0  0  0  0  0  0  0  0  0  0  0  0
   -3.4098   -2.5996   -1.4619 H   0  0  0  0  0  0  0  0  0  0  0  0
   -5.6357   -2.4291   -0.3611 H   0  0  0  0  0  0  0  0  0  0  0  0
   -2.6972    1.5758   -0.6181 H   0  0  0  0  0  0  0  0  0  0  0  0
  1  2  2  0
  2  3  2  0
  2  4  1  0
  4  5  1  0
  5  6  1  0
  6  7  1  0
  7  8  2  0
  8  9  1  0
  9 10  1  0
 10 11  2  0
 11 12  1  0
 12 13  2  0
 13 14  1  0
 14 15  2  0
  2 16  1  0
 16 17  2  0
 17 18  1  0
 18 19  2  0
 19 20  1  0
 19 21  1  0
 21 22  1  0
 22 23  1  0
 22 24  1  0
 22 25  1  0
 21 26  2  0
 15  7  1  0
 26 16  1  0
 14  9  1  0
  4 27  1  0
  5 28  1  0
  5 29  1  0
  6 30  1  0
  6 31  1  0
  8 32  1  0
 10 33  1  0
 11 34  1  0
 12 35  1  0
 13 36  1  0
 17 37  1  0
 18 38  1  0
 26 39  1  0
M  END
$$$$
