
     RDKit          3D

 59 64  0  0  0  0  0  0  0  0999 V2000
    2.9210    2.5513    2.1775 O   0  0  0  0  0  0  0  0  0  0  0  0
    3.0027    1.4494    1.6397 C   0  0  0  0  0  0  0  0  0  0  0  0
    4.3132    0.7596    1.6632 C   0  0  0  0  0  0  0  0  0  0  0  0
    4.9285    0.4316    0.5181 C   0  0  0  0  0  0  0  0  0  0  0  0
    6.2194   -0.1713    0.4946 C   0  0  0  0  0  0  0  0  0  0  0  0
    7.1963   -0.2761    1.4723 C   0  0  0  0  0  0  0  0  0  0  0  0
    8.3671   -0.9569    1.0263 C   0  0  0  0  0  0  0  0  0  0  0  0
    8.2562   -1.3658   -0.2815 C   0  0  0  0  0  0  0  0  0  0  0  0
    6.7567   -0.9221   -0.9655 S   0  0  0  0  0  0  0  0  0  0  0  0
    1.9365    0.8113    1.0288 N   0  0  0  0  0  0  0  0  0  0  0  0
    1.9215   -0.5932    0.6169 C   0  0  0  0  0  0  0  0  0  0  0  0
    0.5212   -1.1932    0.7237 C   0  0  0  0  0  0  0  0  0  0  0  0
   -0.5167   -0.4496   -0.1778 C   0  0  0  0  0  0  0  0  0  0  0  0
   -0.1116    1.0500   -0.2942 C   0  0  0  0  0  0  0  0  0  0  0  0
    0.6798    1.5447    0.9087 C   0  0  0  0  0  0  0  0  0  0  0  0
   -0.4128   -0.9520   -1.5393 O   0  0  0  0  0  0  0  0  0  0  0  0
   -0.9535   -2.1848   -1.7797 C   0  0  0  0  0  0  0  0  0  0  0  0
   -0.5650   -2.8049   -2.9682 C   0  0  0  0  0  0  0  0  0  0  0  0
   -1.0489   -4.0765   -3.2799 C   0  0  0  0  0  0  0  0  0  0  0  0
   -1.9197   -4.7170   -2.4029 C   0  0  0  0  0  0  0  0  0  0  0  0
   -2.3769   -5.9380   -2.7058 F   0  0  0  0  0  0  0  0  0  0  0  0
   -2.3263   -4.1071   -1.2232 C   0  0  0  0  0  0  0  0  0  0  0  0
   -1.8459   -2.8304   -0.9223 C   0  0  0  0  0  0  0  0  0  0  0  0
   -2.2914   -2.1305    0.2968 C   0  0  0  0  0  0  0  0  0  0  0  0
   -2.9120   -2.7444    1.1566 O   0  0  0  0  0  0  0  0  0  0  0  0
   -1.9718   -0.6401    0.3461 C   0  0  0  0  0  0  0  0  0  0  0  0
   -3.0686    0.0858   -0.4283 C   0  0  0  0  0  0  0  0  0  0  0  0
   -3.3661    1.1799    0.5375 C   0  0  0  0  0  0  0  0  0  0  0  0
   -4.2294    2.3297    0.1809 C   0  0  0  0  0  0  0  0  0  0  0  0
   -4.3882    3.3691    1.1061 C   0  0  0  0  0  0  0  0  0  0  0  0
   -5.1879    4.4704    0.7964 C   0  0  0  0  0  0  0  0  0  0  0  0
   -5.8338    4.5373   -0.4370 C   0  0  0  0  0  0  0  0  0  0  0  0
   -5.6825    3.5042   -1.3612 C   0  0  0  0  0  0  0  0  0  0  0  0
   -4.8825    2.4000   -1.0551 C   0  0  0  0  0  0  0  0  0  0  0  0
   -2.8029    1.0496    1.6961 N   0  0  0  0  0  0  0  0  0  0  0  0
   -2.0857   -0.1668    1.6907 O   0  0  0  0  0  0  0  0  0  0  0  0
    4.7576    0.6566    2.6442 H   0  0  0  0  0  0  0  0  0  0  0  0
    4.4315    0.6194   -0.4318 H   0  0  0  0  0  0  0  0  0  0  0  0
    7.0917    0.1307    2.4726 H   0  0  0  0  0  0  0  0  0  0  0  0
    9.2450   -1.1344    1.6363 H   0  0  0  0  0  0  0  0  0  0  0  0
    8.9881   -1.8991   -0.8739 H   0  0  0  0  0  0  0  0  0  0  0  0
    2.6117   -1.1714    1.2395 H   0  0  0  0  0  0  0  0  0  0  0  0
    2.2763   -0.6407   -0.4189 H   0  0  0  0  0  0  0  0  0  0  0  0
    0.5900   -2.2543    0.4608 H   0  0  0  0  0  0  0  0  0  0  0  0
    0.2148   -1.1455    1.7761 H   0  0  0  0  0  0  0  0  0  0  0  0
    0.5066    1.1909   -1.1930 H   0  0  0  0  0  0  0  0  0  0  0  0
   -0.9750    1.6999   -0.4537 H   0  0  0  0  0  0  0  0  0  0  0  0
    0.1233    1.4160    1.8432 H   0  0  0  0  0  0  0  0  0  0  0  0
    0.8880    2.6148    0.7977 H   0  0  0  0  0  0  0  0  0  0  0  0
    0.1238   -2.3056   -3.6460 H   0  0  0  0  0  0  0  0  0  0  0  0
   -0.7489   -4.5749   -4.1975 H   0  0  0  0  0  0  0  0  0  0  0  0
   -3.0141   -4.6229   -0.5591 H   0  0  0  0  0  0  0  0  0  0  0  0
   -2.7379    0.4656   -1.3981 H   0  0  0  0  0  0  0  0  0  0  0  0
   -3.9739   -0.5161   -0.5659 H   0  0  0  0  0  0  0  0  0  0  0  0
   -3.8916    3.3298    2.0743 H   0  0  0  0  0  0  0  0  0  0  0  0
   -5.3067    5.2738    1.5200 H   0  0  0  0  0  0  0  0  0  0  0  0
   -6.4573    5.3953   -0.6765 H   0  0  0  0  0  0  0  0  0  0  0  0
   -6.1914    3.5584   -2.3210 H   0  0  0  0  0  0  0  0  0  0  0  0
   -4.7916    1.6106   -1.7940 H   0  0  0  0  0  0  0  0  0  0  0  0
  1  2  2  0
  2  3  1  0
  3  4  2  3
  4  5  1  0
  5  6  2  0
  6  7  1  0
  7  8  2  0
  8  9  1  0
  2 10  1  0
 10 11  1  0
 11 12  1  0
 12 13  1  0
 13 14  1  0
 14 15  1  0
 13 16  1  0
 16 17  1  0
 17 18  2  0
 18 19  1  0
 19 20  2  0
 20 21  1  0
 20 22  1  0
 22 23  2  0
 23 24  1  0
 24 25  2  0
 24 26  1  0
 26 27  1  0
 27 28  1  0
 28 29  1  0
 29 30  2  0
 30 31  1  0
 31 32  2  0
 32 33  1  0
 33 34  2  0
 28 35  2  0
 35 36  1  0
  9  5  1  0
 15 10  1  0
 23 17  1  0
 36 26  1  0
 26 13  1  0
 34 29  1  0
  3 37  1  0
  4 38  1  0
  6 39  1  0
  7 40  1  0
  8 41  1  0
 11 42  1  0
 11 43  1  0
 12 44  1  0
 12 45  1  0
 14 46  1  0
 14 47  1  0
 15 48  1  0
 15 49  1  0
 18 50  1  0
 19 51  1  0
 22 52  1  0
 27 53  1  0
 27 54  1  0
 30 55  1  0
 31 56  1  0
 32 57  1  0
 33 58  1  0
 34 59  1  0
M  END
$$$$
