
     RDKit          3D

 62 65  0  0  0  0  0  0  0  0999 V2000
   -3.7797   -2.6651    2.4009 C   0  0  0  0  0  0  0  0  0  0  0  0
   -3.6737   -1.1836    2.7259 C   0  0  0  0  0  0  0  0  0  0  0  0
   -3.5408   -0.3912    1.5083 N   0  0  0  0  0  0  0  0  0  0  0  0
   -2.3706   -0.0719    0.7916 C   0  0  0  0  0  0  0  0  0  0  0  0
   -1.1209   -0.3829    1.1961 C   0  0  0  0  0  0  0  0  0  0  0  0
    0.1366   -0.0985    0.5394 C   0  0  0  0  0  0  0  0  0  0  0  0
    1.3162   -0.4234    1.0865 C   0  0  0  0  0  0  0  0  0  0  0  0
    2.6146   -0.1948    0.4086 C   0  0  0  0  0  0  0  0  0  0  0  0
    3.0281    0.8834   -0.1936 N   0  0  0  0  0  4  0  0  0  0  0  0
    2.4009    2.2155   -0.3121 C   0  0  0  0  0  0  0  0  0  0  0  0
    1.8501    2.4273   -1.7097 C   0  0  0  0  0  0  0  0  0  0  0  0
    4.3966    0.6646   -0.7065 C   0  0  0  0  0  0  0  0  0  0  0  0
    5.2218    1.5423   -1.3880 C   0  0  0  0  0  0  0  0  0  0  0  0
    6.4840    1.0814   -1.7676 C   0  0  0  0  0  0  0  0  0  0  0  0
    6.8911   -0.2281   -1.4613 C   0  0  0  0  0  0  0  0  0  0  0  0
    6.0457   -1.0959   -0.7670 C   0  0  0  0  0  0  0  0  0  0  0  0
    4.7960   -0.6301   -0.3939 C   0  0  0  0  0  0  0  0  0  0  0  0
    3.6950   -1.3114    0.3689 C   0  0  0  0  0  0  0  0  0  0  0  0
    3.1762   -2.5427   -0.3795 C   0  0  0  0  0  0  0  0  0  0  0  0
    4.1601   -1.6794    1.7826 C   0  0  0  0  0  0  0  0  0  0  0  0
   -2.7954    0.6988   -0.5059 C   0  0  0  0  0  0  0  0  0  0  0  0
   -2.4278   -0.0557   -1.7929 C   0  0  0  0  0  0  0  0  0  0  0  0
   -2.2786    2.1448   -0.5236 C   0  0  0  0  0  0  0  0  0  0  0  0
   -4.3138    0.7122   -0.3642 C   0  0  0  0  0  0  0  0  0  0  0  0
   -5.2662    1.2559   -1.2191 C   0  0  0  0  0  0  0  0  0  0  0  0
   -6.6115    1.1223   -0.8820 C   0  0  0  0  0  0  0  0  0  0  0  0
   -6.9846    0.4523    0.2898 C   0  0  0  0  0  0  0  0  0  0  0  0
   -6.0172   -0.0880    1.1438 C   0  0  0  0  0  0  0  0  0  0  0  0
   -4.6768    0.0469    0.8178 C   0  0  0  0  0  0  0  0  0  0  0  0
   -3.8716   -3.2491    3.3223 H   0  0  0  0  0  0  0  0  0  0  0  0
   -4.6525   -2.8764    1.7761 H   0  0  0  0  0  0  0  0  0  0  0  0
   -2.8926   -3.0176    1.8636 H   0  0  0  0  0  0  0  0  0  0  0  0
   -2.8135   -1.0198    3.3822 H   0  0  0  0  0  0  0  0  0  0  0  0
   -4.5390   -0.8661    3.3202 H   0  0  0  0  0  0  0  0  0  0  0  0
   -1.0251   -0.9196    2.1392 H   0  0  0  0  0  0  0  0  0  0  0  0
    0.0904    0.3700   -0.4334 H   0  0  0  0  0  0  0  0  0  0  0  0
    1.3562   -0.9569    2.0340 H   0  0  0  0  0  0  0  0  0  0  0  0
    1.6012    2.2926    0.4306 H   0  0  0  0  0  0  0  0  0  0  0  0
    3.1474    2.9751   -0.0572 H   0  0  0  0  0  0  0  0  0  0  0  0
    2.6381    2.4137   -2.4697 H   0  0  0  0  0  0  0  0  0  0  0  0
    1.3526    3.4009   -1.7691 H   0  0  0  0  0  0  0  0  0  0  0  0
    1.1201    1.6600   -1.9844 H   0  0  0  0  0  0  0  0  0  0  0  0
    4.9349    2.5591   -1.6358 H   0  0  0  0  0  0  0  0  0  0  0  0
    7.1660    1.7381   -2.3078 H   0  0  0  0  0  0  0  0  0  0  0  0
    7.8805   -0.5664   -1.7674 H   0  0  0  0  0  0  0  0  0  0  0  0
    6.3745   -2.1053   -0.5303 H   0  0  0  0  0  0  0  0  0  0  0  0
    3.9598   -3.3001   -0.4925 H   0  0  0  0  0  0  0  0  0  0  0  0
    2.8190   -2.2832   -1.3832 H   0  0  0  0  0  0  0  0  0  0  0  0
    2.3396   -3.0087    0.1532 H   0  0  0  0  0  0  0  0  0  0  0  0
    5.0123   -2.3696    1.7574 H   0  0  0  0  0  0  0  0  0  0  0  0
    3.3619   -2.1662    2.3524 H   0  0  0  0  0  0  0  0  0  0  0  0
    4.4698   -0.7910    2.3469 H   0  0  0  0  0  0  0  0  0  0  0  0
   -2.7894   -1.0905   -1.7666 H   0  0  0  0  0  0  0  0  0  0  0  0
   -2.8711    0.4196   -2.6761 H   0  0  0  0  0  0  0  0  0  0  0  0
   -1.3490   -0.0889   -1.9642 H   0  0  0  0  0  0  0  0  0  0  0  0
   -2.7078    2.7138   -1.3566 H   0  0  0  0  0  0  0  0  0  0  0  0
   -1.1921    2.1929   -0.6327 H   0  0  0  0  0  0  0  0  0  0  0  0
   -2.5403    2.6759    0.4004 H   0  0  0  0  0  0  0  0  0  0  0  0
   -4.9802    1.7702   -2.1306 H   0  0  0  0  0  0  0  0  0  0  0  0
   -7.3774    1.5377   -1.5312 H   0  0  0  0  0  0  0  0  0  0  0  0
   -8.0386    0.3531    0.5390 H   0  0  0  0  0  0  0  0  0  0  0  0
   -6.3393   -0.6022    2.0418 H   0  0  0  0  0  0  0  0  0  0  0  0
  1  2  1  0
  2  3  1  0
  3  4  1  0
  4  5  2  3
  5  6  1  0
  6  7  2  3
  7  8  1  0
  8  9  2  0
  9 10  1  0
 10 11  1  0
  9 12  1  0
 12 13  2  0
 13 14  1  0
 14 15  2  0
 15 16  1  0
 16 17  2  0
 17 18  1  0
 18 19  1  0
 18 20  1  0
  4 21  1  0
 21 22  1  0
 21 23  1  0
 21 24  1  0
 24 25  2  0
 25 26  1  0
 26 27  2  0
 27 28  1  0
 28 29  2  0
 29  3  1  0
 18  8  1  0
 29 24  1  0
 17 12  1  0
  1 30  1  0
  1 31  1  0
  1 32  1  0
  2 33  1  0
  2 34  1  0
  5 35  1  0
  6 36  1  0
  7 37  1  0
 10 38  1  0
 10 39  1  0
 11 40  1  0
 11 41  1  0
 11 42  1  0
 13 43  1  0
 14 44  1  0
 15 45  1  0
 16 46  1  0
 19 47  1  0
 19 48  1  0
 19 49  1  0
 20 50  1  0
 20 51  1  0
 20 52  1  0
 22 53  1  0
 22 54  1  0
 22 55  1  0
 23 56  1  0
 23 57  1  0
 23 58  1  0
 25 59  1  0
 26 60  1  0
 27 61  1  0
 28 62  1  0
M  CHG  1   9   1
M  END
$$$$
