
     RDKit          3D

 51 55  0  0  0  0  0  0  0  0999 V2000
   -3.0258    0.7492    2.0534 C   0  0  0  0  0  0  0  0  0  0  0  0
   -2.4892    0.5021    0.6651 C   0  0  0  0  0  0  0  0  0  0  0  0
   -1.1862    0.0280    0.6187 N   0  0  0  0  0  0  0  0  0  0  0  0
   -0.5631   -0.2557   -0.5453 C   0  0  0  0  0  0  0  0  0  0  0  0
    0.6841   -0.7479   -0.8646 C   0  0  0  0  0  0  0  0  0  0  0  0
    1.7120   -1.1216    0.0898 C   0  0  0  0  0  0  0  0  0  0  0  0
    1.5241   -1.0558    1.3022 O   0  0  0  0  0  0  0  0  0  0  0  0
    2.9027   -1.5426   -0.4583 N   0  0  0  0  0  0  0  0  0  0  0  0
    4.0559   -1.8268    0.3642 C   0  0  0  0  0  0  0  0  0  0  0  0
    5.0039   -0.6549    0.3698 C   0  0  0  0  0  0  0  0  0  0  0  0
    4.7851    0.4274    1.2546 C   0  0  0  0  0  0  0  0  0  0  0  0
    5.6348    1.5379    1.2598 C   0  0  0  0  0  0  0  0  0  0  0  0
    6.6862    1.5431    0.3703 C   0  0  0  0  0  0  0  0  0  0  0  0
    6.9032    0.5006   -0.4990 C   0  0  0  0  0  0  0  0  0  0  0  0
    6.0831   -0.6080   -0.5278 C   0  0  0  0  0  0  0  0  0  0  0  0
    7.9876    0.7047   -1.2940 O   0  0  0  0  0  0  0  0  0  0  0  0
    8.4299    1.9950   -0.8224 C   0  0  0  0  0  0  0  0  0  0  0  0
    7.6072    2.5338    0.2329 O   0  0  0  0  0  0  0  0  0  0  0  0
    0.6613   -0.7783   -2.2799 C   0  0  0  0  0  0  0  0  0  0  0  0
   -0.4845   -0.3389   -2.8089 N   0  0  0  0  0  0  0  0  0  0  0  0
   -1.2431   -0.0312   -1.7206 N   0  0  0  0  0  0  0  0  0  0  0  0
   -2.5515    0.4732   -1.8018 C   0  0  0  0  0  0  0  0  0  0  0  0
   -3.0756    0.7029   -2.8851 O   0  0  0  0  0  0  0  0  0  0  0  0
   -3.2087    0.7195   -0.4655 C   0  0  0  0  0  0  0  0  0  0  0  0
   -4.6374    1.1999   -0.5393 C   0  0  0  0  0  0  0  0  0  0  0  0
   -5.6648    0.2193   -0.0165 C   0  0  0  0  0  0  0  0  0  0  0  0
   -6.6259    0.6320    0.9200 C   0  0  0  0  0  0  0  0  0  0  0  0
   -7.5918   -0.2622    1.3906 C   0  0  0  0  0  0  0  0  0  0  0  0
   -7.6179   -1.5759    0.9248 C   0  0  0  0  0  0  0  0  0  0  0  0
   -6.6802   -1.9943   -0.0162 C   0  0  0  0  0  0  0  0  0  0  0  0
   -5.7201   -1.0994   -0.4815 C   0  0  0  0  0  0  0  0  0  0  0  0
   -4.8361   -1.5316   -1.3912 F   0  0  0  0  0  0  0  0  0  0  0  0
   -2.2865    1.2921    2.6533 H   0  0  0  0  0  0  0  0  0  0  0  0
   -3.2363   -0.2038    2.5498 H   0  0  0  0  0  0  0  0  0  0  0  0
   -3.9365    1.3518    2.0647 H   0  0  0  0  0  0  0  0  0  0  0  0
   -0.7149   -0.1514    1.5100 H   0  0  0  0  0  0  0  0  0  0  0  0
    3.0632   -1.4420   -1.4484 H   0  0  0  0  0  0  0  0  0  0  0  0
    3.7573   -2.0804    1.3875 H   0  0  0  0  0  0  0  0  0  0  0  0
    4.5463   -2.7112   -0.0576 H   0  0  0  0  0  0  0  0  0  0  0  0
    3.9401    0.4024    1.9425 H   0  0  0  0  0  0  0  0  0  0  0  0
    5.4707    2.3681    1.9373 H   0  0  0  0  0  0  0  0  0  0  0  0
    6.2796   -1.4128   -1.2281 H   0  0  0  0  0  0  0  0  0  0  0  0
    9.4572    1.8993   -0.4520 H   0  0  0  0  0  0  0  0  0  0  0  0
    8.4239    2.6966   -1.6645 H   0  0  0  0  0  0  0  0  0  0  0  0
    1.4358   -1.1023   -2.9626 H   0  0  0  0  0  0  0  0  0  0  0  0
   -4.9294    1.4608   -1.5636 H   0  0  0  0  0  0  0  0  0  0  0  0
   -4.7072    2.1461    0.0137 H   0  0  0  0  0  0  0  0  0  0  0  0
   -6.6313    1.6550    1.2907 H   0  0  0  0  0  0  0  0  0  0  0  0
   -8.3288    0.0692    2.1186 H   0  0  0  0  0  0  0  0  0  0  0  0
   -8.3711   -2.2698    1.2889 H   0  0  0  0  0  0  0  0  0  0  0  0
   -6.6910   -3.0111   -0.3962 H   0  0  0  0  0  0  0  0  0  0  0  0
  1  2  1  0
  2  3  1  0
  3  4  1  0
  4  5  2  0
  5  6  1  0
  6  7  2  0
  6  8  1  0
  8  9  1  0
  9 10  1  0
 10 11  2  0
 11 12  1  0
 12 13  2  0
 13 14  1  0
 14 15  2  0
 14 16  1  0
 16 17  1  0
 17 18  1  0
  5 19  1  0
 19 20  2  0
 20 21  1  0
 21 22  1  0
 22 23  2  0
 22 24  1  0
 24 25  1  0
 25 26  1  0
 26 27  2  0
 27 28  1  0
 28 29  2  0
 29 30  1  0
 30 31  2  0
 31 32  1  0
 24  2  2  0
 31 26  1  0
 21  4  1  0
 15 10  1  0
 18 13  1  0
  1 33  1  0
  1 34  1  0
  1 35  1  0
  3 36  1  0
  8 37  1  0
  9 38  1  0
  9 39  1  0
 11 40  1  0
 12 41  1  0
 15 42  1  0
 17 43  1  0
 17 44  1  0
 19 45  1  0
 25 46  1  0
 25 47  1  0
 27 48  1  0
 28 49  1  0
 29 50  1  0
 30 51  1  0
M  END
$$$$
