
     RDKit          3D

 38 40  0  0  0  0  0  0  0  0999 V2000
   -2.2505    3.9131   -1.1864 C   0  0  0  0  0  0  0  0  0  0  0  0
   -2.3487    2.4971   -0.6988 C   0  0  0  0  0  0  0  0  0  0  0  0
   -3.1507    2.1833    0.4078 C   0  0  0  0  0  0  0  0  0  0  0  0
   -3.2087    0.8755    0.8923 C   0  0  0  0  0  0  0  0  0  0  0  0
   -2.4490   -0.1198    0.2737 C   0  0  0  0  0  0  0  0  0  0  0  0
   -2.4989   -1.7780    0.9022 S   0  0  0  0  0  6  0  0  0  0  0  0
   -3.8050   -1.9831    1.4941 O   0  0  0  0  0  0  0  0  0  0  0  0
   -1.9941   -2.6806   -0.1102 O   0  0  0  0  0  0  0  0  0  0  0  0
   -1.4065   -1.7199    2.1989 N   0  0  0  0  0  0  0  0  0  0  0  0
   -0.0194   -1.7852    1.8911 C   0  0  0  0  0  0  0  0  0  0  0  0
    0.6223   -3.0206    1.8317 C   0  0  0  0  0  0  0  0  0  0  0  0
    1.9594   -3.0849    1.4411 C   0  0  0  0  0  0  0  0  0  0  0  0
    2.6374   -1.9191    1.0879 C   0  0  0  0  0  0  0  0  0  0  0  0
    3.9328   -2.0759    0.6757 O   0  0  0  0  0  0  0  0  0  0  0  0
    2.0022   -0.6705    1.1455 C   0  0  0  0  0  0  0  0  0  0  0  0
    2.8146    0.8659    0.7353 S   0  0  0  0  0  0  0  0  0  0  0  0
    3.0498    0.6628   -0.9772 C   0  0  0  0  0  0  0  0  0  0  0  0
    2.2823    1.2714   -1.9295 N   0  0  0  0  0  0  0  0  0  0  0  0
    2.7951    0.8216   -3.0506 C   0  0  0  0  0  0  0  0  0  0  0  0
    3.8254   -0.0212   -2.7745 N   0  0  0  0  0  0  0  0  0  0  0  0
    4.0117   -0.1416   -1.4479 N   0  0  0  0  0  0  0  0  0  0  0  0
    0.6675   -0.6152    1.5635 C   0  0  0  0  0  0  0  0  0  0  0  0
   -1.6558    0.1752   -0.8385 C   0  0  0  0  0  0  0  0  0  0  0  0
   -1.5939    1.4867   -1.3101 C   0  0  0  0  0  0  0  0  0  0  0  0
   -3.1893    4.4505   -1.0163 H   0  0  0  0  0  0  0  0  0  0  0  0
   -1.4438    4.4338   -0.6616 H   0  0  0  0  0  0  0  0  0  0  0  0
   -2.0501    3.9426   -2.2626 H   0  0  0  0  0  0  0  0  0  0  0  0
   -3.7331    2.9595    0.9002 H   0  0  0  0  0  0  0  0  0  0  0  0
   -3.8351    0.6442    1.7507 H   0  0  0  0  0  0  0  0  0  0  0  0
   -1.7466   -2.2883    2.9738 H   0  0  0  0  0  0  0  0  0  0  0  0
    0.0878   -3.9382    2.0608 H   0  0  0  0  0  0  0  0  0  0  0  0
    2.4667   -4.0443    1.3841 H   0  0  0  0  0  0  0  0  0  0  0  0
    4.1782   -1.2876    0.1456 H   0  0  0  0  0  0  0  0  0  0  0  0
    2.4743    1.0612   -4.0545 H   0  0  0  0  0  0  0  0  0  0  0  0
    4.4240   -0.5335   -3.4138 H   0  0  0  0  0  0  0  0  0  0  0  0
    0.1583    0.3436    1.6267 H   0  0  0  0  0  0  0  0  0  0  0  0
   -1.0649   -0.5982   -1.3244 H   0  0  0  0  0  0  0  0  0  0  0  0
   -0.9455    1.7175   -2.1536 H   0  0  0  0  0  0  0  0  0  0  0  0
  1  2  1  0
  2  3  2  0
  3  4  1  0
  4  5  2  0
  5  6  1  0
  6  7  2  0
  6  8  2  0
  6  9  1  0
  9 10  1  0
 10 11  2  0
 11 12  1  0
 12 13  2  0
 13 14  1  0
 13 15  1  0
 15 16  1  0
 16 17  1  0
 17 18  1  0
 18 19  2  0
 19 20  1  0
 20 21  1  0
 15 22  2  0
  5 23  1  0
 23 24  2  0
 24  2  1  0
 22 10  1  0
 21 17  2  0
  1 25  1  0
  1 26  1  0
  1 27  1  0
  3 28  1  0
  4 29  1  0
  9 30  1  0
 11 31  1  0
 12 32  1  0
 14 33  1  0
 19 34  1  0
 20 35  1  0
 22 36  1  0
 23 37  1  0
 24 38  1  0
M  END
$$$$
