
     RDKit          3D

 47 51  0  0  0  0  0  0  0  0999 V2000
    0.7761    0.1391    2.1134 O   0  0  0  0  0  0  0  0  0  0  0  0
    1.2943    0.0652    1.0096 C   0  0  0  0  0  0  0  0  0  0  0  0
    0.7620   -0.4745   -0.1267 O   0  0  0  0  0  0  0  0  0  0  0  0
   -0.6244   -0.6811   -0.0276 C   0  0  0  0  0  0  0  0  0  0  0  0
   -1.5283    0.3016   -0.2680 C   0  0  0  0  0  0  0  0  0  0  0  0
   -1.0611    1.6524   -0.6319 C   0  0  0  0  0  0  0  0  0  0  0  0
   -1.0754    2.6820    0.3170 C   0  0  0  0  0  0  0  0  0  0  0  0
   -0.5793    3.9457   -0.0082 C   0  0  0  0  0  0  0  0  0  0  0  0
   -0.0657    4.1883   -1.2816 C   0  0  0  0  0  0  0  0  0  0  0  0
   -0.0507    3.1702   -2.2337 C   0  0  0  0  0  0  0  0  0  0  0  0
   -0.5479    1.9062   -1.9117 C   0  0  0  0  0  0  0  0  0  0  0  0
   -3.0155    0.0275   -0.1527 C   0  0  0  0  0  0  0  0  0  0  0  0
   -3.8521    0.9081   -0.3350 O   0  0  0  0  0  0  0  0  0  0  0  0
   -3.3521   -1.2645    0.1564 N   0  0  0  0  0  0  0  0  0  0  0  0
   -2.4136   -2.2594    0.3598 C   0  0  0  0  0  0  0  0  0  0  0  0
   -3.0141   -3.4744    0.6456 C   0  0  0  0  0  0  0  0  0  0  0  0
   -2.2189   -4.5798    0.8708 C   0  0  0  0  0  0  0  0  0  0  0  0
   -0.8255   -4.4182    0.7989 C   0  0  0  0  0  0  0  0  0  0  0  0
   -0.2439   -3.1641    0.5061 C   0  0  0  0  0  0  0  0  0  0  0  0
   -1.0527   -2.0507    0.2805 C   0  0  0  0  0  0  0  0  0  0  0  0
   -4.5050   -3.3247    0.6495 C   0  0  0  0  0  0  0  0  0  0  0  0
   -4.6929   -1.8216    0.3224 C   0  0  0  0  0  0  0  0  0  0  0  0
    2.6705    0.5538    0.7293 C   0  0  0  0  0  0  0  0  0  0  0  0
    3.5281    0.7754    1.8172 C   0  0  0  0  0  0  0  0  0  0  0  0
    4.8229    1.2583    1.6133 C   0  0  0  0  0  0  0  0  0  0  0  0
    5.2692    1.5338    0.3206 C   0  0  0  0  0  0  0  0  0  0  0  0
    4.4096    1.3244   -0.7666 C   0  0  0  0  0  0  0  0  0  0  0  0
    4.8723    1.6286   -2.1270 N   0  0  0  0  0  4  0  0  0  0  0  0
    6.0202    2.0756   -2.2589 O   0  0  0  0  0  0  0  0  0  0  0  0
    4.0878    1.4167   -3.0623 O   0  0  0  0  0  1  0  0  0  0  0  0
    3.1108    0.8342   -0.5713 C   0  0  0  0  0  0  0  0  0  0  0  0
   -1.4693    2.5032    1.3157 H   0  0  0  0  0  0  0  0  0  0  0  0
   -0.5985    4.7411    0.7323 H   0  0  0  0  0  0  0  0  0  0  0  0
    0.3146    5.1748   -1.5348 H   0  0  0  0  0  0  0  0  0  0  0  0
    0.3428    3.3616   -3.2290 H   0  0  0  0  0  0  0  0  0  0  0  0
   -0.5325    1.1215   -2.6649 H   0  0  0  0  0  0  0  0  0  0  0  0
   -2.6513   -5.5489    1.0984 H   0  0  0  0  0  0  0  0  0  0  0  0
   -0.1788   -5.2759    0.9747 H   0  0  0  0  0  0  0  0  0  0  0  0
    0.8386   -3.0816    0.4630 H   0  0  0  0  0  0  0  0  0  0  0  0
   -4.9681   -3.9521   -0.1182 H   0  0  0  0  0  0  0  0  0  0  0  0
   -4.9264   -3.5670    1.6298 H   0  0  0  0  0  0  0  0  0  0  0  0
   -5.2041   -1.2875    1.1309 H   0  0  0  0  0  0  0  0  0  0  0  0
   -5.2613   -1.6709   -0.6019 H   0  0  0  0  0  0  0  0  0  0  0  0
    3.1863    0.5754    2.8327 H   0  0  0  0  0  0  0  0  0  0  0  0
    5.4798    1.4258    2.4648 H   0  0  0  0  0  0  0  0  0  0  0  0
    6.2792    1.9149    0.1788 H   0  0  0  0  0  0  0  0  0  0  0  0
    2.4445    0.6918   -1.4195 H   0  0  0  0  0  0  0  0  0  0  0  0
  1  2  2  0
  2  3  1  0
  3  4  1  0
  4  5  2  0
  5  6  1  0
  6  7  2  0
  7  8  1  0
  8  9  2  0
  9 10  1  0
 10 11  2  0
  5 12  1  0
 12 13  2  0
 12 14  1  0
 14 15  1  0
 15 16  2  0
 16 17  1  0
 17 18  2  0
 18 19  1  0
 19 20  2  0
 16 21  1  0
 21 22  1  0
  2 23  1  0
 23 24  2  0
 24 25  1  0
 25 26  2  0
 26 27  1  0
 27 28  1  0
 28 29  2  0
 28 30  1  0
 27 31  2  0
 20  4  1  0
 31 23  1  0
 11  6  1  0
 22 14  1  0
 20 15  1  0
  7 32  1  0
  8 33  1  0
  9 34  1  0
 10 35  1  0
 11 36  1  0
 17 37  1  0
 18 38  1  0
 19 39  1  0
 21 40  1  0
 21 41  1  0
 22 42  1  0
 22 43  1  0
 24 44  1  0
 25 45  1  0
 26 46  1  0
 31 47  1  0
M  CHG  2  28   1  30  -1
M  END
$$$$
