
     RDKit          3D

 37 39  0  0  0  0  0  0  0  0999 V2000
   -1.0520    4.6461    1.0342 C   0  0  0  0  0  0  0  0  0  0  0  0
    0.5082    4.1561    0.2525 S   0  0  0  0  0  0  0  0  0  0  0  0
    0.2512    2.3947    0.0891 C   0  0  0  0  0  0  0  0  0  0  0  0
    1.1541    1.6631   -0.6517 C   0  0  0  0  0  0  0  0  0  0  0  0
    0.9440    0.3010   -0.7462 C   0  0  0  0  0  0  0  0  0  0  0  0
    1.8307   -0.4932   -1.5015 N   0  0  0  0  0  0  0  0  0  0  0  0
    3.2254   -0.4527   -1.0051 C   0  0  0  0  0  0  0  0  0  0  0  0
    4.1321   -1.2833   -1.9293 C   0  0  0  0  0  0  0  0  0  0  0  0
    3.6667   -2.6361   -2.0527 O   0  0  0  0  0  0  0  0  0  0  0  0
    2.3332   -2.6512   -2.5893 C   0  0  0  0  0  0  0  0  0  0  0  0
    1.3573   -1.8854   -1.6832 C   0  0  0  0  0  0  0  0  0  0  0  0
   -0.1216   -0.2670   -0.1585 N   0  0  0  0  0  0  0  0  0  0  0  0
   -0.9622    0.5252    0.5329 C   0  0  0  0  0  0  0  0  0  0  0  0
   -2.0853   -0.1302    1.2130 C   0  0  0  0  0  0  0  0  0  0  0  0
   -1.8443   -1.3068    1.9569 C   0  0  0  0  0  0  0  0  0  0  0  0
   -2.8683   -1.9674    2.6409 C   0  0  0  0  0  0  0  0  0  0  0  0
   -4.1648   -1.4695    2.5937 C   0  0  0  0  0  0  0  0  0  0  0  0
   -4.4354   -0.3182    1.8568 C   0  0  0  0  0  0  0  0  0  0  0  0
   -3.4087    0.3459    1.1688 C   0  0  0  0  0  0  0  0  0  0  0  0
   -3.8779    1.7273    0.2334 Cl  0  0  0  0  0  0  0  0  0  0  0  0
   -0.8012    1.8427    0.7065 N   0  0  0  0  0  0  0  0  0  0  0  0
   -1.0486    5.7297    1.1813 H   0  0  0  0  0  0  0  0  0  0  0  0
   -1.1659    4.1693    2.0116 H   0  0  0  0  0  0  0  0  0  0  0  0
   -1.9014    4.3905    0.3952 H   0  0  0  0  0  0  0  0  0  0  0  0
    1.9803    2.1431   -1.1585 H   0  0  0  0  0  0  0  0  0  0  0  0
    3.6159    0.5700   -0.9733 H   0  0  0  0  0  0  0  0  0  0  0  0
    3.2628   -0.8703    0.0095 H   0  0  0  0  0  0  0  0  0  0  0  0
    5.1464   -1.3181   -1.5194 H   0  0  0  0  0  0  0  0  0  0  0  0
    4.1906   -0.8348   -2.9284 H   0  0  0  0  0  0  0  0  0  0  0  0
    2.3510   -2.2260   -3.6000 H   0  0  0  0  0  0  0  0  0  0  0  0
    2.0215   -3.6972   -2.6716 H   0  0  0  0  0  0  0  0  0  0  0  0
    0.3642   -1.9005   -2.1482 H   0  0  0  0  0  0  0  0  0  0  0  0
    1.3058   -2.3938   -0.7112 H   0  0  0  0  0  0  0  0  0  0  0  0
   -0.8339   -1.7126    2.0080 H   0  0  0  0  0  0  0  0  0  0  0  0
   -2.6489   -2.8686    3.2083 H   0  0  0  0  0  0  0  0  0  0  0  0
   -4.9661   -1.9792    3.1227 H   0  0  0  0  0  0  0  0  0  0  0  0
   -5.4551    0.0575    1.8129 H   0  0  0  0  0  0  0  0  0  0  0  0
  1  2  1  0
  2  3  1  0
  3  4  2  0
  4  5  1  0
  5  6  1  0
  6  7  1  0
  7  8  1  0
  8  9  1  0
  9 10  1  0
 10 11  1  0
  5 12  2  0
 12 13  1  0
 13 14  1  0
 14 15  2  0
 15 16  1  0
 16 17  2  0
 17 18  1  0
 18 19  2  0
 19 20  1  0
 13 21  2  0
 21  3  1  0
 11  6  1  0
 19 14  1  0
  1 22  1  0
  1 23  1  0
  1 24  1  0
  4 25  1  0
  7 26  1  0
  7 27  1  0
  8 28  1  0
  8 29  1  0
 10 30  1  0
 10 31  1  0
 11 32  1  0
 11 33  1  0
 15 34  1  0
 16 35  1  0
 17 36  1  0
 18 37  1  0
M  END
$$$$
