
     RDKit          3D

 40 41  0  0  0  0  0  0  0  0999 V2000
    3.8489    0.5784   -6.0034 C   0  0  0  0  0  0  0  0  0  0  0  0
    4.9228    0.5383   -4.9251 C   0  0  0  0  0  0  0  0  0  0  0  0
    4.5383   -0.3555   -3.7477 C   0  0  0  0  0  0  0  0  0  0  0  0
    3.4781    0.2491   -2.8356 C   0  0  0  0  0  0  0  0  0  0  0  0
    3.0844    1.4022   -2.9613 O   0  0  0  0  0  0  0  0  0  0  0  0
    3.0661   -0.6597   -1.8723 N   0  0  0  0  0  0  0  0  0  0  0  0
    2.1074   -0.4621   -0.8578 C   0  0  0  0  0  0  0  0  0  0  0  0
    1.8623   -1.5359    0.0069 C   0  0  0  0  0  0  0  0  0  0  0  0
    0.9253   -1.4220    1.0395 C   0  0  0  0  0  0  0  0  0  0  0  0
    0.2118   -0.2322    1.2178 C   0  0  0  0  0  0  0  0  0  0  0  0
   -0.7730   -0.1592    2.3319 C   0  0  0  0  0  0  0  0  0  0  0  0
   -0.7223   -0.9476    3.2740 O   0  0  0  0  0  0  0  0  0  0  0  0
   -1.7559    0.8086    2.2332 N   0  0  0  0  0  0  0  0  0  0  0  0
   -2.8235    0.7138    3.1523 N   0  0  0  0  0  0  0  0  0  0  0  0
   -4.1084    0.9006    2.6587 C   0  0  0  0  0  0  0  0  0  0  0  0
   -4.2696    1.3418    1.5180 O   0  0  0  0  0  0  0  0  0  0  0  0
   -5.1826    0.5277    3.5697 C   0  0  0  0  0  0  0  0  0  0  0  0
   -5.1400    0.1721    4.9080 C   0  0  0  0  0  0  0  0  0  0  0  0
   -6.4303   -0.1267    5.4392 C   0  0  0  0  0  0  0  0  0  0  0  0
   -7.4206    0.0137    4.4952 C   0  0  0  0  0  0  0  0  0  0  0  0
   -6.7980    0.5060    2.9830 S   0  0  0  0  0  0  0  0  0  0  0  0
    0.4622    0.8473    0.3649 C   0  0  0  0  0  0  0  0  0  0  0  0
    1.4026    0.7282   -0.6679 C   0  0  0  0  0  0  0  0  0  0  0  0
    4.1794    1.2018   -6.8404 H   0  0  0  0  0  0  0  0  0  0  0  0
    3.6453   -0.4253   -6.3902 H   0  0  0  0  0  0  0  0  0  0  0  0
    2.9117    0.9956   -5.6235 H   0  0  0  0  0  0  0  0  0  0  0  0
    5.1360    1.5576   -4.5831 H   0  0  0  0  0  0  0  0  0  0  0  0
    5.8461    0.1516   -5.3726 H   0  0  0  0  0  0  0  0  0  0  0  0
    4.1883   -1.3284   -4.1123 H   0  0  0  0  0  0  0  0  0  0  0  0
    5.4299   -0.5275   -3.1323 H   0  0  0  0  0  0  0  0  0  0  0  0
    3.5039   -1.5723   -1.8963 H   0  0  0  0  0  0  0  0  0  0  0  0
    2.3955   -2.4767   -0.1049 H   0  0  0  0  0  0  0  0  0  0  0  0
    0.7535   -2.2682    1.7025 H   0  0  0  0  0  0  0  0  0  0  0  0
   -2.0074    1.2146    1.3312 H   0  0  0  0  0  0  0  0  0  0  0  0
   -2.6536    0.0808    3.9315 H   0  0  0  0  0  0  0  0  0  0  0  0
   -4.2336    0.1310    5.4996 H   0  0  0  0  0  0  0  0  0  0  0  0
   -6.6211   -0.4255    6.4630 H   0  0  0  0  0  0  0  0  0  0  0  0
   -8.4833   -0.1447    4.6195 H   0  0  0  0  0  0  0  0  0  0  0  0
   -0.0406    1.8023    0.4914 H   0  0  0  0  0  0  0  0  0  0  0  0
    1.5643    1.5936   -1.3042 H   0  0  0  0  0  0  0  0  0  0  0  0
  1  2  1  0
  2  3  1  0
  3  4  1  0
  4  5  2  0
  4  6  1  0
  6  7  1  0
  7  8  2  0
  8  9  1  0
  9 10  2  0
 10 11  1  0
 11 12  2  0
 11 13  1  0
 13 14  1  0
 14 15  1  0
 15 16  2  0
 15 17  1  0
 17 18  2  0
 18 19  1  0
 19 20  2  0
 20 21  1  0
 10 22  1  0
 22 23  2  0
 23  7  1  0
 21 17  1  0
  1 24  1  0
  1 25  1  0
  1 26  1  0
  2 27  1  0
  2 28  1  0
  3 29  1  0
  3 30  1  0
  6 31  1  0
  8 32  1  0
  9 33  1  0
 13 34  1  0
 14 35  1  0
 18 36  1  0
 19 37  1  0
 20 38  1  0
 22 39  1  0
 23 40  1  0
M  END
$$$$
