
     RDKit          3D

 43 43  0  0  0  0  0  0  0  0999 V2000
   -1.4202    2.6245    0.7308 C   0  0  0  0  0  0  0  0  0  0  0  0
   -1.7206    1.7890   -0.4747 C   0  0  0  0  0  0  0  0  0  0  0  0
   -0.7623    2.2097   -1.8637 Cl  0  0  0  0  0  0  0  0  0  0  0  0
   -2.5995    0.7786   -0.5940 C   0  0  0  0  0  0  0  0  0  0  0  0
   -3.5313    0.2566    0.4487 C   0  0  0  0  0  0  0  0  0  0  0  0
   -3.2582   -1.1723    0.9425 N   0  0  0  0  0  4  0  0  0  0  0  0
   -3.5609   -2.1980   -0.1505 C   0  0  0  0  0  0  0  0  0  0  0  0
   -4.1988   -1.4560    2.1161 C   0  0  0  0  0  0  0  0  0  0  0  0
   -1.7872   -1.3234    1.4750 C   0  0  0  0  0  0  0  0  0  0  0  0
   -0.6675   -1.3795    0.4385 C   0  0  0  0  0  0  0  0  0  0  0  0
   -0.7262   -2.0223   -0.6005 O   0  0  0  0  0  0  0  0  0  0  0  0
    0.3920   -0.6322    0.8483 O   0  0  0  0  0  0  0  0  0  0  0  0
    1.4956   -0.6023   -0.0768 C   0  0  0  0  0  0  0  0  0  0  0  0
    2.4914    0.4527    0.3973 C   0  0  0  0  0  0  0  0  0  0  0  0
    3.6662    0.5761   -0.5338 C   0  0  0  0  0  0  0  0  0  0  0  0
    4.8271   -0.1783   -0.3181 C   0  0  0  0  0  0  0  0  0  0  0  0
    5.9074   -0.0781   -1.1960 C   0  0  0  0  0  0  0  0  0  0  0  0
    5.8361    0.7723   -2.2974 C   0  0  0  0  0  0  0  0  0  0  0  0
    4.6846    1.5236   -2.5230 C   0  0  0  0  0  0  0  0  0  0  0  0
    3.6029    1.4257   -1.6468 C   0  0  0  0  0  0  0  0  0  0  0  0
   -1.9619    2.2968    1.6210 H   0  0  0  0  0  0  0  0  0  0  0  0
   -1.6880    3.6700    0.5459 H   0  0  0  0  0  0  0  0  0  0  0  0
   -0.3528    2.5790    0.9721 H   0  0  0  0  0  0  0  0  0  0  0  0
   -2.6857    0.3029   -1.5715 H   0  0  0  0  0  0  0  0  0  0  0  0
   -4.5533    0.2590    0.0494 H   0  0  0  0  0  0  0  0  0  0  0  0
   -3.5386    0.8932    1.3388 H   0  0  0  0  0  0  0  0  0  0  0  0
   -3.0437   -1.9257   -1.0710 H   0  0  0  0  0  0  0  0  0  0  0  0
   -3.2443   -3.1829    0.2044 H   0  0  0  0  0  0  0  0  0  0  0  0
   -4.6401   -2.1913   -0.3338 H   0  0  0  0  0  0  0  0  0  0  0  0
   -4.0494   -2.4909    2.4382 H   0  0  0  0  0  0  0  0  0  0  0  0
   -3.9569   -0.7649    2.9291 H   0  0  0  0  0  0  0  0  0  0  0  0
   -5.2293   -1.3059    1.7805 H   0  0  0  0  0  0  0  0  0  0  0  0
   -1.7508   -2.2574    2.0473 H   0  0  0  0  0  0  0  0  0  0  0  0
   -1.6301   -0.4830    2.1607 H   0  0  0  0  0  0  0  0  0  0  0  0
    1.9651   -1.5930   -0.0987 H   0  0  0  0  0  0  0  0  0  0  0  0
    1.1322   -0.3570   -1.0821 H   0  0  0  0  0  0  0  0  0  0  0  0
    2.8339    0.2125    1.4121 H   0  0  0  0  0  0  0  0  0  0  0  0
    1.9887    1.4235    0.4956 H   0  0  0  0  0  0  0  0  0  0  0  0
    4.9034   -0.8475    0.5359 H   0  0  0  0  0  0  0  0  0  0  0  0
    6.8075   -0.6625   -1.0210 H   0  0  0  0  0  0  0  0  0  0  0  0
    6.6792    0.8507   -2.9795 H   0  0  0  0  0  0  0  0  0  0  0  0
    4.6311    2.1874   -3.3825 H   0  0  0  0  0  0  0  0  0  0  0  0
    2.7131    2.0206   -1.8408 H   0  0  0  0  0  0  0  0  0  0  0  0
  1  2  1  0
  2  3  1  0
  2  4  2  3
  4  5  1  0
  5  6  1  0
  6  7  1  0
  6  8  1  0
  6  9  1  0
  9 10  1  0
 10 11  2  0
 10 12  1  0
 12 13  1  0
 13 14  1  0
 14 15  1  0
 15 16  2  0
 16 17  1  0
 17 18  2  0
 18 19  1  0
 19 20  2  0
 20 15  1  0
  1 21  1  0
  1 22  1  0
  1 23  1  0
  4 24  1  0
  5 25  1  0
  5 26  1  0
  7 27  1  0
  7 28  1  0
  7 29  1  0
  8 30  1  0
  8 31  1  0
  8 32  1  0
  9 33  1  0
  9 34  1  0
 13 35  1  0
 13 36  1  0
 14 37  1  0
 14 38  1  0
 16 39  1  0
 17 40  1  0
 18 41  1  0
 19 42  1  0
 20 43  1  0
M  CHG  1   6   1
M  END
$$$$
