
     RDKit          3D

 59 62  0  0  0  0  0  0  0  0999 V2000
   -2.1068    1.8430   -2.7965 C   0  0  0  0  0  0  0  0  0  0  0  0
   -2.1242    0.6029   -2.0769 O   0  0  0  0  0  0  0  0  0  0  0  0
   -3.4184    0.2189   -1.8156 C   0  0  0  0  0  0  0  0  0  0  0  0
   -4.0383   -0.6678   -2.7178 C   0  0  0  0  0  0  0  0  0  0  0  0
   -3.3261   -1.1721   -3.9420 C   0  0  0  0  0  0  0  0  0  0  0  0
   -5.3673   -1.0521   -2.4869 C   0  0  0  0  0  0  0  0  0  0  0  0
   -6.0463   -0.5923   -1.3606 C   0  0  0  0  0  0  0  0  0  0  0  0
   -7.8384   -1.1224   -1.0677 Br  0  0  0  0  0  0  0  0  0  0  0  0
   -5.4146    0.2445   -0.4439 C   0  0  0  0  0  0  0  0  0  0  0  0
   -4.0853    0.6474   -0.6509 C   0  0  0  0  0  0  0  0  0  0  0  0
   -3.4725    1.5187    0.4045 C   0  0  0  0  0  0  0  0  0  0  0  0
   -4.2240    2.1269    1.1616 O   0  0  0  0  0  0  0  0  0  0  0  0
   -2.0975    1.5360    0.4458 N   0  0  0  0  0  0  0  0  0  0  0  0
   -1.2390    2.2763    1.2879 C   0  0  0  0  0  0  0  0  0  0  0  0
   -1.6962    3.1601    2.2672 C   0  0  0  0  0  0  0  0  0  0  0  0
   -0.7868    3.9002    3.0222 C   0  0  0  0  0  0  0  0  0  0  0  0
    0.5788    3.7623    2.7982 C   0  0  0  0  0  0  0  0  0  0  0  0
    1.0447    2.8759    1.8234 C   0  0  0  0  0  0  0  0  0  0  0  0
    0.1553    2.1091    1.0598 C   0  0  0  0  0  0  0  0  0  0  0  0
    0.5783    1.1732    0.0969 N   0  0  0  0  0  0  0  0  0  0  0  0
    1.6999    1.5156   -0.8011 C   0  0  0  0  0  0  0  0  0  0  0  0
    3.0748    1.0249   -0.3152 C   0  0  0  0  0  0  0  0  0  0  0  0
    3.0655   -0.3403    0.2174 N   0  0  0  0  0  0  0  0  0  0  0  0
    4.3105   -0.9672    0.3214 C   0  0  0  0  0  0  0  0  0  0  0  0
    5.3619   -0.4452   -0.0431 O   0  0  0  0  0  0  0  0  0  0  0  0
    4.3786   -2.3361    0.8785 C   0  0  0  0  0  0  0  0  0  0  0  0
    5.2702   -2.5958    1.9245 C   0  0  0  0  0  0  0  0  0  0  0  0
    5.3675   -3.8870    2.4450 C   0  0  0  0  0  0  0  0  0  0  0  0
    4.5874   -4.9152    1.9110 C   0  0  0  0  0  0  0  0  0  0  0  0
    3.7148   -4.6598    0.8502 C   0  0  0  0  0  0  0  0  0  0  0  0
    3.6134   -3.3701    0.3256 C   0  0  0  0  0  0  0  0  0  0  0  0
    1.9690   -0.6159    1.1600 C   0  0  0  0  0  0  0  0  0  0  0  0
    0.5996   -0.2252    0.5832 C   0  0  0  0  0  0  0  0  0  0  0  0
   -2.6609    2.6261   -2.2698 H   0  0  0  0  0  0  0  0  0  0  0  0
   -2.5072    1.7137   -3.8061 H   0  0  0  0  0  0  0  0  0  0  0  0
   -1.0651    2.1639   -2.8820 H   0  0  0  0  0  0  0  0  0  0  0  0
   -2.2855   -1.4269   -3.7125 H   0  0  0  0  0  0  0  0  0  0  0  0
   -3.3483   -0.4126   -4.7288 H   0  0  0  0  0  0  0  0  0  0  0  0
   -3.7991   -2.0810   -4.3283 H   0  0  0  0  0  0  0  0  0  0  0  0
   -5.8713   -1.7141   -3.1890 H   0  0  0  0  0  0  0  0  0  0  0  0
   -5.9512    0.5815    0.4410 H   0  0  0  0  0  0  0  0  0  0  0  0
   -1.5877    1.0014   -0.2558 H   0  0  0  0  0  0  0  0  0  0  0  0
   -2.7549    3.3009    2.4560 H   0  0  0  0  0  0  0  0  0  0  0  0
   -1.1499    4.5886    3.7808 H   0  0  0  0  0  0  0  0  0  0  0  0
    1.2867    4.3408    3.3871 H   0  0  0  0  0  0  0  0  0  0  0  0
    2.1165    2.7875    1.6975 H   0  0  0  0  0  0  0  0  0  0  0  0
    1.7286    2.5914   -1.0109 H   0  0  0  0  0  0  0  0  0  0  0  0
    1.4899    1.0276   -1.7616 H   0  0  0  0  0  0  0  0  0  0  0  0
    3.7858    1.0861   -1.1482 H   0  0  0  0  0  0  0  0  0  0  0  0
    3.4680    1.6723    0.4749 H   0  0  0  0  0  0  0  0  0  0  0  0
    5.8896   -1.7966    2.3265 H   0  0  0  0  0  0  0  0  0  0  0  0
    6.0580   -4.0938    3.2598 H   0  0  0  0  0  0  0  0  0  0  0  0
    4.6698   -5.9225    2.3143 H   0  0  0  0  0  0  0  0  0  0  0  0
    3.1236   -5.4687    0.4270 H   0  0  0  0  0  0  0  0  0  0  0  0
    2.9516   -3.1761   -0.5149 H   0  0  0  0  0  0  0  0  0  0  0  0
    1.9480   -1.6676    1.4502 H   0  0  0  0  0  0  0  0  0  0  0  0
    2.1812   -0.0416    2.0698 H   0  0  0  0  0  0  0  0  0  0  0  0
    0.3776   -0.8753   -0.2719 H   0  0  0  0  0  0  0  0  0  0  0  0
   -0.1825   -0.4122    1.3287 H   0  0  0  0  0  0  0  0  0  0  0  0
  1  2  1  0
  2  3  1  0
  3  4  2  0
  4  5  1  0
  4  6  1  0
  6  7  2  0
  7  8  1  0
  7  9  1  0
  9 10  2  0
 10 11  1  0
 11 12  2  0
 11 13  1  0
 13 14  1  0
 14 15  2  0
 15 16  1  0
 16 17  2  0
 17 18  1  0
 18 19  2  0
 19 20  1  0
 20 21  1  0
 21 22  1  0
 22 23  1  0
 23 24  1  0
 24 25  2  0
 24 26  1  0
 26 27  2  0
 27 28  1  0
 28 29  2  0
 29 30  1  0
 30 31  2  0
 23 32  1  0
 32 33  1  0
 10  3  1  0
 19 14  1  0
 33 20  1  0
 31 26  1  0
  1 34  1  0
  1 35  1  0
  1 36  1  0
  5 37  1  0
  5 38  1  0
  5 39  1  0
  6 40  1  0
  9 41  1  0
 13 42  1  0
 15 43  1  0
 16 44  1  0
 17 45  1  0
 18 46  1  0
 21 47  1  0
 21 48  1  0
 22 49  1  0
 22 50  1  0
 27 51  1  0
 28 52  1  0
 29 53  1  0
 30 54  1  0
 31 55  1  0
 32 56  1  0
 32 57  1  0
 33 58  1  0
 33 59  1  0
M  END
$$$$
