
     RDKit          3D

 37 39  0  0  0  0  0  0  0  0999 V2000
   -4.7866   -2.2114    1.2940 C   0  0  0  0  0  0  0  0  0  0  0  0
   -4.3602   -1.6446   -0.0486 C   0  0  0  0  0  0  0  0  0  0  0  0
   -4.1100   -0.2134    0.0120 N   0  0  0  0  0  0  0  0  0  0  0  0
   -5.1508    0.6221   -0.2155 N   0  0  0  0  0  0  0  0  0  0  0  0
   -4.6151    1.8366   -0.1025 C   0  0  0  0  0  0  0  0  0  0  0  0
   -3.2448    1.7748    0.1724 C   0  0  0  0  0  0  0  0  0  0  0  0
   -2.1926    3.2981    0.4543 Br  0  0  0  0  0  0  0  0  0  0  0  0
   -2.9093    0.4359    0.2256 C   0  0  0  0  0  0  0  0  0  0  0  0
   -1.6511   -0.2392    0.4827 C   0  0  0  0  0  0  0  0  0  0  0  0
   -1.6305   -1.3469    1.0060 O   0  0  0  0  0  0  0  0  0  0  0  0
   -0.5454    0.4639    0.0461 N   0  0  0  0  0  0  0  0  0  0  0  0
    0.7929    0.1045    0.1463 C   0  0  0  0  0  0  0  0  0  0  0  0
    1.2768   -1.2972    1.0053 S   0  0  0  0  0  0  0  0  0  0  0  0
    2.8755   -1.0049    0.6475 C   0  0  0  0  0  0  0  0  0  0  0  0
    3.0871    0.1258   -0.0914 C   0  0  0  0  0  0  0  0  0  0  0  0
    1.8737    0.8158   -0.3912 C   0  0  0  0  0  0  0  0  0  0  0  0
    1.6888    2.0491   -1.1520 C   0  0  0  0  0  0  0  0  0  0  0  0
    2.8020    2.8038   -1.3820 N   0  0  0  0  0  0  0  0  0  0  0  0
    0.5915    2.4354   -1.5460 O   0  0  0  0  0  0  0  0  0  0  0  0
    4.5375    0.2867   -0.3825 C   0  0  0  0  0  0  0  0  0  0  0  0
    5.1192   -1.1105   -0.0038 C   0  0  0  0  0  0  0  0  0  0  0  0
    4.1027   -1.7654    0.9763 C   0  0  0  0  0  0  0  0  0  0  0  0
   -4.9646   -3.2880    1.2120 H   0  0  0  0  0  0  0  0  0  0  0  0
   -4.0217   -2.0485    2.0599 H   0  0  0  0  0  0  0  0  0  0  0  0
   -5.7108   -1.7393    1.6442 H   0  0  0  0  0  0  0  0  0  0  0  0
   -3.4639   -2.1423   -0.4291 H   0  0  0  0  0  0  0  0  0  0  0  0
   -5.1497   -1.8060   -0.7923 H   0  0  0  0  0  0  0  0  0  0  0  0
   -5.2512    2.7044   -0.2196 H   0  0  0  0  0  0  0  0  0  0  0  0
   -0.7113    1.3253   -0.4730 H   0  0  0  0  0  0  0  0  0  0  0  0
    2.6411    3.7165   -1.7864 H   0  0  0  0  0  0  0  0  0  0  0  0
    3.6455    2.6718   -0.8467 H   0  0  0  0  0  0  0  0  0  0  0  0
    4.9719    1.0630    0.2562 H   0  0  0  0  0  0  0  0  0  0  0  0
    4.7375    0.5214   -1.4315 H   0  0  0  0  0  0  0  0  0  0  0  0
    6.1248   -1.0412    0.4225 H   0  0  0  0  0  0  0  0  0  0  0  0
    5.1875   -1.7253   -0.9112 H   0  0  0  0  0  0  0  0  0  0  0  0
    4.4020   -1.5910    2.0148 H   0  0  0  0  0  0  0  0  0  0  0  0
    4.0116   -2.8396    0.7944 H   0  0  0  0  0  0  0  0  0  0  0  0
  1  2  1  0
  2  3  1  0
  3  4  1  0
  4  5  2  0
  5  6  1  0
  6  7  1  0
  6  8  2  0
  8  9  1  0
  9 10  2  0
  9 11  1  0
 11 12  1  0
 12 13  1  0
 13 14  1  0
 14 15  2  0
 15 16  1  0
 16 17  1  0
 17 18  1  0
 17 19  2  0
 15 20  1  0
 20 21  1  0
 21 22  1  0
  8  3  1  0
 16 12  2  0
 22 14  1  0
  1 23  1  0
  1 24  1  0
  1 25  1  0
  2 26  1  0
  2 27  1  0
  5 28  1  0
 11 29  1  0
 18 30  1  0
 18 31  1  0
 20 32  1  0
 20 33  1  0
 21 34  1  0
 21 35  1  0
 22 36  1  0
 22 37  1  0
M  END
$$$$
