
     RDKit          3D

 45 48  0  0  0  0  0  0  0  0999 V2000
    4.5894    0.0710    2.5157 C   0  0  0  0  0  0  0  0  0  0  0  0
    4.4723   -0.6402    1.1794 C   0  0  0  0  0  0  0  0  0  0  0  0
    3.1767   -0.3653    0.6526 O   0  0  0  0  0  0  0  0  0  0  0  0
    2.8501   -0.8779   -0.5788 C   0  0  0  0  0  0  0  0  0  0  0  0
    3.7055   -1.7041   -1.3237 C   0  0  0  0  0  0  0  0  0  0  0  0
    3.3017   -2.2271   -2.5534 C   0  0  0  0  0  0  0  0  0  0  0  0
    2.0389   -1.9364   -3.0514 C   0  0  0  0  0  0  0  0  0  0  0  0
    1.1810   -1.1153   -2.3199 C   0  0  0  0  0  0  0  0  0  0  0  0
    1.5639   -0.5614   -1.0776 C   0  0  0  0  0  0  0  0  0  0  0  0
    0.6157    0.3089   -0.3581 C   0  0  0  0  0  0  0  0  0  0  0  0
    1.0992    1.4102    0.2570 N   0  0  0  0  0  0  0  0  0  0  0  0
    0.1979    2.1975    0.8909 C   0  0  0  0  0  0  0  0  0  0  0  0
    0.7330    3.3983    1.5889 C   0  0  0  0  0  0  0  0  0  0  0  0
    2.0925    3.5480    1.5384 N   0  0  0  0  0  0  0  0  0  0  0  0
    0.0108    4.1965    2.1728 O   0  0  0  0  0  0  0  0  0  0  0  0
   -1.1334    1.9113    0.8928 C   0  0  0  0  0  0  0  0  0  0  0  0
   -2.2330    2.5559    1.4354 N   0  0  0  0  0  0  0  0  0  0  0  0
   -3.3839    1.8250    1.1128 C   0  0  0  0  0  0  0  0  0  0  0  0
   -4.5047    2.1565    1.4627 O   0  0  0  0  0  0  0  0  0  0  0  0
   -2.9488    0.6941    0.3545 N   0  0  0  0  0  0  0  0  0  0  0  0
   -3.7639   -0.3318   -0.1967 C   0  0  0  0  0  0  0  0  0  0  0  0
   -5.1657   -0.2014   -0.2011 C   0  0  0  0  0  0  0  0  0  0  0  0
   -5.9973   -1.1932   -0.7372 C   0  0  0  0  0  0  0  0  0  0  0  0
   -5.4375   -2.3382   -1.2765 C   0  0  0  0  0  0  0  0  0  0  0  0
   -6.2285   -3.2888   -1.7895 F   0  0  0  0  0  0  0  0  0  0  0  0
   -4.0635   -2.5082   -1.2856 C   0  0  0  0  0  0  0  0  0  0  0  0
   -3.2356   -1.5128   -0.7485 C   0  0  0  0  0  0  0  0  0  0  0  0
   -1.5376    0.7771    0.2312 C   0  0  0  0  0  0  0  0  0  0  0  0
   -0.6926   -0.0333   -0.4141 N   0  0  0  0  0  0  0  0  0  0  0  0
    5.5687   -0.1078    2.9683 H   0  0  0  0  0  0  0  0  0  0  0  0
    4.4485    1.1499    2.3916 H   0  0  0  0  0  0  0  0  0  0  0  0
    3.8121   -0.2741    3.2055 H   0  0  0  0  0  0  0  0  0  0  0  0
    5.2478   -0.2604    0.5044 H   0  0  0  0  0  0  0  0  0  0  0  0
    4.5985   -1.7176    1.3349 H   0  0  0  0  0  0  0  0  0  0  0  0
    4.6966   -1.9692   -0.9703 H   0  0  0  0  0  0  0  0  0  0  0  0
    3.9745   -2.8676   -3.1187 H   0  0  0  0  0  0  0  0  0  0  0  0
    1.7188   -2.3455   -4.0064 H   0  0  0  0  0  0  0  0  0  0  0  0
    0.1952   -0.8967   -2.7298 H   0  0  0  0  0  0  0  0  0  0  0  0
    2.5297    4.3280    2.0075 H   0  0  0  0  0  0  0  0  0  0  0  0
    2.6607    2.8494    1.0691 H   0  0  0  0  0  0  0  0  0  0  0  0
   -2.2132    3.4169    1.9695 H   0  0  0  0  0  0  0  0  0  0  0  0
   -5.6576    0.6813    0.1979 H   0  0  0  0  0  0  0  0  0  0  0  0
   -7.0757   -1.0689   -0.7335 H   0  0  0  0  0  0  0  0  0  0  0  0
   -3.6362   -3.4146   -1.7027 H   0  0  0  0  0  0  0  0  0  0  0  0
   -2.1711   -1.7179   -0.7605 H   0  0  0  0  0  0  0  0  0  0  0  0
  1  2  1  0
  2  3  1  0
  3  4  1  0
  4  5  2  0
  5  6  1  0
  6  7  2  0
  7  8  1  0
  8  9  2  0
  9 10  1  0
 10 11  2  0
 11 12  1  0
 12 13  1  0
 13 14  1  0
 13 15  2  0
 12 16  2  0
 16 17  1  0
 17 18  1  0
 18 19  2  0
 18 20  1  0
 20 21  1  0
 21 22  2  0
 22 23  1  0
 23 24  2  0
 24 25  1  0
 24 26  1  0
 26 27  2  0
 20 28  1  0
 28 29  2  0
  9  4  1  0
 29 10  1  0
 28 16  1  0
 27 21  1  0
  1 30  1  0
  1 31  1  0
  1 32  1  0
  2 33  1  0
  2 34  1  0
  5 35  1  0
  6 36  1  0
  7 37  1  0
  8 38  1  0
 14 39  1  0
 14 40  1  0
 17 41  1  0
 22 42  1  0
 23 43  1  0
 26 44  1  0
 27 45  1  0
M  END
$$$$
