
     RDKit          3D

 47 51  0  0  0  0  0  0  0  0999 V2000
   -0.1993   -1.4652   -2.3937 C   0  0  0  0  0  0  0  0  0  0  0  0
   -1.1415   -0.5348   -1.6951 C   0  0  0  0  0  0  0  0  0  0  0  0
   -2.2298   -0.1495   -2.3139 N   0  0  0  0  0  0  0  0  0  0  0  0
   -3.0683    0.6978   -1.6444 C   0  0  0  0  0  0  0  0  0  0  0  0
   -4.5257    1.2731   -2.3294 S   0  0  0  0  0  0  0  0  0  0  0  0
   -4.9017    2.1752   -0.9274 C   0  0  0  0  0  0  0  0  0  0  0  0
   -3.9396    2.0666    0.0615 C   0  0  0  0  0  0  0  0  0  0  0  0
   -2.9066    1.2105   -0.3746 C   0  0  0  0  0  0  0  0  0  0  0  0
   -1.6221    0.7323    0.3066 C   0  0  0  0  0  0  0  0  0  0  0  0
   -1.1475    1.0063    1.4939 N   0  0  0  0  0  0  0  0  0  0  0  0
    0.0374    0.3231    1.6087 N   0  0  0  0  0  0  0  0  0  0  0  0
    0.2426   -0.3451    0.4905 C   0  0  0  0  0  0  0  0  0  0  0  0
    1.6365   -1.3280    0.2100 S   0  0  0  0  0  0  0  0  0  0  0  0
    2.3554   -1.3749    1.8793 C   0  0  0  0  0  0  0  0  0  0  0  0
    3.6188   -2.2128    1.8418 C   0  0  0  0  0  0  0  0  0  0  0  0
    3.6211   -3.4143    2.0974 O   0  0  0  0  0  0  0  0  0  0  0  0
    4.7523   -1.5098    1.4876 N   0  0  0  0  0  0  0  0  0  0  0  0
    5.9970   -2.1930    1.2159 C   0  0  0  0  0  0  0  0  0  0  0  0
    6.0507   -2.4990   -0.2343 C   0  0  0  0  0  0  0  0  0  0  0  0
    5.7098   -3.6085   -0.9800 C   0  0  0  0  0  0  0  0  0  0  0  0
    5.9781   -3.2796   -2.3300 C   0  0  0  0  0  0  0  0  0  0  0  0
    6.4596   -1.9915   -2.3225 C   0  0  0  0  0  0  0  0  0  0  0  0
    6.5025   -1.5057   -1.0549 O   0  0  0  0  0  0  0  0  0  0  0  0
   -0.7945   -0.1223   -0.3908 N   0  0  0  0  0  0  0  0  0  0  0  0
   -4.0642    2.7591    1.3827 C   0  0  0  0  0  0  0  0  0  0  0  0
   -5.1286    3.8680    1.3428 C   0  0  0  0  0  0  0  0  0  0  0  0
   -6.4086    3.4058    0.6299 C   0  0  0  0  0  0  0  0  0  0  0  0
   -6.1398    3.0123   -0.8318 C   0  0  0  0  0  0  0  0  0  0  0  0
    0.7740   -0.9895   -2.5351 H   0  0  0  0  0  0  0  0  0  0  0  0
   -0.1051   -2.4025   -1.8403 H   0  0  0  0  0  0  0  0  0  0  0  0
   -0.5919   -1.7094   -3.3866 H   0  0  0  0  0  0  0  0  0  0  0  0
    2.5960   -0.3646    2.2265 H   0  0  0  0  0  0  0  0  0  0  0  0
    1.6560   -1.8281    2.5893 H   0  0  0  0  0  0  0  0  0  0  0  0
    4.6338   -0.6094    1.0406 H   0  0  0  0  0  0  0  0  0  0  0  0
    6.8120   -1.5196    1.4992 H   0  0  0  0  0  0  0  0  0  0  0  0
    6.0752   -3.1058    1.8148 H   0  0  0  0  0  0  0  0  0  0  0  0
    5.3095   -4.5347   -0.5891 H   0  0  0  0  0  0  0  0  0  0  0  0
    5.8356   -3.9028   -3.2016 H   0  0  0  0  0  0  0  0  0  0  0  0
    6.7962   -1.3134   -3.0945 H   0  0  0  0  0  0  0  0  0  0  0  0
   -4.3424    2.0167    2.1410 H   0  0  0  0  0  0  0  0  0  0  0  0
   -3.1030    3.1910    1.6831 H   0  0  0  0  0  0  0  0  0  0  0  0
   -5.3628    4.1858    2.3651 H   0  0  0  0  0  0  0  0  0  0  0  0
   -4.7252    4.7445    0.8194 H   0  0  0  0  0  0  0  0  0  0  0  0
   -7.1622    4.2007    0.6604 H   0  0  0  0  0  0  0  0  0  0  0  0
   -6.8281    2.5469    1.1699 H   0  0  0  0  0  0  0  0  0  0  0  0
   -6.0019    3.9199   -1.4324 H   0  0  0  0  0  0  0  0  0  0  0  0
   -7.0096    2.4784   -1.2312 H   0  0  0  0  0  0  0  0  0  0  0  0
  1  2  1  0
  2  3  2  0
  3  4  1  0
  4  5  1  0
  5  6  1  0
  6  7  2  0
  7  8  1  0
  8  9  1  0
  9 10  2  0
 10 11  1  0
 11 12  2  0
 12 13  1  0
 13 14  1  0
 14 15  1  0
 15 16  2  0
 15 17  1  0
 17 18  1  0
 18 19  1  0
 19 20  2  0
 20 21  1  0
 21 22  2  0
 22 23  1  0
 12 24  1  0
  7 25  1  0
 25 26  1  0
 26 27  1  0
 27 28  1  0
 24  2  1  0
  8  4  2  0
 24  9  1  0
 28  6  1  0
 23 19  1  0
  1 29  1  0
  1 30  1  0
  1 31  1  0
 14 32  1  0
 14 33  1  0
 17 34  1  0
 18 35  1  0
 18 36  1  0
 20 37  1  0
 21 38  1  0
 22 39  1  0
 25 40  1  0
 25 41  1  0
 26 42  1  0
 26 43  1  0
 27 44  1  0
 27 45  1  0
 28 46  1  0
 28 47  1  0
M  END
$$$$
