
     RDKit          3D

 58 62  0  0  0  0  0  0  0  0999 V2000
    9.1995   -0.0703    2.1709 C   0  0  0  0  0  0  0  0  0  0  0  0
    8.4283   -0.2532    0.9900 O   0  0  0  0  0  0  0  0  0  0  0  0
    7.0681   -0.1915    1.1234 C   0  0  0  0  0  0  0  0  0  0  0  0
    6.3710    0.0403    2.3109 C   0  0  0  0  0  0  0  0  0  0  0  0
    4.9707    0.0794    2.3103 C   0  0  0  0  0  0  0  0  0  0  0  0
    4.2486   -0.1115    1.1321 C   0  0  0  0  0  0  0  0  0  0  0  0
    2.8433   -0.0479    1.1901 N   0  0  0  0  0  0  0  0  0  0  0  0
    2.1217   -0.2027    0.1073 C   0  0  0  0  0  0  0  0  0  0  0  0
    0.7394   -0.0914    0.2008 N   0  0  0  0  0  0  0  0  0  0  0  0
    0.0112    0.8512   -0.6511 C   0  0  0  0  0  0  0  0  0  0  0  0
   -1.4384    0.3628   -0.8944 C   0  0  0  0  0  0  0  0  0  0  0  0
   -2.1019   -0.2837    0.2625 N   0  0  0  0  0  0  0  0  0  0  0  0
   -3.5389    0.0135    0.3341 C   0  0  0  0  0  0  0  0  0  0  0  0
   -4.3272   -0.5832   -0.8467 C   0  0  0  0  0  0  0  0  0  0  0  0
   -5.8101   -0.2804   -0.7462 C   0  0  0  0  0  0  0  0  0  0  0  0
   -6.6069   -1.1224    0.0509 C   0  0  0  0  0  0  0  0  0  0  0  0
   -7.9734   -0.8898    0.1967 C   0  0  0  0  0  0  0  0  0  0  0  0
   -8.5668    0.1879   -0.4499 C   0  0  0  0  0  0  0  0  0  0  0  0
   -7.7925    1.0351   -1.2423 C   0  0  0  0  0  0  0  0  0  0  0  0
   -6.4091    0.8214   -1.4004 C   0  0  0  0  0  0  0  0  0  0  0  0
   -5.6179    1.7653   -2.2806 C   0  0  0  0  0  0  0  0  0  0  0  0
   -6.3318    2.8490   -2.7006 F   0  0  0  0  0  0  0  0  0  0  0  0
   -5.1596    1.1665   -3.4149 F   0  0  0  0  0  0  0  0  0  0  0  0
   -4.5185    2.2767   -1.6573 F   0  0  0  0  0  0  0  0  0  0  0  0
   -1.4091    0.0637    1.5143 C   0  0  0  0  0  0  0  0  0  0  0  0
    0.0880   -0.3335    1.5035 C   0  0  0  0  0  0  0  0  0  0  0  0
    2.8054   -0.5017   -1.1424 C   0  0  0  0  0  0  0  0  0  0  0  0
    2.3285   -0.8428   -2.3962 C   0  0  0  0  0  0  0  0  0  0  0  0
    3.4430   -1.0230   -3.2477 C   0  0  0  0  0  0  0  0  0  0  0  0
    4.5741   -0.8224   -2.4866 C   0  0  0  0  0  0  0  0  0  0  0  0
    4.1810   -0.5442   -1.1989 N   0  0  0  0  0  0  0  0  0  0  0  0
    4.9612   -0.3427   -0.0498 C   0  0  0  0  0  0  0  0  0  0  0  0
    6.3584   -0.3850   -0.0649 C   0  0  0  0  0  0  0  0  0  0  0  0
    8.9862   -0.8525    2.9069 H   0  0  0  0  0  0  0  0  0  0  0  0
    9.0414    0.9268    2.5950 H   0  0  0  0  0  0  0  0  0  0  0  0
   10.2556   -0.1512    1.8960 H   0  0  0  0  0  0  0  0  0  0  0  0
    6.8813    0.1955    3.2554 H   0  0  0  0  0  0  0  0  0  0  0  0
    4.4340    0.2623    3.2377 H   0  0  0  0  0  0  0  0  0  0  0  0
   -0.0075    1.8309   -0.1558 H   0  0  0  0  0  0  0  0  0  0  0  0
    0.4977    1.0089   -1.6180 H   0  0  0  0  0  0  0  0  0  0  0  0
   -1.4244   -0.3702   -1.7102 H   0  0  0  0  0  0  0  0  0  0  0  0
   -2.0113    1.2276   -1.2527 H   0  0  0  0  0  0  0  0  0  0  0  0
   -3.7060    1.0962    0.4031 H   0  0  0  0  0  0  0  0  0  0  0  0
   -3.9441   -0.4186    1.2588 H   0  0  0  0  0  0  0  0  0  0  0  0
   -3.9392   -0.2252   -1.8057 H   0  0  0  0  0  0  0  0  0  0  0  0
   -4.1886   -1.6726   -0.8702 H   0  0  0  0  0  0  0  0  0  0  0  0
   -6.1608   -1.9729    0.5647 H   0  0  0  0  0  0  0  0  0  0  0  0
   -8.5744   -1.5526    0.8144 H   0  0  0  0  0  0  0  0  0  0  0  0
   -9.6332    0.3689   -0.3393 H   0  0  0  0  0  0  0  0  0  0  0  0
   -8.2791    1.8722   -1.7423 H   0  0  0  0  0  0  0  0  0  0  0  0
   -1.4948    1.1430    1.7006 H   0  0  0  0  0  0  0  0  0  0  0  0
   -1.8832   -0.4410    2.3651 H   0  0  0  0  0  0  0  0  0  0  0  0
    0.5898    0.2250    2.3026 H   0  0  0  0  0  0  0  0  0  0  0  0
    0.1767   -1.4023    1.7326 H   0  0  0  0  0  0  0  0  0  0  0  0
    1.2872   -0.9544   -2.6675 H   0  0  0  0  0  0  0  0  0  0  0  0
    3.4254   -1.2852   -4.2978 H   0  0  0  0  0  0  0  0  0  0  0  0
    5.6166   -0.8805   -2.7643 H   0  0  0  0  0  0  0  0  0  0  0  0
    6.9154   -0.5673   -0.9781 H   0  0  0  0  0  0  0  0  0  0  0  0
  1  2  1  0
  2  3  1  0
  3  4  2  0
  4  5  1  0
  5  6  2  0
  6  7  1  0
  7  8  2  0
  8  9  1  0
  9 10  1  0
 10 11  1  0
 11 12  1  0
 12 13  1  0
 13 14  1  0
 14 15  1  0
 15 16  2  0
 16 17  1  0
 17 18  2  0
 18 19  1  0
 19 20  2  0
 20 21  1  0
 21 22  1  0
 21 23  1  0
 21 24  1  0
 12 25  1  0
 25 26  1  0
  8 27  1  0
 27 28  2  0
 28 29  1  0
 29 30  2  0
 30 31  1  0
 31 32  1  0
 32 33  2  0
 33  3  1  0
 32  6  1  0
 26  9  1  0
 31 27  1  0
 20 15  1  0
  1 34  1  0
  1 35  1  0
  1 36  1  0
  4 37  1  0
  5 38  1  0
 10 39  1  0
 10 40  1  0
 11 41  1  0
 11 42  1  0
 13 43  1  0
 13 44  1  0
 14 45  1  0
 14 46  1  0
 16 47  1  0
 17 48  1  0
 18 49  1  0
 19 50  1  0
 25 51  1  0
 25 52  1  0
 26 53  1  0
 26 54  1  0
 28 55  1  0
 29 56  1  0
 30 57  1  0
 33 58  1  0
M  END
$$$$
