
     RDKit          3D

 44 46  0  0  0  0  0  0  0  0999 V2000
   -3.5648   -2.7104   -2.8358 C   0  0  0  0  0  0  0  0  0  0  0  0
   -3.3355   -1.5301   -1.9322 C   0  0  0  0  0  0  0  0  0  0  0  0
   -4.2322   -0.4538   -1.9543 C   0  0  0  0  0  0  0  0  0  0  0  0
   -4.0321    0.6551   -1.1319 C   0  0  0  0  0  0  0  0  0  0  0  0
   -2.9269    0.7162   -0.2748 C   0  0  0  0  0  0  0  0  0  0  0  0
   -2.6781    1.9203    0.6178 C   0  0  0  0  0  0  0  0  0  0  0  0
   -2.4478    3.1919   -0.2025 C   0  0  0  0  0  0  0  0  0  0  0  0
   -3.8139    2.1179    1.6249 C   0  0  0  0  0  0  0  0  0  0  0  0
   -2.0285   -0.3656   -0.2555 C   0  0  0  0  0  0  0  0  0  0  0  0
   -2.2294   -1.4897   -1.0662 C   0  0  0  0  0  0  0  0  0  0  0  0
   -1.4078   -2.5858   -1.1080 O   0  0  0  0  0  0  0  0  0  0  0  0
   -0.4453   -2.7445   -0.0822 C   0  0  0  0  0  0  0  0  0  0  0  0
    0.8885   -2.0086   -0.2936 C   0  0  0  0  0  0  0  0  0  0  0  0
    1.1955   -1.5096   -1.3698 O   0  0  0  0  0  0  0  0  0  0  0  0
    1.6492   -1.9976    0.8593 N   0  0  0  0  0  0  0  0  0  0  0  0
    2.8828   -1.4194    1.0272 C   0  0  0  0  0  0  0  0  0  0  0  0
    3.5060   -1.4465    2.1858 N   0  0  0  0  0  0  0  0  0  0  0  0
    4.7279   -0.8028    2.1335 N   0  0  0  0  0  0  0  0  0  0  0  0
    4.9633   -0.3187    0.9343 C   0  0  0  0  0  0  0  0  0  0  0  0
    6.2775    0.4471    0.5918 C   0  0  0  0  0  0  0  0  0  0  0  0
    6.7705    1.5113    1.5396 C   0  0  0  0  0  0  0  0  0  0  0  0
    6.2117    1.9023    0.2031 C   0  0  0  0  0  0  0  0  0  0  0  0
    3.7353   -0.6212   -0.2133 S   0  0  0  0  0  0  0  0  0  0  0  0
   -3.6817   -3.6244   -2.2445 H   0  0  0  0  0  0  0  0  0  0  0  0
   -4.4717   -2.5867   -3.4370 H   0  0  0  0  0  0  0  0  0  0  0  0
   -2.7229   -2.8277   -3.5259 H   0  0  0  0  0  0  0  0  0  0  0  0
   -5.0934   -0.4696   -2.6186 H   0  0  0  0  0  0  0  0  0  0  0  0
   -4.7449    1.4754   -1.1758 H   0  0  0  0  0  0  0  0  0  0  0  0
   -1.7629    1.7424    1.1981 H   0  0  0  0  0  0  0  0  0  0  0  0
   -3.3375    3.4777   -0.7740 H   0  0  0  0  0  0  0  0  0  0  0  0
   -2.1899    4.0313    0.4523 H   0  0  0  0  0  0  0  0  0  0  0  0
   -1.6244    3.0555   -0.9123 H   0  0  0  0  0  0  0  0  0  0  0  0
   -4.7608    2.3649    1.1322 H   0  0  0  0  0  0  0  0  0  0  0  0
   -3.5769    2.9335    2.3168 H   0  0  0  0  0  0  0  0  0  0  0  0
   -3.9729    1.2100    2.2179 H   0  0  0  0  0  0  0  0  0  0  0  0
   -1.1632   -0.2929    0.3939 H   0  0  0  0  0  0  0  0  0  0  0  0
   -0.8696   -2.5088    0.9022 H   0  0  0  0  0  0  0  0  0  0  0  0
   -0.1977   -3.8129   -0.0566 H   0  0  0  0  0  0  0  0  0  0  0  0
    1.3028   -2.4383    1.7009 H   0  0  0  0  0  0  0  0  0  0  0  0
    7.0300   -0.1672    0.1091 H   0  0  0  0  0  0  0  0  0  0  0  0
    7.8401    1.5951    1.6920 H   0  0  0  0  0  0  0  0  0  0  0  0
    6.1807    1.7303    2.4231 H   0  0  0  0  0  0  0  0  0  0  0  0
    5.2478    2.3984    0.1853 H   0  0  0  0  0  0  0  0  0  0  0  0
    6.9032    2.2564   -0.5534 H   0  0  0  0  0  0  0  0  0  0  0  0
  1  2  1  0
  2  3  2  0
  3  4  1  0
  4  5  2  0
  5  6  1  0
  6  7  1  0
  6  8  1  0
  5  9  1  0
  9 10  2  0
 10 11  1  0
 11 12  1  0
 12 13  1  0
 13 14  2  0
 13 15  1  0
 15 16  1  0
 16 17  2  0
 17 18  1  0
 18 19  2  0
 19 20  1  0
 20 21  1  0
 21 22  1  0
 19 23  1  0
 10  2  1  0
 23 16  1  0
 22 20  1  0
  1 24  1  0
  1 25  1  0
  1 26  1  0
  3 27  1  0
  4 28  1  0
  6 29  1  0
  7 30  1  0
  7 31  1  0
  7 32  1  0
  8 33  1  0
  8 34  1  0
  8 35  1  0
  9 36  1  0
 12 37  1  0
 12 38  1  0
 15 39  1  0
 20 40  1  0
 21 41  1  0
 21 42  1  0
 22 43  1  0
 22 44  1  0
M  END
$$$$
