
     RDKit          3D

 58 62  0  0  0  0  0  0  0  0999 V2000
    7.7976    0.9605    3.4283 C   0  0  0  0  0  0  0  0  0  0  0  0
    6.5523    0.4437    3.8808 O   0  0  0  0  0  0  0  0  0  0  0  0
    5.4704    0.5734    3.0443 C   0  0  0  0  0  0  0  0  0  0  0  0
    5.5503    0.9887    1.7109 C   0  0  0  0  0  0  0  0  0  0  0  0
    4.3918    1.0887    0.9323 C   0  0  0  0  0  0  0  0  0  0  0  0
    3.1354    0.7748    1.4669 C   0  0  0  0  0  0  0  0  0  0  0  0
    1.9451    0.9036    0.6291 C   0  0  0  0  0  0  0  0  0  0  0  0
    1.8435    1.3263   -0.6167 N   0  0  0  0  0  0  0  0  0  0  0  0
    0.4920    1.2399   -0.9099 C   0  0  0  0  0  0  0  0  0  0  0  0
    0.0424    1.6606   -2.2666 C   0  0  0  0  0  0  0  0  0  0  0  0
   -1.3705    1.4378   -2.5247 N   0  0  0  0  0  0  0  0  0  0  0  0
   -1.9606    0.2903   -2.9997 C   0  0  0  0  0  0  0  0  0  0  0  0
   -1.0758   -1.1739   -3.2723 S   0  0  0  0  0  0  0  0  0  0  0  0
   -2.3726   -2.2953   -3.8866 C   0  0  0  0  0  0  0  0  0  0  0  0
   -3.0622   -3.0645   -2.7778 C   0  0  0  0  0  0  0  0  0  0  0  0
   -2.5122   -4.2625   -2.2872 C   0  0  0  0  0  0  0  0  0  0  0  0
   -3.1598   -4.9929   -1.2812 C   0  0  0  0  0  0  0  0  0  0  0  0
   -4.3554   -4.5256   -0.7396 C   0  0  0  0  0  0  0  0  0  0  0  0
   -4.8900   -3.3282   -1.2037 C   0  0  0  0  0  0  0  0  0  0  0  0
   -6.0372   -2.8783   -0.6747 F   0  0  0  0  0  0  0  0  0  0  0  0
   -4.2624   -2.5989   -2.2128 C   0  0  0  0  0  0  0  0  0  0  0  0
   -3.2509    0.4464   -3.1887 N   0  0  0  0  0  0  0  0  0  0  0  0
   -3.5224    1.7351   -2.7993 C   0  0  0  0  0  0  0  0  0  0  0  0
   -4.7408    2.4127   -2.7717 C   0  0  0  0  0  0  0  0  0  0  0  0
   -4.6914    3.7172   -2.3103 C   0  0  0  0  0  0  0  0  0  0  0  0
   -3.5668    4.3508   -1.8989 N   0  0  0  0  0  0  0  0  0  0  0  0
   -2.3831    3.6952   -1.9283 C   0  0  0  0  0  0  0  0  0  0  0  0
   -2.3642    2.3833   -2.3816 C   0  0  0  0  0  0  0  0  0  0  0  0
   -0.1781    0.7614    0.2053 C   0  0  0  0  0  0  0  0  0  0  0  0
   -1.5784    0.4465    0.5587 C   0  0  0  0  0  0  0  0  0  0  0  0
    0.7478    0.5478    1.1900 O   0  0  0  0  0  0  0  0  0  0  0  0
    3.0609    0.3461    2.8036 C   0  0  0  0  0  0  0  0  0  0  0  0
    4.2152    0.2401    3.5935 C   0  0  0  0  0  0  0  0  0  0  0  0
    4.2189   -0.1634    4.9083 O   0  0  0  0  0  0  0  0  0  0  0  0
    2.9915   -0.6199    5.4658 C   0  0  0  0  0  0  0  0  0  0  0  0
    8.1793    0.3801    2.5825 H   0  0  0  0  0  0  0  0  0  0  0  0
    7.7184    2.0233    3.1799 H   0  0  0  0  0  0  0  0  0  0  0  0
    8.5198    0.8652    4.2462 H   0  0  0  0  0  0  0  0  0  0  0  0
    6.4986    1.2368    1.2429 H   0  0  0  0  0  0  0  0  0  0  0  0
    4.4762    1.4169   -0.1044 H   0  0  0  0  0  0  0  0  0  0  0  0
    0.6184    1.1436   -3.0412 H   0  0  0  0  0  0  0  0  0  0  0  0
    0.2430    2.7287   -2.4012 H   0  0  0  0  0  0  0  0  0  0  0  0
   -3.1027   -1.7679   -4.5172 H   0  0  0  0  0  0  0  0  0  0  0  0
   -1.8831   -3.0159   -4.5568 H   0  0  0  0  0  0  0  0  0  0  0  0
   -1.5752   -4.6404   -2.6984 H   0  0  0  0  0  0  0  0  0  0  0  0
   -2.7354   -5.9276   -0.9212 H   0  0  0  0  0  0  0  0  0  0  0  0
   -4.8775   -5.0870    0.0320 H   0  0  0  0  0  0  0  0  0  0  0  0
   -4.7159   -1.6715   -2.5535 H   0  0  0  0  0  0  0  0  0  0  0  0
   -5.6642    1.9429   -3.0835 H   0  0  0  0  0  0  0  0  0  0  0  0
   -5.5983    4.3149   -2.2554 H   0  0  0  0  0  0  0  0  0  0  0  0
   -1.5114    4.2369   -1.5823 H   0  0  0  0  0  0  0  0  0  0  0  0
   -1.6634    0.1562    1.6123 H   0  0  0  0  0  0  0  0  0  0  0  0
   -1.9551   -0.3856   -0.0458 H   0  0  0  0  0  0  0  0  0  0  0  0
   -2.2231    1.3156    0.4063 H   0  0  0  0  0  0  0  0  0  0  0  0
    2.0846    0.1036    3.2151 H   0  0  0  0  0  0  0  0  0  0  0  0
    2.6115   -1.4928    4.9232 H   0  0  0  0  0  0  0  0  0  0  0  0
    2.2462    0.1842    5.4980 H   0  0  0  0  0  0  0  0  0  0  0  0
    3.1887   -0.9273    6.4990 H   0  0  0  0  0  0  0  0  0  0  0  0
  1  2  1  0
  2  3  1  0
  3  4  2  0
  4  5  1  0
  5  6  2  0
  6  7  1  0
  7  8  2  0
  8  9  1  0
  9 10  1  0
 10 11  1  0
 11 12  1  0
 12 13  1  0
 13 14  1  0
 14 15  1  0
 15 16  2  0
 16 17  1  0
 17 18  2  0
 18 19  1  0
 19 20  1  0
 19 21  2  0
 12 22  2  0
 22 23  1  0
 23 24  2  0
 24 25  1  0
 25 26  2  0
 26 27  1  0
 27 28  2  0
  9 29  2  0
 29 30  1  0
 29 31  1  0
  6 32  1  0
 32 33  2  0
 33 34  1  0
 34 35  1  0
 33  3  1  0
 31  7  1  0
 28 11  1  0
 21 15  1  0
 28 23  1  0
  1 36  1  0
  1 37  1  0
  1 38  1  0
  4 39  1  0
  5 40  1  0
 10 41  1  0
 10 42  1  0
 14 43  1  0
 14 44  1  0
 16 45  1  0
 17 46  1  0
 18 47  1  0
 21 48  1  0
 24 49  1  0
 25 50  1  0
 27 51  1  0
 30 52  1  0
 30 53  1  0
 30 54  1  0
 32 55  1  0
 35 56  1  0
 35 57  1  0
 35 58  1  0
M  END
$$$$
