
     RDKit          3D

 52 55  0  0  0  0  0  0  0  0999 V2000
   -4.0153    4.1839    0.1296 C   0  0  0  0  0  0  0  0  0  0  0  0
   -2.9958    3.2724    0.7892 C   0  0  0  0  0  0  0  0  0  0  0  0
   -3.6462    2.0111    1.3515 C   0  0  0  0  0  0  0  0  0  0  0  0
   -2.6696    1.1942    1.9988 O   0  0  0  0  0  0  0  0  0  0  0  0
   -2.0540    0.2111    1.2782 C   0  0  0  0  0  0  0  0  0  0  0  0
   -2.0946    0.0534   -0.1064 C   0  0  0  0  0  0  0  0  0  0  0  0
   -1.3915   -0.9910   -0.7176 C   0  0  0  0  0  0  0  0  0  0  0  0
   -0.6424   -1.8873    0.0533 C   0  0  0  0  0  0  0  0  0  0  0  0
    0.1548   -2.9206   -0.5919 C   0  0  0  0  0  0  0  0  0  0  0  0
    1.4998   -2.9381   -0.9605 C   0  0  0  0  0  0  0  0  0  0  0  0
    2.5665   -1.9334   -0.8287 C   0  0  0  0  0  0  0  0  0  0  0  0
    3.7246   -2.2006   -1.1451 O   0  0  0  0  0  0  0  0  0  0  0  0
    2.1819   -0.6896   -0.3371 N   0  0  0  0  0  0  0  0  0  0  0  0
    3.1054    0.3033   -0.1664 N   0  0  0  0  0  0  0  0  0  0  0  0
    2.6437    1.4101    0.3231 C   0  0  0  0  0  0  0  0  0  0  0  0
    3.5134    2.5773    0.5655 C   0  0  0  0  0  0  0  0  0  0  0  0
    2.9504    3.7368    1.1072 C   0  0  0  0  0  0  0  0  0  0  0  0
    3.7572    4.8515    1.3433 C   0  0  0  0  0  0  0  0  0  0  0  0
    5.1186    4.8063    1.0392 C   0  0  0  0  0  0  0  0  0  0  0  0
    5.6782    3.6478    0.4989 C   0  0  0  0  0  0  0  0  0  0  0  0
    4.8769    2.5306    0.2609 C   0  0  0  0  0  0  0  0  0  0  0  0
    1.7776   -4.1543   -1.5357 N   0  0  0  0  0  0  0  0  0  0  0  0
    0.6795   -4.8845   -1.5475 N   0  0  0  0  0  0  0  0  0  0  0  0
   -0.3303   -4.1790   -0.9731 N   0  0  0  0  0  0  0  0  0  0  0  0
   -1.6252   -4.7389   -0.8224 C   0  0  0  0  0  0  0  0  0  0  0  0
   -2.6038   -4.0707   -0.2105 N   0  0  0  0  0  0  0  0  0  0  0  0
   -3.6875   -4.9463   -0.2458 O   0  0  0  0  0  0  0  0  0  0  0  0
   -3.3532   -6.1377   -0.8801 N   0  0  0  0  0  0  0  0  0  0  0  0
   -2.0781   -6.0041   -1.2425 C   0  0  0  0  0  0  0  0  0  0  0  0
   -1.3735   -6.9420   -1.9026 N   0  0  0  0  0  0  0  0  0  0  0  0
   -0.6008   -1.7297    1.4412 C   0  0  0  0  0  0  0  0  0  0  0  0
   -1.3014   -0.6831    2.0445 C   0  0  0  0  0  0  0  0  0  0  0  0
   -3.5257    5.0825   -0.2586 H   0  0  0  0  0  0  0  0  0  0  0  0
   -4.7825    4.4973    0.8447 H   0  0  0  0  0  0  0  0  0  0  0  0
   -4.5096    3.6784   -0.7062 H   0  0  0  0  0  0  0  0  0  0  0  0
   -2.4850    3.8097    1.5974 H   0  0  0  0  0  0  0  0  0  0  0  0
   -2.2154    3.0108    0.0661 H   0  0  0  0  0  0  0  0  0  0  0  0
   -4.2228    1.4586    0.6005 H   0  0  0  0  0  0  0  0  0  0  0  0
   -4.3662    2.3002    2.1265 H   0  0  0  0  0  0  0  0  0  0  0  0
   -2.6545    0.7293   -0.7444 H   0  0  0  0  0  0  0  0  0  0  0  0
   -1.4328   -1.0904   -1.8011 H   0  0  0  0  0  0  0  0  0  0  0  0
    1.2211   -0.4878   -0.1037 H   0  0  0  0  0  0  0  0  0  0  0  0
    1.5758    1.5286    0.5832 H   0  0  0  0  0  0  0  0  0  0  0  0
    1.8924    3.7850    1.3498 H   0  0  0  0  0  0  0  0  0  0  0  0
    3.3266    5.7564    1.7651 H   0  0  0  0  0  0  0  0  0  0  0  0
    5.7461    5.6750    1.2239 H   0  0  0  0  0  0  0  0  0  0  0  0
    6.7390    3.6130    0.2628 H   0  0  0  0  0  0  0  0  0  0  0  0
    5.3191    1.6297   -0.1602 H   0  0  0  0  0  0  0  0  0  0  0  0
   -0.3601   -6.8775   -1.9945 H   0  0  0  0  0  0  0  0  0  0  0  0
   -1.7431   -7.8844   -1.9711 H   0  0  0  0  0  0  0  0  0  0  0  0
   -0.0226   -2.4083    2.0653 H   0  0  0  0  0  0  0  0  0  0  0  0
   -1.2652   -0.5650    3.1257 H   0  0  0  0  0  0  0  0  0  0  0  0
  1  2  1  0
  2  3  1  0
  3  4  1  0
  4  5  1  0
  5  6  2  0
  6  7  1  0
  7  8  2  0
  8  9  1  0
  9 10  2  0
 10 11  1  0
 11 12  2  0
 11 13  1  0
 13 14  1  0
 14 15  2  3
 15 16  1  0
 16 17  2  0
 17 18  1  0
 18 19  2  0
 19 20  1  0
 20 21  2  0
 10 22  1  0
 22 23  2  0
 23 24  1  0
 24 25  1  0
 25 26  2  0
 26 27  1  0
 27 28  1  0
 28 29  2  0
 29 30  1  0
  8 31  1  0
 31 32  2  0
 32  5  1  0
 24  9  1  0
 29 25  1  0
 21 16  1  0
  1 33  1  0
  1 34  1  0
  1 35  1  0
  2 36  1  0
  2 37  1  0
  3 38  1  0
  3 39  1  0
  6 40  1  0
  7 41  1  0
 13 42  1  0
 15 43  1  0
 17 44  1  0
 18 45  1  0
 19 46  1  0
 20 47  1  0
 21 48  1  0
 30 49  1  0
 30 50  1  0
 31 51  1  0
 32 52  1  0
M  END
$$$$
