
     RDKit          3D

 32 33  0  0  0  0  0  0  0  0999 V2000
    4.2890    0.4679    1.5822 C   0  0  0  0  0  0  0  0  0  0  0  0
    4.4115    0.5872   -0.1836 S   0  0  0  0  0  6  0  0  0  0  0  0
    5.6152   -0.1197   -0.5814 O   0  0  0  0  0  0  0  0  0  0  0  0
    4.1925    1.9646   -0.5765 O   0  0  0  0  0  0  0  0  0  0  0  0
    3.0251   -0.3479   -0.7894 C   0  0  0  0  0  0  0  0  0  0  0  0
    3.2385   -1.4276   -1.6488 C   0  0  0  0  0  0  0  0  0  0  0  0
    2.1436   -2.1454   -2.1259 C   0  0  0  0  0  0  0  0  0  0  0  0
    0.8503   -1.7824   -1.7379 C   0  0  0  0  0  0  0  0  0  0  0  0
   -0.4750   -2.7146   -2.3505 Cl  0  0  0  0  0  0  0  0  0  0  0  0
    0.6282   -0.6965   -0.8664 C   0  0  0  0  0  0  0  0  0  0  0  0
   -0.7062   -0.3914   -0.5017 N   0  0  0  0  0  0  0  0  0  0  0  0
   -1.1419    0.5766    0.3819 C   0  0  0  0  0  0  0  0  0  0  0  0
   -0.4386    1.3640    1.0031 O   0  0  0  0  0  0  0  0  0  0  0  0
   -2.6188    0.6521    0.5632 C   0  0  0  0  0  0  0  0  0  0  0  0
   -3.1971    1.9101    0.7817 C   0  0  0  0  0  0  0  0  0  0  0  0
   -4.5765    2.0289    0.9583 C   0  0  0  0  0  0  0  0  0  0  0  0
   -5.3821    0.8909    0.9279 C   0  0  0  0  0  0  0  0  0  0  0  0
   -4.8027   -0.3622    0.7297 C   0  0  0  0  0  0  0  0  0  0  0  0
   -5.8963   -1.9050    0.7113 Br  0  0  0  0  0  0  0  0  0  0  0  0
   -3.4252   -0.4928    0.5512 C   0  0  0  0  0  0  0  0  0  0  0  0
    1.7312    0.0265   -0.4045 C   0  0  0  0  0  0  0  0  0  0  0  0
    4.2996   -0.5855    1.8687 H   0  0  0  0  0  0  0  0  0  0  0  0
    3.3727    0.9545    1.9195 H   0  0  0  0  0  0  0  0  0  0  0  0
    5.1537    0.9767    2.0143 H   0  0  0  0  0  0  0  0  0  0  0  0
    4.2438   -1.7081   -1.9581 H   0  0  0  0  0  0  0  0  0  0  0  0
    2.3034   -2.9839   -2.7997 H   0  0  0  0  0  0  0  0  0  0  0  0
   -1.4057   -0.9506   -0.9795 H   0  0  0  0  0  0  0  0  0  0  0  0
   -2.5717    2.8011    0.8124 H   0  0  0  0  0  0  0  0  0  0  0  0
   -5.0207    3.0079    1.1232 H   0  0  0  0  0  0  0  0  0  0  0  0
   -6.4558    0.9905    1.0685 H   0  0  0  0  0  0  0  0  0  0  0  0
   -2.9918   -1.4818    0.4349 H   0  0  0  0  0  0  0  0  0  0  0  0
    1.6076    0.8958    0.2336 H   0  0  0  0  0  0  0  0  0  0  0  0
  1  2  1  0
  2  3  2  0
  2  4  2  0
  2  5  1  0
  5  6  2  0
  6  7  1  0
  7  8  2  0
  8  9  1  0
  8 10  1  0
 10 11  1  0
 11 12  1  0
 12 13  2  0
 12 14  1  0
 14 15  2  0
 15 16  1  0
 16 17  2  0
 17 18  1  0
 18 19  1  0
 18 20  2  0
 10 21  2  0
 21  5  1  0
 20 14  1  0
  1 22  1  0
  1 23  1  0
  1 24  1  0
  6 25  1  0
  7 26  1  0
 11 27  1  0
 15 28  1  0
 16 29  1  0
 17 30  1  0
 20 31  1  0
 21 32  1  0
M  END
$$$$
