
     RDKit          3D

 39 41  0  0  0  0  0  0  0  0999 V2000
    3.4274    2.0258   -2.5412 C   0  0  0  0  0  0  0  0  0  0  0  0
    3.2600    2.3785   -1.0739 C   0  0  0  0  0  0  0  0  0  0  0  0
    3.7551    1.3309   -0.1945 N   0  0  0  0  0  0  0  0  0  0  0  0
    5.0538    1.3846    0.1839 N   0  0  0  0  0  0  0  0  0  0  0  0
    5.1884    0.3515    1.0129 C   0  0  0  0  0  0  0  0  0  0  0  0
    3.9885   -0.3527    1.1617 C   0  0  0  0  0  0  0  0  0  0  0  0
    3.8384   -1.8815    2.2353 Br  0  0  0  0  0  0  0  0  0  0  0  0
    3.0510    0.2829    0.3696 C   0  0  0  0  0  0  0  0  0  0  0  0
    1.6517    0.0142    0.1030 C   0  0  0  0  0  0  0  0  0  0  0  0
    1.0970    0.4194   -0.9148 O   0  0  0  0  0  0  0  0  0  0  0  0
    1.0263   -0.7704    1.0501 N   0  0  0  0  0  0  0  0  0  0  0  0
   -0.3191   -1.0630    1.0255 C   0  0  0  0  0  0  0  0  0  0  0  0
   -0.6596   -2.5675    1.7890 S   0  0  0  0  0  0  0  0  0  0  0  0
   -2.2558   -2.4601    1.3184 C   0  0  0  0  0  0  0  0  0  0  0  0
   -2.5658   -1.3002    0.6639 C   0  0  0  0  0  0  0  0  0  0  0  0
   -1.4504   -0.4188    0.5363 C   0  0  0  0  0  0  0  0  0  0  0  0
   -1.4951    0.9553    0.0486 C   0  0  0  0  0  0  0  0  0  0  0  0
   -0.8156    1.8642    0.5154 O   0  0  0  0  0  0  0  0  0  0  0  0
   -2.4296    1.1243   -0.9342 O   0  0  0  0  0  0  0  0  0  0  0  0
   -2.4856    2.4521   -1.4516 C   0  0  0  0  0  0  0  0  0  0  0  0
   -4.0156   -1.2494    0.3381 C   0  0  0  0  0  0  0  0  0  0  0  0
   -4.4652   -2.7242    0.5829 C   0  0  0  0  0  0  0  0  0  0  0  0
   -3.4060   -3.3689    1.5270 C   0  0  0  0  0  0  0  0  0  0  0  0
    4.4829    1.8719   -2.7900 H   0  0  0  0  0  0  0  0  0  0  0  0
    2.8903    1.1075   -2.7982 H   0  0  0  0  0  0  0  0  0  0  0  0
    3.0438    2.8340   -3.1715 H   0  0  0  0  0  0  0  0  0  0  0  0
    2.2153    2.5833   -0.8239 H   0  0  0  0  0  0  0  0  0  0  0  0
    3.8223    3.2909   -0.8415 H   0  0  0  0  0  0  0  0  0  0  0  0
    6.1542    0.1624    1.4635 H   0  0  0  0  0  0  0  0  0  0  0  0
    1.5976   -1.3412    1.6583 H   0  0  0  0  0  0  0  0  0  0  0  0
   -2.8059    3.1525   -0.6740 H   0  0  0  0  0  0  0  0  0  0  0  0
   -3.2241    2.4705   -2.2579 H   0  0  0  0  0  0  0  0  0  0  0  0
   -1.5160    2.7472   -1.8656 H   0  0  0  0  0  0  0  0  0  0  0  0
   -4.2111   -0.9495   -0.6949 H   0  0  0  0  0  0  0  0  0  0  0  0
   -4.5378   -0.5709    1.0207 H   0  0  0  0  0  0  0  0  0  0  0  0
   -4.4618   -3.2607   -0.3753 H   0  0  0  0  0  0  0  0  0  0  0  0
   -5.4791   -2.7871    0.9901 H   0  0  0  0  0  0  0  0  0  0  0  0
   -3.1980   -4.4037    1.2419 H   0  0  0  0  0  0  0  0  0  0  0  0
   -3.7469   -3.3341    2.5668 H   0  0  0  0  0  0  0  0  0  0  0  0
  1  2  1  0
  2  3  1  0
  3  4  1  0
  4  5  2  0
  5  6  1  0
  6  7  1  0
  6  8  2  0
  8  9  1  0
  9 10  2  0
  9 11  1  0
 11 12  1  0
 12 13  1  0
 13 14  1  0
 14 15  2  0
 15 16  1  0
 16 17  1  0
 17 18  2  0
 17 19  1  0
 19 20  1  0
 15 21  1  0
 21 22  1  0
 22 23  1  0
  8  3  1  0
 16 12  2  0
 23 14  1  0
  1 24  1  0
  1 25  1  0
  1 26  1  0
  2 27  1  0
  2 28  1  0
  5 29  1  0
 11 30  1  0
 20 31  1  0
 20 32  1  0
 20 33  1  0
 21 34  1  0
 21 35  1  0
 22 36  1  0
 22 37  1  0
 23 38  1  0
 23 39  1  0
M  END
$$$$
