
     RDKit          3D

 51 55  0  0  0  0  0  0  0  0999 V2000
    8.1863   -1.1986    3.7246 F   0  0  0  0  0  0  0  0  0  0  0  0
    7.2511   -0.7742    2.8646 C   0  0  0  0  0  0  0  0  0  0  0  0
    6.2673    0.1042    3.3021 C   0  0  0  0  0  0  0  0  0  0  0  0
    5.2917    0.5465    2.4077 C   0  0  0  0  0  0  0  0  0  0  0  0
    5.3049    0.1109    1.0736 C   0  0  0  0  0  0  0  0  0  0  0  0
    4.2371    0.5732    0.1087 C   0  0  0  0  0  0  0  0  0  0  0  0
    3.0009   -0.3415    0.1538 C   0  0  0  0  0  0  0  0  0  0  0  0
    1.9693    0.0626   -0.8153 N   0  0  0  0  0  0  0  0  0  0  0  0
    1.0317   -1.0528   -1.0687 C   0  0  0  0  0  0  0  0  0  0  0  0
   -0.2681   -0.6112   -1.7749 C   0  0  0  0  0  0  0  0  0  0  0  0
   -1.0132    0.3736   -0.9767 N   0  0  0  0  0  0  0  0  0  0  0  0
   -2.3951    0.2949   -0.8289 C   0  0  0  0  0  0  0  0  0  0  0  0
   -2.9031    0.5716    0.3482 N   0  0  0  0  0  0  0  0  0  0  0  0
   -4.2877    0.4732    0.5804 C   0  0  0  0  0  0  0  0  0  0  0  0
   -4.7678    0.7645    1.8589 C   0  0  0  0  0  0  0  0  0  0  0  0
   -6.1319    0.6710    2.1478 C   0  0  0  0  0  0  0  0  0  0  0  0
   -7.0322    0.2827    1.1553 C   0  0  0  0  0  0  0  0  0  0  0  0
   -6.5745   -0.0126   -0.1293 C   0  0  0  0  0  0  0  0  0  0  0  0
   -5.2067    0.0850   -0.4028 C   0  0  0  0  0  0  0  0  0  0  0  0
   -4.6624   -0.1791   -1.6698 N   0  0  0  0  0  0  0  0  0  0  0  0
   -5.2990   -0.5483   -2.8312 C   0  0  0  0  0  0  0  0  0  0  0  0
   -4.3584   -0.6162   -3.8347 C   0  0  0  0  0  0  0  0  0  0  0  0
   -3.1084   -0.2929   -3.2577 C   0  0  0  0  0  0  0  0  0  0  0  0
   -3.3083   -0.0653   -1.9065 C   0  0  0  0  0  0  0  0  0  0  0  0
   -0.2203    1.0630    0.0551 C   0  0  0  0  0  0  0  0  0  0  0  0
    1.2362    1.2843   -0.4082 C   0  0  0  0  0  0  0  0  0  0  0  0
    6.3038   -0.7802    0.6524 C   0  0  0  0  0  0  0  0  0  0  0  0
    7.2780   -1.2207    1.5490 C   0  0  0  0  0  0  0  0  0  0  0  0
    6.2663    0.4380    4.3346 H   0  0  0  0  0  0  0  0  0  0  0  0
    4.5231    1.2331    2.7557 H   0  0  0  0  0  0  0  0  0  0  0  0
    3.9759    1.6113    0.3452 H   0  0  0  0  0  0  0  0  0  0  0  0
    4.6513    0.5931   -0.9079 H   0  0  0  0  0  0  0  0  0  0  0  0
    3.3374   -1.3599   -0.0848 H   0  0  0  0  0  0  0  0  0  0  0  0
    2.5835   -0.3840    1.1688 H   0  0  0  0  0  0  0  0  0  0  0  0
    1.5340   -1.8007   -1.6935 H   0  0  0  0  0  0  0  0  0  0  0  0
    0.7612   -1.5466   -0.1250 H   0  0  0  0  0  0  0  0  0  0  0  0
   -0.0258   -0.1723   -2.7496 H   0  0  0  0  0  0  0  0  0  0  0  0
   -0.8723   -1.5091   -1.9479 H   0  0  0  0  0  0  0  0  0  0  0  0
   -4.0684    1.0651    2.6343 H   0  0  0  0  0  0  0  0  0  0  0  0
   -6.4892    0.9013    3.1482 H   0  0  0  0  0  0  0  0  0  0  0  0
   -8.0929    0.2119    1.3841 H   0  0  0  0  0  0  0  0  0  0  0  0
   -7.2940   -0.3092   -0.8850 H   0  0  0  0  0  0  0  0  0  0  0  0
   -6.3655   -0.7153   -2.8687 H   0  0  0  0  0  0  0  0  0  0  0  0
   -4.5547   -0.8592   -4.8711 H   0  0  0  0  0  0  0  0  0  0  0  0
   -2.1653   -0.2308   -3.7821 H   0  0  0  0  0  0  0  0  0  0  0  0
   -0.6648    2.0427    0.2683 H   0  0  0  0  0  0  0  0  0  0  0  0
   -0.2283    0.4806    0.9850 H   0  0  0  0  0  0  0  0  0  0  0  0
    1.7676    1.8402    0.3723 H   0  0  0  0  0  0  0  0  0  0  0  0
    1.2166    1.9442   -1.2853 H   0  0  0  0  0  0  0  0  0  0  0  0
    6.3276   -1.1342   -0.3762 H   0  0  0  0  0  0  0  0  0  0  0  0
    8.0554   -1.9076    1.2307 H   0  0  0  0  0  0  0  0  0  0  0  0
  1  2  1  0
  2  3  2  0
  3  4  1  0
  4  5  2  0
  5  6  1  0
  6  7  1  0
  7  8  1  0
  8  9  1  0
  9 10  1  0
 10 11  1  0
 11 12  1  0
 12 13  2  0
 13 14  1  0
 14 15  2  0
 15 16  1  0
 16 17  2  0
 17 18  1  0
 18 19  2  0
 19 20  1  0
 20 21  1  0
 21 22  2  0
 22 23  1  0
 23 24  2  0
 11 25  1  0
 25 26  1  0
  5 27  1  0
 27 28  2  0
 28  2  1  0
 26  8  1  0
 24 12  1  0
 19 14  1  0
 24 20  1  0
  3 29  1  0
  4 30  1  0
  6 31  1  0
  6 32  1  0
  7 33  1  0
  7 34  1  0
  9 35  1  0
  9 36  1  0
 10 37  1  0
 10 38  1  0
 15 39  1  0
 16 40  1  0
 17 41  1  0
 18 42  1  0
 21 43  1  0
 22 44  1  0
 23 45  1  0
 25 46  1  0
 25 47  1  0
 26 48  1  0
 26 49  1  0
 27 50  1  0
 28 51  1  0
M  END
$$$$
