
     RDKit          3D

 32 34  0  0  0  0  0  0  0  0999 V2000
    7.0326   -0.4901    0.0692 C   0  0  0  0  0  0  0  0  0  0  0  0
    5.7137   -0.1353    0.6505 C   0  0  0  0  0  0  0  0  0  0  0  0
    5.4810    0.4636    1.8734 C   0  0  0  0  0  0  0  0  0  0  0  0
    3.7978    0.6728    2.1072 S   0  0  0  0  0  0  0  0  0  0  0  0
    3.5052   -0.0343    0.5886 C   0  0  0  0  0  0  0  0  0  0  0  0
    2.2549   -0.2160    0.0599 N   0  0  0  0  0  0  0  0  0  0  0  0
    1.0455    0.1402    0.6174 C   0  0  0  0  0  0  0  0  0  0  0  0
    0.9069    0.6981    1.7011 O   0  0  0  0  0  0  0  0  0  0  0  0
   -0.1014   -0.2102   -0.2135 C   0  0  0  0  0  0  0  0  0  0  0  0
   -0.2500   -0.9014   -1.4037 C   0  0  0  0  0  0  0  0  0  0  0  0
   -1.6369   -0.9158   -1.7026 C   0  0  0  0  0  0  0  0  0  0  0  0
   -2.2710   -0.2256   -0.6911 C   0  0  0  0  0  0  0  0  0  0  0  0
   -3.6541    0.1270   -0.3735 C   0  0  0  0  0  0  0  0  0  0  0  0
   -4.0460    0.1478    0.9801 C   0  0  0  0  0  0  0  0  0  0  0  0
   -5.3559    0.4602    1.3545 C   0  0  0  0  0  0  0  0  0  0  0  0
   -6.2966    0.7607    0.3770 C   0  0  0  0  0  0  0  0  0  0  0  0
   -7.9102    1.1446    0.8316 Cl  0  0  0  0  0  0  0  0  0  0  0  0
   -5.9384    0.7567   -0.9673 C   0  0  0  0  0  0  0  0  0  0  0  0
   -4.6245    0.4444   -1.3428 C   0  0  0  0  0  0  0  0  0  0  0  0
   -4.2754    0.5176   -3.0376 Cl  0  0  0  0  0  0  0  0  0  0  0  0
   -1.3393    0.1919    0.2157 O   0  0  0  0  0  0  0  0  0  0  0  0
    4.5689   -0.4183   -0.0789 N   0  0  0  0  0  0  0  0  0  0  0  0
    7.1781    0.0291   -0.8831 H   0  0  0  0  0  0  0  0  0  0  0  0
    7.8529   -0.2128    0.7387 H   0  0  0  0  0  0  0  0  0  0  0  0
    7.0883   -1.5680   -0.1116 H   0  0  0  0  0  0  0  0  0  0  0  0
    6.1960    0.7794    2.6195 H   0  0  0  0  0  0  0  0  0  0  0  0
    2.2860   -0.6487   -0.8488 H   0  0  0  0  0  0  0  0  0  0  0  0
    0.5311   -1.3580   -1.9945 H   0  0  0  0  0  0  0  0  0  0  0  0
   -2.1103   -1.3858   -2.5537 H   0  0  0  0  0  0  0  0  0  0  0  0
   -3.3226   -0.0853    1.7617 H   0  0  0  0  0  0  0  0  0  0  0  0
   -5.6277    0.4673    2.4072 H   0  0  0  0  0  0  0  0  0  0  0  0
   -6.6786    1.0041   -1.7243 H   0  0  0  0  0  0  0  0  0  0  0  0
  1  2  1  0
  2  3  2  0
  3  4  1  0
  4  5  1  0
  5  6  1  0
  6  7  1  0
  7  8  2  0
  7  9  1  0
  9 10  2  0
 10 11  1  0
 11 12  2  0
 12 13  1  0
 13 14  2  0
 14 15  1  0
 15 16  2  0
 16 17  1  0
 16 18  1  0
 18 19  2  0
 19 20  1  0
 12 21  1  0
  5 22  2  0
 22  2  1  0
 21  9  1  0
 19 13  1  0
  1 23  1  0
  1 24  1  0
  1 25  1  0
  3 26  1  0
  6 27  1  0
 10 28  1  0
 11 29  1  0
 14 30  1  0
 15 31  1  0
 18 32  1  0
M  END
$$$$
