
     RDKit          3D

 35 37  0  0  0  0  0  0  0  0999 V2000
    7.4925   -0.8125    0.5550 C   0  0  0  0  0  0  0  0  0  0  0  0
    6.2821   -1.4896    0.8709 O   0  0  0  0  0  0  0  0  0  0  0  0
    5.1160   -0.8532    0.5496 C   0  0  0  0  0  0  0  0  0  0  0  0
    5.0014    0.3964   -0.0562 C   0  0  0  0  0  0  0  0  0  0  0  0
    3.7358    0.9319   -0.3299 C   0  0  0  0  0  0  0  0  0  0  0  0
    2.5653    0.2306   -0.0040 C   0  0  0  0  0  0  0  0  0  0  0  0
    1.2660    0.8185   -0.3032 C   0  0  0  0  0  0  0  0  0  0  0  0
    0.9685    1.9709   -0.8670 N   0  0  0  0  0  0  0  0  0  0  0  0
   -0.4100    2.0383   -0.9132 N   0  0  0  0  0  0  0  0  0  0  0  0
   -0.8572    0.9266   -0.3775 C   0  0  0  0  0  0  0  0  0  0  0  0
   -2.1179    0.4579   -0.1552 N   0  0  0  0  0  0  0  0  0  0  0  0
   -3.2275    1.1524   -0.5701 C   0  0  0  0  0  0  0  0  0  0  0  0
   -3.2407    2.2032   -1.1977 O   0  0  0  0  0  0  0  0  0  0  0  0
   -4.5322    0.5100   -0.2390 C   0  0  0  0  0  0  0  0  0  0  0  0
   -4.7197   -0.2282    0.9399 C   0  0  0  0  0  0  0  0  0  0  0  0
   -5.9625   -0.8094    1.2057 C   0  0  0  0  0  0  0  0  0  0  0  0
   -7.0086   -0.6446    0.3031 C   0  0  0  0  0  0  0  0  0  0  0  0
   -8.1968   -1.2039    0.5644 F   0  0  0  0  0  0  0  0  0  0  0  0
   -6.8415    0.0981   -0.8598 C   0  0  0  0  0  0  0  0  0  0  0  0
   -5.6025    0.6820   -1.1301 C   0  0  0  0  0  0  0  0  0  0  0  0
    0.1490    0.0983    0.0382 O   0  0  0  0  0  0  0  0  0  0  0  0
    2.6922   -1.0248    0.6045 C   0  0  0  0  0  0  0  0  0  0  0  0
    3.9565   -1.5584    0.8772 C   0  0  0  0  0  0  0  0  0  0  0  0
    8.3241   -1.4492    0.8720 H   0  0  0  0  0  0  0  0  0  0  0  0
    7.5699    0.1331    1.1017 H   0  0  0  0  0  0  0  0  0  0  0  0
    7.5863   -0.6549   -0.5245 H   0  0  0  0  0  0  0  0  0  0  0  0
    5.8719    0.9835   -0.3302 H   0  0  0  0  0  0  0  0  0  0  0  0
    3.6706    1.9110   -0.8044 H   0  0  0  0  0  0  0  0  0  0  0  0
   -2.1819   -0.4565    0.2608 H   0  0  0  0  0  0  0  0  0  0  0  0
   -3.9271   -0.3336    1.6752 H   0  0  0  0  0  0  0  0  0  0  0  0
   -6.1279   -1.3790    2.1154 H   0  0  0  0  0  0  0  0  0  0  0  0
   -7.6746    0.2234   -1.5446 H   0  0  0  0  0  0  0  0  0  0  0  0
   -5.4712    1.2722   -2.0359 H   0  0  0  0  0  0  0  0  0  0  0  0
    1.8136   -1.6057    0.8747 H   0  0  0  0  0  0  0  0  0  0  0  0
    4.0383   -2.5346    1.3501 H   0  0  0  0  0  0  0  0  0  0  0  0
  1  2  1  0
  2  3  1  0
  3  4  2  0
  4  5  1  0
  5  6  2  0
  6  7  1  0
  7  8  2  0
  8  9  1  0
  9 10  2  0
 10 11  1  0
 11 12  1  0
 12 13  2  0
 12 14  1  0
 14 15  2  0
 15 16  1  0
 16 17  2  0
 17 18  1  0
 17 19  1  0
 19 20  2  0
 10 21  1  0
  6 22  1  0
 22 23  2  0
 23  3  1  0
 21  7  1  0
 20 14  1  0
  1 24  1  0
  1 25  1  0
  1 26  1  0
  4 27  1  0
  5 28  1  0
 11 29  1  0
 15 30  1  0
 16 31  1  0
 19 32  1  0
 20 33  1  0
 22 34  1  0
 23 35  1  0
M  END
$$$$
