
     RDKit          3D

 37 38  0  0  0  0  0  0  0  0999 V2000
    0.3202    0.4213    0.7053 O   0  0  0  0  0  0  0  0  0  0  0  0
    0.5593    0.5613   -0.4912 C   0  0  0  0  0  0  0  0  0  0  0  0
   -0.5290    0.5592   -1.5580 C   0  0  0  0  0  0  0  0  0  0  0  0
   -1.7932    0.3668   -0.9177 O   0  0  0  0  0  0  0  0  0  0  0  0
   -2.8458    0.3421   -1.7644 C   0  0  0  0  0  0  0  0  0  0  0  0
   -2.7766    0.4663   -2.9764 O   0  0  0  0  0  0  0  0  0  0  0  0
   -4.1162    0.1402   -1.0154 C   0  0  0  0  0  0  0  0  0  0  0  0
   -5.2946    0.0921   -1.7815 C   0  0  0  0  0  0  0  0  0  0  0  0
   -6.5378   -0.0941   -1.1699 C   0  0  0  0  0  0  0  0  0  0  0  0
   -6.6122   -0.2337    0.2132 C   0  0  0  0  0  0  0  0  0  0  0  0
   -8.1412   -0.4628    0.9669 Cl  0  0  0  0  0  0  0  0  0  0  0  0
   -5.4559   -0.1886    0.9877 C   0  0  0  0  0  0  0  0  0  0  0  0
   -4.2118   -0.0025    0.3781 C   0  0  0  0  0  0  0  0  0  0  0  0
   -3.1518    0.0242    1.2433 O   0  0  0  0  0  0  0  0  0  0  0  0
    1.8331    0.7332   -0.9905 N   0  0  0  0  0  0  0  0  0  0  0  0
    2.9985    0.7367   -0.1224 C   0  0  0  0  0  0  0  0  0  0  0  0
    3.4062   -0.6684    0.3360 C   0  0  0  0  0  0  0  0  0  0  0  0
    4.6940   -0.6701    1.0058 N   0  0  0  0  0  0  0  0  0  0  0  0
    4.8506   -0.4988    2.3582 C   0  0  0  0  0  0  0  0  0  0  0  0
    3.7429   -0.3588    3.1356 O   0  0  0  0  0  0  0  0  0  0  0  0
    6.1225   -0.4801    2.7727 C   0  0  0  0  0  0  0  0  0  0  0  0
    7.2214   -0.6671    1.4384 S   0  0  0  0  0  0  0  0  0  0  0  0
    5.8750   -0.7507    0.2867 C   0  0  0  0  0  0  0  0  0  0  0  0
    6.0157   -0.8422   -0.9217 O   0  0  0  0  0  0  0  0  0  0  0  0
   -0.5134    1.5254   -2.0743 H   0  0  0  0  0  0  0  0  0  0  0  0
   -0.3329   -0.2631   -2.2549 H   0  0  0  0  0  0  0  0  0  0  0  0
   -5.2514    0.1999   -2.8647 H   0  0  0  0  0  0  0  0  0  0  0  0
   -7.4388   -0.1288   -1.7775 H   0  0  0  0  0  0  0  0  0  0  0  0
   -5.5123   -0.2974    2.0680 H   0  0  0  0  0  0  0  0  0  0  0  0
   -2.3134    0.1583    0.7550 H   0  0  0  0  0  0  0  0  0  0  0  0
    1.9843    0.7512   -1.9922 H   0  0  0  0  0  0  0  0  0  0  0  0
    3.8091    1.2095   -0.6877 H   0  0  0  0  0  0  0  0  0  0  0  0
    2.7882    1.3703    0.7469 H   0  0  0  0  0  0  0  0  0  0  0  0
    2.6446   -1.1117    0.9875 H   0  0  0  0  0  0  0  0  0  0  0  0
    3.4805   -1.3224   -0.5423 H   0  0  0  0  0  0  0  0  0  0  0  0
    4.0197   -0.2603    4.0621 H   0  0  0  0  0  0  0  0  0  0  0  0
    6.4627   -0.3565    3.7901 H   0  0  0  0  0  0  0  0  0  0  0  0
  1  2  2  0
  2  3  1  0
  3  4  1  0
  4  5  1  0
  5  6  2  0
  5  7  1  0
  7  8  2  0
  8  9  1  0
  9 10  2  0
 10 11  1  0
 10 12  1  0
 12 13  2  0
 13 14  1  0
  2 15  1  0
 15 16  1  0
 16 17  1  0
 17 18  1  0
 18 19  1  0
 19 20  1  0
 19 21  2  0
 21 22  1  0
 22 23  1  0
 23 24  2  0
 13  7  1  0
 23 18  1  0
  3 25  1  0
  3 26  1  0
  8 27  1  0
  9 28  1  0
 12 29  1  0
 14 30  1  0
 15 31  1  0
 16 32  1  0
 16 33  1  0
 17 34  1  0
 17 35  1  0
 20 36  1  0
 21 37  1  0
M  END
$$$$
