
     RDKit          3D

 57 60  0  0  0  0  0  0  0  0999 V2000
   -7.7878   -0.6269   -1.6446 C   0  0  0  0  0  0  0  0  0  0  0  0
   -7.3094    0.6346   -1.1931 O   0  0  0  0  0  0  0  0  0  0  0  0
   -6.0398    0.6767   -0.6853 C   0  0  0  0  0  0  0  0  0  0  0  0
   -5.6666    1.9183   -0.1653 C   0  0  0  0  0  0  0  0  0  0  0  0
   -4.3991    2.1118    0.3896 C   0  0  0  0  0  0  0  0  0  0  0  0
   -3.4863    1.0603    0.4218 C   0  0  0  0  0  0  0  0  0  0  0  0
   -2.1815    1.1639    0.9526 N   0  0  0  0  0  0  0  0  0  0  0  0
   -1.5644    2.2668    1.5070 C   0  0  0  0  0  0  0  0  0  0  0  0
   -2.0862    3.3662    1.6882 O   0  0  0  0  0  0  0  0  0  0  0  0
   -0.1481    2.0207    1.9967 C   0  0  0  0  0  0  0  0  0  0  0  0
    0.6734    1.2659    1.0590 N   0  0  0  0  0  0  0  0  0  0  0  0
    1.2460    1.8072   -0.0618 C   0  0  0  0  0  0  0  0  0  0  0  0
    1.9294    0.8027   -0.7180 C   0  0  0  0  0  0  0  0  0  0  0  0
    2.8238    1.0097   -2.1869 S   0  0  0  0  0  6  0  0  0  0  0  0
    2.1543    2.1141   -2.8487 O   0  0  0  0  0  0  0  0  0  0  0  0
    2.8902   -0.2975   -2.8101 O   0  0  0  0  0  0  0  0  0  0  0  0
    4.4429    1.5651   -1.6836 C   0  0  0  0  0  0  0  0  0  0  0  0
    5.1464    0.5414   -0.8345 C   0  0  0  0  0  0  0  0  0  0  0  0
    5.7996   -0.5492   -1.4280 C   0  0  0  0  0  0  0  0  0  0  0  0
    6.4401   -1.5064   -0.6390 C   0  0  0  0  0  0  0  0  0  0  0  0
    6.4351   -1.3851    0.7491 C   0  0  0  0  0  0  0  0  0  0  0  0
    5.7956   -0.3029    1.3499 C   0  0  0  0  0  0  0  0  0  0  0  0
    5.1591    0.6594    0.5642 C   0  0  0  0  0  0  0  0  0  0  0  0
    1.7813   -0.3954    0.0419 C   0  0  0  0  0  0  0  0  0  0  0  0
    2.2393   -1.7249   -0.0926 C   0  0  0  0  0  0  0  0  0  0  0  0
    1.9047   -2.6835    0.8694 C   0  0  0  0  0  0  0  0  0  0  0  0
    1.1193   -2.3414    1.9630 C   0  0  0  0  0  0  0  0  0  0  0  0
    0.6506   -1.0357    2.1273 C   0  0  0  0  0  0  0  0  0  0  0  0
    0.9947   -0.0749    1.1592 C   0  0  0  0  0  0  0  0  0  0  0  0
   -3.8538   -0.1947   -0.1110 C   0  0  0  0  0  0  0  0  0  0  0  0
   -2.8838   -1.1691   -0.0269 O   0  0  0  0  0  0  0  0  0  0  0  0
   -3.0886   -2.3559   -0.7851 C   0  0  0  0  0  0  0  0  0  0  0  0
   -5.1304   -0.3829   -0.6555 C   0  0  0  0  0  0  0  0  0  0  0  0
   -8.8132   -0.4871   -2.0036 H   0  0  0  0  0  0  0  0  0  0  0  0
   -7.1904   -1.0036   -2.4818 H   0  0  0  0  0  0  0  0  0  0  0  0
   -7.8173   -1.3506   -0.8218 H   0  0  0  0  0  0  0  0  0  0  0  0
   -6.3708    2.7470   -0.1901 H   0  0  0  0  0  0  0  0  0  0  0  0
   -4.1595    3.0940    0.7805 H   0  0  0  0  0  0  0  0  0  0  0  0
   -1.6513    0.3007    0.8553 H   0  0  0  0  0  0  0  0  0  0  0  0
    0.3543    2.9848    2.1500 H   0  0  0  0  0  0  0  0  0  0  0  0
   -0.1809    1.4983    2.9575 H   0  0  0  0  0  0  0  0  0  0  0  0
    1.1081    2.8504   -0.3209 H   0  0  0  0  0  0  0  0  0  0  0  0
    4.3243    2.5162   -1.1546 H   0  0  0  0  0  0  0  0  0  0  0  0
    5.0158    1.7644   -2.5964 H   0  0  0  0  0  0  0  0  0  0  0  0
    5.8037   -0.6701   -2.5101 H   0  0  0  0  0  0  0  0  0  0  0  0
    6.9365   -2.3519   -1.1088 H   0  0  0  0  0  0  0  0  0  0  0  0
    6.9272   -2.1361    1.3626 H   0  0  0  0  0  0  0  0  0  0  0  0
    5.7859   -0.2134    2.4333 H   0  0  0  0  0  0  0  0  0  0  0  0
    4.6617    1.4919    1.0579 H   0  0  0  0  0  0  0  0  0  0  0  0
    2.8562   -2.0168   -0.9391 H   0  0  0  0  0  0  0  0  0  0  0  0
    2.2653   -3.7033    0.7564 H   0  0  0  0  0  0  0  0  0  0  0  0
    0.8668   -3.1002    2.7011 H   0  0  0  0  0  0  0  0  0  0  0  0
    0.0368   -0.7904    2.9890 H   0  0  0  0  0  0  0  0  0  0  0  0
   -3.2372   -2.1289   -1.8465 H   0  0  0  0  0  0  0  0  0  0  0  0
   -2.1856   -2.9694   -0.6952 H   0  0  0  0  0  0  0  0  0  0  0  0
   -3.9234   -2.9355   -0.3812 H   0  0  0  0  0  0  0  0  0  0  0  0
   -5.4129   -1.3493   -1.0509 H   0  0  0  0  0  0  0  0  0  0  0  0
  1  2  1  0
  2  3  1  0
  3  4  2  0
  4  5  1  0
  5  6  2  0
  6  7  1  0
  7  8  1  0
  8  9  2  0
  8 10  1  0
 10 11  1  0
 11 12  1  0
 12 13  2  0
 13 14  1  0
 14 15  2  0
 14 16  2  0
 14 17  1  0
 17 18  1  0
 18 19  2  0
 19 20  1  0
 20 21  2  0
 21 22  1  0
 22 23  2  0
 13 24  1  0
 24 25  2  0
 25 26  1  0
 26 27  2  0
 27 28  1  0
 28 29  2  0
  6 30  1  0
 30 31  1  0
 31 32  1  0
 30 33  2  0
 33  3  1  0
 29 11  1  0
 23 18  1  0
 29 24  1  0
  1 34  1  0
  1 35  1  0
  1 36  1  0
  4 37  1  0
  5 38  1  0
  7 39  1  0
 10 40  1  0
 10 41  1  0
 12 42  1  0
 17 43  1  0
 17 44  1  0
 19 45  1  0
 20 46  1  0
 21 47  1  0
 22 48  1  0
 23 49  1  0
 25 50  1  0
 26 51  1  0
 27 52  1  0
 28 53  1  0
 32 54  1  0
 32 55  1  0
 32 56  1  0
 33 57  1  0
M  END
$$$$
