
     RDKit          3D

 49 52  0  0  0  0  0  0  0  0999 V2000
   -4.7266    3.5594    2.8283 C   0  0  0  0  0  0  0  0  0  0  0  0
   -3.7260    2.6532    2.1695 C   0  0  0  0  0  0  0  0  0  0  0  0
   -4.1519    1.6893    1.2483 C   0  0  0  0  0  0  0  0  0  0  0  0
   -3.2272    0.8609    0.6066 C   0  0  0  0  0  0  0  0  0  0  0  0
   -1.8585    0.9996    0.8726 C   0  0  0  0  0  0  0  0  0  0  0  0
   -0.9193    0.1744    0.2013 N   0  0  0  0  0  0  0  0  0  0  0  0
   -0.8731   -0.1248   -1.1588 C   0  0  0  0  0  0  0  0  0  0  0  0
   -1.7354    0.4791   -2.2261 C   0  0  0  0  0  0  0  0  0  0  0  0
   -2.8275   -0.4399   -2.7084 C   0  0  0  0  0  0  0  0  0  0  0  0
   -2.7917   -1.8081   -2.9174 C   0  0  0  0  0  0  0  0  0  0  0  0
   -4.0335   -2.3196   -3.3985 C   0  0  0  0  0  0  0  0  0  0  0  0
   -4.9762   -1.3269   -3.5560 C   0  0  0  0  0  0  0  0  0  0  0  0
   -4.3610    0.2126   -3.1340 S   0  0  0  0  0  0  0  0  0  0  0  0
    0.1567   -0.9222   -1.3995 N   0  0  0  0  0  0  0  0  0  0  0  0
    0.8026   -1.1628   -0.2234 N   0  0  0  0  0  0  0  0  0  0  0  0
    0.1745   -0.5010    0.7240 C   0  0  0  0  0  0  0  0  0  0  0  0
    0.5842   -0.6148    2.4067 S   0  0  0  0  0  0  0  0  0  0  0  0
    1.7298   -2.0255    2.4097 C   0  0  0  0  0  0  0  0  0  0  0  0
    3.1540   -1.5802    2.1029 C   0  0  0  0  0  0  0  0  0  0  0  0
    3.9719   -1.4360    3.0098 O   0  0  0  0  0  0  0  0  0  0  0  0
    3.3953   -1.3998    0.7507 N   0  0  0  0  0  0  0  0  0  0  0  0
    4.6056   -1.0267    0.1280 C   0  0  0  0  0  0  0  0  0  0  0  0
    5.8184   -0.8451    0.8076 C   0  0  0  0  0  0  0  0  0  0  0  0
    6.9799   -0.4879    0.1102 C   0  0  0  0  0  0  0  0  0  0  0  0
    6.9263   -0.3077   -1.2665 C   0  0  0  0  0  0  0  0  0  0  0  0
    8.0412    0.0303   -1.9308 F   0  0  0  0  0  0  0  0  0  0  0  0
    5.7269   -0.4798   -1.9466 C   0  0  0  0  0  0  0  0  0  0  0  0
    5.6728   -0.3077   -3.2758 F   0  0  0  0  0  0  0  0  0  0  0  0
    4.5684   -0.8386   -1.2602 C   0  0  0  0  0  0  0  0  0  0  0  0
   -1.4259    1.9607    1.7925 C   0  0  0  0  0  0  0  0  0  0  0  0
   -2.3590    2.7877    2.4291 C   0  0  0  0  0  0  0  0  0  0  0  0
   -5.6134    2.9926    3.1362 H   0  0  0  0  0  0  0  0  0  0  0  0
   -5.0275    4.3528    2.1351 H   0  0  0  0  0  0  0  0  0  0  0  0
   -4.3068    4.0247    3.7276 H   0  0  0  0  0  0  0  0  0  0  0  0
   -5.2134    1.5743    1.0292 H   0  0  0  0  0  0  0  0  0  0  0  0
   -3.6063    0.0892   -0.0598 H   0  0  0  0  0  0  0  0  0  0  0  0
   -2.1413    1.4412   -1.8963 H   0  0  0  0  0  0  0  0  0  0  0  0
   -1.0950    0.7132   -3.0872 H   0  0  0  0  0  0  0  0  0  0  0  0
   -1.9117   -2.4201   -2.7368 H   0  0  0  0  0  0  0  0  0  0  0  0
   -4.2222   -3.3625   -3.6244 H   0  0  0  0  0  0  0  0  0  0  0  0
   -5.9957   -1.4277   -3.9074 H   0  0  0  0  0  0  0  0  0  0  0  0
    1.7244   -2.4641    3.4144 H   0  0  0  0  0  0  0  0  0  0  0  0
    1.4169   -2.8155    1.7170 H   0  0  0  0  0  0  0  0  0  0  0  0
    2.5917   -1.5151    0.1349 H   0  0  0  0  0  0  0  0  0  0  0  0
    5.8967   -0.9833    1.8829 H   0  0  0  0  0  0  0  0  0  0  0  0
    7.9212   -0.3563    0.6365 H   0  0  0  0  0  0  0  0  0  0  0  0
    3.6467   -0.9614   -1.8249 H   0  0  0  0  0  0  0  0  0  0  0  0
   -0.3707    2.1214    2.0015 H   0  0  0  0  0  0  0  0  0  0  0  0
   -2.0095    3.5447    3.1255 H   0  0  0  0  0  0  0  0  0  0  0  0
  1  2  1  0
  2  3  2  0
  3  4  1  0
  4  5  2  0
  5  6  1  0
  6  7  1  0
  7  8  1  0
  8  9  1  0
  9 10  2  0
 10 11  1  0
 11 12  2  0
 12 13  1  0
  7 14  2  0
 14 15  1  0
 15 16  2  0
 16 17  1  0
 17 18  1  0
 18 19  1  0
 19 20  2  0
 19 21  1  0
 21 22  1  0
 22 23  2  0
 23 24  1  0
 24 25  2  0
 25 26  1  0
 25 27  1  0
 27 28  1  0
 27 29  2  0
  5 30  1  0
 30 31  2  0
 31  2  1  0
 16  6  1  0
 29 22  1  0
 13  9  1  0
  1 32  1  0
  1 33  1  0
  1 34  1  0
  3 35  1  0
  4 36  1  0
  8 37  1  0
  8 38  1  0
 10 39  1  0
 11 40  1  0
 12 41  1  0
 18 42  1  0
 18 43  1  0
 21 44  1  0
 23 45  1  0
 24 46  1  0
 29 47  1  0
 30 48  1  0
 31 49  1  0
M  END
$$$$
