
     RDKit          3D

 48 51  0  0  0  0  0  0  0  0999 V2000
    7.6828    1.1959   -1.6000 C   0  0  0  0  0  0  0  0  0  0  0  0
    6.3154    0.9254   -1.1240 C   0  0  0  0  0  0  0  0  0  0  0  0
    5.7830    0.1502   -0.1256 C   0  0  0  0  0  0  0  0  0  0  0  0
    4.3837    0.3563   -0.2203 C   0  0  0  0  0  0  0  0  0  0  0  0
    3.3389   -0.2405    0.6130 C   0  0  0  0  0  0  0  0  0  0  0  0
    3.5852   -1.0500    1.5021 O   0  0  0  0  0  0  0  0  0  0  0  0
    2.0637    0.1771    0.3031 N   0  0  0  0  0  0  0  0  0  0  0  0
    0.8947   -0.4148    0.9092 C   0  0  0  0  0  0  0  0  0  0  0  0
    0.5594   -1.7708    0.2432 C   0  0  0  0  0  0  0  0  0  0  0  0
   -0.8985   -2.2544    0.4991 C   0  0  0  0  0  0  0  0  0  0  0  0
   -1.1263   -2.5192    2.0014 C   0  0  0  0  0  0  0  0  0  0  0  0
   -1.1207   -3.5793   -0.2551 C   0  0  0  0  0  0  0  0  0  0  0  0
   -1.9220   -1.2000   -0.0299 C   0  0  0  0  0  0  0  0  0  0  0  0
   -1.5102    0.1890    0.3330 C   0  0  0  0  0  0  0  0  0  0  0  0
   -0.2427    0.5366    0.7677 C   0  0  0  0  0  0  0  0  0  0  0  0
   -0.3443    1.8887    1.1109 C   0  0  0  0  0  0  0  0  0  0  0  0
   -1.5616    2.3767    0.8891 N   0  0  0  0  0  0  0  0  0  0  0  0
   -2.2784    1.3470    0.3500 N   0  0  0  0  0  0  0  0  0  0  0  0
   -3.6186    1.5970   -0.0853 C   0  0  0  0  0  0  0  0  0  0  0  0
   -4.2248    2.8204    0.2668 C   0  0  0  0  0  0  0  0  0  0  0  0
   -5.5313    3.1139   -0.1326 C   0  0  0  0  0  0  0  0  0  0  0  0
   -6.2348    2.1926   -0.8932 C   0  0  0  0  0  0  0  0  0  0  0  0
   -7.4863    2.4698   -1.2804 F   0  0  0  0  0  0  0  0  0  0  0  0
   -5.6529    0.9881   -1.2666 C   0  0  0  0  0  0  0  0  0  0  0  0
   -4.3442    0.6893   -0.8680 C   0  0  0  0  0  0  0  0  0  0  0  0
    4.0942    1.2052   -1.2238 N   0  0  0  0  0  0  0  0  0  0  0  0
    5.3094    1.5580   -1.7833 O   0  0  0  0  0  0  0  0  0  0  0  0
    7.9128    2.2628   -1.5204 H   0  0  0  0  0  0  0  0  0  0  0  0
    8.4207    0.6438   -1.0098 H   0  0  0  0  0  0  0  0  0  0  0  0
    7.7910    0.8961   -2.6469 H   0  0  0  0  0  0  0  0  0  0  0  0
    6.3102   -0.4773    0.5781 H   0  0  0  0  0  0  0  0  0  0  0  0
    1.9645    0.7579   -0.5244 H   0  0  0  0  0  0  0  0  0  0  0  0
    1.0974   -0.5764    1.9751 H   0  0  0  0  0  0  0  0  0  0  0  0
    0.7097   -1.6845   -0.8434 H   0  0  0  0  0  0  0  0  0  0  0  0
    1.2781   -2.5283    0.5827 H   0  0  0  0  0  0  0  0  0  0  0  0
   -1.0409   -1.6095    2.6037 H   0  0  0  0  0  0  0  0  0  0  0  0
   -0.3969   -3.2409    2.3864 H   0  0  0  0  0  0  0  0  0  0  0  0
   -2.1258   -2.9324    2.1791 H   0  0  0  0  0  0  0  0  0  0  0  0
   -2.1437   -3.9465   -0.1156 H   0  0  0  0  0  0  0  0  0  0  0  0
   -0.9552   -3.4565   -1.3313 H   0  0  0  0  0  0  0  0  0  0  0  0
   -0.4343   -4.3564    0.0996 H   0  0  0  0  0  0  0  0  0  0  0  0
   -1.9677   -1.2656   -1.1243 H   0  0  0  0  0  0  0  0  0  0  0  0
   -2.9145   -1.4320    0.3723 H   0  0  0  0  0  0  0  0  0  0  0  0
    0.4143    2.5394    1.5280 H   0  0  0  0  0  0  0  0  0  0  0  0
   -3.6905    3.5577    0.8649 H   0  0  0  0  0  0  0  0  0  0  0  0
   -5.9967    4.0539    0.1456 H   0  0  0  0  0  0  0  0  0  0  0  0
   -6.2183    0.2899   -1.8766 H   0  0  0  0  0  0  0  0  0  0  0  0
   -3.9269   -0.2430   -1.2233 H   0  0  0  0  0  0  0  0  0  0  0  0
  1  2  1  0
  2  3  2  0
  3  4  1  0
  4  5  1  0
  5  6  2  0
  5  7  1  0
  7  8  1  0
  8  9  1  0
  9 10  1  0
 10 11  1  0
 10 12  1  0
 10 13  1  0
 13 14  1  0
 14 15  2  0
 15 16  1  0
 16 17  2  0
 17 18  1  0
 18 19  1  0
 19 20  2  0
 20 21  1  0
 21 22  2  0
 22 23  1  0
 22 24  1  0
 24 25  2  0
  4 26  2  0
 26 27  1  0
 27  2  1  0
 15  8  1  0
 25 19  1  0
 18 14  1  0
  1 28  1  0
  1 29  1  0
  1 30  1  0
  3 31  1  0
  7 32  1  0
  8 33  1  0
  9 34  1  0
  9 35  1  0
 11 36  1  0
 11 37  1  0
 11 38  1  0
 12 39  1  0
 12 40  1  0
 12 41  1  0
 13 42  1  0
 13 43  1  0
 16 44  1  0
 20 45  1  0
 21 46  1  0
 24 47  1  0
 25 48  1  0
M  END
$$$$
