
     RDKit          3D

 50 53  0  0  0  0  0  0  0  0999 V2000
    8.2732    2.1842   -0.2397 C   0  0  0  0  0  0  0  0  0  0  0  0
    7.2009    2.3729    0.6750 O   0  0  0  0  0  0  0  0  0  0  0  0
    6.0801    1.6163    0.4757 C   0  0  0  0  0  0  0  0  0  0  0  0
    5.8853    0.6876   -0.5422 C   0  0  0  0  0  0  0  0  0  0  0  0
    4.6782   -0.0210   -0.6267 C   0  0  0  0  0  0  0  0  0  0  0  0
    3.6327    0.1784    0.2940 C   0  0  0  0  0  0  0  0  0  0  0  0
    2.3678   -0.5788    0.1770 C   0  0  0  0  0  0  0  0  0  0  0  0
    1.1473   -0.0833    0.6001 C   0  0  0  0  0  0  0  0  0  0  0  0
    0.0124   -0.8783    0.4363 C   0  0  0  0  0  0  0  0  0  0  0  0
   -1.2730   -0.2745    0.8537 C   0  0  0  0  0  0  0  0  0  0  0  0
   -1.3880    0.0755    2.0200 O   0  0  0  0  0  0  0  0  0  0  0  0
   -2.1860   -0.1393   -0.1739 N   0  0  0  0  0  0  0  0  0  0  0  0
   -3.4896    0.3947   -0.0983 C   0  0  0  0  0  0  0  0  0  0  0  0
   -4.2369    0.4199   -1.2777 C   0  0  0  0  0  0  0  0  0  0  0  0
   -5.5281    0.9512   -1.2867 C   0  0  0  0  0  0  0  0  0  0  0  0
   -6.1040    1.4544   -0.1114 C   0  0  0  0  0  0  0  0  0  0  0  0
   -7.4810    2.0557   -0.1692 C   0  0  0  0  0  0  0  0  0  0  0  0
   -5.3839    1.3772    1.0929 C   0  0  0  0  0  0  0  0  0  0  0  0
   -5.8687    1.9669    2.2730 N   0  0  0  0  0  0  0  0  0  0  0  0
   -4.0641    0.8943    1.0722 C   0  0  0  0  0  0  0  0  0  0  0  0
    0.0971   -2.1771   -0.1070 C   0  0  0  0  0  0  0  0  0  0  0  0
   -0.9898   -3.0797   -0.2412 C   0  0  0  0  0  0  0  0  0  0  0  0
   -0.8097   -4.3416   -0.8036 C   0  0  0  0  0  0  0  0  0  0  0  0
    0.4535   -4.7230   -1.2312 C   0  0  0  0  0  0  0  0  0  0  0  0
    1.5287   -3.8438   -1.0829 C   0  0  0  0  0  0  0  0  0  0  0  0
    1.3770   -2.5825   -0.5223 C   0  0  0  0  0  0  0  0  0  0  0  0
    2.4656   -1.8040   -0.3991 N   0  0  0  0  0  0  0  0  0  0  0  0
    3.8563    1.1140    1.3183 C   0  0  0  0  0  0  0  0  0  0  0  0
    5.0611    1.8231    1.4044 C   0  0  0  0  0  0  0  0  0  0  0  0
    9.0871    2.8527    0.0571 H   0  0  0  0  0  0  0  0  0  0  0  0
    8.6529    1.1580   -0.1970 H   0  0  0  0  0  0  0  0  0  0  0  0
    7.9754    2.4542   -1.2582 H   0  0  0  0  0  0  0  0  0  0  0  0
    6.6464    0.4836   -1.2876 H   0  0  0  0  0  0  0  0  0  0  0  0
    4.5554   -0.7436   -1.4328 H   0  0  0  0  0  0  0  0  0  0  0  0
    1.0541    0.9088    1.0307 H   0  0  0  0  0  0  0  0  0  0  0  0
   -1.8875   -0.4441   -1.0929 H   0  0  0  0  0  0  0  0  0  0  0  0
   -3.8245    0.0437   -2.2100 H   0  0  0  0  0  0  0  0  0  0  0  0
   -6.0785    0.9825   -2.2245 H   0  0  0  0  0  0  0  0  0  0  0  0
   -7.4642    3.0855    0.2024 H   0  0  0  0  0  0  0  0  0  0  0  0
   -8.1785    1.4617    0.4302 H   0  0  0  0  0  0  0  0  0  0  0  0
   -7.8655    2.0848   -1.1944 H   0  0  0  0  0  0  0  0  0  0  0  0
   -5.4158    1.6179    3.1131 H   0  0  0  0  0  0  0  0  0  0  0  0
   -6.8791    1.9628    2.3540 H   0  0  0  0  0  0  0  0  0  0  0  0
   -3.4984    0.9171    1.9978 H   0  0  0  0  0  0  0  0  0  0  0  0
   -1.9848   -2.8136    0.1119 H   0  0  0  0  0  0  0  0  0  0  0  0
   -1.6501   -5.0252   -0.8970 H   0  0  0  0  0  0  0  0  0  0  0  0
    0.6124   -5.7056   -1.6681 H   0  0  0  0  0  0  0  0  0  0  0  0
    2.5194   -4.1566   -1.4069 H   0  0  0  0  0  0  0  0  0  0  0  0
    3.1040    1.2967    2.0824 H   0  0  0  0  0  0  0  0  0  0  0  0
    5.2057    2.5392    2.2101 H   0  0  0  0  0  0  0  0  0  0  0  0
  1  2  1  0
  2  3  1  0
  3  4  2  0
  4  5  1  0
  5  6  2  0
  6  7  1  0
  7  8  2  0
  8  9  1  0
  9 10  1  0
 10 11  2  0
 10 12  1  0
 12 13  1  0
 13 14  2  0
 14 15  1  0
 15 16  2  0
 16 17  1  0
 16 18  1  0
 18 19  1  0
 18 20  2  0
  9 21  2  0
 21 22  1  0
 22 23  2  0
 23 24  1  0
 24 25  2  0
 25 26  1  0
 26 27  2  0
  6 28  1  0
 28 29  2  0
 29  3  1  0
 27  7  1  0
 20 13  1  0
 26 21  1  0
  1 30  1  0
  1 31  1  0
  1 32  1  0
  4 33  1  0
  5 34  1  0
  8 35  1  0
 12 36  1  0
 14 37  1  0
 15 38  1  0
 17 39  1  0
 17 40  1  0
 17 41  1  0
 19 42  1  0
 19 43  1  0
 20 44  1  0
 22 45  1  0
 23 46  1  0
 24 47  1  0
 25 48  1  0
 28 49  1  0
 29 50  1  0
M  END
$$$$
