
     RDKit          3D

 37 38  0  0  0  0  0  0  0  0999 V2000
   -5.8706    0.8013   -0.6964 C   0  0  0  0  0  0  0  0  0  0  0  0
   -5.0686   -0.3846   -0.9951 N   0  0  0  0  0  0  0  0  0  0  0  0
   -5.6736   -1.3351   -1.9276 C   0  0  0  0  0  0  0  0  0  0  0  0
   -3.6758   -0.3101   -0.9000 C   0  0  0  0  0  0  0  0  0  0  0  0
   -2.8342   -1.2996   -1.4360 C   0  0  0  0  0  0  0  0  0  0  0  0
   -1.4358   -1.2410   -1.3233 C   0  0  0  0  0  0  0  0  0  0  0  0
   -0.8196   -0.1916   -0.6440 C   0  0  0  0  0  0  0  0  0  0  0  0
    0.6469   -0.1511   -0.5632 C   0  0  0  0  0  0  0  0  0  0  0  0
    1.3137    0.2196    0.5422 C   0  0  0  0  0  0  0  0  0  0  0  0
    2.7770    0.2583    0.6425 C   0  0  0  0  0  0  0  0  0  0  0  0
    3.3787    1.2667    1.3935 C   0  0  0  0  0  0  0  0  0  0  0  0
    4.7629    1.3019    1.5209 C   0  0  0  0  0  0  0  0  0  0  0  0
    5.5325    0.3620    0.9289 N   0  0  0  0  0  4  0  0  0  0  0  0
    6.9958    0.4127    1.0869 C   0  0  0  0  0  0  0  0  0  0  0  0
    4.9713   -0.6402    0.2168 C   0  0  0  0  0  0  0  0  0  0  0  0
    3.5915   -0.7128    0.0617 C   0  0  0  0  0  0  0  0  0  0  0  0
   -1.6294    0.8070   -0.1053 C   0  0  0  0  0  0  0  0  0  0  0  0
   -3.0269    0.7386   -0.2257 C   0  0  0  0  0  0  0  0  0  0  0  0
   -5.7425    1.1139    0.3454 H   0  0  0  0  0  0  0  0  0  0  0  0
   -5.6109    1.6299   -1.3646 H   0  0  0  0  0  0  0  0  0  0  0  0
   -6.9409    0.6009   -0.8197 H   0  0  0  0  0  0  0  0  0  0  0  0
   -6.7678   -1.2875   -1.8914 H   0  0  0  0  0  0  0  0  0  0  0  0
   -5.4101   -2.3662   -1.6688 H   0  0  0  0  0  0  0  0  0  0  0  0
   -5.3674   -1.1236   -2.9580 H   0  0  0  0  0  0  0  0  0  0  0  0
   -3.2459   -2.1564   -1.9610 H   0  0  0  0  0  0  0  0  0  0  0  0
   -0.8461   -2.0403   -1.7655 H   0  0  0  0  0  0  0  0  0  0  0  0
    1.1639   -0.4564   -1.4693 H   0  0  0  0  0  0  0  0  0  0  0  0
    0.7664    0.5188    1.4351 H   0  0  0  0  0  0  0  0  0  0  0  0
    2.7767    2.0343    1.8770 H   0  0  0  0  0  0  0  0  0  0  0  0
    5.2627    2.0758    2.0968 H   0  0  0  0  0  0  0  0  0  0  0  0
    7.2485   -0.1625    1.9810 H   0  0  0  0  0  0  0  0  0  0  0  0
    7.4670   -0.0184    0.1998 H   0  0  0  0  0  0  0  0  0  0  0  0
    7.3090    1.4546    1.1920 H   0  0  0  0  0  0  0  0  0  0  0  0
    5.6334   -1.3829   -0.2196 H   0  0  0  0  0  0  0  0  0  0  0  0
    3.1621   -1.5385   -0.5025 H   0  0  0  0  0  0  0  0  0  0  0  0
   -1.1977    1.6598    0.4113 H   0  0  0  0  0  0  0  0  0  0  0  0
   -3.5963    1.5426    0.2310 H   0  0  0  0  0  0  0  0  0  0  0  0
  1  2  1  0
  2  3  1  0
  2  4  1  0
  4  5  2  0
  5  6  1  0
  6  7  2  0
  7  8  1  0
  8  9  2  3
  9 10  1  0
 10 11  2  0
 11 12  1  0
 12 13  2  0
 13 14  1  0
 13 15  1  0
 15 16  2  0
  7 17  1  0
 17 18  2  0
 18  4  1  0
 16 10  1  0
  1 19  1  0
  1 20  1  0
  1 21  1  0
  3 22  1  0
  3 23  1  0
  3 24  1  0
  5 25  1  0
  6 26  1  0
  8 27  1  0
  9 28  1  0
 11 29  1  0
 12 30  1  0
 14 31  1  0
 14 32  1  0
 14 33  1  0
 15 34  1  0
 16 35  1  0
 17 36  1  0
 18 37  1  0
M  CHG  1  13   1
M  END
$$$$
