
     RDKit          3D

 53 56  0  0  0  0  0  0  0  0999 V2000
   -7.1446    1.7036    2.5940 C   0  0  0  0  0  0  0  0  0  0  0  0
   -5.9287    1.3757    1.7794 C   0  0  0  0  0  0  0  0  0  0  0  0
   -4.6724    1.2762    2.3818 C   0  0  0  0  0  0  0  0  0  0  0  0
   -3.5473    0.9412    1.6223 C   0  0  0  0  0  0  0  0  0  0  0  0
   -3.6561    0.7042    0.2416 C   0  0  0  0  0  0  0  0  0  0  0  0
   -2.4786    0.3617   -0.4937 N   0  0  0  0  0  0  0  0  0  0  0  0
   -1.3770   -0.0447    0.1965 N   0  0  0  0  0  0  0  0  0  0  0  0
   -0.5310   -0.4925   -0.7324 C   0  0  0  0  0  0  0  0  0  0  0  0
    0.7732   -1.0922   -0.4937 C   0  0  0  0  0  0  0  0  0  0  0  0
    1.2612   -1.2609    0.6236 O   0  0  0  0  0  0  0  0  0  0  0  0
    1.4468   -1.4298   -1.6814 N   0  0  0  0  0  0  0  0  0  0  0  0
    2.7599   -2.0635   -1.5966 C   0  0  0  0  0  0  0  0  0  0  0  0
    3.8879   -1.0499   -1.4003 C   0  0  0  0  0  0  0  0  0  0  0  0
    4.9047   -1.0625   -2.0934 O   0  0  0  0  0  0  0  0  0  0  0  0
    3.7405   -0.2032   -0.3196 N   0  0  0  0  0  0  0  0  0  0  0  0
    4.8079    0.6859    0.0991 C   0  0  0  0  0  0  0  0  0  0  0  0
    5.9253   -0.0260    0.8708 C   0  0  0  0  0  0  0  0  0  0  0  0
    5.4566   -0.5384    2.2048 C   0  0  0  0  0  0  0  0  0  0  0  0
    5.3313    0.1603    3.3898 C   0  0  0  0  0  0  0  0  0  0  0  0
    4.8400   -0.6550    4.4495 C   0  0  0  0  0  0  0  0  0  0  0  0
    4.6133   -1.9500    4.0408 C   0  0  0  0  0  0  0  0  0  0  0  0
    4.9982   -2.1795    2.3911 S   0  0  0  0  0  0  0  0  0  0  0  0
    0.9464   -1.2258   -2.9735 N   0  0  0  0  0  0  0  0  0  0  0  0
   -0.2238   -0.6836   -3.1664 C   0  0  0  0  0  0  0  0  0  0  0  0
   -0.7000   -0.4980   -4.5788 C   0  0  0  0  0  0  0  0  0  0  0  0
   -1.0146   -0.2838   -2.0277 C   0  0  0  0  0  0  0  0  0  0  0  0
   -2.2301    0.3624   -1.8729 C   0  0  0  0  0  0  0  0  0  0  0  0
   -3.1024    1.0051   -2.8897 C   0  0  0  0  0  0  0  0  0  0  0  0
   -4.9216    0.7651   -0.3510 C   0  0  0  0  0  0  0  0  0  0  0  0
   -6.0465    1.1006    0.4133 C   0  0  0  0  0  0  0  0  0  0  0  0
   -7.8229    2.3516    2.0296 H   0  0  0  0  0  0  0  0  0  0  0  0
   -7.6720    0.7845    2.8669 H   0  0  0  0  0  0  0  0  0  0  0  0
   -6.8735    2.2373    3.5109 H   0  0  0  0  0  0  0  0  0  0  0  0
   -4.5549    1.4564    3.4482 H   0  0  0  0  0  0  0  0  0  0  0  0
   -2.5838    0.8782    2.1270 H   0  0  0  0  0  0  0  0  0  0  0  0
    2.9425   -2.6243   -2.5199 H   0  0  0  0  0  0  0  0  0  0  0  0
    2.7785   -2.7677   -0.7574 H   0  0  0  0  0  0  0  0  0  0  0  0
    3.0481   -0.4605    0.3850 H   0  0  0  0  0  0  0  0  0  0  0  0
    4.3486    1.4723    0.7079 H   0  0  0  0  0  0  0  0  0  0  0  0
    5.2311    1.1566   -0.7956 H   0  0  0  0  0  0  0  0  0  0  0  0
    6.7421    0.6869    1.0419 H   0  0  0  0  0  0  0  0  0  0  0  0
    6.3474   -0.8406    0.2707 H   0  0  0  0  0  0  0  0  0  0  0  0
    5.5736    1.2114    3.4924 H   0  0  0  0  0  0  0  0  0  0  0  0
    4.6590   -0.3086    5.4597 H   0  0  0  0  0  0  0  0  0  0  0  0
    4.2398   -2.7756    4.6309 H   0  0  0  0  0  0  0  0  0  0  0  0
   -0.6476    0.5608   -4.8452 H   0  0  0  0  0  0  0  0  0  0  0  0
   -0.0656   -1.0607   -5.2702 H   0  0  0  0  0  0  0  0  0  0  0  0
   -1.7279   -0.8548   -4.6827 H   0  0  0  0  0  0  0  0  0  0  0  0
   -3.8355    0.2926   -3.2791 H   0  0  0  0  0  0  0  0  0  0  0  0
   -3.6184    1.8830   -2.4904 H   0  0  0  0  0  0  0  0  0  0  0  0
   -2.5133    1.3736   -3.7339 H   0  0  0  0  0  0  0  0  0  0  0  0
   -5.0904    0.5120   -1.3902 H   0  0  0  0  0  0  0  0  0  0  0  0
   -7.0233    1.1328   -0.0657 H   0  0  0  0  0  0  0  0  0  0  0  0
  1  2  1  0
  2  3  2  0
  3  4  1  0
  4  5  2  0
  5  6  1  0
  6  7  1  0
  7  8  2  0
  8  9  1  0
  9 10  2  0
  9 11  1  0
 11 12  1  0
 12 13  1  0
 13 14  2  0
 13 15  1  0
 15 16  1  0
 16 17  1  0
 17 18  1  0
 18 19  2  0
 19 20  1  0
 20 21  2  0
 21 22  1  0
 11 23  1  0
 23 24  2  0
 24 25  1  0
 24 26  1  0
 26 27  2  0
 27 28  1  0
  5 29  1  0
 29 30  2  0
 30  2  1  0
 27  6  1  0
 26  8  1  0
 22 18  1  0
  1 31  1  0
  1 32  1  0
  1 33  1  0
  3 34  1  0
  4 35  1  0
 12 36  1  0
 12 37  1  0
 15 38  1  0
 16 39  1  0
 16 40  1  0
 17 41  1  0
 17 42  1  0
 19 43  1  0
 20 44  1  0
 21 45  1  0
 25 46  1  0
 25 47  1  0
 25 48  1  0
 28 49  1  0
 28 50  1  0
 28 51  1  0
 29 52  1  0
 30 53  1  0
M  END
$$$$
