
     RDKit          3D

 38 39  0  0  0  0  0  0  0  0999 V2000
   -4.4888    2.0298    2.2176 C   0  0  0  0  0  0  0  0  0  0  0  0
   -3.5961    1.1257    1.5763 O   0  0  0  0  0  0  0  0  0  0  0  0
   -4.1100    0.2843    0.6265 C   0  0  0  0  0  0  0  0  0  0  0  0
   -5.4554    0.2787    0.2334 C   0  0  0  0  0  0  0  0  0  0  0  0
   -5.9207   -0.6378   -0.7152 C   0  0  0  0  0  0  0  0  0  0  0  0
   -5.0510   -1.5640   -1.2803 C   0  0  0  0  0  0  0  0  0  0  0  0
   -3.7103   -1.5685   -0.9033 C   0  0  0  0  0  0  0  0  0  0  0  0
   -3.2307   -0.6417    0.0377 C   0  0  0  0  0  0  0  0  0  0  0  0
   -1.7785   -0.7172    0.3630 C   0  0  0  0  0  0  0  0  0  0  0  0
   -1.2185   -1.8148    0.3357 O   0  0  0  0  0  0  0  0  0  0  0  0
   -1.0247    0.5729    0.6735 C   0  0  0  0  0  0  0  0  0  0  0  0
    0.3733    0.4585    0.3891 O   0  0  0  0  0  0  0  0  0  0  0  0
    0.6673    0.4457   -0.9329 C   0  0  0  0  0  0  0  0  0  0  0  0
   -0.1307    0.6006   -1.8467 O   0  0  0  0  0  0  0  0  0  0  0  0
    2.1091    0.2418   -1.1798 C   0  0  0  0  0  0  0  0  0  0  0  0
    3.0216    0.0386   -0.2167 C   0  0  0  0  0  0  0  0  0  0  0  0
    4.4537   -0.1553   -0.4816 C   0  0  0  0  0  0  0  0  0  0  0  0
    5.3865    0.3949    0.4073 C   0  0  0  0  0  0  0  0  0  0  0  0
    6.7567    0.2119    0.2045 C   0  0  0  0  0  0  0  0  0  0  0  0
    7.2076   -0.5332   -0.8827 C   0  0  0  0  0  0  0  0  0  0  0  0
    6.2894   -1.1002   -1.7639 C   0  0  0  0  0  0  0  0  0  0  0  0
    4.9188   -0.9168   -1.5619 C   0  0  0  0  0  0  0  0  0  0  0  0
   -3.9121    2.6035    2.9496 H   0  0  0  0  0  0  0  0  0  0  0  0
   -5.2735    1.4924    2.7600 H   0  0  0  0  0  0  0  0  0  0  0  0
   -4.9138    2.7389    1.4999 H   0  0  0  0  0  0  0  0  0  0  0  0
   -6.1780    0.9732    0.6504 H   0  0  0  0  0  0  0  0  0  0  0  0
   -6.9682   -0.6305   -1.0082 H   0  0  0  0  0  0  0  0  0  0  0  0
   -5.4123   -2.2806   -2.0137 H   0  0  0  0  0  0  0  0  0  0  0  0
   -3.0315   -2.2928   -1.3513 H   0  0  0  0  0  0  0  0  0  0  0  0
   -1.4436    1.4261    0.1287 H   0  0  0  0  0  0  0  0  0  0  0  0
   -1.1066    0.7656    1.7475 H   0  0  0  0  0  0  0  0  0  0  0  0
    2.3793    0.2750   -2.2294 H   0  0  0  0  0  0  0  0  0  0  0  0
    2.7327    0.0250    0.8319 H   0  0  0  0  0  0  0  0  0  0  0  0
    5.0546    0.9784    1.2632 H   0  0  0  0  0  0  0  0  0  0  0  0
    7.4706    0.6496    0.8974 H   0  0  0  0  0  0  0  0  0  0  0  0
    8.2733   -0.6778   -1.0395 H   0  0  0  0  0  0  0  0  0  0  0  0
    6.6384   -1.6920   -2.6062 H   0  0  0  0  0  0  0  0  0  0  0  0
    4.2222   -1.3879   -2.2512 H   0  0  0  0  0  0  0  0  0  0  0  0
  1  2  1  0
  2  3  1  0
  3  4  2  0
  4  5  1  0
  5  6  2  0
  6  7  1  0
  7  8  2  0
  8  9  1  0
  9 10  2  0
  9 11  1  0
 11 12  1  0
 12 13  1  0
 13 14  2  0
 13 15  1  0
 15 16  2  3
 16 17  1  0
 17 18  2  0
 18 19  1  0
 19 20  2  0
 20 21  1  0
 21 22  2  0
  8  3  1  0
 22 17  1  0
  1 23  1  0
  1 24  1  0
  1 25  1  0
  4 26  1  0
  5 27  1  0
  6 28  1  0
  7 29  1  0
 11 30  1  0
 11 31  1  0
 15 32  1  0
 16 33  1  0
 18 34  1  0
 19 35  1  0
 20 36  1  0
 21 37  1  0
 22 38  1  0
M  END
$$$$
