
     RDKit          3D

 39 41  0  0  0  0  0  0  0  0999 V2000
    5.4025   -0.8499   -1.5292 C   0  0  0  0  0  0  0  0  0  0  0  0
    4.4914    0.2941   -1.9375 C   0  0  0  0  0  0  0  0  0  0  0  0
    4.0615    1.0895   -0.7984 N   0  0  0  0  0  0  0  0  0  0  0  0
    4.8350    2.1378   -0.4302 N   0  0  0  0  0  0  0  0  0  0  0  0
    4.1918    2.6578    0.6139 C   0  0  0  0  0  0  0  0  0  0  0  0
    3.0091    1.9640    0.8913 C   0  0  0  0  0  0  0  0  0  0  0  0
    1.8908    2.3936    2.3306 Br  0  0  0  0  0  0  0  0  0  0  0  0
    2.9109    0.9532   -0.0452 C   0  0  0  0  0  0  0  0  0  0  0  0
    1.9176   -0.0840   -0.2530 C   0  0  0  0  0  0  0  0  0  0  0  0
    2.2282   -1.1573   -0.7555 O   0  0  0  0  0  0  0  0  0  0  0  0
    0.6394    0.2890    0.1171 N   0  0  0  0  0  0  0  0  0  0  0  0
   -0.5197   -0.4758    0.0730 C   0  0  0  0  0  0  0  0  0  0  0  0
   -0.4720   -2.1443   -0.3261 S   0  0  0  0  0  0  0  0  0  0  0  0
   -2.1197   -2.2750   -0.1290 C   0  0  0  0  0  0  0  0  0  0  0  0
   -2.7308   -1.1090    0.2346 C   0  0  0  0  0  0  0  0  0  0  0  0
   -1.8139   -0.0252    0.3557 C   0  0  0  0  0  0  0  0  0  0  0  0
   -2.1172    1.3596    0.7053 C   0  0  0  0  0  0  0  0  0  0  0  0
   -1.2578    2.2337    0.7686 O   0  0  0  0  0  0  0  0  0  0  0  0
   -3.4431    1.5717    0.9456 O   0  0  0  0  0  0  0  0  0  0  0  0
   -3.7664    2.9189    1.2894 C   0  0  0  0  0  0  0  0  0  0  0  0
   -4.1962   -1.3088    0.3886 C   0  0  0  0  0  0  0  0  0  0  0  0
   -4.3253   -2.8645    0.3934 C   0  0  0  0  0  0  0  0  0  0  0  0
   -3.0378   -3.4265   -0.2807 C   0  0  0  0  0  0  0  0  0  0  0  0
    4.9057   -1.5291   -0.8294 H   0  0  0  0  0  0  0  0  0  0  0  0
    6.3081   -0.4755   -1.0399 H   0  0  0  0  0  0  0  0  0  0  0  0
    5.7049   -1.4264   -2.4088 H   0  0  0  0  0  0  0  0  0  0  0  0
    5.0185    0.9671   -2.6243 H   0  0  0  0  0  0  0  0  0  0  0  0
    3.6061   -0.0659   -2.4689 H   0  0  0  0  0  0  0  0  0  0  0  0
    4.6201    3.5117    1.1229 H   0  0  0  0  0  0  0  0  0  0  0  0
    0.5028    1.2520    0.4190 H   0  0  0  0  0  0  0  0  0  0  0  0
   -4.8447    2.9746    1.4626 H   0  0  0  0  0  0  0  0  0  0  0  0
   -3.2525    3.2141    2.2095 H   0  0  0  0  0  0  0  0  0  0  0  0
   -3.5126    3.5959    0.4677 H   0  0  0  0  0  0  0  0  0  0  0  0
   -4.5900   -0.8837    1.3158 H   0  0  0  0  0  0  0  0  0  0  0  0
   -4.7323   -0.8825   -0.4658 H   0  0  0  0  0  0  0  0  0  0  0  0
   -5.2386   -3.2071   -0.1028 H   0  0  0  0  0  0  0  0  0  0  0  0
   -4.3651   -3.2148    1.4335 H   0  0  0  0  0  0  0  0  0  0  0  0
   -3.2207   -3.6422   -1.3383 H   0  0  0  0  0  0  0  0  0  0  0  0
   -2.6880   -4.3308    0.2246 H   0  0  0  0  0  0  0  0  0  0  0  0
  1  2  1  0
  2  3  1  0
  3  4  1  0
  4  5  2  0
  5  6  1  0
  6  7  1  0
  6  8  2  0
  8  9  1  0
  9 10  2  0
  9 11  1  0
 11 12  1  0
 12 13  1  0
 13 14  1  0
 14 15  2  0
 15 16  1  0
 16 17  1  0
 17 18  2  0
 17 19  1  0
 19 20  1  0
 15 21  1  0
 21 22  1  0
 22 23  1  0
  8  3  1  0
 16 12  2  0
 23 14  1  0
  1 24  1  0
  1 25  1  0
  1 26  1  0
  2 27  1  0
  2 28  1  0
  5 29  1  0
 11 30  1  0
 20 31  1  0
 20 32  1  0
 20 33  1  0
 21 34  1  0
 21 35  1  0
 22 36  1  0
 22 37  1  0
 23 38  1  0
 23 39  1  0
M  END
$$$$
