
     RDKit          3D

 31 32  0  0  0  0  0  0  0  0999 V2000
    5.4142   -1.4149    1.1626 C   0  0  0  0  0  0  0  0  0  0  0  0
    4.2809   -0.0887    1.6554 S   0  0  0  0  0  0  0  0  0  0  0  0
    2.8143   -0.5868    0.7687 C   0  0  0  0  0  0  0  0  0  0  0  0
    2.8217   -0.7595   -0.6197 C   0  0  0  0  0  0  0  0  0  0  0  0
    1.6553   -1.1327   -1.2904 C   0  0  0  0  0  0  0  0  0  0  0  0
    0.4748   -1.3312   -0.5762 C   0  0  0  0  0  0  0  0  0  0  0  0
    0.4617   -1.1579    0.8060 C   0  0  0  0  0  0  0  0  0  0  0  0
   -0.7643   -1.3192    1.5206 N   0  0  0  0  0  0  0  0  0  0  0  0
   -1.7262    0.0756    1.6750 S   0  0  0  0  0  6  0  0  0  0  0  0
   -0.8801    1.1914    2.0486 O   0  0  0  0  0  0  0  0  0  0  0  0
   -2.8670   -0.2917    2.4891 O   0  0  0  0  0  0  0  0  0  0  0  0
   -2.4178    0.5275    0.1390 C   0  0  0  0  0  0  0  0  0  0  0  0
   -2.7628    1.8098   -0.2452 C   0  0  0  0  0  0  0  0  0  0  0  0
   -3.2760    1.6756   -1.5018 N   0  0  0  0  0  0  0  0  0  0  0  0
   -3.7858    2.7362   -2.3331 C   0  0  0  0  0  0  0  0  0  0  0  0
   -3.2328    0.3528   -1.8384 C   0  0  0  0  0  0  0  0  0  0  0  0
   -2.7171   -0.3748   -0.8728 N   0  0  0  0  0  0  0  0  0  0  0  0
    1.6227   -0.7709    1.4779 C   0  0  0  0  0  0  0  0  0  0  0  0
    5.6485   -1.3531    0.0969 H   0  0  0  0  0  0  0  0  0  0  0  0
    4.9801   -2.3936    1.3849 H   0  0  0  0  0  0  0  0  0  0  0  0
    6.3464   -1.3134    1.7248 H   0  0  0  0  0  0  0  0  0  0  0  0
    3.7280   -0.5890   -1.1951 H   0  0  0  0  0  0  0  0  0  0  0  0
    1.6641   -1.2630   -2.3694 H   0  0  0  0  0  0  0  0  0  0  0  0
   -0.4298   -1.6271   -1.1020 H   0  0  0  0  0  0  0  0  0  0  0  0
   -0.6529   -1.7196    2.4510 H   0  0  0  0  0  0  0  0  0  0  0  0
   -2.6815    2.7581    0.2687 H   0  0  0  0  0  0  0  0  0  0  0  0
   -4.6775    2.3799   -2.8555 H   0  0  0  0  0  0  0  0  0  0  0  0
   -4.0454    3.5939   -1.7070 H   0  0  0  0  0  0  0  0  0  0  0  0
   -3.0080    3.0122   -3.0494 H   0  0  0  0  0  0  0  0  0  0  0  0
   -3.5877   -0.0238   -2.7896 H   0  0  0  0  0  0  0  0  0  0  0  0
    1.5999   -0.6021    2.5513 H   0  0  0  0  0  0  0  0  0  0  0  0
  1  2  1  0
  2  3  1  0
  3  4  2  0
  4  5  1  0
  5  6  2  0
  6  7  1  0
  7  8  1  0
  8  9  1  0
  9 10  2  0
  9 11  2  0
  9 12  1  0
 12 13  2  0
 13 14  1  0
 14 15  1  0
 14 16  1  0
 16 17  2  0
  7 18  2  0
 18  3  1  0
 17 12  1  0
  1 19  1  0
  1 20  1  0
  1 21  1  0
  4 22  1  0
  5 23  1  0
  6 24  1  0
  8 25  1  0
 13 26  1  0
 15 27  1  0
 15 28  1  0
 15 29  1  0
 16 30  1  0
 18 31  1  0
M  END
$$$$
