
     RDKit          3D

 62 66  0  0  0  0  0  0  0  0999 V2000
   -3.9934    5.9819   -3.1287 C   0  0  0  0  0  0  0  0  0  0  0  0
   -3.2414    5.0068   -2.4178 O   0  0  0  0  0  0  0  0  0  0  0  0
   -3.9049    3.8763   -2.0253 C   0  0  0  0  0  0  0  0  0  0  0  0
   -5.2425    3.5909   -2.2624 C   0  0  0  0  0  0  0  0  0  0  0  0
   -5.8081    2.3950   -1.8055 C   0  0  0  0  0  0  0  0  0  0  0  0
   -5.0049    1.4772   -1.1015 C   0  0  0  0  0  0  0  0  0  0  0  0
   -5.4958   -0.0355   -0.4539 S   0  0  0  0  0  0  0  0  0  0  0  0
   -3.9371   -0.3781    0.1616 C   0  0  0  0  0  0  0  0  0  0  0  0
   -3.7302   -1.6534    0.8642 C   0  0  0  0  0  0  0  0  0  0  0  0
   -4.2631   -1.8138    2.1549 C   0  0  0  0  0  0  0  0  0  0  0  0
   -4.0669   -2.9984    2.8635 C   0  0  0  0  0  0  0  0  0  0  0  0
   -3.3386   -4.0354    2.2887 C   0  0  0  0  0  0  0  0  0  0  0  0
   -2.8019   -3.8909    1.0066 C   0  0  0  0  0  0  0  0  0  0  0  0
   -2.9831   -2.7015    0.2900 C   0  0  0  0  0  0  0  0  0  0  0  0
   -2.5067   -2.5020   -0.9822 O   0  0  0  0  0  0  0  0  0  0  0  0
   -1.3832   -3.2838   -1.3664 C   0  0  0  0  0  0  0  0  0  0  0  0
   -3.0426    0.6444   -0.1154 C   0  0  0  0  0  0  0  0  0  0  0  0
   -1.6447    0.5755    0.2985 C   0  0  0  0  0  0  0  0  0  0  0  0
   -1.2958    0.6599    1.6487 C   0  0  0  0  0  0  0  0  0  0  0  0
    0.0470    0.5917    2.0280 C   0  0  0  0  0  0  0  0  0  0  0  0
    1.0532    0.4431    1.0696 C   0  0  0  0  0  0  0  0  0  0  0  0
    2.3215    0.3884    1.5783 O   0  0  0  0  0  0  0  0  0  0  0  0
    3.3903    0.2143    0.6427 C   0  0  0  0  0  0  0  0  0  0  0  0
    4.7101    0.1834    1.4286 C   0  0  0  0  0  0  0  0  0  0  0  0
    5.8958    0.0474    0.5741 N   0  0  0  0  0  0  0  0  0  0  0  0
    6.0010   -1.2626   -0.0725 C   0  0  0  0  0  0  0  0  0  0  0  0
    7.4581   -1.3283   -0.5104 C   0  0  0  0  0  0  0  0  0  0  0  0
    8.1899   -0.3261    0.3746 C   0  0  0  0  0  0  0  0  0  0  0  0
    7.1357    0.1846    1.3426 C   0  0  0  0  0  0  0  0  0  0  0  0
    0.7056    0.3663   -0.2795 C   0  0  0  0  0  0  0  0  0  0  0  0
   -0.6385    0.4334   -0.6632 C   0  0  0  0  0  0  0  0  0  0  0  0
   -3.6560    1.7295   -0.8501 C   0  0  0  0  0  0  0  0  0  0  0  0
   -3.1177    2.9551   -1.3241 C   0  0  0  0  0  0  0  0  0  0  0  0
   -4.3676    5.5786   -4.0754 H   0  0  0  0  0  0  0  0  0  0  0  0
   -4.8107    6.3750   -2.5150 H   0  0  0  0  0  0  0  0  0  0  0  0
   -3.3236    6.8147   -3.3635 H   0  0  0  0  0  0  0  0  0  0  0  0
   -5.8866    4.2773   -2.8021 H   0  0  0  0  0  0  0  0  0  0  0  0
   -6.8563    2.1784   -1.9931 H   0  0  0  0  0  0  0  0  0  0  0  0
   -4.8319   -1.0084    2.6145 H   0  0  0  0  0  0  0  0  0  0  0  0
   -4.4846   -3.1113    3.8605 H   0  0  0  0  0  0  0  0  0  0  0  0
   -3.1916   -4.9632    2.8359 H   0  0  0  0  0  0  0  0  0  0  0  0
   -2.2589   -4.7300    0.5847 H   0  0  0  0  0  0  0  0  0  0  0  0
   -1.6831   -4.3138   -1.5835 H   0  0  0  0  0  0  0  0  0  0  0  0
   -0.5914   -3.2536   -0.6099 H   0  0  0  0  0  0  0  0  0  0  0  0
   -0.9781   -2.8550   -2.2882 H   0  0  0  0  0  0  0  0  0  0  0  0
   -2.0610    0.7782    2.4115 H   0  0  0  0  0  0  0  0  0  0  0  0
    0.3107    0.6553    3.0807 H   0  0  0  0  0  0  0  0  0  0  0  0
    3.4100    1.0524   -0.0649 H   0  0  0  0  0  0  0  0  0  0  0  0
    3.2537   -0.7307    0.1043 H   0  0  0  0  0  0  0  0  0  0  0  0
    4.7782    1.1229    1.9935 H   0  0  0  0  0  0  0  0  0  0  0  0
    4.6670   -0.6123    2.1846 H   0  0  0  0  0  0  0  0  0  0  0  0
    5.3277   -1.3587   -0.9299 H   0  0  0  0  0  0  0  0  0  0  0  0
    5.7906   -2.0792    0.6300 H   0  0  0  0  0  0  0  0  0  0  0  0
    7.8619   -2.3392   -0.3924 H   0  0  0  0  0  0  0  0  0  0  0  0
    7.5658   -1.0441   -1.5636 H   0  0  0  0  0  0  0  0  0  0  0  0
    9.0350   -0.7839    0.8983 H   0  0  0  0  0  0  0  0  0  0  0  0
    8.5796    0.4943   -0.2401 H   0  0  0  0  0  0  0  0  0  0  0  0
    7.1245   -0.4395    2.2455 H   0  0  0  0  0  0  0  0  0  0  0  0
    7.3279    1.2215    1.6356 H   0  0  0  0  0  0  0  0  0  0  0  0
    1.4512    0.2552   -1.0593 H   0  0  0  0  0  0  0  0  0  0  0  0
   -0.8979    0.3640   -1.7174 H   0  0  0  0  0  0  0  0  0  0  0  0
   -2.0715    3.1879   -1.1376 H   0  0  0  0  0  0  0  0  0  0  0  0
  1  2  1  0
  2  3  1  0
  3  4  2  0
  4  5  1  0
  5  6  2  0
  6  7  1  0
  7  8  1  0
  8  9  1  0
  9 10  2  0
 10 11  1  0
 11 12  2  0
 12 13  1  0
 13 14  2  0
 14 15  1  0
 15 16  1  0
  8 17  2  0
 17 18  1  0
 18 19  2  0
 19 20  1  0
 20 21  2  0
 21 22  1  0
 22 23  1  0
 23 24  1  0
 24 25  1  0
 25 26  1  0
 26 27  1  0
 27 28  1  0
 28 29  1  0
 21 30  1  0
 30 31  2  0
 17 32  1  0
 32 33  2  0
 33  3  1  0
 32  6  1  0
 14  9  1  0
 31 18  1  0
 29 25  1  0
  1 34  1  0
  1 35  1  0
  1 36  1  0
  4 37  1  0
  5 38  1  0
 10 39  1  0
 11 40  1  0
 12 41  1  0
 13 42  1  0
 16 43  1  0
 16 44  1  0
 16 45  1  0
 19 46  1  0
 20 47  1  0
 23 48  1  0
 23 49  1  0
 24 50  1  0
 24 51  1  0
 26 52  1  0
 26 53  1  0
 27 54  1  0
 27 55  1  0
 28 56  1  0
 28 57  1  0
 29 58  1  0
 29 59  1  0
 30 60  1  0
 31 61  1  0
 33 62  1  0
M  END
$$$$
