
     RDKit          3D

 36 37  0  0  0  0  0  0  0  0999 V2000
   -7.3756    0.2131    0.6866 C   0  0  0  0  0  0  0  0  0  0  0  0
   -6.3694   -0.0368   -0.2870 O   0  0  0  0  0  0  0  0  0  0  0  0
   -5.0700    0.0641    0.1257 C   0  0  0  0  0  0  0  0  0  0  0  0
   -4.1212   -0.1877   -0.8691 C   0  0  0  0  0  0  0  0  0  0  0  0
   -2.7530   -0.1201   -0.5883 C   0  0  0  0  0  0  0  0  0  0  0  0
   -2.3194    0.2027    0.7023 C   0  0  0  0  0  0  0  0  0  0  0  0
   -0.8789    0.2907    1.0657 C   0  0  0  0  0  0  0  0  0  0  0  0
   -0.4823    0.5706    2.1857 O   0  0  0  0  0  0  0  0  0  0  0  0
   -0.0965    0.0189   -0.0080 O   0  0  0  0  0  0  0  0  0  0  0  0
    1.3133    0.0858    0.2574 C   0  0  0  0  0  0  0  0  0  0  0  0
    2.0560   -0.2615   -1.0299 C   0  0  0  0  0  0  0  0  0  0  0  0
    3.5515   -0.2189   -0.8559 C   0  0  0  0  0  0  0  0  0  0  0  0
    4.2504   -1.3575   -0.4293 C   0  0  0  0  0  0  0  0  0  0  0  0
    5.6349   -1.3139   -0.2491 C   0  0  0  0  0  0  0  0  0  0  0  0
    6.3194   -0.1279   -0.4925 C   0  0  0  0  0  0  0  0  0  0  0  0
    7.6702   -0.0405   -0.3289 O   0  0  0  0  0  0  0  0  0  0  0  0
    5.6428    1.0112   -0.9105 C   0  0  0  0  0  0  0  0  0  0  0  0
    4.2596    0.9679   -1.0904 C   0  0  0  0  0  0  0  0  0  0  0  0
   -3.2709    0.4551    1.6995 C   0  0  0  0  0  0  0  0  0  0  0  0
   -4.6398    0.3861    1.4129 C   0  0  0  0  0  0  0  0  0  0  0  0
   -7.3215   -0.5124    1.5050 H   0  0  0  0  0  0  0  0  0  0  0  0
   -7.3147    1.2397    1.0627 H   0  0  0  0  0  0  0  0  0  0  0  0
   -8.3485    0.0940    0.2000 H   0  0  0  0  0  0  0  0  0  0  0  0
   -4.4519   -0.4391   -1.8746 H   0  0  0  0  0  0  0  0  0  0  0  0
   -2.0435   -0.3216   -1.3865 H   0  0  0  0  0  0  0  0  0  0  0  0
    1.5737    1.0990    0.5871 H   0  0  0  0  0  0  0  0  0  0  0  0
    1.5701   -0.6278    1.0499 H   0  0  0  0  0  0  0  0  0  0  0  0
    1.7479   -1.2548   -1.3816 H   0  0  0  0  0  0  0  0  0  0  0  0
    1.7512    0.4234   -1.8320 H   0  0  0  0  0  0  0  0  0  0  0  0
    3.7190   -2.2867   -0.2346 H   0  0  0  0  0  0  0  0  0  0  0  0
    6.1556   -2.2073    0.0799 H   0  0  0  0  0  0  0  0  0  0  0  0
    8.0012   -0.9034   -0.0313 H   0  0  0  0  0  0  0  0  0  0  0  0
    6.1903    1.9311   -1.0945 H   0  0  0  0  0  0  0  0  0  0  0  0
    3.7400    1.8668   -1.4145 H   0  0  0  0  0  0  0  0  0  0  0  0
   -2.9505    0.7079    2.7091 H   0  0  0  0  0  0  0  0  0  0  0  0
   -5.3390    0.5896    2.2174 H   0  0  0  0  0  0  0  0  0  0  0  0
  1  2  1  0
  2  3  1  0
  3  4  2  0
  4  5  1  0
  5  6  2  0
  6  7  1  0
  7  8  2  0
  7  9  1  0
  9 10  1  0
 10 11  1  0
 11 12  1  0
 12 13  2  0
 13 14  1  0
 14 15  2  0
 15 16  1  0
 15 17  1  0
 17 18  2  0
  6 19  1  0
 19 20  2  0
 20  3  1  0
 18 12  1  0
  1 21  1  0
  1 22  1  0
  1 23  1  0
  4 24  1  0
  5 25  1  0
 10 26  1  0
 10 27  1  0
 11 28  1  0
 11 29  1  0
 13 30  1  0
 14 31  1  0
 16 32  1  0
 17 33  1  0
 18 34  1  0
 19 35  1  0
 20 36  1  0
M  END
$$$$
