
     RDKit          3D

 43 45  0  0  0  0  0  0  0  0999 V2000
   -1.6269   -2.3339    3.2203 C   0  0  0  0  0  0  0  0  0  0  0  0
   -1.5264   -1.3381    2.1057 C   0  0  0  0  0  0  0  0  0  0  0  0
   -0.3025   -0.8300    1.7317 C   0  0  0  0  0  0  0  0  0  0  0  0
   -0.2902    0.0808    0.6947 C   0  0  0  0  0  0  0  0  0  0  0  0
    0.9065    0.6710    0.2517 N   0  0  0  0  0  0  0  0  0  0  0  0
    2.0761   -0.0056    0.4045 N   0  0  0  0  0  0  0  0  0  0  0  0
    3.0924    0.5518   -0.1779 C   0  0  0  0  0  0  0  0  0  0  0  0
    4.4436   -0.0540   -0.1192 C   0  0  0  0  0  0  0  0  0  0  0  0
    4.6364   -1.2051    0.6591 C   0  0  0  0  0  0  0  0  0  0  0  0
    5.9050   -1.7847    0.7721 C   0  0  0  0  0  0  0  0  0  0  0  0
    6.9989   -1.2226    0.1137 C   0  0  0  0  0  0  0  0  0  0  0  0
    6.8278   -0.0813   -0.6676 C   0  0  0  0  0  0  0  0  0  0  0  0
    5.5502    0.4883   -0.7816 C   0  0  0  0  0  0  0  0  0  0  0  0
    5.4181    1.6545   -1.6286 N   0  0  0  0  0  4  0  0  0  0  0  0
    4.6120    1.5863   -2.5649 O   0  0  0  0  0  0  0  0  0  0  0  0
    6.1310    2.6291   -1.3595 O   0  0  0  0  0  1  0  0  0  0  0  0
   -1.4163    0.4785    0.0785 N   0  0  0  0  0  0  0  0  0  0  0  0
   -2.5804   -0.0634    0.4993 C   0  0  0  0  0  0  0  0  0  0  0  0
   -3.8056    0.3434   -0.1549 N   0  0  0  0  0  0  0  0  0  0  0  0
   -5.0131   -0.1742    0.2325 N   0  0  0  0  0  0  0  0  0  0  0  0
   -5.9181    0.3989   -0.5613 C   0  0  0  0  0  0  0  0  0  0  0  0
   -7.3539    0.0615   -0.4141 C   0  0  0  0  0  0  0  0  0  0  0  0
   -5.3257    1.2924   -1.4697 C   0  0  0  0  0  0  0  0  0  0  0  0
   -3.9729    1.2506   -1.2023 C   0  0  0  0  0  0  0  0  0  0  0  0
   -2.8705    1.9957   -1.8599 C   0  0  0  0  0  0  0  0  0  0  0  0
   -2.6683   -0.9674    1.5009 N   0  0  0  0  0  0  0  0  0  0  0  0
   -2.6663   -2.6398    3.3778 H   0  0  0  0  0  0  0  0  0  0  0  0
   -1.2553   -1.8971    4.1525 H   0  0  0  0  0  0  0  0  0  0  0  0
   -1.0414   -3.2278    2.9835 H   0  0  0  0  0  0  0  0  0  0  0  0
    0.6126   -1.1274    2.2267 H   0  0  0  0  0  0  0  0  0  0  0  0
    0.7218    1.2194   -0.5871 H   0  0  0  0  0  0  0  0  0  0  0  0
    2.9672    1.5060   -0.7174 H   0  0  0  0  0  0  0  0  0  0  0  0
    3.8018   -1.6598    1.1911 H   0  0  0  0  0  0  0  0  0  0  0  0
    6.0380   -2.6768    1.3816 H   0  0  0  0  0  0  0  0  0  0  0  0
    7.9831   -1.6769    0.2099 H   0  0  0  0  0  0  0  0  0  0  0  0
    7.6832    0.3524   -1.1824 H   0  0  0  0  0  0  0  0  0  0  0  0
   -7.7290    0.3994    0.5573 H   0  0  0  0  0  0  0  0  0  0  0  0
   -7.5061   -1.0202   -0.4880 H   0  0  0  0  0  0  0  0  0  0  0  0
   -7.9539    0.5406   -1.1946 H   0  0  0  0  0  0  0  0  0  0  0  0
   -5.8170    1.8918   -2.2237 H   0  0  0  0  0  0  0  0  0  0  0  0
   -2.3480    2.6391   -1.1454 H   0  0  0  0  0  0  0  0  0  0  0  0
   -2.1550    1.3114   -2.3262 H   0  0  0  0  0  0  0  0  0  0  0  0
   -3.2629    2.6431   -2.6519 H   0  0  0  0  0  0  0  0  0  0  0  0
  1  2  1  0
  2  3  2  0
  3  4  1  0
  4  5  1  0
  5  6  1  0
  6  7  2  3
  7  8  1  0
  8  9  2  0
  9 10  1  0
 10 11  2  0
 11 12  1  0
 12 13  2  0
 13 14  1  0
 14 15  2  0
 14 16  1  0
  4 17  2  0
 17 18  1  0
 18 19  1  0
 19 20  1  0
 20 21  2  0
 21 22  1  0
 21 23  1  0
 23 24  2  0
 24 25  1  0
 18 26  2  0
 26  2  1  0
 13  8  1  0
 24 19  1  0
  1 27  1  0
  1 28  1  0
  1 29  1  0
  3 30  1  0
  5 31  1  0
  7 32  1  0
  9 33  1  0
 10 34  1  0
 11 35  1  0
 12 36  1  0
 22 37  1  0
 22 38  1  0
 22 39  1  0
 23 40  1  0
 25 41  1  0
 25 42  1  0
 25 43  1  0
M  CHG  2  14   1  16  -1
M  END
$$$$
