
     RDKit          3D

 38 41  0  0  0  0  0  0  0  0999 V2000
   -3.6469   -0.1156    4.1962 O   0  0  0  0  0  0  0  0  0  0  0  0
   -3.8953   -0.4471    3.0406 C   0  0  0  0  0  0  0  0  0  0  0  0
   -3.2489    0.1371    1.8803 C   0  0  0  0  0  0  0  0  0  0  0  0
   -2.3243    1.1633    1.9240 C   0  0  0  0  0  0  0  0  0  0  0  0
   -1.9318    1.4457    0.6431 N   0  0  0  0  0  0  0  0  0  0  0  0
   -0.9532    2.4649    0.2898 C   0  0  0  0  0  0  0  0  0  0  0  0
    0.3387    1.8941   -0.2701 C   0  0  0  0  0  0  0  0  0  0  0  0
    0.8415    2.3947   -1.2740 O   0  0  0  0  0  0  0  0  0  0  0  0
    0.8777    0.8605    0.4802 N   0  0  0  0  0  0  0  0  0  0  0  0
    2.0772    0.1566    0.2403 C   0  0  0  0  0  0  0  0  0  0  0  0
    2.3770   -0.9038    1.1266 C   0  0  0  0  0  0  0  0  0  0  0  0
    3.5420   -1.6657    0.9804 C   0  0  0  0  0  0  0  0  0  0  0  0
    4.3863   -1.3452   -0.0569 C   0  0  0  0  0  0  0  0  0  0  0  0
    4.1039   -0.3162   -0.9223 C   0  0  0  0  0  0  0  0  0  0  0  0
    2.9617    0.4520   -0.8017 C   0  0  0  0  0  0  0  0  0  0  0  0
    5.0650   -0.1639   -1.8740 O   0  0  0  0  0  0  0  0  0  0  0  0
    5.9804   -1.2164   -1.5083 C   0  0  0  0  0  0  0  0  0  0  0  0
    5.5564   -1.9698   -0.3531 O   0  0  0  0  0  0  0  0  0  0  0  0
   -2.5923    0.6262   -0.2482 C   0  0  0  0  0  0  0  0  0  0  0  0
   -2.5217    0.5448   -1.6484 C   0  0  0  0  0  0  0  0  0  0  0  0
   -3.3169   -0.4058   -2.2931 C   0  0  0  0  0  0  0  0  0  0  0  0
   -4.1552   -1.2467   -1.5694 C   0  0  0  0  0  0  0  0  0  0  0  0
   -4.2194   -1.1591   -0.1746 C   0  0  0  0  0  0  0  0  0  0  0  0
   -3.4262   -0.2088    0.5044 C   0  0  0  0  0  0  0  0  0  0  0  0
   -4.6394   -1.2324    2.8285 H   0  0  0  0  0  0  0  0  0  0  0  0
   -1.9310    1.7077    2.7749 H   0  0  0  0  0  0  0  0  0  0  0  0
   -0.7242    3.0594    1.1805 H   0  0  0  0  0  0  0  0  0  0  0  0
   -1.4245    3.1181   -0.4525 H   0  0  0  0  0  0  0  0  0  0  0  0
    0.3272    0.5255    1.2633 H   0  0  0  0  0  0  0  0  0  0  0  0
    1.7014   -1.1501    1.9428 H   0  0  0  0  0  0  0  0  0  0  0  0
    3.7726   -2.4796    1.6582 H   0  0  0  0  0  0  0  0  0  0  0  0
    2.7931    1.2509   -1.5124 H   0  0  0  0  0  0  0  0  0  0  0  0
    6.0825   -1.9031   -2.3565 H   0  0  0  0  0  0  0  0  0  0  0  0
    6.9596   -0.7717   -1.2964 H   0  0  0  0  0  0  0  0  0  0  0  0
   -1.8696    1.1929   -2.2280 H   0  0  0  0  0  0  0  0  0  0  0  0
   -3.2769   -0.4879   -3.3773 H   0  0  0  0  0  0  0  0  0  0  0  0
   -4.7657   -1.9795   -2.0918 H   0  0  0  0  0  0  0  0  0  0  0  0
   -4.8807   -1.8263    0.3708 H   0  0  0  0  0  0  0  0  0  0  0  0
  1  2  2  0
  2  3  1  0
  3  4  2  0
  4  5  1  0
  5  6  1  0
  6  7  1  0
  7  8  2  0
  7  9  1  0
  9 10  1  0
 10 11  2  0
 11 12  1  0
 12 13  2  0
 13 14  1  0
 14 15  2  0
 14 16  1  0
 16 17  1  0
 17 18  1  0
  5 19  1  0
 19 20  2  0
 20 21  1  0
 21 22  2  0
 22 23  1  0
 23 24  2  0
 24  3  1  0
 15 10  1  0
 24 19  1  0
 18 13  1  0
  2 25  1  0
  4 26  1  0
  6 27  1  0
  6 28  1  0
  9 29  1  0
 11 30  1  0
 12 31  1  0
 15 32  1  0
 17 33  1  0
 17 34  1  0
 20 35  1  0
 21 36  1  0
 22 37  1  0
 23 38  1  0
M  END
$$$$
