
     RDKit          3D

 33 33  0  0  0  0  0  0  0  0999 V2000
   -3.1274   -1.4058    0.8340 C   0  0  0  0  0  0  0  0  0  0  0  0
   -3.2265   -0.1060    0.0314 C   0  0  0  0  0  0  0  0  0  0  0  0
   -4.6640    0.4180    0.0747 C   0  0  0  0  0  0  0  0  0  0  0  0
   -2.2614    0.9739    0.5588 C   0  0  0  0  0  0  0  0  0  0  0  0
   -0.8027    0.6382    0.3595 C   0  0  0  0  0  0  0  0  0  0  0  0
    0.0006    0.2756    1.4465 C   0  0  0  0  0  0  0  0  0  0  0  0
    1.3492   -0.0393    1.2602 C   0  0  0  0  0  0  0  0  0  0  0  0
    1.9239    0.0014   -0.0177 C   0  0  0  0  0  0  0  0  0  0  0  0
    3.3901   -0.3446   -0.2018 C   0  0  0  0  0  0  0  0  0  0  0  0
    3.5791   -1.5795   -1.0857 C   0  0  0  0  0  0  0  0  0  0  0  0
    4.1797    0.8262   -0.7571 C   0  0  0  0  0  0  0  0  0  0  0  0
    4.4068    1.0707   -1.9317 O   0  0  0  0  0  0  0  0  0  0  0  0
    4.6375    1.6527    0.2072 O   0  0  0  0  0  0  0  0  0  0  0  0
    1.1171    0.3689   -1.1044 C   0  0  0  0  0  0  0  0  0  0  0  0
   -0.2311    0.6835   -0.9173 C   0  0  0  0  0  0  0  0  0  0  0  0
   -3.8527   -2.1417    0.4705 H   0  0  0  0  0  0  0  0  0  0  0  0
   -2.1338   -1.8555    0.7424 H   0  0  0  0  0  0  0  0  0  0  0  0
   -3.3267   -1.2326    1.8970 H   0  0  0  0  0  0  0  0  0  0  0  0
   -2.9858   -0.3332   -1.0149 H   0  0  0  0  0  0  0  0  0  0  0  0
   -5.3621   -0.3268   -0.3220 H   0  0  0  0  0  0  0  0  0  0  0  0
   -4.9696    0.6574    1.0990 H   0  0  0  0  0  0  0  0  0  0  0  0
   -4.7659    1.3248   -0.5308 H   0  0  0  0  0  0  0  0  0  0  0  0
   -2.4560    1.9270    0.0488 H   0  0  0  0  0  0  0  0  0  0  0  0
   -2.4588    1.1639    1.6221 H   0  0  0  0  0  0  0  0  0  0  0  0
   -0.4187    0.2327    2.4492 H   0  0  0  0  0  0  0  0  0  0  0  0
    1.9472   -0.3159    2.1260 H   0  0  0  0  0  0  0  0  0  0  0  0
    3.8343   -0.5919    0.7721 H   0  0  0  0  0  0  0  0  0  0  0  0
    3.0515   -2.4443   -0.6686 H   0  0  0  0  0  0  0  0  0  0  0  0
    4.6413   -1.8363   -1.1662 H   0  0  0  0  0  0  0  0  0  0  0  0
    3.2067   -1.4195   -2.1037 H   0  0  0  0  0  0  0  0  0  0  0  0
    5.0799    2.3723   -0.2894 H   0  0  0  0  0  0  0  0  0  0  0  0
    1.5317    0.4184   -2.1100 H   0  0  0  0  0  0  0  0  0  0  0  0
   -0.8331    0.9670   -1.7778 H   0  0  0  0  0  0  0  0  0  0  0  0
  1  2  1  0
  2  3  1  0
  2  4  1  0
  4  5  1  0
  5  6  2  0
  6  7  1  0
  7  8  2  0
  8  9  1  0
  9 10  1  0
  9 11  1  0
 11 12  2  0
 11 13  1  0
  8 14  1  0
 14 15  2  0
 15  5  1  0
  1 16  1  0
  1 17  1  0
  1 18  1  0
  2 19  1  0
  3 20  1  0
  3 21  1  0
  3 22  1  0
  4 23  1  0
  4 24  1  0
  6 25  1  0
  7 26  1  0
  9 27  1  0
 10 28  1  0
 10 29  1  0
 10 30  1  0
 13 31  1  0
 14 32  1  0
 15 33  1  0
M  END
$$$$
