
     RDKit          3D

 38 39  0  0  0  0  0  0  0  0999 V2000
    1.2682   -2.0192    0.6270 O   0  0  0  0  0  0  0  0  0  0  0  0
    0.6210   -1.6011   -0.3326 C   0  0  0  0  0  0  0  0  0  0  0  0
   -0.7730   -2.1203   -0.6864 C   0  0  0  0  0  0  0  0  0  0  0  0
   -1.8180   -1.3396   -0.1046 O   0  0  0  0  0  0  0  0  0  0  0  0
   -2.0778   -0.1645   -0.7234 C   0  0  0  0  0  0  0  0  0  0  0  0
   -1.4835    0.2702   -1.7023 O   0  0  0  0  0  0  0  0  0  0  0  0
   -3.1934    0.5663   -0.0706 C   0  0  0  0  0  0  0  0  0  0  0  0
   -3.7947    0.0859    1.1049 C   0  0  0  0  0  0  0  0  0  0  0  0
   -4.8428    0.7923    1.7040 C   0  0  0  0  0  0  0  0  0  0  0  0
   -5.2880    1.9774    1.1272 C   0  0  0  0  0  0  0  0  0  0  0  0
   -6.3064    2.6955    1.6790 O   0  0  0  0  0  0  0  0  0  0  0  0
   -4.7043    2.4683   -0.0350 C   0  0  0  0  0  0  0  0  0  0  0  0
   -3.6587    1.7657   -0.6320 C   0  0  0  0  0  0  0  0  0  0  0  0
   -3.1403    2.3199   -1.7731 O   0  0  0  0  0  0  0  0  0  0  0  0
    1.1061   -0.6238   -1.1782 N   0  0  0  0  0  0  0  0  0  0  0  0
    2.3245    0.0910   -0.8416 C   0  0  0  0  0  0  0  0  0  0  0  0
    3.5810   -0.7914   -0.9015 C   0  0  0  0  0  0  0  0  0  0  0  0
    4.5138   -0.4750    0.1604 N   0  0  0  0  0  0  0  0  0  0  0  0
    4.5723   -1.1059    1.3807 C   0  0  0  0  0  0  0  0  0  0  0  0
    3.7190   -2.1131    1.7198 O   0  0  0  0  0  0  0  0  0  0  0  0
    5.5289   -0.6491    2.1941 C   0  0  0  0  0  0  0  0  0  0  0  0
    6.4143    0.6559    1.4693 S   0  0  0  0  0  0  0  0  0  0  0  0
    5.4252    0.5609    0.0032 C   0  0  0  0  0  0  0  0  0  0  0  0
    5.5485    1.3081   -0.9538 O   0  0  0  0  0  0  0  0  0  0  0  0
   -0.8613   -3.1397   -0.2955 H   0  0  0  0  0  0  0  0  0  0  0  0
   -0.8919   -2.1914   -1.7745 H   0  0  0  0  0  0  0  0  0  0  0  0
   -3.4574   -0.8371    1.5710 H   0  0  0  0  0  0  0  0  0  0  0  0
   -5.2944    0.4053    2.6128 H   0  0  0  0  0  0  0  0  0  0  0  0
   -6.6142    2.2473    2.4837 H   0  0  0  0  0  0  0  0  0  0  0  0
   -5.0610    3.3956   -0.4747 H   0  0  0  0  0  0  0  0  0  0  0  0
   -2.4049    1.7600   -2.0987 H   0  0  0  0  0  0  0  0  0  0  0  0
    0.4077   -0.1250   -1.7322 H   0  0  0  0  0  0  0  0  0  0  0  0
    2.4191    0.9258   -1.5444 H   0  0  0  0  0  0  0  0  0  0  0  0
    2.1826    0.5158    0.1595 H   0  0  0  0  0  0  0  0  0  0  0  0
    3.3560   -1.8630   -0.8739 H   0  0  0  0  0  0  0  0  0  0  0  0
    4.0788   -0.6202   -1.8646 H   0  0  0  0  0  0  0  0  0  0  0  0
    2.8692   -2.0047    1.2413 H   0  0  0  0  0  0  0  0  0  0  0  0
    5.7296   -1.0230    3.1878 H   0  0  0  0  0  0  0  0  0  0  0  0
  1  2  2  0
  2  3  1  0
  3  4  1  0
  4  5  1  0
  5  6  2  0
  5  7  1  0
  7  8  2  0
  8  9  1  0
  9 10  2  0
 10 11  1  0
 10 12  1  0
 12 13  2  0
 13 14  1  0
  2 15  1  0
 15 16  1  0
 16 17  1  0
 17 18  1  0
 18 19  1  0
 19 20  1  0
 19 21  2  0
 21 22  1  0
 22 23  1  0
 23 24  2  0
 13  7  1  0
 23 18  1  0
  3 25  1  0
  3 26  1  0
  8 27  1  0
  9 28  1  0
 11 29  1  0
 12 30  1  0
 14 31  1  0
 15 32  1  0
 16 33  1  0
 16 34  1  0
 17 35  1  0
 17 36  1  0
 20 37  1  0
 21 38  1  0
M  END
$$$$
