
     RDKit          3D

 38 39  0  0  0  0  0  0  0  0999 V2000
    0.1835   -2.1773   -0.2050 C   0  0  0  0  0  0  0  0  0  0  0  0
    0.4369   -1.0688    0.7977 C   0  0  0  0  0  0  0  0  0  0  0  0
    1.7597   -0.3729    0.7855 C   0  0  0  0  0  0  0  0  0  0  0  0
    2.6639   -0.4965   -0.1956 C   0  0  0  0  0  0  0  0  0  0  0  0
    3.9428    0.2254   -0.1952 C   0  0  0  0  0  0  0  0  0  0  0  0
    4.7537    0.3002    0.9442 C   0  0  0  0  0  0  0  0  0  0  0  0
    5.9745    0.9787    0.9030 C   0  0  0  0  0  0  0  0  0  0  0  0
    6.3981    1.5826   -0.2794 C   0  0  0  0  0  0  0  0  0  0  0  0
    5.6088    1.4970   -1.4245 C   0  0  0  0  0  0  0  0  0  0  0  0
    4.3888    0.8174   -1.3837 C   0  0  0  0  0  0  0  0  0  0  0  0
   -0.4221   -0.6640    1.6950 N   0  0  0  0  0  0  0  0  0  0  0  0
   -1.6635   -1.2458    1.6794 N   0  0  0  0  0  0  0  0  0  0  0  0
   -2.6553   -0.6418    0.8675 C   0  0  0  0  0  0  0  0  0  0  0  0
   -2.3376   -0.1327   -0.3364 N   0  0  0  0  0  0  0  0  0  0  0  0
   -3.3266    0.4191   -1.0632 C   0  0  0  0  0  0  0  0  0  0  0  0
   -2.9599    0.9882   -2.3985 C   0  0  0  0  0  0  0  0  0  0  0  0
   -4.6301    0.4661   -0.6182 C   0  0  0  0  0  0  0  0  0  0  0  0
   -4.8751   -0.0858    0.6212 C   0  0  0  0  0  0  0  0  0  0  0  0
   -6.2606   -0.0732    1.1926 C   0  0  0  0  0  0  0  0  0  0  0  0
   -3.9018   -0.6422    1.3698 N   0  0  0  0  0  0  0  0  0  0  0  0
   -0.0154   -1.7408   -1.1879 H   0  0  0  0  0  0  0  0  0  0  0  0
    1.0608   -2.8280   -0.2722 H   0  0  0  0  0  0  0  0  0  0  0  0
   -0.6595   -2.8106    0.0820 H   0  0  0  0  0  0  0  0  0  0  0  0
    1.9246    0.2889    1.6312 H   0  0  0  0  0  0  0  0  0  0  0  0
    2.4753   -1.1095   -1.0728 H   0  0  0  0  0  0  0  0  0  0  0  0
    4.4493   -0.1770    1.8733 H   0  0  0  0  0  0  0  0  0  0  0  0
    6.5942    1.0345    1.7943 H   0  0  0  0  0  0  0  0  0  0  0  0
    7.3463    2.1131   -0.3098 H   0  0  0  0  0  0  0  0  0  0  0  0
    5.9390    1.9629   -2.3477 H   0  0  0  0  0  0  0  0  0  0  0  0
    3.7837    0.7656   -2.2858 H   0  0  0  0  0  0  0  0  0  0  0  0
   -2.1243   -1.2721    2.5900 H   0  0  0  0  0  0  0  0  0  0  0  0
   -3.4966    0.4620   -3.1938 H   0  0  0  0  0  0  0  0  0  0  0  0
   -3.2094    2.0529   -2.4390 H   0  0  0  0  0  0  0  0  0  0  0  0
   -1.8864    0.8833   -2.5850 H   0  0  0  0  0  0  0  0  0  0  0  0
   -5.4187    0.9130   -1.2094 H   0  0  0  0  0  0  0  0  0  0  0  0
   -6.5892    0.9567    1.3614 H   0  0  0  0  0  0  0  0  0  0  0  0
   -6.9594   -0.5649    0.5090 H   0  0  0  0  0  0  0  0  0  0  0  0
   -6.2922   -0.6034    2.1489 H   0  0  0  0  0  0  0  0  0  0  0  0
  1  2  1  0
  2  3  1  0
  3  4  2  3
  4  5  1  0
  5  6  2  0
  6  7  1  0
  7  8  2  0
  8  9  1  0
  9 10  2  0
  2 11  2  3
 11 12  1  0
 12 13  1  0
 13 14  2  0
 14 15  1  0
 15 16  1  0
 15 17  2  0
 17 18  1  0
 18 19  1  0
 18 20  2  0
 10  5  1  0
 20 13  1  0
  1 21  1  0
  1 22  1  0
  1 23  1  0
  3 24  1  0
  4 25  1  0
  6 26  1  0
  7 27  1  0
  8 28  1  0
  9 29  1  0
 10 30  1  0
 12 31  1  0
 16 32  1  0
 16 33  1  0
 16 34  1  0
 17 35  1  0
 19 36  1  0
 19 37  1  0
 19 38  1  0
M  END
$$$$
