
     RDKit          3D

 51 55  0  0  0  0  0  0  0  0999 V2000
  -10.8925   -2.1185   -0.4859 C   0  0  0  0  0  0  0  0  0  0  0  0
   -9.9063   -1.0233   -0.7679 C   0  0  0  0  0  0  0  0  0  0  0  0
  -10.3508    0.2591   -1.1112 C   0  0  0  0  0  0  0  0  0  0  0  0
   -9.4365    1.2841   -1.3608 C   0  0  0  0  0  0  0  0  0  0  0  0
   -8.0658    1.0433   -1.2532 C   0  0  0  0  0  0  0  0  0  0  0  0
   -7.6081   -0.2273   -0.8812 C   0  0  0  0  0  0  0  0  0  0  0  0
   -6.1546   -0.5378   -0.7580 C   0  0  0  0  0  0  0  0  0  0  0  0
   -5.7789   -1.6699   -1.0385 O   0  0  0  0  0  0  0  0  0  0  0  0
   -5.3786    0.5017   -0.2983 N   0  0  0  0  0  0  0  0  0  0  0  0
   -4.0145    0.4955   -0.1347 C   0  0  0  0  0  0  0  0  0  0  0  0
   -3.3696    1.5266    0.3679 N   0  0  0  0  0  0  0  0  0  0  0  0
   -2.0068    1.3060    0.4274 N   0  0  0  0  0  0  0  0  0  0  0  0
   -1.6850    0.1169   -0.0354 C   0  0  0  0  0  0  0  0  0  0  0  0
   -0.0351   -0.4505   -0.0972 S   0  0  0  0  0  0  0  0  0  0  0  0
    0.6968    0.5794    1.2058 C   0  0  0  0  0  0  0  0  0  0  0  0
    2.1481    0.1784    1.4078 C   0  0  0  0  0  0  0  0  0  0  0  0
    2.4744   -0.5472    2.3425 O   0  0  0  0  0  0  0  0  0  0  0  0
    2.9955    0.7210    0.4521 N   0  0  0  0  0  0  0  0  0  0  0  0
    4.3970    0.5735    0.3609 C   0  0  0  0  0  0  0  0  0  0  0  0
    5.0291    1.2229   -0.7128 C   0  0  0  0  0  0  0  0  0  0  0  0
    6.4193    1.1561   -0.9046 C   0  0  0  0  0  0  0  0  0  0  0  0
    7.1903    0.4192    0.0100 C   0  0  0  0  0  0  0  0  0  0  0  0
    6.5358   -0.2143    1.0596 C   0  0  0  0  0  0  0  0  0  0  0  0
    5.1564   -0.1673    1.2727 C   0  0  0  0  0  0  0  0  0  0  0  0
    7.4272   -0.8803    1.8441 O   0  0  0  0  0  0  0  0  0  0  0  0
    8.6610   -0.6779    1.3072 C   0  0  0  0  0  0  0  0  0  0  0  0
    9.8533   -1.1893    1.8149 C   0  0  0  0  0  0  0  0  0  0  0  0
   11.0211   -0.8634    1.1172 C   0  0  0  0  0  0  0  0  0  0  0  0
   10.9783   -0.0681   -0.0307 C   0  0  0  0  0  0  0  0  0  0  0  0
    9.7618    0.4304   -0.5198 C   0  0  0  0  0  0  0  0  0  0  0  0
    8.5746    0.1182    0.1698 C   0  0  0  0  0  0  0  0  0  0  0  0
   -3.0127   -0.8062   -0.5881 S   0  0  0  0  0  0  0  0  0  0  0  0
   -8.5300   -1.2572   -0.6467 C   0  0  0  0  0  0  0  0  0  0  0  0
  -11.2209   -2.0671    0.5569 H   0  0  0  0  0  0  0  0  0  0  0  0
  -11.7662   -2.0310   -1.1404 H   0  0  0  0  0  0  0  0  0  0  0  0
  -10.4495   -3.1033   -0.6677 H   0  0  0  0  0  0  0  0  0  0  0  0
  -11.4166    0.4637   -1.2009 H   0  0  0  0  0  0  0  0  0  0  0  0
   -9.7964    2.2689   -1.6505 H   0  0  0  0  0  0  0  0  0  0  0  0
   -7.3767    1.8485   -1.4911 H   0  0  0  0  0  0  0  0  0  0  0  0
   -5.8138    1.3556    0.0217 H   0  0  0  0  0  0  0  0  0  0  0  0
    0.6447    1.6401    0.9373 H   0  0  0  0  0  0  0  0  0  0  0  0
    0.1614    0.4377    2.1508 H   0  0  0  0  0  0  0  0  0  0  0  0
    2.5577    1.2683   -0.2798 H   0  0  0  0  0  0  0  0  0  0  0  0
    4.4464    1.7987   -1.4294 H   0  0  0  0  0  0  0  0  0  0  0  0
    6.8849    1.6626   -1.7449 H   0  0  0  0  0  0  0  0  0  0  0  0
    4.7331   -0.6967    2.1158 H   0  0  0  0  0  0  0  0  0  0  0  0
    9.8663   -1.8074    2.7049 H   0  0  0  0  0  0  0  0  0  0  0  0
   11.9775   -1.2374    1.4766 H   0  0  0  0  0  0  0  0  0  0  0  0
   11.9024    0.1680   -0.5553 H   0  0  0  0  0  0  0  0  0  0  0  0
    9.7414    1.0441   -1.4153 H   0  0  0  0  0  0  0  0  0  0  0  0
   -8.1700   -2.2474   -0.3706 H   0  0  0  0  0  0  0  0  0  0  0  0
  1  2  1  0
  2  3  2  0
  3  4  1  0
  4  5  2  0
  5  6  1  0
  6  7  1  0
  7  8  2  0
  7  9  1  0
  9 10  1  0
 10 11  2  0
 11 12  1  0
 12 13  2  0
 13 14  1  0
 14 15  1  0
 15 16  1  0
 16 17  2  0
 16 18  1  0
 18 19  1  0
 19 20  2  0
 20 21  1  0
 21 22  2  0
 22 23  1  0
 23 24  2  0
 23 25  1  0
 25 26  1  0
 26 27  2  0
 27 28  1  0
 28 29  2  0
 29 30  1  0
 30 31  2  0
 13 32  1  0
  6 33  2  0
 33  2  1  0
 32 10  1  0
 24 19  1  0
 31 26  1  0
 31 22  1  0
  1 34  1  0
  1 35  1  0
  1 36  1  0
  3 37  1  0
  4 38  1  0
  5 39  1  0
  9 40  1  0
 15 41  1  0
 15 42  1  0
 18 43  1  0
 20 44  1  0
 21 45  1  0
 24 46  1  0
 27 47  1  0
 28 48  1  0
 29 49  1  0
 30 50  1  0
 33 51  1  0
M  END
$$$$
