
     RDKit          3D

 44 46  0  0  0  0  0  0  0  0999 V2000
    5.1724    2.3741   -1.9503 C   0  0  0  0  0  0  0  0  0  0  0  0
    4.1193    1.4266   -1.4435 C   0  0  0  0  0  0  0  0  0  0  0  0
    2.9811    1.9415   -0.8047 C   0  0  0  0  0  0  0  0  0  0  0  0
    1.9815    1.0935   -0.3180 C   0  0  0  0  0  0  0  0  0  0  0  0
    2.1055   -0.2908   -0.4636 C   0  0  0  0  0  0  0  0  0  0  0  0
    1.0714   -1.2503    0.0372 C   0  0  0  0  0  0  0  0  0  0  0  0
    1.2411   -2.4561   -0.1420 O   0  0  0  0  0  0  0  0  0  0  0  0
   -0.1538   -0.6809    0.7511 C   0  0  0  0  0  0  0  0  0  0  0  0
   -1.0244   -1.6996    1.2439 O   0  0  0  0  0  0  0  0  0  0  0  0
   -2.1337   -1.8414    0.4474 C   0  0  0  0  0  0  0  0  0  0  0  0
   -2.1376   -2.9280   -0.4318 C   0  0  0  0  0  0  0  0  0  0  0  0
   -3.2343   -3.1490   -1.2601 C   0  0  0  0  0  0  0  0  0  0  0  0
   -4.3323   -2.2951   -1.1959 C   0  0  0  0  0  0  0  0  0  0  0  0
   -4.3351   -1.2218   -0.2987 C   0  0  0  0  0  0  0  0  0  0  0  0
   -3.2388   -0.9724    0.5480 C   0  0  0  0  0  0  0  0  0  0  0  0
   -3.2814    0.1599    1.4932 C   0  0  0  0  0  0  0  0  0  0  0  0
   -3.5269    1.4683    1.0418 C   0  0  0  0  0  0  0  0  0  0  0  0
   -3.5605    2.5444    1.9326 C   0  0  0  0  0  0  0  0  0  0  0  0
   -3.3512    2.3296    3.2925 C   0  0  0  0  0  0  0  0  0  0  0  0
   -3.1089    1.0410    3.7613 C   0  0  0  0  0  0  0  0  0  0  0  0
   -3.0760   -0.0335    2.8689 C   0  0  0  0  0  0  0  0  0  0  0  0
    3.2415   -0.8097   -1.1019 C   0  0  0  0  0  0  0  0  0  0  0  0
    4.2522    0.0335   -1.5946 C   0  0  0  0  0  0  0  0  0  0  0  0
    5.4509   -0.5737   -2.2718 C   0  0  0  0  0  0  0  0  0  0  0  0
    5.2924    2.2659   -3.0335 H   0  0  0  0  0  0  0  0  0  0  0  0
    4.9040    3.4173   -1.7502 H   0  0  0  0  0  0  0  0  0  0  0  0
    6.1293    2.1792   -1.4541 H   0  0  0  0  0  0  0  0  0  0  0  0
    2.8641    3.0170   -0.6805 H   0  0  0  0  0  0  0  0  0  0  0  0
    1.1235    1.5486    0.1675 H   0  0  0  0  0  0  0  0  0  0  0  0
   -0.6646    0.0146    0.0738 H   0  0  0  0  0  0  0  0  0  0  0  0
    0.1941   -0.1252    1.6283 H   0  0  0  0  0  0  0  0  0  0  0  0
   -1.2804   -3.5966   -0.4686 H   0  0  0  0  0  0  0  0  0  0  0  0
   -3.2341   -3.9907   -1.9474 H   0  0  0  0  0  0  0  0  0  0  0  0
   -5.1947   -2.4699   -1.8340 H   0  0  0  0  0  0  0  0  0  0  0  0
   -5.2180   -0.5863   -0.2480 H   0  0  0  0  0  0  0  0  0  0  0  0
   -3.6869    1.6581   -0.0177 H   0  0  0  0  0  0  0  0  0  0  0  0
   -3.7523    3.5486    1.5639 H   0  0  0  0  0  0  0  0  0  0  0  0
   -3.3801    3.1647    3.9873 H   0  0  0  0  0  0  0  0  0  0  0  0
   -2.9477    0.8674    4.8221 H   0  0  0  0  0  0  0  0  0  0  0  0
   -2.8880   -1.0346    3.2541 H   0  0  0  0  0  0  0  0  0  0  0  0
    3.3414   -1.8893   -1.2159 H   0  0  0  0  0  0  0  0  0  0  0  0
    6.3666   -0.3072   -1.7344 H   0  0  0  0  0  0  0  0  0  0  0  0
    5.3897   -1.6672   -2.2958 H   0  0  0  0  0  0  0  0  0  0  0  0
    5.5193   -0.2242   -3.3069 H   0  0  0  0  0  0  0  0  0  0  0  0
  1  2  1  0
  2  3  2  0
  3  4  1  0
  4  5  2  0
  5  6  1  0
  6  7  2  0
  6  8  1  0
  8  9  1  0
  9 10  1  0
 10 11  2  0
 11 12  1  0
 12 13  2  0
 13 14  1  0
 14 15  2  0
 15 16  1  0
 16 17  2  0
 17 18  1  0
 18 19  2  0
 19 20  1  0
 20 21  2  0
  5 22  1  0
 22 23  2  0
 23 24  1  0
 23  2  1  0
 15 10  1  0
 21 16  1  0
  1 25  1  0
  1 26  1  0
  1 27  1  0
  3 28  1  0
  4 29  1  0
  8 30  1  0
  8 31  1  0
 11 32  1  0
 12 33  1  0
 13 34  1  0
 14 35  1  0
 17 36  1  0
 18 37  1  0
 19 38  1  0
 20 39  1  0
 21 40  1  0
 22 41  1  0
 24 42  1  0
 24 43  1  0
 24 44  1  0
M  END
$$$$
