
     RDKit          3D

 55 60  0  0  0  0  0  0  0  0999 V2000
    5.0525    0.1147    1.6303 O   0  0  0  0  0  0  0  0  0  0  0  0
    4.1138    0.8422    1.3117 C   0  0  0  0  0  0  0  0  0  0  0  0
    4.2543    2.2879    1.4049 C   0  0  0  0  0  0  0  0  0  0  0  0
    5.4419    3.0521    1.2015 C   0  0  0  0  0  0  0  0  0  0  0  0
    5.1123    4.3658    1.4338 C   0  0  0  0  0  0  0  0  0  0  0  0
    3.8087    4.4669    1.7963 O   0  0  0  0  0  0  0  0  0  0  0  0
    3.3031    3.2069    1.8021 C   0  0  0  0  0  0  0  0  0  0  0  0
    2.8988    0.3103    0.8619 N   0  0  0  0  0  0  0  0  0  0  0  0
    1.9375    1.0414    0.0392 C   0  0  0  0  0  0  0  0  0  0  0  0
    1.3289    0.1669   -1.0545 C   0  0  0  0  0  0  0  0  0  0  0  0
    0.6733   -1.1377   -0.5207 C   0  0  0  0  0  0  0  0  0  0  0  0
    1.2616   -1.5277    0.8613 C   0  0  0  0  0  0  0  0  0  0  0  0
    2.7308   -1.1369    0.9580 C   0  0  0  0  0  0  0  0  0  0  0  0
    1.1262   -2.2246   -1.3805 O   0  0  0  0  0  0  0  0  0  0  0  0
    0.4611   -2.4391   -2.5495 C   0  0  0  0  0  0  0  0  0  0  0  0
    1.0784   -3.3014   -3.4560 C   0  0  0  0  0  0  0  0  0  0  0  0
    0.4819   -3.5653   -4.6916 C   0  0  0  0  0  0  0  0  0  0  0  0
   -0.7350   -2.9667   -5.0166 C   0  0  0  0  0  0  0  0  0  0  0  0
   -1.4630   -3.2876   -6.5410 Cl  0  0  0  0  0  0  0  0  0  0  0  0
   -1.3643   -2.1139   -4.1141 C   0  0  0  0  0  0  0  0  0  0  0  0
   -0.7619   -1.8657   -2.8763 C   0  0  0  0  0  0  0  0  0  0  0  0
   -1.4098   -0.9878   -1.8950 C   0  0  0  0  0  0  0  0  0  0  0  0
   -2.3092   -0.2322   -2.2543 O   0  0  0  0  0  0  0  0  0  0  0  0
   -0.8795   -1.0712   -0.4668 C   0  0  0  0  0  0  0  0  0  0  0  0
   -1.4604    0.0453    0.3905 C   0  0  0  0  0  0  0  0  0  0  0  0
   -2.6262   -0.6916    0.9599 C   0  0  0  0  0  0  0  0  0  0  0  0
   -3.7370    0.0006    1.6554 C   0  0  0  0  0  0  0  0  0  0  0  0
   -4.8292   -0.7549    2.1046 C   0  0  0  0  0  0  0  0  0  0  0  0
   -5.8923   -0.1354    2.7676 C   0  0  0  0  0  0  0  0  0  0  0  0
   -5.8643    1.2401    2.9834 C   0  0  0  0  0  0  0  0  0  0  0  0
   -7.1700    2.0057    3.7997 Cl  0  0  0  0  0  0  0  0  0  0  0  0
   -4.7823    2.0006    2.5422 C   0  0  0  0  0  0  0  0  0  0  0  0
   -3.7168    1.3827    1.8783 C   0  0  0  0  0  0  0  0  0  0  0  0
   -2.5681   -1.9788    0.8292 N   0  0  0  0  0  0  0  0  0  0  0  0
   -1.3916   -2.2830    0.1113 O   0  0  0  0  0  0  0  0  0  0  0  0
    6.4155    2.6749    0.9187 H   0  0  0  0  0  0  0  0  0  0  0  0
    5.6638    5.2953    1.3998 H   0  0  0  0  0  0  0  0  0  0  0  0
    2.2729    3.1293    2.1187 H   0  0  0  0  0  0  0  0  0  0  0  0
    1.1563    1.4178    0.7065 H   0  0  0  0  0  0  0  0  0  0  0  0
    2.4209    1.9019   -0.4336 H   0  0  0  0  0  0  0  0  0  0  0  0
    2.1275   -0.0880   -1.7651 H   0  0  0  0  0  0  0  0  0  0  0  0
    0.6095    0.7658   -1.6248 H   0  0  0  0  0  0  0  0  0  0  0  0
    1.1757   -2.6102    1.0198 H   0  0  0  0  0  0  0  0  0  0  0  0
    0.7246   -1.0414    1.6821 H   0  0  0  0  0  0  0  0  0  0  0  0
    3.3204   -1.6005    0.1579 H   0  0  0  0  0  0  0  0  0  0  0  0
    3.1455   -1.4822    1.9122 H   0  0  0  0  0  0  0  0  0  0  0  0
    2.0293   -3.7659   -3.2045 H   0  0  0  0  0  0  0  0  0  0  0  0
    0.9712   -4.2360   -5.3938 H   0  0  0  0  0  0  0  0  0  0  0  0
   -2.3182   -1.6547   -4.3633 H   0  0  0  0  0  0  0  0  0  0  0  0
   -0.8210    0.3418    1.2247 H   0  0  0  0  0  0  0  0  0  0  0  0
   -1.7503    0.9360   -0.1712 H   0  0  0  0  0  0  0  0  0  0  0  0
   -4.8621   -1.8307    1.9398 H   0  0  0  0  0  0  0  0  0  0  0  0
   -6.7342   -0.7319    3.1095 H   0  0  0  0  0  0  0  0  0  0  0  0
   -4.7631    3.0745    2.7114 H   0  0  0  0  0  0  0  0  0  0  0  0
   -2.8884    2.0019    1.5487 H   0  0  0  0  0  0  0  0  0  0  0  0
  1  2  2  0
  2  3  1  0
  3  4  1  0
  4  5  2  0
  5  6  1  0
  6  7  1  0
  2  8  1  0
  8  9  1  0
  9 10  1  0
 10 11  1  0
 11 12  1  0
 12 13  1  0
 11 14  1  0
 14 15  1  0
 15 16  2  0
 16 17  1  0
 17 18  2  0
 18 19  1  0
 18 20  1  0
 20 21  2  0
 21 22  1  0
 22 23  2  0
 22 24  1  0
 24 25  1  0
 25 26  1  0
 26 27  1  0
 27 28  2  0
 28 29  1  0
 29 30  2  0
 30 31  1  0
 30 32  1  0
 32 33  2  0
 26 34  2  0
 34 35  1  0
  7  3  2  0
 13  8  1  0
 21 15  1  0
 35 24  1  0
 24 11  1  0
 33 27  1  0
  4 36  1  0
  5 37  1  0
  7 38  1  0
  9 39  1  0
  9 40  1  0
 10 41  1  0
 10 42  1  0
 12 43  1  0
 12 44  1  0
 13 45  1  0
 13 46  1  0
 16 47  1  0
 17 48  1  0
 20 49  1  0
 25 50  1  0
 25 51  1  0
 28 52  1  0
 29 53  1  0
 32 54  1  0
 33 55  1  0
M  END
$$$$
