
     RDKit          3D

 53 54  0  0  0  0  0  0  0  0999 V2000
   -4.5543    2.2211   -1.1548 C   0  0  0  0  0  0  0  0  0  0  0  0
   -4.0328    0.8320   -0.8293 C   0  0  0  0  0  0  0  0  0  0  0  0
   -4.3568    0.4961    0.5671 N   0  0  0  0  0  0  0  0  0  0  0  0
   -5.5687   -0.3072    0.8100 C   0  0  0  0  0  0  0  0  0  0  0  0
   -5.4208   -1.7514    0.3650 C   0  0  0  0  0  0  0  0  0  0  0  0
   -3.2047    0.7168    1.7773 S   0  0  0  0  0  6  0  0  0  0  0  0
   -2.3208    1.7934    1.3803 O   0  0  0  0  0  0  0  0  0  0  0  0
   -3.8776    0.7371    3.0583 O   0  0  0  0  0  0  0  0  0  0  0  0
   -2.2399   -0.7795    1.7114 C   0  0  0  0  0  0  0  0  0  0  0  0
   -2.4849   -1.8051    2.6300 C   0  0  0  0  0  0  0  0  0  0  0  0
   -1.7016   -2.9580    2.6004 C   0  0  0  0  0  0  0  0  0  0  0  0
   -0.6647   -3.0736    1.6715 C   0  0  0  0  0  0  0  0  0  0  0  0
   -0.3943   -2.0314    0.7723 C   0  0  0  0  0  0  0  0  0  0  0  0
    0.7417   -2.1987   -0.1740 C   0  0  0  0  0  0  0  0  0  0  0  0
    1.3647   -3.2386   -0.3008 O   0  0  0  0  0  0  0  0  0  0  0  0
    0.9815   -1.0384   -0.8341 O   0  0  0  0  0  0  0  0  0  0  0  0
    2.0825   -1.0871   -1.7462 C   0  0  0  0  0  0  0  0  0  0  0  0
    3.4507   -0.8559   -1.1000 C   0  0  0  0  0  0  0  0  0  0  0  0
    4.4969   -1.0800   -1.7023 O   0  0  0  0  0  0  0  0  0  0  0  0
    3.3981   -0.3259    0.1719 N   0  0  0  0  0  0  0  0  0  0  0  0
    4.5909    0.0833    0.8928 C   0  0  0  0  0  0  0  0  0  0  0  0
    4.9003    1.5800    0.7416 C   0  0  0  0  0  0  0  0  0  0  0  0
    5.2999    1.9537   -0.6012 N   0  0  0  0  0  0  0  0  0  0  0  0
    4.4500    2.4696   -1.5473 C   0  0  0  0  0  0  0  0  0  0  0  0
    3.1460    2.6986   -1.2186 O   0  0  0  0  0  0  0  0  0  0  0  0
    5.0180    2.6991   -2.7370 C   0  0  0  0  0  0  0  0  0  0  0  0
    6.6980    2.2546   -2.7318 S   0  0  0  0  0  0  0  0  0  0  0  0
    6.5954    1.7267   -1.0412 C   0  0  0  0  0  0  0  0  0  0  0  0
    7.5373    1.2763   -0.4094 O   0  0  0  0  0  0  0  0  0  0  0  0
   -1.1850   -0.8760    0.7965 C   0  0  0  0  0  0  0  0  0  0  0  0
   -4.1068    2.9770   -0.5016 H   0  0  0  0  0  0  0  0  0  0  0  0
   -4.3176    2.4829   -2.1907 H   0  0  0  0  0  0  0  0  0  0  0  0
   -5.6408    2.2735   -1.0298 H   0  0  0  0  0  0  0  0  0  0  0  0
   -4.4757    0.1076   -1.5192 H   0  0  0  0  0  0  0  0  0  0  0  0
   -2.9533    0.7922   -1.0018 H   0  0  0  0  0  0  0  0  0  0  0  0
   -6.4068    0.1554    0.2754 H   0  0  0  0  0  0  0  0  0  0  0  0
   -5.8429   -0.2775    1.8693 H   0  0  0  0  0  0  0  0  0  0  0  0
   -6.3542   -2.2942    0.5473 H   0  0  0  0  0  0  0  0  0  0  0  0
   -5.1952   -1.8310   -0.7020 H   0  0  0  0  0  0  0  0  0  0  0  0
   -4.6284   -2.2657    0.9116 H   0  0  0  0  0  0  0  0  0  0  0  0
   -3.2813   -1.7147    3.3666 H   0  0  0  0  0  0  0  0  0  0  0  0
   -1.8912   -3.7646    3.3057 H   0  0  0  0  0  0  0  0  0  0  0  0
   -0.0564   -3.9776    1.6617 H   0  0  0  0  0  0  0  0  0  0  0  0
    2.0968   -2.0343   -2.2977 H   0  0  0  0  0  0  0  0  0  0  0  0
    1.9297   -0.2832   -2.4741 H   0  0  0  0  0  0  0  0  0  0  0  0
    2.4984   -0.0028    0.5057 H   0  0  0  0  0  0  0  0  0  0  0  0
    4.4034   -0.1396    1.9484 H   0  0  0  0  0  0  0  0  0  0  0  0
    5.4411   -0.5242    0.5648 H   0  0  0  0  0  0  0  0  0  0  0  0
    4.0421    2.1856    1.0550 H   0  0  0  0  0  0  0  0  0  0  0  0
    5.7289    1.8278    1.4164 H   0  0  0  0  0  0  0  0  0  0  0  0
    2.7174    3.1285   -1.9782 H   0  0  0  0  0  0  0  0  0  0  0  0
    4.5308    3.0968   -3.6144 H   0  0  0  0  0  0  0  0  0  0  0  0
   -0.9833   -0.0497    0.1196 H   0  0  0  0  0  0  0  0  0  0  0  0
  1  2  1  0
  2  3  1  0
  3  4  1  0
  4  5  1  0
  3  6  1  0
  6  7  2  0
  6  8  2  0
  6  9  1  0
  9 10  2  0
 10 11  1  0
 11 12  2  0
 12 13  1  0
 13 14  1  0
 14 15  2  0
 14 16  1  0
 16 17  1  0
 17 18  1  0
 18 19  2  0
 18 20  1  0
 20 21  1  0
 21 22  1  0
 22 23  1  0
 23 24  1  0
 24 25  1  0
 24 26  2  0
 26 27  1  0
 27 28  1  0
 28 29  2  0
 13 30  2  0
 30  9  1  0
 28 23  1  0
  1 31  1  0
  1 32  1  0
  1 33  1  0
  2 34  1  0
  2 35  1  0
  4 36  1  0
  4 37  1  0
  5 38  1  0
  5 39  1  0
  5 40  1  0
 10 41  1  0
 11 42  1  0
 12 43  1  0
 17 44  1  0
 17 45  1  0
 20 46  1  0
 21 47  1  0
 21 48  1  0
 22 49  1  0
 22 50  1  0
 25 51  1  0
 26 52  1  0
 30 53  1  0
M  END
$$$$
