
     RDKit          3D

 46 49  0  0  0  0  0  0  0  0999 V2000
    4.3085    2.0411    0.4955 O   0  0  0  0  0  0  0  0  0  0  0  0
    3.3489    1.2857    0.6509 C   0  0  0  0  0  0  0  0  0  0  0  0
    2.1364    1.7379    1.4486 C   0  0  0  0  0  0  0  0  0  0  0  0
    0.7580    2.1940    0.3534 S   0  0  0  0  0  0  0  0  0  0  0  0
   -0.1105    0.6992    0.3270 C   0  0  0  0  0  0  0  0  0  0  0  0
    0.4393   -0.4914    0.2753 N   0  0  0  0  0  0  0  0  0  0  0  0
   -0.5663   -1.4163    0.3452 N   0  0  0  0  0  0  0  0  0  0  0  0
   -1.7171   -0.7726    0.4376 C   0  0  0  0  0  0  0  0  0  0  0  0
   -3.0629   -1.4088    0.5829 C   0  0  0  0  0  0  0  0  0  0  0  0
   -3.8319   -1.4651   -0.7094 C   0  0  0  0  0  0  0  0  0  0  0  0
   -3.4067   -1.8923   -1.9542 C   0  0  0  0  0  0  0  0  0  0  0  0
   -4.4421   -1.8390   -2.9312 C   0  0  0  0  0  0  0  0  0  0  0  0
   -5.6241   -1.3721   -2.4027 C   0  0  0  0  0  0  0  0  0  0  0  0
   -5.4833   -0.9993   -0.7408 S   0  0  0  0  0  0  0  0  0  0  0  0
   -1.4726    0.5833    0.4010 N   0  0  0  0  0  0  0  0  0  0  0  0
   -2.4486    1.6552    0.4143 C   0  0  0  0  0  0  0  0  0  0  0  0
   -2.5926    2.2294    1.7743 C   0  0  0  0  0  0  0  0  0  0  0  0
   -2.2216    3.4345    2.3367 C   0  0  0  0  0  0  0  0  0  0  0  0
   -2.6507    3.3943    3.6854 C   0  0  0  0  0  0  0  0  0  0  0  0
   -3.2584    2.1719    3.8600 C   0  0  0  0  0  0  0  0  0  0  0  0
   -3.2324    1.4589    2.7028 O   0  0  0  0  0  0  0  0  0  0  0  0
    3.2395   -0.0084    0.1702 N   0  0  0  0  0  0  0  0  0  0  0  0
    4.2162   -0.7572   -0.5138 C   0  0  0  0  0  0  0  0  0  0  0  0
    3.8144   -1.9798   -1.0642 C   0  0  0  0  0  0  0  0  0  0  0  0
    4.7261   -2.7904   -1.7470 C   0  0  0  0  0  0  0  0  0  0  0  0
    6.0499   -2.3787   -1.8769 C   0  0  0  0  0  0  0  0  0  0  0  0
    7.2895   -3.4697   -2.7965 Br  0  0  0  0  0  0  0  0  0  0  0  0
    6.4638   -1.1675   -1.3321 C   0  0  0  0  0  0  0  0  0  0  0  0
    5.5475   -0.3601   -0.6491 C   0  0  0  0  0  0  0  0  0  0  0  0
    1.8513    0.9637    2.1698 H   0  0  0  0  0  0  0  0  0  0  0  0
    2.4187    2.6219    2.0289 H   0  0  0  0  0  0  0  0  0  0  0  0
   -3.6320   -0.8899    1.3629 H   0  0  0  0  0  0  0  0  0  0  0  0
   -2.9289   -2.4350    0.9422 H   0  0  0  0  0  0  0  0  0  0  0  0
   -2.3995   -2.2414   -2.1515 H   0  0  0  0  0  0  0  0  0  0  0  0
   -4.3260   -2.1334   -3.9677 H   0  0  0  0  0  0  0  0  0  0  0  0
   -6.5680   -1.2348   -2.9129 H   0  0  0  0  0  0  0  0  0  0  0  0
   -2.1311    2.4141   -0.3098 H   0  0  0  0  0  0  0  0  0  0  0  0
   -3.4093    1.2690    0.0587 H   0  0  0  0  0  0  0  0  0  0  0  0
   -1.7064    4.2419    1.8357 H   0  0  0  0  0  0  0  0  0  0  0  0
   -2.5351    4.1633    4.4389 H   0  0  0  0  0  0  0  0  0  0  0  0
   -3.7362    1.6847    4.7004 H   0  0  0  0  0  0  0  0  0  0  0  0
    2.3054   -0.4246    0.2030 H   0  0  0  0  0  0  0  0  0  0  0  0
    2.7836   -2.3142   -0.9718 H   0  0  0  0  0  0  0  0  0  0  0  0
    4.3933   -3.7350   -2.1703 H   0  0  0  0  0  0  0  0  0  0  0  0
    7.4941   -0.8403   -1.4243 H   0  0  0  0  0  0  0  0  0  0  0  0
    5.9099    0.5735   -0.2238 H   0  0  0  0  0  0  0  0  0  0  0  0
  1  2  2  0
  2  3  1  0
  3  4  1  0
  4  5  1  0
  5  6  2  0
  6  7  1  0
  7  8  2  0
  8  9  1  0
  9 10  1  0
 10 11  2  0
 11 12  1  0
 12 13  2  0
 13 14  1  0
  8 15  1  0
 15 16  1  0
 16 17  1  0
 17 18  2  0
 18 19  1  0
 19 20  2  0
 20 21  1  0
  2 22  1  0
 22 23  1  0
 23 24  2  0
 24 25  1  0
 25 26  2  0
 26 27  1  0
 26 28  1  0
 28 29  2  0
 15  5  1  0
 21 17  1  0
 29 23  1  0
 14 10  1  0
  3 30  1  0
  3 31  1  0
  9 32  1  0
  9 33  1  0
 11 34  1  0
 12 35  1  0
 13 36  1  0
 16 37  1  0
 16 38  1  0
 18 39  1  0
 19 40  1  0
 20 41  1  0
 22 42  1  0
 24 43  1  0
 25 44  1  0
 28 45  1  0
 29 46  1  0
M  END
$$$$
