
     RDKit          3D

 34 36  0  0  0  0  0  0  0  0999 V2000
    3.6676    0.6007    0.7496 N   0  0  0  0  0  0  0  0  0  0  0  0
    2.5893   -0.1934    1.3321 C   0  0  0  0  0  0  0  0  0  0  0  0
    2.0117   -1.1830    0.3238 C   0  0  0  0  0  0  0  0  0  0  0  0
    1.2535   -0.5517   -0.8574 C   0  0  0  0  0  0  0  0  0  0  0  0
   -0.1323   -0.1437   -0.4983 N   0  0  0  0  0  0  0  0  0  0  0  0
   -1.1240   -1.1789   -0.4963 C   0  0  0  0  0  0  0  0  0  0  0  0
   -0.8097   -2.5377   -0.7464 C   0  0  0  0  0  0  0  0  0  0  0  0
   -1.7710   -3.5575   -0.7464 C   0  0  0  0  0  0  0  0  0  0  0  0
   -3.0961   -3.2576   -0.4930 C   0  0  0  0  0  0  0  0  0  0  0  0
   -3.4484   -1.9387   -0.2400 C   0  0  0  0  0  0  0  0  0  0  0  0
   -2.4832   -0.9086   -0.2390 C   0  0  0  0  0  0  0  0  0  0  0  0
   -3.1272    0.7067    0.1026 S   0  0  0  0  0  0  0  0  0  0  0  0
   -1.6775    1.7254    0.0301 C   0  0  0  0  0  0  0  0  0  0  0  0
   -1.9165    3.0953    0.2765 C   0  0  0  0  0  0  0  0  0  0  0  0
   -0.8818    4.0202    0.2589 C   0  0  0  0  0  0  0  0  0  0  0  0
    0.3989    3.5736   -0.0046 C   0  0  0  0  0  0  0  0  0  0  0  0
    1.7041    4.6974   -0.0207 Cl  0  0  0  0  0  0  0  0  0  0  0  0
    0.6437    2.2172   -0.2528 C   0  0  0  0  0  0  0  0  0  0  0  0
   -0.3802    1.2413   -0.2477 C   0  0  0  0  0  0  0  0  0  0  0  0
    4.4652   -0.0019    0.5460 H   0  0  0  0  0  0  0  0  0  0  0  0
    4.0000    1.2698    1.4457 H   0  0  0  0  0  0  0  0  0  0  0  0
    1.8076    0.4649    1.7218 H   0  0  0  0  0  0  0  0  0  0  0  0
    2.9916   -0.7471    2.1881 H   0  0  0  0  0  0  0  0  0  0  0  0
    2.8318   -1.7907   -0.0811 H   0  0  0  0  0  0  0  0  0  0  0  0
    1.3641   -1.8769    0.8714 H   0  0  0  0  0  0  0  0  0  0  0  0
    1.2184   -1.2704   -1.6864 H   0  0  0  0  0  0  0  0  0  0  0  0
    1.8403    0.2475   -1.3176 H   0  0  0  0  0  0  0  0  0  0  0  0
    0.2046   -2.8661   -0.9459 H   0  0  0  0  0  0  0  0  0  0  0  0
   -1.4723   -4.5838   -0.9447 H   0  0  0  0  0  0  0  0  0  0  0  0
   -3.8507   -4.0387   -0.4905 H   0  0  0  0  0  0  0  0  0  0  0  0
   -4.4940   -1.7097   -0.0408 H   0  0  0  0  0  0  0  0  0  0  0  0
   -2.9253    3.4475    0.4865 H   0  0  0  0  0  0  0  0  0  0  0  0
   -1.0821    5.0696    0.4519 H   0  0  0  0  0  0  0  0  0  0  0  0
    1.6797    1.9591   -0.4354 H   0  0  0  0  0  0  0  0  0  0  0  0
  1  2  1  0
  2  3  1  0
  3  4  1  0
  4  5  1  0
  5  6  1  0
  6  7  2  0
  7  8  1  0
  8  9  2  0
  9 10  1  0
 10 11  2  0
 11 12  1  0
 12 13  1  0
 13 14  2  0
 14 15  1  0
 15 16  2  0
 16 17  1  0
 16 18  1  0
 18 19  2  0
 19  5  1  0
 11  6  1  0
 19 13  1  0
  1 20  1  0
  1 21  1  0
  2 22  1  0
  2 23  1  0
  3 24  1  0
  3 25  1  0
  4 26  1  0
  4 27  1  0
  7 28  1  0
  8 29  1  0
  9 30  1  0
 10 31  1  0
 14 32  1  0
 15 33  1  0
 18 34  1  0
M  END
$$$$
