
     RDKit          3D

 42 44  0  0  0  0  0  0  0  0999 V2000
   -2.1119    3.8393   -0.2979 C   0  0  0  0  0  0  0  0  0  0  0  0
   -2.1449    3.1284    1.0420 C   0  0  0  0  0  0  0  0  0  0  0  0
   -2.4000    1.7298    0.8534 O   0  0  0  0  0  0  0  0  0  0  0  0
   -1.3053    0.9486    0.6186 C   0  0  0  0  0  0  0  0  0  0  0  0
   -0.1566    1.3744    0.5626 O   0  0  0  0  0  0  0  0  0  0  0  0
   -1.6460   -0.4605    0.4389 C   0  0  0  0  0  0  0  0  0  0  0  0
   -0.6934   -1.4593    0.2145 C   0  0  0  0  0  0  0  0  0  0  0  0
    0.6759   -1.2821    0.1229 N   0  0  0  0  0  0  0  0  0  0  0  0
    1.6534   -2.2334   -0.0979 C   0  0  0  0  0  0  0  0  0  0  0  0
    1.5067   -3.4394   -0.2577 O   0  0  0  0  0  0  0  0  0  0  0  0
    2.9983   -1.6248   -0.1283 C   0  0  0  0  0  0  0  0  0  0  0  0
    4.2355   -2.2888   -0.3345 C   0  0  0  0  0  0  0  0  0  0  0  0
    5.1932   -1.3052   -0.2773 C   0  0  0  0  0  0  0  0  0  0  0  0
    4.5205   -0.1414   -0.0513 N   0  0  0  0  0  0  0  0  0  0  0  0
    5.0995    1.1809    0.0909 C   0  0  0  0  0  0  0  0  0  0  0  0
    5.0255    1.9799   -1.1977 C   0  0  0  0  0  0  0  0  0  0  0  0
    3.1874   -0.3000    0.0481 N   0  0  0  0  0  0  0  0  0  0  0  0
   -1.3908   -3.0198    0.0548 S   0  0  0  0  0  0  0  0  0  0  0  0
   -2.9192   -2.3966    0.2705 C   0  0  0  0  0  0  0  0  0  0  0  0
   -2.9466   -1.0443    0.4595 C   0  0  0  0  0  0  0  0  0  0  0  0
   -4.3429   -0.5673    0.6433 C   0  0  0  0  0  0  0  0  0  0  0  0
   -5.1833   -1.8035    0.1933 C   0  0  0  0  0  0  0  0  0  0  0  0
   -4.2490   -3.0462    0.2965 C   0  0  0  0  0  0  0  0  0  0  0  0
   -1.9783    4.9162   -0.1624 H   0  0  0  0  0  0  0  0  0  0  0  0
   -1.2966    3.4621   -0.9233 H   0  0  0  0  0  0  0  0  0  0  0  0
   -3.0423    3.6649   -0.8484 H   0  0  0  0  0  0  0  0  0  0  0  0
   -2.9672    3.5240    1.6472 H   0  0  0  0  0  0  0  0  0  0  0  0
   -1.2215    3.2941    1.6085 H   0  0  0  0  0  0  0  0  0  0  0  0
    1.0322   -0.3282    0.2266 H   0  0  0  0  0  0  0  0  0  0  0  0
    4.3867   -3.3466   -0.5013 H   0  0  0  0  0  0  0  0  0  0  0  0
    6.2688   -1.3384   -0.3787 H   0  0  0  0  0  0  0  0  0  0  0  0
    6.1415    1.0574    0.4056 H   0  0  0  0  0  0  0  0  0  0  0  0
    4.5631    1.6916    0.8982 H   0  0  0  0  0  0  0  0  0  0  0  0
    5.4769    2.9671   -1.0593 H   0  0  0  0  0  0  0  0  0  0  0  0
    5.5576    1.4704   -2.0082 H   0  0  0  0  0  0  0  0  0  0  0  0
    3.9875    2.1207   -1.5171 H   0  0  0  0  0  0  0  0  0  0  0  0
   -4.5797    0.3068    0.0306 H   0  0  0  0  0  0  0  0  0  0  0  0
   -4.5333   -0.3379    1.6970 H   0  0  0  0  0  0  0  0  0  0  0  0
   -5.4818   -1.6680   -0.8548 H   0  0  0  0  0  0  0  0  0  0  0  0
   -6.0984   -1.9204    0.7820 H   0  0  0  0  0  0  0  0  0  0  0  0
   -4.4125   -3.7355   -0.5361 H   0  0  0  0  0  0  0  0  0  0  0  0
   -4.4087   -3.5691    1.2450 H   0  0  0  0  0  0  0  0  0  0  0  0
  1  2  1  0
  2  3  1  0
  3  4  1  0
  4  5  2  0
  4  6  1  0
  6  7  2  0
  7  8  1  0
  8  9  1  0
  9 10  2  0
  9 11  1  0
 11 12  1  0
 12 13  2  0
 13 14  1  0
 14 15  1  0
 15 16  1  0
 14 17  1  0
  7 18  1  0
 18 19  1  0
 19 20  2  0
 20 21  1  0
 21 22  1  0
 22 23  1  0
 20  6  1  0
 17 11  2  0
 23 19  1  0
  1 24  1  0
  1 25  1  0
  1 26  1  0
  2 27  1  0
  2 28  1  0
  8 29  1  0
 12 30  1  0
 13 31  1  0
 15 32  1  0
 15 33  1  0
 16 34  1  0
 16 35  1  0
 16 36  1  0
 21 37  1  0
 21 38  1  0
 22 39  1  0
 22 40  1  0
 23 41  1  0
 23 42  1  0
M  END
$$$$
