
     RDKit          3D

 25 26  0  0  0  0  0  0  0  0999 V2000
   -4.8072    0.0479    0.1752 O   0  0  0  0  0  0  0  0  0  0  0  0
   -3.6005    0.1733    0.0565 C   0  0  0  0  0  0  0  0  0  0  0  0
   -2.8847    1.2176   -0.7463 C   0  0  0  0  0  0  0  0  0  0  0  0
   -1.4509    0.6980   -0.7494 C   0  0  0  0  0  0  0  0  0  0  0  0
   -1.3473   -0.0914    0.4905 N   0  0  0  0  0  0  0  0  0  0  0  0
   -0.3431   -1.1631    0.3853 C   0  0  0  0  0  0  0  0  0  0  0  0
    1.0730   -0.6355    0.2804 C   0  0  0  0  0  0  0  0  0  0  0  0
    1.6274    0.1229    1.3240 C   0  0  0  0  0  0  0  0  0  0  0  0
    2.9329    0.6103    1.2316 C   0  0  0  0  0  0  0  0  0  0  0  0
    3.6924    0.3405    0.0959 C   0  0  0  0  0  0  0  0  0  0  0  0
    5.3007    0.9408   -0.0200 Cl  0  0  0  0  0  0  0  0  0  0  0  0
    3.1580   -0.4121   -0.9479 C   0  0  0  0  0  0  0  0  0  0  0  0
    1.8518   -0.8995   -0.8562 C   0  0  0  0  0  0  0  0  0  0  0  0
   -2.6382   -0.5947    0.6794 N   0  0  0  0  0  0  0  0  0  0  0  0
   -2.9670    2.1787   -0.2297 H   0  0  0  0  0  0  0  0  0  0  0  0
   -3.2964    1.2831   -1.7562 H   0  0  0  0  0  0  0  0  0  0  0  0
   -0.7278    1.5193   -0.7760 H   0  0  0  0  0  0  0  0  0  0  0  0
   -1.3029    0.0749   -1.6417 H   0  0  0  0  0  0  0  0  0  0  0  0
   -0.3868   -1.7909    1.2856 H   0  0  0  0  0  0  0  0  0  0  0  0
   -0.5685   -1.8293   -0.4585 H   0  0  0  0  0  0  0  0  0  0  0  0
    1.0368    0.3421    2.2119 H   0  0  0  0  0  0  0  0  0  0  0  0
    3.3475    1.1985    2.0457 H   0  0  0  0  0  0  0  0  0  0  0  0
    3.7517   -0.6226   -1.8335 H   0  0  0  0  0  0  0  0  0  0  0  0
    1.4477   -1.4856   -1.6789 H   0  0  0  0  0  0  0  0  0  0  0  0
   -2.8985   -1.2233    1.4324 H   0  0  0  0  0  0  0  0  0  0  0  0
  1  2  2  0
  2  3  1  0
  3  4  1  0
  4  5  1  0
  5  6  1  0
  6  7  1  0
  7  8  2  0
  8  9  1  0
  9 10  2  0
 10 11  1  0
 10 12  1  0
 12 13  2  0
  5 14  1  0
 14  2  1  0
 13  7  1  0
  3 15  1  0
  3 16  1  0
  4 17  1  0
  4 18  1  0
  6 19  1  0
  6 20  1  0
  8 21  1  0
  9 22  1  0
 12 23  1  0
 13 24  1  0
 14 25  1  0
M  END
$$$$
