
     RDKit          3D

 32 32  0  0  0  0  0  0  0  0999 V2000
   -4.8640   -2.0565   -0.2140 C   0  0  0  0  0  0  0  0  0  0  0  0
   -4.0266   -1.3236    0.2385 C   0  0  0  0  0  0  0  0  0  0  0  0
   -2.9990   -0.4312    0.8008 C   0  0  0  0  0  0  0  0  0  0  0  0
   -2.5241    0.6190   -0.1175 N   0  0  0  0  0  0  0  0  0  0  0  0
   -3.5900    1.5734   -0.4312 C   0  0  0  0  0  0  0  0  0  0  0  0
   -1.9065    0.1068   -1.3502 C   0  0  0  0  0  0  0  0  0  0  0  0
   -0.6317   -0.7139   -1.1330 C   0  0  0  0  0  0  0  0  0  0  0  0
    0.4520    0.0597   -0.3863 C   0  0  0  0  0  0  0  0  0  0  0  0
    1.6150   -0.7688   -0.3296 O   0  0  0  0  0  0  0  0  0  0  0  0
    2.7258   -0.2738    0.3010 C   0  0  0  0  0  0  0  0  0  0  0  0
    2.7997    0.9861    0.9052 C   0  0  0  0  0  0  0  0  0  0  0  0
    3.9814    1.4042    1.5270 C   0  0  0  0  0  0  0  0  0  0  0  0
    5.0934    0.5658    1.5480 C   0  0  0  0  0  0  0  0  0  0  0  0
    6.5416    1.0887    2.3148 Cl  0  0  0  0  0  0  0  0  0  0  0  0
    5.0396   -0.6899    0.9534 C   0  0  0  0  0  0  0  0  0  0  0  0
    3.8591   -1.1061    0.3329 C   0  0  0  0  0  0  0  0  0  0  0  0
    3.8414   -2.6770   -0.3931 Cl  0  0  0  0  0  0  0  0  0  0  0  0
   -5.6056   -2.7074   -0.6164 H   0  0  0  0  0  0  0  0  0  0  0  0
   -3.3934    0.0440    1.7083 H   0  0  0  0  0  0  0  0  0  0  0  0
   -2.1489   -1.0280    1.1504 H   0  0  0  0  0  0  0  0  0  0  0  0
   -3.1854    2.4251   -0.9897 H   0  0  0  0  0  0  0  0  0  0  0  0
   -4.3939    1.1287   -1.0282 H   0  0  0  0  0  0  0  0  0  0  0  0
   -4.0252    1.9858    0.4860 H   0  0  0  0  0  0  0  0  0  0  0  0
   -1.6317    0.9599   -1.9853 H   0  0  0  0  0  0  0  0  0  0  0  0
   -2.6201   -0.4866   -1.9355 H   0  0  0  0  0  0  0  0  0  0  0  0
   -0.8474   -1.6521   -0.6081 H   0  0  0  0  0  0  0  0  0  0  0  0
   -0.2382   -1.0206   -2.1110 H   0  0  0  0  0  0  0  0  0  0  0  0
    0.1138    0.2905    0.6302 H   0  0  0  0  0  0  0  0  0  0  0  0
    0.6800    0.9854   -0.9281 H   0  0  0  0  0  0  0  0  0  0  0  0
    1.9559    1.6691    0.9121 H   0  0  0  0  0  0  0  0  0  0  0  0
    4.0248    2.3859    1.9930 H   0  0  0  0  0  0  0  0  0  0  0  0
    5.9082   -1.3422    0.9711 H   0  0  0  0  0  0  0  0  0  0  0  0
  1  2  3  0
  2  3  1  0
  3  4  1  0
  4  5  1  0
  4  6  1  0
  6  7  1  0
  7  8  1  0
  8  9  1  0
  9 10  1  0
 10 11  2  0
 11 12  1  0
 12 13  2  0
 13 14  1  0
 13 15  1  0
 15 16  2  0
 16 17  1  0
 16 10  1  0
  1 18  1  0
  3 19  1  0
  3 20  1  0
  5 21  1  0
  5 22  1  0
  5 23  1  0
  6 24  1  0
  6 25  1  0
  7 26  1  0
  7 27  1  0
  8 28  1  0
  8 29  1  0
 11 30  1  0
 12 31  1  0
 15 32  1  0
M  END
$$$$
