
     RDKit          3D

 42 45  0  0  0  0  0  0  0  0999 V2000
    3.2152   -2.3531    0.3521 C   0  0  0  0  0  0  0  0  0  0  0  0
    3.4165   -0.8941    0.1623 C   0  0  0  0  0  0  0  0  0  0  0  0
    2.5062    0.1479    0.0586 C   0  0  0  0  0  0  0  0  0  0  0  0
    1.0440    0.1101    0.1065 C   0  0  0  0  0  0  0  0  0  0  0  0
    0.4169   -0.9314    0.2734 O   0  0  0  0  0  0  0  0  0  0  0  0
    0.4817    1.3776   -0.0425 N   0  0  0  0  0  0  0  0  0  0  0  0
   -0.8399    1.7092    0.1275 N   0  0  0  0  0  0  0  0  0  0  0  0
   -1.7430    0.8382   -0.2140 C   0  0  0  0  0  0  0  0  0  0  0  0
   -3.1929    1.1044   -0.0161 C   0  0  0  0  0  0  0  0  0  0  0  0
   -3.6185    2.4102    0.2866 C   0  0  0  0  0  0  0  0  0  0  0  0
   -2.7642    3.4682    0.4553 O   0  0  0  0  0  0  0  0  0  0  0  0
   -4.9674    2.7040    0.4234 C   0  0  0  0  0  0  0  0  0  0  0  0
   -5.9122    1.6953    0.2650 C   0  0  0  0  0  0  0  0  0  0  0  0
   -5.5228    0.3782   -0.0195 C   0  0  0  0  0  0  0  0  0  0  0  0
   -6.5064   -0.6147   -0.1597 C   0  0  0  0  0  0  0  0  0  0  0  0
   -6.1622   -1.9375   -0.4254 C   0  0  0  0  0  0  0  0  0  0  0  0
   -4.8260   -2.2864   -0.5483 C   0  0  0  0  0  0  0  0  0  0  0  0
   -3.8343   -1.3104   -0.4145 C   0  0  0  0  0  0  0  0  0  0  0  0
   -4.1469    0.0514   -0.1586 C   0  0  0  0  0  0  0  0  0  0  0  0
    3.1897    1.3248   -0.1036 N   0  0  0  0  0  0  0  0  0  0  0  0
    4.4829    1.0597   -0.1060 N   0  0  0  0  0  0  0  0  0  0  0  0
    4.6668   -0.2834    0.0520 N   0  0  0  0  0  0  0  0  0  0  0  0
    5.9635   -0.8574    0.0696 C   0  0  0  0  0  0  0  0  0  0  0  0
    6.1342   -2.1763    0.1727 N   0  0  0  0  0  0  0  0  0  0  0  0
    7.5180   -2.3430    0.1369 O   0  0  0  0  0  0  0  0  0  0  0  0
    8.1706   -1.1218    0.0086 N   0  0  0  0  0  0  0  0  0  0  0  0
    7.2064   -0.2030   -0.0246 C   0  0  0  0  0  0  0  0  0  0  0  0
    7.4237    1.1213   -0.1299 N   0  0  0  0  0  0  0  0  0  0  0  0
    3.7107   -2.6988    1.2650 H   0  0  0  0  0  0  0  0  0  0  0  0
    2.1592   -2.6151    0.4481 H   0  0  0  0  0  0  0  0  0  0  0  0
    3.6057   -2.9131   -0.5035 H   0  0  0  0  0  0  0  0  0  0  0  0
    1.1280    2.1631    0.0220 H   0  0  0  0  0  0  0  0  0  0  0  0
   -1.4710   -0.1052   -0.7060 H   0  0  0  0  0  0  0  0  0  0  0  0
   -1.8490    3.1155    0.4106 H   0  0  0  0  0  0  0  0  0  0  0  0
   -5.2827    3.7187    0.6511 H   0  0  0  0  0  0  0  0  0  0  0  0
   -6.9650    1.9492    0.3745 H   0  0  0  0  0  0  0  0  0  0  0  0
   -7.5607   -0.3637   -0.0573 H   0  0  0  0  0  0  0  0  0  0  0  0
   -6.9368   -2.6929   -0.5275 H   0  0  0  0  0  0  0  0  0  0  0  0
   -4.5477   -3.3193   -0.7429 H   0  0  0  0  0  0  0  0  0  0  0  0
   -2.8046   -1.6495   -0.4989 H   0  0  0  0  0  0  0  0  0  0  0  0
    8.3479    1.4534   -0.3851 H   0  0  0  0  0  0  0  0  0  0  0  0
    6.6661    1.7696   -0.3380 H   0  0  0  0  0  0  0  0  0  0  0  0
  1  2  1  0
  2  3  2  0
  3  4  1  0
  4  5  2  0
  4  6  1  0
  6  7  1  0
  7  8  2  3
  8  9  1  0
  9 10  2  0
 10 11  1  0
 10 12  1  0
 12 13  2  0
 13 14  1  0
 14 15  2  0
 15 16  1  0
 16 17  2  0
 17 18  1  0
 18 19  2  0
  3 20  1  0
 20 21  2  0
 21 22  1  0
 22 23  1  0
 23 24  2  0
 24 25  1  0
 25 26  1  0
 26 27  2  0
 27 28  1  0
 22  2  1  0
 27 23  1  0
 19  9  1  0
 19 14  1  0
  1 29  1  0
  1 30  1  0
  1 31  1  0
  6 32  1  0
  8 33  1  0
 11 34  1  0
 12 35  1  0
 13 36  1  0
 15 37  1  0
 16 38  1  0
 17 39  1  0
 18 40  1  0
 28 41  1  0
 28 42  1  0
M  END
$$$$
