
     RDKit          3D

 61 66  0  0  0  0  0  0  0  0999 V2000
   -3.8507   -2.0996    1.9926 C   0  0  0  0  0  0  0  0  0  0  0  0
   -3.6763   -0.8294    1.1509 C   0  0  0  0  0  0  0  0  0  0  0  0
   -4.8949    0.0852    1.3165 C   0  0  0  0  0  0  0  0  0  0  0  0
   -3.4188   -1.1314   -0.3234 C   0  0  0  0  0  0  0  0  0  0  0  0
   -4.3361   -1.9390   -1.0247 C   0  0  0  0  0  0  0  0  0  0  0  0
   -4.2068   -2.1739   -2.3963 C   0  0  0  0  0  0  0  0  0  0  0  0
   -3.1613   -1.5988   -3.1096 C   0  0  0  0  0  0  0  0  0  0  0  0
   -2.2373   -0.7925   -2.4518 C   0  0  0  0  0  0  0  0  0  0  0  0
   -2.3571   -0.5686   -1.0684 C   0  0  0  0  0  0  0  0  0  0  0  0
   -1.3742    0.2535   -0.4656 N   0  0  0  0  0  0  0  0  0  0  0  0
   -0.3894   -0.1324    0.4245 C   0  0  0  0  0  0  0  0  0  0  0  0
   -0.1490   -1.7584    0.9848 S   0  0  0  0  0  0  0  0  0  0  0  0
    1.6231   -1.7208    1.4218 C   0  0  0  0  0  0  0  0  0  0  0  0
    2.5637   -1.5708    0.2427 C   0  0  0  0  0  0  0  0  0  0  0  0
    2.2926   -2.1241   -0.9528 C   0  0  0  0  0  0  0  0  0  0  0  0
    3.0053   -1.7807   -2.1868 C   0  0  0  0  0  0  0  0  0  0  0  0
    2.7938   -2.3909   -3.2278 O   0  0  0  0  0  0  0  0  0  0  0  0
    3.8279   -0.6776   -2.1198 O   0  0  0  0  0  0  0  0  0  0  0  0
    4.2544   -0.1873   -0.8696 C   0  0  0  0  0  0  0  0  0  0  0  0
    5.2380    0.7927   -0.9374 C   0  0  0  0  0  0  0  0  0  0  0  0
    5.8044    1.2626    0.2368 C   0  0  0  0  0  0  0  0  0  0  0  0
    5.4491    0.7054    1.4702 C   0  0  0  0  0  0  0  0  0  0  0  0
    6.1116    1.1549    2.6251 C   0  0  0  0  0  0  0  0  0  0  0  0
    5.8562    0.5886    3.8694 C   0  0  0  0  0  0  0  0  0  0  0  0
    4.9477   -0.4516    3.9686 C   0  0  0  0  0  0  0  0  0  0  0  0
    4.2718   -0.8991    2.8280 C   0  0  0  0  0  0  0  0  0  0  0  0
    4.4552   -0.3143    1.5464 C   0  0  0  0  0  0  0  0  0  0  0  0
    3.7693   -0.6988    0.3448 C   0  0  0  0  0  0  0  0  0  0  0  0
    0.4023    0.8781    0.6903 N   0  0  0  0  0  0  0  0  0  0  0  0
    0.0016    1.9340   -0.0804 N   0  0  0  0  0  0  0  0  0  0  0  0
   -1.0536    1.5703   -0.7914 C   0  0  0  0  0  0  0  0  0  0  0  0
   -1.7366    2.4471   -1.7427 C   0  0  0  0  0  0  0  0  0  0  0  0
   -3.1236    2.4788   -1.9135 C   0  0  0  0  0  0  0  0  0  0  0  0
   -3.6933    3.3496   -2.8425 C   0  0  0  0  0  0  0  0  0  0  0  0
   -2.8559    4.1760   -3.5718 C   0  0  0  0  0  0  0  0  0  0  0  0
   -1.5148    4.1904   -3.4298 N   0  0  0  0  0  0  0  0  0  0  0  0
   -0.9909    3.3370   -2.5144 C   0  0  0  0  0  0  0  0  0  0  0  0
   -3.9026   -1.8463    3.0572 H   0  0  0  0  0  0  0  0  0  0  0  0
   -4.7699   -2.6402    1.7414 H   0  0  0  0  0  0  0  0  0  0  0  0
   -3.0105   -2.7884    1.8536 H   0  0  0  0  0  0  0  0  0  0  0  0
   -2.8273   -0.2895    1.5777 H   0  0  0  0  0  0  0  0  0  0  0  0
   -4.7730    1.0122    0.7465 H   0  0  0  0  0  0  0  0  0  0  0  0
   -5.8176   -0.3972    0.9754 H   0  0  0  0  0  0  0  0  0  0  0  0
   -5.0310    0.3573    2.3694 H   0  0  0  0  0  0  0  0  0  0  0  0
   -5.1844   -2.3867   -0.5096 H   0  0  0  0  0  0  0  0  0  0  0  0
   -4.9318   -2.8027   -2.9083 H   0  0  0  0  0  0  0  0  0  0  0  0
   -3.0634   -1.7817   -4.1770 H   0  0  0  0  0  0  0  0  0  0  0  0
   -1.4171   -0.3648   -3.0270 H   0  0  0  0  0  0  0  0  0  0  0  0
    1.7262   -0.8979    2.1340 H   0  0  0  0  0  0  0  0  0  0  0  0
    1.8484   -2.6553    1.9463 H   0  0  0  0  0  0  0  0  0  0  0  0
    1.4615   -2.8018   -1.1111 H   0  0  0  0  0  0  0  0  0  0  0  0
    5.5644    1.1801   -1.8986 H   0  0  0  0  0  0  0  0  0  0  0  0
    6.5650    2.0387    0.1753 H   0  0  0  0  0  0  0  0  0  0  0  0
    6.8527    1.9504    2.5612 H   0  0  0  0  0  0  0  0  0  0  0  0
    6.3835    0.9440    4.7507 H   0  0  0  0  0  0  0  0  0  0  0  0
    4.7665   -0.9267    4.9290 H   0  0  0  0  0  0  0  0  0  0  0  0
    3.6205   -1.7550    2.9661 H   0  0  0  0  0  0  0  0  0  0  0  0
   -3.7806    1.8433   -1.3277 H   0  0  0  0  0  0  0  0  0  0  0  0
   -4.7670    3.3843   -2.9902 H   0  0  0  0  0  0  0  0  0  0  0  0
   -3.2522    4.8705   -4.3072 H   0  0  0  0  0  0  0  0  0  0  0  0
    0.0924    3.3890   -2.4203 H   0  0  0  0  0  0  0  0  0  0  0  0
  1  2  1  0
  2  3  1  0
  2  4  1  0
  4  5  2  0
  5  6  1  0
  6  7  2  0
  7  8  1  0
  8  9  2  0
  9 10  1  0
 10 11  1  0
 11 12  1  0
 12 13  1  0
 13 14  1  0
 14 15  2  0
 15 16  1  0
 16 17  2  0
 16 18  1  0
 18 19  1  0
 19 20  2  0
 20 21  1  0
 21 22  2  0
 22 23  1  0
 23 24  2  0
 24 25  1  0
 25 26  2  0
 26 27  1  0
 27 28  2  0
 11 29  2  0
 29 30  1  0
 30 31  2  0
 31 32  1  0
 32 33  2  0
 33 34  1  0
 34 35  2  0
 35 36  1  0
 36 37  2  0
  9  4  1  0
 31 10  1  0
 37 32  1  0
 28 14  1  0
 28 19  1  0
 27 22  1  0
  1 38  1  0
  1 39  1  0
  1 40  1  0
  2 41  1  0
  3 42  1  0
  3 43  1  0
  3 44  1  0
  5 45  1  0
  6 46  1  0
  7 47  1  0
  8 48  1  0
 13 49  1  0
 13 50  1  0
 15 51  1  0
 20 52  1  0
 21 53  1  0
 23 54  1  0
 24 55  1  0
 25 56  1  0
 26 57  1  0
 33 58  1  0
 34 59  1  0
 35 60  1  0
 37 61  1  0
M  END
$$$$
