
     RDKit          3D

 37 39  0  0  0  0  0  0  0  0999 V2000
    5.3364    0.2879   -1.0849 N   0  0  0  0  0  0  0  0  0  0  0  0
    3.9264    0.1025   -1.4035 C   0  0  0  0  0  0  0  0  0  0  0  0
    3.0600    0.2348   -0.1518 C   0  0  0  0  0  0  0  0  0  0  0  0
    1.5785    0.0427   -0.4825 C   0  0  0  0  0  0  0  0  0  0  0  0
    0.7103    0.1697    0.7783 C   0  0  0  0  0  0  0  0  0  0  0  0
   -0.7280   -0.0029    0.4709 N   0  0  0  0  0  0  0  0  0  0  0  0
   -1.2649   -1.3189    0.5916 C   0  0  0  0  0  0  0  0  0  0  0  0
   -0.4421   -2.4679    0.6460 C   0  0  0  0  0  0  0  0  0  0  0  0
   -0.9598   -3.7651    0.7516 C   0  0  0  0  0  0  0  0  0  0  0  0
   -2.3286   -3.9615    0.8036 C   0  0  0  0  0  0  0  0  0  0  0  0
   -3.1714   -2.8582    0.7465 C   0  0  0  0  0  0  0  0  0  0  0  0
   -2.6547   -1.5512    0.6377 C   0  0  0  0  0  0  0  0  0  0  0  0
   -3.8697   -0.2558    0.6046 S   0  0  0  0  0  0  0  0  0  0  0  0
   -2.8931    1.1701    0.1969 C   0  0  0  0  0  0  0  0  0  0  0  0
   -3.6280    2.3375   -0.0952 C   0  0  0  0  0  0  0  0  0  0  0  0
   -2.9857    3.5296   -0.4088 C   0  0  0  0  0  0  0  0  0  0  0  0
   -1.6026    3.5554   -0.4314 C   0  0  0  0  0  0  0  0  0  0  0  0
   -0.7828    5.0175   -0.8247 Cl  0  0  0  0  0  0  0  0  0  0  0  0
   -0.8646    2.4030   -0.1410 C   0  0  0  0  0  0  0  0  0  0  0  0
   -1.4820    1.1745    0.1883 C   0  0  0  0  0  0  0  0  0  0  0  0
    5.6268   -0.3898   -0.3813 H   0  0  0  0  0  0  0  0  0  0  0  0
    5.4807    1.2075   -0.6694 H   0  0  0  0  0  0  0  0  0  0  0  0
    3.7914   -0.8861   -1.8554 H   0  0  0  0  0  0  0  0  0  0  0  0
    3.6300    0.8462   -2.1511 H   0  0  0  0  0  0  0  0  0  0  0  0
    3.2077    1.2241    0.2995 H   0  0  0  0  0  0  0  0  0  0  0  0
    3.3673   -0.5102    0.5929 H   0  0  0  0  0  0  0  0  0  0  0  0
    1.2752    0.7798   -1.2344 H   0  0  0  0  0  0  0  0  0  0  0  0
    1.4342   -0.9373   -0.9510 H   0  0  0  0  0  0  0  0  0  0  0  0
    0.8950    1.1326    1.2722 H   0  0  0  0  0  0  0  0  0  0  0  0
    1.0405   -0.5466    1.5418 H   0  0  0  0  0  0  0  0  0  0  0  0
    0.6390   -2.3975    0.5905 H   0  0  0  0  0  0  0  0  0  0  0  0
   -0.2852   -4.6169    0.7874 H   0  0  0  0  0  0  0  0  0  0  0  0
   -2.7407   -4.9632    0.8854 H   0  0  0  0  0  0  0  0  0  0  0  0
   -4.2468   -3.0207    0.7886 H   0  0  0  0  0  0  0  0  0  0  0  0
   -4.7164    2.3195   -0.0771 H   0  0  0  0  0  0  0  0  0  0  0  0
   -3.5664    4.4195   -0.6326 H   0  0  0  0  0  0  0  0  0  0  0  0
    0.2142    2.4953   -0.1982 H   0  0  0  0  0  0  0  0  0  0  0  0
  1  2  1  0
  2  3  1  0
  3  4  1  0
  4  5  1  0
  5  6  1  0
  6  7  1  0
  7  8  2  0
  8  9  1  0
  9 10  2  0
 10 11  1  0
 11 12  2  0
 12 13  1  0
 13 14  1  0
 14 15  2  0
 15 16  1  0
 16 17  2  0
 17 18  1  0
 17 19  1  0
 19 20  2  0
 20  6  1  0
 12  7  1  0
 20 14  1  0
  1 21  1  0
  1 22  1  0
  2 23  1  0
  2 24  1  0
  3 25  1  0
  3 26  1  0
  4 27  1  0
  4 28  1  0
  5 29  1  0
  5 30  1  0
  8 31  1  0
  9 32  1  0
 10 33  1  0
 11 34  1  0
 15 35  1  0
 16 36  1  0
 19 37  1  0
M  END
$$$$
