
     RDKit          3D

 57 60  0  0  0  0  0  0  0  0999 V2000
   -7.8922    0.8946    3.5525 C   0  0  0  0  0  0  0  0  0  0  0  0
   -8.0541    1.2554    2.0835 C   0  0  0  0  0  0  0  0  0  0  0  0
   -6.7883    1.0064    1.3037 C   0  0  0  0  0  0  0  0  0  0  0  0
   -5.7319    1.9214    1.3503 C   0  0  0  0  0  0  0  0  0  0  0  0
   -4.5469    1.6785    0.6449 C   0  0  0  0  0  0  0  0  0  0  0  0
   -4.3764    0.5120   -0.1218 C   0  0  0  0  0  0  0  0  0  0  0  0
   -3.1229    0.2274   -0.8495 C   0  0  0  0  0  0  0  0  0  0  0  0
   -1.8786    0.5957   -0.3702 C   0  0  0  0  0  0  0  0  0  0  0  0
   -0.7491    0.2558   -1.1164 C   0  0  0  0  0  0  0  0  0  0  0  0
    0.5550    0.6038   -0.5069 C   0  0  0  0  0  0  0  0  0  0  0  0
    0.7574    1.7745   -0.2134 O   0  0  0  0  0  0  0  0  0  0  0  0
    1.3783   -0.4831   -0.2828 N   0  0  0  0  0  0  0  0  0  0  0  0
    2.6434   -0.4838    0.3383 C   0  0  0  0  0  0  0  0  0  0  0  0
    3.2884   -1.7224    0.4687 C   0  0  0  0  0  0  0  0  0  0  0  0
    4.5408   -1.8157    1.0838 C   0  0  0  0  0  0  0  0  0  0  0  0
    5.1567   -0.6616    1.5721 C   0  0  0  0  0  0  0  0  0  0  0  0
    6.7149   -0.7830    2.4129 S   0  0  0  0  0  6  0  0  0  0  0  0
    6.9051   -2.1748    2.7742 O   0  0  0  0  0  0  0  0  0  0  0  0
    6.8026    0.2562    3.4112 O   0  0  0  0  0  0  0  0  0  0  0  0
    7.8284   -0.5086    1.2108 N   0  0  0  0  0  0  0  0  0  0  0  0
    8.0689    0.7198    0.5861 C   0  0  0  0  0  0  0  0  0  0  0  0
    9.2210    0.6999   -0.3804 C   0  0  0  0  0  0  0  0  0  0  0  0
    7.3812    1.7152    0.7575 O   0  0  0  0  0  0  0  0  0  0  0  0
    4.5194    0.5748    1.4616 C   0  0  0  0  0  0  0  0  0  0  0  0
    3.2705    0.6622    0.8349 C   0  0  0  0  0  0  0  0  0  0  0  0
   -0.8620   -0.4038   -2.3587 C   0  0  0  0  0  0  0  0  0  0  0  0
    0.2215   -0.7192   -3.2195 C   0  0  0  0  0  0  0  0  0  0  0  0
    0.0110   -1.3862   -4.4249 C   0  0  0  0  0  0  0  0  0  0  0  0
   -1.2789   -1.7411   -4.7919 C   0  0  0  0  0  0  0  0  0  0  0  0
   -2.3495   -1.4146   -3.9564 C   0  0  0  0  0  0  0  0  0  0  0  0
   -2.1679   -0.7467   -2.7519 C   0  0  0  0  0  0  0  0  0  0  0  0
   -3.2536   -0.4575   -2.0146 N   0  0  0  0  0  0  0  0  0  0  0  0
   -5.4546   -0.3894   -0.1691 C   0  0  0  0  0  0  0  0  0  0  0  0
   -6.6407   -0.1523    0.5364 C   0  0  0  0  0  0  0  0  0  0  0  0
   -7.5968   -0.1533    3.6752 H   0  0  0  0  0  0  0  0  0  0  0  0
   -8.8349    1.0475    4.0877 H   0  0  0  0  0  0  0  0  0  0  0  0
   -7.1281    1.5158    4.0297 H   0  0  0  0  0  0  0  0  0  0  0  0
   -8.3383    2.3109    1.9875 H   0  0  0  0  0  0  0  0  0  0  0  0
   -8.8797    0.6755    1.6529 H   0  0  0  0  0  0  0  0  0  0  0  0
   -5.8233    2.8339    1.9358 H   0  0  0  0  0  0  0  0  0  0  0  0
   -3.7612    2.4292    0.6938 H   0  0  0  0  0  0  0  0  0  0  0  0
   -1.7671    1.1111    0.5790 H   0  0  0  0  0  0  0  0  0  0  0  0
    1.0159   -1.3911   -0.5501 H   0  0  0  0  0  0  0  0  0  0  0  0
    2.8219   -2.6337    0.1029 H   0  0  0  0  0  0  0  0  0  0  0  0
    5.0143   -2.7892    1.1898 H   0  0  0  0  0  0  0  0  0  0  0  0
    8.4050   -1.3229    1.0182 H   0  0  0  0  0  0  0  0  0  0  0  0
    8.8836    0.2867   -1.3370 H   0  0  0  0  0  0  0  0  0  0  0  0
    9.5857    1.7216   -0.5342 H   0  0  0  0  0  0  0  0  0  0  0  0
   10.0429    0.0932    0.0121 H   0  0  0  0  0  0  0  0  0  0  0  0
    4.9825    1.4775    1.8586 H   0  0  0  0  0  0  0  0  0  0  0  0
    2.8110    1.6438    0.7601 H   0  0  0  0  0  0  0  0  0  0  0  0
    1.2391   -0.4249   -2.9678 H   0  0  0  0  0  0  0  0  0  0  0  0
    0.8490   -1.6176   -5.0772 H   0  0  0  0  0  0  0  0  0  0  0  0
   -1.4611   -2.2589   -5.7307 H   0  0  0  0  0  0  0  0  0  0  0  0
   -3.3605   -1.6821   -4.2584 H   0  0  0  0  0  0  0  0  0  0  0  0
   -5.3714   -1.3004   -0.7603 H   0  0  0  0  0  0  0  0  0  0  0  0
   -7.4453   -0.8821    0.4780 H   0  0  0  0  0  0  0  0  0  0  0  0
  1  2  1  0
  2  3  1  0
  3  4  2  0
  4  5  1  0
  5  6  2  0
  6  7  1  0
  7  8  2  0
  8  9  1  0
  9 10  1  0
 10 11  2  0
 10 12  1  0
 12 13  1  0
 13 14  2  0
 14 15  1  0
 15 16  2  0
 16 17  1  0
 17 18  2  0
 17 19  2  0
 17 20  1  0
 20 21  1  0
 21 22  1  0
 21 23  2  0
 16 24  1  0
 24 25  2  0
  9 26  2  0
 26 27  1  0
 27 28  2  0
 28 29  1  0
 29 30  2  0
 30 31  1  0
 31 32  2  0
  6 33  1  0
 33 34  2  0
 34  3  1  0
 32  7  1  0
 25 13  1  0
 31 26  1  0
  1 35  1  0
  1 36  1  0
  1 37  1  0
  2 38  1  0
  2 39  1  0
  4 40  1  0
  5 41  1  0
  8 42  1  0
 12 43  1  0
 14 44  1  0
 15 45  1  0
 20 46  1  0
 22 47  1  0
 22 48  1  0
 22 49  1  0
 24 50  1  0
 25 51  1  0
 27 52  1  0
 28 53  1  0
 29 54  1  0
 30 55  1  0
 33 56  1  0
 34 57  1  0
M  END
$$$$
