
     RDKit          3D

 57 61  0  0  0  0  0  0  0  0999 V2000
   -5.8238    0.0981   -3.9468 C   0  0  0  0  0  0  0  0  0  0  0  0
   -5.5092    0.1654   -2.4807 C   0  0  0  0  0  0  0  0  0  0  0  0
   -5.8270    1.3082   -1.7392 C   0  0  0  0  0  0  0  0  0  0  0  0
   -5.5186    1.3801   -0.3778 C   0  0  0  0  0  0  0  0  0  0  0  0
   -4.8807    0.3112    0.2646 C   0  0  0  0  0  0  0  0  0  0  0  0
   -4.5524    0.3839    1.7345 C   0  0  0  0  0  0  0  0  0  0  0  0
   -3.3584    1.1633    1.9814 N   0  0  0  0  0  0  0  0  0  0  0  0
   -3.4417    2.4367    2.4415 N   0  0  0  0  0  0  0  0  0  0  0  0
   -2.1982    2.8857    2.6167 N   0  0  0  0  0  0  0  0  0  0  0  0
   -1.3507    1.8772    2.2721 C   0  0  0  0  0  0  0  0  0  0  0  0
    0.0859    1.8126    2.2653 C   0  0  0  0  0  0  0  0  0  0  0  0
    0.8331    2.7143    2.6266 O   0  0  0  0  0  0  0  0  0  0  0  0
    0.5511    0.5837    1.8032 N   0  0  0  0  0  0  0  0  0  0  0  0
   -0.2701   -0.4793    1.4447 C   0  0  0  0  0  0  0  0  0  0  0  0
    0.3834   -1.7623    0.9272 C   0  0  0  0  0  0  0  0  0  0  0  0
    0.8101   -1.6017   -0.5385 C   0  0  0  0  0  0  0  0  0  0  0  0
    2.1789   -0.9543   -0.6940 C   0  0  0  0  0  0  0  0  0  0  0  0
    3.2153   -1.5682    0.1845 N   0  0  0  0  0  0  0  0  0  0  0  0
    4.2356   -0.4687    1.0108 S   0  0  0  0  0  6  0  0  0  0  0  0
    3.3472    0.3979    1.7594 O   0  0  0  0  0  0  0  0  0  0  0  0
    5.2587   -1.2380    1.6882 O   0  0  0  0  0  0  0  0  0  0  0  0
    5.0140    0.4088   -0.3014 C   0  0  0  0  0  0  0  0  0  0  0  0
    6.1148   -0.1691   -0.9492 C   0  0  0  0  0  0  0  0  0  0  0  0
    6.7531    0.5230   -1.9803 C   0  0  0  0  0  0  0  0  0  0  0  0
    6.2965    1.7856   -2.3589 C   0  0  0  0  0  0  0  0  0  0  0  0
    5.2078    2.3628   -1.6992 C   0  0  0  0  0  0  0  0  0  0  0  0
    4.5713    1.6721   -0.6708 C   0  0  0  0  0  0  0  0  0  0  0  0
    3.5107    2.2447   -0.0867 F   0  0  0  0  0  0  0  0  0  0  0  0
    2.7345   -2.7008    1.0178 C   0  0  0  0  0  0  0  0  0  0  0  0
    1.5042   -2.3018    1.8235 C   0  0  0  0  0  0  0  0  0  0  0  0
   -1.5757   -0.4311    1.4698 N   0  0  0  0  0  0  0  0  0  0  0  0
   -2.0553    0.7673    1.8794 C   0  0  0  0  0  0  0  0  0  0  0  0
   -4.5367   -0.8208   -0.4871 C   0  0  0  0  0  0  0  0  0  0  0  0
   -4.8452   -0.8911   -1.8476 C   0  0  0  0  0  0  0  0  0  0  0  0
   -5.9534   -0.9386   -4.2724 H   0  0  0  0  0  0  0  0  0  0  0  0
   -5.0138    0.5523   -4.5273 H   0  0  0  0  0  0  0  0  0  0  0  0
   -6.7577    0.6252   -4.1679 H   0  0  0  0  0  0  0  0  0  0  0  0
   -6.3202    2.1524   -2.2165 H   0  0  0  0  0  0  0  0  0  0  0  0
   -5.7766    2.2811    0.1765 H   0  0  0  0  0  0  0  0  0  0  0  0
   -5.3826    0.8357    2.2903 H   0  0  0  0  0  0  0  0  0  0  0  0
   -4.3921   -0.6151    2.1568 H   0  0  0  0  0  0  0  0  0  0  0  0
    1.5679    0.5087    1.8210 H   0  0  0  0  0  0  0  0  0  0  0  0
   -0.4169   -2.5176    0.9307 H   0  0  0  0  0  0  0  0  0  0  0  0
    0.0671   -1.0191   -1.0979 H   0  0  0  0  0  0  0  0  0  0  0  0
    0.8333   -2.5939   -1.0094 H   0  0  0  0  0  0  0  0  0  0  0  0
    2.5151   -1.0565   -1.7319 H   0  0  0  0  0  0  0  0  0  0  0  0
    2.0792    0.1172   -0.5016 H   0  0  0  0  0  0  0  0  0  0  0  0
    6.4745   -1.1525   -0.6568 H   0  0  0  0  0  0  0  0  0  0  0  0
    7.6060    0.0771   -2.4906 H   0  0  0  0  0  0  0  0  0  0  0  0
    6.7937    2.3247   -3.1618 H   0  0  0  0  0  0  0  0  0  0  0  0
    4.8484    3.3447   -1.9832 H   0  0  0  0  0  0  0  0  0  0  0  0
    3.5245   -3.0596    1.6866 H   0  0  0  0  0  0  0  0  0  0  0  0
    2.5104   -3.5479    0.3571 H   0  0  0  0  0  0  0  0  0  0  0  0
    1.1376   -3.1881    2.3579 H   0  0  0  0  0  0  0  0  0  0  0  0
    1.7801   -1.5900    2.6092 H   0  0  0  0  0  0  0  0  0  0  0  0
   -4.0195   -1.6565   -0.0194 H   0  0  0  0  0  0  0  0  0  0  0  0
   -4.5674   -1.7793   -2.4103 H   0  0  0  0  0  0  0  0  0  0  0  0
  1  2  1  0
  2  3  2  0
  3  4  1  0
  4  5  2  0
  5  6  1  0
  6  7  1  0
  7  8  1  0
  8  9  2  0
  9 10  1  0
 10 11  1  0
 11 12  2  0
 11 13  1  0
 13 14  1  0
 14 15  1  0
 15 16  1  0
 16 17  1  0
 17 18  1  0
 18 19  1  0
 19 20  2  0
 19 21  2  0
 19 22  1  0
 22 23  2  0
 23 24  1  0
 24 25  2  0
 25 26  1  0
 26 27  2  0
 27 28  1  0
 18 29  1  0
 29 30  1  0
 14 31  2  0
 31 32  1  0
  5 33  1  0
 33 34  2  0
 34  2  1  0
 32  7  1  0
 32 10  2  0
 30 15  1  0
 27 22  1  0
  1 35  1  0
  1 36  1  0
  1 37  1  0
  3 38  1  0
  4 39  1  0
  6 40  1  0
  6 41  1  0
 13 42  1  0
 15 43  1  0
 16 44  1  0
 16 45  1  0
 17 46  1  0
 17 47  1  0
 23 48  1  0
 24 49  1  0
 25 50  1  0
 26 51  1  0
 29 52  1  0
 29 53  1  0
 30 54  1  0
 30 55  1  0
 33 56  1  0
 34 57  1  0
M  END
$$$$
