
     RDKit          3D

 49 52  0  0  0  0  0  0  0  0999 V2000
    5.7323    1.4773    0.4625 C   0  0  0  0  0  0  0  0  0  0  0  0
    5.3755    0.1213    0.0535 N   0  0  0  0  0  0  0  0  0  0  0  0
    4.9693   -0.7090    1.2032 C   0  0  0  0  0  0  0  0  0  0  0  0
    3.5727   -0.3812    1.7820 C   0  0  0  0  0  0  0  0  0  0  0  0
    2.5044   -0.4119    0.7605 N   0  0  0  0  0  0  0  0  0  0  0  0
    1.2152   -0.0347    1.3582 C   0  0  0  0  0  0  0  0  0  0  0  0
    0.0243   -0.2668    0.4205 C   0  0  0  0  0  0  0  0  0  0  0  0
   -1.2973   -0.0172    1.1628 C   0  0  0  0  0  0  0  0  0  0  0  0
   -2.4678   -0.1344    0.2619 N   0  0  0  0  0  0  0  0  0  0  0  0
   -3.1035   -1.4086    0.1848 C   0  0  0  0  0  0  0  0  0  0  0  0
   -2.4715   -2.5948    0.6239 C   0  0  0  0  0  0  0  0  0  0  0  0
   -3.0823   -3.8524    0.5404 C   0  0  0  0  0  0  0  0  0  0  0  0
   -4.3544   -3.9699    0.0080 C   0  0  0  0  0  0  0  0  0  0  0  0
   -5.0064   -2.8281   -0.4410 C   0  0  0  0  0  0  0  0  0  0  0  0
   -4.3943   -1.5608   -0.3616 C   0  0  0  0  0  0  0  0  0  0  0  0
   -5.3765   -0.2042   -0.9543 S   0  0  0  0  0  0  0  0  0  0  0  0
   -4.2085    1.1336   -0.9625 C   0  0  0  0  0  0  0  0  0  0  0  0
   -4.6523    2.3160   -1.5892 C   0  0  0  0  0  0  0  0  0  0  0  0
   -3.8436    3.4453   -1.6447 C   0  0  0  0  0  0  0  0  0  0  0  0
   -2.5854    3.3930   -1.0714 C   0  0  0  0  0  0  0  0  0  0  0  0
   -1.5600    4.7747   -1.1341 Cl  0  0  0  0  0  0  0  0  0  0  0  0
   -2.1373    2.2255   -0.4447 C   0  0  0  0  0  0  0  0  0  0  0  0
   -2.9330    1.0599   -0.3637 C   0  0  0  0  0  0  0  0  0  0  0  0
    2.8803    0.4478   -0.3804 C   0  0  0  0  0  0  0  0  0  0  0  0
    4.2864    0.1203   -0.9421 C   0  0  0  0  0  0  0  0  0  0  0  0
    6.5689    1.4534    1.1697 H   0  0  0  0  0  0  0  0  0  0  0  0
    4.9074    2.0229    0.9315 H   0  0  0  0  0  0  0  0  0  0  0  0
    6.0742    2.0573   -0.4020 H   0  0  0  0  0  0  0  0  0  0  0  0
    4.9744   -1.7588    0.8802 H   0  0  0  0  0  0  0  0  0  0  0  0
    5.7210   -0.6442    1.9997 H   0  0  0  0  0  0  0  0  0  0  0  0
    3.3497   -1.1229    2.5589 H   0  0  0  0  0  0  0  0  0  0  0  0
    3.6038    0.5997    2.2737 H   0  0  0  0  0  0  0  0  0  0  0  0
    1.0543   -0.6470    2.2552 H   0  0  0  0  0  0  0  0  0  0  0  0
    1.2314    1.0129    1.6865 H   0  0  0  0  0  0  0  0  0  0  0  0
    0.0923    0.3924   -0.4506 H   0  0  0  0  0  0  0  0  0  0  0  0
    0.0567   -1.2897    0.0294 H   0  0  0  0  0  0  0  0  0  0  0  0
   -1.2796    0.9657    1.6518 H   0  0  0  0  0  0  0  0  0  0  0  0
   -1.3874   -0.6988    2.0188 H   0  0  0  0  0  0  0  0  0  0  0  0
   -1.4665   -2.5874    1.0325 H   0  0  0  0  0  0  0  0  0  0  0  0
   -2.5528   -4.7358    0.8884 H   0  0  0  0  0  0  0  0  0  0  0  0
   -4.8365   -4.9408   -0.0618 H   0  0  0  0  0  0  0  0  0  0  0  0
   -6.0066   -2.9285   -0.8584 H   0  0  0  0  0  0  0  0  0  0  0  0
   -5.6423    2.3594   -2.0402 H   0  0  0  0  0  0  0  0  0  0  0  0
   -4.1998    4.3476   -2.1329 H   0  0  0  0  0  0  0  0  0  0  0  0
   -1.1333    2.2526   -0.0365 H   0  0  0  0  0  0  0  0  0  0  0  0
    2.8410    1.5059   -0.0916 H   0  0  0  0  0  0  0  0  0  0  0  0
    2.1683    0.3091   -1.2012 H   0  0  0  0  0  0  0  0  0  0  0  0
    4.2520   -0.8768   -1.4014 H   0  0  0  0  0  0  0  0  0  0  0  0
    4.5234    0.8110   -1.7610 H   0  0  0  0  0  0  0  0  0  0  0  0
  1  2  1  0
  2  3  1  0
  3  4  1  0
  4  5  1  0
  5  6  1  0
  6  7  1  0
  7  8  1  0
  8  9  1  0
  9 10  1  0
 10 11  2  0
 11 12  1  0
 12 13  2  0
 13 14  1  0
 14 15  2  0
 15 16  1  0
 16 17  1  0
 17 18  2  0
 18 19  1  0
 19 20  2  0
 20 21  1  0
 20 22  1  0
 22 23  2  0
  5 24  1  0
 24 25  1  0
 25  2  1  0
 23  9  1  0
 15 10  1  0
 23 17  1  0
  1 26  1  0
  1 27  1  0
  1 28  1  0
  3 29  1  0
  3 30  1  0
  4 31  1  0
  4 32  1  0
  6 33  1  0
  6 34  1  0
  7 35  1  0
  7 36  1  0
  8 37  1  0
  8 38  1  0
 11 39  1  0
 12 40  1  0
 13 41  1  0
 14 42  1  0
 18 43  1  0
 19 44  1  0
 22 45  1  0
 24 46  1  0
 24 47  1  0
 25 48  1  0
 25 49  1  0
M  END
$$$$
