
     RDKit          3D

 84 89  0  0  0  0  0  0  0  0999 V2000
    9.7245    1.1680   -4.4390 C   0  0  0  0  0  0  0  0  0  0  0  0
    8.9231    0.3146   -3.6206 O   0  0  0  0  0  0  0  0  0  0  0  0
    9.2164    0.3881   -2.2910 C   0  0  0  0  0  0  0  0  0  0  0  0
   10.0871    1.0943   -1.8022 O   0  0  0  0  0  0  0  0  0  0  0  0
    8.3370   -0.5701   -1.5198 C   0  0  0  0  0  0  0  0  0  0  0  0
    8.1148   -0.1325   -0.0725 C   0  0  0  0  0  0  0  0  0  0  0  0
    7.2849    1.1466    0.0886 C   0  0  0  0  0  0  0  0  0  0  0  0
    5.8571    1.0904   -0.4676 C   0  0  0  0  0  0  0  0  0  0  0  0
    4.9758   -0.0488    0.0598 C   0  0  0  0  0  0  0  0  0  0  0  0
    4.7792   -0.0083    1.5781 C   0  0  0  0  0  0  0  0  0  0  0  0
    3.9090   -1.1548    2.1092 C   0  0  0  0  0  0  0  0  0  0  0  0
    2.4261   -1.0686    1.7379 C   0  0  0  0  0  0  0  0  0  0  0  0
    1.6641    0.0151    2.4917 C   0  0  0  0  0  0  0  0  0  0  0  0
    2.2236    0.7454    3.3109 O   0  0  0  0  0  0  0  0  0  0  0  0
    0.3007    0.1202    2.2267 N   0  0  0  0  0  0  0  0  0  0  0  0
   -0.4153    1.2722    2.8157 C   0  0  0  0  0  0  0  0  0  0  0  0
   -1.9500    1.0840    2.9404 C   0  0  0  0  0  0  0  0  0  0  0  0
   -2.4699    0.5826    1.6800 N   0  0  0  0  0  0  0  0  0  0  0  0
   -1.8478   -0.7395    1.3580 C   0  0  2  0  0  0  0  0  0  0  0  0
   -0.3630   -0.5383    1.0752 C   0  0  0  0  0  0  0  0  0  0  0  0
   -2.7357   -1.1834    0.2682 C   0  0  0  0  0  0  0  0  0  0  0  0
   -3.9597   -0.4989    0.3327 C   0  0  0  0  0  0  0  0  0  0  0  0
   -4.7903   -1.0051   -0.6309 C   0  0  0  0  0  0  0  0  0  0  0  0
   -6.0796   -0.7353   -0.8306 O   0  0  0  0  0  0  0  0  0  0  0  0
   -4.0446   -1.9567   -1.3574 N   0  0  0  0  0  0  0  0  0  0  0  0
   -4.5162   -2.7063   -2.4744 C   0  0  0  0  0  0  0  0  0  0  0  0
   -4.1704   -4.0574   -2.6104 C   0  0  0  0  0  0  0  0  0  0  0  0
   -4.6318   -4.7862   -3.7076 C   0  0  0  0  0  0  0  0  0  0  0  0
   -5.4346   -4.1723   -4.6681 C   0  0  0  0  0  0  0  0  0  0  0  0
   -5.7811   -2.8282   -4.5347 C   0  0  0  0  0  0  0  0  0  0  0  0
   -5.3264   -2.0928   -3.4390 C   0  0  0  0  0  0  0  0  0  0  0  0
   -2.7570   -2.0453   -0.7898 C   0  0  0  0  0  0  0  0  0  0  0  0
   -1.7585   -2.7896   -1.2615 O   0  0  0  0  0  0  0  0  0  0  0  0
   -3.9325    0.4788    1.4521 C   0  0  1  0  0  0  0  0  0  0  0  0
   -4.7677    0.0339    2.6768 C   0  0  0  0  0  0  0  0  0  0  0  0
   -4.6073   -0.9383    3.4005 O   0  0  0  0  0  0  0  0  0  0  0  0
   -5.7730    0.9904    2.8403 N   0  0  0  0  0  0  0  0  0  0  0  0
   -5.6889    2.0018    1.8829 C   0  0  0  0  0  0  0  0  0  0  0  0
   -4.6010    1.7543    1.0311 C   0  0  0  0  0  0  0  0  0  0  0  0
   -4.2801    2.6381    0.0143 C   0  0  0  0  0  0  0  0  0  0  0  0
   -5.0818    3.7676   -0.1481 C   0  0  0  0  0  0  0  0  0  0  0  0
   -6.1815    4.0002    0.7020 C   0  0  0  0  0  0  0  0  0  0  0  0
   -7.1141    5.4302    0.4135 Cl  0  0  0  0  0  0  0  0  0  0  0  0
   -6.5094    3.1155    1.7479 C   0  0  0  0  0  0  0  0  0  0  0  0
   -7.6789    3.3686    2.6508 C   0  0  0  0  0  0  0  0  0  0  0  0
    9.6202    2.2115   -4.1277 H   0  0  0  0  0  0  0  0  0  0  0  0
    9.3722    1.0783   -5.4704 H   0  0  0  0  0  0  0  0  0  0  0  0
   10.7720    0.8549   -4.4011 H   0  0  0  0  0  0  0  0  0  0  0  0
    7.3769   -0.6852   -2.0341 H   0  0  0  0  0  0  0  0  0  0  0  0
    8.8365   -1.5457   -1.5324 H   0  0  0  0  0  0  0  0  0  0  0  0
    7.6349   -0.9524    0.4744 H   0  0  0  0  0  0  0  0  0  0  0  0
    9.0863    0.0258    0.4132 H   0  0  0  0  0  0  0  0  0  0  0  0
    7.2467    1.4010    1.1544 H   0  0  0  0  0  0  0  0  0  0  0  0
    7.8077    1.9822   -0.3927 H   0  0  0  0  0  0  0  0  0  0  0  0
    5.3662    2.0468   -0.2458 H   0  0  0  0  0  0  0  0  0  0  0  0
    5.8975    1.0226   -1.5614 H   0  0  0  0  0  0  0  0  0  0  0  0
    4.0036    0.0289   -0.4389 H   0  0  0  0  0  0  0  0  0  0  0  0
    5.3970   -1.0158   -0.2362 H   0  0  0  0  0  0  0  0  0  0  0  0
    4.3590    0.9594    1.8698 H   0  0  0  0  0  0  0  0  0  0  0  0
    5.7545   -0.0876    2.0709 H   0  0  0  0  0  0  0  0  0  0  0  0
    4.0060   -1.1871    3.2016 H   0  0  0  0  0  0  0  0  0  0  0  0
    4.3107   -2.1053    1.7358 H   0  0  0  0  0  0  0  0  0  0  0  0
    2.3119   -0.9110    0.6617 H   0  0  0  0  0  0  0  0  0  0  0  0
    1.9634   -2.0288    1.9975 H   0  0  0  0  0  0  0  0  0  0  0  0
   -0.0019    1.5026    3.8041 H   0  0  0  0  0  0  0  0  0  0  0  0
   -0.2032    2.1317    2.1661 H   0  0  0  0  0  0  0  0  0  0  0  0
   -2.1635    0.3908    3.7629 H   0  0  0  0  0  0  0  0  0  0  0  0
   -2.4015    2.0499    3.1927 H   0  0  0  0  0  0  0  0  0  0  0  0
   -1.9696   -1.4281    2.2070 H   0  0  0  0  0  0  0  0  0  0  0  0
    0.1026   -1.5040    0.8624 H   0  0  0  0  0  0  0  0  0  0  0  0
   -0.2001    0.1014    0.1987 H   0  0  0  0  0  0  0  0  0  0  0  0
   -6.4928   -1.4800   -1.3039 H   0  0  0  0  0  0  0  0  0  0  0  0
   -3.5845   -4.5728   -1.8513 H   0  0  0  0  0  0  0  0  0  0  0  0
   -4.3758   -5.8386   -3.8080 H   0  0  0  0  0  0  0  0  0  0  0  0
   -5.7918   -4.7430   -5.5220 H   0  0  0  0  0  0  0  0  0  0  0  0
   -6.3992   -2.3502   -5.2913 H   0  0  0  0  0  0  0  0  0  0  0  0
   -5.5764   -1.0347   -3.3810 H   0  0  0  0  0  0  0  0  0  0  0  0
   -1.9438   -3.0153   -2.1915 H   0  0  0  0  0  0  0  0  0  0  0  0
   -6.4584    0.9219    3.5764 H   0  0  0  0  0  0  0  0  0  0  0  0
   -3.4308    2.4547   -0.6364 H   0  0  0  0  0  0  0  0  0  0  0  0
   -4.8507    4.4723   -0.9434 H   0  0  0  0  0  0  0  0  0  0  0  0
   -7.7876    2.6004    3.4214 H   0  0  0  0  0  0  0  0  0  0  0  0
   -8.6084    3.3789    2.0727 H   0  0  0  0  0  0  0  0  0  0  0  0
   -7.5611    4.3257    3.1686 H   0  0  0  0  0  0  0  0  0  0  0  0
  1  2  1  0
  2  3  1  0
  3  4  2  0
  3  5  1  0
  5  6  1  0
  6  7  1  0
  7  8  1  0
  8  9  1  0
  9 10  1  0
 10 11  1  0
 11 12  1  0
 12 13  1  0
 13 14  2  0
 13 15  1  0
 15 16  1  0
 16 17  1  0
 17 18  1  0
 18 19  1  0
 19 20  1  0
 19 21  1  0
 21 22  1  0
 22 23  2  0
 23 24  1  0
 23 25  1  0
 25 26  1  0
 26 27  2  0
 27 28  1  0
 28 29  2  0
 29 30  1  0
 30 31  2  0
 25 32  1  0
 32 33  1  0
 22 34  1  0
 34 35  1  0
 35 36  2  0
 35 37  1  0
 37 38  1  0
 38 39  2  0
 39 40  1  0
 40 41  2  0
 41 42  1  0
 42 43  1  0
 42 44  2  0
 44 45  1  0
 20 15  1  0
 32 21  2  0
 39 34  1  0
 34 18  1  1
 44 38  1  0
 31 26  1  0
  1 46  1  0
  1 47  1  0
  1 48  1  0
  5 49  1  0
  5 50  1  0
  6 51  1  0
  6 52  1  0
  7 53  1  0
  7 54  1  0
  8 55  1  0
  8 56  1  0
  9 57  1  0
  9 58  1  0
 10 59  1  0
 10 60  1  0
 11 61  1  0
 11 62  1  0
 12 63  1  0
 12 64  1  0
 16 65  1  0
 16 66  1  0
 17 67  1  0
 17 68  1  0
 19 69  1  1
 20 70  1  0
 20 71  1  0
 24 72  1  0
 27 73  1  0
 28 74  1  0
 29 75  1  0
 30 76  1  0
 31 77  1  0
 33 78  1  0
 37 79  1  0
 40 80  1  0
 41 81  1  0
 45 82  1  0
 45 83  1  0
 45 84  1  0
M  END
$$$$
