
     RDKit          3D

 59 64  0  0  0  0  0  0  0  0999 V2000
    3.3502    0.6508    2.8302 O   0  0  0  0  0  0  0  0  0  0  0  0
    3.2420    0.5328    1.6115 C   0  0  0  0  0  0  0  0  0  0  0  0
    4.4580    0.3723    0.7653 C   0  0  0  0  0  0  0  0  0  0  0  0
    5.6268    0.0602    1.3500 C   0  0  0  0  0  0  0  0  0  0  0  0
    6.8333   -0.1095    0.6069 C   0  0  0  0  0  0  0  0  0  0  0  0
    7.1224    0.0949   -0.7345 C   0  0  0  0  0  0  0  0  0  0  0  0
    8.4762   -0.2033   -1.0709 C   0  0  0  0  0  0  0  0  0  0  0  0
    9.1954   -0.6290    0.0217 C   0  0  0  0  0  0  0  0  0  0  0  0
    8.2450   -0.6644    1.4376 S   0  0  0  0  0  0  0  0  0  0  0  0
    2.0124    0.5319    0.9628 N   0  0  0  0  0  0  0  0  0  0  0  0
    0.8007    0.6238    1.7689 C   0  0  0  0  0  0  0  0  0  0  0  0
   -0.1645   -0.5088    1.4297 C   0  0  0  0  0  0  0  0  0  0  0  0
   -0.5158   -0.5750   -0.0850 C   0  0  0  0  0  0  0  0  0  0  0  0
    0.3643    0.4084   -0.9029 C   0  0  0  0  0  0  0  0  0  0  0  0
    1.8289    0.3397   -0.4757 C   0  0  0  0  0  0  0  0  0  0  0  0
   -0.0915   -1.8754   -0.5846 O   0  0  0  0  0  0  0  0  0  0  0  0
   -0.9253   -2.9350   -0.3895 C   0  0  0  0  0  0  0  0  0  0  0  0
   -0.3717   -4.1979   -0.6120 C   0  0  0  0  0  0  0  0  0  0  0  0
   -1.1439   -5.3441   -0.4156 C   0  0  0  0  0  0  0  0  0  0  0  0
   -2.4665   -5.2186   -0.0025 C   0  0  0  0  0  0  0  0  0  0  0  0
   -3.2034   -6.3200    0.1891 F   0  0  0  0  0  0  0  0  0  0  0  0
   -3.0343   -3.9696    0.2111 C   0  0  0  0  0  0  0  0  0  0  0  0
   -2.2553   -2.8276    0.0047 C   0  0  0  0  0  0  0  0  0  0  0  0
   -2.8291   -1.4908    0.2020 C   0  0  0  0  0  0  0  0  0  0  0  0
   -3.8950   -1.3710    0.8008 O   0  0  0  0  0  0  0  0  0  0  0  0
   -2.0263   -0.3239   -0.3614 C   0  0  0  0  0  0  0  0  0  0  0  0
   -2.5616    1.0058    0.1539 C   0  0  0  0  0  0  0  0  0  0  0  0
   -3.3958    1.3971   -1.0173 C   0  0  0  0  0  0  0  0  0  0  0  0
   -4.3423    2.5372   -0.9626 C   0  0  0  0  0  0  0  0  0  0  0  0
   -5.1152    2.8298   -2.0940 C   0  0  0  0  0  0  0  0  0  0  0  0
   -6.0125    3.8992   -2.0768 C   0  0  0  0  0  0  0  0  0  0  0  0
   -6.1425    4.6811   -0.9306 C   0  0  0  0  0  0  0  0  0  0  0  0
   -5.3753    4.3965    0.1984 C   0  0  0  0  0  0  0  0  0  0  0  0
   -4.4749    3.3277    0.1852 C   0  0  0  0  0  0  0  0  0  0  0  0
   -3.2013    0.6915   -2.0851 N   0  0  0  0  0  0  0  0  0  0  0  0
   -2.2518   -0.3056   -1.7807 O   0  0  0  0  0  0  0  0  0  0  0  0
    4.3761    0.5205   -0.2995 H   0  0  0  0  0  0  0  0  0  0  0  0
    5.6646   -0.0827    2.4299 H   0  0  0  0  0  0  0  0  0  0  0  0
    6.3998    0.4495   -1.4595 H   0  0  0  0  0  0  0  0  0  0  0  0
    8.8985   -0.1083   -2.0637 H   0  0  0  0  0  0  0  0  0  0  0  0
   10.2371   -0.9205    0.0592 H   0  0  0  0  0  0  0  0  0  0  0  0
    1.0289    0.5944    2.8390 H   0  0  0  0  0  0  0  0  0  0  0  0
    0.3441    1.6003    1.5719 H   0  0  0  0  0  0  0  0  0  0  0  0
    0.2919   -1.4541    1.7514 H   0  0  0  0  0  0  0  0  0  0  0  0
   -1.0658   -0.3845    2.0402 H   0  0  0  0  0  0  0  0  0  0  0  0
    0.3125    0.1704   -1.9724 H   0  0  0  0  0  0  0  0  0  0  0  0
    0.0186    1.4409   -0.7920 H   0  0  0  0  0  0  0  0  0  0  0  0
    2.3911    1.1192   -1.0025 H   0  0  0  0  0  0  0  0  0  0  0  0
    2.2658   -0.6294   -0.7455 H   0  0  0  0  0  0  0  0  0  0  0  0
    0.6644   -4.2910   -0.9301 H   0  0  0  0  0  0  0  0  0  0  0  0
   -0.7233   -6.3318   -0.5795 H   0  0  0  0  0  0  0  0  0  0  0  0
   -4.0722   -3.8958    0.5240 H   0  0  0  0  0  0  0  0  0  0  0  0
   -1.7909    1.7673    0.2939 H   0  0  0  0  0  0  0  0  0  0  0  0
   -3.1450    0.9262    1.0740 H   0  0  0  0  0  0  0  0  0  0  0  0
   -5.0263    2.2261   -2.9953 H   0  0  0  0  0  0  0  0  0  0  0  0
   -6.6104    4.1186   -2.9581 H   0  0  0  0  0  0  0  0  0  0  0  0
   -6.8441    5.5114   -0.9169 H   0  0  0  0  0  0  0  0  0  0  0  0
   -5.4812    5.0076    1.0919 H   0  0  0  0  0  0  0  0  0  0  0  0
   -3.8938    3.1348    1.0816 H   0  0  0  0  0  0  0  0  0  0  0  0
  1  2  2  0
  2  3  1  0
  3  4  2  3
  4  5  1  0
  5  6  2  0
  6  7  1  0
  7  8  2  0
  8  9  1  0
  2 10  1  0
 10 11  1  0
 11 12  1  0
 12 13  1  0
 13 14  1  0
 14 15  1  0
 13 16  1  0
 16 17  1  0
 17 18  2  0
 18 19  1  0
 19 20  2  0
 20 21  1  0
 20 22  1  0
 22 23  2  0
 23 24  1  0
 24 25  2  0
 24 26  1  0
 26 27  1  0
 27 28  1  0
 28 29  1  0
 29 30  2  0
 30 31  1  0
 31 32  2  0
 32 33  1  0
 33 34  2  0
 28 35  2  0
 35 36  1  0
  9  5  1  0
 15 10  1  0
 23 17  1  0
 36 26  1  0
 26 13  1  0
 34 29  1  0
  3 37  1  0
  4 38  1  0
  6 39  1  0
  7 40  1  0
  8 41  1  0
 11 42  1  0
 11 43  1  0
 12 44  1  0
 12 45  1  0
 14 46  1  0
 14 47  1  0
 15 48  1  0
 15 49  1  0
 18 50  1  0
 19 51  1  0
 22 52  1  0
 27 53  1  0
 27 54  1  0
 30 55  1  0
 31 56  1  0
 32 57  1  0
 33 58  1  0
 34 59  1  0
M  END
$$$$
