
     RDKit          3D

 29 30  0  0  0  0  0  0  0  0999 V2000
   -0.0494    4.2463   -0.3445 C   0  0  0  0  0  0  0  0  0  0  0  0
    0.4029    3.2909    0.4790 C   0  0  0  0  0  0  0  0  0  0  0  0
    1.3257    2.1787    0.0581 C   0  0  0  0  0  0  0  0  0  0  0  0
    0.5725    0.9271   -0.0138 N   0  0  0  0  0  0  0  0  0  0  0  0
    0.3741    0.0771    1.0614 C   0  0  0  0  0  0  0  0  0  0  0  0
    1.0533    0.5106    2.6221 S   0  0  0  0  0  0  0  0  0  0  0  0
    1.4638   -1.1486    3.2481 C   0  0  0  0  0  0  0  0  0  0  0  0
    2.4857   -1.8311    2.4424 C   0  0  0  0  0  0  0  0  0  0  0  0
    3.3030   -2.3606    1.8097 N   0  0  0  0  0  0  0  0  0  0  0  0
   -0.2987   -1.0253    1.0113 N   0  0  0  0  0  0  0  0  0  0  0  0
   -0.8652   -1.4067   -0.2076 C   0  0  0  0  0  0  0  0  0  0  0  0
   -1.5916   -2.5984   -0.2717 C   0  0  0  0  0  0  0  0  0  0  0  0
   -2.1725   -3.0142   -1.4730 C   0  0  0  0  0  0  0  0  0  0  0  0
   -2.0306   -2.2383   -2.6226 C   0  0  0  0  0  0  0  0  0  0  0  0
   -1.3075   -1.0475   -2.5697 C   0  0  0  0  0  0  0  0  0  0  0  0
   -0.7298   -0.6411   -1.3605 C   0  0  0  0  0  0  0  0  0  0  0  0
    0.0430    0.6086   -1.2655 C   0  0  0  0  0  0  0  0  0  0  0  0
    0.1862    1.2923   -2.2773 O   0  0  0  0  0  0  0  0  0  0  0  0
    0.2123    4.2573   -1.3995 H   0  0  0  0  0  0  0  0  0  0  0  0
   -0.7079    5.0302    0.0166 H   0  0  0  0  0  0  0  0  0  0  0  0
    0.1084    3.3219    1.5252 H   0  0  0  0  0  0  0  0  0  0  0  0
    1.7790    2.4015   -0.9153 H   0  0  0  0  0  0  0  0  0  0  0  0
    2.1589    2.1004    0.7624 H   0  0  0  0  0  0  0  0  0  0  0  0
    1.8408   -1.0203    4.2683 H   0  0  0  0  0  0  0  0  0  0  0  0
    0.5570   -1.7565    3.3286 H   0  0  0  0  0  0  0  0  0  0  0  0
   -1.7045   -3.2079    0.6212 H   0  0  0  0  0  0  0  0  0  0  0  0
   -2.7343   -3.9446   -1.5099 H   0  0  0  0  0  0  0  0  0  0  0  0
   -2.4808   -2.5609   -3.5584 H   0  0  0  0  0  0  0  0  0  0  0  0
   -1.1937   -0.4406   -3.4652 H   0  0  0  0  0  0  0  0  0  0  0  0
  1  2  2  0
  2  3  1  0
  3  4  1  0
  4  5  1  0
  5  6  1  0
  6  7  1  0
  7  8  1  0
  8  9  3  0
  5 10  2  0
 10 11  1  0
 11 12  2  0
 12 13  1  0
 13 14  2  0
 14 15  1  0
 15 16  2  0
 16 17  1  0
 17 18  2  0
 17  4  1  0
 16 11  1  0
  1 19  1  0
  1 20  1  0
  2 21  1  0
  3 22  1  0
  3 23  1  0
  7 24  1  0
  7 25  1  0
 12 26  1  0
 13 27  1  0
 14 28  1  0
 15 29  1  0
M  END
$$$$
