
     RDKit          3D

 47 50  0  0  0  0  0  0  0  0999 V2000
   -8.2190   -1.7664    2.2920 C   0  0  0  0  0  0  0  0  0  0  0  0
   -7.0793   -1.3354    1.5413 O   0  0  0  0  0  0  0  0  0  0  0  0
   -7.3191   -1.1888    0.2161 C   0  0  0  0  0  0  0  0  0  0  0  0
   -8.3785   -1.4125   -0.3477 O   0  0  0  0  0  0  0  0  0  0  0  0
   -6.1066   -0.6898   -0.4877 C   0  0  0  0  0  0  0  0  0  0  0  0
   -6.2178   -0.3967   -1.8490 C   0  0  0  0  0  0  0  0  0  0  0  0
   -5.1125    0.0634   -2.5566 C   0  0  0  0  0  0  0  0  0  0  0  0
   -3.8849    0.2463   -1.9118 C   0  0  0  0  0  0  0  0  0  0  0  0
   -3.7551   -0.0234   -0.5449 C   0  0  0  0  0  0  0  0  0  0  0  0
   -2.5293    0.1456    0.1606 N   0  0  0  0  0  0  0  0  0  0  0  0
   -2.3840   -0.3941    1.4058 N   0  0  0  0  0  0  0  0  0  0  0  0
   -1.1330   -0.1704    1.7743 N   0  0  0  0  0  0  0  0  0  0  0  0
   -0.4724    0.5684    0.8420 N   0  0  0  0  0  0  0  0  0  0  0  0
   -1.3322    0.7926   -0.1295 C   0  0  0  0  0  0  0  0  0  0  0  0
   -1.0125    1.8637   -1.4543 S   0  0  0  0  0  0  0  0  0  0  0  0
    0.2761    2.9331   -0.7520 C   0  0  0  0  0  0  0  0  0  0  0  0
    1.6584    2.3674   -1.0166 C   0  0  0  0  0  0  0  0  0  0  0  0
    2.2885    2.7158   -2.0128 O   0  0  0  0  0  0  0  0  0  0  0  0
    2.0662    1.4725   -0.0539 N   0  0  0  0  0  0  0  0  0  0  0  0
    3.3126    0.9185   -0.0411 C   0  0  0  0  0  0  0  0  0  0  0  0
    4.3550    1.1978   -0.7822 N   0  0  0  0  0  0  0  0  0  0  0  0
    5.4049    0.3938   -0.3970 C   0  0  0  0  0  0  0  0  0  0  0  0
    5.1314   -0.4847    0.6316 C   0  0  0  0  0  0  0  0  0  0  0  0
    3.5225   -0.2941    1.1492 S   0  0  0  0  0  0  0  0  0  0  0  0
    6.1068   -1.4350    1.2366 C   0  0  0  0  0  0  0  0  0  0  0  0
    7.3349   -1.5884    0.3202 C   0  0  0  0  0  0  0  0  0  0  0  0
    7.8180   -0.2366   -0.2409 C   0  0  0  0  0  0  0  0  0  0  0  0
    6.7302    0.4607   -1.0783 C   0  0  0  0  0  0  0  0  0  0  0  0
   -4.8740   -0.5093    0.1586 C   0  0  0  0  0  0  0  0  0  0  0  0
   -8.5235   -2.7753    1.9871 H   0  0  0  0  0  0  0  0  0  0  0  0
   -7.9363   -1.7888    3.3481 H   0  0  0  0  0  0  0  0  0  0  0  0
   -9.0460   -1.0554    2.1703 H   0  0  0  0  0  0  0  0  0  0  0  0
   -7.1669   -0.5324   -2.3662 H   0  0  0  0  0  0  0  0  0  0  0  0
   -5.2041    0.2693   -3.6203 H   0  0  0  0  0  0  0  0  0  0  0  0
   -3.0580    0.5618   -2.5329 H   0  0  0  0  0  0  0  0  0  0  0  0
    0.2183    3.9169   -1.2317 H   0  0  0  0  0  0  0  0  0  0  0  0
    0.1240    3.1020    0.3168 H   0  0  0  0  0  0  0  0  0  0  0  0
    1.4050    1.1137    0.6292 H   0  0  0  0  0  0  0  0  0  0  0  0
    5.6512   -2.4172    1.4072 H   0  0  0  0  0  0  0  0  0  0  0  0
    6.4278   -1.0447    2.2083 H   0  0  0  0  0  0  0  0  0  0  0  0
    7.0848   -2.2500   -0.5181 H   0  0  0  0  0  0  0  0  0  0  0  0
    8.1444   -2.0732    0.8769 H   0  0  0  0  0  0  0  0  0  0  0  0
    8.1049    0.4147    0.5972 H   0  0  0  0  0  0  0  0  0  0  0  0
    8.7153   -0.3837   -0.8524 H   0  0  0  0  0  0  0  0  0  0  0  0
    7.0166    1.5022   -1.2599 H   0  0  0  0  0  0  0  0  0  0  0  0
    6.6447   -0.0326   -2.0557 H   0  0  0  0  0  0  0  0  0  0  0  0
   -4.7976   -0.7417    1.2199 H   0  0  0  0  0  0  0  0  0  0  0  0
  1  2  1  0
  2  3  1  0
  3  4  2  0
  3  5  1  0
  5  6  2  0
  6  7  1  0
  7  8  2  0
  8  9  1  0
  9 10  1  0
 10 11  1  0
 11 12  2  0
 12 13  1  0
 13 14  2  0
 14 15  1  0
 15 16  1  0
 16 17  1  0
 17 18  2  0
 17 19  1  0
 19 20  1  0
 20 21  2  0
 21 22  1  0
 22 23  2  0
 23 24  1  0
 23 25  1  0
 25 26  1  0
 26 27  1  0
 27 28  1  0
  9 29  2  0
 29  5  1  0
 14 10  1  0
 24 20  1  0
 28 22  1  0
  1 30  1  0
  1 31  1  0
  1 32  1  0
  6 33  1  0
  7 34  1  0
  8 35  1  0
 16 36  1  0
 16 37  1  0
 19 38  1  0
 25 39  1  0
 25 40  1  0
 26 41  1  0
 26 42  1  0
 27 43  1  0
 27 44  1  0
 28 45  1  0
 28 46  1  0
 29 47  1  0
M  END
$$$$
