
     RDKit          3D

 37 39  0  0  0  0  0  0  0  0999 V2000
    0.1095    3.3964    3.4721 C   0  0  0  0  0  0  0  0  0  0  0  0
    1.4867    3.1758    2.3143 S   0  0  0  0  0  0  0  0  0  0  0  0
    0.8374    1.8703    1.2796 C   0  0  0  0  0  0  0  0  0  0  0  0
    1.6618    1.3156    0.3236 C   0  0  0  0  0  0  0  0  0  0  0  0
    1.1398    0.3106   -0.4667 C   0  0  0  0  0  0  0  0  0  0  0  0
    1.9005   -0.2859   -1.4670 N   0  0  0  0  0  0  0  0  0  0  0  0
    3.3215   -0.5894   -1.2138 C   0  0  0  0  0  0  0  0  0  0  0  0
    3.6398   -2.0550   -1.5578 C   0  0  0  0  0  0  0  0  0  0  0  0
    3.3331   -2.4089   -2.9128 O   0  0  0  0  0  0  0  0  0  0  0  0
    2.1654   -1.7459   -3.4236 C   0  0  0  0  0  0  0  0  0  0  0  0
    1.2016   -1.2501   -2.3344 C   0  0  0  0  0  0  0  0  0  0  0  0
   -0.1385   -0.0733   -0.3139 N   0  0  0  0  0  0  0  0  0  0  0  0
   -0.8685    0.5082    0.6561 C   0  0  0  0  0  0  0  0  0  0  0  0
   -2.2688    0.0881    0.7778 C   0  0  0  0  0  0  0  0  0  0  0  0
   -3.0615   -0.0023   -0.3879 C   0  0  0  0  0  0  0  0  0  0  0  0
   -4.4058   -0.3799   -0.3351 C   0  0  0  0  0  0  0  0  0  0  0  0
   -4.9918   -0.6828    0.8881 C   0  0  0  0  0  0  0  0  0  0  0  0
   -4.2307   -0.6151    2.0536 C   0  0  0  0  0  0  0  0  0  0  0  0
   -2.8807   -0.2369    2.0024 C   0  0  0  0  0  0  0  0  0  0  0  0
   -2.0189   -0.2521    3.5059 Cl  0  0  0  0  0  0  0  0  0  0  0  0
   -0.4317    1.4848    1.4596 N   0  0  0  0  0  0  0  0  0  0  0  0
   -0.0847    2.4724    4.0234 H   0  0  0  0  0  0  0  0  0  0  0  0
    0.3746    4.1751    4.1925 H   0  0  0  0  0  0  0  0  0  0  0  0
   -0.7957    3.7118    2.9459 H   0  0  0  0  0  0  0  0  0  0  0  0
    2.6716    1.6779    0.1863 H   0  0  0  0  0  0  0  0  0  0  0  0
    3.9229    0.0726   -1.8475 H   0  0  0  0  0  0  0  0  0  0  0  0
    3.6097   -0.4168   -0.1707 H   0  0  0  0  0  0  0  0  0  0  0  0
    3.0838   -2.7324   -0.8987 H   0  0  0  0  0  0  0  0  0  0  0  0
    4.7050   -2.2529   -1.4006 H   0  0  0  0  0  0  0  0  0  0  0  0
    1.6543   -2.4482   -4.0898 H   0  0  0  0  0  0  0  0  0  0  0  0
    2.5100   -0.9044   -4.0360 H   0  0  0  0  0  0  0  0  0  0  0  0
    0.3387   -0.7760   -2.8171 H   0  0  0  0  0  0  0  0  0  0  0  0
    0.8506   -2.1051   -1.7425 H   0  0  0  0  0  0  0  0  0  0  0  0
   -2.6207    0.2338   -1.3564 H   0  0  0  0  0  0  0  0  0  0  0  0
   -4.9906   -0.4352   -1.2502 H   0  0  0  0  0  0  0  0  0  0  0  0
   -6.0369   -0.9779    0.9357 H   0  0  0  0  0  0  0  0  0  0  0  0
   -4.6925   -0.8669    3.0056 H   0  0  0  0  0  0  0  0  0  0  0  0
  1  2  1  0
  2  3  1  0
  3  4  2  0
  4  5  1  0
  5  6  1  0
  6  7  1  0
  7  8  1  0
  8  9  1  0
  9 10  1  0
 10 11  1  0
  5 12  2  0
 12 13  1  0
 13 14  1  0
 14 15  2  0
 15 16  1  0
 16 17  2  0
 17 18  1  0
 18 19  2  0
 19 20  1  0
 13 21  2  0
 21  3  1  0
 11  6  1  0
 19 14  1  0
  1 22  1  0
  1 23  1  0
  1 24  1  0
  4 25  1  0
  7 26  1  0
  7 27  1  0
  8 28  1  0
  8 29  1  0
 10 30  1  0
 10 31  1  0
 11 32  1  0
 11 33  1  0
 15 34  1  0
 16 35  1  0
 17 36  1  0
 18 37  1  0
M  END
$$$$
