
     RDKit          3D

 40 41  0  0  0  0  0  0  0  0999 V2000
   -1.7109   -3.6463   -4.5986 C   0  0  0  0  0  0  0  0  0  0  0  0
   -1.1180   -3.5098   -3.2064 C   0  0  0  0  0  0  0  0  0  0  0  0
   -0.9996   -2.1348   -2.8381 O   0  0  0  0  0  0  0  0  0  0  0  0
   -2.0986   -1.5896   -2.2074 C   0  0  0  0  0  0  0  0  0  0  0  0
   -3.2299   -2.3331   -2.1146 N   0  0  0  0  0  0  0  0  0  0  0  0
   -4.3141   -1.7474   -1.5591 C   0  0  0  0  0  0  0  0  0  0  0  0
   -4.3331   -0.4429   -1.0955 C   0  0  0  0  0  0  0  0  0  0  0  0
   -3.1658    0.3061   -1.1991 C   0  0  0  0  0  0  0  0  0  0  0  0
   -2.0210   -0.2777   -1.7519 C   0  0  0  0  0  0  0  0  0  0  0  0
   -0.8029    0.5397   -1.8533 C   0  0  0  0  0  0  0  0  0  0  0  0
   -0.8204    1.7152   -2.1832 O   0  0  0  0  0  0  0  0  0  0  0  0
    0.2687   -0.1701   -1.4328 O   0  0  0  0  0  0  0  0  0  0  0  0
    1.5109    0.5400   -1.4101 C   0  0  0  0  0  0  0  0  0  0  0  0
    1.7665    1.0545   -0.0162 C   0  0  0  0  0  0  0  0  0  0  0  0
    1.4687    2.3826    0.3157 C   0  0  0  0  0  0  0  0  0  0  0  0
    1.6838    2.8536    1.6135 C   0  0  0  0  0  0  0  0  0  0  0  0
    2.1931    2.0008    2.6012 C   0  0  0  0  0  0  0  0  0  0  0  0
    2.4011    2.5532    3.9677 C   0  0  0  0  0  0  0  0  0  0  0  0
    2.1442    3.7063    4.2765 O   0  0  0  0  0  0  0  0  0  0  0  0
    2.9078    1.6057    4.7965 O   0  0  0  0  0  0  0  0  0  0  0  0
    3.1364    2.0646    6.1295 C   0  0  0  0  0  0  0  0  0  0  0  0
    2.4803    0.6688    2.2760 C   0  0  0  0  0  0  0  0  0  0  0  0
    2.2638    0.1994    0.9768 C   0  0  0  0  0  0  0  0  0  0  0  0
   -1.7226   -4.6940   -4.9122 H   0  0  0  0  0  0  0  0  0  0  0  0
   -1.1267   -3.0684   -5.3224 H   0  0  0  0  0  0  0  0  0  0  0  0
   -2.7343   -3.2610   -4.6367 H   0  0  0  0  0  0  0  0  0  0  0  0
   -0.0985   -3.9118   -3.2248 H   0  0  0  0  0  0  0  0  0  0  0  0
   -1.6617   -4.1054   -2.4633 H   0  0  0  0  0  0  0  0  0  0  0  0
   -5.1997   -2.3746   -1.5007 H   0  0  0  0  0  0  0  0  0  0  0  0
   -5.2346   -0.0190   -0.6664 H   0  0  0  0  0  0  0  0  0  0  0  0
   -3.1443    1.3363   -0.8508 H   0  0  0  0  0  0  0  0  0  0  0  0
    2.3002   -0.1667   -1.6917 H   0  0  0  0  0  0  0  0  0  0  0  0
    1.5495    1.3461   -2.1534 H   0  0  0  0  0  0  0  0  0  0  0  0
    1.0587    3.0572   -0.4350 H   0  0  0  0  0  0  0  0  0  0  0  0
    1.4472    3.8894    1.8507 H   0  0  0  0  0  0  0  0  0  0  0  0
    3.5416    1.2310    6.7097 H   0  0  0  0  0  0  0  0  0  0  0  0
    2.1970    2.3838    6.5917 H   0  0  0  0  0  0  0  0  0  0  0  0
    3.8684    2.8783    6.1348 H   0  0  0  0  0  0  0  0  0  0  0  0
    2.8685   -0.0183    3.0237 H   0  0  0  0  0  0  0  0  0  0  0  0
    2.4801   -0.8415    0.7434 H   0  0  0  0  0  0  0  0  0  0  0  0
  1  2  1  0
  2  3  1  0
  3  4  1  0
  4  5  2  0
  5  6  1  0
  6  7  2  0
  7  8  1  0
  8  9  2  0
  9 10  1  0
 10 11  2  0
 10 12  1  0
 12 13  1  0
 13 14  1  0
 14 15  2  0
 15 16  1  0
 16 17  2  0
 17 18  1  0
 18 19  2  0
 18 20  1  0
 20 21  1  0
 17 22  1  0
 22 23  2  0
  9  4  1  0
 23 14  1  0
  1 24  1  0
  1 25  1  0
  1 26  1  0
  2 27  1  0
  2 28  1  0
  6 29  1  0
  7 30  1  0
  8 31  1  0
 13 32  1  0
 13 33  1  0
 15 34  1  0
 16 35  1  0
 21 36  1  0
 21 37  1  0
 21 38  1  0
 22 39  1  0
 23 40  1  0
M  END
$$$$
