
     RDKit          3D

 38 40  0  0  0  0  0  0  0  0999 V2000
   -2.1627   -1.6112   -1.7798 C   0  0  0  0  0  0  0  0  0  0  0  0
   -1.3884   -0.4329   -1.1811 C   0  0  0  0  0  0  0  0  0  0  0  0
   -1.3632    0.7658   -2.1609 C   0  0  0  0  0  0  0  0  0  0  0  0
   -1.2075    2.0001   -1.2676 C   0  0  0  0  0  0  0  0  0  0  0  0
   -1.1830    1.4438    0.1629 C   0  0  0  0  0  0  0  0  0  0  0  0
    0.2628    1.1446    0.5264 C   0  0  0  0  0  0  0  0  0  0  0  0
    0.8000    1.8189    1.4065 O   0  0  0  0  0  0  0  0  0  0  0  0
    0.8555    0.0725   -0.1690 N   0  0  0  0  0  0  0  0  0  0  0  0
    2.2688   -0.1755    0.0393 C   0  0  0  0  0  0  0  0  0  0  0  0
    2.8017   -1.4756    0.0754 C   0  0  0  0  0  0  0  0  0  0  0  0
    4.1702   -1.7008    0.2683 C   0  0  0  0  0  0  0  0  0  0  0  0
    5.0386   -0.6267    0.4278 C   0  0  0  0  0  0  0  0  0  0  0  0
    4.5324    0.6673    0.3954 C   0  0  0  0  0  0  0  0  0  0  0  0
    5.6032    2.0033    0.5786 Cl  0  0  0  0  0  0  0  0  0  0  0  0
    3.1666    0.8945    0.2049 C   0  0  0  0  0  0  0  0  0  0  0  0
    0.0927   -0.8277   -0.9466 C   0  0  0  0  0  0  0  0  0  0  0  0
    0.5398   -1.8317   -1.5053 O   0  0  0  0  0  0  0  0  0  0  0  0
   -2.0072    0.1492    0.1106 C   0  0  0  0  0  0  0  0  0  0  0  0
   -1.8594   -0.7449    1.3561 C   0  0  0  0  0  0  0  0  0  0  0  0
   -3.5143    0.4804   -0.0125 C   0  0  0  0  0  0  0  0  0  0  0  0
   -3.1985   -1.3460   -2.0135 H   0  0  0  0  0  0  0  0  0  0  0  0
   -2.1771   -2.4642   -1.0927 H   0  0  0  0  0  0  0  0  0  0  0  0
   -1.7043   -1.9528   -2.7152 H   0  0  0  0  0  0  0  0  0  0  0  0
   -2.2922    0.8408   -2.7384 H   0  0  0  0  0  0  0  0  0  0  0  0
   -0.5403    0.7000   -2.8823 H   0  0  0  0  0  0  0  0  0  0  0  0
   -2.0605    2.6736   -1.4082 H   0  0  0  0  0  0  0  0  0  0  0  0
   -0.3017    2.5624   -1.5201 H   0  0  0  0  0  0  0  0  0  0  0  0
   -1.5827    2.1682    0.8814 H   0  0  0  0  0  0  0  0  0  0  0  0
    2.1651   -2.3530   -0.0111 H   0  0  0  0  0  0  0  0  0  0  0  0
    4.5513   -2.7189    0.2968 H   0  0  0  0  0  0  0  0  0  0  0  0
    6.1002   -0.8034    0.5760 H   0  0  0  0  0  0  0  0  0  0  0  0
    2.8221    1.9248    0.1628 H   0  0  0  0  0  0  0  0  0  0  0  0
   -0.8345   -1.0747    1.5448 H   0  0  0  0  0  0  0  0  0  0  0  0
   -2.4697   -1.6501    1.2607 H   0  0  0  0  0  0  0  0  0  0  0  0
   -2.1949   -0.2120    2.2533 H   0  0  0  0  0  0  0  0  0  0  0  0
   -4.1193   -0.4325   -0.0455 H   0  0  0  0  0  0  0  0  0  0  0  0
   -3.7578    1.0622   -0.9059 H   0  0  0  0  0  0  0  0  0  0  0  0
   -3.8514    1.0623    0.8534 H   0  0  0  0  0  0  0  0  0  0  0  0
  1  2  1  0
  2  3  1  0
  3  4  1  0
  4  5  1  0
  5  6  1  0
  6  7  2  0
  6  8  1  0
  8  9  1  0
  9 10  2  0
 10 11  1  0
 11 12  2  0
 12 13  1  0
 13 14  1  0
 13 15  2  0
  8 16  1  0
 16 17  2  0
  5 18  1  0
 18 19  1  0
 18 20  1  0
 16  2  1  0
 18  2  1  0
 15  9  1  0
  1 21  1  0
  1 22  1  0
  1 23  1  0
  3 24  1  0
  3 25  1  0
  4 26  1  0
  4 27  1  0
  5 28  1  0
 10 29  1  0
 11 30  1  0
 12 31  1  0
 15 32  1  0
 19 33  1  0
 19 34  1  0
 19 35  1  0
 20 36  1  0
 20 37  1  0
 20 38  1  0
M  END
$$$$
