
     RDKit          3D

 32 32  0  0  0  0  0  0  0  0999 V2000
   -2.9450    0.8989   -4.3535 C   0  0  0  0  0  0  0  0  0  0  0  0
   -2.2767    1.4749   -3.5380 C   0  0  0  0  0  0  0  0  0  0  0  0
   -1.4633    2.1873   -2.5384 C   0  0  0  0  0  0  0  0  0  0  0  0
   -0.1967    1.5262   -2.1898 N   0  0  0  0  0  0  0  0  0  0  0  0
    0.7327    1.5162   -3.3209 C   0  0  0  0  0  0  0  0  0  0  0  0
   -0.3431    0.1748   -1.6272 C   0  0  0  0  0  0  0  0  0  0  0  0
   -1.0751    0.1205   -0.2777 C   0  0  0  0  0  0  0  0  0  0  0  0
   -0.3518    0.8825    0.8335 C   0  0  0  0  0  0  0  0  0  0  0  0
    0.9430    0.3377    1.0896 O   0  0  0  0  0  0  0  0  0  0  0  0
    1.0930   -0.6949    1.9755 C   0  0  0  0  0  0  0  0  0  0  0  0
    0.0435   -1.3483    2.6290 C   0  0  0  0  0  0  0  0  0  0  0  0
    0.3109   -2.3975    3.5133 C   0  0  0  0  0  0  0  0  0  0  0  0
   -0.9933   -3.1922    4.3084 Cl  0  0  0  0  0  0  0  0  0  0  0  0
    1.6177   -2.8111    3.7580 C   0  0  0  0  0  0  0  0  0  0  0  0
    2.6718   -2.1707    3.1094 C   0  0  0  0  0  0  0  0  0  0  0  0
    2.4109   -1.1207    2.2230 C   0  0  0  0  0  0  0  0  0  0  0  0
    3.7622   -0.3709    1.4453 Cl  0  0  0  0  0  0  0  0  0  0  0  0
   -3.5353    0.3871   -5.0781 H   0  0  0  0  0  0  0  0  0  0  0  0
   -2.0574    2.3468   -1.6315 H   0  0  0  0  0  0  0  0  0  0  0  0
   -1.2476    3.1989   -2.9059 H   0  0  0  0  0  0  0  0  0  0  0  0
    0.8805    2.5290   -3.7125 H   0  0  0  0  0  0  0  0  0  0  0  0
    0.3926    0.8733   -4.1403 H   0  0  0  0  0  0  0  0  0  0  0  0
    1.7198    1.1638   -3.0005 H   0  0  0  0  0  0  0  0  0  0  0  0
   -0.8533   -0.4905   -2.3352 H   0  0  0  0  0  0  0  0  0  0  0  0
    0.6540   -0.2600   -1.4767 H   0  0  0  0  0  0  0  0  0  0  0  0
   -1.1647   -0.9358    0.0016 H   0  0  0  0  0  0  0  0  0  0  0  0
   -2.0973    0.5008   -0.3767 H   0  0  0  0  0  0  0  0  0  0  0  0
   -0.9566    0.9390    1.7455 H   0  0  0  0  0  0  0  0  0  0  0  0
   -0.1986    1.9237    0.5277 H   0  0  0  0  0  0  0  0  0  0  0  0
   -0.9916   -1.0699    2.4663 H   0  0  0  0  0  0  0  0  0  0  0  0
    1.8210   -3.6273    4.4463 H   0  0  0  0  0  0  0  0  0  0  0  0
    3.6936   -2.4918    3.2955 H   0  0  0  0  0  0  0  0  0  0  0  0
  1  2  3  0
  2  3  1  0
  3  4  1  0
  4  5  1  0
  4  6  1  0
  6  7  1  0
  7  8  1  0
  8  9  1  0
  9 10  1  0
 10 11  2  0
 11 12  1  0
 12 13  1  0
 12 14  2  0
 14 15  1  0
 15 16  2  0
 16 17  1  0
 16 10  1  0
  1 18  1  0
  3 19  1  0
  3 20  1  0
  5 21  1  0
  5 22  1  0
  5 23  1  0
  6 24  1  0
  6 25  1  0
  7 26  1  0
  7 27  1  0
  8 28  1  0
  8 29  1  0
 11 30  1  0
 14 31  1  0
 15 32  1  0
M  END
$$$$
