
     RDKit          3D

 42 44  0  0  0  0  0  0  0  0999 V2000
    4.7509   -3.5020   -1.5449 C   0  0  0  0  0  0  0  0  0  0  0  0
    5.1407   -2.1697   -1.2307 O   0  0  0  0  0  0  0  0  0  0  0  0
    4.1782   -1.3525   -0.7019 C   0  0  0  0  0  0  0  0  0  0  0  0
    4.6287   -0.0747   -0.3503 C   0  0  0  0  0  0  0  0  0  0  0  0
    3.7572    0.8598    0.2107 C   0  0  0  0  0  0  0  0  0  0  0  0
    4.0846    2.1277    0.6070 O   0  0  0  0  0  0  0  0  0  0  0  0
    5.4398    2.5253    0.4372 C   0  0  0  0  0  0  0  0  0  0  0  0
    2.4185    0.5164    0.4108 C   0  0  0  0  0  0  0  0  0  0  0  0
    1.9524   -0.7518    0.0441 C   0  0  0  0  0  0  0  0  0  0  0  0
    0.5305   -1.1626    0.2440 C   0  0  0  0  0  0  0  0  0  0  0  0
    0.3084   -2.3500    0.4504 O   0  0  0  0  0  0  0  0  0  0  0  0
   -0.3894   -0.1400    0.1271 N   0  0  0  0  0  0  0  0  0  0  0  0
   -1.7639   -0.2111    0.3137 C   0  0  0  0  0  0  0  0  0  0  0  0
   -2.5168   -1.6486    0.8605 S   0  0  0  0  0  0  0  0  0  0  0  0
   -4.0072   -0.9067    0.8529 C   0  0  0  0  0  0  0  0  0  0  0  0
   -3.9828    0.3994    0.4478 C   0  0  0  0  0  0  0  0  0  0  0  0
   -2.6678    0.8390    0.1083 C   0  0  0  0  0  0  0  0  0  0  0  0
   -2.2289    2.1504   -0.3640 C   0  0  0  0  0  0  0  0  0  0  0  0
   -3.2012    3.0195   -0.7652 N   0  0  0  0  0  0  0  0  0  0  0  0
   -1.0453    2.4720   -0.4446 O   0  0  0  0  0  0  0  0  0  0  0  0
   -5.3512    0.9806    0.5036 C   0  0  0  0  0  0  0  0  0  0  0  0
   -6.1385   -0.0759    1.3391 C   0  0  0  0  0  0  0  0  0  0  0  0
   -5.3476   -1.4118    1.2273 C   0  0  0  0  0  0  0  0  0  0  0  0
    2.8408   -1.6898   -0.5015 C   0  0  0  0  0  0  0  0  0  0  0  0
    3.9909   -3.5140   -2.3330 H   0  0  0  0  0  0  0  0  0  0  0  0
    4.4059   -4.0343   -0.6523 H   0  0  0  0  0  0  0  0  0  0  0  0
    5.6327   -4.0266   -1.9253 H   0  0  0  0  0  0  0  0  0  0  0  0
    5.6755    0.1558   -0.5210 H   0  0  0  0  0  0  0  0  0  0  0  0
    5.5348    3.5523    0.8028 H   0  0  0  0  0  0  0  0  0  0  0  0
    6.1128    1.8972    1.0302 H   0  0  0  0  0  0  0  0  0  0  0  0
    5.7226    2.5210   -0.6206 H   0  0  0  0  0  0  0  0  0  0  0  0
    1.7611    1.2459    0.8773 H   0  0  0  0  0  0  0  0  0  0  0  0
   -0.0625    0.7776   -0.1724 H   0  0  0  0  0  0  0  0  0  0  0  0
   -2.8795    3.8658   -1.2153 H   0  0  0  0  0  0  0  0  0  0  0  0
   -4.1346    2.7034   -0.9749 H   0  0  0  0  0  0  0  0  0  0  0  0
   -5.7747    1.0591   -0.5033 H   0  0  0  0  0  0  0  0  0  0  0  0
   -5.3783    1.9599    0.9893 H   0  0  0  0  0  0  0  0  0  0  0  0
   -7.1773   -0.1770    1.0098 H   0  0  0  0  0  0  0  0  0  0  0  0
   -6.1555    0.2424    2.3900 H   0  0  0  0  0  0  0  0  0  0  0  0
   -5.7629   -2.0397    0.4324 H   0  0  0  0  0  0  0  0  0  0  0  0
   -5.3584   -1.9597    2.1733 H   0  0  0  0  0  0  0  0  0  0  0  0
    2.4574   -2.6721   -0.7618 H   0  0  0  0  0  0  0  0  0  0  0  0
  1  2  1  0
  2  3  1  0
  3  4  2  0
  4  5  1  0
  5  6  1  0
  6  7  1  0
  5  8  2  0
  8  9  1  0
  9 10  1  0
 10 11  2  0
 10 12  1  0
 12 13  1  0
 13 14  1  0
 14 15  1  0
 15 16  2  0
 16 17  1  0
 17 18  1  0
 18 19  1  0
 18 20  2  0
 16 21  1  0
 21 22  1  0
 22 23  1  0
  9 24  2  0
 24  3  1  0
 17 13  2  0
 23 15  1  0
  1 25  1  0
  1 26  1  0
  1 27  1  0
  4 28  1  0
  7 29  1  0
  7 30  1  0
  7 31  1  0
  8 32  1  0
 12 33  1  0
 19 34  1  0
 19 35  1  0
 21 36  1  0
 21 37  1  0
 22 38  1  0
 22 39  1  0
 23 40  1  0
 23 41  1  0
 24 42  1  0
M  END
$$$$
