
     RDKit          3D

 57 61  0  0  0  0  0  0  0  0999 V2000
   -6.3744   -3.1385   -2.2474 C   0  0  0  0  0  0  0  0  0  0  0  0
   -5.9531   -1.9967   -1.3707 C   0  0  0  0  0  0  0  0  0  0  0  0
   -5.1205   -0.9909   -1.8734 C   0  0  0  0  0  0  0  0  0  0  0  0
   -4.7470    0.0881   -1.0689 C   0  0  0  0  0  0  0  0  0  0  0  0
   -5.2127    0.1882    0.2491 C   0  0  0  0  0  0  0  0  0  0  0  0
   -4.8018    1.3468    1.1225 C   0  0  0  0  0  0  0  0  0  0  0  0
   -3.7059    0.9905    1.9983 N   0  0  0  0  0  0  0  0  0  0  0  0
   -3.9328    0.6329    3.2871 N   0  0  0  0  0  0  0  0  0  0  0  0
   -2.7513    0.3839    3.8526 N   0  0  0  0  0  0  0  0  0  0  0  0
   -1.7960    0.6077    2.9093 C   0  0  0  0  0  0  0  0  0  0  0  0
   -0.3639    0.4943    2.9729 C   0  0  0  0  0  0  0  0  0  0  0  0
    0.2809    0.1673    3.9615 O   0  0  0  0  0  0  0  0  0  0  0  0
    0.2360    0.8125    1.7596 N   0  0  0  0  0  0  0  0  0  0  0  0
   -0.4552    1.2277    0.6275 C   0  0  0  0  0  0  0  0  0  0  0  0
    0.3730    1.5385   -0.6175 C   0  0  0  0  0  0  0  0  0  0  0  0
    0.8503    0.2468   -1.2942 C   0  0  0  0  0  0  0  0  0  0  0  0
    1.9681   -0.4644   -0.5303 C   0  0  0  0  0  0  0  0  0  0  0  0
    2.8310    0.5149    0.1673 N   0  0  0  0  0  0  0  0  0  0  0  0
    4.1796   -0.0735    1.0263 S   0  0  0  0  0  6  0  0  0  0  0  0
    3.7819   -1.3544    1.5679 O   0  0  0  0  0  0  0  0  0  0  0  0
    4.6043    1.0211    1.8724 O   0  0  0  0  0  0  0  0  0  0  0  0
    5.4747   -0.3773   -0.1300 C   0  0  0  0  0  0  0  0  0  0  0  0
    5.3212   -0.2957   -1.5160 C   0  0  0  0  0  0  0  0  0  0  0  0
    6.4144   -0.5484   -2.3514 C   0  0  0  0  0  0  0  0  0  0  0  0
    7.6548   -0.8819   -1.8066 C   0  0  0  0  0  0  0  0  0  0  0  0
    7.8044   -0.9655   -0.4239 C   0  0  0  0  0  0  0  0  0  0  0  0
    6.7151   -0.7135    0.4066 C   0  0  0  0  0  0  0  0  0  0  0  0
    6.8937   -0.8106    1.7307 F   0  0  0  0  0  0  0  0  0  0  0  0
    2.9003    1.8603   -0.4299 C   0  0  0  0  0  0  0  0  0  0  0  0
    1.5247    2.5137   -0.3210 C   0  0  0  0  0  0  0  0  0  0  0  0
   -1.7543    1.3408    0.5638 N   0  0  0  0  0  0  0  0  0  0  0  0
   -2.3678    1.0112    1.7271 C   0  0  0  0  0  0  0  0  0  0  0  0
   -6.0502   -0.8183    0.7489 C   0  0  0  0  0  0  0  0  0  0  0  0
   -6.4224   -1.8968   -0.0567 C   0  0  0  0  0  0  0  0  0  0  0  0
   -7.2202   -2.8376   -2.8734 H   0  0  0  0  0  0  0  0  0  0  0  0
   -6.6716   -4.0067   -1.6499 H   0  0  0  0  0  0  0  0  0  0  0  0
   -5.5480   -3.4557   -2.8924 H   0  0  0  0  0  0  0  0  0  0  0  0
   -4.7532   -1.0445   -2.8957 H   0  0  0  0  0  0  0  0  0  0  0  0
   -4.0840    0.8483   -1.4776 H   0  0  0  0  0  0  0  0  0  0  0  0
   -4.4862    2.2066    0.5201 H   0  0  0  0  0  0  0  0  0  0  0  0
   -5.6431    1.6825    1.7403 H   0  0  0  0  0  0  0  0  0  0  0  0
    1.2479    0.7459    1.7562 H   0  0  0  0  0  0  0  0  0  0  0  0
   -0.3115    2.0428   -1.3143 H   0  0  0  0  0  0  0  0  0  0  0  0
    0.0145   -0.4479   -1.4429 H   0  0  0  0  0  0  0  0  0  0  0  0
    1.2189    0.5003   -2.2973 H   0  0  0  0  0  0  0  0  0  0  0  0
    2.5419   -1.0913   -1.2178 H   0  0  0  0  0  0  0  0  0  0  0  0
    1.5173   -1.1277    0.2165 H   0  0  0  0  0  0  0  0  0  0  0  0
    4.3746   -0.0476   -1.9777 H   0  0  0  0  0  0  0  0  0  0  0  0
    6.2996   -0.4881   -3.4322 H   0  0  0  0  0  0  0  0  0  0  0  0
    8.5029   -1.0795   -2.4582 H   0  0  0  0  0  0  0  0  0  0  0  0
    8.7625   -1.2277    0.0158 H   0  0  0  0  0  0  0  0  0  0  0  0
    3.6361    2.4953    0.0725 H   0  0  0  0  0  0  0  0  0  0  0  0
    3.1972    1.7934   -1.4816 H   0  0  0  0  0  0  0  0  0  0  0  0
    1.4869    3.3493   -1.0312 H   0  0  0  0  0  0  0  0  0  0  0  0
    1.4092    2.9654    0.6721 H   0  0  0  0  0  0  0  0  0  0  0  0
   -6.4136   -0.7735    1.7744 H   0  0  0  0  0  0  0  0  0  0  0  0
   -7.0773   -2.6627    0.3534 H   0  0  0  0  0  0  0  0  0  0  0  0
  1  2  1  0
  2  3  2  0
  3  4  1  0
  4  5  2  0
  5  6  1  0
  6  7  1  0
  7  8  1  0
  8  9  2  0
  9 10  1  0
 10 11  1  0
 11 12  2  0
 11 13  1  0
 13 14  1  0
 14 15  1  0
 15 16  1  0
 16 17  1  0
 17 18  1  0
 18 19  1  0
 19 20  2  0
 19 21  2  0
 19 22  1  0
 22 23  2  0
 23 24  1  0
 24 25  2  0
 25 26  1  0
 26 27  2  0
 27 28  1  0
 18 29  1  0
 29 30  1  0
 14 31  2  0
 31 32  1  0
  5 33  1  0
 33 34  2  0
 34  2  1  0
 32  7  1  0
 32 10  2  0
 30 15  1  0
 27 22  1  0
  1 35  1  0
  1 36  1  0
  1 37  1  0
  3 38  1  0
  4 39  1  0
  6 40  1  0
  6 41  1  0
 13 42  1  0
 15 43  1  0
 16 44  1  0
 16 45  1  0
 17 46  1  0
 17 47  1  0
 23 48  1  0
 24 49  1  0
 25 50  1  0
 26 51  1  0
 29 52  1  0
 29 53  1  0
 30 54  1  0
 30 55  1  0
 33 56  1  0
 34 57  1  0
M  END
$$$$
