
     RDKit          3D

 36 38  0  0  0  0  0  0  0  0999 V2000
   -4.7468   -1.8953   -1.0061 C   0  0  0  0  0  0  0  0  0  0  0  0
   -3.5922   -1.1815   -0.5046 N   0  0  0  0  0  0  0  0  0  0  0  0
   -2.2907   -1.5293   -0.7538 C   0  0  0  0  0  0  0  0  0  0  0  0
   -1.4762   -0.6113   -0.1273 C   0  0  0  0  0  0  0  0  0  0  0  0
   -0.0506   -0.6757   -0.1987 C   0  0  0  0  0  0  0  0  0  0  0  0
    0.7719    0.3867   -0.2177 C   0  0  0  0  0  0  0  0  0  0  0  0
    2.2345    0.3001   -0.2911 C   0  0  0  0  0  0  0  0  0  0  0  0
    3.0026    1.2068    0.4377 C   0  0  0  0  0  0  0  0  0  0  0  0
    4.3900    1.1567    0.3605 C   0  0  0  0  0  0  0  0  0  0  0  0
    5.0027    0.2405   -0.4216 N   0  0  0  0  0  4  0  0  0  0  0  0
    6.4734    0.2137   -0.4961 C   0  0  0  0  0  0  0  0  0  0  0  0
    4.2794   -0.6325   -1.1573 C   0  0  0  0  0  0  0  0  0  0  0  0
    2.8896   -0.6196   -1.1086 C   0  0  0  0  0  0  0  0  0  0  0  0
   -2.3191    0.3123    0.5663 C   0  0  0  0  0  0  0  0  0  0  0  0
   -2.0969    1.4215    1.4103 C   0  0  0  0  0  0  0  0  0  0  0  0
   -3.1888    2.1177    1.9264 C   0  0  0  0  0  0  0  0  0  0  0  0
   -2.9678    3.1729    2.7223 F   0  0  0  0  0  0  0  0  0  0  0  0
   -4.4920    1.7443    1.6391 C   0  0  0  0  0  0  0  0  0  0  0  0
   -4.7447    0.6413    0.8211 C   0  0  0  0  0  0  0  0  0  0  0  0
   -3.6438   -0.0624    0.3008 C   0  0  0  0  0  0  0  0  0  0  0  0
   -4.4183   -2.7390   -1.6183 H   0  0  0  0  0  0  0  0  0  0  0  0
   -5.3411   -1.2075   -1.6130 H   0  0  0  0  0  0  0  0  0  0  0  0
   -5.3247   -2.2599   -0.1531 H   0  0  0  0  0  0  0  0  0  0  0  0
   -2.0547   -2.3898   -1.3668 H   0  0  0  0  0  0  0  0  0  0  0  0
    0.3668   -1.6787   -0.2600 H   0  0  0  0  0  0  0  0  0  0  0  0
    0.3591    1.3928   -0.1770 H   0  0  0  0  0  0  0  0  0  0  0  0
    2.5284    1.9514    1.0752 H   0  0  0  0  0  0  0  0  0  0  0  0
    5.0171    1.8469    0.9180 H   0  0  0  0  0  0  0  0  0  0  0  0
    6.8864    0.5428    0.4609 H   0  0  0  0  0  0  0  0  0  0  0  0
    6.8034   -0.8083   -0.6997 H   0  0  0  0  0  0  0  0  0  0  0  0
    6.7724    0.8879   -1.3025 H   0  0  0  0  0  0  0  0  0  0  0  0
    4.8207   -1.3333   -1.7868 H   0  0  0  0  0  0  0  0  0  0  0  0
    2.3287   -1.3216   -1.7226 H   0  0  0  0  0  0  0  0  0  0  0  0
   -1.0975    1.7414    1.6781 H   0  0  0  0  0  0  0  0  0  0  0  0
   -5.3154    2.3125    2.0620 H   0  0  0  0  0  0  0  0  0  0  0  0
   -5.7654    0.3412    0.6041 H   0  0  0  0  0  0  0  0  0  0  0  0
  1  2  1  0
  2  3  1  0
  3  4  2  0
  4  5  1  0
  5  6  2  3
  6  7  1  0
  7  8  2  0
  8  9  1  0
  9 10  2  0
 10 11  1  0
 10 12  1  0
 12 13  2  0
  4 14  1  0
 14 15  2  0
 15 16  1  0
 16 17  1  0
 16 18  2  0
 18 19  1  0
 19 20  2  0
 20  2  1  0
 13  7  1  0
 20 14  1  0
  1 21  1  0
  1 22  1  0
  1 23  1  0
  3 24  1  0
  5 25  1  0
  6 26  1  0
  8 27  1  0
  9 28  1  0
 11 29  1  0
 11 30  1  0
 11 31  1  0
 12 32  1  0
 13 33  1  0
 15 34  1  0
 18 35  1  0
 19 36  1  0
M  CHG  1  10   1
M  END
$$$$
