
     RDKit          3D

 45 47  0  0  0  0  0  0  0  0999 V2000
   -7.6702    0.5518   -0.9898 C   0  0  0  0  0  0  0  0  0  0  0  0
   -6.5432    0.1255   -0.0648 C   0  0  0  0  0  0  0  0  0  0  0  0
   -5.7978   -0.8980   -0.7277 O   0  0  0  0  0  0  0  0  0  0  0  0
   -4.4663   -0.9472   -0.4006 C   0  0  0  0  0  0  0  0  0  0  0  0
   -3.6162   -1.1300   -1.4962 C   0  0  0  0  0  0  0  0  0  0  0  0
   -2.2370   -1.2114   -1.3170 C   0  0  0  0  0  0  0  0  0  0  0  0
   -1.6992   -1.1230   -0.0327 C   0  0  0  0  0  0  0  0  0  0  0  0
   -0.2486   -1.1967    0.1547 C   0  0  0  0  0  0  0  0  0  0  0  0
    0.5718   -0.1396    0.2119 C   0  0  0  0  0  0  0  0  0  0  0  0
    0.1534    1.5306    0.0970 S   0  0  0  0  0  0  0  0  0  0  0  0
    1.8274    2.0652    0.2378 C   0  0  0  0  0  0  0  0  0  0  0  0
    2.2817    3.6704    0.2600 S   0  0  0  0  0  0  0  0  0  0  0  0
    2.6322    0.9517    0.3650 N   0  0  0  0  0  0  0  0  0  0  0  0
    4.0379    1.0341    0.4120 N   0  0  0  0  0  0  0  0  0  0  0  0
    4.6890    0.9418   -0.8079 C   0  0  0  0  0  0  0  0  0  0  0  0
    4.1120    0.9821   -1.8900 O   0  0  0  0  0  0  0  0  0  0  0  0
    6.1599    0.7435   -0.7496 C   0  0  0  0  0  0  0  0  0  0  0  0
    6.9254    1.2048    0.3222 C   0  0  0  0  0  0  0  0  0  0  0  0
    8.2895    0.9772    0.2843 C   0  0  0  0  0  0  0  0  0  0  0  0
    8.9151    0.3389   -0.7272 N   0  0  0  0  0  0  0  0  0  0  0  0
    8.1518   -0.0798   -1.7593 C   0  0  0  0  0  0  0  0  0  0  0  0
    6.7832    0.1000   -1.8190 C   0  0  0  0  0  0  0  0  0  0  0  0
    2.0401   -0.2982    0.3902 C   0  0  0  0  0  0  0  0  0  0  0  0
    2.6109   -1.3653    0.5737 O   0  0  0  0  0  0  0  0  0  0  0  0
   -2.5500   -0.9685    1.0714 C   0  0  0  0  0  0  0  0  0  0  0  0
   -3.9399   -0.8964    0.9019 C   0  0  0  0  0  0  0  0  0  0  0  0
   -4.8304   -0.7897    1.9373 O   0  0  0  0  0  0  0  0  0  0  0  0
   -4.3363   -0.9725    3.2569 C   0  0  0  0  0  0  0  0  0  0  0  0
   -8.3029   -0.3038   -1.2470 H   0  0  0  0  0  0  0  0  0  0  0  0
   -7.2688    0.9452   -1.9291 H   0  0  0  0  0  0  0  0  0  0  0  0
   -8.2892    1.3214   -0.5209 H   0  0  0  0  0  0  0  0  0  0  0  0
   -5.9231    1.0003    0.1662 H   0  0  0  0  0  0  0  0  0  0  0  0
   -6.9771   -0.2779    0.8558 H   0  0  0  0  0  0  0  0  0  0  0  0
   -4.0363   -1.1978   -2.4968 H   0  0  0  0  0  0  0  0  0  0  0  0
   -1.5936   -1.3389   -2.1842 H   0  0  0  0  0  0  0  0  0  0  0  0
    0.1513   -2.2061    0.2330 H   0  0  0  0  0  0  0  0  0  0  0  0
    4.4585    0.5818    1.2178 H   0  0  0  0  0  0  0  0  0  0  0  0
    6.4969    1.7521    1.1529 H   0  0  0  0  0  0  0  0  0  0  0  0
    8.9395    1.3175    1.0861 H   0  0  0  0  0  0  0  0  0  0  0  0
    8.6882   -0.5781   -2.5622 H   0  0  0  0  0  0  0  0  0  0  0  0
    6.2179   -0.2542   -2.6751 H   0  0  0  0  0  0  0  0  0  0  0  0
   -2.1034   -0.9090    2.0586 H   0  0  0  0  0  0  0  0  0  0  0  0
   -5.1938   -0.9708    3.9371 H   0  0  0  0  0  0  0  0  0  0  0  0
   -3.8299   -1.9376    3.3644 H   0  0  0  0  0  0  0  0  0  0  0  0
   -3.6806   -0.1457    3.5474 H   0  0  0  0  0  0  0  0  0  0  0  0
  1  2  1  0
  2  3  1  0
  3  4  1  0
  4  5  2  0
  5  6  1  0
  6  7  2  0
  7  8  1  0
  8  9  2  3
  9 10  1  0
 10 11  1  0
 11 12  2  0
 11 13  1  0
 13 14  1  0
 14 15  1  0
 15 16  2  0
 15 17  1  0
 17 18  2  0
 18 19  1  0
 19 20  2  0
 20 21  1  0
 21 22  2  0
 13 23  1  0
 23 24  2  0
  7 25  1  0
 25 26  2  0
 26 27  1  0
 27 28  1  0
 26  4  1  0
 23  9  1  0
 22 17  1  0
  1 29  1  0
  1 30  1  0
  1 31  1  0
  2 32  1  0
  2 33  1  0
  5 34  1  0
  6 35  1  0
  8 36  1  0
 14 37  1  0
 18 38  1  0
 19 39  1  0
 21 40  1  0
 22 41  1  0
 25 42  1  0
 28 43  1  0
 28 44  1  0
 28 45  1  0
M  END
$$$$
