
     RDKit          3D

 56 58  0  0  0  0  0  0  0  0999 V2000
   -4.9521    1.8313   -1.6277 C   0  0  0  0  0  0  0  0  0  0  0  0
   -5.1527    0.3249   -1.5633 C   0  0  0  0  0  0  0  0  0  0  0  0
   -3.8781   -0.3889   -1.7357 N   0  0  0  0  0  0  0  0  0  0  0  0
   -3.4918   -0.6916   -3.1237 C   0  0  0  0  0  0  0  0  0  0  0  0
   -2.2861    0.1323   -3.5621 C   0  0  0  0  0  0  0  0  0  0  0  0
   -3.1359   -0.8216   -0.6428 C   0  0  0  0  0  0  0  0  0  0  0  0
   -3.3573   -0.3277    0.6552 C   0  0  0  0  0  0  0  0  0  0  0  0
   -2.6118   -0.7556    1.7635 C   0  0  0  0  0  0  0  0  0  0  0  0
   -1.6000   -1.6971    1.6064 C   0  0  0  0  0  0  0  0  0  0  0  0
   -0.7866   -2.1085    2.7517 C   0  0  0  0  0  0  0  0  0  0  0  0
    0.3479   -1.4967    3.1328 C   0  0  0  0  0  0  0  0  0  0  0  0
    0.9231   -0.3150    2.4706 C   0  0  0  0  0  0  0  0  0  0  0  0
    0.3653    0.9299    2.7630 C   0  0  0  0  0  0  0  0  0  0  0  0
    0.8670    2.0716    2.1703 C   0  0  0  0  0  0  0  0  0  0  0  0
    1.9412    1.9678    1.2963 C   0  0  0  0  0  0  0  0  0  0  0  0
    2.4553    3.1274    0.7050 C   0  0  0  0  0  0  0  0  0  0  0  0
    3.5382    3.0510   -0.1665 C   0  0  0  0  0  0  0  0  0  0  0  0
    4.1246    1.8234   -0.4611 C   0  0  0  0  0  0  0  0  0  0  0  0
    5.1765    1.9003   -1.3273 O   0  0  0  0  0  0  0  0  0  0  0  0
    5.7773    0.6879   -1.7695 C   0  0  0  0  0  0  0  0  0  0  0  0
    3.6205    0.6587    0.1275 C   0  0  0  0  0  0  0  0  0  0  0  0
    2.5156    0.6963    1.0097 C   0  0  0  0  0  0  0  0  0  0  0  0
    1.9796   -0.4260    1.6073 N   0  0  0  0  0  4  0  0  0  0  0  0
    2.5245   -1.7821    1.2994 C   0  0  0  0  0  0  0  0  0  0  0  0
    3.6921   -2.0909    2.2217 C   0  0  0  0  0  0  0  0  0  0  0  0
   -1.3570   -2.2169    0.3379 C   0  0  0  0  0  0  0  0  0  0  0  0
   -2.1144   -1.7806   -0.7606 C   0  0  0  0  0  0  0  0  0  0  0  0
   -4.5975    2.1419   -2.6168 H   0  0  0  0  0  0  0  0  0  0  0  0
   -4.2226    2.1771   -0.8881 H   0  0  0  0  0  0  0  0  0  0  0  0
   -5.9009    2.3453   -1.4370 H   0  0  0  0  0  0  0  0  0  0  0  0
   -5.6542    0.0443   -0.6311 H   0  0  0  0  0  0  0  0  0  0  0  0
   -5.8559    0.0288   -2.3519 H   0  0  0  0  0  0  0  0  0  0  0  0
   -4.3190   -0.4575   -3.8058 H   0  0  0  0  0  0  0  0  0  0  0  0
   -3.3077   -1.7648   -3.2596 H   0  0  0  0  0  0  0  0  0  0  0  0
   -2.4792    1.2047   -3.4527 H   0  0  0  0  0  0  0  0  0  0  0  0
   -2.0595   -0.0669   -4.6145 H   0  0  0  0  0  0  0  0  0  0  0  0
   -1.3909   -0.1041   -2.9786 H   0  0  0  0  0  0  0  0  0  0  0  0
   -4.1194    0.4252    0.8409 H   0  0  0  0  0  0  0  0  0  0  0  0
   -2.8429   -0.3390    2.7425 H   0  0  0  0  0  0  0  0  0  0  0  0
   -1.1619   -2.9698    3.3022 H   0  0  0  0  0  0  0  0  0  0  0  0
    0.8919   -1.8647    3.9998 H   0  0  0  0  0  0  0  0  0  0  0  0
   -0.4743    1.0135    3.4521 H   0  0  0  0  0  0  0  0  0  0  0  0
    0.4135    3.0361    2.4000 H   0  0  0  0  0  0  0  0  0  0  0  0
    2.0241    4.1069    0.9133 H   0  0  0  0  0  0  0  0  0  0  0  0
    3.9294    3.9609   -0.6213 H   0  0  0  0  0  0  0  0  0  0  0  0
    6.2434    0.1553   -0.9337 H   0  0  0  0  0  0  0  0  0  0  0  0
    5.0496    0.0518   -2.2853 H   0  0  0  0  0  0  0  0  0  0  0  0
    6.5639    0.9459   -2.4855 H   0  0  0  0  0  0  0  0  0  0  0  0
    4.1142   -0.2767   -0.1051 H   0  0  0  0  0  0  0  0  0  0  0  0
    1.7394   -2.5339    1.4059 H   0  0  0  0  0  0  0  0  0  0  0  0
    2.8056   -1.8236    0.2434 H   0  0  0  0  0  0  0  0  0  0  0  0
    4.0986   -3.0824    1.9961 H   0  0  0  0  0  0  0  0  0  0  0  0
    4.4994   -1.3619    2.1093 H   0  0  0  0  0  0  0  0  0  0  0  0
    3.3809   -2.0768    3.2727 H   0  0  0  0  0  0  0  0  0  0  0  0
   -0.5990   -2.9794    0.1799 H   0  0  0  0  0  0  0  0  0  0  0  0
   -1.8942   -2.2399   -1.7194 H   0  0  0  0  0  0  0  0  0  0  0  0
  1  2  1  0
  2  3  1  0
  3  4  1  0
  4  5  1  0
  3  6  1  0
  6  7  2  0
  7  8  1  0
  8  9  2  0
  9 10  1  0
 10 11  2  3
 11 12  1  0
 12 13  2  0
 13 14  1  0
 14 15  2  0
 15 16  1  0
 16 17  2  0
 17 18  1  0
 18 19  1  0
 19 20  1  0
 18 21  2  0
 21 22  1  0
 22 23  2  0
 23 24  1  0
 24 25  1  0
  9 26  1  0
 26 27  2  0
 27  6  1  0
 23 12  1  0
 22 15  1  0
  1 28  1  0
  1 29  1  0
  1 30  1  0
  2 31  1  0
  2 32  1  0
  4 33  1  0
  4 34  1  0
  5 35  1  0
  5 36  1  0
  5 37  1  0
  7 38  1  0
  8 39  1  0
 10 40  1  0
 11 41  1  0
 13 42  1  0
 14 43  1  0
 16 44  1  0
 17 45  1  0
 20 46  1  0
 20 47  1  0
 20 48  1  0
 21 49  1  0
 24 50  1  0
 24 51  1  0
 25 52  1  0
 25 53  1  0
 25 54  1  0
 26 55  1  0
 27 56  1  0
M  CHG  1  23   1
M  END
$$$$
