
     RDKit          3D

 46 47  0  0  0  0  0  0  0  0999 V2000
    8.4527    0.4455   -1.9450 C   0  0  0  0  0  0  0  0  0  0  0  0
    7.8407    0.6254   -0.6744 O   0  0  0  0  0  0  0  0  0  0  0  0
    6.5510    0.1895   -0.5430 C   0  0  0  0  0  0  0  0  0  0  0  0
    6.0022    0.3645    0.7291 C   0  0  0  0  0  0  0  0  0  0  0  0
    4.6925   -0.0361    1.0032 C   0  0  0  0  0  0  0  0  0  0  0  0
    3.9106   -0.6229    0.0027 C   0  0  0  0  0  0  0  0  0  0  0  0
    2.4873   -1.0350    0.2853 C   0  0  0  0  0  0  0  0  0  0  0  0
    1.5158    0.1136    0.0302 C   0  0  0  0  0  0  0  0  0  0  0  0
    0.0856   -0.2944    0.3058 C   0  0  0  0  0  0  0  0  0  0  0  0
   -0.2507   -1.4116    0.6877 O   0  0  0  0  0  0  0  0  0  0  0  0
   -0.8152    0.7289    0.0701 N   0  0  0  0  0  0  0  0  0  0  0  0
   -2.1351    0.5396    0.5045 N   0  0  0  0  0  0  0  0  0  0  0  0
   -2.7771    1.5998    1.1122 C   0  0  0  0  0  0  0  0  0  0  0  0
   -2.2809    2.7290    1.1474 O   0  0  0  0  0  0  0  0  0  0  0  0
   -4.0832    1.2779    1.7977 C   0  0  0  0  0  0  0  0  0  0  0  0
   -4.8993    0.3591    1.0275 N   0  0  0  0  0  0  0  0  0  0  0  0
   -4.6108   -0.9580    1.0900 N   0  0  0  0  0  0  0  0  0  0  0  0
   -5.5108   -1.5313    0.2835 C   0  0  0  0  0  0  0  0  0  0  0  0
   -5.5157   -3.0012    0.0938 C   0  0  0  0  0  0  0  0  0  0  0  0
   -6.3658   -0.5724   -0.3017 C   0  0  0  0  0  0  0  0  0  0  0  0
   -5.9460    0.6457    0.1899 C   0  0  0  0  0  0  0  0  0  0  0  0
   -6.4471    2.0159   -0.0745 C   0  0  0  0  0  0  0  0  0  0  0  0
    4.4607   -0.7928   -1.2736 C   0  0  0  0  0  0  0  0  0  0  0  0
    5.7738   -0.3910   -1.5448 C   0  0  0  0  0  0  0  0  0  0  0  0
    7.9298    1.0167   -2.7192 H   0  0  0  0  0  0  0  0  0  0  0  0
    9.4750    0.8307   -1.8812 H   0  0  0  0  0  0  0  0  0  0  0  0
    8.5129   -0.6157   -2.2083 H   0  0  0  0  0  0  0  0  0  0  0  0
    6.6019    0.8166    1.5153 H   0  0  0  0  0  0  0  0  0  0  0  0
    4.2912    0.1119    2.0031 H   0  0  0  0  0  0  0  0  0  0  0  0
    2.2269   -1.9020   -0.3358 H   0  0  0  0  0  0  0  0  0  0  0  0
    2.4067   -1.3816    1.3238 H   0  0  0  0  0  0  0  0  0  0  0  0
    1.5838    0.4461   -1.0129 H   0  0  0  0  0  0  0  0  0  0  0  0
    1.7599    0.9683    0.6729 H   0  0  0  0  0  0  0  0  0  0  0  0
   -0.5012    1.6994    0.0533 H   0  0  0  0  0  0  0  0  0  0  0  0
   -2.4470   -0.4280    0.6559 H   0  0  0  0  0  0  0  0  0  0  0  0
   -4.6520    2.1989    1.9537 H   0  0  0  0  0  0  0  0  0  0  0  0
   -3.8818    0.8230    2.7731 H   0  0  0  0  0  0  0  0  0  0  0  0
   -4.5653   -3.3358   -0.3343 H   0  0  0  0  0  0  0  0  0  0  0  0
   -5.6643   -3.5117    1.0507 H   0  0  0  0  0  0  0  0  0  0  0  0
   -6.3192   -3.3092   -0.5828 H   0  0  0  0  0  0  0  0  0  0  0  0
   -7.1770   -0.7471   -0.9950 H   0  0  0  0  0  0  0  0  0  0  0  0
   -5.6388    2.6651   -0.4259 H   0  0  0  0  0  0  0  0  0  0  0  0
   -7.2258    2.0048   -0.8441 H   0  0  0  0  0  0  0  0  0  0  0  0
   -6.8775    2.4511    0.8328 H   0  0  0  0  0  0  0  0  0  0  0  0
    3.8705   -1.2430   -2.0691 H   0  0  0  0  0  0  0  0  0  0  0  0
    6.1561   -0.5460   -2.5479 H   0  0  0  0  0  0  0  0  0  0  0  0
  1  2  1  0
  2  3  1  0
  3  4  2  0
  4  5  1  0
  5  6  2  0
  6  7  1  0
  7  8  1  0
  8  9  1  0
  9 10  2  0
  9 11  1  0
 11 12  1  0
 12 13  1  0
 13 14  2  0
 13 15  1  0
 15 16  1  0
 16 17  1  0
 17 18  2  0
 18 19  1  0
 18 20  1  0
 20 21  2  0
 21 22  1  0
  6 23  1  0
 23 24  2  0
 24  3  1  0
 21 16  1  0
  1 25  1  0
  1 26  1  0
  1 27  1  0
  4 28  1  0
  5 29  1  0
  7 30  1  0
  7 31  1  0
  8 32  1  0
  8 33  1  0
 11 34  1  0
 12 35  1  0
 15 36  1  0
 15 37  1  0
 19 38  1  0
 19 39  1  0
 19 40  1  0
 20 41  1  0
 22 42  1  0
 22 43  1  0
 22 44  1  0
 23 45  1  0
 24 46  1  0
M  END
$$$$
