
     RDKit          3D

 42 44  0  0  0  0  0  0  0  0999 V2000
   -2.0544   -0.6666    2.5727 C   0  0  0  0  0  0  0  0  0  0  0  0
   -3.0367    0.2197    1.8306 C   0  0  0  0  0  0  0  0  0  0  0  0
   -3.5490    1.1671    2.4336 O   0  0  0  0  0  0  0  0  0  0  0  0
   -3.3437   -0.1476    0.5031 N   0  0  0  0  0  0  0  0  0  0  0  0
   -2.4010   -0.7482   -0.3353 C   0  0  0  0  0  0  0  0  0  0  0  0
   -1.0906   -0.4774   -0.4588 C   0  0  0  0  0  0  0  0  0  0  0  0
   -0.3621    0.6245    0.1354 C   0  0  0  0  0  0  0  0  0  0  0  0
    0.9689    0.8078    0.1511 C   0  0  0  0  0  0  0  0  0  0  0  0
    1.9833   -0.0863   -0.3746 C   0  0  0  0  0  0  0  0  0  0  0  0
    3.3084    0.1228   -0.3793 C   0  0  0  0  0  0  0  0  0  0  0  0
    4.1697    1.5056    0.2259 S   0  0  0  0  0  0  0  0  0  0  0  0
    5.7294    0.8070   -0.2412 C   0  0  0  0  0  0  0  0  0  0  0  0
    6.9765    1.3873   -0.0581 C   0  0  0  0  0  0  0  0  0  0  0  0
    8.1136    0.6944   -0.4885 C   0  0  0  0  0  0  0  0  0  0  0  0
    7.9975   -0.5655   -1.0951 C   0  0  0  0  0  0  0  0  0  0  0  0
    6.7422   -1.1465   -1.2779 C   0  0  0  0  0  0  0  0  0  0  0  0
    5.6263   -0.4428   -0.8439 C   0  0  0  0  0  0  0  0  0  0  0  0
    4.2363   -0.8996   -0.9552 C   0  0  0  0  0  0  0  0  0  0  0  0
    3.9102   -1.9648   -1.4514 O   0  0  0  0  0  0  0  0  0  0  0  0
   -4.7034    0.0427    0.0250 C   0  0  0  0  0  0  0  0  0  0  0  0
   -4.9855    0.0517   -1.3545 C   0  0  0  0  0  0  0  0  0  0  0  0
   -6.2909    0.2163   -1.8319 C   0  0  0  0  0  0  0  0  0  0  0  0
   -7.3449    0.3748   -0.9396 C   0  0  0  0  0  0  0  0  0  0  0  0
   -7.0926    0.3723    0.4277 C   0  0  0  0  0  0  0  0  0  0  0  0
   -5.7861    0.2086    0.9040 C   0  0  0  0  0  0  0  0  0  0  0  0
   -1.8930   -1.6272    2.0791 H   0  0  0  0  0  0  0  0  0  0  0  0
   -1.1045   -0.1452    2.7069 H   0  0  0  0  0  0  0  0  0  0  0  0
   -2.4736   -0.8855    3.5605 H   0  0  0  0  0  0  0  0  0  0  0  0
   -2.8156   -1.5070   -0.9984 H   0  0  0  0  0  0  0  0  0  0  0  0
   -0.5383   -1.0913   -1.1681 H   0  0  0  0  0  0  0  0  0  0  0  0
   -0.9668    1.4129    0.5849 H   0  0  0  0  0  0  0  0  0  0  0  0
    1.3246    1.7232    0.6241 H   0  0  0  0  0  0  0  0  0  0  0  0
    1.6313   -1.0247   -0.7989 H   0  0  0  0  0  0  0  0  0  0  0  0
    7.0754    2.3623    0.4106 H   0  0  0  0  0  0  0  0  0  0  0  0
    9.0986    1.1367   -0.3516 H   0  0  0  0  0  0  0  0  0  0  0  0
    8.8913   -1.0915   -1.4242 H   0  0  0  0  0  0  0  0  0  0  0  0
    6.6375   -2.1211   -1.7460 H   0  0  0  0  0  0  0  0  0  0  0  0
   -4.1916   -0.0332   -2.0915 H   0  0  0  0  0  0  0  0  0  0  0  0
   -6.4787    0.2300   -2.9025 H   0  0  0  0  0  0  0  0  0  0  0  0
   -8.3589    0.5065   -1.3075 H   0  0  0  0  0  0  0  0  0  0  0  0
   -7.9103    0.4992    1.1329 H   0  0  0  0  0  0  0  0  0  0  0  0
   -5.6487    0.1986    1.9820 H   0  0  0  0  0  0  0  0  0  0  0  0
  1  2  1  0
  2  3  2  0
  2  4  1  0
  4  5  1  0
  5  6  2  3
  6  7  1  0
  7  8  2  3
  8  9  1  0
  9 10  2  3
 10 11  1  0
 11 12  1  0
 12 13  2  0
 13 14  1  0
 14 15  2  0
 15 16  1  0
 16 17  2  0
 17 18  1  0
 18 19  2  0
  4 20  1  0
 20 21  2  0
 21 22  1  0
 22 23  2  0
 23 24  1  0
 24 25  2  0
 18 10  1  0
 25 20  1  0
 17 12  1  0
  1 26  1  0
  1 27  1  0
  1 28  1  0
  5 29  1  0
  6 30  1  0
  7 31  1  0
  8 32  1  0
  9 33  1  0
 13 34  1  0
 14 35  1  0
 15 36  1  0
 16 37  1  0
 21 38  1  0
 22 39  1  0
 23 40  1  0
 24 41  1  0
 25 42  1  0
M  END
$$$$
