
     RDKit          3D

 43 45  0  0  0  0  0  0  0  0999 V2000
    6.3047    0.3677    2.7035 C   0  0  0  0  0  0  0  0  0  0  0  0
    5.5402    0.2736    1.4155 C   0  0  0  0  0  0  0  0  0  0  0  0
    6.2158    0.1253    0.1990 C   0  0  0  0  0  0  0  0  0  0  0  0
    5.5055    0.0115   -1.0004 C   0  0  0  0  0  0  0  0  0  0  0  0
    6.2337   -0.1742   -2.2987 C   0  0  0  0  0  0  0  0  0  0  0  0
    4.1040    0.0130   -0.9657 C   0  0  0  0  0  0  0  0  0  0  0  0
    3.4096    0.1491    0.2443 C   0  0  0  0  0  0  0  0  0  0  0  0
    1.9996    0.1344    0.1812 N   0  0  0  0  0  0  0  0  0  0  0  0
    1.1091    0.3241    1.2223 C   0  0  0  0  0  0  0  0  0  0  0  0
    1.3789    0.6097    2.3826 O   0  0  0  0  0  0  0  0  0  0  0  0
   -0.3288    0.2032    0.8463 C   0  0  0  0  0  0  0  0  0  0  0  0
   -1.2609    1.0181    1.4954 C   0  0  0  0  0  0  0  0  0  0  0  0
   -2.6178    0.9329    1.1681 C   0  0  0  0  0  0  0  0  0  0  0  0
   -3.0634    0.0281    0.1962 C   0  0  0  0  0  0  0  0  0  0  0  0
   -4.4431    0.0082   -0.0743 N   0  0  0  0  0  0  0  0  0  0  0  0
   -5.1309   -0.7694   -0.9897 C   0  0  0  0  0  0  0  0  0  0  0  0
   -4.6259   -1.5915   -1.7471 O   0  0  0  0  0  0  0  0  0  0  0  0
   -6.5604   -0.5105   -0.9758 C   0  0  0  0  0  0  0  0  0  0  0  0
   -7.5924   -1.0591   -1.7137 C   0  0  0  0  0  0  0  0  0  0  0  0
   -8.7839   -0.4296   -1.2811 C   0  0  0  0  0  0  0  0  0  0  0  0
   -8.4118    0.4652   -0.3064 C   0  0  0  0  0  0  0  0  0  0  0  0
   -7.0683    0.4276   -0.1110 O   0  0  0  0  0  0  0  0  0  0  0  0
   -2.1309   -0.7984   -0.4348 C   0  0  0  0  0  0  0  0  0  0  0  0
   -0.7704   -0.7175   -0.1099 C   0  0  0  0  0  0  0  0  0  0  0  0
    4.1366    0.2727    1.4292 C   0  0  0  0  0  0  0  0  0  0  0  0
    6.4416   -0.6304    3.1308 H   0  0  0  0  0  0  0  0  0  0  0  0
    7.2885    0.8212    2.5427 H   0  0  0  0  0  0  0  0  0  0  0  0
    5.7737    0.9946    3.4275 H   0  0  0  0  0  0  0  0  0  0  0  0
    7.3038    0.0994    0.1874 H   0  0  0  0  0  0  0  0  0  0  0  0
    6.3860   -1.2403   -2.4930 H   0  0  0  0  0  0  0  0  0  0  0  0
    5.6676    0.2603   -3.1294 H   0  0  0  0  0  0  0  0  0  0  0  0
    7.2085    0.3242   -2.2753 H   0  0  0  0  0  0  0  0  0  0  0  0
    3.5573   -0.0952   -1.8993 H   0  0  0  0  0  0  0  0  0  0  0  0
    1.6084    0.0397   -0.7463 H   0  0  0  0  0  0  0  0  0  0  0  0
   -0.9324    1.7230    2.2572 H   0  0  0  0  0  0  0  0  0  0  0  0
   -3.3175    1.5834    1.6876 H   0  0  0  0  0  0  0  0  0  0  0  0
   -5.0288    0.6423    0.4597 H   0  0  0  0  0  0  0  0  0  0  0  0
   -7.4828   -1.8236   -2.4715 H   0  0  0  0  0  0  0  0  0  0  0  0
   -9.7899   -0.6065   -1.6357 H   0  0  0  0  0  0  0  0  0  0  0  0
   -8.9560    1.1661    0.3120 H   0  0  0  0  0  0  0  0  0  0  0  0
   -2.4296   -1.5310   -1.1787 H   0  0  0  0  0  0  0  0  0  0  0  0
   -0.0798   -1.4042   -0.5924 H   0  0  0  0  0  0  0  0  0  0  0  0
    3.6327    0.3629    2.3869 H   0  0  0  0  0  0  0  0  0  0  0  0
  1  2  1  0
  2  3  2  0
  3  4  1  0
  4  5  1  0
  4  6  2  0
  6  7  1  0
  7  8  1  0
  8  9  1  0
  9 10  2  0
  9 11  1  0
 11 12  2  0
 12 13  1  0
 13 14  2  0
 14 15  1  0
 15 16  1  0
 16 17  2  0
 16 18  1  0
 18 19  2  0
 19 20  1  0
 20 21  2  0
 21 22  1  0
 14 23  1  0
 23 24  2  0
  7 25  2  0
 25  2  1  0
 24 11  1  0
 22 18  1  0
  1 26  1  0
  1 27  1  0
  1 28  1  0
  3 29  1  0
  5 30  1  0
  5 31  1  0
  5 32  1  0
  6 33  1  0
  8 34  1  0
 12 35  1  0
 13 36  1  0
 15 37  1  0
 19 38  1  0
 20 39  1  0
 21 40  1  0
 23 41  1  0
 24 42  1  0
 25 43  1  0
M  END
$$$$
