
     RDKit          3D

 37 38  0  0  0  0  0  0  0  0999 V2000
   -5.6037   -1.5767   -1.2931 C   0  0  0  0  0  0  0  0  0  0  0  0
   -5.0751   -0.2281   -1.0918 N   0  0  0  0  0  0  0  0  0  0  0  0
   -5.7924    0.8401   -1.7868 C   0  0  0  0  0  0  0  0  0  0  0  0
   -3.7194   -0.0624   -0.7937 C   0  0  0  0  0  0  0  0  0  0  0  0
   -2.9139   -1.1277   -0.3565 C   0  0  0  0  0  0  0  0  0  0  0  0
   -1.5561   -0.9645   -0.0365 C   0  0  0  0  0  0  0  0  0  0  0  0
   -0.9449    0.2839   -0.1429 C   0  0  0  0  0  0  0  0  0  0  0  0
    0.4624    0.5110    0.2146 C   0  0  0  0  0  0  0  0  0  0  0  0
    1.4498   -0.3511   -0.0781 C   0  0  0  0  0  0  0  0  0  0  0  0
    2.8569   -0.1322    0.2756 C   0  0  0  0  0  0  0  0  0  0  0  0
    3.4636    1.1197    0.1840 C   0  0  0  0  0  0  0  0  0  0  0  0
    4.8085    1.2608    0.5074 C   0  0  0  0  0  0  0  0  0  0  0  0
    5.5362    0.1944    0.9070 N   0  0  0  0  0  4  0  0  0  0  0  0
    6.9612    0.3671    1.2365 C   0  0  0  0  0  0  0  0  0  0  0  0
    4.9767   -1.0336    0.9808 C   0  0  0  0  0  0  0  0  0  0  0  0
    3.6356   -1.2207    0.6648 C   0  0  0  0  0  0  0  0  0  0  0  0
   -1.7283    1.3646   -0.5443 C   0  0  0  0  0  0  0  0  0  0  0  0
   -3.0847    1.1894   -0.8626 C   0  0  0  0  0  0  0  0  0  0  0  0
   -5.5118   -2.1780   -0.3823 H   0  0  0  0  0  0  0  0  0  0  0  0
   -6.6731   -1.5551   -1.5313 H   0  0  0  0  0  0  0  0  0  0  0  0
   -5.0915   -2.0802   -2.1204 H   0  0  0  0  0  0  0  0  0  0  0  0
   -6.8432    0.5749   -1.9492 H   0  0  0  0  0  0  0  0  0  0  0  0
   -5.8044    1.7606   -1.1932 H   0  0  0  0  0  0  0  0  0  0  0  0
   -5.3464    1.0395   -2.7674 H   0  0  0  0  0  0  0  0  0  0  0  0
   -3.3269   -2.1251   -0.2392 H   0  0  0  0  0  0  0  0  0  0  0  0
   -1.0022   -1.8313    0.3135 H   0  0  0  0  0  0  0  0  0  0  0  0
    0.6557    1.4445    0.7372 H   0  0  0  0  0  0  0  0  0  0  0  0
    1.2282   -1.2798   -0.6020 H   0  0  0  0  0  0  0  0  0  0  0  0
    2.9021    1.9901   -0.1499 H   0  0  0  0  0  0  0  0  0  0  0  0
    5.3119    2.2215    0.4435 H   0  0  0  0  0  0  0  0  0  0  0  0
    7.5302    0.2203    0.3152 H   0  0  0  0  0  0  0  0  0  0  0  0
    7.2460   -0.3694    1.9924 H   0  0  0  0  0  0  0  0  0  0  0  0
    7.1173    1.3728    1.6353 H   0  0  0  0  0  0  0  0  0  0  0  0
    5.6098   -1.8602    1.2909 H   0  0  0  0  0  0  0  0  0  0  0  0
    3.2032   -2.2176    0.7333 H   0  0  0  0  0  0  0  0  0  0  0  0
   -1.3032    2.3624   -0.6212 H   0  0  0  0  0  0  0  0  0  0  0  0
   -3.6340    2.0765   -1.1638 H   0  0  0  0  0  0  0  0  0  0  0  0
  1  2  1  0
  2  3  1  0
  2  4  1  0
  4  5  2  0
  5  6  1  0
  6  7  2  0
  7  8  1  0
  8  9  2  3
  9 10  1  0
 10 11  2  0
 11 12  1  0
 12 13  2  0
 13 14  1  0
 13 15  1  0
 15 16  2  0
  7 17  1  0
 17 18  2  0
 18  4  1  0
 16 10  1  0
  1 19  1  0
  1 20  1  0
  1 21  1  0
  3 22  1  0
  3 23  1  0
  3 24  1  0
  5 25  1  0
  6 26  1  0
  8 27  1  0
  9 28  1  0
 11 29  1  0
 12 30  1  0
 14 31  1  0
 14 32  1  0
 14 33  1  0
 15 34  1  0
 16 35  1  0
 17 36  1  0
 18 37  1  0
M  CHG  1  13   1
M  END
$$$$
