
     RDKit          3D

 80 86  0  0  0  0  0  0  0  0999 V2000
    7.5452   -0.7424    2.3304 C   0  0  0  0  0  0  0  0  0  0  0  0
    6.3342   -1.2253    3.1359 C   0  0  0  0  0  0  0  0  0  0  0  0
    6.5785   -2.6812    3.5619 C   0  0  0  0  0  0  0  0  0  0  0  0
    6.1067   -0.3807    4.3941 C   0  0  0  0  0  0  0  0  0  0  0  0
    5.1397   -1.2805    2.3149 O   0  0  0  0  0  0  0  0  0  0  0  0
    4.6250   -0.1594    1.7468 C   0  0  0  0  0  0  0  0  0  0  0  0
    5.1006    0.9605    1.8804 O   0  0  0  0  0  0  0  0  0  0  0  0
    3.4905   -0.4271    0.9961 N   0  0  0  0  0  0  0  0  0  0  0  0
    2.7684   -1.6931    1.1224 C   0  0  0  0  0  0  0  0  0  0  0  0
    1.9357   -2.0308   -0.1232 C   0  0  0  0  0  0  0  0  0  0  0  0
    1.1549   -0.9374   -0.6597 N   0  0  0  0  0  0  0  0  0  0  0  0
    1.8208    0.3975   -0.7042 C   0  0  2  0  0  0  0  0  0  0  0  0
    2.7078    0.7145    0.5175 C   0  0  0  0  0  0  0  0  0  0  0  0
    0.6467    1.2974   -0.8009 C   0  0  0  0  0  0  0  0  0  0  0  0
   -0.5585    0.6048   -0.6223 C   0  0  0  0  0  0  0  0  0  0  0  0
   -1.5880    1.5050   -0.7079 C   0  0  0  0  0  0  0  0  0  0  0  0
   -2.9033    1.3735   -0.5857 O   0  0  0  0  0  0  0  0  0  0  0  0
   -1.0103    2.7419   -0.9817 N   0  0  0  0  0  0  0  0  0  0  0  0
   -1.7878    3.9625   -1.1647 C   0  0  0  0  0  0  0  0  0  0  0  0
   -2.2393    4.1346   -2.5947 C   0  0  0  0  0  0  0  0  0  0  0  0
   -1.4113    4.7395   -3.5513 C   0  0  0  0  0  0  0  0  0  0  0  0
   -1.8402    4.8803   -4.8731 C   0  0  0  0  0  0  0  0  0  0  0  0
   -3.0971    4.4164   -5.2550 C   0  0  0  0  0  0  0  0  0  0  0  0
   -3.9266    3.8075   -4.3169 C   0  0  0  0  0  0  0  0  0  0  0  0
   -3.5000    3.6655   -2.9958 C   0  0  0  0  0  0  0  0  0  0  0  0
    0.3769    2.6232   -1.0016 C   0  0  0  0  0  0  0  0  0  0  0  0
    1.2330    3.6208   -1.1826 O   0  0  0  0  0  0  0  0  0  0  0  0
   -0.2983   -0.8363   -0.4015 C   0  0  1  0  0  0  0  0  0  0  0  0
   -1.1199   -1.7459   -1.3521 C   0  0  0  0  0  0  0  0  0  0  0  0
   -1.0463   -1.8275   -2.5713 O   0  0  0  0  0  0  0  0  0  0  0  0
   -2.0165   -2.4620   -0.5386 N   0  0  0  0  0  0  0  0  0  0  0  0
   -3.0933   -3.2596   -1.0803 C   0  0  0  0  0  0  0  0  0  0  0  0
   -4.3627   -2.4490   -1.2352 C   0  0  0  0  0  0  0  0  0  0  0  0
   -5.4538   -2.6491   -0.3781 C   0  0  0  0  0  0  0  0  0  0  0  0
   -6.6027   -1.8646   -0.4983 C   0  0  0  0  0  0  0  0  0  0  0  0
   -6.6742   -0.8730   -1.4743 C   0  0  0  0  0  0  0  0  0  0  0  0
   -5.6010   -0.6694   -2.3384 C   0  0  0  0  0  0  0  0  0  0  0  0
   -4.4540   -1.4553   -2.2229 C   0  0  0  0  0  0  0  0  0  0  0  0
   -1.8481   -2.1391    0.8165 C   0  0  0  0  0  0  0  0  0  0  0  0
   -2.5428   -2.6296    1.9085 C   0  0  0  0  0  0  0  0  0  0  0  0
   -2.2160   -2.1359    3.1737 C   0  0  0  0  0  0  0  0  0  0  0  0
   -1.2158   -1.1648    3.3264 C   0  0  0  0  0  0  0  0  0  0  0  0
   -0.5224   -0.6776    2.2166 C   0  0  0  0  0  0  0  0  0  0  0  0
   -0.8361   -1.1810    0.9605 C   0  0  0  0  0  0  0  0  0  0  0  0
    7.4631    0.3147    2.0601 H   0  0  0  0  0  0  0  0  0  0  0  0
    8.4744   -0.8626    2.8979 H   0  0  0  0  0  0  0  0  0  0  0  0
    7.6352   -1.3007    1.3916 H   0  0  0  0  0  0  0  0  0  0  0  0
    5.7163   -3.0765    4.1118 H   0  0  0  0  0  0  0  0  0  0  0  0
    6.7076   -3.3270    2.6855 H   0  0  0  0  0  0  0  0  0  0  0  0
    7.4664   -2.7764    4.1959 H   0  0  0  0  0  0  0  0  0  0  0  0
    5.9974    0.6823    4.1594 H   0  0  0  0  0  0  0  0  0  0  0  0
    6.9433   -0.4769    5.0946 H   0  0  0  0  0  0  0  0  0  0  0  0
    5.1865   -0.6852    4.9058 H   0  0  0  0  0  0  0  0  0  0  0  0
    3.4692   -2.5142    1.3055 H   0  0  0  0  0  0  0  0  0  0  0  0
    2.1318   -1.6136    2.0092 H   0  0  0  0  0  0  0  0  0  0  0  0
    2.6384   -2.3324   -0.9110 H   0  0  0  0  0  0  0  0  0  0  0  0
    1.3194   -2.9167    0.0675 H   0  0  0  0  0  0  0  0  0  0  0  0
    2.4233    0.4438   -1.6188 H   0  0  0  0  0  0  0  0  0  0  0  0
    3.3783    1.5463    0.2688 H   0  0  0  0  0  0  0  0  0  0  0  0
    2.1052    1.0524    1.3699 H   0  0  0  0  0  0  0  0  0  0  0  0
   -3.1088    0.4280   -0.4594 H   0  0  0  0  0  0  0  0  0  0  0  0
   -2.6455    3.9264   -0.4822 H   0  0  0  0  0  0  0  0  0  0  0  0
   -1.1850    4.8168   -0.8404 H   0  0  0  0  0  0  0  0  0  0  0  0
   -0.4217    5.0997   -3.2847 H   0  0  0  0  0  0  0  0  0  0  0  0
   -1.1883    5.3448   -5.6085 H   0  0  0  0  0  0  0  0  0  0  0  0
   -3.4258    4.5207   -6.2856 H   0  0  0  0  0  0  0  0  0  0  0  0
   -4.9025    3.4345   -4.6147 H   0  0  0  0  0  0  0  0  0  0  0  0
   -4.1537    3.1723   -2.2785 H   0  0  0  0  0  0  0  0  0  0  0  0
    0.7617    4.4547   -1.3268 H   0  0  0  0  0  0  0  0  0  0  0  0
   -3.2538   -4.1377   -0.4444 H   0  0  0  0  0  0  0  0  0  0  0  0
   -2.7997   -3.6414   -2.0657 H   0  0  0  0  0  0  0  0  0  0  0  0
   -5.4193   -3.4152    0.3920 H   0  0  0  0  0  0  0  0  0  0  0  0
   -7.4429   -2.0251    0.1727 H   0  0  0  0  0  0  0  0  0  0  0  0
   -7.5676   -0.2608   -1.5645 H   0  0  0  0  0  0  0  0  0  0  0  0
   -5.6528    0.1023   -3.1023 H   0  0  0  0  0  0  0  0  0  0  0  0
   -3.6258   -1.2817   -2.9097 H   0  0  0  0  0  0  0  0  0  0  0  0
   -3.3209   -3.3765    1.8086 H   0  0  0  0  0  0  0  0  0  0  0  0
   -2.7476   -2.5001    4.0502 H   0  0  0  0  0  0  0  0  0  0  0  0
   -0.9853   -0.7800    4.3178 H   0  0  0  0  0  0  0  0  0  0  0  0
    0.2311    0.0929    2.3419 H   0  0  0  0  0  0  0  0  0  0  0  0
  1  2  1  0
  2  3  1  0
  2  4  1  0
  2  5  1  0
  5  6  1  0
  6  7  2  0
  6  8  1  0
  8  9  1  0
  9 10  1  0
 10 11  1  0
 11 12  1  0
 12 13  1  0
 12 14  1  0
 14 15  1  0
 15 16  2  0
 16 17  1  0
 16 18  1  0
 18 19  1  0
 19 20  1  0
 20 21  2  0
 21 22  1  0
 22 23  2  0
 23 24  1  0
 24 25  2  0
 18 26  1  0
 26 27  1  0
 15 28  1  0
 28 29  1  0
 29 30  2  0
 29 31  1  0
 31 32  1  0
 32 33  1  0
 33 34  2  0
 34 35  1  0
 35 36  2  0
 36 37  1  0
 37 38  2  0
 31 39  1  0
 39 40  2  0
 40 41  1  0
 41 42  2  0
 42 43  1  0
 43 44  2  0
 13  8  1  0
 26 14  2  0
 44 28  1  0
 28 11  1  1
 38 33  1  0
 44 39  1  0
 25 20  1  0
  1 45  1  0
  1 46  1  0
  1 47  1  0
  3 48  1  0
  3 49  1  0
  3 50  1  0
  4 51  1  0
  4 52  1  0
  4 53  1  0
  9 54  1  0
  9 55  1  0
 10 56  1  0
 10 57  1  0
 12 58  1  6
 13 59  1  0
 13 60  1  0
 17 61  1  0
 19 62  1  0
 19 63  1  0
 21 64  1  0
 22 65  1  0
 23 66  1  0
 24 67  1  0
 25 68  1  0
 27 69  1  0
 32 70  1  0
 32 71  1  0
 34 72  1  0
 35 73  1  0
 36 74  1  0
 37 75  1  0
 38 76  1  0
 40 77  1  0
 41 78  1  0
 42 79  1  0
 43 80  1  0
M  END
$$$$
