
     RDKit          3D

 37 38  0  0  0  0  0  0  0  0999 V2000
   -0.0339    1.0397   -0.1122 O   0  0  0  0  0  0  0  0  0  0  0  0
    0.5178    0.0900   -0.6700 C   0  0  0  0  0  0  0  0  0  0  0  0
   -0.1480   -1.2784   -0.7855 C   0  0  0  0  0  0  0  0  0  0  0  0
   -1.4807   -1.1770   -0.2790 O   0  0  0  0  0  0  0  0  0  0  0  0
   -2.3669   -0.6503   -1.1576 C   0  0  0  0  0  0  0  0  0  0  0  0
   -2.2158   -0.5298   -2.3607 O   0  0  0  0  0  0  0  0  0  0  0  0
   -3.5835   -0.2488   -0.4297 C   0  0  0  0  0  0  0  0  0  0  0  0
   -4.8170   -0.5998   -0.9971 C   0  0  0  0  0  0  0  0  0  0  0  0
   -6.0064   -0.2636   -0.3468 C   0  0  0  0  0  0  0  0  0  0  0  0
   -5.9610    0.4288    0.8629 C   0  0  0  0  0  0  0  0  0  0  0  0
   -7.4274    0.8375    1.6648 Cl  0  0  0  0  0  0  0  0  0  0  0  0
   -4.7388    0.7996    1.4219 C   0  0  0  0  0  0  0  0  0  0  0  0
   -3.5484    0.4740    0.7700 C   0  0  0  0  0  0  0  0  0  0  0  0
   -2.4070    0.9262    1.3741 O   0  0  0  0  0  0  0  0  0  0  0  0
    1.7754    0.1600   -1.2273 N   0  0  0  0  0  0  0  0  0  0  0  0
    2.5996    1.3453   -1.0640 C   0  0  0  0  0  0  0  0  0  0  0  0
    3.2252    1.4492    0.3343 C   0  0  0  0  0  0  0  0  0  0  0  0
    4.1621    0.3694    0.6090 N   0  0  0  0  0  0  0  0  0  0  0  0
    3.8622   -0.7444    1.3544 C   0  0  0  0  0  0  0  0  0  0  0  0
    2.6085   -0.8851    1.8671 O   0  0  0  0  0  0  0  0  0  0  0  0
    4.8748   -1.6077    1.4948 C   0  0  0  0  0  0  0  0  0  0  0  0
    6.2940   -1.0558    0.6578 S   0  0  0  0  0  0  0  0  0  0  0  0
    5.4530    0.4049    0.1062 C   0  0  0  0  0  0  0  0  0  0  0  0
    5.9613    1.2552   -0.6050 O   0  0  0  0  0  0  0  0  0  0  0  0
   -0.1234   -1.6434   -1.8178 H   0  0  0  0  0  0  0  0  0  0  0  0
    0.3969   -1.9848   -0.1516 H   0  0  0  0  0  0  0  0  0  0  0  0
   -4.8528   -1.1380   -1.9424 H   0  0  0  0  0  0  0  0  0  0  0  0
   -6.9608   -0.5419   -0.7870 H   0  0  0  0  0  0  0  0  0  0  0  0
   -4.7050    1.3543    2.3559 H   0  0  0  0  0  0  0  0  0  0  0  0
   -1.6358    0.8895    0.7661 H   0  0  0  0  0  0  0  0  0  0  0  0
    2.2392   -0.6963   -1.5021 H   0  0  0  0  0  0  0  0  0  0  0  0
    1.9777    2.2279   -1.2501 H   0  0  0  0  0  0  0  0  0  0  0  0
    3.3730    1.3042   -1.8381 H   0  0  0  0  0  0  0  0  0  0  0  0
    2.4554    1.4811    1.1132 H   0  0  0  0  0  0  0  0  0  0  0  0
    3.7797    2.3938    0.3939 H   0  0  0  0  0  0  0  0  0  0  0  0
    2.6060   -1.6449    2.4745 H   0  0  0  0  0  0  0  0  0  0  0  0
    4.8511   -2.5409    2.0379 H   0  0  0  0  0  0  0  0  0  0  0  0
  1  2  2  0
  2  3  1  0
  3  4  1  0
  4  5  1  0
  5  6  2  0
  5  7  1  0
  7  8  2  0
  8  9  1  0
  9 10  2  0
 10 11  1  0
 10 12  1  0
 12 13  2  0
 13 14  1  0
  2 15  1  0
 15 16  1  0
 16 17  1  0
 17 18  1  0
 18 19  1  0
 19 20  1  0
 19 21  2  0
 21 22  1  0
 22 23  1  0
 23 24  2  0
 13  7  1  0
 23 18  1  0
  3 25  1  0
  3 26  1  0
  8 27  1  0
  9 28  1  0
 12 29  1  0
 14 30  1  0
 15 31  1  0
 16 32  1  0
 16 33  1  0
 17 34  1  0
 17 35  1  0
 20 36  1  0
 21 37  1  0
M  END
$$$$
