
     RDKit          3D

 44 46  0  0  0  0  0  0  0  0999 V2000
   -2.5345    0.6382    4.2789 C   0  0  0  0  0  0  0  0  0  0  0  0
   -2.2893   -0.1287    3.0070 C   0  0  0  0  0  0  0  0  0  0  0  0
   -1.0923   -0.8520    2.8611 C   0  0  0  0  0  0  0  0  0  0  0  0
   -0.7968   -1.5888    1.6982 C   0  0  0  0  0  0  0  0  0  0  0  0
    0.5004   -2.3453    1.6580 C   0  0  0  0  0  0  0  0  0  0  0  0
   -1.7394   -1.5795    0.6585 C   0  0  0  0  0  0  0  0  0  0  0  0
   -1.5243   -2.4475   -0.8932 S   0  0  0  0  0  6  0  0  0  0  0  0
   -2.8086   -3.0262   -1.2371 O   0  0  0  0  0  0  0  0  0  0  0  0
   -0.3358   -3.2692   -0.8532 O   0  0  0  0  0  0  0  0  0  0  0  0
   -1.2817   -1.1912   -2.0004 N   0  0  0  0  0  0  0  0  0  0  0  0
   -0.2630   -0.2269   -1.7672 C   0  0  0  0  0  0  0  0  0  0  0  0
   -0.6334    1.1018   -1.5625 C   0  0  0  0  0  0  0  0  0  0  0  0
    0.3449    2.0631   -1.3160 C   0  0  0  0  0  0  0  0  0  0  0  0
    1.6892    1.6961   -1.2823 C   0  0  0  0  0  0  0  0  0  0  0  0
    2.5768    2.7097   -1.0464 O   0  0  0  0  0  0  0  0  0  0  0  0
    2.0785    0.3639   -1.4801 C   0  0  0  0  0  0  0  0  0  0  0  0
    3.7639   -0.2117   -1.3379 S   0  0  0  0  0  0  0  0  0  0  0  0
    4.5416    0.5878   -2.6721 C   0  0  0  0  0  0  0  0  0  0  0  0
    4.5642    1.9540   -2.7956 N   0  0  0  0  0  0  0  0  0  0  0  0
    5.2545    2.1347   -3.8987 C   0  0  0  0  0  0  0  0  0  0  0  0
    5.6373    0.9294   -4.3987 N   0  0  0  0  0  0  0  0  0  0  0  0
    5.1997   -0.0752   -3.6257 N   0  0  0  0  0  0  0  0  0  0  0  0
    1.0835   -0.5939   -1.7274 C   0  0  0  0  0  0  0  0  0  0  0  0
   -2.9500   -0.8747    0.8046 C   0  0  0  0  0  0  0  0  0  0  0  0
   -3.2322   -0.1423    1.9665 C   0  0  0  0  0  0  0  0  0  0  0  0
   -4.5340    0.6030    2.0742 C   0  0  0  0  0  0  0  0  0  0  0  0
   -3.4361    0.2698    4.7783 H   0  0  0  0  0  0  0  0  0  0  0  0
   -1.7020    0.5301    4.9820 H   0  0  0  0  0  0  0  0  0  0  0  0
   -2.6461    1.7054    4.0626 H   0  0  0  0  0  0  0  0  0  0  0  0
   -0.3715   -0.8429    3.6791 H   0  0  0  0  0  0  0  0  0  0  0  0
    0.3146   -3.4209    1.5814 H   0  0  0  0  0  0  0  0  0  0  0  0
    1.0828   -2.1914    2.5732 H   0  0  0  0  0  0  0  0  0  0  0  0
    1.1264   -2.0044    0.8305 H   0  0  0  0  0  0  0  0  0  0  0  0
   -2.1571   -0.8767   -2.4130 H   0  0  0  0  0  0  0  0  0  0  0  0
   -1.6774    1.4022   -1.5817 H   0  0  0  0  0  0  0  0  0  0  0  0
    0.0638    3.1000   -1.1531 H   0  0  0  0  0  0  0  0  0  0  0  0
    3.4375    2.4518   -1.4395 H   0  0  0  0  0  0  0  0  0  0  0  0
    5.5004    3.0781   -4.3672 H   0  0  0  0  0  0  0  0  0  0  0  0
    6.1799    0.7207   -5.2303 H   0  0  0  0  0  0  0  0  0  0  0  0
    1.3621   -1.6333   -1.8907 H   0  0  0  0  0  0  0  0  0  0  0  0
   -3.6848   -0.9003    0.0009 H   0  0  0  0  0  0  0  0  0  0  0  0
   -4.3494    1.6731    2.2110 H   0  0  0  0  0  0  0  0  0  0  0  0
   -5.1220    0.2224    2.9155 H   0  0  0  0  0  0  0  0  0  0  0  0
   -5.1403    0.4878    1.1691 H   0  0  0  0  0  0  0  0  0  0  0  0
  1  2  1  0
  2  3  2  0
  3  4  1  0
  4  5  1  0
  4  6  2  0
  6  7  1  0
  7  8  2  0
  7  9  2  0
  7 10  1  0
 10 11  1  0
 11 12  2  0
 12 13  1  0
 13 14  2  0
 14 15  1  0
 14 16  1  0
 16 17  1  0
 17 18  1  0
 18 19  1  0
 19 20  2  0
 20 21  1  0
 21 22  1  0
 16 23  2  0
  6 24  1  0
 24 25  2  0
 25 26  1  0
 25  2  1  0
 23 11  1  0
 22 18  2  0
  1 27  1  0
  1 28  1  0
  1 29  1  0
  3 30  1  0
  5 31  1  0
  5 32  1  0
  5 33  1  0
 10 34  1  0
 12 35  1  0
 13 36  1  0
 15 37  1  0
 20 38  1  0
 21 39  1  0
 23 40  1  0
 24 41  1  0
 26 42  1  0
 26 43  1  0
 26 44  1  0
M  END
$$$$
