
     RDKit          3D

 57 60  0  0  0  0  0  0  0  0999 V2000
    5.6001    1.3009   -2.5237 C   0  0  0  0  0  0  0  0  0  0  0  0
    4.4639    1.0518   -1.5888 C   0  0  0  0  0  0  0  0  0  0  0  0
    3.1175    1.1858   -1.8618 C   0  0  0  0  0  0  0  0  0  0  0  0
    2.4083    0.9393   -0.6702 C   0  0  0  0  0  0  0  0  0  0  0  0
    0.9878    0.9833   -0.5604 C   0  0  0  0  0  0  0  0  0  0  0  0
    0.2339   -0.0161   -0.0734 C   0  0  0  0  0  0  0  0  0  0  0  0
   -1.2297    0.0407   -0.0293 C   0  0  0  0  0  0  0  0  0  0  0  0
   -1.8370    1.0104    0.7699 C   0  0  0  0  0  0  0  0  0  0  0  0
   -3.2153    1.0582    0.8750 C   0  0  0  0  0  0  0  0  0  0  0  0
   -3.9894    0.1218    0.1965 C   0  0  0  0  0  0  0  0  0  0  0  0
   -5.3947    0.1471    0.3129 C   0  0  0  0  0  0  0  0  0  0  0  0
   -6.2334   -0.7730   -0.3371 C   0  0  0  0  0  0  0  0  0  0  0  0
   -7.6177   -0.7474   -0.1950 N   0  0  0  0  0  0  0  0  0  0  0  0
   -8.4629   -1.5414   -1.0900 C   0  0  0  0  0  0  0  0  0  0  0  0
   -8.2753    0.3967    0.4394 C   0  0  0  0  0  0  0  0  0  0  0  0
   -5.5824   -1.7488   -1.1030 C   0  0  0  0  0  0  0  0  0  0  0  0
   -4.1849   -1.7953   -1.2379 C   0  0  0  0  0  0  0  0  0  0  0  0
   -3.3578   -0.8587   -0.6020 C   0  0  0  0  0  0  0  0  0  0  0  0
   -1.9883   -0.8633   -0.7152 N   0  0  0  0  0  4  0  0  0  0  0  0
   -1.3405   -1.8473   -1.6180 C   0  0  0  0  0  0  0  0  0  0  0  0
    3.3287    0.6799    0.3345 C   0  0  0  0  0  0  0  0  0  0  0  0
    3.1042    0.3469    1.7762 C   0  0  0  0  0  0  0  0  0  0  0  0
    4.6070    0.7389   -0.2391 N   0  0  0  0  0  0  0  0  0  0  0  0
    5.8442    0.5211    0.4335 C   0  0  0  0  0  0  0  0  0  0  0  0
    6.8044   -0.3292   -0.1294 C   0  0  0  0  0  0  0  0  0  0  0  0
    8.0160   -0.5449    0.5295 C   0  0  0  0  0  0  0  0  0  0  0  0
    8.2744    0.0886    1.7448 C   0  0  0  0  0  0  0  0  0  0  0  0
    7.3229    0.9407    2.3037 C   0  0  0  0  0  0  0  0  0  0  0  0
    6.1077    1.1589    1.6515 C   0  0  0  0  0  0  0  0  0  0  0  0
    5.2641    1.8949   -3.3810 H   0  0  0  0  0  0  0  0  0  0  0  0
    6.4068    1.8617   -2.0415 H   0  0  0  0  0  0  0  0  0  0  0  0
    5.9952    0.3588   -2.9147 H   0  0  0  0  0  0  0  0  0  0  0  0
    2.7058    1.4490   -2.8298 H   0  0  0  0  0  0  0  0  0  0  0  0
    0.5140    1.8754   -0.9693 H   0  0  0  0  0  0  0  0  0  0  0  0
    0.6946   -0.9313    0.2886 H   0  0  0  0  0  0  0  0  0  0  0  0
   -1.2359    1.7284    1.3261 H   0  0  0  0  0  0  0  0  0  0  0  0
   -3.6759    1.8214    1.5028 H   0  0  0  0  0  0  0  0  0  0  0  0
   -5.8354    0.9170    0.9430 H   0  0  0  0  0  0  0  0  0  0  0  0
   -8.3086   -1.2488   -2.1347 H   0  0  0  0  0  0  0  0  0  0  0  0
   -9.5270   -1.4088   -0.8646 H   0  0  0  0  0  0  0  0  0  0  0  0
   -8.2608   -2.6116   -0.9746 H   0  0  0  0  0  0  0  0  0  0  0  0
   -7.9368    0.5216    1.4734 H   0  0  0  0  0  0  0  0  0  0  0  0
   -8.0856    1.3171   -0.1230 H   0  0  0  0  0  0  0  0  0  0  0  0
   -9.3609    0.2584    0.4924 H   0  0  0  0  0  0  0  0  0  0  0  0
   -6.1536   -2.5188   -1.6185 H   0  0  0  0  0  0  0  0  0  0  0  0
   -3.7902   -2.6018   -1.8486 H   0  0  0  0  0  0  0  0  0  0  0  0
   -1.8330   -1.7969   -2.5930 H   0  0  0  0  0  0  0  0  0  0  0  0
   -1.4463   -2.8354   -1.1627 H   0  0  0  0  0  0  0  0  0  0  0  0
   -0.2864   -1.6295   -1.7812 H   0  0  0  0  0  0  0  0  0  0  0  0
    3.2455    1.2344    2.4014 H   0  0  0  0  0  0  0  0  0  0  0  0
    3.7769   -0.4465    2.1158 H   0  0  0  0  0  0  0  0  0  0  0  0
    2.0883   -0.0119    1.9598 H   0  0  0  0  0  0  0  0  0  0  0  0
    6.6146   -0.8619   -1.0574 H   0  0  0  0  0  0  0  0  0  0  0  0
    8.7588   -1.2116    0.0978 H   0  0  0  0  0  0  0  0  0  0  0  0
    9.2204   -0.0784    2.2545 H   0  0  0  0  0  0  0  0  0  0  0  0
    7.5345    1.4453    3.2436 H   0  0  0  0  0  0  0  0  0  0  0  0
    5.4052    1.8641    2.0851 H   0  0  0  0  0  0  0  0  0  0  0  0
  1  2  1  0
  2  3  2  0
  3  4  1  0
  4  5  1  0
  5  6  2  3
  6  7  1  0
  7  8  2  0
  8  9  1  0
  9 10  2  0
 10 11  1  0
 11 12  2  0
 12 13  1  0
 13 14  1  0
 13 15  1  0
 12 16  1  0
 16 17  2  0
 17 18  1  0
 18 19  2  0
 19 20  1  0
  4 21  2  0
 21 22  1  0
 21 23  1  0
 23 24  1  0
 24 25  2  0
 25 26  1  0
 26 27  2  0
 27 28  1  0
 28 29  2  0
 23  2  1  0
 29 24  1  0
 19  7  1  0
 18 10  1  0
  1 30  1  0
  1 31  1  0
  1 32  1  0
  3 33  1  0
  5 34  1  0
  6 35  1  0
  8 36  1  0
  9 37  1  0
 11 38  1  0
 14 39  1  0
 14 40  1  0
 14 41  1  0
 15 42  1  0
 15 43  1  0
 15 44  1  0
 16 45  1  0
 17 46  1  0
 20 47  1  0
 20 48  1  0
 20 49  1  0
 22 50  1  0
 22 51  1  0
 22 52  1  0
 25 53  1  0
 26 54  1  0
 27 55  1  0
 28 56  1  0
 29 57  1  0
M  CHG  1  19   1
M  END
$$$$
