
     RDKit          3D

 43 45  0  0  0  0  0  0  0  0999 V2000
   -1.4816   -3.2713    2.0522 C   0  0  0  0  0  0  0  0  0  0  0  0
   -1.4129   -2.0613    1.1710 C   0  0  0  0  0  0  0  0  0  0  0  0
   -0.2040   -1.6435    0.6590 C   0  0  0  0  0  0  0  0  0  0  0  0
   -0.2162   -0.5230   -0.1456 C   0  0  0  0  0  0  0  0  0  0  0  0
    0.9581   -0.0266   -0.7360 N   0  0  0  0  0  0  0  0  0  0  0  0
    2.1522   -0.2380   -0.1210 N   0  0  0  0  0  0  0  0  0  0  0  0
    3.1444    0.4034   -0.6569 C   0  0  0  0  0  0  0  0  0  0  0  0
    4.5187    0.2897   -0.1135 C   0  0  0  0  0  0  0  0  0  0  0  0
    4.7456   -0.5593    0.9802 C   0  0  0  0  0  0  0  0  0  0  0  0
    6.0348   -0.7277    1.4974 C   0  0  0  0  0  0  0  0  0  0  0  0
    7.1164   -0.0550    0.9285 C   0  0  0  0  0  0  0  0  0  0  0  0
    6.9119    0.7967   -0.1553 C   0  0  0  0  0  0  0  0  0  0  0  0
    5.6138    0.9657   -0.6619 C   0  0  0  0  0  0  0  0  0  0  0  0
    5.4513    1.8791   -1.7725 N   0  0  0  0  0  4  0  0  0  0  0  0
    6.1101    1.6458   -2.7931 O   0  0  0  0  0  0  0  0  0  0  0  0
    4.6795    2.8325   -1.6133 O   0  0  0  0  0  1  0  0  0  0  0  0
   -1.3505    0.1307   -0.4361 N   0  0  0  0  0  0  0  0  0  0  0  0
   -2.4990   -0.3340    0.1023 C   0  0  0  0  0  0  0  0  0  0  0  0
   -3.7216    0.3762   -0.2034 N   0  0  0  0  0  0  0  0  0  0  0  0
   -3.7036    1.4890   -1.0025 N   0  0  0  0  0  0  0  0  0  0  0  0
   -4.9721    1.8934   -1.0776 C   0  0  0  0  0  0  0  0  0  0  0  0
   -5.3223    3.0941   -1.8734 C   0  0  0  0  0  0  0  0  0  0  0  0
   -5.8313    1.0597   -0.3412 C   0  0  0  0  0  0  0  0  0  0  0  0
   -5.0217    0.0918    0.2158 C   0  0  0  0  0  0  0  0  0  0  0  0
   -5.3966   -1.0486    1.0893 C   0  0  0  0  0  0  0  0  0  0  0  0
   -2.5663   -1.4198    0.9051 N   0  0  0  0  0  0  0  0  0  0  0  0
   -1.1377   -4.1560    1.5073 H   0  0  0  0  0  0  0  0  0  0  0  0
   -2.5085   -3.4529    2.3854 H   0  0  0  0  0  0  0  0  0  0  0  0
   -0.8565   -3.1295    2.9394 H   0  0  0  0  0  0  0  0  0  0  0  0
    0.7184   -2.1680    0.8707 H   0  0  0  0  0  0  0  0  0  0  0  0
    0.7441    0.8629   -1.1896 H   0  0  0  0  0  0  0  0  0  0  0  0
    2.9806    1.0341   -1.5473 H   0  0  0  0  0  0  0  0  0  0  0  0
    3.9202   -1.1025    1.4390 H   0  0  0  0  0  0  0  0  0  0  0  0
    6.1933   -1.3919    2.3448 H   0  0  0  0  0  0  0  0  0  0  0  0
    8.1170   -0.1952    1.3325 H   0  0  0  0  0  0  0  0  0  0  0  0
    7.7581    1.3213   -0.5956 H   0  0  0  0  0  0  0  0  0  0  0  0
   -5.0422    2.9546   -2.9223 H   0  0  0  0  0  0  0  0  0  0  0  0
   -6.3976    3.2946   -1.8341 H   0  0  0  0  0  0  0  0  0  0  0  0
   -4.7997    3.9758   -1.4889 H   0  0  0  0  0  0  0  0  0  0  0  0
   -6.9030    1.1489   -0.2275 H   0  0  0  0  0  0  0  0  0  0  0  0
   -6.4778   -1.0578    1.2665 H   0  0  0  0  0  0  0  0  0  0  0  0
   -4.9090   -0.9738    2.0661 H   0  0  0  0  0  0  0  0  0  0  0  0
   -5.1368   -2.0044    0.6233 H   0  0  0  0  0  0  0  0  0  0  0  0
  1  2  1  0
  2  3  2  0
  3  4  1  0
  4  5  1  0
  5  6  1  0
  6  7  2  3
  7  8  1  0
  8  9  2  0
  9 10  1  0
 10 11  2  0
 11 12  1  0
 12 13  2  0
 13 14  1  0
 14 15  2  0
 14 16  1  0
  4 17  2  0
 17 18  1  0
 18 19  1  0
 19 20  1  0
 20 21  2  0
 21 22  1  0
 21 23  1  0
 23 24  2  0
 24 25  1  0
 18 26  2  0
 26  2  1  0
 13  8  1  0
 24 19  1  0
  1 27  1  0
  1 28  1  0
  1 29  1  0
  3 30  1  0
  5 31  1  0
  7 32  1  0
  9 33  1  0
 10 34  1  0
 11 35  1  0
 12 36  1  0
 22 37  1  0
 22 38  1  0
 22 39  1  0
 23 40  1  0
 25 41  1  0
 25 42  1  0
 25 43  1  0
M  CHG  2  14   1  16  -1
M  END
$$$$
