
     RDKit          3D

 36 37  0  0  0  0  0  0  0  0999 V2000
   -1.7477    1.3712    3.3807 O   0  0  0  0  0  0  0  0  0  0  0  0
   -1.0447    0.6345    2.6932 C   0  0  0  0  0  0  0  0  0  0  0  0
    0.4619    0.5028    2.9018 C   0  0  0  0  0  0  0  0  0  0  0  0
    1.1128    0.0434    1.7132 O   0  0  0  0  0  0  0  0  0  0  0  0
    2.4461   -0.1433    1.8690 C   0  0  0  0  0  0  0  0  0  0  0  0
    3.0647   -0.0362    2.9157 O   0  0  0  0  0  0  0  0  0  0  0  0
    3.0783   -0.5272    0.5807 C   0  0  0  0  0  0  0  0  0  0  0  0
    2.4263   -0.3610   -0.6500 C   0  0  0  0  0  0  0  0  0  0  0  0
    3.0649   -0.7232   -1.8385 C   0  0  0  0  0  0  0  0  0  0  0  0
    4.3573   -1.2490   -1.8039 C   0  0  0  0  0  0  0  0  0  0  0  0
    5.0083   -1.4082   -0.5806 C   0  0  0  0  0  0  0  0  0  0  0  0
    6.6047   -2.0542   -0.5439 Cl  0  0  0  0  0  0  0  0  0  0  0  0
    4.3789   -1.0486    0.6106 C   0  0  0  0  0  0  0  0  0  0  0  0
   -1.5621   -0.1834    1.7089 N   0  0  0  0  0  0  0  0  0  0  0  0
   -2.9595   -0.0946    1.3271 C   0  0  0  0  0  0  0  0  0  0  0  0
   -3.2643    1.1072    0.4156 C   0  0  0  0  0  0  0  0  0  0  0  0
   -2.8116    0.8934   -0.9531 N   0  0  0  0  0  0  0  0  0  0  0  0
   -3.5236    0.2167   -1.9178 C   0  0  0  0  0  0  0  0  0  0  0  0
   -4.8142   -0.1638   -1.7102 O   0  0  0  0  0  0  0  0  0  0  0  0
   -2.8501   -0.0287   -3.0448 C   0  0  0  0  0  0  0  0  0  0  0  0
   -1.2337    0.5953   -2.9639 S   0  0  0  0  0  0  0  0  0  0  0  0
   -1.4966    1.1756   -1.3085 C   0  0  0  0  0  0  0  0  0  0  0  0
   -0.6177    1.6832   -0.6294 O   0  0  0  0  0  0  0  0  0  0  0  0
    0.6208   -0.2062    3.7228 H   0  0  0  0  0  0  0  0  0  0  0  0
    0.8499    1.4931    3.1642 H   0  0  0  0  0  0  0  0  0  0  0  0
    1.4292    0.0700   -0.6995 H   0  0  0  0  0  0  0  0  0  0  0  0
    2.5579   -0.5833   -2.7912 H   0  0  0  0  0  0  0  0  0  0  0  0
    4.8532   -1.5256   -2.7315 H   0  0  0  0  0  0  0  0  0  0  0  0
    4.8970   -1.1742    1.5598 H   0  0  0  0  0  0  0  0  0  0  0  0
   -0.8866   -0.5555    1.0471 H   0  0  0  0  0  0  0  0  0  0  0  0
   -3.5547   -0.0105    2.2441 H   0  0  0  0  0  0  0  0  0  0  0  0
   -3.2230   -1.0392    0.8369 H   0  0  0  0  0  0  0  0  0  0  0  0
   -4.3410    1.3057    0.4099 H   0  0  0  0  0  0  0  0  0  0  0  0
   -2.7781    2.0113    0.8037 H   0  0  0  0  0  0  0  0  0  0  0  0
   -5.2578    0.5610   -1.2404 H   0  0  0  0  0  0  0  0  0  0  0  0
   -3.2453   -0.5483   -3.9071 H   0  0  0  0  0  0  0  0  0  0  0  0
  1  2  2  0
  2  3  1  0
  3  4  1  0
  4  5  1  0
  5  6  2  0
  5  7  1  0
  7  8  2  0
  8  9  1  0
  9 10  2  0
 10 11  1  0
 11 12  1  0
 11 13  2  0
  2 14  1  0
 14 15  1  0
 15 16  1  0
 16 17  1  0
 17 18  1  0
 18 19  1  0
 18 20  2  0
 20 21  1  0
 21 22  1  0
 22 23  2  0
 13  7  1  0
 22 17  1  0
  3 24  1  0
  3 25  1  0
  8 26  1  0
  9 27  1  0
 10 28  1  0
 13 29  1  0
 14 30  1  0
 15 31  1  0
 15 32  1  0
 16 33  1  0
 16 34  1  0
 19 35  1  0
 20 36  1  0
M  END
$$$$
