
     RDKit          3D

 44 47  0  0  0  0  0  0  0  0999 V2000
   -5.6486    1.4352    0.2283 C   0  0  0  0  0  0  0  0  0  0  0  0
   -4.3579    1.3896   -0.5884 C   0  0  0  0  0  0  0  0  0  0  0  0
   -3.1455    1.3217    0.3256 C   0  0  0  0  0  0  0  0  0  0  0  0
   -1.8647    1.1048   -0.4476 C   0  0  0  0  0  0  0  0  0  0  0  0
   -1.1685    2.0679   -0.7805 O   0  0  0  0  0  0  0  0  0  0  0  0
   -1.4896   -0.2110   -0.7025 N   0  0  0  0  0  0  0  0  0  0  0  0
   -0.1427   -0.4099   -1.2330 C   0  0  0  0  0  0  0  0  0  0  0  0
    0.9374   -0.2723   -0.1451 C   0  0  0  0  0  0  0  0  0  0  0  0
    0.7560   -0.6807    0.9995 O   0  0  0  0  0  0  0  0  0  0  0  0
    2.1122    0.2849   -0.6327 N   0  0  0  0  0  0  0  0  0  0  0  0
    3.3300    0.4722    0.0560 C   0  0  0  0  0  0  0  0  0  0  0  0
    3.5583    0.0441    1.3787 C   0  0  0  0  0  0  0  0  0  0  0  0
    4.7984    0.2470    2.0007 C   0  0  0  0  0  0  0  0  0  0  0  0
    5.7864    0.8759    1.2776 C   0  0  0  0  0  0  0  0  0  0  0  0
    5.5721    1.2995   -0.0110 C   0  0  0  0  0  0  0  0  0  0  0  0
    4.3615    1.1141   -0.6475 C   0  0  0  0  0  0  0  0  0  0  0  0
    6.6681    1.9001   -0.5498 O   0  0  0  0  0  0  0  0  0  0  0  0
    7.5993    1.7979    0.5486 C   0  0  0  0  0  0  0  0  0  0  0  0
    7.0440    1.1514    1.7131 O   0  0  0  0  0  0  0  0  0  0  0  0
   -2.3497   -1.3416   -0.5345 C   0  0  0  0  0  0  0  0  0  0  0  0
   -1.8243   -2.5296    0.0035 C   0  0  0  0  0  0  0  0  0  0  0  0
   -2.6309   -3.6535    0.2018 C   0  0  0  0  0  0  0  0  0  0  0  0
   -3.9732   -3.6179   -0.1542 C   0  0  0  0  0  0  0  0  0  0  0  0
   -4.5088   -2.4601   -0.7163 C   0  0  0  0  0  0  0  0  0  0  0  0
   -3.7132   -1.3180   -0.9066 C   0  0  0  0  0  0  0  0  0  0  0  0
   -4.4753    0.0296   -1.8091 S   0  0  0  0  0  0  0  0  0  0  0  0
   -5.7861    0.5251    0.8237 H   0  0  0  0  0  0  0  0  0  0  0  0
   -5.6319    2.2840    0.9216 H   0  0  0  0  0  0  0  0  0  0  0  0
   -6.5262    1.5604   -0.4164 H   0  0  0  0  0  0  0  0  0  0  0  0
   -4.2984    2.3105   -1.1813 H   0  0  0  0  0  0  0  0  0  0  0  0
   -3.2506    0.5572    1.1055 H   0  0  0  0  0  0  0  0  0  0  0  0
   -3.0446    2.2682    0.8740 H   0  0  0  0  0  0  0  0  0  0  0  0
    0.0285    0.3279   -2.0262 H   0  0  0  0  0  0  0  0  0  0  0  0
   -0.0451   -1.3995   -1.6940 H   0  0  0  0  0  0  0  0  0  0  0  0
    2.0810    0.6628   -1.5724 H   0  0  0  0  0  0  0  0  0  0  0  0
    2.7857   -0.4564    1.9557 H   0  0  0  0  0  0  0  0  0  0  0  0
    4.9723   -0.0852    3.0185 H   0  0  0  0  0  0  0  0  0  0  0  0
    4.2349    1.4656   -1.6657 H   0  0  0  0  0  0  0  0  0  0  0  0
    7.9251    2.8073    0.8274 H   0  0  0  0  0  0  0  0  0  0  0  0
    8.4737    1.2278    0.2133 H   0  0  0  0  0  0  0  0  0  0  0  0
   -0.7875   -2.5893    0.3255 H   0  0  0  0  0  0  0  0  0  0  0  0
   -2.2062   -4.5539    0.6404 H   0  0  0  0  0  0  0  0  0  0  0  0
   -4.6017   -4.4930   -0.0069 H   0  0  0  0  0  0  0  0  0  0  0  0
   -5.5537   -2.4609   -1.0221 H   0  0  0  0  0  0  0  0  0  0  0  0
  1  2  1  0
  2  3  1  0
  3  4  1  0
  4  5  2  0
  4  6  1  0
  6  7  1  0
  7  8  1  0
  8  9  2  0
  8 10  1  0
 10 11  1  0
 11 12  2  0
 12 13  1  0
 13 14  2  0
 14 15  1  0
 15 16  2  0
 15 17  1  0
 17 18  1  0
 18 19  1  0
  6 20  1  0
 20 21  2  0
 21 22  1  0
 22 23  2  0
 23 24  1  0
 24 25  2  0
 25 26  1  0
 26  2  1  0
 16 11  1  0
 25 20  1  0
 19 14  1  0
  1 27  1  0
  1 28  1  0
  1 29  1  0
  2 30  1  0
  3 31  1  0
  3 32  1  0
  7 33  1  0
  7 34  1  0
 10 35  1  0
 12 36  1  0
 13 37  1  0
 16 38  1  0
 18 39  1  0
 18 40  1  0
 21 41  1  0
 22 42  1  0
 23 43  1  0
 24 44  1  0
M  END
$$$$
