
     RDKit          3D

 60 65  0  0  0  0  0  0  0  0999 V2000
    6.3023   -2.7488   -0.8553 C   0  0  0  0  0  0  0  0  0  0  0  0
    5.0121   -3.3448   -0.8972 O   0  0  0  0  0  0  0  0  0  0  0  0
    3.9510   -2.5041   -1.0908 C   0  0  0  0  0  0  0  0  0  0  0  0
    2.7062   -3.1316   -1.1221 C   0  0  0  0  0  0  0  0  0  0  0  0
    1.5400   -2.3900   -1.3246 C   0  0  0  0  0  0  0  0  0  0  0  0
    1.5910   -1.0018   -1.4943 C   0  0  0  0  0  0  0  0  0  0  0  0
    2.8498   -0.3866   -1.4867 C   0  0  0  0  0  0  0  0  0  0  0  0
    4.0170   -1.1247   -1.2662 C   0  0  0  0  0  0  0  0  0  0  0  0
    3.0337    0.9607   -1.6567 O   0  0  0  0  0  0  0  0  0  0  0  0
    1.9592    1.6123   -2.3294 C   0  0  0  0  0  0  0  0  0  0  0  0
    0.6046    1.3086   -1.7159 C   0  0  0  0  0  0  0  0  0  0  0  0
    0.3325   -0.1917   -1.7335 C   0  0  0  0  0  0  0  0  0  0  0  0
   -0.6875   -0.3739   -0.6947 N   0  0  0  0  0  0  0  0  0  0  0  0
   -1.6341   -1.3675   -0.8307 C   0  0  0  0  0  0  0  0  0  0  0  0
   -1.7068   -2.0388   -1.8604 O   0  0  0  0  0  0  0  0  0  0  0  0
   -2.5706   -1.6951    0.2772 C   0  0  0  0  0  0  0  0  0  0  0  0
   -3.7160   -2.4285   -0.1008 C   0  0  0  0  0  0  0  0  0  0  0  0
   -4.6012   -2.9450    0.8458 C   0  0  0  0  0  0  0  0  0  0  0  0
   -4.3568   -2.7509    2.2004 C   0  0  0  0  0  0  0  0  0  0  0  0
   -5.2640   -3.3370    3.2418 C   0  0  0  0  0  0  0  0  0  0  0  0
   -3.2176   -2.0302    2.5837 C   0  0  0  0  0  0  0  0  0  0  0  0
   -2.3333   -1.4713    1.6384 C   0  0  0  0  0  0  0  0  0  0  0  0
   -1.2746   -0.7412    2.1955 N   0  0  0  0  0  0  0  0  0  0  0  0
   -0.4719    0.2253    1.6679 C   0  0  0  0  0  0  0  0  0  0  0  0
    0.3610    0.7185    2.4332 O   0  0  0  0  0  0  0  0  0  0  0  0
   -0.7287    0.7638    0.2492 C   0  0  0  0  0  0  0  0  0  0  0  0
   -2.0697    1.5209    0.1784 C   0  0  0  0  0  0  0  0  0  0  0  0
    0.4769    1.6650   -0.2151 C   0  0  0  0  0  0  0  0  0  0  0  0
    0.3993    3.1562    0.0900 C   0  0  0  0  0  0  0  0  0  0  0  0
    0.9653    3.6348    1.2834 C   0  0  0  0  0  0  0  0  0  0  0  0
    0.9129    4.9904    1.6180 C   0  0  0  0  0  0  0  0  0  0  0  0
    0.2951    5.8958    0.7627 C   0  0  0  0  0  0  0  0  0  0  0  0
   -0.2700    5.4441   -0.4259 C   0  0  0  0  0  0  0  0  0  0  0  0
   -0.2193    4.0867   -0.7600 C   0  0  0  0  0  0  0  0  0  0  0  0
    6.5306   -2.2299   -1.7912 H   0  0  0  0  0  0  0  0  0  0  0  0
    7.0373   -3.5535   -0.7345 H   0  0  0  0  0  0  0  0  0  0  0  0
    6.3955   -2.0774    0.0045 H   0  0  0  0  0  0  0  0  0  0  0  0
    2.6418   -4.2087   -0.9883 H   0  0  0  0  0  0  0  0  0  0  0  0
    0.5921   -2.9218   -1.3547 H   0  0  0  0  0  0  0  0  0  0  0  0
    4.9613   -0.5891   -1.2509 H   0  0  0  0  0  0  0  0  0  0  0  0
    2.1612    2.6874   -2.2935 H   0  0  0  0  0  0  0  0  0  0  0  0
    1.9810    1.3255   -3.3869 H   0  0  0  0  0  0  0  0  0  0  0  0
   -0.1795    1.8039   -2.3011 H   0  0  0  0  0  0  0  0  0  0  0  0
   -0.0656   -0.4797   -2.7146 H   0  0  0  0  0  0  0  0  0  0  0  0
   -3.9091   -2.6362   -1.1527 H   0  0  0  0  0  0  0  0  0  0  0  0
   -5.4573   -3.5294    0.5099 H   0  0  0  0  0  0  0  0  0  0  0  0
   -5.5435   -2.5745    3.9756 H   0  0  0  0  0  0  0  0  0  0  0  0
   -6.1882   -3.7225    2.7973 H   0  0  0  0  0  0  0  0  0  0  0  0
   -4.7612   -4.1635    3.7529 H   0  0  0  0  0  0  0  0  0  0  0  0
   -3.0277   -1.8953    3.6461 H   0  0  0  0  0  0  0  0  0  0  0  0
   -1.0976   -0.8545    3.1895 H   0  0  0  0  0  0  0  0  0  0  0  0
   -2.9325    0.9094    0.4564 H   0  0  0  0  0  0  0  0  0  0  0  0
   -2.2661    1.8869   -0.8353 H   0  0  0  0  0  0  0  0  0  0  0  0
   -2.0831    2.3707    0.8701 H   0  0  0  0  0  0  0  0  0  0  0  0
    1.3901    1.3031    0.2788 H   0  0  0  0  0  0  0  0  0  0  0  0
    1.4602    2.9508    1.9722 H   0  0  0  0  0  0  0  0  0  0  0  0
    1.3575    5.3352    2.5474 H   0  0  0  0  0  0  0  0  0  0  0  0
    0.2540    6.9511    1.0221 H   0  0  0  0  0  0  0  0  0  0  0  0
   -0.7543    6.1503   -1.0953 H   0  0  0  0  0  0  0  0  0  0  0  0
   -0.6847    3.7824   -1.6927 H   0  0  0  0  0  0  0  0  0  0  0  0
  1  2  1  0
  2  3  1  0
  3  4  2  0
  4  5  1  0
  5  6  2  0
  6  7  1  0
  7  8  2  0
  7  9  1  0
  9 10  1  0
 10 11  1  0
 11 12  1  0
 12 13  1  0
 13 14  1  0
 14 15  2  0
 14 16  1  0
 16 17  2  0
 17 18  1  0
 18 19  2  0
 19 20  1  0
 19 21  1  0
 21 22  2  0
 22 23  1  0
 23 24  1  0
 24 25  2  0
 24 26  1  0
 26 27  1  0
 26 28  1  0
 28 29  1  0
 29 30  2  0
 30 31  1  0
 31 32  2  0
 32 33  1  0
 33 34  2  0
  8  3  1  0
 28 11  1  0
 34 29  1  0
 12  6  1  0
 26 13  1  0
 22 16  1  0
  1 35  1  0
  1 36  1  0
  1 37  1  0
  4 38  1  0
  5 39  1  0
  8 40  1  0
 10 41  1  0
 10 42  1  0
 11 43  1  0
 12 44  1  0
 17 45  1  0
 18 46  1  0
 20 47  1  0
 20 48  1  0
 20 49  1  0
 21 50  1  0
 23 51  1  0
 27 52  1  0
 27 53  1  0
 27 54  1  0
 28 55  1  0
 30 56  1  0
 31 57  1  0
 32 58  1  0
 33 59  1  0
 34 60  1  0
M  END
$$$$
