
     RDKit          3D

 52 54  0  0  0  0  0  0  0  0999 V2000
    6.2391   -2.9200    0.4883 C   0  0  0  0  0  0  0  0  0  0  0  0
    5.0549   -2.1061    0.9201 C   0  0  0  0  0  0  0  0  0  0  0  0
    5.0128   -0.7293    0.6679 C   0  0  0  0  0  0  0  0  0  0  0  0
    3.9295    0.0507    1.0972 C   0  0  0  0  0  0  0  0  0  0  0  0
    3.9205    1.5254    0.8123 C   0  0  0  0  0  0  0  0  0  0  0  0
    2.8641   -0.5806    1.7577 C   0  0  0  0  0  0  0  0  0  0  0  0
    1.7818    0.1632    2.1579 O   0  0  0  0  0  0  0  0  0  0  0  0
    0.7857    0.1733    1.1374 C   0  0  0  0  0  0  0  0  0  0  0  0
   -0.4717    0.9350    1.5726 C   0  0  0  0  0  0  0  0  0  0  0  0
   -0.5879    1.4520    2.6791 O   0  0  0  0  0  0  0  0  0  0  0  0
   -1.4228    0.9507    0.5680 N   0  0  0  0  0  0  0  0  0  0  0  0
   -2.7026    1.5417    0.5733 C   0  0  0  0  0  0  0  0  0  0  0  0
   -3.2397    2.2428    1.6523 C   0  0  0  0  0  0  0  0  0  0  0  0
   -4.5199    2.7924    1.5588 C   0  0  0  0  0  0  0  0  0  0  0  0
   -5.2652    2.6439    0.3908 C   0  0  0  0  0  0  0  0  0  0  0  0
   -4.7346    1.9435   -0.6939 C   0  0  0  0  0  0  0  0  0  0  0  0
   -3.4508    1.3840   -0.6201 C   0  0  0  0  0  0  0  0  0  0  0  0
   -2.8568    0.6587   -1.6939 N   0  0  0  0  0  0  0  0  0  0  0  0
   -2.6742    1.5054   -2.9001 C   0  0  0  0  0  0  0  0  0  0  0  0
   -1.9794    0.6775   -3.9946 C   0  0  0  0  0  0  0  0  0  0  0  0
   -2.7336   -0.5046   -4.3154 O   0  0  0  0  0  0  0  0  0  0  0  0
   -2.8992   -1.3283   -3.1478 C   0  0  0  0  0  0  0  0  0  0  0  0
   -3.6252   -0.5684   -2.0247 C   0  0  0  0  0  0  0  0  0  0  0  0
    2.9180   -1.9447    2.0842 C   0  0  0  0  0  0  0  0  0  0  0  0
    1.8195   -2.6132    2.8606 C   0  0  0  0  0  0  0  0  0  0  0  0
    4.0136   -2.7005    1.6435 C   0  0  0  0  0  0  0  0  0  0  0  0
    7.0017   -2.9168    1.2732 H   0  0  0  0  0  0  0  0  0  0  0  0
    5.9472   -3.9551    0.2819 H   0  0  0  0  0  0  0  0  0  0  0  0
    6.6755   -2.5169   -0.4317 H   0  0  0  0  0  0  0  0  0  0  0  0
    5.8385   -0.2567    0.1389 H   0  0  0  0  0  0  0  0  0  0  0  0
    3.3747    1.7266   -0.1144 H   0  0  0  0  0  0  0  0  0  0  0  0
    4.9404    1.9101    0.7044 H   0  0  0  0  0  0  0  0  0  0  0  0
    3.4565    2.0835    1.6320 H   0  0  0  0  0  0  0  0  0  0  0  0
    1.1723    0.6652    0.2363 H   0  0  0  0  0  0  0  0  0  0  0  0
    0.4779   -0.8504    0.8894 H   0  0  0  0  0  0  0  0  0  0  0  0
   -1.2266    0.4887   -0.3167 H   0  0  0  0  0  0  0  0  0  0  0  0
   -2.6867    2.3772    2.5764 H   0  0  0  0  0  0  0  0  0  0  0  0
   -4.9333    3.3380    2.4036 H   0  0  0  0  0  0  0  0  0  0  0  0
   -6.2611    3.0745    0.3252 H   0  0  0  0  0  0  0  0  0  0  0  0
   -5.3350    1.8414   -1.5928 H   0  0  0  0  0  0  0  0  0  0  0  0
   -2.0579    2.3800   -2.6611 H   0  0  0  0  0  0  0  0  0  0  0  0
   -3.6435    1.8503   -3.2812 H   0  0  0  0  0  0  0  0  0  0  0  0
   -0.9705    0.3808   -3.6840 H   0  0  0  0  0  0  0  0  0  0  0  0
   -1.8886    1.2712   -4.9096 H   0  0  0  0  0  0  0  0  0  0  0  0
   -3.4829   -2.2062   -3.4414 H   0  0  0  0  0  0  0  0  0  0  0  0
   -1.9132   -1.6749   -2.8159 H   0  0  0  0  0  0  0  0  0  0  0  0
   -3.7068   -1.2152   -1.1434 H   0  0  0  0  0  0  0  0  0  0  0  0
   -4.6350   -0.3115   -2.3686 H   0  0  0  0  0  0  0  0  0  0  0  0
    1.4335   -1.9534    3.6444 H   0  0  0  0  0  0  0  0  0  0  0  0
    1.0013   -2.8939    2.1905 H   0  0  0  0  0  0  0  0  0  0  0  0
    2.1845   -3.5180    3.3585 H   0  0  0  0  0  0  0  0  0  0  0  0
    4.0609   -3.7632    1.8744 H   0  0  0  0  0  0  0  0  0  0  0  0
  1  2  1  0
  2  3  2  0
  3  4  1  0
  4  5  1  0
  4  6  2  0
  6  7  1  0
  7  8  1  0
  8  9  1  0
  9 10  2  0
  9 11  1  0
 11 12  1  0
 12 13  2  0
 13 14  1  0
 14 15  2  0
 15 16  1  0
 16 17  2  0
 17 18  1  0
 18 19  1  0
 19 20  1  0
 20 21  1  0
 21 22  1  0
 22 23  1  0
  6 24  1  0
 24 25  1  0
 24 26  2  0
 26  2  1  0
 17 12  1  0
 23 18  1  0
  1 27  1  0
  1 28  1  0
  1 29  1  0
  3 30  1  0
  5 31  1  0
  5 32  1  0
  5 33  1  0
  8 34  1  0
  8 35  1  0
 11 36  1  0
 13 37  1  0
 14 38  1  0
 15 39  1  0
 16 40  1  0
 19 41  1  0
 19 42  1  0
 20 43  1  0
 20 44  1  0
 22 45  1  0
 22 46  1  0
 23 47  1  0
 23 48  1  0
 25 49  1  0
 25 50  1  0
 25 51  1  0
 26 52  1  0
M  END
$$$$
