
     RDKit          3D

 42 41  0  0  0  0  0  0  0  0999 V2000
   -3.9328   -2.2759    2.7967 C   0  0  0  0  0  0  0  0  0  0  0  0
   -4.6287   -1.0457    2.2904 C   0  0  0  0  0  0  0  0  0  0  0  0
   -6.0613   -0.9176    2.7494 C   0  0  0  0  0  0  0  0  0  0  0  0
   -4.0911   -0.1013    1.4930 C   0  0  0  0  0  0  0  0  0  0  0  0
   -2.7374    0.0504    0.8365 C   0  0  0  0  0  0  0  0  0  0  0  0
   -1.6844   -1.0540    0.9935 C   0  0  0  0  0  0  0  0  0  0  0  0
   -0.3748   -0.9083    0.2204 C   0  0  0  0  0  0  0  0  0  0  0  0
    0.5553   -2.0764    0.4466 C   0  0  0  0  0  0  0  0  0  0  0  0
   -0.0733    0.1463   -0.5653 C   0  0  0  0  0  0  0  0  0  0  0  0
    1.1708    0.3573   -1.3917 C   0  0  0  0  0  0  0  0  0  0  0  0
    2.1687    1.2868   -0.6855 C   0  0  0  0  0  0  0  0  0  0  0  0
    3.4607    1.6259   -1.4218 C   0  0  0  0  0  0  0  0  0  0  0  0
    4.3830    2.4982   -0.6063 C   0  0  0  0  0  0  0  0  0  0  0  0
    3.7508    1.1977   -2.6693 C   0  0  0  0  0  0  0  0  0  0  0  0
    4.9972    1.4338   -3.4599 C   0  0  0  0  0  0  0  0  0  0  0  0
    5.3240    0.2158   -4.1162 O   0  0  0  0  0  0  0  0  0  0  0  0
   -3.7714   -2.9917    1.9847 H   0  0  0  0  0  0  0  0  0  0  0  0
   -2.9843   -2.0269    3.2787 H   0  0  0  0  0  0  0  0  0  0  0  0
   -4.5359   -2.7849    3.5579 H   0  0  0  0  0  0  0  0  0  0  0  0
   -6.5613   -0.0384    2.3259 H   0  0  0  0  0  0  0  0  0  0  0  0
   -6.1029   -0.8303    3.8407 H   0  0  0  0  0  0  0  0  0  0  0  0
   -6.6354   -1.8005    2.4467 H   0  0  0  0  0  0  0  0  0  0  0  0
   -4.7400    0.7382    1.2339 H   0  0  0  0  0  0  0  0  0  0  0  0
   -2.3128    0.9949    1.1983 H   0  0  0  0  0  0  0  0  0  0  0  0
   -2.9372    0.1862   -0.2352 H   0  0  0  0  0  0  0  0  0  0  0  0
   -2.1322   -2.0048    0.6834 H   0  0  0  0  0  0  0  0  0  0  0  0
   -1.4207   -1.1346    2.0544 H   0  0  0  0  0  0  0  0  0  0  0  0
    1.4990   -2.0089   -0.1021 H   0  0  0  0  0  0  0  0  0  0  0  0
    0.0684   -3.0095    0.1402 H   0  0  0  0  0  0  0  0  0  0  0  0
    0.8046   -2.1510    1.5118 H   0  0  0  0  0  0  0  0  0  0  0  0
   -0.7852    0.9635   -0.6602 H   0  0  0  0  0  0  0  0  0  0  0  0
    1.6463   -0.5934   -1.6457 H   0  0  0  0  0  0  0  0  0  0  0  0
    0.8576    0.8010   -2.3445 H   0  0  0  0  0  0  0  0  0  0  0  0
    1.6596    2.2309   -0.4422 H   0  0  0  0  0  0  0  0  0  0  0  0
    2.4445    0.8241    0.2721 H   0  0  0  0  0  0  0  0  0  0  0  0
    4.7532    1.9437    0.2628 H   0  0  0  0  0  0  0  0  0  0  0  0
    3.8474    3.3851   -0.2521 H   0  0  0  0  0  0  0  0  0  0  0  0
    5.2486    2.8552   -1.1685 H   0  0  0  0  0  0  0  0  0  0  0  0
    3.0255    0.5915   -3.2081 H   0  0  0  0  0  0  0  0  0  0  0  0
    4.8233    2.2026   -4.2195 H   0  0  0  0  0  0  0  0  0  0  0  0
    5.8516    1.7161   -2.8414 H   0  0  0  0  0  0  0  0  0  0  0  0
    6.1626    0.3686   -4.5825 H   0  0  0  0  0  0  0  0  0  0  0  0
  1  2  1  0
  2  3  1  0
  2  4  2  3
  4  5  1  0
  5  6  1  0
  6  7  1  0
  7  8  1  0
  7  9  2  3
  9 10  1  0
 10 11  1  0
 11 12  1  0
 12 13  1  0
 12 14  2  3
 14 15  1  0
 15 16  1  0
  1 17  1  0
  1 18  1  0
  1 19  1  0
  3 20  1  0
  3 21  1  0
  3 22  1  0
  4 23  1  0
  5 24  1  0
  5 25  1  0
  6 26  1  0
  6 27  1  0
  8 28  1  0
  8 29  1  0
  8 30  1  0
  9 31  1  0
 10 32  1  0
 10 33  1  0
 11 34  1  0
 11 35  1  0
 13 36  1  0
 13 37  1  0
 13 38  1  0
 14 39  1  0
 15 40  1  0
 15 41  1  0
 16 42  1  0
M  END
$$$$
