
     RDKit          3D

 39 41  0  0  0  0  0  0  0  0999 V2000
    4.1088    0.1423   -2.7798 C   0  0  0  0  0  0  0  0  0  0  0  0
    4.7757   -0.0560   -1.4299 C   0  0  0  0  0  0  0  0  0  0  0  0
    4.2717    0.8587   -0.4177 N   0  0  0  0  0  0  0  0  0  0  0  0
    5.0216    1.9449   -0.1166 N   0  0  0  0  0  0  0  0  0  0  0  0
    4.3231    2.5625    0.8343 C   0  0  0  0  0  0  0  0  0  0  0  0
    3.1267    1.8941    1.1141 C   0  0  0  0  0  0  0  0  0  0  0  0
    1.9298    2.4643    2.4364 Br  0  0  0  0  0  0  0  0  0  0  0  0
    3.0771    0.7964    0.2763 C   0  0  0  0  0  0  0  0  0  0  0  0
    2.0850   -0.2492    0.1033 C   0  0  0  0  0  0  0  0  0  0  0  0
    2.4069   -1.3601   -0.3006 O   0  0  0  0  0  0  0  0  0  0  0  0
    0.7929    0.1585    0.3771 N   0  0  0  0  0  0  0  0  0  0  0  0
   -0.3691   -0.6021    0.3313 C   0  0  0  0  0  0  0  0  0  0  0  0
   -0.3124   -2.3015    0.0964 S   0  0  0  0  0  0  0  0  0  0  0  0
   -1.9704   -2.4070    0.1992 C   0  0  0  0  0  0  0  0  0  0  0  0
   -2.5921   -1.2089    0.4055 C   0  0  0  0  0  0  0  0  0  0  0  0
   -1.6736   -0.1233    0.4942 C   0  0  0  0  0  0  0  0  0  0  0  0
   -1.9842    1.2866    0.7115 C   0  0  0  0  0  0  0  0  0  0  0  0
   -1.1240    2.1618    0.7367 O   0  0  0  0  0  0  0  0  0  0  0  0
   -3.3174    1.5189    0.8834 O   0  0  0  0  0  0  0  0  0  0  0  0
   -3.6487    2.8904    1.0994 C   0  0  0  0  0  0  0  0  0  0  0  0
   -4.0660   -1.3882    0.4863 C   0  0  0  0  0  0  0  0  0  0  0  0
   -4.2580   -2.8421   -0.0484 C   0  0  0  0  0  0  0  0  0  0  0  0
   -2.8873   -3.5658    0.1106 C   0  0  0  0  0  0  0  0  0  0  0  0
    3.0322   -0.0470   -2.7294 H   0  0  0  0  0  0  0  0  0  0  0  0
    4.5389   -0.5409   -3.5185 H   0  0  0  0  0  0  0  0  0  0  0  0
    4.2492    1.1668   -3.1401 H   0  0  0  0  0  0  0  0  0  0  0  0
    4.6565   -1.0786   -1.0627 H   0  0  0  0  0  0  0  0  0  0  0  0
    5.8547    0.1186   -1.5231 H   0  0  0  0  0  0  0  0  0  0  0  0
    4.7232    3.4652    1.2779 H   0  0  0  0  0  0  0  0  0  0  0  0
    0.6483    1.1452    0.5834 H   0  0  0  0  0  0  0  0  0  0  0  0
   -3.3366    3.5013    0.2466 H   0  0  0  0  0  0  0  0  0  0  0  0
   -4.7353    2.9644    1.1978 H   0  0  0  0  0  0  0  0  0  0  0  0
   -3.1920    3.2528    2.0258 H   0  0  0  0  0  0  0  0  0  0  0  0
   -4.4033   -1.3149    1.5253 H   0  0  0  0  0  0  0  0  0  0  0  0
   -4.6178   -0.6720   -0.1283 H   0  0  0  0  0  0  0  0  0  0  0  0
   -5.0693   -3.3693    0.4633 H   0  0  0  0  0  0  0  0  0  0  0  0
   -4.5161   -2.7975   -1.1148 H   0  0  0  0  0  0  0  0  0  0  0  0
   -2.8668   -4.1506    1.0361 H   0  0  0  0  0  0  0  0  0  0  0  0
   -2.6820   -4.2186   -0.7423 H   0  0  0  0  0  0  0  0  0  0  0  0
  1  2  1  0
  2  3  1  0
  3  4  1  0
  4  5  2  0
  5  6  1  0
  6  7  1  0
  6  8  2  0
  8  9  1  0
  9 10  2  0
  9 11  1  0
 11 12  1  0
 12 13  1  0
 13 14  1  0
 14 15  2  0
 15 16  1  0
 16 17  1  0
 17 18  2  0
 17 19  1  0
 19 20  1  0
 15 21  1  0
 21 22  1  0
 22 23  1  0
  8  3  1  0
 16 12  2  0
 23 14  1  0
  1 24  1  0
  1 25  1  0
  1 26  1  0
  2 27  1  0
  2 28  1  0
  5 29  1  0
 11 30  1  0
 20 31  1  0
 20 32  1  0
 20 33  1  0
 21 34  1  0
 21 35  1  0
 22 36  1  0
 22 37  1  0
 23 38  1  0
 23 39  1  0
M  END
$$$$
