
     RDKit          3D

 35 36  0  0  0  0  0  0  0  0999 V2000
    5.3557   -0.4294    2.3595 C   0  0  0  0  0  0  0  0  0  0  0  0
    4.3406   -0.2345    1.2713 C   0  0  0  0  0  0  0  0  0  0  0  0
    4.2373   -1.1628    0.2258 C   0  0  0  0  0  0  0  0  0  0  0  0
    3.2768   -1.0000   -0.7738 C   0  0  0  0  0  0  0  0  0  0  0  0
    2.4035    0.0874   -0.7142 C   0  0  0  0  0  0  0  0  0  0  0  0
    1.1792    0.3103   -1.9837 S   0  0  0  0  0  6  0  0  0  0  0  0
    1.5690   -0.5123   -3.1146 O   0  0  0  0  0  0  0  0  0  0  0  0
    0.9815    1.7381   -2.1436 O   0  0  0  0  0  0  0  0  0  0  0  0
   -0.2815   -0.4034   -1.2605 C   0  0  0  0  0  0  0  0  0  0  0  0
   -1.4615   -0.2160   -2.1961 C   0  0  0  0  0  0  0  0  0  0  0  0
   -2.9516   -1.0639   -1.5779 S   0  0  0  0  0  0  0  0  0  0  0  0
   -3.4597    0.0135   -0.3215 C   0  0  0  0  0  0  0  0  0  0  0  0
   -2.7625    1.0240    0.1447 N   0  0  0  0  0  0  0  0  0  0  0  0
   -3.5477    1.5875    1.1167 C   0  0  0  0  0  0  0  0  0  0  0  0
   -4.7332    0.9024    1.2452 C   0  0  0  0  0  0  0  0  0  0  0  0
   -4.6650   -0.1047    0.3184 N   0  0  0  0  0  0  0  0  0  0  0  0
   -5.6934   -1.0875    0.0794 C   0  0  0  0  0  0  0  0  0  0  0  0
    2.4931    1.0217    0.3200 C   0  0  0  0  0  0  0  0  0  0  0  0
    3.4559    0.8519    1.3158 C   0  0  0  0  0  0  0  0  0  0  0  0
    4.9274   -1.0319    3.1664 H   0  0  0  0  0  0  0  0  0  0  0  0
    6.2482   -0.9344    1.9753 H   0  0  0  0  0  0  0  0  0  0  0  0
    5.6789    0.5334    2.7693 H   0  0  0  0  0  0  0  0  0  0  0  0
    4.9125   -2.0152    0.1807 H   0  0  0  0  0  0  0  0  0  0  0  0
    3.2220   -1.7191   -1.5881 H   0  0  0  0  0  0  0  0  0  0  0  0
   -0.4356    0.0910   -0.2980 H   0  0  0  0  0  0  0  0  0  0  0  0
   -0.0685   -1.4644   -1.0909 H   0  0  0  0  0  0  0  0  0  0  0  0
   -1.2342   -0.6480   -3.1769 H   0  0  0  0  0  0  0  0  0  0  0  0
   -1.6777    0.8445   -2.3652 H   0  0  0  0  0  0  0  0  0  0  0  0
   -3.2192    2.4564    1.6726 H   0  0  0  0  0  0  0  0  0  0  0  0
   -5.5865    1.0469    1.8930 H   0  0  0  0  0  0  0  0  0  0  0  0
   -5.2809   -2.0811    0.2717 H   0  0  0  0  0  0  0  0  0  0  0  0
   -6.0317   -0.9974   -0.9560 H   0  0  0  0  0  0  0  0  0  0  0  0
   -6.5343   -0.9059    0.7540 H   0  0  0  0  0  0  0  0  0  0  0  0
    1.8250    1.8798    0.3570 H   0  0  0  0  0  0  0  0  0  0  0  0
    3.5182    1.5778    2.1243 H   0  0  0  0  0  0  0  0  0  0  0  0
  1  2  1  0
  2  3  2  0
  3  4  1  0
  4  5  2  0
  5  6  1  0
  6  7  2  0
  6  8  2  0
  6  9  1  0
  9 10  1  0
 10 11  1  0
 11 12  1  0
 12 13  2  0
 13 14  1  0
 14 15  2  0
 15 16  1  0
 16 17  1  0
  5 18  1  0
 18 19  2  0
 19  2  1  0
 16 12  1  0
  1 20  1  0
  1 21  1  0
  1 22  1  0
  3 23  1  0
  4 24  1  0
  9 25  1  0
  9 26  1  0
 10 27  1  0
 10 28  1  0
 14 29  1  0
 15 30  1  0
 17 31  1  0
 17 32  1  0
 17 33  1  0
 18 34  1  0
 19 35  1  0
M  END
$$$$
