
     RDKit          3D

 41 43  0  0  0  0  0  0  0  0999 V2000
    7.9611    0.5598    2.0457 C   0  0  0  0  0  0  0  0  0  0  0  0
    6.6582    0.4248    1.7549 C   0  0  0  0  0  0  0  0  0  0  0  0
    5.8429    1.6002    1.4747 C   0  0  0  0  0  0  0  0  0  0  0  0
    4.5360    1.4687    1.1829 C   0  0  0  0  0  0  0  0  0  0  0  0
    3.8893    0.1381    1.1372 C   0  0  0  0  0  0  0  0  0  0  0  0
    2.5712    0.0070    0.8432 C   0  0  0  0  0  0  0  0  0  0  0  0
    1.7241    1.0463    0.5668 N   0  0  0  0  0  0  0  0  0  0  0  0
    0.4124    0.7669    0.2842 C   0  0  0  0  0  0  0  0  0  0  0  0
   -0.4185    1.6202    0.0246 O   0  0  0  0  0  0  0  0  0  0  0  0
    0.2071   -0.7052    0.3533 C   0  0  0  0  0  0  0  0  0  0  0  0
   -0.9231   -1.3926    0.1307 C   0  0  0  0  0  0  0  0  0  0  0  0
   -2.2356   -0.8409   -0.2201 C   0  0  0  0  0  0  0  0  0  0  0  0
   -2.9391   -0.0220    0.6648 C   0  0  0  0  0  0  0  0  0  0  0  0
   -4.2069    0.4598    0.3273 C   0  0  0  0  0  0  0  0  0  0  0  0
   -4.7905    0.1205   -0.8972 C   0  0  0  0  0  0  0  0  0  0  0  0
   -6.0310    0.5422   -1.3086 O   0  0  0  0  0  0  0  0  0  0  0  0
   -6.7115    1.4781   -0.4854 C   0  0  0  0  0  0  0  0  0  0  0  0
   -4.0911   -0.7151   -1.7911 C   0  0  0  0  0  0  0  0  0  0  0  0
   -4.7354   -1.0125   -2.9676 O   0  0  0  0  0  0  0  0  0  0  0  0
   -4.0101   -1.7358   -3.9508 C   0  0  0  0  0  0  0  0  0  0  0  0
   -2.8212   -1.1936   -1.4428 C   0  0  0  0  0  0  0  0  0  0  0  0
    1.6987   -1.5055    0.7591 S   0  0  0  0  0  0  0  0  0  0  0  0
    4.7424   -1.0363    1.4257 C   0  0  0  0  0  0  0  0  0  0  0  0
    6.0483   -0.8983    1.7168 C   0  0  0  0  0  0  0  0  0  0  0  0
    8.4423    1.5323    2.0812 H   0  0  0  0  0  0  0  0  0  0  0  0
    8.5917   -0.2979    2.2583 H   0  0  0  0  0  0  0  0  0  0  0  0
    6.3029    2.5830    1.5041 H   0  0  0  0  0  0  0  0  0  0  0  0
    3.9657    2.3663    0.9807 H   0  0  0  0  0  0  0  0  0  0  0  0
    2.0068    2.0129    0.5532 H   0  0  0  0  0  0  0  0  0  0  0  0
   -0.9101   -2.4794    0.1914 H   0  0  0  0  0  0  0  0  0  0  0  0
   -2.5061    0.2583    1.6223 H   0  0  0  0  0  0  0  0  0  0  0  0
   -4.7108    1.0982    1.0447 H   0  0  0  0  0  0  0  0  0  0  0  0
   -6.1277    2.3960   -0.3603 H   0  0  0  0  0  0  0  0  0  0  0  0
   -6.9688    1.0364    0.4829 H   0  0  0  0  0  0  0  0  0  0  0  0
   -7.6469    1.7458   -0.9863 H   0  0  0  0  0  0  0  0  0  0  0  0
   -4.6443   -1.8216   -4.8385 H   0  0  0  0  0  0  0  0  0  0  0  0
   -3.7843   -2.7500   -3.6056 H   0  0  0  0  0  0  0  0  0  0  0  0
   -3.0987   -1.2043   -4.2442 H   0  0  0  0  0  0  0  0  0  0  0  0
   -2.2676   -1.8443   -2.1114 H   0  0  0  0  0  0  0  0  0  0  0  0
    4.3199   -2.0351    1.4057 H   0  0  0  0  0  0  0  0  0  0  0  0
    6.6582   -1.7715    1.9256 H   0  0  0  0  0  0  0  0  0  0  0  0
  1  2  2  0
  2  3  1  0
  3  4  2  0
  4  5  1  0
  5  6  2  3
  6  7  1  0
  7  8  1  0
  8  9  2  0
  8 10  1  0
 10 11  2  3
 11 12  1  0
 12 13  2  0
 13 14  1  0
 14 15  2  0
 15 16  1  0
 16 17  1  0
 15 18  1  0
 18 19  1  0
 19 20  1  0
 18 21  2  0
 10 22  1  0
  5 23  1  0
 23 24  2  0
 24  2  1  0
 22  6  1  0
 21 12  1  0
  1 25  1  0
  1 26  1  0
  3 27  1  0
  4 28  1  0
  7 29  1  0
 11 30  1  0
 13 31  1  0
 14 32  1  0
 17 33  1  0
 17 34  1  0
 17 35  1  0
 20 36  1  0
 20 37  1  0
 20 38  1  0
 21 39  1  0
 23 40  1  0
 24 41  1  0
M  END
$$$$
