
     RDKit          3D

 42 44  0  0  0  0  0  0  0  0999 V2000
   -4.1959   -2.1617   -0.2435 C   0  0  0  0  0  0  0  0  0  0  0  0
   -4.0859   -0.8569    0.5466 C   0  0  0  0  0  0  0  0  0  0  0  0
   -4.1170   -1.1106    2.0544 C   0  0  0  0  0  0  0  0  0  0  0  0
   -2.9040   -0.0856    0.1541 N   0  0  0  0  0  0  0  0  0  0  0  0
   -1.6071   -0.5232    0.3006 C   0  0  0  0  0  0  0  0  0  0  0  0
   -0.7614    0.4553   -0.1715 C   0  0  0  0  0  0  0  0  0  0  0  0
    0.6684    0.3991   -0.1962 C   0  0  0  0  0  0  0  0  0  0  0  0
    1.4237   -0.6623    0.1357 C   0  0  0  0  0  0  0  0  0  0  0  0
    2.8893   -0.6615    0.0851 C   0  0  0  0  0  0  0  0  0  0  0  0
    3.6469    0.3945    0.5894 C   0  0  0  0  0  0  0  0  0  0  0  0
    5.0350    0.3330    0.5398 C   0  0  0  0  0  0  0  0  0  0  0  0
    5.6571   -0.7450    0.0127 N   0  0  0  0  0  4  0  0  0  0  0  0
    7.1282   -0.8014   -0.0284 C   0  0  0  0  0  0  0  0  0  0  0  0
    4.9433   -1.7900   -0.4629 C   0  0  0  0  0  0  0  0  0  0  0  0
    3.5537   -1.7712   -0.4327 C   0  0  0  0  0  0  0  0  0  0  0  0
   -1.5756    1.5398   -0.6236 C   0  0  0  0  0  0  0  0  0  0  0  0
   -1.3015    2.8020   -1.1988 C   0  0  0  0  0  0  0  0  0  0  0  0
   -2.3527    3.6579   -1.5407 C   0  0  0  0  0  0  0  0  0  0  0  0
   -3.6698    3.2766   -1.3190 C   0  0  0  0  0  0  0  0  0  0  0  0
   -3.9724    2.0356   -0.7519 C   0  0  0  0  0  0  0  0  0  0  0  0
   -2.9121    1.1773   -0.4099 C   0  0  0  0  0  0  0  0  0  0  0  0
   -4.1788   -1.9678   -1.3216 H   0  0  0  0  0  0  0  0  0  0  0  0
   -3.3726   -2.8468   -0.0149 H   0  0  0  0  0  0  0  0  0  0  0  0
   -5.1342   -2.6760   -0.0091 H   0  0  0  0  0  0  0  0  0  0  0  0
   -4.9643   -0.2521    0.2997 H   0  0  0  0  0  0  0  0  0  0  0  0
   -4.0487   -0.1688    2.6099 H   0  0  0  0  0  0  0  0  0  0  0  0
   -5.0506   -1.6051    2.3434 H   0  0  0  0  0  0  0  0  0  0  0  0
   -3.2872   -1.7483    2.3769 H   0  0  0  0  0  0  0  0  0  0  0  0
   -1.4067   -1.4939    0.7330 H   0  0  0  0  0  0  0  0  0  0  0  0
    1.1626    1.3075   -0.5332 H   0  0  0  0  0  0  0  0  0  0  0  0
    0.9577   -1.5965    0.4406 H   0  0  0  0  0  0  0  0  0  0  0  0
    3.1660    1.2643    1.0332 H   0  0  0  0  0  0  0  0  0  0  0  0
    5.6532    1.1376    0.9276 H   0  0  0  0  0  0  0  0  0  0  0  0
    7.5415    0.1986    0.1251 H   0  0  0  0  0  0  0  0  0  0  0  0
    7.4320   -1.1747   -1.0104 H   0  0  0  0  0  0  0  0  0  0  0  0
    7.4533   -1.4775    0.7666 H   0  0  0  0  0  0  0  0  0  0  0  0
    5.4951   -2.6368   -0.8625 H   0  0  0  0  0  0  0  0  0  0  0  0
    2.9961   -2.6203   -0.8241 H   0  0  0  0  0  0  0  0  0  0  0  0
   -0.2789    3.1163   -1.3813 H   0  0  0  0  0  0  0  0  0  0  0  0
   -2.1381    4.6274   -1.9834 H   0  0  0  0  0  0  0  0  0  0  0  0
   -4.4788    3.9516   -1.5900 H   0  0  0  0  0  0  0  0  0  0  0  0
   -5.0091    1.7597   -0.5882 H   0  0  0  0  0  0  0  0  0  0  0  0
  1  2  1  0
  2  3  1  0
  2  4  1  0
  4  5  1  0
  5  6  2  0
  6  7  1  0
  7  8  2  3
  8  9  1  0
  9 10  2  0
 10 11  1  0
 11 12  2  0
 12 13  1  0
 12 14  1  0
 14 15  2  0
  6 16  1  0
 16 17  2  0
 17 18  1  0
 18 19  2  0
 19 20  1  0
 20 21  2  0
 21  4  1  0
 15  9  1  0
 21 16  1  0
  1 22  1  0
  1 23  1  0
  1 24  1  0
  2 25  1  0
  3 26  1  0
  3 27  1  0
  3 28  1  0
  5 29  1  0
  7 30  1  0
  8 31  1  0
 10 32  1  0
 11 33  1  0
 13 34  1  0
 13 35  1  0
 13 36  1  0
 14 37  1  0
 15 38  1  0
 17 39  1  0
 18 40  1  0
 19 41  1  0
 20 42  1  0
M  CHG  1  12   1
M  END
$$$$
