
     RDKit          3D

 39 40  0  0  0  0  0  0  0  0999 V2000
   -1.8525    3.6307    2.1006 C   0  0  0  0  0  0  0  0  0  0  0  0
   -2.0862    2.3107    1.4173 C   0  0  0  0  0  0  0  0  0  0  0  0
   -3.2164    1.8993    1.1804 O   0  0  0  0  0  0  0  0  0  0  0  0
   -0.9312    1.6821    1.0429 N   0  0  0  0  0  0  0  0  0  0  0  0
   -0.8078    0.3998    1.2279 C   0  0  0  0  0  0  0  0  0  0  0  0
   -1.7579   -0.5602    1.9104 C   0  0  0  0  0  0  0  0  0  0  0  0
   -2.2368   -1.6494    0.9816 C   0  0  0  0  0  0  0  0  0  0  0  0
   -1.6761   -2.9335    1.0371 C   0  0  0  0  0  0  0  0  0  0  0  0
   -2.1012   -3.9285    0.1557 C   0  0  0  0  0  0  0  0  0  0  0  0
   -3.0871   -3.6501   -0.7888 C   0  0  0  0  0  0  0  0  0  0  0  0
   -3.6494   -2.3768   -0.8528 C   0  0  0  0  0  0  0  0  0  0  0  0
   -3.2266   -1.3801    0.0272 C   0  0  0  0  0  0  0  0  0  0  0  0
    0.4774   -0.2442    0.7438 C   0  0  0  0  0  0  0  0  0  0  0  0
    1.2714   -0.7441    1.5203 O   0  0  0  0  0  0  0  0  0  0  0  0
    0.5226   -0.1939   -0.5991 O   0  0  0  0  0  0  0  0  0  0  0  0
    1.6799   -0.7882   -1.1907 C   0  0  0  0  0  0  0  0  0  0  0  0
    2.7376    0.2613   -1.4107 C   0  0  0  0  0  0  0  0  0  0  0  0
    3.8478    0.3436   -0.5594 C   0  0  0  0  0  0  0  0  0  0  0  0
    4.8182    1.3273   -0.7561 C   0  0  0  0  0  0  0  0  0  0  0  0
    4.6848    2.2413   -1.7999 C   0  0  0  0  0  0  0  0  0  0  0  0
    3.5787    2.1759   -2.6451 C   0  0  0  0  0  0  0  0  0  0  0  0
    2.6070    1.1931   -2.4501 C   0  0  0  0  0  0  0  0  0  0  0  0
   -1.1404    3.5037    2.9208 H   0  0  0  0  0  0  0  0  0  0  0  0
   -2.7944    4.0032    2.5130 H   0  0  0  0  0  0  0  0  0  0  0  0
   -1.4648    4.3537    1.3784 H   0  0  0  0  0  0  0  0  0  0  0  0
   -1.2211   -1.0054    2.7583 H   0  0  0  0  0  0  0  0  0  0  0  0
   -2.6170   -0.0557    2.3580 H   0  0  0  0  0  0  0  0  0  0  0  0
   -0.9020   -3.1694    1.7652 H   0  0  0  0  0  0  0  0  0  0  0  0
   -1.6637   -4.9223    0.2063 H   0  0  0  0  0  0  0  0  0  0  0  0
   -3.4190   -4.4251   -1.4745 H   0  0  0  0  0  0  0  0  0  0  0  0
   -4.4197   -2.1582   -1.5880 H   0  0  0  0  0  0  0  0  0  0  0  0
   -3.6765   -0.3904   -0.0371 H   0  0  0  0  0  0  0  0  0  0  0  0
    1.3779   -1.2097   -2.1565 H   0  0  0  0  0  0  0  0  0  0  0  0
    2.0595   -1.6323   -0.6012 H   0  0  0  0  0  0  0  0  0  0  0  0
    3.9584   -0.3543    0.2687 H   0  0  0  0  0  0  0  0  0  0  0  0
    5.6758    1.3831   -0.0907 H   0  0  0  0  0  0  0  0  0  0  0  0
    5.4395    3.0086   -1.9505 H   0  0  0  0  0  0  0  0  0  0  0  0
    3.4696    2.8939   -3.4537 H   0  0  0  0  0  0  0  0  0  0  0  0
    1.7417    1.1606   -3.1090 H   0  0  0  0  0  0  0  0  0  0  0  0
  1  2  1  0
  2  3  2  0
  2  4  1  0
  4  5  2  3
  5  6  1  0
  6  7  1  0
  7  8  2  0
  8  9  1  0
  9 10  2  0
 10 11  1  0
 11 12  2  0
  5 13  1  0
 13 14  2  0
 13 15  1  0
 15 16  1  0
 16 17  1  0
 17 18  2  0
 18 19  1  0
 19 20  2  0
 20 21  1  0
 21 22  2  0
 12  7  1  0
 22 17  1  0
  1 23  1  0
  1 24  1  0
  1 25  1  0
  6 26  1  0
  6 27  1  0
  8 28  1  0
  9 29  1  0
 10 30  1  0
 11 31  1  0
 12 32  1  0
 16 33  1  0
 16 34  1  0
 18 35  1  0
 19 36  1  0
 20 37  1  0
 21 38  1  0
 22 39  1  0
M  END
$$$$
