
     RDKit          3D

 59 62  0  0  0  0  0  0  0  0999 V2000
   -7.7715    1.9021   -3.3826 C   0  0  0  0  0  0  0  0  0  0  0  0
   -7.2768    2.2532   -2.0965 O   0  0  0  0  0  0  0  0  0  0  0  0
   -6.0686    1.7251   -1.7351 C   0  0  0  0  0  0  0  0  0  0  0  0
   -5.7021    1.9639   -0.4095 C   0  0  0  0  0  0  0  0  0  0  0  0
   -4.4901    1.4846    0.0936 C   0  0  0  0  0  0  0  0  0  0  0  0
   -3.6263    0.7564   -0.7307 C   0  0  0  0  0  0  0  0  0  0  0  0
   -2.3598    0.2694   -0.2038 C   0  0  0  0  0  0  0  0  0  0  0  0
   -1.2290    0.9776    0.1607 C   0  0  0  0  0  0  0  0  0  0  0  0
   -0.2522    0.1489    0.6453 N   0  0  0  0  0  0  0  0  0  0  0  0
   -0.7768   -1.0541    0.6064 C   0  0  0  0  0  0  0  0  0  0  0  0
    0.0487   -2.4859    1.1269 S   0  0  0  0  0  0  0  0  0  0  0  0
    1.2237   -1.7924    2.3282 C   0  0  0  0  0  0  0  0  0  0  0  0
    2.5301   -1.3816    1.6680 C   0  0  0  0  0  0  0  0  0  0  0  0
    3.5464   -2.0486    1.8411 O   0  0  0  0  0  0  0  0  0  0  0  0
    2.4226   -0.2269    0.9323 N   0  0  0  0  0  0  0  0  0  0  0  0
    3.4872    0.3878    0.3435 C   0  0  0  0  0  0  0  0  0  0  0  0
    4.7605    0.1122    0.4314 N   0  0  0  0  0  0  0  0  0  0  0  0
    5.5038    1.0184   -0.3184 C   0  0  0  0  0  0  0  0  0  0  0  0
    7.0160    0.8551   -0.3300 C   0  0  0  0  0  0  0  0  0  0  0  0
    7.3842   -0.5298   -0.8988 C   0  0  0  0  0  0  0  0  0  0  0  0
    7.7150    1.9269   -1.1903 C   0  0  0  0  0  0  0  0  0  0  0  0
    7.5595    0.9644    1.1087 C   0  0  0  0  0  0  0  0  0  0  0  0
    4.7345    1.9739   -0.9622 C   0  0  0  0  0  0  0  0  0  0  0  0
    3.0711    1.7340   -0.6169 S   0  0  0  0  0  0  0  0  0  0  0  0
   -2.0573   -1.0478    0.1043 N   0  0  0  0  0  0  0  0  0  0  0  0
   -2.9363   -2.1970   -0.0638 C   0  0  0  0  0  0  0  0  0  0  0  0
   -3.6476   -2.5214    1.1967 C   0  0  0  0  0  0  0  0  0  0  0  0
   -3.5098   -3.5272    2.1321 C   0  0  0  0  0  0  0  0  0  0  0  0
   -4.5164   -3.3093    3.1028 C   0  0  0  0  0  0  0  0  0  0  0  0
   -5.2013   -2.1868    2.7018 C   0  0  0  0  0  0  0  0  0  0  0  0
   -4.6842   -1.7036    1.5455 O   0  0  0  0  0  0  0  0  0  0  0  0
   -3.9841    0.5329   -2.0624 C   0  0  0  0  0  0  0  0  0  0  0  0
   -5.2021    1.0107   -2.5636 C   0  0  0  0  0  0  0  0  0  0  0  0
   -8.7599    2.3586   -3.4949 H   0  0  0  0  0  0  0  0  0  0  0  0
   -7.1309    2.2986   -4.1786 H   0  0  0  0  0  0  0  0  0  0  0  0
   -7.8917    0.8175   -3.4765 H   0  0  0  0  0  0  0  0  0  0  0  0
   -6.3690    2.5282    0.2419 H   0  0  0  0  0  0  0  0  0  0  0  0
   -4.2333    1.6765    1.1319 H   0  0  0  0  0  0  0  0  0  0  0  0
   -1.0775    2.0472    0.0913 H   0  0  0  0  0  0  0  0  0  0  0  0
    0.7954   -0.9470    2.8781 H   0  0  0  0  0  0  0  0  0  0  0  0
    1.4498   -2.5703    3.0666 H   0  0  0  0  0  0  0  0  0  0  0  0
    1.5013    0.1632    0.7455 H   0  0  0  0  0  0  0  0  0  0  0  0
    8.4696   -0.6683   -0.9320 H   0  0  0  0  0  0  0  0  0  0  0  0
    6.9990   -0.6556   -1.9177 H   0  0  0  0  0  0  0  0  0  0  0  0
    6.9667   -1.3398   -0.2899 H   0  0  0  0  0  0  0  0  0  0  0  0
    7.3874    1.8783   -2.2362 H   0  0  0  0  0  0  0  0  0  0  0  0
    8.8033    1.7934   -1.1801 H   0  0  0  0  0  0  0  0  0  0  0  0
    7.5049    2.9381   -0.8209 H   0  0  0  0  0  0  0  0  0  0  0  0
    7.1437    0.1856    1.7567 H   0  0  0  0  0  0  0  0  0  0  0  0
    7.3017    1.9317    1.5541 H   0  0  0  0  0  0  0  0  0  0  0  0
    8.6505    0.8655    1.1319 H   0  0  0  0  0  0  0  0  0  0  0  0
    5.0519    2.7859   -1.5976 H   0  0  0  0  0  0  0  0  0  0  0  0
   -3.6529   -1.9835   -0.8625 H   0  0  0  0  0  0  0  0  0  0  0  0
   -2.3320   -3.0403   -0.4126 H   0  0  0  0  0  0  0  0  0  0  0  0
   -2.7775   -4.3236    2.1126 H   0  0  0  0  0  0  0  0  0  0  0  0
   -4.7205   -3.8988    3.9813 H   0  0  0  0  0  0  0  0  0  0  0  0
   -6.0396   -1.6358    3.1031 H   0  0  0  0  0  0  0  0  0  0  0  0
   -3.3137   -0.0076   -2.7271 H   0  0  0  0  0  0  0  0  0  0  0  0
   -5.4381    0.8172   -3.6030 H   0  0  0  0  0  0  0  0  0  0  0  0
  1  2  1  0
  2  3  1  0
  3  4  2  0
  4  5  1  0
  5  6  2  0
  6  7  1  0
  7  8  2  0
  8  9  1  0
  9 10  2  0
 10 11  1  0
 11 12  1  0
 12 13  1  0
 13 14  2  0
 13 15  1  0
 15 16  1  0
 16 17  2  0
 17 18  1  0
 18 19  1  0
 19 20  1  0
 19 21  1  0
 19 22  1  0
 18 23  2  0
 23 24  1  0
 10 25  1  0
 25 26  1  0
 26 27  1  0
 27 28  2  0
 28 29  1  0
 29 30  2  0
 30 31  1  0
  6 32  1  0
 32 33  2  0
 33  3  1  0
 25  7  1  0
 31 27  1  0
 24 16  1  0
  1 34  1  0
  1 35  1  0
  1 36  1  0
  4 37  1  0
  5 38  1  0
  8 39  1  0
 12 40  1  0
 12 41  1  0
 15 42  1  0
 20 43  1  0
 20 44  1  0
 20 45  1  0
 21 46  1  0
 21 47  1  0
 21 48  1  0
 22 49  1  0
 22 50  1  0
 22 51  1  0
 23 52  1  0
 26 53  1  0
 26 54  1  0
 28 55  1  0
 29 56  1  0
 30 57  1  0
 32 58  1  0
 33 59  1  0
M  END
$$$$
