
     RDKit          3D

 52 54  0  0  0  0  0  0  0  0999 V2000
    8.8948    0.1153    0.2175 C   0  0  0  0  0  0  0  0  0  0  0  0
    7.6421   -0.4583   -0.3753 C   0  0  0  0  0  0  0  0  0  0  0  0
    7.1901   -1.7246    0.0118 C   0  0  0  0  0  0  0  0  0  0  0  0
    6.0063   -2.2466   -0.5151 C   0  0  0  0  0  0  0  0  0  0  0  0
    5.2525   -1.5095   -1.4373 C   0  0  0  0  0  0  0  0  0  0  0  0
    3.9632   -2.0563   -1.9838 C   0  0  0  0  0  0  0  0  0  0  0  0
    2.8423   -1.6128   -1.2001 N   0  0  0  0  0  0  0  0  0  0  0  0
    1.5494   -1.8812   -1.5735 C   0  0  0  0  0  0  0  0  0  0  0  0
    1.1969   -2.4342   -2.6060 O   0  0  0  0  0  0  0  0  0  0  0  0
    0.4955   -1.4153   -0.5429 C   0  0  0  0  0  0  0  0  0  0  0  0
    0.8398   -0.8400    0.4791 O   0  0  0  0  0  0  0  0  0  0  0  0
   -0.7995   -1.6963   -0.9106 N   0  0  0  0  0  0  0  0  0  0  0  0
   -1.9350   -1.1772   -0.1654 C   0  0  0  0  0  0  0  0  0  0  0  0
   -2.1182    0.3571   -0.3171 C   0  0  0  0  0  0  0  0  0  0  0  0
   -2.1504    0.6850   -1.7261 O   0  0  0  0  0  0  0  0  0  0  0  0
   -3.5270    0.6464   -2.1063 C   0  0  0  0  0  0  0  0  0  0  0  0
   -4.2634    1.2053   -0.9099 C   0  0  0  0  0  0  0  0  0  0  0  0
   -3.3753    0.9135    0.2260 N   0  0  0  0  0  0  0  0  0  0  0  0
   -4.0207    0.2299    1.6099 S   0  0  0  0  0  6  0  0  0  0  0  0
   -2.9792    0.1487    2.6079 O   0  0  0  0  0  0  0  0  0  0  0  0
   -4.7644   -0.9422    1.1989 O   0  0  0  0  0  0  0  0  0  0  0  0
   -5.1734    1.4692    2.1471 C   0  0  0  0  0  0  0  0  0  0  0  0
   -6.5466    1.2076    2.1315 C   0  0  0  0  0  0  0  0  0  0  0  0
   -7.4369    2.1950    2.5581 C   0  0  0  0  0  0  0  0  0  0  0  0
   -6.9484    3.4267    2.9990 C   0  0  0  0  0  0  0  0  0  0  0  0
   -8.1587    4.7604    3.5739 Br  0  0  0  0  0  0  0  0  0  0  0  0
   -5.5765    3.6829    3.0220 C   0  0  0  0  0  0  0  0  0  0  0  0
   -4.6819    2.6995    2.5969 C   0  0  0  0  0  0  0  0  0  0  0  0
    5.6929   -0.2312   -1.8036 C   0  0  0  0  0  0  0  0  0  0  0  0
    6.8767    0.2900   -1.2761 C   0  0  0  0  0  0  0  0  0  0  0  0
    9.6159   -0.6761    0.4471 H   0  0  0  0  0  0  0  0  0  0  0  0
    8.6590    0.6576    1.1381 H   0  0  0  0  0  0  0  0  0  0  0  0
    9.3800    0.8024   -0.4838 H   0  0  0  0  0  0  0  0  0  0  0  0
    7.7571   -2.3134    0.7296 H   0  0  0  0  0  0  0  0  0  0  0  0
    5.6744   -3.2326   -0.1970 H   0  0  0  0  0  0  0  0  0  0  0  0
    3.8186   -1.7447   -3.0252 H   0  0  0  0  0  0  0  0  0  0  0  0
    3.9718   -3.1527   -1.9823 H   0  0  0  0  0  0  0  0  0  0  0  0
    2.9879   -1.2057   -0.2798 H   0  0  0  0  0  0  0  0  0  0  0  0
   -0.9283   -2.0257   -1.8641 H   0  0  0  0  0  0  0  0  0  0  0  0
   -2.8098   -1.7158   -0.5439 H   0  0  0  0  0  0  0  0  0  0  0  0
   -1.7917   -1.4479    0.8852 H   0  0  0  0  0  0  0  0  0  0  0  0
   -1.2662    0.8900    0.1168 H   0  0  0  0  0  0  0  0  0  0  0  0
   -3.6847    1.2357   -3.0136 H   0  0  0  0  0  0  0  0  0  0  0  0
   -3.8107   -0.3921   -2.3088 H   0  0  0  0  0  0  0  0  0  0  0  0
   -5.2641    0.7749   -0.8243 H   0  0  0  0  0  0  0  0  0  0  0  0
   -4.3613    2.2932   -0.9907 H   0  0  0  0  0  0  0  0  0  0  0  0
   -6.9295    0.2458    1.7971 H   0  0  0  0  0  0  0  0  0  0  0  0
   -8.5057    1.9947    2.5488 H   0  0  0  0  0  0  0  0  0  0  0  0
   -5.1962    4.6395    3.3722 H   0  0  0  0  0  0  0  0  0  0  0  0
   -3.6109    2.8918    2.6197 H   0  0  0  0  0  0  0  0  0  0  0  0
    5.1113    0.3697   -2.4998 H   0  0  0  0  0  0  0  0  0  0  0  0
    7.1961    1.2869   -1.5719 H   0  0  0  0  0  0  0  0  0  0  0  0
  1  2  1  0
  2  3  2  0
  3  4  1  0
  4  5  2  0
  5  6  1  0
  6  7  1  0
  7  8  1  0
  8  9  2  0
  8 10  1  0
 10 11  2  0
 10 12  1  0
 12 13  1  0
 13 14  1  0
 14 15  1  0
 15 16  1  0
 16 17  1  0
 17 18  1  0
 18 19  1  0
 19 20  2  0
 19 21  2  0
 19 22  1  0
 22 23  2  0
 23 24  1  0
 24 25  2  0
 25 26  1  0
 25 27  1  0
 27 28  2  0
  5 29  1  0
 29 30  2  0
 30  2  1  0
 18 14  1  0
 28 22  1  0
  1 31  1  0
  1 32  1  0
  1 33  1  0
  3 34  1  0
  4 35  1  0
  6 36  1  0
  6 37  1  0
  7 38  1  0
 12 39  1  0
 13 40  1  0
 13 41  1  0
 14 42  1  0
 16 43  1  0
 16 44  1  0
 17 45  1  0
 17 46  1  0
 23 47  1  0
 24 48  1  0
 27 49  1  0
 28 50  1  0
 29 51  1  0
 30 52  1  0
M  END
$$$$
