
     RDKit          3D

 42 45  0  0  0  0  0  0  0  0999 V2000
    4.0870    1.4694    0.8902 C   0  0  0  0  0  0  0  0  0  0  0  0
    3.7210    0.2105    0.1928 C   0  0  0  0  0  0  0  0  0  0  0  0
    2.4833   -0.3450   -0.0997 C   0  0  0  0  0  0  0  0  0  0  0  0
    1.1442    0.1642    0.2030 C   0  0  0  0  0  0  0  0  0  0  0  0
    0.9646    1.2360    0.7717 O   0  0  0  0  0  0  0  0  0  0  0  0
    0.1450   -0.6969   -0.2457 N   0  0  0  0  0  0  0  0  0  0  0  0
   -1.1978   -0.4183   -0.2920 N   0  0  0  0  0  0  0  0  0  0  0  0
   -1.7229    0.2406    0.6947 C   0  0  0  0  0  0  0  0  0  0  0  0
   -3.1533    0.6619    0.7423 C   0  0  0  0  0  0  0  0  0  0  0  0
   -3.4654    1.6651    1.6800 C   0  0  0  0  0  0  0  0  0  0  0  0
   -2.4920    2.1782    2.4962 O   0  0  0  0  0  0  0  0  0  0  0  0
   -4.7580    2.1622    1.7960 C   0  0  0  0  0  0  0  0  0  0  0  0
   -5.7609    1.6587    0.9750 C   0  0  0  0  0  0  0  0  0  0  0  0
   -5.4939    0.6493    0.0398 C   0  0  0  0  0  0  0  0  0  0  0  0
   -6.5469    0.1660   -0.7557 C   0  0  0  0  0  0  0  0  0  0  0  0
   -6.3409   -0.8469   -1.6874 C   0  0  0  0  0  0  0  0  0  0  0  0
   -5.0763   -1.3932   -1.8310 C   0  0  0  0  0  0  0  0  0  0  0  0
   -4.0187   -0.9204   -1.0476 C   0  0  0  0  0  0  0  0  0  0  0  0
   -4.1805    0.1203   -0.0948 C   0  0  0  0  0  0  0  0  0  0  0  0
    2.6711   -1.5273   -0.7683 N   0  0  0  0  0  0  0  0  0  0  0  0
    3.9685   -1.7300   -0.9028 N   0  0  0  0  0  0  0  0  0  0  0  0
    4.6466   -0.6939   -0.3288 N   0  0  0  0  0  0  0  0  0  0  0  0
    6.0642   -0.6565   -0.3101 C   0  0  0  0  0  0  0  0  0  0  0  0
    6.7225    0.3326    0.2964 N   0  0  0  0  0  0  0  0  0  0  0  0
    8.0660    0.0073    0.1146 O   0  0  0  0  0  0  0  0  0  0  0  0
    8.2069   -1.1787   -0.5977 N   0  0  0  0  0  0  0  0  0  0  0  0
    6.9662   -1.5832   -0.8668 C   0  0  0  0  0  0  0  0  0  0  0  0
    6.6647   -2.6975   -1.5595 N   0  0  0  0  0  0  0  0  0  0  0  0
    4.6556    1.2568    1.8011 H   0  0  0  0  0  0  0  0  0  0  0  0
    3.2094    2.0458    1.1912 H   0  0  0  0  0  0  0  0  0  0  0  0
    4.6817    2.1167    0.2378 H   0  0  0  0  0  0  0  0  0  0  0  0
    0.4412   -1.4239   -0.8935 H   0  0  0  0  0  0  0  0  0  0  0  0
   -1.1160    0.5156    1.5738 H   0  0  0  0  0  0  0  0  0  0  0  0
   -2.8489    2.9260    3.0032 H   0  0  0  0  0  0  0  0  0  0  0  0
   -5.0048    2.9375    2.5150 H   0  0  0  0  0  0  0  0  0  0  0  0
   -6.7676    2.0608    1.0772 H   0  0  0  0  0  0  0  0  0  0  0  0
   -7.5495    0.5771   -0.6530 H   0  0  0  0  0  0  0  0  0  0  0  0
   -7.1663   -1.2093   -2.2938 H   0  0  0  0  0  0  0  0  0  0  0  0
   -4.9017   -2.1895   -2.5499 H   0  0  0  0  0  0  0  0  0  0  0  0
   -3.0545   -1.3968   -1.1976 H   0  0  0  0  0  0  0  0  0  0  0  0
    7.3911   -3.3838   -1.7347 H   0  0  0  0  0  0  0  0  0  0  0  0
    5.7157   -3.0673   -1.5814 H   0  0  0  0  0  0  0  0  0  0  0  0
  1  2  1  0
  2  3  2  0
  3  4  1  0
  4  5  2  0
  4  6  1  0
  6  7  1  0
  7  8  2  3
  8  9  1  0
  9 10  2  0
 10 11  1  0
 10 12  1  0
 12 13  2  0
 13 14  1  0
 14 15  2  0
 15 16  1  0
 16 17  2  0
 17 18  1  0
 18 19  2  0
  3 20  1  0
 20 21  2  0
 21 22  1  0
 22 23  1  0
 23 24  2  0
 24 25  1  0
 25 26  1  0
 26 27  2  0
 27 28  1  0
 22  2  1  0
 27 23  1  0
 19  9  1  0
 19 14  1  0
  1 29  1  0
  1 30  1  0
  1 31  1  0
  6 32  1  0
  8 33  1  0
 11 34  1  0
 12 35  1  0
 13 36  1  0
 15 37  1  0
 16 38  1  0
 17 39  1  0
 18 40  1  0
 28 41  1  0
 28 42  1  0
M  END
$$$$
