
     RDKit          3D

 57 61  0  0  0  0  0  0  0  0999 V2000
    4.8730    1.7870    0.3216 C   0  0  0  0  0  0  0  0  0  0  0  0
    4.8754    0.9799    1.6148 C   0  0  0  0  0  0  0  0  0  0  0  0
    5.6313   -0.3392    1.5046 C   0  0  0  0  0  0  0  0  0  0  0  0
    3.5024    0.8202    2.2753 C   0  0  0  0  0  0  0  0  0  0  0  0
    3.3958    1.1292    3.4689 O   0  0  0  0  0  0  0  0  0  0  0  0
    2.4123    0.3212    1.5794 N   0  0  0  0  0  0  0  0  0  0  0  0
    2.4051   -0.1726    0.2052 C   0  0  0  0  0  0  0  0  0  0  0  0
    1.3747   -1.2835    0.0221 C   0  0  0  0  0  0  0  0  0  0  0  0
   -0.0821   -0.8240    0.3362 C   0  0  0  0  0  0  0  0  0  0  0  0
   -0.0412    0.3958    1.2959 C   0  0  0  0  0  0  0  0  0  0  0  0
    1.1250    0.3010    2.2751 C   0  0  0  0  0  0  0  0  0  0  0  0
   -0.7403   -1.8645    1.1084 O   0  0  0  0  0  0  0  0  0  0  0  0
   -1.1161   -2.9817    0.4190 C   0  0  0  0  0  0  0  0  0  0  0  0
   -1.3693   -4.1204    1.1855 C   0  0  0  0  0  0  0  0  0  0  0  0
   -1.7431   -5.3112    0.5609 C   0  0  0  0  0  0  0  0  0  0  0  0
   -1.8665   -5.3522   -0.8244 C   0  0  0  0  0  0  0  0  0  0  0  0
   -2.2247   -6.4969   -1.4188 F   0  0  0  0  0  0  0  0  0  0  0  0
   -1.6325   -4.2231   -1.5984 C   0  0  0  0  0  0  0  0  0  0  0  0
   -1.2652   -3.0323   -0.9661 C   0  0  0  0  0  0  0  0  0  0  0  0
   -1.0555   -1.8037   -1.7526 C   0  0  0  0  0  0  0  0  0  0  0  0
   -1.0588   -1.8628   -2.9780 O   0  0  0  0  0  0  0  0  0  0  0  0
   -0.9029   -0.5161   -0.9482 C   0  0  0  0  0  0  0  0  0  0  0  0
   -2.2979    0.0566   -0.7282 C   0  0  0  0  0  0  0  0  0  0  0  0
   -2.0512    1.4662   -1.1386 C   0  0  0  0  0  0  0  0  0  0  0  0
   -3.0560    2.5343   -0.9239 C   0  0  0  0  0  0  0  0  0  0  0  0
   -2.7189    3.8565   -1.2447 C   0  0  0  0  0  0  0  0  0  0  0  0
   -3.6424    4.8874   -1.0504 C   0  0  0  0  0  0  0  0  0  0  0  0
   -4.9042    4.5973   -0.5373 C   0  0  0  0  0  0  0  0  0  0  0  0
   -6.0430    5.8634   -0.2971 Cl  0  0  0  0  0  0  0  0  0  0  0  0
   -5.2505    3.2850   -0.2183 C   0  0  0  0  0  0  0  0  0  0  0  0
   -4.3278    2.2511   -0.4115 C   0  0  0  0  0  0  0  0  0  0  0  0
   -0.9011    1.6806   -1.6912 N   0  0  0  0  0  0  0  0  0  0  0  0
   -0.2150    0.4480   -1.7538 O   0  0  0  0  0  0  0  0  0  0  0  0
    4.1641    2.6198    0.3761 H   0  0  0  0  0  0  0  0  0  0  0  0
    4.6215    1.1828   -0.5535 H   0  0  0  0  0  0  0  0  0  0  0  0
    5.8690    2.2053    0.1376 H   0  0  0  0  0  0  0  0  0  0  0  0
    5.4428    1.5938    2.3312 H   0  0  0  0  0  0  0  0  0  0  0  0
    5.2368   -0.9942    0.7252 H   0  0  0  0  0  0  0  0  0  0  0  0
    6.6859   -0.1551    1.2727 H   0  0  0  0  0  0  0  0  0  0  0  0
    5.5869   -0.8916    2.4496 H   0  0  0  0  0  0  0  0  0  0  0  0
    2.1882    0.6760   -0.4526 H   0  0  0  0  0  0  0  0  0  0  0  0
    3.3835   -0.5617   -0.0675 H   0  0  0  0  0  0  0  0  0  0  0  0
    1.6483   -2.1197    0.6803 H   0  0  0  0  0  0  0  0  0  0  0  0
    1.4583   -1.6710   -0.9995 H   0  0  0  0  0  0  0  0  0  0  0  0
    0.0695    1.3337    0.7416 H   0  0  0  0  0  0  0  0  0  0  0  0
   -0.9718    0.4620    1.8723 H   0  0  0  0  0  0  0  0  0  0  0  0
    1.0771   -0.6268    2.8574 H   0  0  0  0  0  0  0  0  0  0  0  0
    1.0690    1.1359    2.9827 H   0  0  0  0  0  0  0  0  0  0  0  0
   -1.2640   -4.0858    2.2675 H   0  0  0  0  0  0  0  0  0  0  0  0
   -1.9353   -6.2072    1.1440 H   0  0  0  0  0  0  0  0  0  0  0  0
   -1.7462   -4.2784   -2.6776 H   0  0  0  0  0  0  0  0  0  0  0  0
   -3.0533   -0.3760   -1.3936 H   0  0  0  0  0  0  0  0  0  0  0  0
   -2.6453   -0.0212    0.3044 H   0  0  0  0  0  0  0  0  0  0  0  0
   -1.7363    4.0943   -1.6491 H   0  0  0  0  0  0  0  0  0  0  0  0
   -3.3698    5.9090   -1.3031 H   0  0  0  0  0  0  0  0  0  0  0  0
   -6.2379    3.0606    0.1781 H   0  0  0  0  0  0  0  0  0  0  0  0
   -4.6299    1.2384   -0.1612 H   0  0  0  0  0  0  0  0  0  0  0  0
  1  2  1  0
  2  3  1  0
  2  4  1  0
  4  5  2  0
  4  6  1  0
  6  7  1  0
  7  8  1  0
  8  9  1  0
  9 10  1  0
 10 11  1  0
  9 12  1  0
 12 13  1  0
 13 14  2  0
 14 15  1  0
 15 16  2  0
 16 17  1  0
 16 18  1  0
 18 19  2  0
 19 20  1  0
 20 21  2  0
 20 22  1  0
 22 23  1  0
 23 24  1  0
 24 25  1  0
 25 26  2  0
 26 27  1  0
 27 28  2  0
 28 29  1  0
 28 30  1  0
 30 31  2  0
 24 32  2  0
 32 33  1  0
 11  6  1  0
 19 13  1  0
 33 22  1  0
 22  9  1  0
 31 25  1  0
  1 34  1  0
  1 35  1  0
  1 36  1  0
  2 37  1  0
  3 38  1  0
  3 39  1  0
  3 40  1  0
  7 41  1  0
  7 42  1  0
  8 43  1  0
  8 44  1  0
 10 45  1  0
 10 46  1  0
 11 47  1  0
 11 48  1  0
 14 49  1  0
 15 50  1  0
 18 51  1  0
 23 52  1  0
 23 53  1  0
 26 54  1  0
 27 55  1  0
 30 56  1  0
 31 57  1  0
M  END
$$$$
