
     RDKit          3D

 61 65  0  0  0  0  0  0  0  0999 V2000
   -8.2997   -1.3389    0.3209 C   0  0  0  0  0  0  0  0  0  0  0  0
   -7.5341   -0.5758    1.2424 O   0  0  0  0  0  0  0  0  0  0  0  0
   -6.3000   -0.1354    0.8353 C   0  0  0  0  0  0  0  0  0  0  0  0
   -5.6861   -0.4996   -0.3690 C   0  0  0  0  0  0  0  0  0  0  0  0
   -4.4214    0.0003   -0.6976 C   0  0  0  0  0  0  0  0  0  0  0  0
   -3.7486    0.8732    0.1687 C   0  0  0  0  0  0  0  0  0  0  0  0
   -2.4363    1.3951   -0.2023 C   0  0  0  0  0  0  0  0  0  0  0  0
   -1.7981    1.3242   -1.3541 N   0  0  0  0  0  0  0  0  0  0  0  0
   -0.6110    2.0041   -1.1379 C   0  0  0  0  0  0  0  0  0  0  0  0
    0.3474    2.1742   -2.2631 C   0  0  0  0  0  0  0  0  0  0  0  0
    1.7384    2.0339   -1.8614 N   0  0  0  0  0  0  0  0  0  0  0  0
    2.4432    0.8678   -1.6891 C   0  0  0  0  0  0  0  0  0  0  0  0
    1.7178   -0.6985   -1.8244 S   0  0  0  0  0  0  0  0  0  0  0  0
    3.1414   -1.7293   -2.2774 C   0  0  0  0  0  0  0  0  0  0  0  0
    3.6684   -2.5444   -1.1214 C   0  0  0  0  0  0  0  0  0  0  0  0
    4.6975   -2.0490   -0.3101 C   0  0  0  0  0  0  0  0  0  0  0  0
    5.2096   -2.8166    0.7418 C   0  0  0  0  0  0  0  0  0  0  0  0
    4.7009   -4.0943    1.0031 C   0  0  0  0  0  0  0  0  0  0  0  0
    5.2539   -4.9093    2.1377 C   0  0  0  0  0  0  0  0  0  0  0  0
    3.6526   -4.5795    0.2148 C   0  0  0  0  0  0  0  0  0  0  0  0
    3.1389   -3.8116   -0.8370 C   0  0  0  0  0  0  0  0  0  0  0  0
    3.7048    1.0973   -1.4070 N   0  0  0  0  0  0  0  0  0  0  0  0
    3.8336    2.4621   -1.3825 C   0  0  0  0  0  0  0  0  0  0  0  0
    4.9594    3.2417   -1.1127 C   0  0  0  0  0  0  0  0  0  0  0  0
    4.7642    4.6110   -1.1636 C   0  0  0  0  0  0  0  0  0  0  0  0
    3.5901    5.2160   -1.4627 N   0  0  0  0  0  0  0  0  0  0  0  0
    2.5027    4.4582   -1.7305 C   0  0  0  0  0  0  0  0  0  0  0  0
    2.6237    3.0778   -1.6796 C   0  0  0  0  0  0  0  0  0  0  0  0
   -0.5834    2.4567    0.1675 C   0  0  0  0  0  0  0  0  0  0  0  0
    0.3585    3.2167    1.0078 C   0  0  0  0  0  0  0  0  0  0  0  0
   -1.7524    2.0808    0.7666 O   0  0  0  0  0  0  0  0  0  0  0  0
   -4.3682    1.2341    1.3785 C   0  0  0  0  0  0  0  0  0  0  0  0
   -5.6301    0.7320    1.7225 C   0  0  0  0  0  0  0  0  0  0  0  0
   -6.2898    1.0346    2.8920 O   0  0  0  0  0  0  0  0  0  0  0  0
   -5.6021    1.8285    3.8513 C   0  0  0  0  0  0  0  0  0  0  0  0
   -9.2666   -1.5512    0.7875 H   0  0  0  0  0  0  0  0  0  0  0  0
   -8.4901   -0.7776   -0.6017 H   0  0  0  0  0  0  0  0  0  0  0  0
   -7.8220   -2.2992    0.0983 H   0  0  0  0  0  0  0  0  0  0  0  0
   -6.1612   -1.1761   -1.0730 H   0  0  0  0  0  0  0  0  0  0  0  0
   -3.9574   -0.2999   -1.6392 H   0  0  0  0  0  0  0  0  0  0  0  0
    0.2159    3.1653   -2.7120 H   0  0  0  0  0  0  0  0  0  0  0  0
    0.1555    1.4473   -3.0605 H   0  0  0  0  0  0  0  0  0  0  0  0
    3.9487   -1.1432   -2.7308 H   0  0  0  0  0  0  0  0  0  0  0  0
    2.8021   -2.4142   -3.0664 H   0  0  0  0  0  0  0  0  0  0  0  0
    5.1083   -1.0574   -0.4953 H   0  0  0  0  0  0  0  0  0  0  0  0
    6.0129   -2.4101    1.3537 H   0  0  0  0  0  0  0  0  0  0  0  0
    4.9293   -5.9534    2.0732 H   0  0  0  0  0  0  0  0  0  0  0  0
    4.9188   -4.5004    3.0981 H   0  0  0  0  0  0  0  0  0  0  0  0
    6.3501   -4.9053    2.1055 H   0  0  0  0  0  0  0  0  0  0  0  0
    3.2255   -5.5593    0.4131 H   0  0  0  0  0  0  0  0  0  0  0  0
    2.3240   -4.2119   -1.4375 H   0  0  0  0  0  0  0  0  0  0  0  0
    5.9190    2.8023   -0.8766 H   0  0  0  0  0  0  0  0  0  0  0  0
    5.5880    5.2909   -0.9593 H   0  0  0  0  0  0  0  0  0  0  0  0
    1.5834    4.9830   -1.9544 H   0  0  0  0  0  0  0  0  0  0  0  0
   -0.1013    3.4854    1.9661 H   0  0  0  0  0  0  0  0  0  0  0  0
    1.2562    2.6265    1.2191 H   0  0  0  0  0  0  0  0  0  0  0  0
    0.6526    4.1478    0.5165 H   0  0  0  0  0  0  0  0  0  0  0  0
   -3.8496    1.9237    2.0402 H   0  0  0  0  0  0  0  0  0  0  0  0
   -6.2335    1.9040    4.7420 H   0  0  0  0  0  0  0  0  0  0  0  0
   -4.6619    1.3559    4.1560 H   0  0  0  0  0  0  0  0  0  0  0  0
   -5.4324    2.8430    3.4700 H   0  0  0  0  0  0  0  0  0  0  0  0
  1  2  1  0
  2  3  1  0
  3  4  2  0
  4  5  1  0
  5  6  2  0
  6  7  1  0
  7  8  2  0
  8  9  1  0
  9 10  1  0
 10 11  1  0
 11 12  1  0
 12 13  1  0
 13 14  1  0
 14 15  1  0
 15 16  2  0
 16 17  1  0
 17 18  2  0
 18 19  1  0
 18 20  1  0
 20 21  2  0
 12 22  2  0
 22 23  1  0
 23 24  2  0
 24 25  1  0
 25 26  2  0
 26 27  1  0
 27 28  2  0
  9 29  2  0
 29 30  1  0
 29 31  1  0
  6 32  1  0
 32 33  2  0
 33 34  1  0
 34 35  1  0
 33  3  1  0
 31  7  1  0
 28 11  1  0
 21 15  1  0
 28 23  1  0
  1 36  1  0
  1 37  1  0
  1 38  1  0
  4 39  1  0
  5 40  1  0
 10 41  1  0
 10 42  1  0
 14 43  1  0
 14 44  1  0
 16 45  1  0
 17 46  1  0
 19 47  1  0
 19 48  1  0
 19 49  1  0
 20 50  1  0
 21 51  1  0
 24 52  1  0
 25 53  1  0
 27 54  1  0
 30 55  1  0
 30 56  1  0
 30 57  1  0
 32 58  1  0
 35 59  1  0
 35 60  1  0
 35 61  1  0
M  END
$$$$
