
     RDKit          3D

 32 34  0  0  0  0  0  0  0  0999 V2000
    0.4210   -1.2316    1.9913 O   0  0  0  0  0  0  0  0  0  0  0  0
   -0.1850   -0.7697    1.0288 C   0  0  0  0  0  0  0  0  0  0  0  0
   -1.7160   -0.7104    1.0390 C   0  0  0  0  0  0  0  0  0  0  0  0
   -2.2187   -0.1416   -0.1679 O   0  0  0  0  0  0  0  0  0  0  0  0
   -3.5770   -0.0324   -0.2834 C   0  0  0  0  0  0  0  0  0  0  0  0
   -4.0149    0.5321   -1.4873 C   0  0  0  0  0  0  0  0  0  0  0  0
   -5.3776    0.7023   -1.7367 C   0  0  0  0  0  0  0  0  0  0  0  0
   -6.2997    0.3058   -0.7779 C   0  0  0  0  0  0  0  0  0  0  0  0
   -7.6083    0.4668   -1.0119 F   0  0  0  0  0  0  0  0  0  0  0  0
   -5.8822   -0.2563    0.4226 C   0  0  0  0  0  0  0  0  0  0  0  0
   -4.5169   -0.4270    0.6728 C   0  0  0  0  0  0  0  0  0  0  0  0
    0.3597   -0.2673   -0.1293 N   0  0  0  0  0  0  0  0  0  0  0  0
    1.6857   -0.1728   -0.4589 C   0  0  0  0  0  0  0  0  0  0  0  0
    2.0876    0.3304   -1.6064 N   0  0  0  0  0  0  0  0  0  0  0  0
    3.4650    0.3253   -1.7229 N   0  0  0  0  0  0  0  0  0  0  0  0
    4.0340   -0.1768   -0.6500 C   0  0  0  0  0  0  0  0  0  0  0  0
    5.5815   -0.3114   -0.5135 C   0  0  0  0  0  0  0  0  0  0  0  0
    6.4637    0.8025   -1.0177 C   0  0  0  0  0  0  0  0  0  0  0  0
    6.3172    0.5759    0.4585 C   0  0  0  0  0  0  0  0  0  0  0  0
    2.9475   -0.6905    0.5634 S   0  0  0  0  0  0  0  0  0  0  0  0
   -2.0068   -0.0933    1.8971 H   0  0  0  0  0  0  0  0  0  0  0  0
   -2.0756   -1.7399    1.1499 H   0  0  0  0  0  0  0  0  0  0  0  0
   -3.2916    0.8424   -2.2377 H   0  0  0  0  0  0  0  0  0  0  0  0
   -5.7219    1.1394   -2.6683 H   0  0  0  0  0  0  0  0  0  0  0  0
   -6.6223   -0.5587    1.1571 H   0  0  0  0  0  0  0  0  0  0  0  0
   -4.2274   -0.8691    1.6206 H   0  0  0  0  0  0  0  0  0  0  0  0
   -0.2779    0.0806   -0.8371 H   0  0  0  0  0  0  0  0  0  0  0  0
    5.9476   -1.3240   -0.6448 H   0  0  0  0  0  0  0  0  0  0  0  0
    7.4016    0.5298   -1.4872 H   0  0  0  0  0  0  0  0  0  0  0  0
    5.9933    1.6797   -1.4489 H   0  0  0  0  0  0  0  0  0  0  0  0
    7.1581    0.1505    0.9941 H   0  0  0  0  0  0  0  0  0  0  0  0
    5.7562    1.3093    1.0270 H   0  0  0  0  0  0  0  0  0  0  0  0
  1  2  2  0
  2  3  1  0
  3  4  1  0
  4  5  1  0
  5  6  2  0
  6  7  1  0
  7  8  2  0
  8  9  1  0
  8 10  1  0
 10 11  2  0
  2 12  1  0
 12 13  1  0
 13 14  2  0
 14 15  1  0
 15 16  2  0
 16 17  1  0
 17 18  1  0
 18 19  1  0
 16 20  1  0
 11  5  1  0
 20 13  1  0
 19 17  1  0
  3 21  1  0
  3 22  1  0
  6 23  1  0
  7 24  1  0
 10 25  1  0
 11 26  1  0
 12 27  1  0
 17 28  1  0
 18 29  1  0
 18 30  1  0
 19 31  1  0
 19 32  1  0
M  END
$$$$
