
     RDKit          3D

 53 54  0  0  0  0  0  0  0  0999 V2000
   -4.7890   -1.9737    1.8587 C   0  0  0  0  0  0  0  0  0  0  0  0
   -5.5434   -0.9721    0.9952 C   0  0  0  0  0  0  0  0  0  0  0  0
   -5.4148   -1.3579   -0.4324 N   0  0  0  0  0  0  0  0  0  0  0  0
   -6.5017   -2.2392   -0.9311 C   0  0  0  0  0  0  0  0  0  0  0  0
   -7.7757   -1.4871   -1.2835 C   0  0  0  0  0  0  0  0  0  0  0  0
   -4.8632   -0.1587   -1.5096 S   0  0  0  0  0  6  0  0  0  0  0  0
   -4.7851   -0.7292   -2.8375 O   0  0  0  0  0  0  0  0  0  0  0  0
   -5.6159    1.0508   -1.2465 O   0  0  0  0  0  0  0  0  0  0  0  0
   -3.1904    0.0899   -0.9530 C   0  0  0  0  0  0  0  0  0  0  0  0
   -2.8041    1.3160   -0.4048 C   0  0  0  0  0  0  0  0  0  0  0  0
   -1.4897    1.4840    0.0448 C   0  0  0  0  0  0  0  0  0  0  0  0
   -0.5651    0.4309   -0.0574 C   0  0  0  0  0  0  0  0  0  0  0  0
    0.8419    0.5591    0.4171 C   0  0  0  0  0  0  0  0  0  0  0  0
    1.6975   -0.2994    0.2527 O   0  0  0  0  0  0  0  0  0  0  0  0
    1.0196    1.7371    1.0666 O   0  0  0  0  0  0  0  0  0  0  0  0
    2.3633    1.9811    1.4815 C   0  0  0  0  0  0  0  0  0  0  0  0
    3.2706    2.3231    0.2996 C   0  0  0  0  0  0  0  0  0  0  0  0
    3.1120    3.3399   -0.3759 O   0  0  0  0  0  0  0  0  0  0  0  0
    4.2590    1.3879    0.0535 N   0  0  0  0  0  0  0  0  0  0  0  0
    5.1490    1.5268   -1.0873 C   0  0  0  0  0  0  0  0  0  0  0  0
    6.2139    0.4219   -1.1494 C   0  0  0  0  0  0  0  0  0  0  0  0
    7.0995    0.4293    0.0070 N   0  0  0  0  0  0  0  0  0  0  0  0
    6.8751   -0.2965    1.1515 C   0  0  0  0  0  0  0  0  0  0  0  0
    5.7867   -1.1194    1.2136 O   0  0  0  0  0  0  0  0  0  0  0  0
    7.7845   -0.1081    2.1166 C   0  0  0  0  0  0  0  0  0  0  0  0
    8.9964    1.0366    1.6266 S   0  0  0  0  0  0  0  0  0  0  0  0
    8.2046    1.2659    0.0538 C   0  0  0  0  0  0  0  0  0  0  0  0
    8.6032    2.0378   -0.8026 O   0  0  0  0  0  0  0  0  0  0  0  0
   -0.9624   -0.7881   -0.6299 C   0  0  0  0  0  0  0  0  0  0  0  0
   -2.2746   -0.9605   -1.0800 C   0  0  0  0  0  0  0  0  0  0  0  0
   -5.2055   -2.9816    1.7547 H   0  0  0  0  0  0  0  0  0  0  0  0
   -3.7309   -2.0189    1.5746 H   0  0  0  0  0  0  0  0  0  0  0  0
   -4.8503   -1.6872    2.9139 H   0  0  0  0  0  0  0  0  0  0  0  0
   -6.5964   -0.9364    1.2966 H   0  0  0  0  0  0  0  0  0  0  0  0
   -5.1310    0.0268    1.1766 H   0  0  0  0  0  0  0  0  0  0  0  0
   -6.7259   -2.9958   -0.1683 H   0  0  0  0  0  0  0  0  0  0  0  0
   -6.1386   -2.7949   -1.8056 H   0  0  0  0  0  0  0  0  0  0  0  0
   -7.6289   -0.8266   -2.1427 H   0  0  0  0  0  0  0  0  0  0  0  0
   -8.1355   -0.8782   -0.4480 H   0  0  0  0  0  0  0  0  0  0  0  0
   -8.5654   -2.1978   -1.5480 H   0  0  0  0  0  0  0  0  0  0  0  0
   -3.5116    2.1403   -0.3228 H   0  0  0  0  0  0  0  0  0  0  0  0
   -1.1987    2.4449    0.4664 H   0  0  0  0  0  0  0  0  0  0  0  0
    2.7515    1.1359    2.0625 H   0  0  0  0  0  0  0  0  0  0  0  0
    2.3572    2.8474    2.1537 H   0  0  0  0  0  0  0  0  0  0  0  0
    4.1152    0.4422    0.4123 H   0  0  0  0  0  0  0  0  0  0  0  0
    4.5327    1.5038   -1.9930 H   0  0  0  0  0  0  0  0  0  0  0  0
    5.6202    2.5167   -1.0271 H   0  0  0  0  0  0  0  0  0  0  0  0
    5.7462   -0.5671   -1.2448 H   0  0  0  0  0  0  0  0  0  0  0  0
    6.8258    0.5755   -2.0467 H   0  0  0  0  0  0  0  0  0  0  0  0
    5.8040   -1.5787    2.0732 H   0  0  0  0  0  0  0  0  0  0  0  0
    7.7956   -0.5832    3.0865 H   0  0  0  0  0  0  0  0  0  0  0  0
   -0.2514   -1.6081   -0.7290 H   0  0  0  0  0  0  0  0  0  0  0  0
   -2.5804   -1.9071   -1.5236 H   0  0  0  0  0  0  0  0  0  0  0  0
  1  2  1  0
  2  3  1  0
  3  4  1  0
  4  5  1  0
  3  6  1  0
  6  7  2  0
  6  8  2  0
  6  9  1  0
  9 10  2  0
 10 11  1  0
 11 12  2  0
 12 13  1  0
 13 14  2  0
 13 15  1  0
 15 16  1  0
 16 17  1  0
 17 18  2  0
 17 19  1  0
 19 20  1  0
 20 21  1  0
 21 22  1  0
 22 23  1  0
 23 24  1  0
 23 25  2  0
 25 26  1  0
 26 27  1  0
 27 28  2  0
 12 29  1  0
 29 30  2  0
 30  9  1  0
 27 22  1  0
  1 31  1  0
  1 32  1  0
  1 33  1  0
  2 34  1  0
  2 35  1  0
  4 36  1  0
  4 37  1  0
  5 38  1  0
  5 39  1  0
  5 40  1  0
 10 41  1  0
 11 42  1  0
 16 43  1  0
 16 44  1  0
 19 45  1  0
 20 46  1  0
 20 47  1  0
 21 48  1  0
 21 49  1  0
 24 50  1  0
 25 51  1  0
 29 52  1  0
 30 53  1  0
M  END
$$$$
