
     RDKit          3D

 36 37  0  0  0  0  0  0  0  0999 V2000
   -0.2405   -0.9552    1.2179 O   0  0  0  0  0  0  0  0  0  0  0  0
   -0.5165   -0.5737    0.0883 C   0  0  0  0  0  0  0  0  0  0  0  0
   -1.9016   -0.2594   -0.3388 C   0  0  0  0  0  0  0  0  0  0  0  0
   -2.9179   -0.4472    0.5167 C   0  0  0  0  0  0  0  0  0  0  0  0
   -4.3071   -0.1278    0.1665 C   0  0  0  0  0  0  0  0  0  0  0  0
   -4.9112    0.9408    0.8466 C   0  0  0  0  0  0  0  0  0  0  0  0
   -6.2293    1.3102    0.5689 C   0  0  0  0  0  0  0  0  0  0  0  0
   -6.9624    0.6125   -0.3883 C   0  0  0  0  0  0  0  0  0  0  0  0
   -6.3786   -0.4571   -1.0672 C   0  0  0  0  0  0  0  0  0  0  0  0
   -5.0583   -0.8293   -0.7921 C   0  0  0  0  0  0  0  0  0  0  0  0
   -4.4116   -2.1788   -1.6615 Cl  0  0  0  0  0  0  0  0  0  0  0  0
    0.4074   -0.3743   -0.9078 N   0  0  0  0  0  0  0  0  0  0  0  0
    1.8224   -0.6070   -0.6845 C   0  0  0  0  0  0  0  0  0  0  0  0
    2.4824    0.5425    0.0813 C   0  0  0  0  0  0  0  0  0  0  0  0
    3.9646    0.3233    0.2534 C   0  0  0  0  0  0  0  0  0  0  0  0
    4.4409   -0.5052    1.2787 C   0  0  0  0  0  0  0  0  0  0  0  0
    5.8105   -0.7209    1.4348 C   0  0  0  0  0  0  0  0  0  0  0  0
    6.7156   -0.1147    0.5658 C   0  0  0  0  0  0  0  0  0  0  0  0
    6.2520    0.7075   -0.4601 C   0  0  0  0  0  0  0  0  0  0  0  0
    4.8823    0.9241   -0.6185 C   0  0  0  0  0  0  0  0  0  0  0  0
   -2.0620    0.1224   -1.3388 H   0  0  0  0  0  0  0  0  0  0  0  0
   -2.7491   -0.8200    1.5251 H   0  0  0  0  0  0  0  0  0  0  0  0
   -4.3548    1.4972    1.5987 H   0  0  0  0  0  0  0  0  0  0  0  0
   -6.6835    2.1413    1.1039 H   0  0  0  0  0  0  0  0  0  0  0  0
   -7.9892    0.8980   -0.6026 H   0  0  0  0  0  0  0  0  0  0  0  0
   -6.9590   -1.0005   -1.8083 H   0  0  0  0  0  0  0  0  0  0  0  0
    0.1142   -0.0431   -1.8159 H   0  0  0  0  0  0  0  0  0  0  0  0
    1.9383   -1.5521   -0.1406 H   0  0  0  0  0  0  0  0  0  0  0  0
    2.2851   -0.7300   -1.6699 H   0  0  0  0  0  0  0  0  0  0  0  0
    2.3060    1.4903   -0.4449 H   0  0  0  0  0  0  0  0  0  0  0  0
    2.0187    0.6648    1.0682 H   0  0  0  0  0  0  0  0  0  0  0  0
    3.7442   -0.9859    1.9632 H   0  0  0  0  0  0  0  0  0  0  0  0
    6.1709   -1.3597    2.2367 H   0  0  0  0  0  0  0  0  0  0  0  0
    7.7821   -0.2811    0.6898 H   0  0  0  0  0  0  0  0  0  0  0  0
    6.9582    1.1798   -1.1376 H   0  0  0  0  0  0  0  0  0  0  0  0
    4.5372    1.5683   -1.4240 H   0  0  0  0  0  0  0  0  0  0  0  0
  1  2  2  0
  2  3  1  0
  3  4  2  3
  4  5  1  0
  5  6  2  0
  6  7  1  0
  7  8  2  0
  8  9  1  0
  9 10  2  0
 10 11  1  0
  2 12  1  0
 12 13  1  0
 13 14  1  0
 14 15  1  0
 15 16  2  0
 16 17  1  0
 17 18  2  0
 18 19  1  0
 19 20  2  0
 10  5  1  0
 20 15  1  0
  3 21  1  0
  4 22  1  0
  6 23  1  0
  7 24  1  0
  8 25  1  0
  9 26  1  0
 12 27  1  0
 13 28  1  0
 13 29  1  0
 14 30  1  0
 14 31  1  0
 16 32  1  0
 17 33  1  0
 18 34  1  0
 19 35  1  0
 20 36  1  0
M  END
$$$$
