
     RDKit          3D

 40 42  0  0  0  0  0  0  0  0999 V2000
   -6.5925   -1.3256    1.0517 C   0  0  0  0  0  0  0  0  0  0  0  0
   -5.6295   -0.2477    0.5067 C   0  0  0  0  0  0  0  0  0  0  0  0
   -6.0123    0.0348   -0.9583 C   0  0  0  0  0  0  0  0  0  0  0  0
   -5.8187    1.0289    1.3483 C   0  0  0  0  0  0  0  0  0  0  0  0
   -4.1945   -0.7464    0.5968 C   0  0  0  0  0  0  0  0  0  0  0  0
   -3.8382   -1.9414    1.0295 N   0  0  0  0  0  0  0  0  0  0  0  0
   -2.4719   -2.1273    1.0030 N   0  0  0  0  0  0  0  0  0  0  0  0
   -1.8364   -1.0726    0.5450 C   0  0  0  0  0  0  0  0  0  0  0  0
   -0.4686   -1.0465    0.4382 N   0  0  0  0  0  0  0  0  0  0  0  0
    0.3088   -0.0008   -0.0245 C   0  0  0  0  0  0  0  0  0  0  0  0
   -0.0989    1.0869   -0.4176 O   0  0  0  0  0  0  0  0  0  0  0  0
    1.8016   -0.3612    0.0036 C   0  0  0  0  0  0  0  0  0  0  0  0
    2.6065    0.7208   -0.4343 O   0  0  0  0  0  0  0  0  0  0  0  0
    3.9608    0.5292   -0.4654 C   0  0  0  0  0  0  0  0  0  0  0  0
    4.6324   -0.6568   -0.1140 C   0  0  0  0  0  0  0  0  0  0  0  0
    6.0294   -0.7358   -0.1900 C   0  0  0  0  0  0  0  0  0  0  0  0
    6.7154    0.3794   -0.6188 C   0  0  0  0  0  0  0  0  0  0  0  0
    6.0640    1.5390   -0.9621 C   0  0  0  0  0  0  0  0  0  0  0  0
    4.6912    1.6437   -0.8951 C   0  0  0  0  0  0  0  0  0  0  0  0
    6.9214    2.5177   -1.3601 O   0  0  0  0  0  0  0  0  0  0  0  0
    8.1877    1.8393   -1.2262 C   0  0  0  0  0  0  0  0  0  0  0  0
    8.0640    0.4792   -0.7560 O   0  0  0  0  0  0  0  0  0  0  0  0
   -2.8487    0.2214    0.1102 S   0  0  0  0  0  0  0  0  0  0  0  0
   -7.6352   -0.9913    0.9979 H   0  0  0  0  0  0  0  0  0  0  0  0
   -6.5147   -2.2566    0.4766 H   0  0  0  0  0  0  0  0  0  0  0  0
   -6.3746   -1.5642    2.0996 H   0  0  0  0  0  0  0  0  0  0  0  0
   -5.4100    0.8423   -1.3903 H   0  0  0  0  0  0  0  0  0  0  0  0
   -5.8695   -0.8537   -1.5835 H   0  0  0  0  0  0  0  0  0  0  0  0
   -7.0635    0.3354   -1.0402 H   0  0  0  0  0  0  0  0  0  0  0  0
   -6.8674    1.3477    1.3510 H   0  0  0  0  0  0  0  0  0  0  0  0
   -5.5151    0.8668    2.3900 H   0  0  0  0  0  0  0  0  0  0  0  0
   -5.2290    1.8660    0.9590 H   0  0  0  0  0  0  0  0  0  0  0  0
   -0.0339   -1.9063    0.7451 H   0  0  0  0  0  0  0  0  0  0  0  0
    2.0573   -0.6226    1.0378 H   0  0  0  0  0  0  0  0  0  0  0  0
    1.9392   -1.2245   -0.6589 H   0  0  0  0  0  0  0  0  0  0  0  0
    4.0973   -1.5391    0.2200 H   0  0  0  0  0  0  0  0  0  0  0  0
    6.5577   -1.6452    0.0775 H   0  0  0  0  0  0  0  0  0  0  0  0
    4.1912    2.5644   -1.1689 H   0  0  0  0  0  0  0  0  0  0  0  0
    8.8128    2.3983   -0.5196 H   0  0  0  0  0  0  0  0  0  0  0  0
    8.6845    1.8265   -2.2037 H   0  0  0  0  0  0  0  0  0  0  0  0
  1  2  1  0
  2  3  1  0
  2  4  1  0
  2  5  1  0
  5  6  2  0
  6  7  1  0
  7  8  2  0
  8  9  1  0
  9 10  1  0
 10 11  2  0
 10 12  1  0
 12 13  1  0
 13 14  1  0
 14 15  2  0
 15 16  1  0
 16 17  2  0
 17 18  1  0
 18 19  2  0
 18 20  1  0
 20 21  1  0
 21 22  1  0
  8 23  1  0
 23  5  1  0
 19 14  1  0
 22 17  1  0
  1 24  1  0
  1 25  1  0
  1 26  1  0
  3 27  1  0
  3 28  1  0
  3 29  1  0
  4 30  1  0
  4 31  1  0
  4 32  1  0
  9 33  1  0
 12 34  1  0
 12 35  1  0
 15 36  1  0
 16 37  1  0
 19 38  1  0
 21 39  1  0
 21 40  1  0
M  END
$$$$
