
     RDKit          3D

 60 63  0  0  0  0  0  0  0  0999 V2000
    6.2550    3.0667    3.8205 C   0  0  0  0  0  0  0  0  0  0  0  0
    6.8198    2.6769    2.4661 C   0  0  0  0  0  0  0  0  0  0  0  0
    5.7810    2.0350    1.7269 O   0  0  0  0  0  0  0  0  0  0  0  0
    6.0948    1.5308    0.4917 C   0  0  0  0  0  0  0  0  0  0  0  0
    7.3332    1.6983   -0.1393 C   0  0  0  0  0  0  0  0  0  0  0  0
    7.5672    1.1499   -1.4053 C   0  0  0  0  0  0  0  0  0  0  0  0
    6.5683    0.4304   -2.0558 C   0  0  0  0  0  0  0  0  0  0  0  0
    5.3295    0.2581   -1.4424 C   0  0  0  0  0  0  0  0  0  0  0  0
    5.0905    0.8066   -0.1744 C   0  0  0  0  0  0  0  0  0  0  0  0
    3.7668    0.6123    0.4594 C   0  0  0  0  0  0  0  0  0  0  0  0
    2.8260   -0.0677   -0.1192 N   0  0  0  0  0  0  0  0  0  0  0  0
    1.6621   -0.1628    0.5838 N   0  0  0  0  0  0  0  0  0  0  0  0
    0.5822   -0.8735    0.0811 C   0  0  0  0  0  0  0  0  0  0  0  0
    0.5623   -1.4622   -0.9960 O   0  0  0  0  0  0  0  0  0  0  0  0
   -0.5627   -0.8518    0.9891 C   0  0  0  0  0  0  0  0  0  0  0  0
   -0.5293   -0.1793    2.1819 N   0  0  0  0  0  0  0  0  0  0  0  0
   -1.7037   -0.3178    2.7677 N   0  0  0  0  0  0  0  0  0  0  0  0
   -2.5066   -1.1112    1.9920 N   0  0  0  0  0  0  0  0  0  0  0  0
   -3.8082   -1.4759    2.4281 C   0  0  0  0  0  0  0  0  0  0  0  0
   -4.5755   -2.3109    1.7266 N   0  0  0  0  0  0  0  0  0  0  0  0
   -5.7492   -2.4064    2.4693 O   0  0  0  0  0  0  0  0  0  0  0  0
   -5.6761   -1.6433    3.6293 N   0  0  0  0  0  0  0  0  0  0  0  0
   -4.4700   -1.0771    3.6068 C   0  0  0  0  0  0  0  0  0  0  0  0
   -3.9989   -0.2635    4.5717 N   0  0  0  0  0  0  0  0  0  0  0  0
   -1.8112   -1.4354    0.8285 C   0  0  0  0  0  0  0  0  0  0  0  0
   -2.3650   -2.2263   -0.3030 C   0  0  0  0  0  0  0  0  0  0  0  0
   -3.3020   -1.4209   -1.0960 N   0  0  0  0  0  0  0  0  0  0  0  0
   -2.6305   -0.4557   -1.9712 C   0  0  0  0  0  0  0  0  0  0  0  0
   -3.6523    0.5280   -2.5607 C   0  0  0  0  0  0  0  0  0  0  0  0
   -5.0258   -0.1102   -2.8295 C   0  0  0  0  0  0  0  0  0  0  0  0
   -5.7386    0.5774   -3.9897 C   0  0  0  0  0  0  0  0  0  0  0  0
   -4.8637   -1.6097   -3.0747 C   0  0  0  0  0  0  0  0  0  0  0  0
   -4.1899   -2.3014   -1.8798 C   0  0  0  0  0  0  0  0  0  0  0  0
    5.8896    2.1827    4.3544 H   0  0  0  0  0  0  0  0  0  0  0  0
    5.4016    3.7428    3.7019 H   0  0  0  0  0  0  0  0  0  0  0  0
    7.0150    3.5606    4.4327 H   0  0  0  0  0  0  0  0  0  0  0  0
    7.1535    3.5808    1.9438 H   0  0  0  0  0  0  0  0  0  0  0  0
    7.6626    1.9918    2.6147 H   0  0  0  0  0  0  0  0  0  0  0  0
    8.1421    2.2551    0.3229 H   0  0  0  0  0  0  0  0  0  0  0  0
    8.5338    1.2871   -1.8848 H   0  0  0  0  0  0  0  0  0  0  0  0
    6.7512    0.0048   -3.0396 H   0  0  0  0  0  0  0  0  0  0  0  0
    4.5518   -0.3039   -1.9563 H   0  0  0  0  0  0  0  0  0  0  0  0
    3.6087    1.0702    1.4516 H   0  0  0  0  0  0  0  0  0  0  0  0
    1.5736    0.2888    1.4897 H   0  0  0  0  0  0  0  0  0  0  0  0
   -4.6459    0.1162    5.2548 H   0  0  0  0  0  0  0  0  0  0  0  0
   -3.1570    0.2909    4.4267 H   0  0  0  0  0  0  0  0  0  0  0  0
   -1.5707   -2.6290   -0.9415 H   0  0  0  0  0  0  0  0  0  0  0  0
   -2.8591   -3.1161    0.1060 H   0  0  0  0  0  0  0  0  0  0  0  0
   -2.0924   -0.9716   -2.7776 H   0  0  0  0  0  0  0  0  0  0  0  0
   -1.8876    0.1384   -1.4283 H   0  0  0  0  0  0  0  0  0  0  0  0
   -3.7922    1.3706   -1.8714 H   0  0  0  0  0  0  0  0  0  0  0  0
   -3.2309    0.9495   -3.4815 H   0  0  0  0  0  0  0  0  0  0  0  0
   -5.6471    0.0226   -1.9332 H   0  0  0  0  0  0  0  0  0  0  0  0
   -6.7370    0.1529   -4.1369 H   0  0  0  0  0  0  0  0  0  0  0  0
   -5.8543    1.6482   -3.7929 H   0  0  0  0  0  0  0  0  0  0  0  0
   -5.1810    0.4618   -4.9252 H   0  0  0  0  0  0  0  0  0  0  0  0
   -5.8364   -2.0779   -3.2654 H   0  0  0  0  0  0  0  0  0  0  0  0
   -4.2550   -1.7672   -3.9748 H   0  0  0  0  0  0  0  0  0  0  0  0
   -3.6471   -3.1754   -2.2639 H   0  0  0  0  0  0  0  0  0  0  0  0
   -4.9694   -2.6818   -1.2091 H   0  0  0  0  0  0  0  0  0  0  0  0
  1  2  1  0
  2  3  1  0
  3  4  1  0
  4  5  2  0
  5  6  1  0
  6  7  2  0
  7  8  1  0
  8  9  2  0
  9 10  1  0
 10 11  2  3
 11 12  1  0
 12 13  1  0
 13 14  2  0
 13 15  1  0
 15 16  1  0
 16 17  2  0
 17 18  1  0
 18 19  1  0
 19 20  2  0
 20 21  1  0
 21 22  1  0
 22 23  2  0
 23 24  1  0
 18 25  1  0
 25 26  1  0
 26 27  1  0
 27 28  1  0
 28 29  1  0
 29 30  1  0
 30 31  1  0
 30 32  1  0
 32 33  1  0
  9  4  1  0
 25 15  2  0
 33 27  1  0
 23 19  1  0
  1 34  1  0
  1 35  1  0
  1 36  1  0
  2 37  1  0
  2 38  1  0
  5 39  1  0
  6 40  1  0
  7 41  1  0
  8 42  1  0
 10 43  1  0
 12 44  1  0
 24 45  1  0
 24 46  1  0
 26 47  1  0
 26 48  1  0
 28 49  1  0
 28 50  1  0
 29 51  1  0
 29 52  1  0
 30 53  1  0
 31 54  1  0
 31 55  1  0
 31 56  1  0
 32 57  1  0
 32 58  1  0
 33 59  1  0
 33 60  1  0
M  END
$$$$
