
     RDKit          3D

 39 41  0  0  0  0  0  0  0  0999 V2000
   -3.3127    0.3302    5.0762 C   0  0  0  0  0  0  0  0  0  0  0  0
   -3.2838   -0.9539    4.4658 O   0  0  0  0  0  0  0  0  0  0  0  0
   -2.9302   -1.0050    3.1457 C   0  0  0  0  0  0  0  0  0  0  0  0
   -2.9478   -2.2886    2.5886 C   0  0  0  0  0  0  0  0  0  0  0  0
   -2.6064   -2.4905    1.2503 C   0  0  0  0  0  0  0  0  0  0  0  0
   -2.2351   -1.3955    0.4684 C   0  0  0  0  0  0  0  0  0  0  0  0
   -1.8067   -1.6473   -1.2349 S   0  0  0  0  0  6  0  0  0  0  0  0
   -1.6856   -0.3594   -1.8831 O   0  0  0  0  0  0  0  0  0  0  0  0
   -2.6966   -2.6645   -1.7547 O   0  0  0  0  0  0  0  0  0  0  0  0
   -0.2807   -2.3714   -1.1307 N   0  0  0  0  0  0  0  0  0  0  0  0
    0.8483   -1.5230   -0.9668 C   0  0  0  0  0  0  0  0  0  0  0  0
    1.2180   -1.1013    0.3084 C   0  0  0  0  0  0  0  0  0  0  0  0
    2.2992   -0.2358    0.4626 C   0  0  0  0  0  0  0  0  0  0  0  0
    2.9954    0.2134   -0.6586 C   0  0  0  0  0  0  0  0  0  0  0  0
    4.0331    1.0713   -0.4146 O   0  0  0  0  0  0  0  0  0  0  0  0
    2.6346   -0.2031   -1.9486 C   0  0  0  0  0  0  0  0  0  0  0  0
    3.5417    0.2435   -3.4219 S   0  0  0  0  0  0  0  0  0  0  0  0
    3.2629    1.9577   -3.5242 C   0  0  0  0  0  0  0  0  0  0  0  0
    2.5958    2.5526   -4.5565 N   0  0  0  0  0  0  0  0  0  0  0  0
    2.6395    3.8257   -4.2433 C   0  0  0  0  0  0  0  0  0  0  0  0
    3.3193    3.9831   -3.0775 N   0  0  0  0  0  0  0  0  0  0  0  0
    3.7440    2.7993   -2.5989 N   0  0  0  0  0  0  0  0  0  0  0  0
    1.5473   -1.0770   -2.0908 C   0  0  0  0  0  0  0  0  0  0  0  0
   -2.2251   -0.1067    1.0080 C   0  0  0  0  0  0  0  0  0  0  0  0
   -2.5696    0.0854    2.3499 C   0  0  0  0  0  0  0  0  0  0  0  0
   -2.3176    0.7870    5.0808 H   0  0  0  0  0  0  0  0  0  0  0  0
   -4.0456    0.9825    4.5899 H   0  0  0  0  0  0  0  0  0  0  0  0
   -3.6233    0.1985    6.1172 H   0  0  0  0  0  0  0  0  0  0  0  0
   -3.2348   -3.1378    3.2052 H   0  0  0  0  0  0  0  0  0  0  0  0
   -2.6324   -3.4929    0.8298 H   0  0  0  0  0  0  0  0  0  0  0  0
   -0.2032   -3.1356   -1.8015 H   0  0  0  0  0  0  0  0  0  0  0  0
    0.6852   -1.4511    1.1882 H   0  0  0  0  0  0  0  0  0  0  0  0
    2.5997    0.0930    1.4538 H   0  0  0  0  0  0  0  0  0  0  0  0
    4.1851    1.5929   -1.2330 H   0  0  0  0  0  0  0  0  0  0  0  0
    2.2136    4.6468   -4.8023 H   0  0  0  0  0  0  0  0  0  0  0  0
    3.5293    4.8350   -2.5688 H   0  0  0  0  0  0  0  0  0  0  0  0
    1.2399   -1.4043   -3.0811 H   0  0  0  0  0  0  0  0  0  0  0  0
   -1.9472    0.7494    0.3965 H   0  0  0  0  0  0  0  0  0  0  0  0
   -2.5475    1.0972    2.7416 H   0  0  0  0  0  0  0  0  0  0  0  0
  1  2  1  0
  2  3  1  0
  3  4  2  0
  4  5  1  0
  5  6  2  0
  6  7  1  0
  7  8  2  0
  7  9  2  0
  7 10  1  0
 10 11  1  0
 11 12  2  0
 12 13  1  0
 13 14  2  0
 14 15  1  0
 14 16  1  0
 16 17  1  0
 17 18  1  0
 18 19  1  0
 19 20  2  0
 20 21  1  0
 21 22  1  0
 16 23  2  0
  6 24  1  0
 24 25  2  0
 25  3  1  0
 23 11  1  0
 22 18  2  0
  1 26  1  0
  1 27  1  0
  1 28  1  0
  4 29  1  0
  5 30  1  0
 10 31  1  0
 12 32  1  0
 13 33  1  0
 15 34  1  0
 20 35  1  0
 21 36  1  0
 23 37  1  0
 24 38  1  0
 25 39  1  0
M  END
$$$$
