
     RDKit          3D

 60 65  0  0  0  0  0  0  0  0999 V2000
    2.5936   -3.3511   -2.7606 O   0  0  0  0  0  0  0  0  0  0  0  0
    2.8274   -2.3082   -2.1612 C   0  0  0  0  0  0  0  0  0  0  0  0
    1.8233   -1.5707   -1.5423 N   0  0  0  0  0  0  0  0  0  0  0  0
    2.0308   -0.3623   -0.8865 C   0  0  0  0  0  0  0  0  0  0  0  0
    0.8143    0.3104   -0.2584 C   0  0  0  0  0  0  0  0  0  0  0  0
   -0.2948    0.5751   -1.2805 C   0  0  0  0  0  0  0  0  0  0  0  0
   -1.6562    0.6353   -0.6065 C   0  0  0  0  0  0  0  0  0  0  0  0
   -1.9899   -0.6553    0.0500 N   0  0  0  0  0  0  0  0  0  0  0  0
   -3.0738   -1.6796   -0.7902 S   0  0  0  0  0  6  0  0  0  0  0  0
   -2.5391   -1.8222   -2.1290 O   0  0  0  0  0  0  0  0  0  0  0  0
   -3.3367   -2.8334    0.0409 O   0  0  0  0  0  0  0  0  0  0  0  0
   -4.5628   -0.7237   -0.8608 C   0  0  0  0  0  0  0  0  0  0  0  0
   -5.1319   -0.4001   -2.0967 C   0  0  0  0  0  0  0  0  0  0  0  0
   -6.3034    0.3575   -2.1332 C   0  0  0  0  0  0  0  0  0  0  0  0
   -6.8962    0.7799   -0.9429 C   0  0  0  0  0  0  0  0  0  0  0  0
   -6.3061    0.4704    0.2890 C   0  0  0  0  0  0  0  0  0  0  0  0
   -5.1467   -0.2980    0.3359 C   0  0  0  0  0  0  0  0  0  0  0  0
   -6.8179    0.8838    1.4919 O   0  0  0  0  0  0  0  0  0  0  0  0
   -7.7962    1.9162    1.3201 C   0  0  0  0  0  0  0  0  0  0  0  0
   -8.7535    1.5691    0.1921 C   0  0  0  0  0  0  0  0  0  0  0  0
   -8.0563    1.5024   -1.0575 O   0  0  0  0  0  0  0  0  0  0  0  0
   -0.8467   -1.3895    0.6541 C   0  0  0  0  0  0  0  0  0  0  0  0
    0.3196   -0.4644    0.9716 C   0  0  0  0  0  0  0  0  0  0  0  0
    3.1995    0.2052   -0.7557 N   0  0  0  0  0  0  0  0  0  0  0  0
    4.2002   -0.5076   -1.3281 C   0  0  0  0  0  0  0  0  0  0  0  0
    4.1189   -1.6965   -2.0105 C   0  0  0  0  0  0  0  0  0  0  0  0
    5.3488   -2.0877   -2.4415 N   0  0  0  0  0  0  0  0  0  0  0  0
    6.2225   -1.1657   -2.0359 N   0  0  0  0  0  0  0  0  0  0  0  0
    5.5347   -0.2207   -1.3479 N   0  0  0  0  0  0  0  0  0  0  0  0
    6.2111    0.9269   -0.7819 C   0  0  0  0  0  0  0  0  0  0  0  0
    6.5208    0.7177    0.6794 C   0  0  0  0  0  0  0  0  0  0  0  0
    7.6587   -0.0057    1.0727 C   0  0  0  0  0  0  0  0  0  0  0  0
    7.9367   -0.2149    2.4263 C   0  0  0  0  0  0  0  0  0  0  0  0
    7.0782    0.2917    3.4000 C   0  0  0  0  0  0  0  0  0  0  0  0
    5.9470    0.9993    3.0127 C   0  0  0  0  0  0  0  0  0  0  0  0
    5.1164    1.4794    3.9477 F   0  0  0  0  0  0  0  0  0  0  0  0
    5.6599    1.2150    1.6685 C   0  0  0  0  0  0  0  0  0  0  0  0
    0.8991   -1.9589   -1.6673 H   0  0  0  0  0  0  0  0  0  0  0  0
    1.1638    1.2864    0.1093 H   0  0  0  0  0  0  0  0  0  0  0  0
   -0.3128   -0.1837   -2.0702 H   0  0  0  0  0  0  0  0  0  0  0  0
   -0.0935    1.5264   -1.7886 H   0  0  0  0  0  0  0  0  0  0  0  0
   -1.6760    1.4217    0.1577 H   0  0  0  0  0  0  0  0  0  0  0  0
   -2.4146    0.9147   -1.3442 H   0  0  0  0  0  0  0  0  0  0  0  0
   -4.6793   -0.7372   -3.0269 H   0  0  0  0  0  0  0  0  0  0  0  0
   -6.7629    0.6070   -3.0861 H   0  0  0  0  0  0  0  0  0  0  0  0
   -4.7004   -0.5538    1.2937 H   0  0  0  0  0  0  0  0  0  0  0  0
   -8.3422    2.0157    2.2633 H   0  0  0  0  0  0  0  0  0  0  0  0
   -7.2737    2.8610    1.1260 H   0  0  0  0  0  0  0  0  0  0  0  0
   -9.5255    2.3394    0.1000 H   0  0  0  0  0  0  0  0  0  0  0  0
   -9.2497    0.6065    0.3672 H   0  0  0  0  0  0  0  0  0  0  0  0
   -0.5117   -2.1889   -0.0148 H   0  0  0  0  0  0  0  0  0  0  0  0
   -1.1928   -1.8574    1.5829 H   0  0  0  0  0  0  0  0  0  0  0  0
    1.1341   -1.0401    1.4274 H   0  0  0  0  0  0  0  0  0  0  0  0
   -0.0087    0.2585    1.7307 H   0  0  0  0  0  0  0  0  0  0  0  0
    7.1309    1.1022   -1.3522 H   0  0  0  0  0  0  0  0  0  0  0  0
    5.5710    1.8043   -0.9304 H   0  0  0  0  0  0  0  0  0  0  0  0
    8.3324   -0.4209    0.3235 H   0  0  0  0  0  0  0  0  0  0  0  0
    8.8195   -0.7785    2.7185 H   0  0  0  0  0  0  0  0  0  0  0  0
    7.2800    0.1344    4.4547 H   0  0  0  0  0  0  0  0  0  0  0  0
    4.7587    1.7628    1.4064 H   0  0  0  0  0  0  0  0  0  0  0  0
  1  2  2  0
  2  3  1  0
  3  4  1  0
  4  5  1  0
  5  6  1  0
  6  7  1  0
  7  8  1  0
  8  9  1  0
  9 10  2  0
  9 11  2  0
  9 12  1  0
 12 13  2  0
 13 14  1  0
 14 15  2  0
 15 16  1  0
 16 17  2  0
 16 18  1  0
 18 19  1  0
 19 20  1  0
 20 21  1  0
  8 22  1  0
 22 23  1  0
  4 24  2  0
 24 25  1  0
 25 26  2  0
 26 27  1  0
 27 28  2  0
 28 29  1  0
 29 30  1  0
 30 31  1  0
 31 32  2  0
 32 33  1  0
 33 34  2  0
 34 35  1  0
 35 36  1  0
 35 37  2  0
 26  2  1  0
 37 31  1  0
 23  5  1  0
 29 25  1  0
 17 12  1  0
 21 15  1  0
  3 38  1  0
  5 39  1  0
  6 40  1  0
  6 41  1  0
  7 42  1  0
  7 43  1  0
 13 44  1  0
 14 45  1  0
 17 46  1  0
 19 47  1  0
 19 48  1  0
 20 49  1  0
 20 50  1  0
 22 51  1  0
 22 52  1  0
 23 53  1  0
 23 54  1  0
 30 55  1  0
 30 56  1  0
 32 57  1  0
 33 58  1  0
 34 59  1  0
 37 60  1  0
M  END
$$$$
