
     RDKit          3D

 39 40  0  0  0  0  0  0  0  0999 V2000
   -3.7008    3.4403   -2.6722 C   0  0  0  0  0  0  0  0  0  0  0  0
   -2.6353    2.3853   -2.5456 C   0  0  0  0  0  0  0  0  0  0  0  0
   -2.4075    1.5874   -3.4481 O   0  0  0  0  0  0  0  0  0  0  0  0
   -1.9514    2.4477   -1.3614 N   0  0  0  0  0  0  0  0  0  0  0  0
   -1.5335    1.3471   -0.8044 C   0  0  0  0  0  0  0  0  0  0  0  0
   -1.7566   -0.0730   -1.2872 C   0  0  0  0  0  0  0  0  0  0  0  0
   -1.6617   -1.1307   -0.2121 C   0  0  0  0  0  0  0  0  0  0  0  0
   -2.6844   -1.2738    0.7360 C   0  0  0  0  0  0  0  0  0  0  0  0
   -2.5831   -2.2345    1.7430 C   0  0  0  0  0  0  0  0  0  0  0  0
   -1.4630   -3.0608    1.8113 C   0  0  0  0  0  0  0  0  0  0  0  0
   -0.4422   -2.9279    0.8726 C   0  0  0  0  0  0  0  0  0  0  0  0
   -0.5392   -1.9671   -0.1343 C   0  0  0  0  0  0  0  0  0  0  0  0
   -0.6886    1.5117    0.4475 C   0  0  0  0  0  0  0  0  0  0  0  0
   -1.1396    1.9409    1.4928 O   0  0  0  0  0  0  0  0  0  0  0  0
    0.5744    1.1445    0.1662 O   0  0  0  0  0  0  0  0  0  0  0  0
    1.4551    1.2068    1.2884 C   0  0  0  0  0  0  0  0  0  0  0  0
    2.6702    0.3787    0.9596 C   0  0  0  0  0  0  0  0  0  0  0  0
    3.6138    0.8416    0.0314 C   0  0  0  0  0  0  0  0  0  0  0  0
    4.7299    0.0677   -0.2892 C   0  0  0  0  0  0  0  0  0  0  0  0
    4.9111   -1.1771    0.3103 C   0  0  0  0  0  0  0  0  0  0  0  0
    3.9755   -1.6509    1.2284 C   0  0  0  0  0  0  0  0  0  0  0  0
    2.8586   -0.8785    1.5503 C   0  0  0  0  0  0  0  0  0  0  0  0
   -4.1682    3.3761   -3.6586 H   0  0  0  0  0  0  0  0  0  0  0  0
   -4.4657    3.2834   -1.9072 H   0  0  0  0  0  0  0  0  0  0  0  0
   -3.2545    4.4317   -2.5580 H   0  0  0  0  0  0  0  0  0  0  0  0
   -2.7513   -0.1583   -1.7396 H   0  0  0  0  0  0  0  0  0  0  0  0
   -1.0246   -0.2751   -2.0784 H   0  0  0  0  0  0  0  0  0  0  0  0
   -3.5661   -0.6369    0.7011 H   0  0  0  0  0  0  0  0  0  0  0  0
   -3.3793   -2.3381    2.4760 H   0  0  0  0  0  0  0  0  0  0  0  0
   -1.3870   -3.8094    2.5955 H   0  0  0  0  0  0  0  0  0  0  0  0
    0.4321   -3.5718    0.9238 H   0  0  0  0  0  0  0  0  0  0  0  0
    0.2737   -1.8726   -0.8528 H   0  0  0  0  0  0  0  0  0  0  0  0
    0.9729    0.8244    2.1973 H   0  0  0  0  0  0  0  0  0  0  0  0
    1.7524    2.2479    1.4631 H   0  0  0  0  0  0  0  0  0  0  0  0
    3.4788    1.8072   -0.4510 H   0  0  0  0  0  0  0  0  0  0  0  0
    5.4564    0.4347   -1.0097 H   0  0  0  0  0  0  0  0  0  0  0  0
    5.7803   -1.7793    0.0593 H   0  0  0  0  0  0  0  0  0  0  0  0
    4.1154   -2.6235    1.6926 H   0  0  0  0  0  0  0  0  0  0  0  0
    2.1333   -1.2656    2.2633 H   0  0  0  0  0  0  0  0  0  0  0  0
  1  2  1  0
  2  3  2  0
  2  4  1  0
  4  5  2  3
  5  6  1  0
  6  7  1  0
  7  8  2  0
  8  9  1  0
  9 10  2  0
 10 11  1  0
 11 12  2  0
  5 13  1  0
 13 14  2  0
 13 15  1  0
 15 16  1  0
 16 17  1  0
 17 18  2  0
 18 19  1  0
 19 20  2  0
 20 21  1  0
 21 22  2  0
 12  7  1  0
 22 17  1  0
  1 23  1  0
  1 24  1  0
  1 25  1  0
  6 26  1  0
  6 27  1  0
  8 28  1  0
  9 29  1  0
 10 30  1  0
 11 31  1  0
 12 32  1  0
 16 33  1  0
 16 34  1  0
 18 35  1  0
 19 36  1  0
 20 37  1  0
 21 38  1  0
 22 39  1  0
M  END
$$$$
