
     RDKit          3D

 56 60  0  0  0  0  0  0  0  0999 V2000
   -5.1717   -2.1593    2.2335 C   0  0  0  0  0  0  0  0  0  0  0  0
   -3.9134   -1.4712    1.7869 C   0  0  0  0  0  0  0  0  0  0  0  0
   -2.7711   -1.5983    2.5937 C   0  0  0  0  0  0  0  0  0  0  0  0
   -1.5687   -0.9697    2.2553 C   0  0  0  0  0  0  0  0  0  0  0  0
   -1.4625   -0.1775    1.1064 C   0  0  0  0  0  0  0  0  0  0  0  0
   -0.1914    0.4796    0.7589 C   0  0  0  0  0  0  0  0  0  0  0  0
    0.8325   -0.3855    0.5867 N   0  0  0  0  0  0  0  0  0  0  0  0
    2.0697    0.0704    0.2216 N   0  0  0  0  0  0  0  0  0  0  0  0
    2.2968    1.3849    0.0233 C   0  0  0  0  0  0  0  0  0  0  0  0
    3.5734    1.8336   -0.4108 N   0  0  0  0  0  0  0  0  0  0  0  0
    4.8181    1.1792   -0.3234 C   0  0  0  0  0  0  0  0  0  0  0  0
    5.8802    1.6531   -1.1330 C   0  0  0  0  0  0  0  0  0  0  0  0
    7.1791    1.1474   -1.0121 C   0  0  0  0  0  0  0  0  0  0  0  0
    7.3999    0.1854   -0.0546 C   0  0  0  0  0  0  0  0  0  0  0  0
    6.3855   -0.2770    0.7476 C   0  0  0  0  0  0  0  0  0  0  0  0
    5.0948    0.2013    0.6426 C   0  0  0  0  0  0  0  0  0  0  0  0
    6.8210   -1.2039    1.6469 O   0  0  0  0  0  0  0  0  0  0  0  0
    8.2313   -1.2340    1.3464 C   0  0  0  0  0  0  0  0  0  0  0  0
    8.6014   -0.3812    0.2434 O   0  0  0  0  0  0  0  0  0  0  0  0
    1.2635    2.3310    0.2152 C   0  0  0  0  0  0  0  0  0  0  0  0
    1.4596    3.7263    0.0621 C   0  0  0  0  0  0  0  0  0  0  0  0
    0.4269    4.6427    0.2632 C   0  0  0  0  0  0  0  0  0  0  0  0
   -0.8290    4.1916    0.6384 C   0  0  0  0  0  0  0  0  0  0  0  0
   -1.0474    2.8250    0.8120 C   0  0  0  0  0  0  0  0  0  0  0  0
   -0.0190    1.8689    0.5978 C   0  0  0  0  0  0  0  0  0  0  0  0
   -2.5946   -0.0648    0.2868 C   0  0  0  0  0  0  0  0  0  0  0  0
   -3.8073   -0.7013    0.6169 C   0  0  0  0  0  0  0  0  0  0  0  0
   -5.1512   -0.4343   -0.5254 S   0  0  0  0  0  6  0  0  0  0  0  0
   -6.3545   -1.0856   -0.0665 O   0  0  0  0  0  0  0  0  0  0  0  0
   -5.1402    0.9670   -0.8793 O   0  0  0  0  0  0  0  0  0  0  0  0
   -4.6399   -1.2619   -1.8896 N   0  0  0  0  0  0  0  0  0  0  0  0
   -4.3416   -2.6972   -1.8150 C   0  0  0  0  0  0  0  0  0  0  0  0
   -4.8741   -3.3747   -3.0793 C   0  0  0  0  0  0  0  0  0  0  0  0
   -6.2886   -3.2295   -3.1610 O   0  0  0  0  0  0  0  0  0  0  0  0
   -5.9533   -1.4243    2.4448 H   0  0  0  0  0  0  0  0  0  0  0  0
   -5.0135   -2.7278    3.1574 H   0  0  0  0  0  0  0  0  0  0  0  0
   -5.5096   -2.8776    1.4815 H   0  0  0  0  0  0  0  0  0  0  0  0
   -2.8046   -2.1930    3.5056 H   0  0  0  0  0  0  0  0  0  0  0  0
   -0.7030   -1.1038    2.9030 H   0  0  0  0  0  0  0  0  0  0  0  0
    3.4627    2.3380   -1.2797 H   0  0  0  0  0  0  0  0  0  0  0  0
    5.7033    2.4461   -1.8550 H   0  0  0  0  0  0  0  0  0  0  0  0
    7.9907    1.5178   -1.6284 H   0  0  0  0  0  0  0  0  0  0  0  0
    4.3382   -0.1663    1.3234 H   0  0  0  0  0  0  0  0  0  0  0  0
    8.7850   -0.9108    2.2359 H   0  0  0  0  0  0  0  0  0  0  0  0
    8.5211   -2.2643    1.1087 H   0  0  0  0  0  0  0  0  0  0  0  0
    2.4418    4.1209   -0.1965 H   0  0  0  0  0  0  0  0  0  0  0  0
    0.6118    5.7055    0.1435 H   0  0  0  0  0  0  0  0  0  0  0  0
   -1.6396    4.8982    0.8081 H   0  0  0  0  0  0  0  0  0  0  0  0
   -2.0410    2.5158    1.1342 H   0  0  0  0  0  0  0  0  0  0  0  0
   -2.5321    0.5286   -0.6268 H   0  0  0  0  0  0  0  0  0  0  0  0
   -4.1695   -0.6903   -2.5899 H   0  0  0  0  0  0  0  0  0  0  0  0
   -3.2612   -2.8393   -1.7368 H   0  0  0  0  0  0  0  0  0  0  0  0
   -4.8242   -3.1426   -0.9425 H   0  0  0  0  0  0  0  0  0  0  0  0
   -4.4346   -2.9311   -3.9774 H   0  0  0  0  0  0  0  0  0  0  0  0
   -4.6389   -4.4426   -3.0718 H   0  0  0  0  0  0  0  0  0  0  0  0
   -6.4971   -2.3373   -2.8157 H   0  0  0  0  0  0  0  0  0  0  0  0
  1  2  1  0
  2  3  2  0
  3  4  1  0
  4  5  2  0
  5  6  1  0
  6  7  2  0
  7  8  1  0
  8  9  2  0
  9 10  1  0
 10 11  1  0
 11 12  2  0
 12 13  1  0
 13 14  2  0
 14 15  1  0
 15 16  2  0
 15 17  1  0
 17 18  1  0
 18 19  1  0
  9 20  1  0
 20 21  2  0
 21 22  1  0
 22 23  2  0
 23 24  1  0
 24 25  2  0
  5 26  1  0
 26 27  2  0
 27 28  1  0
 28 29  2  0
 28 30  2  0
 28 31  1  0
 31 32  1  0
 32 33  1  0
 33 34  1  0
 27  2  1  0
 25  6  1  0
 16 11  1  0
 25 20  1  0
 19 14  1  0
  1 35  1  0
  1 36  1  0
  1 37  1  0
  3 38  1  0
  4 39  1  0
 10 40  1  0
 12 41  1  0
 13 42  1  0
 16 43  1  0
 18 44  1  0
 18 45  1  0
 21 46  1  0
 22 47  1  0
 23 48  1  0
 24 49  1  0
 26 50  1  0
 31 51  1  0
 32 52  1  0
 32 53  1  0
 33 54  1  0
 33 55  1  0
 34 56  1  0
M  END
$$$$
