
     RDKit          3D

 41 43  0  0  0  0  0  0  0  0999 V2000
   -1.8717    0.3241   -2.6458 O   0  0  0  0  0  0  0  0  0  0  0  0
   -1.6254    0.1052   -1.4657 C   0  0  0  0  0  0  0  0  0  0  0  0
   -2.5393   -0.1737   -0.4690 N   0  0  0  0  0  0  0  0  0  0  0  0
   -3.9532   -0.1985   -0.5453 C   0  0  0  0  0  0  0  0  0  0  0  0
   -4.6341    0.1828   -1.7109 C   0  0  0  0  0  0  0  0  0  0  0  0
   -6.0310    0.1584   -1.7765 C   0  0  0  0  0  0  0  0  0  0  0  0
   -6.7606   -0.2469   -0.6701 C   0  0  0  0  0  0  0  0  0  0  0  0
   -8.1219   -0.2860   -0.6906 O   0  0  0  0  0  0  0  0  0  0  0  0
   -6.1179   -0.6254    0.5000 C   0  0  0  0  0  0  0  0  0  0  0  0
   -4.7141   -0.6037    0.5774 C   0  0  0  0  0  0  0  0  0  0  0  0
   -4.1438   -1.0317    1.8863 C   0  0  0  0  0  0  0  0  0  0  0  0
   -4.7822   -1.4178    2.8490 O   0  0  0  0  0  0  0  0  0  0  0  0
   -2.7986   -0.9630    1.9618 O   0  0  0  0  0  0  0  0  0  0  0  0
   -0.1968    0.0881   -1.0348 C   0  0  0  0  0  0  0  0  0  0  0  0
    0.7744   -0.3146   -1.9566 C   0  0  0  0  0  0  0  0  0  0  0  0
    2.1239   -0.3444   -1.5903 C   0  0  0  0  0  0  0  0  0  0  0  0
    2.5237    0.0349   -0.3028 C   0  0  0  0  0  0  0  0  0  0  0  0
    3.8988   -0.0273   -0.0154 N   0  0  0  0  0  0  0  0  0  0  0  0
    4.5455    0.2706    1.1715 C   0  0  0  0  0  0  0  0  0  0  0  0
    4.0002    0.6432    2.2051 O   0  0  0  0  0  0  0  0  0  0  0  0
    5.9843    0.0903    1.0808 C   0  0  0  0  0  0  0  0  0  0  0  0
    6.9859    0.2751    2.0152 C   0  0  0  0  0  0  0  0  0  0  0  0
    8.2058   -0.0524    1.3770 C   0  0  0  0  0  0  0  0  0  0  0  0
    7.8799   -0.4177    0.0927 C   0  0  0  0  0  0  0  0  0  0  0  0
    6.5380   -0.3365   -0.1011 O   0  0  0  0  0  0  0  0  0  0  0  0
    1.5529    0.4556    0.6085 C   0  0  0  0  0  0  0  0  0  0  0  0
    0.1998    0.4882    0.2459 C   0  0  0  0  0  0  0  0  0  0  0  0
   -2.1700   -0.4699    0.4338 H   0  0  0  0  0  0  0  0  0  0  0  0
   -4.1016    0.5141   -2.5976 H   0  0  0  0  0  0  0  0  0  0  0  0
   -6.5199    0.4605   -2.6980 H   0  0  0  0  0  0  0  0  0  0  0  0
   -8.4321   -0.0018   -1.5667 H   0  0  0  0  0  0  0  0  0  0  0  0
   -6.7165   -0.9377    1.3537 H   0  0  0  0  0  0  0  0  0  0  0  0
   -2.6235   -1.2815    2.8765 H   0  0  0  0  0  0  0  0  0  0  0  0
    0.4831   -0.6089   -2.9633 H   0  0  0  0  0  0  0  0  0  0  0  0
    2.8539   -0.6671   -2.3288 H   0  0  0  0  0  0  0  0  0  0  0  0
    4.5147   -0.3321   -0.7624 H   0  0  0  0  0  0  0  0  0  0  0  0
    6.8380    0.6081    3.0340 H   0  0  0  0  0  0  0  0  0  0  0  0
    9.2002   -0.0252    1.8007 H   0  0  0  0  0  0  0  0  0  0  0  0
    8.4580   -0.7442   -0.7611 H   0  0  0  0  0  0  0  0  0  0  0  0
    1.8143    0.7790    1.6117 H   0  0  0  0  0  0  0  0  0  0  0  0
   -0.5214    0.8556    0.9713 H   0  0  0  0  0  0  0  0  0  0  0  0
  1  2  2  0
  2  3  1  0
  3  4  1  0
  4  5  2  0
  5  6  1  0
  6  7  2  0
  7  8  1  0
  7  9  1  0
  9 10  2  0
 10 11  1  0
 11 12  2  0
 11 13  1  0
  2 14  1  0
 14 15  2  0
 15 16  1  0
 16 17  2  0
 17 18  1  0
 18 19  1  0
 19 20  2  0
 19 21  1  0
 21 22  2  0
 22 23  1  0
 23 24  2  0
 24 25  1  0
 17 26  1  0
 26 27  2  0
 10  4  1  0
 27 14  1  0
 25 21  1  0
  3 28  1  0
  5 29  1  0
  6 30  1  0
  8 31  1  0
  9 32  1  0
 13 33  1  0
 15 34  1  0
 16 35  1  0
 18 36  1  0
 22 37  1  0
 23 38  1  0
 24 39  1  0
 26 40  1  0
 27 41  1  0
M  END
$$$$
