
     RDKit          3D

 50 53  0  0  0  0  0  0  0  0999 V2000
   -5.1869    0.3373    0.2961 C   0  0  0  0  0  0  0  0  0  0  0  0
   -4.0177    0.9716   -0.2739 N   0  0  0  0  0  0  0  0  0  0  0  0
   -4.0250    1.6577   -1.4614 C   0  0  0  0  0  0  0  0  0  0  0  0
   -2.7678    2.1697   -1.6691 C   0  0  0  0  0  0  0  0  0  0  0  0
   -1.9716    1.7828   -0.5700 C   0  0  0  0  0  0  0  0  0  0  0  0
   -2.7554    1.0174    0.2808 C   0  0  0  0  0  0  0  0  0  0  0  0
   -2.3916    0.3669    1.5850 C   0  0  0  0  0  0  0  0  0  0  0  0
   -1.0397   -0.2750    1.5753 C   0  0  0  0  0  0  0  0  0  0  0  0
   -0.0090    0.1434    2.2886 N   0  0  0  0  0  0  0  0  0  0  0  0
    1.0896   -0.5746    1.9186 N   0  0  0  0  0  0  0  0  0  0  0  0
    0.7243   -1.4311    0.9935 C   0  0  0  0  0  0  0  0  0  0  0  0
    1.7637   -2.6447    0.3204 S   0  0  0  0  0  0  0  0  0  0  0  0
    3.3285   -2.2961    1.1708 C   0  0  0  0  0  0  0  0  0  0  0  0
    4.0573   -1.1333    0.5134 C   0  0  0  0  0  0  0  0  0  0  0  0
    4.9104   -1.3392   -0.3464 O   0  0  0  0  0  0  0  0  0  0  0  0
    3.6596    0.1039    0.9917 N   0  0  0  0  0  0  0  0  0  0  0  0
    4.1658    1.3704    0.6439 C   0  0  0  0  0  0  0  0  0  0  0  0
    5.2745    1.5685   -0.1781 C   0  0  0  0  0  0  0  0  0  0  0  0
    5.7152    2.8638   -0.4728 C   0  0  0  0  0  0  0  0  0  0  0  0
    5.0536    3.9684    0.0578 C   0  0  0  0  0  0  0  0  0  0  0  0
    3.9492    3.7787    0.8871 C   0  0  0  0  0  0  0  0  0  0  0  0
    3.5087    2.4872    1.1768 C   0  0  0  0  0  0  0  0  0  0  0  0
   -0.6317   -1.3106    0.7401 N   0  0  0  0  0  0  0  0  0  0  0  0
   -1.4276   -2.0554   -0.1636 C   0  0  0  0  0  0  0  0  0  0  0  0
   -2.6364   -2.6155    0.2701 C   0  0  0  0  0  0  0  0  0  0  0  0
   -3.4266   -3.3371   -0.6280 C   0  0  0  0  0  0  0  0  0  0  0  0
   -3.0083   -3.4892   -1.9446 C   0  0  0  0  0  0  0  0  0  0  0  0
   -3.7764   -4.1669   -2.8070 F   0  0  0  0  0  0  0  0  0  0  0  0
   -1.8072   -2.9420   -2.3821 C   0  0  0  0  0  0  0  0  0  0  0  0
   -1.0082   -2.2249   -1.4902 C   0  0  0  0  0  0  0  0  0  0  0  0
   -6.0343    0.4628   -0.3794 H   0  0  0  0  0  0  0  0  0  0  0  0
   -4.9833   -0.7265    0.4297 H   0  0  0  0  0  0  0  0  0  0  0  0
   -5.4031    0.8159    1.2522 H   0  0  0  0  0  0  0  0  0  0  0  0
   -4.9223    1.7391   -2.0602 H   0  0  0  0  0  0  0  0  0  0  0  0
   -2.4591    2.7696   -2.5166 H   0  0  0  0  0  0  0  0  0  0  0  0
   -0.9301    2.0361   -0.4155 H   0  0  0  0  0  0  0  0  0  0  0  0
   -3.1417   -0.3636    1.9002 H   0  0  0  0  0  0  0  0  0  0  0  0
   -2.3976    1.1476    2.3567 H   0  0  0  0  0  0  0  0  0  0  0  0
    3.9693   -3.1799    1.0921 H   0  0  0  0  0  0  0  0  0  0  0  0
    3.1807   -2.1100    2.2379 H   0  0  0  0  0  0  0  0  0  0  0  0
    2.8418    0.1103    1.6024 H   0  0  0  0  0  0  0  0  0  0  0  0
    5.8230    0.7355   -0.6073 H   0  0  0  0  0  0  0  0  0  0  0  0
    6.5854    3.0019   -1.1108 H   0  0  0  0  0  0  0  0  0  0  0  0
    5.4038    4.9726   -0.1688 H   0  0  0  0  0  0  0  0  0  0  0  0
    3.4307    4.6364    1.3079 H   0  0  0  0  0  0  0  0  0  0  0  0
    2.6397    2.3658    1.8182 H   0  0  0  0  0  0  0  0  0  0  0  0
   -2.9629   -2.5402    1.3046 H   0  0  0  0  0  0  0  0  0  0  0  0
   -4.3584   -3.7879   -0.3117 H   0  0  0  0  0  0  0  0  0  0  0  0
   -1.5029   -3.0669   -3.4180 H   0  0  0  0  0  0  0  0  0  0  0  0
   -0.0921   -1.7704   -1.8649 H   0  0  0  0  0  0  0  0  0  0  0  0
  1  2  1  0
  2  3  1  0
  3  4  2  0
  4  5  1  0
  5  6  2  0
  6  7  1  0
  7  8  1  0
  8  9  2  0
  9 10  1  0
 10 11  2  0
 11 12  1  0
 12 13  1  0
 13 14  1  0
 14 15  2  0
 14 16  1  0
 16 17  1  0
 17 18  2  0
 18 19  1  0
 19 20  2  0
 20 21  1  0
 21 22  2  0
 11 23  1  0
 23 24  1  0
 24 25  2  0
 25 26  1  0
 26 27  2  0
 27 28  1  0
 27 29  1  0
 29 30  2  0
  6  2  1  0
 23  8  1  0
 30 24  1  0
 22 17  1  0
  1 31  1  0
  1 32  1  0
  1 33  1  0
  3 34  1  0
  4 35  1  0
  5 36  1  0
  7 37  1  0
  7 38  1  0
 13 39  1  0
 13 40  1  0
 16 41  1  0
 18 42  1  0
 19 43  1  0
 20 44  1  0
 21 45  1  0
 22 46  1  0
 25 47  1  0
 26 48  1  0
 29 49  1  0
 30 50  1  0
M  END
$$$$
