
     RDKit          3D

 37 38  0  0  0  0  0  0  0  0999 V2000
    0.3718   -0.2325   -2.0340 O   0  0  0  0  0  0  0  0  0  0  0  0
    0.6608   -0.2368   -0.8412 C   0  0  0  0  0  0  0  0  0  0  0  0
   -0.3687   -0.1130    0.2813 C   0  0  0  0  0  0  0  0  0  0  0  0
   -1.6844    0.0038   -0.2561 O   0  0  0  0  0  0  0  0  0  0  0  0
   -2.6564    0.1068    0.6745 C   0  0  0  0  0  0  0  0  0  0  0  0
   -2.4927    0.1059    1.8870 O   0  0  0  0  0  0  0  0  0  0  0  0
   -3.9985    0.2248    0.0497 C   0  0  0  0  0  0  0  0  0  0  0  0
   -4.1606    0.2286   -1.3451 C   0  0  0  0  0  0  0  0  0  0  0  0
   -5.4372    0.3406   -1.9058 C   0  0  0  0  0  0  0  0  0  0  0  0
   -6.5536    0.4489   -1.0775 C   0  0  0  0  0  0  0  0  0  0  0  0
   -8.1208    0.5859   -1.7734 Cl  0  0  0  0  0  0  0  0  0  0  0  0
   -6.4080    0.4466    0.3074 C   0  0  0  0  0  0  0  0  0  0  0  0
   -5.1350    0.3351    0.8670 C   0  0  0  0  0  0  0  0  0  0  0  0
   -5.0828    0.3413    2.2367 O   0  0  0  0  0  0  0  0  0  0  0  0
    1.9596   -0.3718   -0.3837 N   0  0  0  0  0  0  0  0  0  0  0  0
    3.0802   -0.3396   -1.3116 C   0  0  0  0  0  0  0  0  0  0  0  0
    4.3466   -0.9739   -0.7252 C   0  0  0  0  0  0  0  0  0  0  0  0
    4.9092   -0.2040    0.3742 N   0  0  0  0  0  0  0  0  0  0  0  0
    4.5038   -0.2639    1.6859 C   0  0  0  0  0  0  0  0  0  0  0  0
    3.5630   -1.1612    2.0908 O   0  0  0  0  0  0  0  0  0  0  0  0
    5.0695    0.6387    2.4915 C   0  0  0  0  0  0  0  0  0  0  0  0
    6.1877    1.6447    1.6279 S   0  0  0  0  0  0  0  0  0  0  0  0
    5.8189    0.8163    0.1060 C   0  0  0  0  0  0  0  0  0  0  0  0
    6.2896    1.1331   -0.9735 O   0  0  0  0  0  0  0  0  0  0  0  0
   -0.1281    0.7815    0.8674 H   0  0  0  0  0  0  0  0  0  0  0  0
   -0.3008   -1.0111    0.9062 H   0  0  0  0  0  0  0  0  0  0  0  0
   -3.3035    0.1454   -2.0112 H   0  0  0  0  0  0  0  0  0  0  0  0
   -5.5519    0.3428   -2.9873 H   0  0  0  0  0  0  0  0  0  0  0  0
   -7.2761    0.5310    0.9556 H   0  0  0  0  0  0  0  0  0  0  0  0
   -4.1463    0.2620    2.5225 H   0  0  0  0  0  0  0  0  0  0  0  0
    2.1451   -0.1151    0.5814 H   0  0  0  0  0  0  0  0  0  0  0  0
    3.2518    0.7094   -1.5778 H   0  0  0  0  0  0  0  0  0  0  0  0
    2.7951   -0.8748   -2.2241 H   0  0  0  0  0  0  0  0  0  0  0  0
    5.1003   -1.0359   -1.5195 H   0  0  0  0  0  0  0  0  0  0  0  0
    4.1538   -1.9996   -0.3936 H   0  0  0  0  0  0  0  0  0  0  0  0
    3.7336   -1.9920    1.6156 H   0  0  0  0  0  0  0  0  0  0  0  0
    4.8651    0.7518    3.5469 H   0  0  0  0  0  0  0  0  0  0  0  0
  1  2  2  0
  2  3  1  0
  3  4  1  0
  4  5  1  0
  5  6  2  0
  5  7  1  0
  7  8  2  0
  8  9  1  0
  9 10  2  0
 10 11  1  0
 10 12  1  0
 12 13  2  0
 13 14  1  0
  2 15  1  0
 15 16  1  0
 16 17  1  0
 17 18  1  0
 18 19  1  0
 19 20  1  0
 19 21  2  0
 21 22  1  0
 22 23  1  0
 23 24  2  0
 13  7  1  0
 23 18  1  0
  3 25  1  0
  3 26  1  0
  8 27  1  0
  9 28  1  0
 12 29  1  0
 14 30  1  0
 15 31  1  0
 16 32  1  0
 16 33  1  0
 17 34  1  0
 17 35  1  0
 20 36  1  0
 21 37  1  0
M  END
$$$$
