
     RDKit          3D

 54 57  0  0  0  0  0  0  0  0999 V2000
   -5.4724   -3.6685   -1.1429 C   0  0  0  0  0  0  0  0  0  0  0  0
   -4.9993   -2.4735   -1.7517 O   0  0  0  0  0  0  0  0  0  0  0  0
   -4.2600   -1.6296   -0.9692 C   0  0  0  0  0  0  0  0  0  0  0  0
   -3.9254   -1.8367    0.3720 C   0  0  0  0  0  0  0  0  0  0  0  0
   -3.1583   -0.8901    1.0580 C   0  0  0  0  0  0  0  0  0  0  0  0
   -2.7200    0.2562    0.3915 C   0  0  0  0  0  0  0  0  0  0  0  0
   -1.9131    1.2539    1.1208 C   0  0  0  0  0  0  0  0  0  0  0  0
   -2.5499    2.1873    1.7530 N   0  0  0  0  0  0  0  0  0  0  0  0
   -1.8143    3.1442    2.4586 C   0  0  0  0  0  0  0  0  0  0  0  0
   -2.4996    4.1430    3.1544 C   0  0  0  0  0  0  0  0  0  0  0  0
   -1.8019    5.1202    3.8700 C   0  0  0  0  0  0  0  0  0  0  0  0
   -0.4077    5.1061    3.8947 C   0  0  0  0  0  0  0  0  0  0  0  0
    0.2874    4.1145    3.2037 C   0  0  0  0  0  0  0  0  0  0  0  0
   -0.4231    3.1404    2.4915 C   0  0  0  0  0  0  0  0  0  0  0  0
    0.2754    2.0797    1.7479 C   0  0  0  0  0  0  0  0  0  0  0  0
    1.5045    2.0685    1.7154 O   0  0  0  0  0  0  0  0  0  0  0  0
   -0.5263    1.1410    1.0979 N   0  0  0  0  0  0  0  0  0  0  0  0
    0.1876    0.0917    0.3597 C   0  0  0  0  0  0  0  0  0  0  0  0
    0.7073    0.5843   -0.9955 C   0  0  0  0  0  0  0  0  0  0  0  0
    1.2748   -0.4894   -1.7460 O   0  0  0  0  0  0  0  0  0  0  0  0
    2.5859   -0.8271   -1.5385 C   0  0  0  0  0  0  0  0  0  0  0  0
    3.4429   -0.2152   -0.6208 C   0  0  0  0  0  0  0  0  0  0  0  0
    4.7665   -0.6474   -0.4873 C   0  0  0  0  0  0  0  0  0  0  0  0
    5.2585   -1.6901   -1.2753 C   0  0  0  0  0  0  0  0  0  0  0  0
    6.6678   -2.1735   -1.1057 C   0  0  0  0  0  0  0  0  0  0  0  0
    4.3976   -2.3137   -2.1844 C   0  0  0  0  0  0  0  0  0  0  0  0
    3.0666   -1.8879   -2.3276 C   0  0  0  0  0  0  0  0  0  0  0  0
    2.1691   -2.5757   -3.3200 C   0  0  0  0  0  0  0  0  0  0  0  0
   -3.0640    0.4854   -0.9399 C   0  0  0  0  0  0  0  0  0  0  0  0
   -3.8287   -0.4656   -1.6168 C   0  0  0  0  0  0  0  0  0  0  0  0
   -4.6404   -4.3018   -0.8177 H   0  0  0  0  0  0  0  0  0  0  0  0
   -6.0399   -4.2249   -1.8952 H   0  0  0  0  0  0  0  0  0  0  0  0
   -6.1498   -3.4465   -0.3117 H   0  0  0  0  0  0  0  0  0  0  0  0
   -4.2492   -2.7198    0.9127 H   0  0  0  0  0  0  0  0  0  0  0  0
   -2.9088   -1.0461    2.1043 H   0  0  0  0  0  0  0  0  0  0  0  0
   -3.5865    4.1565    3.1354 H   0  0  0  0  0  0  0  0  0  0  0  0
   -2.3491    5.8915    4.4066 H   0  0  0  0  0  0  0  0  0  0  0  0
    0.1361    5.8661    4.4505 H   0  0  0  0  0  0  0  0  0  0  0  0
    1.3747    4.1003    3.2198 H   0  0  0  0  0  0  0  0  0  0  0  0
    1.0224   -0.2602    0.9772 H   0  0  0  0  0  0  0  0  0  0  0  0
   -0.4438   -0.7889    0.2105 H   0  0  0  0  0  0  0  0  0  0  0  0
   -0.1405    0.9496   -1.5861 H   0  0  0  0  0  0  0  0  0  0  0  0
    1.3855    1.4414   -0.9186 H   0  0  0  0  0  0  0  0  0  0  0  0
    3.1213    0.6009    0.0192 H   0  0  0  0  0  0  0  0  0  0  0  0
    5.4098   -0.1581    0.2410 H   0  0  0  0  0  0  0  0  0  0  0  0
    6.7046   -2.9603   -0.3461 H   0  0  0  0  0  0  0  0  0  0  0  0
    7.3276   -1.3548   -0.7997 H   0  0  0  0  0  0  0  0  0  0  0  0
    7.0604   -2.5714   -2.0474 H   0  0  0  0  0  0  0  0  0  0  0  0
    4.7665   -3.1396   -2.7898 H   0  0  0  0  0  0  0  0  0  0  0  0
    2.6998   -3.3643   -3.8639 H   0  0  0  0  0  0  0  0  0  0  0  0
    1.7989   -1.8570   -4.0584 H   0  0  0  0  0  0  0  0  0  0  0  0
    1.3212   -3.0395   -2.8056 H   0  0  0  0  0  0  0  0  0  0  0  0
   -2.7501    1.3933   -1.4469 H   0  0  0  0  0  0  0  0  0  0  0  0
   -4.0987   -0.2990   -2.6573 H   0  0  0  0  0  0  0  0  0  0  0  0
  1  2  1  0
  2  3  1  0
  3  4  2  0
  4  5  1  0
  5  6  2  0
  6  7  1  0
  7  8  2  0
  8  9  1  0
  9 10  2  0
 10 11  1  0
 11 12  2  0
 12 13  1  0
 13 14  2  0
 14 15  1  0
 15 16  2  0
 15 17  1  0
 17 18  1  0
 18 19  1  0
 19 20  1  0
 20 21  1  0
 21 22  2  0
 22 23  1  0
 23 24  2  0
 24 25  1  0
 24 26  1  0
 26 27  2  0
 27 28  1  0
  6 29  1  0
 29 30  2  0
 30  3  1  0
 17  7  1  0
 27 21  1  0
 14  9  1  0
  1 31  1  0
  1 32  1  0
  1 33  1  0
  4 34  1  0
  5 35  1  0
 10 36  1  0
 11 37  1  0
 12 38  1  0
 13 39  1  0
 18 40  1  0
 18 41  1  0
 19 42  1  0
 19 43  1  0
 22 44  1  0
 23 45  1  0
 25 46  1  0
 25 47  1  0
 25 48  1  0
 26 49  1  0
 28 50  1  0
 28 51  1  0
 28 52  1  0
 29 53  1  0
 30 54  1  0
M  END
$$$$
