
     RDKit          3D

 49 52  0  0  0  0  0  0  0  0999 V2000
    5.4819    1.9492    1.0951 C   0  0  0  0  0  0  0  0  0  0  0  0
    4.6971    0.9357    1.7950 N   0  0  0  0  0  0  0  0  0  0  0  0
    3.3968    1.4637    2.2504 C   0  0  0  0  0  0  0  0  0  0  0  0
    2.1955    1.1045    1.3444 C   0  0  0  0  0  0  0  0  0  0  0  0
    2.0215   -0.3414    1.0736 N   0  0  0  0  0  0  0  0  0  0  0  0
    0.9098   -0.9435    1.8190 C   0  0  0  0  0  0  0  0  0  0  0  0
   -0.4669   -0.5492    1.2704 C   0  0  0  0  0  0  0  0  0  0  0  0
   -0.6612   -0.9958   -0.1872 C   0  0  0  0  0  0  0  0  0  0  0  0
   -1.9878   -0.5792   -0.7079 N   0  0  0  0  0  0  0  0  0  0  0  0
   -3.0625   -1.5073   -0.5844 C   0  0  0  0  0  0  0  0  0  0  0  0
   -2.9905   -2.6390    0.2606 C   0  0  0  0  0  0  0  0  0  0  0  0
   -4.0451   -3.5507    0.3964 C   0  0  0  0  0  0  0  0  0  0  0  0
   -5.2196   -3.3602   -0.3101 C   0  0  0  0  0  0  0  0  0  0  0  0
   -5.3326   -2.2562   -1.1461 C   0  0  0  0  0  0  0  0  0  0  0  0
   -4.2745   -1.3348   -1.2840 C   0  0  0  0  0  0  0  0  0  0  0  0
   -4.5790    0.0051   -2.4103 S   0  0  0  0  0  0  0  0  0  0  0  0
   -3.1802    1.0626   -2.1305 C   0  0  0  0  0  0  0  0  0  0  0  0
   -3.2432    2.3226   -2.7609 C   0  0  0  0  0  0  0  0  0  0  0  0
   -2.2043    3.2386   -2.6400 C   0  0  0  0  0  0  0  0  0  0  0  0
   -1.0961    2.8937   -1.8868 C   0  0  0  0  0  0  0  0  0  0  0  0
    0.2012    4.0124   -1.7116 Cl  0  0  0  0  0  0  0  0  0  0  0  0
   -1.0234    1.6453   -1.2614 C   0  0  0  0  0  0  0  0  0  0  0  0
   -2.0581    0.6870   -1.3626 C   0  0  0  0  0  0  0  0  0  0  0  0
    3.2779   -1.0812    1.3310 C   0  0  0  0  0  0  0  0  0  0  0  0
    4.5275   -0.2621    0.9476 C   0  0  0  0  0  0  0  0  0  0  0  0
    6.4502    1.5403    0.7854 H   0  0  0  0  0  0  0  0  0  0  0  0
    5.6966    2.7940    1.7588 H   0  0  0  0  0  0  0  0  0  0  0  0
    4.9668    2.3314    0.2064 H   0  0  0  0  0  0  0  0  0  0  0  0
    3.2067    1.0468    3.2482 H   0  0  0  0  0  0  0  0  0  0  0  0
    3.4360    2.5510    2.3929 H   0  0  0  0  0  0  0  0  0  0  0  0
    1.2911    1.5524    1.7708 H   0  0  0  0  0  0  0  0  0  0  0  0
    2.3394    1.5981    0.3745 H   0  0  0  0  0  0  0  0  0  0  0  0
    0.9785   -2.0381    1.7607 H   0  0  0  0  0  0  0  0  0  0  0  0
    0.9724   -0.6840    2.8836 H   0  0  0  0  0  0  0  0  0  0  0  0
   -1.2311   -1.0100    1.9072 H   0  0  0  0  0  0  0  0  0  0  0  0
   -0.6267    0.5292    1.3716 H   0  0  0  0  0  0  0  0  0  0  0  0
    0.1411   -0.6154   -0.8311 H   0  0  0  0  0  0  0  0  0  0  0  0
   -0.5242   -2.0813   -0.2729 H   0  0  0  0  0  0  0  0  0  0  0  0
   -2.1112   -2.8463    0.8609 H   0  0  0  0  0  0  0  0  0  0  0  0
   -3.9408   -4.4052    1.0603 H   0  0  0  0  0  0  0  0  0  0  0  0
   -6.0435   -4.0613   -0.2125 H   0  0  0  0  0  0  0  0  0  0  0  0
   -6.2592   -2.1131   -1.6988 H   0  0  0  0  0  0  0  0  0  0  0  0
   -4.1132    2.5950   -3.3560 H   0  0  0  0  0  0  0  0  0  0  0  0
   -2.2696    4.2052   -3.1304 H   0  0  0  0  0  0  0  0  0  0  0  0
   -0.1308    1.4511   -0.6772 H   0  0  0  0  0  0  0  0  0  0  0  0
    3.2654   -2.0069    0.7436 H   0  0  0  0  0  0  0  0  0  0  0  0
    3.3562   -1.3695    2.3884 H   0  0  0  0  0  0  0  0  0  0  0  0
    4.4477    0.0098   -0.1142 H   0  0  0  0  0  0  0  0  0  0  0  0
    5.4181   -0.8927    1.0514 H   0  0  0  0  0  0  0  0  0  0  0  0
  1  2  1  0
  2  3  1  0
  3  4  1  0
  4  5  1  0
  5  6  1  0
  6  7  1  0
  7  8  1  0
  8  9  1  0
  9 10  1  0
 10 11  2  0
 11 12  1  0
 12 13  2  0
 13 14  1  0
 14 15  2  0
 15 16  1  0
 16 17  1  0
 17 18  2  0
 18 19  1  0
 19 20  2  0
 20 21  1  0
 20 22  1  0
 22 23  2  0
  5 24  1  0
 24 25  1  0
 25  2  1  0
 23  9  1  0
 15 10  1  0
 23 17  1  0
  1 26  1  0
  1 27  1  0
  1 28  1  0
  3 29  1  0
  3 30  1  0
  4 31  1  0
  4 32  1  0
  6 33  1  0
  6 34  1  0
  7 35  1  0
  7 36  1  0
  8 37  1  0
  8 38  1  0
 11 39  1  0
 12 40  1  0
 13 41  1  0
 14 42  1  0
 18 43  1  0
 19 44  1  0
 22 45  1  0
 24 46  1  0
 24 47  1  0
 25 48  1  0
 25 49  1  0
M  END
$$$$
