
     RDKit          3D

 39 40  0  0  0  0  0  0  0  0999 V2000
   -1.0736   -3.4751    1.2560 C   0  0  0  0  0  0  0  0  0  0  0  0
   -1.5097   -2.0192    1.1206 C   0  0  0  0  0  0  0  0  0  0  0  0
   -2.0406   -1.8628   -0.1956 O   0  0  0  0  0  0  0  0  0  0  0  0
   -2.7814   -0.7493   -0.4946 C   0  0  0  0  0  0  0  0  0  0  0  0
   -3.0894    0.2749    0.4078 C   0  0  0  0  0  0  0  0  0  0  0  0
   -3.8542    1.3741   -0.0002 C   0  0  0  0  0  0  0  0  0  0  0  0
   -4.3151    1.4520   -1.3198 C   0  0  0  0  0  0  0  0  0  0  0  0
   -5.1275    2.6002   -1.7422 N   0  0  0  0  0  4  0  0  0  0  0  0
   -5.5245    2.6238   -2.9164 O   0  0  0  0  0  0  0  0  0  0  0  0
   -5.3711    3.4740   -0.8978 O   0  0  0  0  0  1  0  0  0  0  0  0
   -4.0127    0.4422   -2.2370 C   0  0  0  0  0  0  0  0  0  0  0  0
   -3.2485   -0.6499   -1.8189 C   0  0  0  0  0  0  0  0  0  0  0  0
   -2.8824   -1.8726   -2.9875 Cl  0  0  0  0  0  0  0  0  0  0  0  0
   -0.2913   -1.1116    1.3685 C   0  0  0  0  0  0  0  0  0  0  0  0
   -0.1340   -0.5592    2.4537 O   0  0  0  0  0  0  0  0  0  0  0  0
    0.5501   -1.0368    0.2705 N   0  0  0  0  0  0  0  0  0  0  0  0
    1.7625   -0.3329    0.1558 C   0  0  0  0  0  0  0  0  0  0  0  0
    2.4043   -0.3658   -1.0881 C   0  0  0  0  0  0  0  0  0  0  0  0
    3.6168    0.3035   -1.2827 C   0  0  0  0  0  0  0  0  0  0  0  0
    4.2094    1.0093   -0.2311 C   0  0  0  0  0  0  0  0  0  0  0  0
    5.4998    1.7039   -0.4847 C   0  0  0  0  0  0  0  0  0  0  0  0
    6.2854    1.9952    0.5975 N   0  0  0  0  0  0  0  0  0  0  0  0
    5.8700    1.9750   -1.6206 O   0  0  0  0  0  0  0  0  0  0  0  0
    3.5652    1.0565    1.0092 C   0  0  0  0  0  0  0  0  0  0  0  0
    2.3501    0.3838    1.2000 C   0  0  0  0  0  0  0  0  0  0  0  0
   -0.3527   -3.7507    0.4778 H   0  0  0  0  0  0  0  0  0  0  0  0
   -0.6140   -3.6633    2.2315 H   0  0  0  0  0  0  0  0  0  0  0  0
   -1.9335   -4.1425    1.1382 H   0  0  0  0  0  0  0  0  0  0  0  0
   -2.2785   -1.8256    1.8776 H   0  0  0  0  0  0  0  0  0  0  0  0
   -2.7520    0.2627    1.4408 H   0  0  0  0  0  0  0  0  0  0  0  0
   -4.0799    2.1566    0.7238 H   0  0  0  0  0  0  0  0  0  0  0  0
   -4.3618    0.4940   -3.2665 H   0  0  0  0  0  0  0  0  0  0  0  0
    0.2161   -1.5054   -0.5666 H   0  0  0  0  0  0  0  0  0  0  0  0
    1.9733   -0.9071   -1.9259 H   0  0  0  0  0  0  0  0  0  0  0  0
    4.0993    0.2708   -2.2581 H   0  0  0  0  0  0  0  0  0  0  0  0
    6.1556    1.5491    1.4946 H   0  0  0  0  0  0  0  0  0  0  0  0
    7.2097    2.3506    0.3868 H   0  0  0  0  0  0  0  0  0  0  0  0
    3.9745    1.6302    1.8360 H   0  0  0  0  0  0  0  0  0  0  0  0
    1.8864    0.4474    2.1797 H   0  0  0  0  0  0  0  0  0  0  0  0
  1  2  1  0
  2  3  1  0
  3  4  1  0
  4  5  2  0
  5  6  1  0
  6  7  2  0
  7  8  1  0
  8  9  2  0
  8 10  1  0
  7 11  1  0
 11 12  2  0
 12 13  1  0
  2 14  1  0
 14 15  2  0
 14 16  1  0
 16 17  1  0
 17 18  2  0
 18 19  1  0
 19 20  2  0
 20 21  1  0
 21 22  1  0
 21 23  2  0
 20 24  1  0
 24 25  2  0
 12  4  1  0
 25 17  1  0
  1 26  1  0
  1 27  1  0
  1 28  1  0
  2 29  1  0
  5 30  1  0
  6 31  1  0
 11 32  1  0
 16 33  1  0
 18 34  1  0
 19 35  1  0
 22 36  1  0
 22 37  1  0
 24 38  1  0
 25 39  1  0
M  CHG  2   8   1  10  -1
M  END
$$$$
