
     RDKit          3D

 38 40  0  0  0  0  0  0  0  0999 V2000
    0.1545   -1.1996   -2.8703 S   0  0  0  0  0  0  0  0  0  0  0  0
    0.0981   -0.4315   -1.3764 C   0  0  0  0  0  0  0  0  0  0  0  0
    0.9440    0.6024   -1.0275 N   0  0  0  0  0  0  0  0  0  0  0  0
    2.0168    1.1918   -1.8198 C   0  0  0  0  0  0  0  0  0  0  0  0
    3.3583    0.8880   -1.2017 C   0  0  0  0  0  0  0  0  0  0  0  0
    3.9643   -0.3605   -1.4017 C   0  0  0  0  0  0  0  0  0  0  0  0
    5.1951   -0.6535   -0.8128 C   0  0  0  0  0  0  0  0  0  0  0  0
    5.8304    0.2958   -0.0147 C   0  0  0  0  0  0  0  0  0  0  0  0
    5.2348    1.5378    0.1975 C   0  0  0  0  0  0  0  0  0  0  0  0
    4.0032    1.8326   -0.3902 C   0  0  0  0  0  0  0  0  0  0  0  0
   -0.8220   -0.7549   -0.3703 N   0  0  0  0  0  0  0  0  0  0  0  0
   -1.5410   -2.0363   -0.3221 C   0  0  0  0  0  0  0  0  0  0  0  0
   -3.0425   -1.8152   -0.4783 C   0  0  0  0  0  0  0  0  0  0  0  0
   -3.5407   -0.8252    0.5449 C   0  0  0  0  0  0  0  0  0  0  0  0
   -4.8914   -0.8217    0.9182 C   0  0  0  0  0  0  0  0  0  0  0  0
   -5.3616    0.0995    1.8530 C   0  0  0  0  0  0  0  0  0  0  0  0
   -4.4897    1.0282    2.4155 C   0  0  0  0  0  0  0  0  0  0  0  0
   -3.1464    1.0423    2.0387 C   0  0  0  0  0  0  0  0  0  0  0  0
   -2.6591    0.1248    1.0947 C   0  0  0  0  0  0  0  0  0  0  0  0
   -1.1956    0.1762    0.7039 C   0  0  0  0  0  0  0  0  0  0  0  0
    1.0553    0.7527   -0.0370 H   0  0  0  0  0  0  0  0  0  0  0  0
    1.8420    2.2739   -1.8195 H   0  0  0  0  0  0  0  0  0  0  0  0
    1.9982    0.8714   -2.8645 H   0  0  0  0  0  0  0  0  0  0  0  0
    3.4762   -1.1131   -2.0181 H   0  0  0  0  0  0  0  0  0  0  0  0
    5.6566   -1.6238   -0.9769 H   0  0  0  0  0  0  0  0  0  0  0  0
    6.7894    0.0667    0.4425 H   0  0  0  0  0  0  0  0  0  0  0  0
    5.7306    2.2773    0.8210 H   0  0  0  0  0  0  0  0  0  0  0  0
    3.5520    2.8062   -0.2125 H   0  0  0  0  0  0  0  0  0  0  0  0
   -1.3185   -2.4887    0.6536 H   0  0  0  0  0  0  0  0  0  0  0  0
   -1.1844   -2.7437   -1.0741 H   0  0  0  0  0  0  0  0  0  0  0  0
   -3.2680   -1.4254   -1.4780 H   0  0  0  0  0  0  0  0  0  0  0  0
   -3.5592   -2.7744   -0.3590 H   0  0  0  0  0  0  0  0  0  0  0  0
   -5.5833   -1.5388    0.4822 H   0  0  0  0  0  0  0  0  0  0  0  0
   -6.4096    0.0937    2.1408 H   0  0  0  0  0  0  0  0  0  0  0  0
   -4.8577    1.7460    3.1440 H   0  0  0  0  0  0  0  0  0  0  0  0
   -2.4807    1.7795    2.4820 H   0  0  0  0  0  0  0  0  0  0  0  0
   -0.9648    1.2032    0.4008 H   0  0  0  0  0  0  0  0  0  0  0  0
   -0.5836   -0.0836    1.5757 H   0  0  0  0  0  0  0  0  0  0  0  0
  1  2  2  0
  2  3  1  0
  3  4  1  0
  4  5  1  0
  5  6  2  0
  6  7  1  0
  7  8  2  0
  8  9  1  0
  9 10  2  0
  2 11  1  0
 11 12  1  0
 12 13  1  0
 13 14  1  0
 14 15  2  0
 15 16  1  0
 16 17  2  0
 17 18  1  0
 18 19  2  0
 19 20  1  0
 10  5  1  0
 20 11  1  0
 19 14  1  0
  3 21  1  0
  4 22  1  0
  4 23  1  0
  6 24  1  0
  7 25  1  0
  8 26  1  0
  9 27  1  0
 10 28  1  0
 12 29  1  0
 12 30  1  0
 13 31  1  0
 13 32  1  0
 15 33  1  0
 16 34  1  0
 17 35  1  0
 18 36  1  0
 20 37  1  0
 20 38  1  0
M  END
$$$$
