
     RDKit          3D

 47 51  0  0  0  0  0  0  0  0999 V2000
   -1.9061   -3.1666   -1.9340 C   0  0  0  0  0  0  0  0  0  0  0  0
   -2.1669   -1.8417   -1.2878 C   0  0  0  0  0  0  0  0  0  0  0  0
   -3.3979   -1.5179   -0.9726 N   0  0  0  0  0  0  0  0  0  0  0  0
   -3.5971   -0.2976   -0.3896 C   0  0  0  0  0  0  0  0  0  0  0  0
   -5.1569    0.2659    0.0448 S   0  0  0  0  0  0  0  0  0  0  0  0
   -4.5246    1.7441    0.6255 C   0  0  0  0  0  0  0  0  0  0  0  0
   -3.1455    1.8274    0.5202 C   0  0  0  0  0  0  0  0  0  0  0  0
   -2.6424    0.6487   -0.0739 C   0  0  0  0  0  0  0  0  0  0  0  0
   -1.2230    0.2204   -0.4526 C   0  0  0  0  0  0  0  0  0  0  0  0
   -0.0887    0.8532   -0.3125 N   0  0  0  0  0  0  0  0  0  0  0  0
    0.8799    0.0396   -0.8429 N   0  0  0  0  0  0  0  0  0  0  0  0
    0.3038   -1.0561   -1.2926 C   0  0  0  0  0  0  0  0  0  0  0  0
    1.1715   -2.3424   -2.0529 S   0  0  0  0  0  0  0  0  0  0  0  0
    2.2955   -1.4180   -3.1420 C   0  0  0  0  0  0  0  0  0  0  0  0
    3.4185   -0.6970   -2.4201 C   0  0  0  0  0  0  0  0  0  0  0  0
    3.9009    0.3452   -2.8641 O   0  0  0  0  0  0  0  0  0  0  0  0
    3.9212   -1.3261   -1.3092 N   0  0  0  0  0  0  0  0  0  0  0  0
    4.9567   -0.7194   -0.5010 C   0  0  0  0  0  0  0  0  0  0  0  0
    5.1332   -1.5116    0.7442 C   0  0  0  0  0  0  0  0  0  0  0  0
    5.1498   -1.1764    2.0837 C   0  0  0  0  0  0  0  0  0  0  0  0
    5.3253   -2.3875    2.8020 C   0  0  0  0  0  0  0  0  0  0  0  0
    5.4206   -3.3802    1.8559 C   0  0  0  0  0  0  0  0  0  0  0  0
    5.3044   -2.8603    0.6046 O   0  0  0  0  0  0  0  0  0  0  0  0
   -1.0532   -1.0086   -1.0531 N   0  0  0  0  0  0  0  0  0  0  0  0
   -2.3777    3.0253    0.9862 C   0  0  0  0  0  0  0  0  0  0  0  0
   -3.2937    4.2450    1.1770 C   0  0  0  0  0  0  0  0  0  0  0  0
   -4.5922    3.8789    1.9110 C   0  0  0  0  0  0  0  0  0  0  0  0
   -5.4136    2.8313    1.1422 C   0  0  0  0  0  0  0  0  0  0  0  0
   -1.2531   -3.7788   -1.3061 H   0  0  0  0  0  0  0  0  0  0  0  0
   -2.8489   -3.7107   -2.0530 H   0  0  0  0  0  0  0  0  0  0  0  0
   -1.4823   -3.0270   -2.9331 H   0  0  0  0  0  0  0  0  0  0  0  0
    2.7528   -2.1288   -3.8384 H   0  0  0  0  0  0  0  0  0  0  0  0
    1.7171   -0.6927   -3.7230 H   0  0  0  0  0  0  0  0  0  0  0  0
    3.4257   -2.1217   -0.9205 H   0  0  0  0  0  0  0  0  0  0  0  0
    4.6663    0.3114   -0.2734 H   0  0  0  0  0  0  0  0  0  0  0  0
    5.8861   -0.6953   -1.0849 H   0  0  0  0  0  0  0  0  0  0  0  0
    5.0269   -0.1791    2.4905 H   0  0  0  0  0  0  0  0  0  0  0  0
    5.3806   -2.5169    3.8748 H   0  0  0  0  0  0  0  0  0  0  0  0
    5.5663   -4.4457    1.9057 H   0  0  0  0  0  0  0  0  0  0  0  0
   -1.8927    2.7824    1.9380 H   0  0  0  0  0  0  0  0  0  0  0  0
   -1.5952    3.2804    0.2672 H   0  0  0  0  0  0  0  0  0  0  0  0
   -2.7556    5.0223    1.7311 H   0  0  0  0  0  0  0  0  0  0  0  0
   -3.5441    4.6659    0.1972 H   0  0  0  0  0  0  0  0  0  0  0  0
   -5.1995    4.7754    2.0631 H   0  0  0  0  0  0  0  0  0  0  0  0
   -4.3484    3.4935    2.9100 H   0  0  0  0  0  0  0  0  0  0  0  0
   -6.1982    2.4297    1.7937 H   0  0  0  0  0  0  0  0  0  0  0  0
   -5.9056    3.3181    0.2891 H   0  0  0  0  0  0  0  0  0  0  0  0
  1  2  1  0
  2  3  2  0
  3  4  1  0
  4  5  1  0
  5  6  1  0
  6  7  2  0
  7  8  1  0
  8  9  1  0
  9 10  2  0
 10 11  1  0
 11 12  2  0
 12 13  1  0
 13 14  1  0
 14 15  1  0
 15 16  2  0
 15 17  1  0
 17 18  1  0
 18 19  1  0
 19 20  2  0
 20 21  1  0
 21 22  2  0
 22 23  1  0
 12 24  1  0
  7 25  1  0
 25 26  1  0
 26 27  1  0
 27 28  1  0
 24  2  1  0
  8  4  2  0
 24  9  1  0
 28  6  1  0
 23 19  1  0
  1 29  1  0
  1 30  1  0
  1 31  1  0
 14 32  1  0
 14 33  1  0
 17 34  1  0
 18 35  1  0
 18 36  1  0
 20 37  1  0
 21 38  1  0
 22 39  1  0
 25 40  1  0
 25 41  1  0
 26 42  1  0
 26 43  1  0
 27 44  1  0
 27 45  1  0
 28 46  1  0
 28 47  1  0
M  END
$$$$
