
     RDKit          3D

 55 58  0  0  0  0  0  0  0  0999 V2000
    7.8019    2.2990    1.2013 C   0  0  0  0  0  0  0  0  0  0  0  0
    7.4613    1.6273   -0.0044 O   0  0  0  0  0  0  0  0  0  0  0  0
    6.1722    1.1647   -0.0884 C   0  0  0  0  0  0  0  0  0  0  0  0
    5.0890    1.7688    0.5575 C   0  0  0  0  0  0  0  0  0  0  0  0
    3.8018    1.2458    0.4082 C   0  0  0  0  0  0  0  0  0  0  0  0
    3.5923    0.1061   -0.3765 C   0  0  0  0  0  0  0  0  0  0  0  0
    2.2112   -0.4325   -0.4834 C   0  0  0  0  0  0  0  0  0  0  0  0
    2.0638   -1.9202   -0.3903 C   0  0  0  0  0  0  0  0  0  0  0  0
    0.8043   -2.3986   -0.4337 C   0  0  0  0  0  0  0  0  0  0  0  0
    0.4657   -3.8384   -0.3556 C   0  0  0  0  0  0  0  0  0  0  0  0
   -0.1534   -4.2921   -1.4751 F   0  0  0  0  0  0  0  0  0  0  0  0
   -0.3185   -4.1454    0.7077 F   0  0  0  0  0  0  0  0  0  0  0  0
    1.5873   -4.6021   -0.2168 F   0  0  0  0  0  0  0  0  0  0  0  0
   -0.2625   -1.5162   -0.5745 N   0  0  0  0  0  0  0  0  0  0  0  0
   -1.5875   -1.7965   -0.6070 N   0  0  0  0  0  0  0  0  0  0  0  0
   -2.1990   -0.6125   -0.8203 C   0  0  0  0  0  0  0  0  0  0  0  0
   -3.6571   -0.4736   -0.9835 C   0  0  0  0  0  0  0  0  0  0  0  0
   -4.1023    0.1249   -1.9634 O   0  0  0  0  0  0  0  0  0  0  0  0
   -4.4963   -0.9937    0.0200 N   0  0  0  0  0  0  0  0  0  0  0  0
   -3.9994   -1.4423    1.3173 C   0  0  0  0  0  0  0  0  0  0  0  0
   -5.9167   -0.6670   -0.0633 C   0  0  0  0  0  0  0  0  0  0  0  0
   -6.2654    0.6288    0.6372 C   0  0  0  0  0  0  0  0  0  0  0  0
   -6.1897    1.8487   -0.0530 C   0  0  0  0  0  0  0  0  0  0  0  0
   -6.4901    3.0507    0.5906 C   0  0  0  0  0  0  0  0  0  0  0  0
   -6.8662    3.0489    1.9325 C   0  0  0  0  0  0  0  0  0  0  0  0
   -6.9421    1.8450    2.6324 C   0  0  0  0  0  0  0  0  0  0  0  0
   -6.6443    0.6408    1.9883 C   0  0  0  0  0  0  0  0  0  0  0  0
   -1.2578    0.4344   -0.9149 C   0  0  0  0  0  0  0  0  0  0  0  0
   -0.0320   -0.1429   -0.6964 C   0  0  0  0  0  0  0  0  0  0  0  0
    1.2176    0.3991   -0.6194 N   0  0  0  0  0  0  0  0  0  0  0  0
    4.6642   -0.4846   -1.0535 C   0  0  0  0  0  0  0  0  0  0  0  0
    5.9493    0.0572   -0.9270 C   0  0  0  0  0  0  0  0  0  0  0  0
    7.0450   -0.4946   -1.5453 O   0  0  0  0  0  0  0  0  0  0  0  0
    6.8307   -0.9237   -2.8853 C   0  0  0  0  0  0  0  0  0  0  0  0
    8.8932    2.3695    1.2460 H   0  0  0  0  0  0  0  0  0  0  0  0
    7.4029    3.3184    1.2026 H   0  0  0  0  0  0  0  0  0  0  0  0
    7.4657    1.7448    2.0855 H   0  0  0  0  0  0  0  0  0  0  0  0
    5.2154    2.6581    1.1687 H   0  0  0  0  0  0  0  0  0  0  0  0
    2.9649    1.7289    0.9108 H   0  0  0  0  0  0  0  0  0  0  0  0
    2.9328   -2.5546   -0.2662 H   0  0  0  0  0  0  0  0  0  0  0  0
   -3.6983   -0.5649    1.9007 H   0  0  0  0  0  0  0  0  0  0  0  0
   -3.1450   -2.1149    1.2179 H   0  0  0  0  0  0  0  0  0  0  0  0
   -4.7842   -1.9905    1.8470 H   0  0  0  0  0  0  0  0  0  0  0  0
   -6.4891   -1.5000    0.3660 H   0  0  0  0  0  0  0  0  0  0  0  0
   -6.2283   -0.6048   -1.1149 H   0  0  0  0  0  0  0  0  0  0  0  0
   -5.8929    1.8671   -1.1017 H   0  0  0  0  0  0  0  0  0  0  0  0
   -6.4296    3.9876    0.0406 H   0  0  0  0  0  0  0  0  0  0  0  0
   -7.0984    3.9858    2.4333 H   0  0  0  0  0  0  0  0  0  0  0  0
   -7.2332    1.8447    3.6800 H   0  0  0  0  0  0  0  0  0  0  0  0
   -6.7062   -0.2880    2.5520 H   0  0  0  0  0  0  0  0  0  0  0  0
   -1.4531    1.4795   -1.0898 H   0  0  0  0  0  0  0  0  0  0  0  0
    4.4999   -1.3544   -1.6795 H   0  0  0  0  0  0  0  0  0  0  0  0
    7.8101   -1.0009   -3.3715 H   0  0  0  0  0  0  0  0  0  0  0  0
    6.2239   -0.2061   -3.4543 H   0  0  0  0  0  0  0  0  0  0  0  0
    6.3724   -1.9189   -2.8964 H   0  0  0  0  0  0  0  0  0  0  0  0
  1  2  1  0
  2  3  1  0
  3  4  2  0
  4  5  1  0
  5  6  2  0
  6  7  1  0
  7  8  1  0
  8  9  2  0
  9 10  1  0
 10 11  1  0
 10 12  1  0
 10 13  1  0
  9 14  1  0
 14 15  1  0
 15 16  2  0
 16 17  1  0
 17 18  2  0
 17 19  1  0
 19 20  1  0
 19 21  1  0
 21 22  1  0
 22 23  2  0
 23 24  1  0
 24 25  2  0
 25 26  1  0
 26 27  2  0
 16 28  1  0
 28 29  2  0
 29 30  1  0
  6 31  1  0
 31 32  2  0
 32 33  1  0
 33 34  1  0
 32  3  1  0
 30  7  2  0
 29 14  1  0
 27 22  1  0
  1 35  1  0
  1 36  1  0
  1 37  1  0
  4 38  1  0
  5 39  1  0
  8 40  1  0
 20 41  1  0
 20 42  1  0
 20 43  1  0
 21 44  1  0
 21 45  1  0
 23 46  1  0
 24 47  1  0
 25 48  1  0
 26 49  1  0
 27 50  1  0
 28 51  1  0
 31 52  1  0
 34 53  1  0
 34 54  1  0
 34 55  1  0
M  END
$$$$
