
     RDKit          3D

 59 64  0  0  0  0  0  0  0  0999 V2000
    3.7385    2.4094   -0.8232 O   0  0  0  0  0  0  0  0  0  0  0  0
    3.4882    1.2905   -0.3813 C   0  0  0  0  0  0  0  0  0  0  0  0
    4.5643    0.4629    0.2285 C   0  0  0  0  0  0  0  0  0  0  0  0
    5.6940    1.0571    0.6410 C   0  0  0  0  0  0  0  0  0  0  0  0
    6.7754    0.3297    1.2218 C   0  0  0  0  0  0  0  0  0  0  0  0
    6.9220   -1.0168    1.5210 C   0  0  0  0  0  0  0  0  0  0  0  0
    8.1840   -1.3305    2.1074 C   0  0  0  0  0  0  0  0  0  0  0  0
    8.9771   -0.2164    2.2438 C   0  0  0  0  0  0  0  0  0  0  0  0
    8.2040    1.1930    1.6716 S   0  0  0  0  0  0  0  0  0  0  0  0
    2.2181    0.7286   -0.4277 N   0  0  0  0  0  0  0  0  0  0  0  0
    1.1701    1.4623   -1.1281 C   0  0  0  0  0  0  0  0  0  0  0  0
    0.1717    0.5254   -1.8017 C   0  0  0  0  0  0  0  0  0  0  0  0
   -0.4558   -0.5238   -0.8335 C   0  0  0  0  0  0  0  0  0  0  0  0
    0.3112   -0.5460    0.5127 C   0  0  0  0  0  0  0  0  0  0  0  0
    1.8197   -0.4781    0.2929 C   0  0  0  0  0  0  0  0  0  0  0  0
   -0.2055   -1.7950   -1.5027 O   0  0  0  0  0  0  0  0  0  0  0  0
   -0.9720   -2.8681   -1.1545 C   0  0  0  0  0  0  0  0  0  0  0  0
   -0.5521   -4.1059   -1.6443 C   0  0  0  0  0  0  0  0  0  0  0  0
   -1.2586   -5.2637   -1.3129 C   0  0  0  0  0  0  0  0  0  0  0  0
   -2.3808   -5.1752   -0.4946 C   0  0  0  0  0  0  0  0  0  0  0  0
   -3.0499   -6.2897   -0.1738 F   0  0  0  0  0  0  0  0  0  0  0  0
   -2.8179   -3.9503   -0.0085 C   0  0  0  0  0  0  0  0  0  0  0  0
   -2.1110   -2.7970   -0.3560 C   0  0  0  0  0  0  0  0  0  0  0  0
   -2.5476   -1.4792    0.1213 C   0  0  0  0  0  0  0  0  0  0  0  0
   -3.2998   -1.3963    1.0879 O   0  0  0  0  0  0  0  0  0  0  0  0
   -1.9807   -0.2861   -0.6374 C   0  0  0  0  0  0  0  0  0  0  0  0
   -2.3517    1.0299    0.0283 C   0  0  0  0  0  0  0  0  0  0  0  0
   -3.5788    1.3462   -0.7587 C   0  0  0  0  0  0  0  0  0  0  0  0
   -4.5326    2.4013   -0.3426 C   0  0  0  0  0  0  0  0  0  0  0  0
   -4.2977    3.2016    0.7814 C   0  0  0  0  0  0  0  0  0  0  0  0
   -5.2182    4.1903    1.1408 C   0  0  0  0  0  0  0  0  0  0  0  0
   -6.3717    4.3845    0.3815 C   0  0  0  0  0  0  0  0  0  0  0  0
   -6.6094    3.5918   -0.7397 C   0  0  0  0  0  0  0  0  0  0  0  0
   -5.6926    2.6031   -1.1023 C   0  0  0  0  0  0  0  0  0  0  0  0
   -3.7178    0.6534   -1.8446 N   0  0  0  0  0  0  0  0  0  0  0  0
   -2.6368   -0.2514   -1.9163 O   0  0  0  0  0  0  0  0  0  0  0  0
    4.4158   -0.6044    0.2872 H   0  0  0  0  0  0  0  0  0  0  0  0
    5.7998    2.1365    0.5330 H   0  0  0  0  0  0  0  0  0  0  0  0
    6.1596   -1.7621    1.3318 H   0  0  0  0  0  0  0  0  0  0  0  0
    8.4920   -2.3234    2.4118 H   0  0  0  0  0  0  0  0  0  0  0  0
    9.9767   -0.1598    2.6525 H   0  0  0  0  0  0  0  0  0  0  0  0
    1.6094    2.1232   -1.8839 H   0  0  0  0  0  0  0  0  0  0  0  0
    0.6737    2.1053   -0.3926 H   0  0  0  0  0  0  0  0  0  0  0  0
   -0.5978    1.1371   -2.2860 H   0  0  0  0  0  0  0  0  0  0  0  0
    0.6928    0.0107   -2.6210 H   0  0  0  0  0  0  0  0  0  0  0  0
    0.0934   -1.4595    1.0775 H   0  0  0  0  0  0  0  0  0  0  0  0
    0.0080    0.2989    1.1427 H   0  0  0  0  0  0  0  0  0  0  0  0
    2.1686   -1.3404   -0.2867 H   0  0  0  0  0  0  0  0  0  0  0  0
    2.3240   -0.5007    1.2652 H   0  0  0  0  0  0  0  0  0  0  0  0
    0.3274   -4.1708   -2.2808 H   0  0  0  0  0  0  0  0  0  0  0  0
   -0.9403   -6.2332   -1.6854 H   0  0  0  0  0  0  0  0  0  0  0  0
   -3.7017   -3.9025    0.6208 H   0  0  0  0  0  0  0  0  0  0  0  0
   -2.5424    0.9502    1.1009 H   0  0  0  0  0  0  0  0  0  0  0  0
   -1.6261    1.8271   -0.1532 H   0  0  0  0  0  0  0  0  0  0  0  0
   -3.4093    3.0795    1.3935 H   0  0  0  0  0  0  0  0  0  0  0  0
   -5.0361    4.8106    2.0153 H   0  0  0  0  0  0  0  0  0  0  0  0
   -7.0867    5.1537    0.6636 H   0  0  0  0  0  0  0  0  0  0  0  0
   -7.5084    3.7413   -1.3333 H   0  0  0  0  0  0  0  0  0  0  0  0
   -5.8919    1.9909   -1.9800 H   0  0  0  0  0  0  0  0  0  0  0  0
  1  2  2  0
  2  3  1  0
  3  4  2  3
  4  5  1  0
  5  6  2  0
  6  7  1  0
  7  8  2  0
  8  9  1  0
  2 10  1  0
 10 11  1  0
 11 12  1  0
 12 13  1  0
 13 14  1  0
 14 15  1  0
 13 16  1  0
 16 17  1  0
 17 18  2  0
 18 19  1  0
 19 20  2  0
 20 21  1  0
 20 22  1  0
 22 23  2  0
 23 24  1  0
 24 25  2  0
 24 26  1  0
 26 27  1  0
 27 28  1  0
 28 29  1  0
 29 30  2  0
 30 31  1  0
 31 32  2  0
 32 33  1  0
 33 34  2  0
 28 35  2  0
 35 36  1  0
  9  5  1  0
 15 10  1  0
 23 17  1  0
 36 26  1  0
 26 13  1  0
 34 29  1  0
  3 37  1  0
  4 38  1  0
  6 39  1  0
  7 40  1  0
  8 41  1  0
 11 42  1  0
 11 43  1  0
 12 44  1  0
 12 45  1  0
 14 46  1  0
 14 47  1  0
 15 48  1  0
 15 49  1  0
 18 50  1  0
 19 51  1  0
 22 52  1  0
 27 53  1  0
 27 54  1  0
 30 55  1  0
 31 56  1  0
 32 57  1  0
 33 58  1  0
 34 59  1  0
M  END
$$$$
