
     RDKit          3D

 41 43  0  0  0  0  0  0  0  0999 V2000
    7.8997    0.1064    2.3357 C   0  0  0  0  0  0  0  0  0  0  0  0
    6.6206    0.1474    1.9322 C   0  0  0  0  0  0  0  0  0  0  0  0
    6.2731    0.7604    0.6565 C   0  0  0  0  0  0  0  0  0  0  0  0
    4.9916    0.8029    0.2499 C   0  0  0  0  0  0  0  0  0  0  0  0
    3.9024    0.2350    1.0753 C   0  0  0  0  0  0  0  0  0  0  0  0
    2.6075    0.2745    0.6722 C   0  0  0  0  0  0  0  0  0  0  0  0
    1.5512   -0.2295    1.3824 N   0  0  0  0  0  0  0  0  0  0  0  0
    0.2920   -0.1214    0.8521 C   0  0  0  0  0  0  0  0  0  0  0  0
   -0.7111   -0.5388    1.4048 O   0  0  0  0  0  0  0  0  0  0  0  0
    0.3800    0.5706   -0.4622 C   0  0  0  0  0  0  0  0  0  0  0  0
   -0.6176    0.8618   -1.3104 C   0  0  0  0  0  0  0  0  0  0  0  0
   -2.0437    0.5752   -1.1253 C   0  0  0  0  0  0  0  0  0  0  0  0
   -2.7772    1.1728   -0.0990 C   0  0  0  0  0  0  0  0  0  0  0  0
   -4.1449    0.9178    0.0346 C   0  0  0  0  0  0  0  0  0  0  0  0
   -4.7977    0.0678   -0.8635 C   0  0  0  0  0  0  0  0  0  0  0  0
   -6.1363   -0.2345   -0.8121 O   0  0  0  0  0  0  0  0  0  0  0  0
   -6.8770    0.2564    0.2956 C   0  0  0  0  0  0  0  0  0  0  0  0
   -4.0661   -0.5303   -1.9092 C   0  0  0  0  0  0  0  0  0  0  0  0
   -4.7802   -1.3426   -2.7566 O   0  0  0  0  0  0  0  0  0  0  0  0
   -4.0555   -2.0708   -3.7367 C   0  0  0  0  0  0  0  0  0  0  0  0
   -2.6957   -0.2674   -2.0349 C   0  0  0  0  0  0  0  0  0  0  0  0
    2.0344    0.9721   -0.8248 S   0  0  0  0  0  0  0  0  0  0  0  0
    4.2854   -0.3812    2.3654 C   0  0  0  0  0  0  0  0  0  0  0  0
    5.5690   -0.4207    2.7666 C   0  0  0  0  0  0  0  0  0  0  0  0
    8.1881   -0.3436    3.2805 H   0  0  0  0  0  0  0  0  0  0  0  0
    8.7027    0.5215    1.7345 H   0  0  0  0  0  0  0  0  0  0  0  0
    7.0585    1.1823    0.0374 H   0  0  0  0  0  0  0  0  0  0  0  0
    4.7673    1.2663   -0.7048 H   0  0  0  0  0  0  0  0  0  0  0  0
    1.6415   -0.6836    2.2769 H   0  0  0  0  0  0  0  0  0  0  0  0
   -0.3912    1.3501   -2.2566 H   0  0  0  0  0  0  0  0  0  0  0  0
   -2.2923    1.8359    0.6138 H   0  0  0  0  0  0  0  0  0  0  0  0
   -4.6699    1.3999    0.8519 H   0  0  0  0  0  0  0  0  0  0  0  0
   -6.4674   -0.1110    1.2423 H   0  0  0  0  0  0  0  0  0  0  0  0
   -6.9262    1.3501    0.2824 H   0  0  0  0  0  0  0  0  0  0  0  0
   -7.9000   -0.1221    0.2078 H   0  0  0  0  0  0  0  0  0  0  0  0
   -3.3041   -2.7202   -3.2754 H   0  0  0  0  0  0  0  0  0  0  0  0
   -3.6010   -1.3971   -4.4704 H   0  0  0  0  0  0  0  0  0  0  0  0
   -4.7649   -2.7111   -4.2699 H   0  0  0  0  0  0  0  0  0  0  0  0
   -2.1139   -0.7103   -2.8364 H   0  0  0  0  0  0  0  0  0  0  0  0
    3.5347   -0.8145    3.0140 H   0  0  0  0  0  0  0  0  0  0  0  0
    5.8341   -0.8764    3.7156 H   0  0  0  0  0  0  0  0  0  0  0  0
  1  2  2  0
  2  3  1  0
  3  4  2  0
  4  5  1  0
  5  6  2  3
  6  7  1  0
  7  8  1  0
  8  9  2  0
  8 10  1  0
 10 11  2  3
 11 12  1  0
 12 13  2  0
 13 14  1  0
 14 15  2  0
 15 16  1  0
 16 17  1  0
 15 18  1  0
 18 19  1  0
 19 20  1  0
 18 21  2  0
 10 22  1  0
  5 23  1  0
 23 24  2  0
 24  2  1  0
 22  6  1  0
 21 12  1  0
  1 25  1  0
  1 26  1  0
  3 27  1  0
  4 28  1  0
  7 29  1  0
 11 30  1  0
 13 31  1  0
 14 32  1  0
 17 33  1  0
 17 34  1  0
 17 35  1  0
 20 36  1  0
 20 37  1  0
 20 38  1  0
 21 39  1  0
 23 40  1  0
 24 41  1  0
M  END
$$$$
