
     RDKit          3D

 58 62  0  0  0  0  0  0  0  0999 V2000
    8.5243    1.6842    1.2472 C   0  0  0  0  0  0  0  0  0  0  0  0
    7.2748    2.1634    1.7225 O   0  0  0  0  0  0  0  0  0  0  0  0
    6.1387    1.7041    1.1041 C   0  0  0  0  0  0  0  0  0  0  0  0
    6.1279    0.7851    0.0512 C   0  0  0  0  0  0  0  0  0  0  0  0
    4.9179    0.3736   -0.5171 C   0  0  0  0  0  0  0  0  0  0  0  0
    3.6985    0.8729   -0.0462 C   0  0  0  0  0  0  0  0  0  0  0  0
    2.4211    0.4620   -0.6223 C   0  0  0  0  0  0  0  0  0  0  0  0
    1.2001    0.8535   -0.3077 N   0  0  0  0  0  0  0  0  0  0  0  0
    0.3780    0.1308   -1.1497 C   0  0  0  0  0  0  0  0  0  0  0  0
   -1.0976    0.2893   -1.0852 C   0  0  0  0  0  0  0  0  0  0  0  0
   -1.7124   -0.8220   -0.3773 N   0  0  0  0  0  0  0  0  0  0  0  0
   -2.5136   -1.8096   -0.8928 C   0  0  0  0  0  0  0  0  0  0  0  0
   -2.9037   -1.9545   -2.5744 S   0  0  0  0  0  0  0  0  0  0  0  0
   -4.6362   -2.5014   -2.4712 C   0  0  0  0  0  0  0  0  0  0  0  0
   -5.5723   -1.3613   -2.1493 C   0  0  0  0  0  0  0  0  0  0  0  0
   -6.0276   -0.5013   -3.1623 C   0  0  0  0  0  0  0  0  0  0  0  0
   -6.8707    0.5717   -2.8607 C   0  0  0  0  0  0  0  0  0  0  0  0
   -7.2652    0.7979   -1.5433 C   0  0  0  0  0  0  0  0  0  0  0  0
   -6.8149   -0.0505   -0.5392 C   0  0  0  0  0  0  0  0  0  0  0  0
   -7.1916    0.1710    0.7273 F   0  0  0  0  0  0  0  0  0  0  0  0
   -5.9766   -1.1224   -0.8277 C   0  0  0  0  0  0  0  0  0  0  0  0
   -2.9477   -2.6302    0.0356 N   0  0  0  0  0  0  0  0  0  0  0  0
   -2.4249   -2.1549    1.2113 C   0  0  0  0  0  0  0  0  0  0  0  0
   -2.5772   -2.6425    2.5086 C   0  0  0  0  0  0  0  0  0  0  0  0
   -1.9231   -1.9285    3.4986 C   0  0  0  0  0  0  0  0  0  0  0  0
   -1.1690   -0.8247    3.2873 N   0  0  0  0  0  0  0  0  0  0  0  0
   -1.0163   -0.3552    2.0261 C   0  0  0  0  0  0  0  0  0  0  0  0
   -1.6512   -1.0221    0.9878 C   0  0  0  0  0  0  0  0  0  0  0  0
    1.1530   -0.6658   -1.9674 C   0  0  0  0  0  0  0  0  0  0  0  0
    0.8817   -1.6339   -3.0445 C   0  0  0  0  0  0  0  0  0  0  0  0
    2.4623   -0.4607   -1.6343 O   0  0  0  0  0  0  0  0  0  0  0  0
    3.7140    1.7949    1.0126 C   0  0  0  0  0  0  0  0  0  0  0  0
    4.9190    2.2117    1.5924 C   0  0  0  0  0  0  0  0  0  0  0  0
    5.0105    3.1100    2.6273 O   0  0  0  0  0  0  0  0  0  0  0  0
    3.7997    3.5635    3.2156 C   0  0  0  0  0  0  0  0  0  0  0  0
    9.3122    2.1572    1.8416 H   0  0  0  0  0  0  0  0  0  0  0  0
    8.6837    1.9656    0.2007 H   0  0  0  0  0  0  0  0  0  0  0  0
    8.6104    0.6012    1.3845 H   0  0  0  0  0  0  0  0  0  0  0  0
    7.0436    0.3666   -0.3517 H   0  0  0  0  0  0  0  0  0  0  0  0
    4.9416   -0.3442   -1.3347 H   0  0  0  0  0  0  0  0  0  0  0  0
   -1.3672    1.2032   -0.5427 H   0  0  0  0  0  0  0  0  0  0  0  0
   -1.5228    0.3808   -2.0876 H   0  0  0  0  0  0  0  0  0  0  0  0
   -4.7485   -3.3184   -1.7491 H   0  0  0  0  0  0  0  0  0  0  0  0
   -4.9123   -2.9245   -3.4442 H   0  0  0  0  0  0  0  0  0  0  0  0
   -5.7228   -0.6618   -4.1954 H   0  0  0  0  0  0  0  0  0  0  0  0
   -7.2170    1.2304   -3.6524 H   0  0  0  0  0  0  0  0  0  0  0  0
   -7.9173    1.6288   -1.2921 H   0  0  0  0  0  0  0  0  0  0  0  0
   -5.6374   -1.7589   -0.0145 H   0  0  0  0  0  0  0  0  0  0  0  0
   -3.1702   -3.5201    2.7241 H   0  0  0  0  0  0  0  0  0  0  0  0
   -1.9909   -2.2408    4.5376 H   0  0  0  0  0  0  0  0  0  0  0  0
   -0.3968    0.5242    1.8979 H   0  0  0  0  0  0  0  0  0  0  0  0
    1.7982   -1.8941   -3.5838 H   0  0  0  0  0  0  0  0  0  0  0  0
    0.1749   -1.2167   -3.7681 H   0  0  0  0  0  0  0  0  0  0  0  0
    0.4576   -2.5545   -2.6323 H   0  0  0  0  0  0  0  0  0  0  0  0
    2.7621    2.1771    1.3689 H   0  0  0  0  0  0  0  0  0  0  0  0
    3.2115    4.1488    2.5016 H   0  0  0  0  0  0  0  0  0  0  0  0
    4.0594    4.2222    4.0500 H   0  0  0  0  0  0  0  0  0  0  0  0
    3.2181    2.7296    3.6208 H   0  0  0  0  0  0  0  0  0  0  0  0
  1  2  1  0
  2  3  1  0
  3  4  2  0
  4  5  1  0
  5  6  2  0
  6  7  1  0
  7  8  2  0
  8  9  1  0
  9 10  1  0
 10 11  1  0
 11 12  1  0
 12 13  1  0
 13 14  1  0
 14 15  1  0
 15 16  2  0
 16 17  1  0
 17 18  2  0
 18 19  1  0
 19 20  1  0
 19 21  2  0
 12 22  2  0
 22 23  1  0
 23 24  2  0
 24 25  1  0
 25 26  2  0
 26 27  1  0
 27 28  2  0
  9 29  2  0
 29 30  1  0
 29 31  1  0
  6 32  1  0
 32 33  2  0
 33 34  1  0
 34 35  1  0
 33  3  1  0
 31  7  1  0
 28 11  1  0
 21 15  1  0
 28 23  1  0
  1 36  1  0
  1 37  1  0
  1 38  1  0
  4 39  1  0
  5 40  1  0
 10 41  1  0
 10 42  1  0
 14 43  1  0
 14 44  1  0
 16 45  1  0
 17 46  1  0
 18 47  1  0
 21 48  1  0
 24 49  1  0
 25 50  1  0
 27 51  1  0
 30 52  1  0
 30 53  1  0
 30 54  1  0
 32 55  1  0
 35 56  1  0
 35 57  1  0
 35 58  1  0
M  END
$$$$
