
     RDKit          3D

 60 62  0  0  0  0  0  0  0  0999 V2000
   -5.3173    2.6932    1.3397 C   0  0  0  0  0  0  0  0  0  0  0  0
   -4.1643    2.5009    0.3985 C   0  0  0  0  0  0  0  0  0  0  0  0
   -2.8570    2.7453    0.8208 C   0  0  0  0  0  0  0  0  0  0  0  0
   -1.7939    2.6013   -0.0692 C   0  0  0  0  0  0  0  0  0  0  0  0
   -2.0255    2.2037   -1.3963 C   0  0  0  0  0  0  0  0  0  0  0  0
   -0.5945    2.0369   -2.4580 S   0  0  0  0  0  6  0  0  0  0  0  0
    0.5180    2.7228   -1.8318 O   0  0  0  0  0  0  0  0  0  0  0  0
   -0.9775    2.3545   -3.8169 O   0  0  0  0  0  0  0  0  0  0  0  0
   -0.2824    0.3742   -2.4300 N   0  0  0  0  0  0  0  0  0  0  0  0
   -0.1374   -0.2899   -1.1707 C   0  0  0  0  0  0  0  0  0  0  0  0
    0.9486    0.0757   -0.3676 C   0  0  0  0  0  0  0  0  0  0  0  0
    1.1073   -0.4503    0.9172 C   0  0  0  0  0  0  0  0  0  0  0  0
    2.2613   -0.0096    1.8152 C   0  0  0  0  0  0  0  0  0  0  0  0
    3.5468   -0.7821    1.6295 C   0  0  0  0  0  0  0  0  0  0  0  0
    4.5004   -0.6542    2.3892 O   0  0  0  0  0  0  0  0  0  0  0  0
    3.5382   -1.5821    0.5331 O   0  0  0  0  0  0  0  0  0  0  0  0
    4.7341   -2.3415    0.2737 C   0  0  0  0  0  0  0  0  0  0  0  0
    4.3294   -3.5267   -0.5943 C   0  0  0  0  0  0  0  0  0  0  0  0
    5.7521   -1.4673   -0.4500 C   0  0  0  0  0  0  0  0  0  0  0  0
    2.4417    1.4976    1.8252 C   0  0  0  0  0  0  0  0  0  0  0  0
    1.5828    2.2189    2.3540 O   0  0  0  0  0  0  0  0  0  0  0  0
    3.6800    2.0643    1.1510 C   0  0  0  0  0  0  0  0  0  0  0  0
    4.7669    2.0582    1.9668 F   0  0  0  0  0  0  0  0  0  0  0  0
    3.5157    3.3547    0.7514 F   0  0  0  0  0  0  0  0  0  0  0  0
    4.0261    1.3671    0.0338 F   0  0  0  0  0  0  0  0  0  0  0  0
    0.1816   -1.4099    1.3500 C   0  0  0  0  0  0  0  0  0  0  0  0
    0.3724   -1.9115    2.6139 O   0  0  0  0  0  0  0  0  0  0  0  0
   -0.9004   -1.8478    0.5444 C   0  0  0  0  0  0  0  0  0  0  0  0
   -1.8066   -2.8554    0.9573 C   0  0  0  0  0  0  0  0  0  0  0  0
   -2.8831   -3.2479    0.1622 C   0  0  0  0  0  0  0  0  0  0  0  0
   -3.0768   -2.6509   -1.0719 C   0  0  0  0  0  0  0  0  0  0  0  0
   -2.1838   -1.6757   -1.5155 C   0  0  0  0  0  0  0  0  0  0  0  0
   -1.0774   -1.2593   -0.7341 C   0  0  0  0  0  0  0  0  0  0  0  0
   -3.3374    1.9729   -1.8506 C   0  0  0  0  0  0  0  0  0  0  0  0
   -3.6820    1.5999   -3.2651 C   0  0  0  0  0  0  0  0  0  0  0  0
   -4.3947    2.1368   -0.9355 C   0  0  0  0  0  0  0  0  0  0  0  0
   -5.0075    2.5370    2.3778 H   0  0  0  0  0  0  0  0  0  0  0  0
   -5.7164    3.7068    1.2408 H   0  0  0  0  0  0  0  0  0  0  0  0
   -6.1153    1.9747    1.1274 H   0  0  0  0  0  0  0  0  0  0  0  0
   -2.6548    3.0535    1.8444 H   0  0  0  0  0  0  0  0  0  0  0  0
   -0.7848    2.8007    0.2884 H   0  0  0  0  0  0  0  0  0  0  0  0
   -0.7101   -0.1227   -3.2065 H   0  0  0  0  0  0  0  0  0  0  0  0
    1.6718    0.7854   -0.7646 H   0  0  0  0  0  0  0  0  0  0  0  0
    1.9784   -0.2316    2.8548 H   0  0  0  0  0  0  0  0  0  0  0  0
    5.1530   -2.7234    1.2125 H   0  0  0  0  0  0  0  0  0  0  0  0
    3.5700   -4.1308   -0.0856 H   0  0  0  0  0  0  0  0  0  0  0  0
    3.8827   -3.1897   -1.5365 H   0  0  0  0  0  0  0  0  0  0  0  0
    5.1890   -4.1648   -0.8219 H   0  0  0  0  0  0  0  0  0  0  0  0
    6.0554   -0.6210    0.1743 H   0  0  0  0  0  0  0  0  0  0  0  0
    6.6483   -2.0376   -0.7128 H   0  0  0  0  0  0  0  0  0  0  0  0
    5.3235   -1.0435   -1.3647 H   0  0  0  0  0  0  0  0  0  0  0  0
   -0.4995   -2.0972    3.0014 H   0  0  0  0  0  0  0  0  0  0  0  0
   -1.6780   -3.3711    1.9059 H   0  0  0  0  0  0  0  0  0  0  0  0
   -3.5628   -4.0226    0.5077 H   0  0  0  0  0  0  0  0  0  0  0  0
   -3.9146   -2.9494   -1.6977 H   0  0  0  0  0  0  0  0  0  0  0  0
   -2.3686   -1.2474   -2.4955 H   0  0  0  0  0  0  0  0  0  0  0  0
   -3.5790    2.4678   -3.9229 H   0  0  0  0  0  0  0  0  0  0  0  0
   -4.7170    1.2493   -3.3417 H   0  0  0  0  0  0  0  0  0  0  0  0
   -3.0538    0.7806   -3.6245 H   0  0  0  0  0  0  0  0  0  0  0  0
   -5.4212    1.9805   -1.2664 H   0  0  0  0  0  0  0  0  0  0  0  0
  1  2  1  0
  2  3  2  0
  3  4  1  0
  4  5  2  0
  5  6  1  0
  6  7  2  0
  6  8  2  0
  6  9  1  0
  9 10  1  0
 10 11  2  0
 11 12  1  0
 12 13  1  0
 13 14  1  0
 14 15  2  0
 14 16  1  0
 16 17  1  0
 17 18  1  0
 17 19  1  0
 13 20  1  0
 20 21  2  0
 20 22  1  0
 22 23  1  0
 22 24  1  0
 22 25  1  0
 12 26  2  0
 26 27  1  0
 26 28  1  0
 28 29  2  0
 29 30  1  0
 30 31  2  0
 31 32  1  0
 32 33  2  0
  5 34  1  0
 34 35  1  0
 34 36  2  0
 36  2  1  0
 33 10  1  0
 33 28  1  0
  1 37  1  0
  1 38  1  0
  1 39  1  0
  3 40  1  0
  4 41  1  0
  9 42  1  0
 11 43  1  0
 13 44  1  0
 17 45  1  0
 18 46  1  0
 18 47  1  0
 18 48  1  0
 19 49  1  0
 19 50  1  0
 19 51  1  0
 27 52  1  0
 29 53  1  0
 30 54  1  0
 31 55  1  0
 32 56  1  0
 35 57  1  0
 35 58  1  0
 35 59  1  0
 36 60  1  0
M  END
$$$$
