
     RDKit          3D

 50 53  0  0  0  0  0  0  0  0999 V2000
   -5.3493    2.0224    1.5084 C   0  0  0  0  0  0  0  0  0  0  0  0
   -3.9159    2.2012    1.2849 N   0  0  0  0  0  0  0  0  0  0  0  0
   -3.5406    1.8863   -0.1136 C   0  0  0  0  0  0  0  0  0  0  0  0
   -3.5288    0.3798   -0.4737 C   0  0  0  0  0  0  0  0  0  0  0  0
   -2.6709   -0.3571    0.4837 N   0  0  0  0  0  0  0  0  0  0  0  0
   -2.5638   -1.7382    0.1550 C   0  0  0  0  0  0  0  0  0  0  0  0
   -3.6590   -2.6123    0.1607 C   0  0  0  0  0  0  0  0  0  0  0  0
   -3.4900   -3.9574   -0.1713 C   0  0  0  0  0  0  0  0  0  0  0  0
   -2.2275   -4.4406   -0.5115 C   0  0  0  0  0  0  0  0  0  0  0  0
   -1.1237   -3.5849   -0.5230 C   0  0  0  0  0  0  0  0  0  0  0  0
   -1.2847   -2.2405   -0.1926 C   0  0  0  0  0  0  0  0  0  0  0  0
   -0.2444   -1.2898   -0.1711 N   0  0  0  0  0  0  0  0  0  0  0  0
    1.0955   -1.4550   -0.4544 C   0  0  0  0  0  0  0  0  0  0  0  0
    1.6040   -2.5222   -0.7868 O   0  0  0  0  0  0  0  0  0  0  0  0
    1.8760   -0.2305   -0.3239 C   0  0  0  0  0  0  0  0  0  0  0  0
    1.5627    1.0722    0.0253 C   0  0  0  0  0  0  0  0  0  0  0  0
    2.7690    1.8164   -0.0300 C   0  0  0  0  0  0  0  0  0  0  0  0
    3.7622    0.9371   -0.4095 C   0  0  0  0  0  0  0  0  0  0  0  0
    5.1995    1.0505   -0.6484 C   0  0  0  0  0  0  0  0  0  0  0  0
    5.8536    2.2814   -0.4930 C   0  0  0  0  0  0  0  0  0  0  0  0
    7.2294    2.3973   -0.7200 C   0  0  0  0  0  0  0  0  0  0  0  0
    7.9747    1.2821   -1.1069 C   0  0  0  0  0  0  0  0  0  0  0  0
    9.6681    1.4985   -1.3698 Cl  0  0  0  0  0  0  0  0  0  0  0  0
    7.3389    0.0480   -1.2663 C   0  0  0  0  0  0  0  0  0  0  0  0
    8.1945   -1.3763   -1.7426 Cl  0  0  0  0  0  0  0  0  0  0  0  0
    5.9618   -0.0631   -1.0380 C   0  0  0  0  0  0  0  0  0  0  0  0
    3.2194   -0.3016   -0.5869 O   0  0  0  0  0  0  0  0  0  0  0  0
   -3.0947   -0.1487    1.8881 C   0  0  0  0  0  0  0  0  0  0  0  0
   -3.1135    1.3665    2.2098 C   0  0  0  0  0  0  0  0  0  0  0  0
   -5.6123    2.3055    2.5337 H   0  0  0  0  0  0  0  0  0  0  0  0
   -5.9222    2.6826    0.8477 H   0  0  0  0  0  0  0  0  0  0  0  0
   -5.6902    0.9958    1.3414 H   0  0  0  0  0  0  0  0  0  0  0  0
   -2.5320    2.2876   -0.2811 H   0  0  0  0  0  0  0  0  0  0  0  0
   -4.1936    2.4264   -0.8101 H   0  0  0  0  0  0  0  0  0  0  0  0
   -3.1306    0.2679   -1.4898 H   0  0  0  0  0  0  0  0  0  0  0  0
   -4.5551   -0.0072   -0.4703 H   0  0  0  0  0  0  0  0  0  0  0  0
   -4.6511   -2.2577    0.4225 H   0  0  0  0  0  0  0  0  0  0  0  0
   -4.3435   -4.6306   -0.1650 H   0  0  0  0  0  0  0  0  0  0  0  0
   -2.0969   -5.4888   -0.7701 H   0  0  0  0  0  0  0  0  0  0  0  0
   -0.1559   -3.9950   -0.7927 H   0  0  0  0  0  0  0  0  0  0  0  0
   -0.5904   -0.3746    0.0973 H   0  0  0  0  0  0  0  0  0  0  0  0
    0.5869    1.4544    0.2902 H   0  0  0  0  0  0  0  0  0  0  0  0
    2.8903    2.8690    0.1832 H   0  0  0  0  0  0  0  0  0  0  0  0
    5.3029    3.1700   -0.1927 H   0  0  0  0  0  0  0  0  0  0  0  0
    7.7125    3.3634   -0.5925 H   0  0  0  0  0  0  0  0  0  0  0  0
    5.4804   -1.0319   -1.1664 H   0  0  0  0  0  0  0  0  0  0  0  0
   -4.0875   -0.5763    2.0736 H   0  0  0  0  0  0  0  0  0  0  0  0
   -2.3851   -0.6395    2.5658 H   0  0  0  0  0  0  0  0  0  0  0  0
   -2.0806    1.7381    2.1750 H   0  0  0  0  0  0  0  0  0  0  0  0
   -3.4486    1.5195    3.2430 H   0  0  0  0  0  0  0  0  0  0  0  0
  1  2  1  0
  2  3  1  0
  3  4  1  0
  4  5  1  0
  5  6  1  0
  6  7  2  0
  7  8  1  0
  8  9  2  0
  9 10  1  0
 10 11  2  0
 11 12  1  0
 12 13  1  0
 13 14  2  0
 13 15  1  0
 15 16  2  0
 16 17  1  0
 17 18  2  0
 18 19  1  0
 19 20  2  0
 20 21  1  0
 21 22  2  0
 22 23  1  0
 22 24  1  0
 24 25  1  0
 24 26  2  0
 18 27  1  0
  5 28  1  0
 28 29  1  0
 29  2  1  0
 11  6  1  0
 27 15  1  0
 26 19  1  0
  1 30  1  0
  1 31  1  0
  1 32  1  0
  3 33  1  0
  3 34  1  0
  4 35  1  0
  4 36  1  0
  7 37  1  0
  8 38  1  0
  9 39  1  0
 10 40  1  0
 12 41  1  0
 16 42  1  0
 17 43  1  0
 20 44  1  0
 21 45  1  0
 26 46  1  0
 28 47  1  0
 28 48  1  0
 29 49  1  0
 29 50  1  0
M  END
$$$$
