
     RDKit          3D

 38 39  0  0  0  0  0  0  0  0999 V2000
    0.0091   -1.6173    0.5609 O   0  0  0  0  0  0  0  0  0  0  0  0
   -0.4876   -0.7224   -0.1096 C   0  0  0  0  0  0  0  0  0  0  0  0
   -1.8029   -0.1167    0.2108 C   0  0  0  0  0  0  0  0  0  0  0  0
   -2.3867   -0.3863    1.3880 C   0  0  0  0  0  0  0  0  0  0  0  0
   -3.6963    0.1544    1.7706 C   0  0  0  0  0  0  0  0  0  0  0  0
   -4.7390   -0.7616    1.9700 C   0  0  0  0  0  0  0  0  0  0  0  0
   -6.0137   -0.3270    2.3542 C   0  0  0  0  0  0  0  0  0  0  0  0
   -6.2690    1.0303    2.5547 C   0  0  0  0  0  0  0  0  0  0  0  0
   -5.2493    1.9613    2.3732 C   0  0  0  0  0  0  0  0  0  0  0  0
   -3.9800    1.5120    1.9841 C   0  0  0  0  0  0  0  0  0  0  0  0
   -2.9463    2.5114    1.8283 N   0  0  0  0  0  4  0  0  0  0  0  0
   -2.7219    2.9142    0.6779 O   0  0  0  0  0  0  0  0  0  0  0  0
   -2.3898    2.9107    2.8589 O   0  0  0  0  0  1  0  0  0  0  0  0
    0.1015   -0.1607   -1.2148 N   0  0  0  0  0  0  0  0  0  0  0  0
    1.4220   -0.5705   -1.6542 C   0  0  0  0  0  0  0  0  0  0  0  0
    2.5336    0.0592   -0.8112 C   0  0  0  0  0  0  0  0  0  0  0  0
    3.9026   -0.3499   -1.2968 C   0  0  0  0  0  0  0  0  0  0  0  0
    4.4662   -1.5636   -0.8732 C   0  0  0  0  0  0  0  0  0  0  0  0
    5.7237   -1.9550   -1.3335 C   0  0  0  0  0  0  0  0  0  0  0  0
    6.4147   -1.1360   -2.2180 C   0  0  0  0  0  0  0  0  0  0  0  0
    7.6216   -1.5125   -2.6607 F   0  0  0  0  0  0  0  0  0  0  0  0
    5.8717    0.0674   -2.6521 C   0  0  0  0  0  0  0  0  0  0  0  0
    4.6139    0.4614   -2.1935 C   0  0  0  0  0  0  0  0  0  0  0  0
   -2.2624    0.5247   -0.5311 H   0  0  0  0  0  0  0  0  0  0  0  0
   -1.9157   -1.0569    2.1058 H   0  0  0  0  0  0  0  0  0  0  0  0
   -4.5696   -1.8282    1.8254 H   0  0  0  0  0  0  0  0  0  0  0  0
   -6.8094   -1.0550    2.5012 H   0  0  0  0  0  0  0  0  0  0  0  0
   -7.2612    1.3577    2.8577 H   0  0  0  0  0  0  0  0  0  0  0  0
   -5.4426    3.0187    2.5389 H   0  0  0  0  0  0  0  0  0  0  0  0
   -0.3194    0.6471   -1.6547 H   0  0  0  0  0  0  0  0  0  0  0  0
    1.4786   -1.6647   -1.6115 H   0  0  0  0  0  0  0  0  0  0  0  0
    1.5160   -0.2731   -2.7046 H   0  0  0  0  0  0  0  0  0  0  0  0
    2.4443    1.1532   -0.8323 H   0  0  0  0  0  0  0  0  0  0  0  0
    2.4253   -0.2217    0.2441 H   0  0  0  0  0  0  0  0  0  0  0  0
    3.9262   -2.2079   -0.1812 H   0  0  0  0  0  0  0  0  0  0  0  0
    6.1666   -2.8908   -1.0084 H   0  0  0  0  0  0  0  0  0  0  0  0
    6.4308    0.6898   -3.3431 H   0  0  0  0  0  0  0  0  0  0  0  0
    4.1946    1.4044   -2.5371 H   0  0  0  0  0  0  0  0  0  0  0  0
  1  2  2  0
  2  3  1  0
  3  4  2  3
  4  5  1  0
  5  6  2  0
  6  7  1  0
  7  8  2  0
  8  9  1  0
  9 10  2  0
 10 11  1  0
 11 12  2  0
 11 13  1  0
  2 14  1  0
 14 15  1  0
 15 16  1  0
 16 17  1  0
 17 18  2  0
 18 19  1  0
 19 20  2  0
 20 21  1  0
 20 22  1  0
 22 23  2  0
 10  5  1  0
 23 17  1  0
  3 24  1  0
  4 25  1  0
  6 26  1  0
  7 27  1  0
  8 28  1  0
  9 29  1  0
 14 30  1  0
 15 31  1  0
 15 32  1  0
 16 33  1  0
 16 34  1  0
 18 35  1  0
 19 36  1  0
 22 37  1  0
 23 38  1  0
M  CHG  2  11   1  13  -1
M  END
$$$$
