
     RDKit          3D

 60 64  0  0  0  0  0  0  0  0999 V2000
   -8.1560    0.4000   -1.6446 C   0  0  0  0  0  0  0  0  0  0  0  0
   -7.2110    0.0714   -0.5268 C   0  0  0  0  0  0  0  0  0  0  0  0
   -6.1311   -0.7929   -0.7395 C   0  0  0  0  0  0  0  0  0  0  0  0
   -5.2315   -1.0704    0.2924 C   0  0  0  0  0  0  0  0  0  0  0  0
   -5.3938   -0.4842    1.5556 C   0  0  0  0  0  0  0  0  0  0  0  0
   -4.4161   -0.7716    2.6671 C   0  0  0  0  0  0  0  0  0  0  0  0
   -3.4239    0.2754    2.7864 N   0  0  0  0  0  0  0  0  0  0  0  0
   -3.5598    1.2628    3.7068 N   0  0  0  0  0  0  0  0  0  0  0  0
   -2.5026    2.0678    3.5966 N   0  0  0  0  0  0  0  0  0  0  0  0
   -1.7065    1.5589    2.6166 C   0  0  0  0  0  0  0  0  0  0  0  0
   -0.4525    2.0238    2.0864 C   0  0  0  0  0  0  0  0  0  0  0  0
    0.1576    3.0158    2.4687 O   0  0  0  0  0  0  0  0  0  0  0  0
    0.0170    1.1991    1.0711 N   0  0  0  0  0  0  0  0  0  0  0  0
   -0.6278    0.0403    0.6400 C   0  0  0  0  0  0  0  0  0  0  0  0
    0.0632   -0.7419   -0.4692 C   0  0  0  0  0  0  0  0  0  0  0  0
    1.4242   -1.2510    0.0412 C   0  0  0  0  0  0  0  0  0  0  0  0
    2.4264   -1.5521   -1.0602 C   0  0  0  0  0  0  0  0  0  0  0  0
    2.4716   -0.4660   -2.0653 N   0  0  0  0  0  0  0  0  0  0  0  0
    3.2178    1.0121   -1.6311 S   0  0  0  0  0  6  0  0  0  0  0  0
    3.2782    1.8433   -2.8133 O   0  0  0  0  0  0  0  0  0  0  0  0
    2.5608    1.4857   -0.4254 O   0  0  0  0  0  0  0  0  0  0  0  0
    4.8731    0.5278   -1.2302 C   0  0  0  0  0  0  0  0  0  0  0  0
    5.6846   -0.0041   -2.2347 C   0  0  0  0  0  0  0  0  0  0  0  0
    6.9883   -0.3942   -1.9282 C   0  0  0  0  0  0  0  0  0  0  0  0
    7.4821   -0.2583   -0.6232 C   0  0  0  0  0  0  0  0  0  0  0  0
    8.8977   -0.6447   -0.3094 C   0  0  0  0  0  0  0  0  0  0  0  0
    6.6623    0.2984    0.3679 C   0  0  0  0  0  0  0  0  0  0  0  0
    5.3568    0.6900    0.0693 C   0  0  0  0  0  0  0  0  0  0  0  0
    1.1590   -0.3298   -2.7413 C   0  0  0  0  0  0  0  0  0  0  0  0
    0.0954    0.1133   -1.7494 C   0  0  0  0  0  0  0  0  0  0  0  0
   -1.7576   -0.3964    1.1254 N   0  0  0  0  0  0  0  0  0  0  0  0
   -2.2524    0.4092    2.0978 C   0  0  0  0  0  0  0  0  0  0  0  0
   -6.4629    0.3987    1.7590 C   0  0  0  0  0  0  0  0  0  0  0  0
   -7.3610    0.6755    0.7258 C   0  0  0  0  0  0  0  0  0  0  0  0
   -7.8040    1.2848   -2.1855 H   0  0  0  0  0  0  0  0  0  0  0  0
   -9.1622    0.5966   -1.2587 H   0  0  0  0  0  0  0  0  0  0  0  0
   -8.2360   -0.4364   -2.3480 H   0  0  0  0  0  0  0  0  0  0  0  0
   -5.9810   -1.2528   -1.7138 H   0  0  0  0  0  0  0  0  0  0  0  0
   -4.3955   -1.7400    0.0991 H   0  0  0  0  0  0  0  0  0  0  0  0
   -4.9381   -0.8642    3.6269 H   0  0  0  0  0  0  0  0  0  0  0  0
   -3.8892   -1.7179    2.4988 H   0  0  0  0  0  0  0  0  0  0  0  0
    0.9020    1.4902    0.6578 H   0  0  0  0  0  0  0  0  0  0  0  0
   -0.5476   -1.6281   -0.6915 H   0  0  0  0  0  0  0  0  0  0  0  0
    1.2605   -2.1624    0.6320 H   0  0  0  0  0  0  0  0  0  0  0  0
    1.8778   -0.5524    0.7518 H   0  0  0  0  0  0  0  0  0  0  0  0
    2.1469   -2.4835   -1.5694 H   0  0  0  0  0  0  0  0  0  0  0  0
    3.4195   -1.7356   -0.6394 H   0  0  0  0  0  0  0  0  0  0  0  0
    5.3092   -0.1105   -3.2502 H   0  0  0  0  0  0  0  0  0  0  0  0
    7.6215   -0.8003   -2.7141 H   0  0  0  0  0  0  0  0  0  0  0  0
    9.5778    0.1674   -0.5866 H   0  0  0  0  0  0  0  0  0  0  0  0
    9.1808   -1.5510   -0.8560 H   0  0  0  0  0  0  0  0  0  0  0  0
    9.0204   -0.8571    0.7586 H   0  0  0  0  0  0  0  0  0  0  0  0
    7.0401    0.4349    1.3794 H   0  0  0  0  0  0  0  0  0  0  0  0
    4.7361    1.1249    0.8488 H   0  0  0  0  0  0  0  0  0  0  0  0
    1.2295    0.3737   -3.5779 H   0  0  0  0  0  0  0  0  0  0  0  0
    0.8840   -1.2962   -3.1831 H   0  0  0  0  0  0  0  0  0  0  0  0
    0.2412    1.1758   -1.5189 H   0  0  0  0  0  0  0  0  0  0  0  0
   -0.8901    0.0672   -2.2340 H   0  0  0  0  0  0  0  0  0  0  0  0
   -6.5970    0.8887    2.7224 H   0  0  0  0  0  0  0  0  0  0  0  0
   -8.1767    1.3727    0.9048 H   0  0  0  0  0  0  0  0  0  0  0  0
  1  2  1  0
  2  3  2  0
  3  4  1  0
  4  5  2  0
  5  6  1  0
  6  7  1  0
  7  8  1  0
  8  9  2  0
  9 10  1  0
 10 11  1  0
 11 12  2  0
 11 13  1  0
 13 14  1  0
 14 15  1  0
 15 16  1  0
 16 17  1  0
 17 18  1  0
 18 19  1  0
 19 20  2  0
 19 21  2  0
 19 22  1  0
 22 23  2  0
 23 24  1  0
 24 25  2  0
 25 26  1  0
 25 27  1  0
 27 28  2  0
 18 29  1  0
 29 30  1  0
 14 31  2  0
 31 32  1  0
  5 33  1  0
 33 34  2  0
 34  2  1  0
 32  7  1  0
 32 10  2  0
 30 15  1  0
 28 22  1  0
  1 35  1  0
  1 36  1  0
  1 37  1  0
  3 38  1  0
  4 39  1  0
  6 40  1  0
  6 41  1  0
 13 42  1  0
 15 43  1  0
 16 44  1  0
 16 45  1  0
 17 46  1  0
 17 47  1  0
 23 48  1  0
 24 49  1  0
 26 50  1  0
 26 51  1  0
 26 52  1  0
 27 53  1  0
 28 54  1  0
 29 55  1  0
 29 56  1  0
 30 57  1  0
 30 58  1  0
 33 59  1  0
 34 60  1  0
M  END
$$$$
