
     RDKit          3D

 60 66  0  0  0  0  0  0  0  0999 V2000
   -0.1658    1.7427   -2.3871 O   0  0  0  0  0  0  0  0  0  0  0  0
   -0.3428    2.3404   -1.3361 C   0  0  0  0  0  0  0  0  0  0  0  0
   -0.8065    3.6540   -1.2337 N   0  0  0  0  0  0  0  0  0  0  0  0
   -0.7956    4.0904    0.0847 C   0  0  0  0  0  0  0  0  0  0  0  0
   -1.1519    5.3396    0.5472 C   0  0  0  0  0  0  0  0  0  0  0  0
   -1.0502    5.5675    1.9216 C   0  0  0  0  0  0  0  0  0  0  0  0
   -0.5955    4.5565    2.7882 C   0  0  0  0  0  0  0  0  0  0  0  0
   -0.2375    3.2981    2.2958 C   0  0  0  0  0  0  0  0  0  0  0  0
   -0.3492    3.0721    0.9330 C   0  0  0  0  0  0  0  0  0  0  0  0
   -0.0597    1.8498    0.1136 C   0  0  0  0  0  0  0  0  0  0  0  0
    1.3205    1.2977    0.2658 N   0  0  0  0  0  0  0  0  0  0  0  0
    1.2411   -0.2028    0.3937 C   0  0  2  0  0  0  0  0  0  0  0  0
    1.6611   -0.9608   -0.8830 C   0  0  0  0  0  0  0  0  0  0  0  0
    3.0889   -0.7320   -1.2782 C   0  0  0  0  0  0  0  0  0  0  0  0
    3.5236    0.0376   -2.3404 C   0  0  0  0  0  0  0  0  0  0  0  0
    4.8903   -0.0053   -2.3725 N   0  0  0  0  0  0  0  0  0  0  0  0
    5.3656   -0.7948   -1.3520 C   0  0  0  0  0  0  0  0  0  0  0  0
    6.6819   -1.1226   -1.0051 C   0  0  0  0  0  0  0  0  0  0  0  0
    6.8722   -1.9633    0.0951 C   0  0  0  0  0  0  0  0  0  0  0  0
    5.7879   -2.4559    0.8165 C   0  0  0  0  0  0  0  0  0  0  0  0
    4.4781   -2.1183    0.4557 C   0  0  0  0  0  0  0  0  0  0  0  0
    4.2577   -1.2696   -0.6489 C   0  0  0  0  0  0  0  0  0  0  0  0
   -0.1877   -0.4203    0.7206 C   0  0  0  0  0  0  0  0  0  0  0  0
   -0.9343    0.7525    0.5564 C   0  0  0  0  0  0  0  0  0  0  0  0
   -2.2398    0.4857    0.8811 C   0  0  0  0  0  0  0  0  0  0  0  0
   -3.3222    1.2528    0.9291 O   0  0  0  0  0  0  0  0  0  0  0  0
   -2.2938   -0.8618    1.2050 N   0  0  0  0  0  0  0  0  0  0  0  0
   -3.4971   -1.5733    1.6163 C   0  0  0  0  0  0  0  0  0  0  0  0
   -4.2020   -2.2079    0.4423 C   0  0  0  0  0  0  0  0  0  0  0  0
   -3.9006   -3.5215    0.0541 C   0  0  0  0  0  0  0  0  0  0  0  0
   -4.5475   -4.1051   -1.0363 C   0  0  0  0  0  0  0  0  0  0  0  0
   -5.4983   -3.3811   -1.7531 C   0  0  0  0  0  0  0  0  0  0  0  0
   -5.8000   -2.0718   -1.3834 C   0  0  0  0  0  0  0  0  0  0  0  0
   -5.1540   -1.4869   -0.2931 C   0  0  0  0  0  0  0  0  0  0  0  0
   -1.0245   -1.4173    1.1461 C   0  0  0  0  0  0  0  0  0  0  0  0
   -0.8082   -2.6875    1.4626 O   0  0  0  0  0  0  0  0  0  0  0  0
   -1.0440    4.2121   -2.0399 H   0  0  0  0  0  0  0  0  0  0  0  0
   -1.4937    6.1218   -0.1208 H   0  0  0  0  0  0  0  0  0  0  0  0
   -1.3189    6.5396    2.3297 H   0  0  0  0  0  0  0  0  0  0  0  0
   -0.5178    4.7575    3.8548 H   0  0  0  0  0  0  0  0  0  0  0  0
    0.1178    2.5169    2.9618 H   0  0  0  0  0  0  0  0  0  0  0  0
    1.8554    1.5223   -0.5724 H   0  0  0  0  0  0  0  0  0  0  0  0
    1.8721   -0.4978    1.2396 H   0  0  0  0  0  0  0  0  0  0  0  0
    1.0047   -0.6884   -1.7203 H   0  0  0  0  0  0  0  0  0  0  0  0
    1.5103   -2.0383   -0.7319 H   0  0  0  0  0  0  0  0  0  0  0  0
    2.9710    0.6077   -3.0769 H   0  0  0  0  0  0  0  0  0  0  0  0
    5.4725    0.4670   -3.0499 H   0  0  0  0  0  0  0  0  0  0  0  0
    7.5286   -0.7417   -1.5664 H   0  0  0  0  0  0  0  0  0  0  0  0
    7.8826   -2.2366    0.3903 H   0  0  0  0  0  0  0  0  0  0  0  0
    5.9585   -3.1092    1.6686 H   0  0  0  0  0  0  0  0  0  0  0  0
    3.6432   -2.5109    1.0269 H   0  0  0  0  0  0  0  0  0  0  0  0
   -3.0409    2.1676    0.7479 H   0  0  0  0  0  0  0  0  0  0  0  0
   -3.2137   -2.3280    2.3593 H   0  0  0  0  0  0  0  0  0  0  0  0
   -4.1573   -0.8673    2.1336 H   0  0  0  0  0  0  0  0  0  0  0  0
   -3.1506   -4.0930    0.5974 H   0  0  0  0  0  0  0  0  0  0  0  0
   -4.3041   -5.1227   -1.3296 H   0  0  0  0  0  0  0  0  0  0  0  0
   -5.9984   -3.8344   -2.6046 H   0  0  0  0  0  0  0  0  0  0  0  0
   -6.5337   -1.5024   -1.9475 H   0  0  0  0  0  0  0  0  0  0  0  0
   -5.3887   -0.4592   -0.0225 H   0  0  0  0  0  0  0  0  0  0  0  0
    0.1415   -2.8599    1.3418 H   0  0  0  0  0  0  0  0  0  0  0  0
  1  2  2  0
  2  3  1  0
  3  4  1  0
  4  5  2  0
  5  6  1  0
  6  7  2  0
  7  8  1  0
  8  9  2  0
  9 10  1  0
 10 11  1  0
 11 12  1  0
 12 13  1  0
 13 14  1  0
 14 15  2  0
 15 16  1  0
 16 17  1  0
 17 18  2  0
 18 19  1  0
 19 20  2  0
 20 21  1  0
 21 22  2  0
 12 23  1  0
 23 24  1  0
 24 25  2  0
 25 26  1  0
 25 27  1  0
 27 28  1  0
 28 29  1  0
 29 30  2  0
 30 31  1  0
 31 32  2  0
 32 33  1  0
 33 34  2  0
 27 35  1  0
 35 36  1  0
 10  2  1  0
 22 14  1  0
 35 23  2  0
  9  4  1  0
 24 10  1  0
 34 29  1  0
 22 17  1  0
  3 37  1  0
  5 38  1  0
  6 39  1  0
  7 40  1  0
  8 41  1  0
 11 42  1  0
 12 43  1  1
 13 44  1  0
 13 45  1  0
 15 46  1  0
 16 47  1  0
 18 48  1  0
 19 49  1  0
 20 50  1  0
 21 51  1  0
 26 52  1  0
 28 53  1  0
 28 54  1  0
 30 55  1  0
 31 56  1  0
 32 57  1  0
 33 58  1  0
 34 59  1  0
 36 60  1  0
M  END
$$$$
