
     RDKit          3D

 57 59  0  0  0  0  0  0  0  0999 V2000
   -1.7170    0.1322   -4.1195 C   0  0  0  0  0  0  0  0  0  0  0  0
   -1.6241   -0.0517   -2.6820 N   0  0  0  0  0  0  0  0  0  0  0  0
   -1.1148   -1.1700   -2.0461 C   0  0  0  0  0  0  0  0  0  0  0  0
   -0.5187   -2.4977   -2.8887 S   0  0  0  0  0  0  0  0  0  0  0  0
   -1.1379   -1.0663   -0.6463 N   0  0  0  0  0  0  0  0  0  0  0  0
   -1.0420   -2.2565    0.2296 C   0  0  0  0  0  0  0  0  0  0  0  0
   -2.3421   -3.0757    0.2820 C   0  0  0  0  0  0  0  0  0  0  0  0
   -3.5287   -2.2911    0.7924 C   0  0  0  0  0  0  0  0  0  0  0  0
   -3.6339   -1.9563    2.1478 C   0  0  0  0  0  0  0  0  0  0  0  0
   -4.7221   -1.2156    2.6081 C   0  0  0  0  0  0  0  0  0  0  0  0
   -5.7144   -0.8010    1.7199 C   0  0  0  0  0  0  0  0  0  0  0  0
   -5.6209   -1.1131    0.3593 C   0  0  0  0  0  0  0  0  0  0  0  0
   -6.7034   -0.6996   -0.5932 C   0  0  0  0  0  0  0  0  0  0  0  0
   -4.5308   -1.8681   -0.0938 C   0  0  0  0  0  0  0  0  0  0  0  0
   -1.1153    0.2284    0.0678 C   0  0  0  0  0  0  0  0  0  0  0  0
    0.2951    0.5696    0.4686 C   0  0  0  0  0  0  0  0  0  0  0  0
    1.2780    0.8127   -0.4189 C   0  0  0  0  0  0  0  0  0  0  0  0
    2.6314    1.1473    0.0219 C   0  0  0  0  0  0  0  0  0  0  0  0
    3.6606    1.3805   -0.8944 C   0  0  0  0  0  0  0  0  0  0  0  0
    4.9472    1.7011   -0.4424 C   0  0  0  0  0  0  0  0  0  0  0  0
    6.0180    1.9478   -1.2666 O   0  0  0  0  0  0  0  0  0  0  0  0
    5.8239    1.8007   -2.6660 C   0  0  0  0  0  0  0  0  0  0  0  0
    5.2021    1.7918    0.9441 C   0  0  0  0  0  0  0  0  0  0  0  0
    6.4897    2.1146    1.2975 O   0  0  0  0  0  0  0  0  0  0  0  0
    6.7922    2.2156    2.6818 C   0  0  0  0  0  0  0  0  0  0  0  0
    4.1688    1.5551    1.8573 C   0  0  0  0  0  0  0  0  0  0  0  0
    2.8941    1.2340    1.3909 C   0  0  0  0  0  0  0  0  0  0  0  0
    1.8576    0.9932    2.3002 N   0  0  0  0  0  0  0  0  0  0  0  0
    0.5797    0.6651    1.9318 C   0  0  0  0  0  0  0  0  0  0  0  0
   -0.2845    0.4610    2.7788 O   0  0  0  0  0  0  0  0  0  0  0  0
   -2.0496    1.1556   -4.3100 H   0  0  0  0  0  0  0  0  0  0  0  0
   -2.4473   -0.5719   -4.5272 H   0  0  0  0  0  0  0  0  0  0  0  0
   -0.7402   -0.0252   -4.5841 H   0  0  0  0  0  0  0  0  0  0  0  0
   -2.3782    0.3838   -2.1682 H   0  0  0  0  0  0  0  0  0  0  0  0
   -0.2206   -2.8945   -0.1130 H   0  0  0  0  0  0  0  0  0  0  0  0
   -0.7701   -1.9370    1.2425 H   0  0  0  0  0  0  0  0  0  0  0  0
   -2.1926   -3.9450    0.9348 H   0  0  0  0  0  0  0  0  0  0  0  0
   -2.5754   -3.4857   -0.7071 H   0  0  0  0  0  0  0  0  0  0  0  0
   -2.8655   -2.2639    2.8540 H   0  0  0  0  0  0  0  0  0  0  0  0
   -4.7953   -0.9610    3.6622 H   0  0  0  0  0  0  0  0  0  0  0  0
   -6.5609   -0.2318    2.0972 H   0  0  0  0  0  0  0  0  0  0  0  0
   -7.1959    0.2177   -0.2529 H   0  0  0  0  0  0  0  0  0  0  0  0
   -6.2904   -0.4965   -1.5871 H   0  0  0  0  0  0  0  0  0  0  0  0
   -7.4525   -1.4933   -0.6752 H   0  0  0  0  0  0  0  0  0  0  0  0
   -4.4585   -2.1274   -1.1486 H   0  0  0  0  0  0  0  0  0  0  0  0
   -1.8003    0.1621    0.9182 H   0  0  0  0  0  0  0  0  0  0  0  0
   -1.4925    1.0461   -0.5521 H   0  0  0  0  0  0  0  0  0  0  0  0
    1.0884    0.7554   -1.4864 H   0  0  0  0  0  0  0  0  0  0  0  0
    3.4397    1.3069   -1.9537 H   0  0  0  0  0  0  0  0  0  0  0  0
    6.7792    2.0050   -3.1596 H   0  0  0  0  0  0  0  0  0  0  0  0
    5.0951    2.5263   -3.0417 H   0  0  0  0  0  0  0  0  0  0  0  0
    5.5316    0.7764   -2.9195 H   0  0  0  0  0  0  0  0  0  0  0  0
    6.6426    1.2570    3.1894 H   0  0  0  0  0  0  0  0  0  0  0  0
    6.2086    3.0115    3.1560 H   0  0  0  0  0  0  0  0  0  0  0  0
    7.8500    2.4794    2.7747 H   0  0  0  0  0  0  0  0  0  0  0  0
    4.3363    1.6152    2.9259 H   0  0  0  0  0  0  0  0  0  0  0  0
    2.0263    1.0470    3.2956 H   0  0  0  0  0  0  0  0  0  0  0  0
  1  2  1  0
  2  3  1  0
  3  4  2  0
  3  5  1  0
  5  6  1  0
  6  7  1  0
  7  8  1  0
  8  9  2  0
  9 10  1  0
 10 11  2  0
 11 12  1  0
 12 13  1  0
 12 14  2  0
  5 15  1  0
 15 16  1  0
 16 17  2  0
 17 18  1  0
 18 19  2  0
 19 20  1  0
 20 21  1  0
 21 22  1  0
 20 23  2  0
 23 24  1  0
 24 25  1  0
 23 26  1  0
 26 27  2  0
 27 28  1  0
 28 29  1  0
 29 30  2  0
 14  8  1  0
 29 16  1  0
 27 18  1  0
  1 31  1  0
  1 32  1  0
  1 33  1  0
  2 34  1  0
  6 35  1  0
  6 36  1  0
  7 37  1  0
  7 38  1  0
  9 39  1  0
 10 40  1  0
 11 41  1  0
 13 42  1  0
 13 43  1  0
 13 44  1  0
 14 45  1  0
 15 46  1  0
 15 47  1  0
 17 48  1  0
 19 49  1  0
 22 50  1  0
 22 51  1  0
 22 52  1  0
 25 53  1  0
 25 54  1  0
 25 55  1  0
 26 56  1  0
 28 57  1  0
M  END
$$$$
