
     RDKit          3D

 46 48  0  0  0  0  0  0  0  0999 V2000
   -2.4053    2.5462    0.9929 C   0  0  0  0  0  0  0  0  0  0  0  0
   -2.3070    1.1536    1.5901 C   0  0  0  0  0  0  0  0  0  0  0  0
   -2.7370    0.1334    0.5833 N   0  0  0  0  0  4  0  0  0  0  0  0
   -1.7890   -0.4921   -0.1804 C   0  0  0  0  0  0  0  0  0  0  0  0
   -0.3739   -0.1055   -0.0960 C   0  0  0  0  0  0  0  0  0  0  0  0
    0.5862   -0.9591    0.2957 C   0  0  0  0  0  0  0  0  0  0  0  0
    2.0028   -0.5851    0.4355 C   0  0  0  0  0  0  0  0  0  0  0  0
    2.7798   -1.2327    1.4057 C   0  0  0  0  0  0  0  0  0  0  0  0
    4.1312   -0.9044    1.5881 C   0  0  0  0  0  0  0  0  0  0  0  0
    4.7329    0.0779    0.7998 C   0  0  0  0  0  0  0  0  0  0  0  0
    6.0247    0.5096    0.9310 O   0  0  0  0  0  0  0  0  0  0  0  0
    6.8118   -0.0678    1.9657 C   0  0  0  0  0  0  0  0  0  0  0  0
    3.9677    0.6873   -0.2045 C   0  0  0  0  0  0  0  0  0  0  0  0
    4.4765    1.6777   -1.0090 O   0  0  0  0  0  0  0  0  0  0  0  0
    5.3183    1.1260   -2.0216 C   0  0  0  0  0  0  0  0  0  0  0  0
    2.6168    0.3693   -0.3815 C   0  0  0  0  0  0  0  0  0  0  0  0
   -2.1486   -1.4891   -1.0898 C   0  0  0  0  0  0  0  0  0  0  0  0
   -3.4720   -1.8617   -1.2255 C   0  0  0  0  0  0  0  0  0  0  0  0
   -4.4407   -1.2255   -0.4598 C   0  0  0  0  0  0  0  0  0  0  0  0
   -5.7860   -1.5964   -0.6026 C   0  0  0  0  0  0  0  0  0  0  0  0
   -6.7790   -0.9715    0.1462 C   0  0  0  0  0  0  0  0  0  0  0  0
   -6.4376    0.0323    1.0433 C   0  0  0  0  0  0  0  0  0  0  0  0
   -5.0995    0.4127    1.1970 C   0  0  0  0  0  0  0  0  0  0  0  0
   -4.0673   -0.2044    0.4597 C   0  0  0  0  0  0  0  0  0  0  0  0
   -2.0512    3.2910    1.7117 H   0  0  0  0  0  0  0  0  0  0  0  0
   -3.4343    2.7982    0.7255 H   0  0  0  0  0  0  0  0  0  0  0  0
   -1.8007    2.6363    0.0854 H   0  0  0  0  0  0  0  0  0  0  0  0
   -1.2868    0.9389    1.9192 H   0  0  0  0  0  0  0  0  0  0  0  0
   -2.9178    1.0450    2.4906 H   0  0  0  0  0  0  0  0  0  0  0  0
   -0.1450    0.9269   -0.3462 H   0  0  0  0  0  0  0  0  0  0  0  0
    0.3484   -1.9866    0.5746 H   0  0  0  0  0  0  0  0  0  0  0  0
    2.3423   -1.9915    2.0533 H   0  0  0  0  0  0  0  0  0  0  0  0
    4.6818   -1.4322    2.3595 H   0  0  0  0  0  0  0  0  0  0  0  0
    7.7785    0.4426    1.9764 H   0  0  0  0  0  0  0  0  0  0  0  0
    6.9942   -1.1282    1.7683 H   0  0  0  0  0  0  0  0  0  0  0  0
    6.3533    0.0777    2.9487 H   0  0  0  0  0  0  0  0  0  0  0  0
    5.7863    1.9559   -2.5621 H   0  0  0  0  0  0  0  0  0  0  0  0
    4.7205    0.5509   -2.7348 H   0  0  0  0  0  0  0  0  0  0  0  0
    6.1180    0.5001   -1.6139 H   0  0  0  0  0  0  0  0  0  0  0  0
    2.0713    0.8760   -1.1743 H   0  0  0  0  0  0  0  0  0  0  0  0
   -1.3945   -1.9779   -1.7066 H   0  0  0  0  0  0  0  0  0  0  0  0
   -3.7366   -2.6430   -1.9380 H   0  0  0  0  0  0  0  0  0  0  0  0
   -6.0806   -2.3783   -1.3034 H   0  0  0  0  0  0  0  0  0  0  0  0
   -7.8204   -1.2676    0.0279 H   0  0  0  0  0  0  0  0  0  0  0  0
   -7.2174    0.5226    1.6269 H   0  0  0  0  0  0  0  0  0  0  0  0
   -4.9153    1.2125    1.9088 H   0  0  0  0  0  0  0  0  0  0  0  0
  1  2  1  0
  2  3  1  0
  3  4  2  0
  4  5  1  0
  5  6  2  3
  6  7  1  0
  7  8  2  0
  8  9  1  0
  9 10  2  0
 10 11  1  0
 11 12  1  0
 10 13  1  0
 13 14  1  0
 14 15  1  0
 13 16  2  0
  4 17  1  0
 17 18  2  0
 18 19  1  0
 19 20  2  0
 20 21  1  0
 21 22  2  0
 22 23  1  0
 23 24  2  0
 24  3  1  0
 16  7  1  0
 24 19  1  0
  1 25  1  0
  1 26  1  0
  1 27  1  0
  2 28  1  0
  2 29  1  0
  5 30  1  0
  6 31  1  0
  8 32  1  0
  9 33  1  0
 12 34  1  0
 12 35  1  0
 12 36  1  0
 15 37  1  0
 15 38  1  0
 15 39  1  0
 16 40  1  0
 17 41  1  0
 18 42  1  0
 20 43  1  0
 21 44  1  0
 22 45  1  0
 23 46  1  0
M  CHG  1   3   1
M  END
$$$$
