
     RDKit          3D

 56 58  0  0  0  0  0  0  0  0999 V2000
    8.3159   -2.9864    0.8874 C   0  0  0  0  0  0  0  0  0  0  0  0
    7.9852   -2.3611   -0.3461 O   0  0  0  0  0  0  0  0  0  0  0  0
    6.6567   -2.1594   -0.5995 C   0  0  0  0  0  0  0  0  0  0  0  0
    5.5998   -2.4823    0.2510 C   0  0  0  0  0  0  0  0  0  0  0  0
    4.2807   -2.2216   -0.1364 C   0  0  0  0  0  0  0  0  0  0  0  0
    3.9998   -1.6411   -1.3807 C   0  0  0  0  0  0  0  0  0  0  0  0
    2.5779   -1.3472   -1.7798 C   0  0  0  0  0  0  0  0  0  0  0  0
    2.1516   -0.0765   -1.2599 N   0  0  0  0  0  0  0  0  0  0  0  0
    1.3774    0.0462   -0.1329 C   0  0  0  0  0  0  0  0  0  0  0  0
    0.9093   -0.8675    0.5344 O   0  0  0  0  0  0  0  0  0  0  0  0
    1.1176    1.5163    0.2772 C   0  0  0  0  0  0  0  0  0  0  0  0
    1.6238    2.4402   -0.3443 O   0  0  0  0  0  0  0  0  0  0  0  0
    0.2714    1.6439    1.3556 N   0  0  0  0  0  0  0  0  0  0  0  0
   -0.3033    2.9240    1.7098 C   0  0  0  0  0  0  0  0  0  0  0  0
   -1.4323    3.4027    0.7725 C   0  0  0  0  0  0  0  0  0  0  0  0
   -1.9805    4.6178    1.3232 O   0  0  0  0  0  0  0  0  0  0  0  0
   -3.3821    4.5724    1.0568 C   0  0  0  0  0  0  0  0  0  0  0  0
   -3.7296    3.1180    1.2662 C   0  0  0  0  0  0  0  0  0  0  0  0
   -2.5432    2.4055    0.7433 N   0  0  0  0  0  0  0  0  0  0  0  0
   -2.7337    1.6520   -0.7653 S   0  0  0  0  0  6  0  0  0  0  0  0
   -3.4191    2.5869   -1.6325 O   0  0  0  0  0  0  0  0  0  0  0  0
   -1.4719    1.0598   -1.1498 O   0  0  0  0  0  0  0  0  0  0  0  0
   -3.8416    0.3204   -0.3786 C   0  0  0  0  0  0  0  0  0  0  0  0
   -5.1574    0.3409   -0.8455 C   0  0  0  0  0  0  0  0  0  0  0  0
   -6.0118   -0.7182   -0.5339 C   0  0  0  0  0  0  0  0  0  0  0  0
   -5.5576   -1.7936    0.2423 C   0  0  0  0  0  0  0  0  0  0  0  0
   -6.4661   -2.9493    0.5461 C   0  0  0  0  0  0  0  0  0  0  0  0
   -4.2252   -1.8133    0.6780 C   0  0  0  0  0  0  0  0  0  0  0  0
   -3.3653   -0.7585    0.3706 C   0  0  0  0  0  0  0  0  0  0  0  0
    5.0655   -1.3071   -2.2243 C   0  0  0  0  0  0  0  0  0  0  0  0
    6.3813   -1.5687   -1.8346 C   0  0  0  0  0  0  0  0  0  0  0  0
    7.8870   -3.9920    0.9487 H   0  0  0  0  0  0  0  0  0  0  0  0
    9.4049   -3.0862    0.9301 H   0  0  0  0  0  0  0  0  0  0  0  0
    8.0053   -2.3703    1.7379 H   0  0  0  0  0  0  0  0  0  0  0  0
    5.7637   -2.9333    1.2234 H   0  0  0  0  0  0  0  0  0  0  0  0
    3.4666   -2.4707    0.5428 H   0  0  0  0  0  0  0  0  0  0  0  0
    1.9138   -2.1465   -1.4319 H   0  0  0  0  0  0  0  0  0  0  0  0
    2.4878   -1.3039   -2.8706 H   0  0  0  0  0  0  0  0  0  0  0  0
    2.5148    0.7840   -1.6583 H   0  0  0  0  0  0  0  0  0  0  0  0
   -0.1958    0.7890    1.6438 H   0  0  0  0  0  0  0  0  0  0  0  0
    0.4931    3.6774    1.7312 H   0  0  0  0  0  0  0  0  0  0  0  0
   -0.6783    2.8320    2.7359 H   0  0  0  0  0  0  0  0  0  0  0  0
   -1.0480    3.6285   -0.2284 H   0  0  0  0  0  0  0  0  0  0  0  0
   -3.5554    4.8962    0.0249 H   0  0  0  0  0  0  0  0  0  0  0  0
   -3.9176    5.2394    1.7375 H   0  0  0  0  0  0  0  0  0  0  0  0
   -4.6748    2.8453    0.7925 H   0  0  0  0  0  0  0  0  0  0  0  0
   -3.8076    2.8847    2.3343 H   0  0  0  0  0  0  0  0  0  0  0  0
   -5.5229    1.1648   -1.4536 H   0  0  0  0  0  0  0  0  0  0  0  0
   -7.0350   -0.7033   -0.9045 H   0  0  0  0  0  0  0  0  0  0  0  0
   -6.3276   -3.7399   -0.1994 H   0  0  0  0  0  0  0  0  0  0  0  0
   -7.5165   -2.6359    0.5383 H   0  0  0  0  0  0  0  0  0  0  0  0
   -6.2558   -3.3576    1.5424 H   0  0  0  0  0  0  0  0  0  0  0  0
   -3.8483   -2.6568    1.2536 H   0  0  0  0  0  0  0  0  0  0  0  0
   -2.3298   -0.7904    0.7035 H   0  0  0  0  0  0  0  0  0  0  0  0
    4.8822   -0.8415   -3.1895 H   0  0  0  0  0  0  0  0  0  0  0  0
    7.2012   -1.3081   -2.4995 H   0  0  0  0  0  0  0  0  0  0  0  0
  1  2  1  0
  2  3  1  0
  3  4  2  0
  4  5  1  0
  5  6  2  0
  6  7  1  0
  7  8  1  0
  8  9  1  0
  9 10  2  0
  9 11  1  0
 11 12  2  0
 11 13  1  0
 13 14  1  0
 14 15  1  0
 15 16  1  0
 16 17  1  0
 17 18  1  0
 18 19  1  0
 19 20  1  0
 20 21  2  0
 20 22  2  0
 20 23  1  0
 23 24  2  0
 24 25  1  0
 25 26  2  0
 26 27  1  0
 26 28  1  0
 28 29  2  0
  6 30  1  0
 30 31  2  0
 31  3  1  0
 19 15  1  0
 29 23  1  0
  1 32  1  0
  1 33  1  0
  1 34  1  0
  4 35  1  0
  5 36  1  0
  7 37  1  0
  7 38  1  0
  8 39  1  0
 13 40  1  0
 14 41  1  0
 14 42  1  0
 15 43  1  0
 17 44  1  0
 17 45  1  0
 18 46  1  0
 18 47  1  0
 24 48  1  0
 25 49  1  0
 27 50  1  0
 27 51  1  0
 27 52  1  0
 28 53  1  0
 29 54  1  0
 30 55  1  0
 31 56  1  0
M  END
$$$$
