
     RDKit          3D

 25 26  0  0  0  0  0  0  0  0999 V2000
   -4.7907   -0.2412   -0.3651 O   0  0  0  0  0  0  0  0  0  0  0  0
   -3.5882   -0.0423   -0.3464 C   0  0  0  0  0  0  0  0  0  0  0  0
   -2.8850    1.2229   -0.7364 C   0  0  0  0  0  0  0  0  0  0  0  0
   -1.4667    0.9736   -0.2346 C   0  0  0  0  0  0  0  0  0  0  0  0
   -1.3244   -0.4928   -0.2594 N   0  0  0  0  0  0  0  0  0  0  0  0
   -0.3539   -0.9745    0.7377 C   0  0  0  0  0  0  0  0  0  0  0  0
    1.0686   -0.5586    0.4242 C   0  0  0  0  0  0  0  0  0  0  0  0
    1.6911   -0.9914   -0.7577 C   0  0  0  0  0  0  0  0  0  0  0  0
    3.0026   -0.6109   -1.0499 C   0  0  0  0  0  0  0  0  0  0  0  0
    3.7002    0.2031   -0.1609 C   0  0  0  0  0  0  0  0  0  0  0  0
    5.3159    0.6734   -0.5195 Cl  0  0  0  0  0  0  0  0  0  0  0  0
    3.0979    0.6398    1.0172 C   0  0  0  0  0  0  0  0  0  0  0  0
    1.7856    0.2599    1.3098 C   0  0  0  0  0  0  0  0  0  0  0  0
   -2.6172   -0.9620   -0.0068 N   0  0  0  0  0  0  0  0  0  0  0  0
   -3.3424    2.0885   -0.2514 H   0  0  0  0  0  0  0  0  0  0  0  0
   -2.9183    1.3246   -1.8254 H   0  0  0  0  0  0  0  0  0  0  0  0
   -1.3770    1.3735    0.7844 H   0  0  0  0  0  0  0  0  0  0  0  0
   -0.7249    1.4698   -0.8684 H   0  0  0  0  0  0  0  0  0  0  0  0
   -0.6360   -0.6483    1.7479 H   0  0  0  0  0  0  0  0  0  0  0  0
   -0.3708   -2.0727    0.7593 H   0  0  0  0  0  0  0  0  0  0  0  0
    1.1491   -1.6231   -1.4594 H   0  0  0  0  0  0  0  0  0  0  0  0
    3.4703   -0.9510   -1.9698 H   0  0  0  0  0  0  0  0  0  0  0  0
    3.6433    1.2745    1.7106 H   0  0  0  0  0  0  0  0  0  0  0  0
    1.3281    0.6086    2.2332 H   0  0  0  0  0  0  0  0  0  0  0  0
   -2.8573   -1.9436    0.0868 H   0  0  0  0  0  0  0  0  0  0  0  0
  1  2  2  0
  2  3  1  0
  3  4  1  0
  4  5  1  0
  5  6  1  0
  6  7  1  0
  7  8  2  0
  8  9  1  0
  9 10  2  0
 10 11  1  0
 10 12  1  0
 12 13  2  0
  5 14  1  0
 14  2  1  0
 13  7  1  0
  3 15  1  0
  3 16  1  0
  4 17  1  0
  4 18  1  0
  6 19  1  0
  6 20  1  0
  8 21  1  0
  9 22  1  0
 12 23  1  0
 13 24  1  0
 14 25  1  0
M  END
$$$$
