
     RDKit          3D

 51 55  0  0  0  0  0  0  0  0999 V2000
    9.0046    0.6685   -1.8474 Cl  0  0  0  0  0  0  0  0  0  0  0  0
    7.5602    0.2472   -0.9981 C   0  0  0  0  0  0  0  0  0  0  0  0
    6.4920   -0.2600   -1.7433 C   0  0  0  0  0  0  0  0  0  0  0  0
    5.2986   -0.6171   -1.1110 C   0  0  0  0  0  0  0  0  0  0  0  0
    5.1613   -0.4748    0.2754 C   0  0  0  0  0  0  0  0  0  0  0  0
    3.8648   -0.8432    0.9596 C   0  0  0  0  0  0  0  0  0  0  0  0
    2.8726    0.3332    0.9680 C   0  0  0  0  0  0  0  0  0  0  0  0
    1.6358    0.0489    1.7176 N   0  0  0  0  0  0  0  0  0  0  0  0
    0.8652   -1.0633    1.1151 C   0  0  0  0  0  0  0  0  0  0  0  0
   -0.6400   -1.0528    1.4658 C   0  0  0  0  0  0  0  0  0  0  0  0
   -1.2895    0.1858    1.0136 N   0  0  0  0  0  0  0  0  0  0  0  0
   -2.5014    0.1712    0.3305 C   0  0  0  0  0  0  0  0  0  0  0  0
   -2.6544    1.0101   -0.6657 N   0  0  0  0  0  0  0  0  0  0  0  0
   -3.8389    1.0218   -1.4260 C   0  0  0  0  0  0  0  0  0  0  0  0
   -3.9379    1.9264   -2.4851 C   0  0  0  0  0  0  0  0  0  0  0  0
   -5.0862    1.9719   -3.2803 C   0  0  0  0  0  0  0  0  0  0  0  0
   -6.1509    1.1080   -3.0218 C   0  0  0  0  0  0  0  0  0  0  0  0
   -6.0738    0.1964   -1.9682 C   0  0  0  0  0  0  0  0  0  0  0  0
   -4.9180    0.1626   -1.1819 C   0  0  0  0  0  0  0  0  0  0  0  0
   -4.7623   -0.7110   -0.0938 N   0  0  0  0  0  0  0  0  0  0  0  0
   -5.6412   -1.6408    0.4097 C   0  0  0  0  0  0  0  0  0  0  0  0
   -5.0776   -2.2009    1.5345 C   0  0  0  0  0  0  0  0  0  0  0  0
   -3.8083   -1.6020    1.7080 C   0  0  0  0  0  0  0  0  0  0  0  0
   -3.6112   -0.7119    0.6657 C   0  0  0  0  0  0  0  0  0  0  0  0
   -0.3876    1.3395    0.8533 C   0  0  0  0  0  0  0  0  0  0  0  0
    0.7924    1.2623    1.8432 C   0  0  0  0  0  0  0  0  0  0  0  0
    6.2345    0.0399    1.0175 C   0  0  0  0  0  0  0  0  0  0  0  0
    7.4311    0.3984    0.3860 C   0  0  0  0  0  0  0  0  0  0  0  0
    8.7046    1.0231    1.3730 Cl  0  0  0  0  0  0  0  0  0  0  0  0
    6.5824   -0.3796   -2.8205 H   0  0  0  0  0  0  0  0  0  0  0  0
    4.4774   -1.0084   -1.7092 H   0  0  0  0  0  0  0  0  0  0  0  0
    3.4367   -1.7149    0.4498 H   0  0  0  0  0  0  0  0  0  0  0  0
    4.0756   -1.1657    1.9875 H   0  0  0  0  0  0  0  0  0  0  0  0
    2.6383    0.6368   -0.0612 H   0  0  0  0  0  0  0  0  0  0  0  0
    3.3772    1.1881    1.4379 H   0  0  0  0  0  0  0  0  0  0  0  0
    1.2927   -2.0137    1.4545 H   0  0  0  0  0  0  0  0  0  0  0  0
    0.9519   -1.0377    0.0200 H   0  0  0  0  0  0  0  0  0  0  0  0
   -0.7695   -1.1516    2.5498 H   0  0  0  0  0  0  0  0  0  0  0  0
   -1.0942   -1.9295    0.9906 H   0  0  0  0  0  0  0  0  0  0  0  0
   -3.1095    2.5993   -2.6897 H   0  0  0  0  0  0  0  0  0  0  0  0
   -5.1474    2.6823   -4.1007 H   0  0  0  0  0  0  0  0  0  0  0  0
   -7.0429    1.1473   -3.6424 H   0  0  0  0  0  0  0  0  0  0  0  0
   -6.9157   -0.4624   -1.7846 H   0  0  0  0  0  0  0  0  0  0  0  0
   -6.6027   -1.8229   -0.0477 H   0  0  0  0  0  0  0  0  0  0  0  0
   -5.5376   -2.9490    2.1675 H   0  0  0  0  0  0  0  0  0  0  0  0
   -3.1171   -1.8017    2.5148 H   0  0  0  0  0  0  0  0  0  0  0  0
   -0.9418    2.2661    1.0450 H   0  0  0  0  0  0  0  0  0  0  0  0
   -0.0065    1.3800   -0.1747 H   0  0  0  0  0  0  0  0  0  0  0  0
    1.3925    2.1776    1.7703 H   0  0  0  0  0  0  0  0  0  0  0  0
    0.3840    1.2600    2.8626 H   0  0  0  0  0  0  0  0  0  0  0  0
    6.1375    0.1625    2.0948 H   0  0  0  0  0  0  0  0  0  0  0  0
  1  2  1  0
  2  3  2  0
  3  4  1  0
  4  5  2  0
  5  6  1  0
  6  7  1  0
  7  8  1  0
  8  9  1  0
  9 10  1  0
 10 11  1  0
 11 12  1  0
 12 13  2  0
 13 14  1  0
 14 15  2  0
 15 16  1  0
 16 17  2  0
 17 18  1  0
 18 19  2  0
 19 20  1  0
 20 21  1  0
 21 22  2  0
 22 23  1  0
 23 24  2  0
 11 25  1  0
 25 26  1  0
  5 27  1  0
 27 28  2  0
 28 29  1  0
 28  2  1  0
 26  8  1  0
 24 12  1  0
 19 14  1  0
 24 20  1  0
  3 30  1  0
  4 31  1  0
  6 32  1  0
  6 33  1  0
  7 34  1  0
  7 35  1  0
  9 36  1  0
  9 37  1  0
 10 38  1  0
 10 39  1  0
 15 40  1  0
 16 41  1  0
 17 42  1  0
 18 43  1  0
 21 44  1  0
 22 45  1  0
 23 46  1  0
 25 47  1  0
 25 48  1  0
 26 49  1  0
 26 50  1  0
 27 51  1  0
M  END
$$$$
