
     RDKit          3D

 54 57  0  0  0  0  0  0  0  0999 V2000
   -4.9210   -4.2968   -2.5472 C   0  0  0  0  0  0  0  0  0  0  0  0
   -3.8201   -4.1562   -1.6577 O   0  0  0  0  0  0  0  0  0  0  0  0
   -3.3730   -2.8863   -1.4184 C   0  0  0  0  0  0  0  0  0  0  0  0
   -3.8779   -1.7157   -1.9923 C   0  0  0  0  0  0  0  0  0  0  0  0
   -3.3221   -0.4758   -1.6606 C   0  0  0  0  0  0  0  0  0  0  0  0
   -2.2565   -0.4105   -0.7596 C   0  0  0  0  0  0  0  0  0  0  0  0
   -1.6988    0.9159   -0.4150 C   0  0  0  0  0  0  0  0  0  0  0  0
   -2.4235    1.6745    0.3455 N   0  0  0  0  0  0  0  0  0  0  0  0
   -1.9476    2.9448    0.6812 C   0  0  0  0  0  0  0  0  0  0  0  0
   -2.7023    3.7418    1.5449 C   0  0  0  0  0  0  0  0  0  0  0  0
   -2.2680    5.0236    1.8947 C   0  0  0  0  0  0  0  0  0  0  0  0
   -1.0708    5.5203    1.3803 C   0  0  0  0  0  0  0  0  0  0  0  0
   -0.3096    4.7338    0.5170 C   0  0  0  0  0  0  0  0  0  0  0  0
   -0.7554    3.4507    0.1758 C   0  0  0  0  0  0  0  0  0  0  0  0
    0.0182    2.5925   -0.7335 C   0  0  0  0  0  0  0  0  0  0  0  0
    1.0267    3.0423   -1.2746 O   0  0  0  0  0  0  0  0  0  0  0  0
   -0.4687    1.3014   -0.9438 N   0  0  0  0  0  0  0  0  0  0  0  0
    0.3492    0.4471   -1.8197 C   0  0  0  0  0  0  0  0  0  0  0  0
    1.6940    0.0456   -1.1911 C   0  0  0  0  0  0  0  0  0  0  0  0
    1.4609   -0.6891    0.0161 O   0  0  0  0  0  0  0  0  0  0  0  0
    2.5524   -0.8443    0.8347 C   0  0  0  0  0  0  0  0  0  0  0  0
    3.8692   -0.9305    0.3624 C   0  0  0  0  0  0  0  0  0  0  0  0
    4.9408   -1.1121    1.2487 C   0  0  0  0  0  0  0  0  0  0  0  0
    6.3447   -1.2171    0.7287 C   0  0  0  0  0  0  0  0  0  0  0  0
    4.6774   -1.2512    2.6138 C   0  0  0  0  0  0  0  0  0  0  0  0
    3.3672   -1.1794    3.0897 C   0  0  0  0  0  0  0  0  0  0  0  0
    2.2959   -0.9652    2.2107 C   0  0  0  0  0  0  0  0  0  0  0  0
    0.8967   -0.8970    2.7560 C   0  0  0  0  0  0  0  0  0  0  0  0
   -1.7635   -1.5698   -0.1636 C   0  0  0  0  0  0  0  0  0  0  0  0
   -2.3192   -2.8045   -0.5024 C   0  0  0  0  0  0  0  0  0  0  0  0
   -5.1595   -5.3631   -2.6189 H   0  0  0  0  0  0  0  0  0  0  0  0
   -5.8085   -3.7826   -2.1618 H   0  0  0  0  0  0  0  0  0  0  0  0
   -4.6639   -3.9451   -3.5536 H   0  0  0  0  0  0  0  0  0  0  0  0
   -4.7066   -1.7318   -2.6938 H   0  0  0  0  0  0  0  0  0  0  0  0
   -3.7270    0.4356   -2.0955 H   0  0  0  0  0  0  0  0  0  0  0  0
   -3.6367    3.3565    1.9452 H   0  0  0  0  0  0  0  0  0  0  0  0
   -2.8662    5.6325    2.5679 H   0  0  0  0  0  0  0  0  0  0  0  0
   -0.7322    6.5175    1.6506 H   0  0  0  0  0  0  0  0  0  0  0  0
    0.6250    5.1162    0.1131 H   0  0  0  0  0  0  0  0  0  0  0  0
   -0.1940   -0.4551   -2.1083 H   0  0  0  0  0  0  0  0  0  0  0  0
    0.5451    1.0052   -2.7442 H   0  0  0  0  0  0  0  0  0  0  0  0
    2.2220   -0.5943   -1.9080 H   0  0  0  0  0  0  0  0  0  0  0  0
    2.3044    0.9324   -0.9859 H   0  0  0  0  0  0  0  0  0  0  0  0
    4.0855   -0.8692   -0.7008 H   0  0  0  0  0  0  0  0  0  0  0  0
    7.0713   -0.9231    1.4957 H   0  0  0  0  0  0  0  0  0  0  0  0
    6.5579   -2.2459    0.4181 H   0  0  0  0  0  0  0  0  0  0  0  0
    6.4891   -0.5486   -0.1272 H   0  0  0  0  0  0  0  0  0  0  0  0
    5.4898   -1.4171    3.3175 H   0  0  0  0  0  0  0  0  0  0  0  0
    3.1866   -1.2912    4.1561 H   0  0  0  0  0  0  0  0  0  0  0  0
    0.3655   -1.8300    2.5399 H   0  0  0  0  0  0  0  0  0  0  0  0
    0.3505   -0.0540    2.3170 H   0  0  0  0  0  0  0  0  0  0  0  0
    0.8977   -0.7453    3.8420 H   0  0  0  0  0  0  0  0  0  0  0  0
   -0.9580   -1.5206    0.5596 H   0  0  0  0  0  0  0  0  0  0  0  0
   -1.9330   -3.7115   -0.0434 H   0  0  0  0  0  0  0  0  0  0  0  0
  1  2  1  0
  2  3  1  0
  3  4  2  0
  4  5  1  0
  5  6  2  0
  6  7  1  0
  7  8  2  0
  8  9  1  0
  9 10  2  0
 10 11  1  0
 11 12  2  0
 12 13  1  0
 13 14  2  0
 14 15  1  0
 15 16  2  0
 15 17  1  0
 17 18  1  0
 18 19  1  0
 19 20  1  0
 20 21  1  0
 21 22  2  0
 22 23  1  0
 23 24  1  0
 23 25  2  0
 25 26  1  0
 26 27  2  0
 27 28  1  0
  6 29  1  0
 29 30  2  0
 30  3  1  0
 17  7  1  0
 27 21  1  0
 14  9  1  0
  1 31  1  0
  1 32  1  0
  1 33  1  0
  4 34  1  0
  5 35  1  0
 10 36  1  0
 11 37  1  0
 12 38  1  0
 13 39  1  0
 18 40  1  0
 18 41  1  0
 19 42  1  0
 19 43  1  0
 22 44  1  0
 24 45  1  0
 24 46  1  0
 24 47  1  0
 25 48  1  0
 26 49  1  0
 28 50  1  0
 28 51  1  0
 28 52  1  0
 29 53  1  0
 30 54  1  0
M  END
$$$$
