
     RDKit          3D

 48 51  0  0  0  0  0  0  0  0999 V2000
   -1.4164    1.5267    2.4027 C   0  0  0  0  0  0  0  0  0  0  0  0
   -0.9208    0.1179    2.6820 C   0  0  0  0  0  0  0  0  0  0  0  0
   -0.9597   -0.7247    1.5082 N   0  0  0  0  0  0  0  0  0  0  0  0
   -1.9800   -1.5604    1.1334 C   0  0  0  0  0  0  0  0  0  0  0  0
   -3.4619   -1.7474    2.0031 S   0  0  0  0  0  0  0  0  0  0  0  0
   -4.6227   -2.0255    0.6302 C   0  0  0  0  0  0  0  0  0  0  0  0
   -4.9785   -0.7429   -0.0863 C   0  0  0  0  0  0  0  0  0  0  0  0
   -5.9755    0.1057    0.4242 C   0  0  0  0  0  0  0  0  0  0  0  0
   -6.2926    1.2969   -0.2314 C   0  0  0  0  0  0  0  0  0  0  0  0
   -5.6120    1.6437   -1.3923 C   0  0  0  0  0  0  0  0  0  0  0  0
   -5.9172    2.7887   -2.0173 F   0  0  0  0  0  0  0  0  0  0  0  0
   -4.6191    0.8224   -1.9114 C   0  0  0  0  0  0  0  0  0  0  0  0
   -4.3010   -0.3700   -1.2593 C   0  0  0  0  0  0  0  0  0  0  0  0
   -1.6670   -2.1766    0.0203 N   0  0  0  0  0  0  0  0  0  0  0  0
   -0.4358   -1.7229   -0.3682 N   0  0  0  0  0  0  0  0  0  0  0  0
   -0.0148   -0.8325    0.5101 C   0  0  0  0  0  0  0  0  0  0  0  0
    1.3574   -0.1089    0.3453 C   0  0  0  0  0  0  0  0  0  0  0  0
    1.9995    0.8168    1.1730 C   0  0  0  0  0  0  0  0  0  0  0  0
    3.1817    1.1913    0.6907 N   0  0  0  0  0  0  0  0  0  0  0  0
    3.3810    0.3890   -0.3967 N   0  0  0  0  0  0  0  0  0  0  0  0
    4.7013    0.2937   -0.9326 C   0  0  0  0  0  0  0  0  0  0  0  0
    5.6226    1.3176   -0.6521 C   0  0  0  0  0  0  0  0  0  0  0  0
    6.9288    1.2527   -1.1430 C   0  0  0  0  0  0  0  0  0  0  0  0
    7.3337    0.1587   -1.9028 C   0  0  0  0  0  0  0  0  0  0  0  0
    6.4374   -0.8762   -2.1615 C   0  0  0  0  0  0  0  0  0  0  0  0
    5.1274   -0.8162   -1.6735 C   0  0  0  0  0  0  0  0  0  0  0  0
    2.2045   -0.2480   -0.7439 C   0  0  0  0  0  0  0  0  0  0  0  0
    1.9770   -0.8652   -2.0601 C   0  0  0  0  0  0  0  0  0  0  0  0
    2.7645   -0.3314   -3.0302 F   0  0  0  0  0  0  0  0  0  0  0  0
    0.7090   -0.6872   -2.5080 F   0  0  0  0  0  0  0  0  0  0  0  0
    2.2223   -2.1980   -2.0455 F   0  0  0  0  0  0  0  0  0  0  0  0
   -1.3713    2.1341    3.3117 H   0  0  0  0  0  0  0  0  0  0  0  0
   -2.4532    1.5170    2.0503 H   0  0  0  0  0  0  0  0  0  0  0  0
   -0.8122    2.0197    1.6344 H   0  0  0  0  0  0  0  0  0  0  0  0
   -1.5257   -0.3434    3.4691 H   0  0  0  0  0  0  0  0  0  0  0  0
    0.1016    0.1205    3.0675 H   0  0  0  0  0  0  0  0  0  0  0  0
   -5.5369   -2.4640    1.0484 H   0  0  0  0  0  0  0  0  0  0  0  0
   -4.2303   -2.7713   -0.0707 H   0  0  0  0  0  0  0  0  0  0  0  0
   -6.5091   -0.1579    1.3351 H   0  0  0  0  0  0  0  0  0  0  0  0
   -7.0641    1.9555    0.1549 H   0  0  0  0  0  0  0  0  0  0  0  0
   -4.0978    1.1117   -2.8184 H   0  0  0  0  0  0  0  0  0  0  0  0
   -3.5174   -1.0070   -1.6701 H   0  0  0  0  0  0  0  0  0  0  0  0
    1.6810    1.2627    2.1043 H   0  0  0  0  0  0  0  0  0  0  0  0
    5.3323    2.1852   -0.0616 H   0  0  0  0  0  0  0  0  0  0  0  0
    7.6284    2.0567   -0.9299 H   0  0  0  0  0  0  0  0  0  0  0  0
    8.3505    0.1065   -2.2837 H   0  0  0  0  0  0  0  0  0  0  0  0
    6.7610   -1.7406   -2.7378 H   0  0  0  0  0  0  0  0  0  0  0  0
    4.4898   -1.6731   -1.8625 H   0  0  0  0  0  0  0  0  0  0  0  0
  1  2  1  0
  2  3  1  0
  3  4  1  0
  4  5  1  0
  5  6  1  0
  6  7  1  0
  7  8  2  0
  8  9  1  0
  9 10  2  0
 10 11  1  0
 10 12  1  0
 12 13  2  0
  4 14  2  0
 14 15  1  0
 15 16  2  0
 16 17  1  0
 17 18  1  0
 18 19  2  0
 19 20  1  0
 20 21  1  0
 21 22  2  0
 22 23  1  0
 23 24  2  0
 24 25  1  0
 25 26  2  0
 20 27  1  0
 27 28  1  0
 28 29  1  0
 28 30  1  0
 28 31  1  0
 16  3  1  0
 27 17  2  0
 13  7  1  0
 26 21  1  0
  1 32  1  0
  1 33  1  0
  1 34  1  0
  2 35  1  0
  2 36  1  0
  6 37  1  0
  6 38  1  0
  8 39  1  0
  9 40  1  0
 12 41  1  0
 13 42  1  0
 18 43  1  0
 22 44  1  0
 23 45  1  0
 24 46  1  0
 25 47  1  0
 26 48  1  0
M  END
$$$$
