
     RDKit          3D

 50 52  0  0  0  0  0  0  0  0999 V2000
   -4.2388   -2.7195    2.9757 C   0  0  0  0  0  0  0  0  0  0  0  0
   -4.7954   -2.1813    1.7828 O   0  0  0  0  0  0  0  0  0  0  0  0
   -3.9764   -1.3893    1.0232 C   0  0  0  0  0  0  0  0  0  0  0  0
   -2.5827   -1.3610    1.1046 C   0  0  0  0  0  0  0  0  0  0  0  0
   -1.8512   -0.5327    0.2403 C   0  0  0  0  0  0  0  0  0  0  0  0
   -0.3776   -0.5208    0.3462 C   0  0  0  0  0  0  0  0  0  0  0  0
    0.3532    0.1856   -0.4544 N   0  0  0  0  0  0  0  0  0  0  0  0
    1.6989    0.1163   -0.2546 N   0  0  0  0  0  0  0  0  0  0  0  0
    2.5588    0.8391   -1.0832 C   0  0  0  0  0  0  0  0  0  0  0  0
    2.1982    1.5512   -2.0165 O   0  0  0  0  0  0  0  0  0  0  0  0
    4.0242    0.6369   -0.6873 C   0  0  0  0  0  0  0  0  0  0  0  0
    4.9059    1.3507   -1.5387 O   0  0  0  0  0  0  0  0  0  0  0  0
    6.2441    1.2556   -1.2783 C   0  0  0  0  0  0  0  0  0  0  0  0
    6.8352    0.5103   -0.2584 C   0  0  0  0  0  0  0  0  0  0  0  0
    8.2270    0.5040   -0.1077 C   0  0  0  0  0  0  0  0  0  0  0  0
    9.0424    1.2495   -0.9667 C   0  0  0  0  0  0  0  0  0  0  0  0
   10.5349    1.2139   -0.8234 C   0  0  0  0  0  0  0  0  0  0  0  0
    8.4464    1.9829   -1.9966 C   0  0  0  0  0  0  0  0  0  0  0  0
    7.0575    1.9879   -2.1451 C   0  0  0  0  0  0  0  0  0  0  0  0
   -2.4997    0.2623   -0.7123 C   0  0  0  0  0  0  0  0  0  0  0  0
   -3.8891    0.2380   -0.8017 C   0  0  0  0  0  0  0  0  0  0  0  0
   -4.6105   -0.5735    0.0736 C   0  0  0  0  0  0  0  0  0  0  0  0
   -6.0037   -0.5949   -0.0596 O   0  0  0  0  0  0  0  0  0  0  0  0
   -6.6667    0.0976    0.9537 C   0  0  0  0  0  0  0  0  0  0  0  0
   -6.1205    0.7782    1.8170 O   0  0  0  0  0  0  0  0  0  0  0  0
   -8.0991   -0.1004    0.7999 C   0  0  0  0  0  0  0  0  0  0  0  0
   -8.7934   -0.8532   -0.1325 C   0  0  0  0  0  0  0  0  0  0  0  0
  -10.2057   -0.7901    0.0524 C   0  0  0  0  0  0  0  0  0  0  0  0
  -10.5487    0.0070    1.1202 C   0  0  0  0  0  0  0  0  0  0  0  0
   -9.1759    0.6709    1.8916 S   0  0  0  0  0  0  0  0  0  0  0  0
   -3.5139   -3.5068    2.7456 H   0  0  0  0  0  0  0  0  0  0  0  0
   -5.0528   -3.1736    3.5489 H   0  0  0  0  0  0  0  0  0  0  0  0
   -3.7887   -1.9375    3.5965 H   0  0  0  0  0  0  0  0  0  0  0  0
   -2.0526   -1.9827    1.8171 H   0  0  0  0  0  0  0  0  0  0  0  0
    0.0690   -1.1462    1.1399 H   0  0  0  0  0  0  0  0  0  0  0  0
    2.0603   -0.4530    0.5012 H   0  0  0  0  0  0  0  0  0  0  0  0
    4.2327   -0.4383   -0.7501 H   0  0  0  0  0  0  0  0  0  0  0  0
    4.1323    0.9900    0.3457 H   0  0  0  0  0  0  0  0  0  0  0  0
    6.2489   -0.0799    0.4364 H   0  0  0  0  0  0  0  0  0  0  0  0
    8.6719   -0.0886    0.6888 H   0  0  0  0  0  0  0  0  0  0  0  0
   10.8234    1.0743    0.2237 H   0  0  0  0  0  0  0  0  0  0  0  0
   10.9483    0.3929   -1.4171 H   0  0  0  0  0  0  0  0  0  0  0  0
   10.9823    2.1550   -1.1603 H   0  0  0  0  0  0  0  0  0  0  0  0
    9.0555    2.5571   -2.6908 H   0  0  0  0  0  0  0  0  0  0  0  0
    6.6037    2.5668   -2.9465 H   0  0  0  0  0  0  0  0  0  0  0  0
   -1.9272    0.8991   -1.3849 H   0  0  0  0  0  0  0  0  0  0  0  0
   -4.4000    0.8495   -1.5394 H   0  0  0  0  0  0  0  0  0  0  0  0
   -8.3125   -1.4281   -0.9158 H   0  0  0  0  0  0  0  0  0  0  0  0
  -10.9318   -1.3039   -0.5662 H   0  0  0  0  0  0  0  0  0  0  0  0
  -11.5406    0.2330    1.4878 H   0  0  0  0  0  0  0  0  0  0  0  0
  1  2  1  0
  2  3  1  0
  3  4  2  0
  4  5  1  0
  5  6  1  0
  6  7  2  3
  7  8  1  0
  8  9  1  0
  9 10  2  0
  9 11  1  0
 11 12  1  0
 12 13  1  0
 13 14  2  0
 14 15  1  0
 15 16  2  0
 16 17  1  0
 16 18  1  0
 18 19  2  0
  5 20  2  0
 20 21  1  0
 21 22  2  0
 22 23  1  0
 23 24  1  0
 24 25  2  0
 24 26  1  0
 26 27  2  0
 27 28  1  0
 28 29  2  0
 29 30  1  0
 22  3  1  0
 30 26  1  0
 19 13  1  0
  1 31  1  0
  1 32  1  0
  1 33  1  0
  4 34  1  0
  6 35  1  0
  8 36  1  0
 11 37  1  0
 11 38  1  0
 14 39  1  0
 15 40  1  0
 17 41  1  0
 17 42  1  0
 17 43  1  0
 18 44  1  0
 19 45  1  0
 20 46  1  0
 21 47  1  0
 27 48  1  0
 28 49  1  0
 29 50  1  0
M  END
$$$$
