
     RDKit          3D

 55 58  0  0  0  0  0  0  0  0999 V2000
    8.5663    0.7018   -1.6881 C   0  0  0  0  0  0  0  0  0  0  0  0
    7.7361    0.9406   -0.5587 O   0  0  0  0  0  0  0  0  0  0  0  0
    6.4393    0.5021   -0.6600 C   0  0  0  0  0  0  0  0  0  0  0  0
    6.0567   -0.6048   -1.4302 C   0  0  0  0  0  0  0  0  0  0  0  0
    4.7228   -1.0172   -1.4568 C   0  0  0  0  0  0  0  0  0  0  0  0
    3.7716   -0.3179   -0.7110 C   0  0  0  0  0  0  0  0  0  0  0  0
    2.3488   -0.7321   -0.7099 C   0  0  0  0  0  0  0  0  0  0  0  0
    2.0869   -2.1670   -0.3618 C   0  0  0  0  0  0  0  0  0  0  0  0
    0.7927   -2.5367   -0.3090 C   0  0  0  0  0  0  0  0  0  0  0  0
    0.3410   -3.9046    0.0142 C   0  0  0  0  0  0  0  0  0  0  0  0
   -0.4435   -3.9588    1.1130 F   0  0  0  0  0  0  0  0  0  0  0  0
   -0.3378   -4.4851   -1.0011 F   0  0  0  0  0  0  0  0  0  0  0  0
    1.3993   -4.7211    0.2720 F   0  0  0  0  0  0  0  0  0  0  0  0
   -0.2014   -1.6008   -0.5849 N   0  0  0  0  0  0  0  0  0  0  0  0
   -1.5439   -1.7741   -0.5743 N   0  0  0  0  0  0  0  0  0  0  0  0
   -2.0719   -0.5947   -0.9396 C   0  0  0  0  0  0  0  0  0  0  0  0
   -3.5204   -0.3450   -1.1196 C   0  0  0  0  0  0  0  0  0  0  0  0
   -3.8855    0.4428   -1.9888 O   0  0  0  0  0  0  0  0  0  0  0  0
   -4.4422   -0.9718   -0.2646 N   0  0  0  0  0  0  0  0  0  0  0  0
   -4.0416   -1.6247    0.9738 C   0  0  0  0  0  0  0  0  0  0  0  0
   -5.8413   -0.5689   -0.3733 C   0  0  0  0  0  0  0  0  0  0  0  0
   -6.1850    0.6340    0.4774 C   0  0  0  0  0  0  0  0  0  0  0  0
   -6.6777    0.4822    1.7816 C   0  0  0  0  0  0  0  0  0  0  0  0
   -6.9845    1.6025    2.5565 C   0  0  0  0  0  0  0  0  0  0  0  0
   -6.8001    2.8838    2.0385 C   0  0  0  0  0  0  0  0  0  0  0  0
   -6.3088    3.0482    0.7467 C   0  0  0  0  0  0  0  0  0  0  0  0
   -6.0021    1.9303   -0.0286 C   0  0  0  0  0  0  0  0  0  0  0  0
   -1.0499    0.3577   -1.1808 C   0  0  0  0  0  0  0  0  0  0  0  0
    0.1359   -0.2877   -0.9258 C   0  0  0  0  0  0  0  0  0  0  0  0
    1.4285    0.1486   -0.9679 N   0  0  0  0  0  0  0  0  0  0  0  0
    4.1413    0.7942    0.0556 C   0  0  0  0  0  0  0  0  0  0  0  0
    5.4791    1.1955    0.1045 C   0  0  0  0  0  0  0  0  0  0  0  0
    5.9406    2.2592    0.8413 O   0  0  0  0  0  0  0  0  0  0  0  0
    5.0567    2.8253    1.7981 C   0  0  0  0  0  0  0  0  0  0  0  0
    8.8948   -0.3444   -1.7188 H   0  0  0  0  0  0  0  0  0  0  0  0
    9.4577    1.3243   -1.5808 H   0  0  0  0  0  0  0  0  0  0  0  0
    8.0761    0.9846   -2.6237 H   0  0  0  0  0  0  0  0  0  0  0  0
    6.7819   -1.1691   -2.0074 H   0  0  0  0  0  0  0  0  0  0  0  0
    4.4389   -1.8673   -2.0730 H   0  0  0  0  0  0  0  0  0  0  0  0
    2.9114   -2.8411   -0.1504 H   0  0  0  0  0  0  0  0  0  0  0  0
   -3.5255   -0.8930    1.6097 H   0  0  0  0  0  0  0  0  0  0  0  0
   -4.9121   -2.0165    1.5101 H   0  0  0  0  0  0  0  0  0  0  0  0
   -3.3898   -2.4704    0.7595 H   0  0  0  0  0  0  0  0  0  0  0  0
   -6.0832   -0.3434   -1.4222 H   0  0  0  0  0  0  0  0  0  0  0  0
   -6.4715   -1.4233   -0.1010 H   0  0  0  0  0  0  0  0  0  0  0  0
   -6.8322   -0.5089    2.2014 H   0  0  0  0  0  0  0  0  0  0  0  0
   -7.3687    1.4777    3.5646 H   0  0  0  0  0  0  0  0  0  0  0  0
   -7.0399    3.7548    2.6430 H   0  0  0  0  0  0  0  0  0  0  0  0
   -6.1630    4.0457    0.3376 H   0  0  0  0  0  0  0  0  0  0  0  0
   -5.6191    2.0751   -1.0380 H   0  0  0  0  0  0  0  0  0  0  0  0
   -1.1706    1.3810   -1.4945 H   0  0  0  0  0  0  0  0  0  0  0  0
    3.3692    1.3259    0.6031 H   0  0  0  0  0  0  0  0  0  0  0  0
    4.6779    2.0600    2.4883 H   0  0  0  0  0  0  0  0  0  0  0  0
    5.6205    3.5576    2.3879 H   0  0  0  0  0  0  0  0  0  0  0  0
    4.2415    3.3553    1.3049 H   0  0  0  0  0  0  0  0  0  0  0  0
  1  2  1  0
  2  3  1  0
  3  4  2  0
  4  5  1  0
  5  6  2  0
  6  7  1  0
  7  8  1  0
  8  9  2  0
  9 10  1  0
 10 11  1  0
 10 12  1  0
 10 13  1  0
  9 14  1  0
 14 15  1  0
 15 16  2  0
 16 17  1  0
 17 18  2  0
 17 19  1  0
 19 20  1  0
 19 21  1  0
 21 22  1  0
 22 23  2  0
 23 24  1  0
 24 25  2  0
 25 26  1  0
 26 27  2  0
 16 28  1  0
 28 29  2  0
 29 30  1  0
  6 31  1  0
 31 32  2  0
 32 33  1  0
 33 34  1  0
 32  3  1  0
 30  7  2  0
 29 14  1  0
 27 22  1  0
  1 35  1  0
  1 36  1  0
  1 37  1  0
  4 38  1  0
  5 39  1  0
  8 40  1  0
 20 41  1  0
 20 42  1  0
 20 43  1  0
 21 44  1  0
 21 45  1  0
 23 46  1  0
 24 47  1  0
 25 48  1  0
 26 49  1  0
 27 50  1  0
 28 51  1  0
 31 52  1  0
 34 53  1  0
 34 54  1  0
 34 55  1  0
M  END
$$$$
