
     RDKit          3D

 40 42  0  0  0  0  0  0  0  0999 V2000
   -2.1906   -1.4609   -2.3337 O   0  0  0  0  0  0  0  0  0  0  0  0
   -1.8925   -0.7995   -1.3456 C   0  0  0  0  0  0  0  0  0  0  0  0
   -2.7673   -0.2473   -0.4308 N   0  0  0  0  0  0  0  0  0  0  0  0
   -4.1872   -0.2524   -0.4520 C   0  0  0  0  0  0  0  0  0  0  0  0
   -4.9142   -0.8072   -1.5129 C   0  0  0  0  0  0  0  0  0  0  0  0
   -6.3129   -0.7997   -1.5117 C   0  0  0  0  0  0  0  0  0  0  0  0
   -7.0111   -0.2348   -0.4510 C   0  0  0  0  0  0  0  0  0  0  0  0
   -6.3108    0.3285    0.6135 C   0  0  0  0  0  0  0  0  0  0  0  0
   -4.9041    0.3269    0.6229 C   0  0  0  0  0  0  0  0  0  0  0  0
   -4.1779    0.9434    1.7676 C   0  0  0  0  0  0  0  0  0  0  0  0
   -2.9655    1.0273    1.8737 O   0  0  0  0  0  0  0  0  0  0  0  0
   -4.9901    1.4253    2.7251 O   0  0  0  0  0  0  0  0  0  0  0  0
   -0.4423   -0.5841   -1.0559 C   0  0  0  0  0  0  0  0  0  0  0  0
    0.0323    0.5434   -0.3775 C   0  0  0  0  0  0  0  0  0  0  0  0
    1.4050    0.7004   -0.1369 C   0  0  0  0  0  0  0  0  0  0  0  0
    2.3211   -0.2572   -0.5766 C   0  0  0  0  0  0  0  0  0  0  0  0
    3.7161   -0.1760   -0.3785 N   0  0  0  0  0  0  0  0  0  0  0  0
    4.4275    0.8148    0.2872 C   0  0  0  0  0  0  0  0  0  0  0  0
    3.9111    1.7891    0.8257 O   0  0  0  0  0  0  0  0  0  0  0  0
    5.8709    0.6015    0.3020 C   0  0  0  0  0  0  0  0  0  0  0  0
    6.7067   -0.3656   -0.2357 C   0  0  0  0  0  0  0  0  0  0  0  0
    8.0327   -0.0174    0.1289 C   0  0  0  0  0  0  0  0  0  0  0  0
    7.9360    1.1382    0.8654 C   0  0  0  0  0  0  0  0  0  0  0  0
    9.4000    2.0816    1.6286 Br  0  0  0  0  0  0  0  0  0  0  0  0
    6.6388    1.5190    0.9748 O   0  0  0  0  0  0  0  0  0  0  0  0
    1.8428   -1.3761   -1.2707 C   0  0  0  0  0  0  0  0  0  0  0  0
    0.4743   -1.5374   -1.5121 C   0  0  0  0  0  0  0  0  0  0  0  0
   -2.3593    0.1746    0.4039 H   0  0  0  0  0  0  0  0  0  0  0  0
   -4.4202   -1.2568   -2.3689 H   0  0  0  0  0  0  0  0  0  0  0  0
   -6.8525   -1.2387   -2.3480 H   0  0  0  0  0  0  0  0  0  0  0  0
   -8.0983   -0.2305   -0.4536 H   0  0  0  0  0  0  0  0  0  0  0  0
   -6.8736    0.7694    1.4332 H   0  0  0  0  0  0  0  0  0  0  0  0
   -4.3833    1.7931    3.4017 H   0  0  0  0  0  0  0  0  0  0  0  0
   -0.6389    1.3307   -0.0435 H   0  0  0  0  0  0  0  0  0  0  0  0
    1.7196    1.5950    0.3925 H   0  0  0  0  0  0  0  0  0  0  0  0
    4.2510   -0.9397   -0.7637 H   0  0  0  0  0  0  0  0  0  0  0  0
    6.4153   -1.2234   -0.8244 H   0  0  0  0  0  0  0  0  0  0  0  0
    8.9441   -0.5445   -0.1171 H   0  0  0  0  0  0  0  0  0  0  0  0
    2.5224   -2.1410   -1.6380 H   0  0  0  0  0  0  0  0  0  0  0  0
    0.1246   -2.4123   -2.0575 H   0  0  0  0  0  0  0  0  0  0  0  0
  1  2  2  0
  2  3  1  0
  3  4  1  0
  4  5  2  0
  5  6  1  0
  6  7  2  0
  7  8  1  0
  8  9  2  0
  9 10  1  0
 10 11  2  0
 10 12  1  0
  2 13  1  0
 13 14  2  0
 14 15  1  0
 15 16  2  0
 16 17  1  0
 17 18  1  0
 18 19  2  0
 18 20  1  0
 20 21  2  0
 21 22  1  0
 22 23  2  0
 23 24  1  0
 23 25  1  0
 16 26  1  0
 26 27  2  0
  9  4  1  0
 27 13  1  0
 25 20  1  0
  3 28  1  0
  5 29  1  0
  6 30  1  0
  7 31  1  0
  8 32  1  0
 12 33  1  0
 14 34  1  0
 15 35  1  0
 17 36  1  0
 21 37  1  0
 22 38  1  0
 26 39  1  0
 27 40  1  0
M  END
$$$$
