
     RDKit          3D

 34 36  0  0  0  0  0  0  0  0999 V2000
    0.2161    1.6923    1.5757 O   0  0  0  0  0  0  0  0  0  0  0  0
    0.4691    0.7261    0.8699 C   0  0  0  0  0  0  0  0  0  0  0  0
    1.8673    0.2742    0.7585 C   0  0  0  0  0  0  0  0  0  0  0  0
    2.2597   -0.9470    1.3167 C   0  0  0  0  0  0  0  0  0  0  0  0
    3.5924   -1.3510    1.2145 C   0  0  0  0  0  0  0  0  0  0  0  0
    4.5192   -0.5293    0.5694 C   0  0  0  0  0  0  0  0  0  0  0  0
    6.1595   -1.0325    0.4431 Cl  0  0  0  0  0  0  0  0  0  0  0  0
    4.1289    0.6982    0.0309 C   0  0  0  0  0  0  0  0  0  0  0  0
    2.7977    1.1072    0.1308 C   0  0  0  0  0  0  0  0  0  0  0  0
   -0.4904    0.0508    0.1615 N   0  0  0  0  0  0  0  0  0  0  0  0
   -0.3050   -1.0069   -0.8420 C   0  0  0  0  0  0  0  0  0  0  0  0
   -0.5127   -0.3407   -2.1792 C   0  0  0  0  0  0  0  0  0  0  0  0
   -1.8228   -0.0641   -2.3000 C   0  0  0  0  0  0  0  0  0  0  0  0
   -2.4725   -0.4730   -0.9863 C   0  0  0  0  0  0  0  0  0  0  0  0
   -1.6379   -1.7498   -0.7618 C   0  0  0  0  0  0  0  0  0  0  0  0
   -1.9558    0.4676    0.1698 C   0  0  0  0  0  0  0  0  0  0  0  0
   -2.2649    1.9364   -0.1373 C   0  0  0  0  0  0  0  0  0  0  0  0
   -3.5595    2.0717   -0.5302 F   0  0  0  0  0  0  0  0  0  0  0  0
   -1.5127    2.4215   -1.1563 F   0  0  0  0  0  0  0  0  0  0  0  0
   -2.0940    2.7768    0.9006 F   0  0  0  0  0  0  0  0  0  0  0  0
   -2.7030    0.1879    1.4709 C   0  0  0  0  0  0  0  0  0  0  0  0
   -4.0407    0.3283    1.3065 F   0  0  0  0  0  0  0  0  0  0  0  0
   -2.5128   -1.0885    1.8920 F   0  0  0  0  0  0  0  0  0  0  0  0
   -2.3413    0.9769    2.4997 F   0  0  0  0  0  0  0  0  0  0  0  0
    1.5398   -1.5734    1.8373 H   0  0  0  0  0  0  0  0  0  0  0  0
    3.9052   -2.2985    1.6461 H   0  0  0  0  0  0  0  0  0  0  0  0
    4.8559    1.3418   -0.4581 H   0  0  0  0  0  0  0  0  0  0  0  0
    2.4890    2.0696   -0.2715 H   0  0  0  0  0  0  0  0  0  0  0  0
    0.5919   -1.6173   -0.7548 H   0  0  0  0  0  0  0  0  0  0  0  0
    0.2618   -0.1225   -2.8993 H   0  0  0  0  0  0  0  0  0  0  0  0
   -2.3054    0.4405   -3.1250 H   0  0  0  0  0  0  0  0  0  0  0  0
   -3.5503   -0.6335   -1.0450 H   0  0  0  0  0  0  0  0  0  0  0  0
   -1.8026   -2.2355    0.2020 H   0  0  0  0  0  0  0  0  0  0  0  0
   -1.7690   -2.5045   -1.5493 H   0  0  0  0  0  0  0  0  0  0  0  0
  1  2  2  0
  2  3  1  0
  3  4  2  0
  4  5  1  0
  5  6  2  0
  6  7  1  0
  6  8  1  0
  8  9  2  0
  2 10  1  0
 10 11  1  0
 11 12  1  0
 12 13  2  0
 13 14  1  0
 14 15  1  0
 14 16  1  0
 16 17  1  0
 17 18  1  0
 17 19  1  0
 17 20  1  0
 16 21  1  0
 21 22  1  0
 21 23  1  0
 21 24  1  0
  9  3  1  0
 16 10  1  0
 15 11  1  0
  4 25  1  0
  5 26  1  0
  8 27  1  0
  9 28  1  0
 11 29  1  0
 12 30  1  0
 13 31  1  0
 14 32  1  0
 15 33  1  0
 15 34  1  0
M  END
$$$$
