
     RDKit          3D

 56 58  0  0  0  0  0  0  0  0999 V2000
    9.1390    2.9765   -1.1340 C   0  0  0  0  0  0  0  0  0  0  0  0
    8.5345    2.2456   -0.0748 O   0  0  0  0  0  0  0  0  0  0  0  0
    7.6701    1.2459   -0.4278 C   0  0  0  0  0  0  0  0  0  0  0  0
    7.0933    0.5661    0.6468 C   0  0  0  0  0  0  0  0  0  0  0  0
    6.1914   -0.4782    0.4294 C   0  0  0  0  0  0  0  0  0  0  0  0
    5.8567   -0.8648   -0.8740 C   0  0  0  0  0  0  0  0  0  0  0  0
    4.8668   -1.9756   -1.1082 C   0  0  0  0  0  0  0  0  0  0  0  0
    3.5184   -1.4737   -1.0942 N   0  0  0  0  0  0  0  0  0  0  0  0
    2.7256   -1.5185    0.0269 C   0  0  0  0  0  0  0  0  0  0  0  0
    2.9878   -2.0792    1.0821 O   0  0  0  0  0  0  0  0  0  0  0  0
    1.3881   -0.7603   -0.1345 C   0  0  0  0  0  0  0  0  0  0  0  0
    1.1251   -0.1995   -1.1894 O   0  0  0  0  0  0  0  0  0  0  0  0
    0.5975   -0.7982    0.9922 N   0  0  0  0  0  0  0  0  0  0  0  0
   -0.7778   -0.3334    0.9786 C   0  0  0  0  0  0  0  0  0  0  0  0
   -1.7948   -1.4330    0.5911 C   0  0  0  0  0  0  0  0  0  0  0  0
   -1.4844   -1.9761   -0.7088 O   0  0  0  0  0  0  0  0  0  0  0  0
   -2.4222   -1.4135   -1.6274 C   0  0  0  0  0  0  0  0  0  0  0  0
   -3.6843   -1.2716   -0.8093 C   0  0  0  0  0  0  0  0  0  0  0  0
   -3.1534   -0.8532    0.4965 N   0  0  0  0  0  0  0  0  0  0  0  0
   -4.1064   -1.1115    1.8606 S   0  0  0  0  0  6  0  0  0  0  0  0
   -4.5347   -2.4938    1.8482 O   0  0  0  0  0  0  0  0  0  0  0  0
   -3.4010   -0.5597    2.9975 O   0  0  0  0  0  0  0  0  0  0  0  0
   -5.5114   -0.0785    1.5405 C   0  0  0  0  0  0  0  0  0  0  0  0
   -6.7433   -0.6504    1.2157 C   0  0  0  0  0  0  0  0  0  0  0  0
   -7.8382    0.1781    0.9641 C   0  0  0  0  0  0  0  0  0  0  0  0
   -7.7111    1.5717    1.0535 C   0  0  0  0  0  0  0  0  0  0  0  0
   -8.8827    2.4606    0.7531 C   0  0  0  0  0  0  0  0  0  0  0  0
   -6.4668    2.1301    1.3791 C   0  0  0  0  0  0  0  0  0  0  0  0
   -5.3679    1.3083    1.6314 C   0  0  0  0  0  0  0  0  0  0  0  0
    6.4289   -0.1736   -1.9502 C   0  0  0  0  0  0  0  0  0  0  0  0
    7.3332    0.8723   -1.7288 C   0  0  0  0  0  0  0  0  0  0  0  0
    8.3857    3.4946   -1.7373 H   0  0  0  0  0  0  0  0  0  0  0  0
    9.7643    2.3264   -1.7553 H   0  0  0  0  0  0  0  0  0  0  0  0
    9.7887    3.7363   -0.6883 H   0  0  0  0  0  0  0  0  0  0  0  0
    7.3453    0.8548    1.6645 H   0  0  0  0  0  0  0  0  0  0  0  0
    5.7471   -0.9859    1.2843 H   0  0  0  0  0  0  0  0  0  0  0  0
    5.0364   -2.4371   -2.0874 H   0  0  0  0  0  0  0  0  0  0  0  0
    4.9905   -2.7608   -0.3533 H   0  0  0  0  0  0  0  0  0  0  0  0
    3.1942   -0.8758   -1.8490 H   0  0  0  0  0  0  0  0  0  0  0  0
    0.9363   -1.3752    1.7581 H   0  0  0  0  0  0  0  0  0  0  0  0
   -0.8483    0.5028    0.2730 H   0  0  0  0  0  0  0  0  0  0  0  0
   -0.9936    0.0547    1.9785 H   0  0  0  0  0  0  0  0  0  0  0  0
   -1.7404   -2.2684    1.2974 H   0  0  0  0  0  0  0  0  0  0  0  0
   -2.5457   -2.0699   -2.4925 H   0  0  0  0  0  0  0  0  0  0  0  0
   -2.0420   -0.4427   -1.9643 H   0  0  0  0  0  0  0  0  0  0  0  0
   -4.3636   -0.5308   -1.2375 H   0  0  0  0  0  0  0  0  0  0  0  0
   -4.1904   -2.2400   -0.7335 H   0  0  0  0  0  0  0  0  0  0  0  0
   -6.8614   -1.7300    1.1575 H   0  0  0  0  0  0  0  0  0  0  0  0
   -8.7959   -0.2696    0.7052 H   0  0  0  0  0  0  0  0  0  0  0  0
   -8.8873    2.7261   -0.3087 H   0  0  0  0  0  0  0  0  0  0  0  0
   -8.8383    3.3788    1.3486 H   0  0  0  0  0  0  0  0  0  0  0  0
   -9.8263    1.9612    0.9969 H   0  0  0  0  0  0  0  0  0  0  0  0
   -6.3500    3.2104    1.4447 H   0  0  0  0  0  0  0  0  0  0  0  0
   -4.4093    1.7502    1.8947 H   0  0  0  0  0  0  0  0  0  0  0  0
    6.1751   -0.4429   -2.9731 H   0  0  0  0  0  0  0  0  0  0  0  0
    7.7531    1.3739   -2.5944 H   0  0  0  0  0  0  0  0  0  0  0  0
  1  2  1  0
  2  3  1  0
  3  4  2  0
  4  5  1  0
  5  6  2  0
  6  7  1  0
  7  8  1  0
  8  9  1  0
  9 10  2  0
  9 11  1  0
 11 12  2  0
 11 13  1  0
 13 14  1  0
 14 15  1  0
 15 16  1  0
 16 17  1  0
 17 18  1  0
 18 19  1  0
 19 20  1  0
 20 21  2  0
 20 22  2  0
 20 23  1  0
 23 24  2  0
 24 25  1  0
 25 26  2  0
 26 27  1  0
 26 28  1  0
 28 29  2  0
  6 30  1  0
 30 31  2  0
 31  3  1  0
 19 15  1  0
 29 23  1  0
  1 32  1  0
  1 33  1  0
  1 34  1  0
  4 35  1  0
  5 36  1  0
  7 37  1  0
  7 38  1  0
  8 39  1  0
 13 40  1  0
 14 41  1  0
 14 42  1  0
 15 43  1  0
 17 44  1  0
 17 45  1  0
 18 46  1  0
 18 47  1  0
 24 48  1  0
 25 49  1  0
 27 50  1  0
 27 51  1  0
 27 52  1  0
 28 53  1  0
 29 54  1  0
 30 55  1  0
 31 56  1  0
M  END
$$$$
