
     RDKit          3D

 56 61  0  0  0  0  0  0  0  0999 V2000
    5.5182   -0.5315   -1.7183 C   0  0  0  0  0  0  0  0  0  0  0  0
    4.5485   -0.5197   -0.5748 C   0  0  0  0  0  0  0  0  0  0  0  0
    4.9871   -0.4744    0.7629 C   0  0  0  0  0  0  0  0  0  0  0  0
    6.6726   -0.4196    1.1515 Cl  0  0  0  0  0  0  0  0  0  0  0  0
    4.0780   -0.4760    1.8396 C   0  0  0  0  0  0  0  0  0  0  0  0
    2.7022   -0.5248    1.6143 C   0  0  0  0  0  0  0  0  0  0  0  0
    2.2591   -0.5667    0.3028 C   0  0  0  0  0  0  0  0  0  0  0  0
    3.1727   -0.5721   -0.7628 C   0  0  0  0  0  0  0  0  0  0  0  0
    2.4791   -0.6470   -1.9699 N   0  0  0  0  0  0  0  0  0  0  0  0
    1.0998   -0.7226   -1.7721 C   0  0  0  0  0  0  0  0  0  0  0  0
    0.2724   -0.8742   -2.6580 O   0  0  0  0  0  0  0  0  0  0  0  0
    0.8622   -0.6255   -0.2429 C   0  0  0  0  0  0  0  0  0  0  0  0
    0.0363   -1.7539    0.2773 N   0  0  0  0  0  0  0  0  0  0  0  0
   -1.3450   -1.2496    0.5899 C   0  0  2  0  0  0  0  0  0  0  0  0
   -2.4017   -1.6261   -0.4710 C   0  0  0  0  0  0  0  0  0  0  0  0
   -2.5649   -3.1140   -0.6757 C   0  0  0  0  0  0  0  0  0  0  0  0
   -2.1528   -3.7080   -1.8772 C   0  0  0  0  0  0  0  0  0  0  0  0
   -2.2903   -5.0831   -2.0699 C   0  0  0  0  0  0  0  0  0  0  0  0
   -2.8420   -5.8765   -1.0662 C   0  0  0  0  0  0  0  0  0  0  0  0
   -3.2583   -5.2957    0.1302 C   0  0  0  0  0  0  0  0  0  0  0  0
   -3.1220   -3.9204    0.3257 C   0  0  0  0  0  0  0  0  0  0  0  0
   -1.1329    0.2163    0.6648 C   0  0  0  0  0  0  0  0  0  0  0  0
    0.1199    0.5761    0.1751 C   0  0  0  0  0  0  0  0  0  0  0  0
    0.2486    1.9396    0.2562 C   0  0  0  0  0  0  0  0  0  0  0  0
    1.2931    2.7127   -0.0332 O   0  0  0  0  0  0  0  0  0  0  0  0
   -0.9548    2.4488    0.7967 N   0  0  0  0  0  0  0  0  0  0  0  0
   -1.2592    3.8344    1.0412 C   0  0  0  0  0  0  0  0  0  0  0  0
   -0.6134    4.8497    0.3157 C   0  0  0  0  0  0  0  0  0  0  0  0
   -0.9101    6.1961    0.5523 C   0  0  0  0  0  0  0  0  0  0  0  0
   -1.8511    6.5337    1.5139 C   0  0  0  0  0  0  0  0  0  0  0  0
   -2.1337    7.8232    1.7402 F   0  0  0  0  0  0  0  0  0  0  0  0
   -2.5027    5.5503    2.2436 C   0  0  0  0  0  0  0  0  0  0  0  0
   -2.2092    4.2030    2.0082 C   0  0  0  0  0  0  0  0  0  0  0  0
   -1.7997    1.3464    1.0571 C   0  0  0  0  0  0  0  0  0  0  0  0
   -3.0332    1.4740    1.5395 O   0  0  0  0  0  0  0  0  0  0  0  0
    6.1171   -1.4477   -1.6970 H   0  0  0  0  0  0  0  0  0  0  0  0
    5.0192   -0.4892   -2.6903 H   0  0  0  0  0  0  0  0  0  0  0  0
    6.1812    0.3385   -1.6669 H   0  0  0  0  0  0  0  0  0  0  0  0
    4.4466   -0.4436    2.8631 H   0  0  0  0  0  0  0  0  0  0  0  0
    1.9996   -0.5331    2.4430 H   0  0  0  0  0  0  0  0  0  0  0  0
    2.8888   -0.7111   -2.8901 H   0  0  0  0  0  0  0  0  0  0  0  0
   -0.0243   -2.4789   -0.4368 H   0  0  0  0  0  0  0  0  0  0  0  0
   -1.6315   -1.6431    1.5718 H   0  0  0  0  0  0  0  0  0  0  0  0
   -2.1659   -1.1461   -1.4302 H   0  0  0  0  0  0  0  0  0  0  0  0
   -3.3773   -1.2131   -0.1801 H   0  0  0  0  0  0  0  0  0  0  0  0
   -1.7208   -3.1021   -2.6728 H   0  0  0  0  0  0  0  0  0  0  0  0
   -1.9688   -5.5343   -3.0050 H   0  0  0  0  0  0  0  0  0  0  0  0
   -2.9499   -6.9473   -1.2176 H   0  0  0  0  0  0  0  0  0  0  0  0
   -3.6907   -5.9153    0.9116 H   0  0  0  0  0  0  0  0  0  0  0  0
   -3.4552   -3.4862    1.2652 H   0  0  0  0  0  0  0  0  0  0  0  0
    2.0468    2.1403   -0.2589 H   0  0  0  0  0  0  0  0  0  0  0  0
    0.1017    4.6250   -0.4698 H   0  0  0  0  0  0  0  0  0  0  0  0
   -0.4155    6.9780   -0.0146 H   0  0  0  0  0  0  0  0  0  0  0  0
   -3.2315    5.8329    2.9963 H   0  0  0  0  0  0  0  0  0  0  0  0
   -2.7152    3.4658    2.6238 H   0  0  0  0  0  0  0  0  0  0  0  0
   -3.4273    0.5875    1.6037 H   0  0  0  0  0  0  0  0  0  0  0  0
  1  2  1  0
  2  3  2  0
  3  4  1  0
  3  5  1  0
  5  6  2  0
  6  7  1  0
  7  8  2  0
  8  9  1  0
  9 10  1  0
 10 11  2  0
 10 12  1  0
 12 13  1  0
 13 14  1  0
 14 15  1  0
 15 16  1  0
 16 17  2  0
 17 18  1  0
 18 19  2  0
 19 20  1  0
 20 21  2  0
 14 22  1  0
 22 23  1  0
 23 24  2  0
 24 25  1  0
 24 26  1  0
 26 27  1  0
 27 28  2  0
 28 29  1  0
 29 30  2  0
 30 31  1  0
 30 32  1  0
 32 33  2  0
 26 34  1  0
 34 35  1  0
  8  2  1  0
 23 12  1  0
 33 27  1  0
 12  7  1  0
 21 16  1  0
 34 22  2  0
  1 36  1  0
  1 37  1  0
  1 38  1  0
  5 39  1  0
  6 40  1  0
  9 41  1  0
 13 42  1  0
 14 43  1  1
 15 44  1  0
 15 45  1  0
 17 46  1  0
 18 47  1  0
 19 48  1  0
 20 49  1  0
 21 50  1  0
 25 51  1  0
 28 52  1  0
 29 53  1  0
 32 54  1  0
 33 55  1  0
 35 56  1  0
M  END
$$$$
