
     RDKit          3D

 60 63  0  0  0  0  0  0  0  0999 V2000
   -7.9115   -1.6007   -0.0106 C   0  0  0  0  0  0  0  0  0  0  0  0
   -6.7283   -1.7895   -0.9148 C   0  0  0  0  0  0  0  0  0  0  0  0
   -6.0451   -2.9900   -0.9255 C   0  0  0  0  0  0  0  0  0  0  0  0
   -4.9643   -3.0826   -1.7812 C   0  0  0  0  0  0  0  0  0  0  0  0
   -4.1682   -4.3498   -1.8543 C   0  0  0  0  0  0  0  0  0  0  0  0
   -4.5792   -2.0615   -2.5713 N   0  0  0  0  0  0  0  0  0  0  0  0
   -5.2937   -0.9299   -2.4731 C   0  0  0  0  0  0  0  0  0  0  0  0
   -4.7382    0.4491   -3.4344 S   0  0  0  0  0  0  0  0  0  0  0  0
   -4.2820    1.5410   -2.0597 C   0  0  0  0  0  0  0  0  0  0  0  0
   -3.1919    0.9932   -1.2021 C   0  0  0  0  0  0  0  0  0  0  0  0
   -3.3463    0.5542    0.0343 N   0  0  0  0  0  0  0  0  0  0  0  0
   -2.1250    0.1493    0.5083 N   0  0  0  0  0  0  0  0  0  0  0  0
   -1.2485    0.3456   -0.4447 C   0  0  0  0  0  0  0  0  0  0  0  0
    0.4399    0.0122   -0.3207 S   0  0  0  0  0  0  0  0  0  0  0  0
    0.8229    1.0742    1.1056 C   0  0  0  0  0  0  0  0  0  0  0  0
    2.3228    1.1026    1.3431 C   0  0  0  0  0  0  0  0  0  0  0  0
    2.9575    2.1464    1.2165 O   0  0  0  0  0  0  0  0  0  0  0  0
    2.8281   -0.1266    1.7412 N   0  0  0  0  0  0  0  0  0  0  0  0
    4.1637   -0.4548    2.0489 C   0  0  0  0  0  0  0  0  0  0  0  0
    4.4267   -1.7788    2.4097 C   0  0  0  0  0  0  0  0  0  0  0  0
    5.7245   -2.1867    2.7272 C   0  0  0  0  0  0  0  0  0  0  0  0
    6.7911   -1.2787    2.6892 C   0  0  0  0  0  0  0  0  0  0  0  0
    8.1760   -1.7501    3.0362 C   0  0  0  0  0  0  0  0  0  0  0  0
    6.5371    0.0583    2.3306 C   0  0  0  0  0  0  0  0  0  0  0  0
    7.6391    1.0811    2.2926 C   0  0  0  0  0  0  0  0  0  0  0  0
    5.2223    0.4545    2.0153 C   0  0  0  0  0  0  0  0  0  0  0  0
   -1.8580    0.8927   -1.5423 N   0  0  0  0  0  0  0  0  0  0  0  0
   -1.2313    1.2993   -2.7849 C   0  0  0  0  0  0  0  0  0  0  0  0
   -0.7764    2.7097   -2.7050 C   0  0  0  0  0  0  0  0  0  0  0  0
   -1.2755    3.9032   -3.1850 C   0  0  0  0  0  0  0  0  0  0  0  0
   -0.3739    4.9098   -2.7638 C   0  0  0  0  0  0  0  0  0  0  0  0
    0.6195    4.2689   -2.0643 C   0  0  0  0  0  0  0  0  0  0  0  0
    0.3864    2.9346   -2.0308 O   0  0  0  0  0  0  0  0  0  0  0  0
   -6.3697   -0.7486   -1.6918 N   0  0  0  0  0  0  0  0  0  0  0  0
   -8.6822   -2.3450   -0.2360 H   0  0  0  0  0  0  0  0  0  0  0  0
   -8.3501   -0.6062   -0.1443 H   0  0  0  0  0  0  0  0  0  0  0  0
   -7.6082   -1.7020    1.0373 H   0  0  0  0  0  0  0  0  0  0  0  0
   -6.3391   -3.8165   -0.2898 H   0  0  0  0  0  0  0  0  0  0  0  0
   -3.7888   -4.6166   -0.8629 H   0  0  0  0  0  0  0  0  0  0  0  0
   -3.3107   -4.2353   -2.5246 H   0  0  0  0  0  0  0  0  0  0  0  0
   -4.7922   -5.1642   -2.2308 H   0  0  0  0  0  0  0  0  0  0  0  0
   -5.1686    1.7445   -1.4488 H   0  0  0  0  0  0  0  0  0  0  0  0
   -3.9733    2.5034   -2.4788 H   0  0  0  0  0  0  0  0  0  0  0  0
    0.4815    2.0973    0.9137 H   0  0  0  0  0  0  0  0  0  0  0  0
    0.3227    0.7065    2.0075 H   0  0  0  0  0  0  0  0  0  0  0  0
    2.1647   -0.8924    1.7653 H   0  0  0  0  0  0  0  0  0  0  0  0
    3.6278   -2.5146    2.4566 H   0  0  0  0  0  0  0  0  0  0  0  0
    5.8961   -3.2238    3.0082 H   0  0  0  0  0  0  0  0  0  0  0  0
    8.5618   -1.1983    3.8996 H   0  0  0  0  0  0  0  0  0  0  0  0
    8.8481   -1.6107    2.1835 H   0  0  0  0  0  0  0  0  0  0  0  0
    8.1856   -2.8146    3.2934 H   0  0  0  0  0  0  0  0  0  0  0  0
    8.4273    0.7675    1.6006 H   0  0  0  0  0  0  0  0  0  0  0  0
    7.2738    2.0560    1.9530 H   0  0  0  0  0  0  0  0  0  0  0  0
    8.0640    1.2166    3.2925 H   0  0  0  0  0  0  0  0  0  0  0  0
    5.0513    1.4913    1.7410 H   0  0  0  0  0  0  0  0  0  0  0  0
   -0.3971    0.6247   -2.9995 H   0  0  0  0  0  0  0  0  0  0  0  0
   -1.9458    1.1739   -3.6005 H   0  0  0  0  0  0  0  0  0  0  0  0
   -2.1772    4.0359   -3.7661 H   0  0  0  0  0  0  0  0  0  0  0  0
   -0.4370    5.9722   -2.9477 H   0  0  0  0  0  0  0  0  0  0  0  0
    1.5150    4.5989   -1.5564 H   0  0  0  0  0  0  0  0  0  0  0  0
  1  2  1  0
  2  3  2  0
  3  4  1  0
  4  5  1  0
  4  6  2  0
  6  7  1  0
  7  8  1  0
  8  9  1  0
  9 10  1  0
 10 11  2  0
 11 12  1  0
 12 13  2  0
 13 14  1  0
 14 15  1  0
 15 16  1  0
 16 17  2  0
 16 18  1  0
 18 19  1  0
 19 20  2  0
 20 21  1  0
 21 22  2  0
 22 23  1  0
 22 24  1  0
 24 25  1  0
 24 26  2  0
 13 27  1  0
 27 28  1  0
 28 29  1  0
 29 30  2  0
 30 31  1  0
 31 32  2  0
 32 33  1  0
  7 34  2  0
 34  2  1  0
 27 10  1  0
 33 29  1  0
 26 19  1  0
  1 35  1  0
  1 36  1  0
  1 37  1  0
  3 38  1  0
  5 39  1  0
  5 40  1  0
  5 41  1  0
  9 42  1  0
  9 43  1  0
 15 44  1  0
 15 45  1  0
 18 46  1  0
 20 47  1  0
 21 48  1  0
 23 49  1  0
 23 50  1  0
 23 51  1  0
 25 52  1  0
 25 53  1  0
 25 54  1  0
 26 55  1  0
 28 56  1  0
 28 57  1  0
 30 58  1  0
 31 59  1  0
 32 60  1  0
M  END
$$$$
