
     RDKit          3D

 47 50  0  0  0  0  0  0  0  0999 V2000
   -4.8151    3.6580    3.7007 N   0  0  0  0  0  0  0  0  0  0  0  0
   -5.0763    2.8223    2.6778 C   0  0  0  0  0  0  0  0  0  0  0  0
   -6.3002    2.4622    2.2942 N   0  0  0  0  0  0  0  0  0  0  0  0
   -6.1165    1.6101    1.2114 O   0  0  0  0  0  0  0  0  0  0  0  0
   -4.7625    1.4400    0.9252 N   0  0  0  0  0  0  0  0  0  0  0  0
   -4.1412    2.1898    1.8359 C   0  0  0  0  0  0  0  0  0  0  0  0
   -2.7259    2.2562    1.8942 N   0  0  0  0  0  0  0  0  0  0  0  0
   -2.0949    2.9418    2.8876 N   0  0  0  0  0  0  0  0  0  0  0  0
   -0.7914    2.7580    2.7831 N   0  0  0  0  0  0  0  0  0  0  0  0
   -0.5508    1.9570    1.7009 C   0  0  0  0  0  0  0  0  0  0  0  0
    0.8103    1.5457    1.3443 C   0  0  0  0  0  0  0  0  0  0  0  0
    1.7829    2.2199    1.6708 O   0  0  0  0  0  0  0  0  0  0  0  0
    0.8750    0.3368    0.6504 N   0  0  0  0  0  0  0  0  0  0  0  0
    2.0200   -0.3342    0.2959 N   0  0  0  0  0  0  0  0  0  0  0  0
    3.0725    0.3552   -0.0140 C   0  0  0  0  0  0  0  0  0  0  0  0
    4.3498   -0.3011   -0.3647 C   0  0  0  0  0  0  0  0  0  0  0  0
    4.4627   -1.6960   -0.3817 C   0  0  0  0  0  0  0  0  0  0  0  0
    5.6796   -2.2926   -0.7200 C   0  0  0  0  0  0  0  0  0  0  0  0
    6.7705   -1.4876   -1.0371 C   0  0  0  0  0  0  0  0  0  0  0  0
    7.9763   -2.0272   -1.3731 O   0  0  0  0  0  0  0  0  0  0  0  0
    6.6660   -0.1002   -1.0208 C   0  0  0  0  0  0  0  0  0  0  0  0
    5.4515    0.4992   -0.6829 C   0  0  0  0  0  0  0  0  0  0  0  0
   -1.7588    1.6884    1.0669 C   0  0  0  0  0  0  0  0  0  0  0  0
   -2.0328    0.9738   -0.2032 C   0  0  0  0  0  0  0  0  0  0  0  0
   -1.9735   -0.4084    0.1330 O   0  0  0  0  0  0  0  0  0  0  0  0
   -2.1802   -1.3083   -0.8761 C   0  0  0  0  0  0  0  0  0  0  0  0
   -2.4166   -0.9999   -2.2183 C   0  0  0  0  0  0  0  0  0  0  0  0
   -2.6042   -2.0276   -3.1480 C   0  0  0  0  0  0  0  0  0  0  0  0
   -2.5540   -3.3530   -2.7331 C   0  0  0  0  0  0  0  0  0  0  0  0
   -2.7340   -4.3325   -3.6283 F   0  0  0  0  0  0  0  0  0  0  0  0
   -2.3195   -3.6739   -1.4033 C   0  0  0  0  0  0  0  0  0  0  0  0
   -2.1324   -2.6487   -0.4751 C   0  0  0  0  0  0  0  0  0  0  0  0
   -5.5554    3.8766    4.3596 H   0  0  0  0  0  0  0  0  0  0  0  0
   -3.8742    3.7419    4.0847 H   0  0  0  0  0  0  0  0  0  0  0  0
    0.0602   -0.2730    0.6958 H   0  0  0  0  0  0  0  0  0  0  0  0
    3.0738    1.4569   -0.0671 H   0  0  0  0  0  0  0  0  0  0  0  0
    3.6084   -2.3208   -0.1323 H   0  0  0  0  0  0  0  0  0  0  0  0
    5.7550   -3.3753   -0.7296 H   0  0  0  0  0  0  0  0  0  0  0  0
    7.9075   -2.9953   -1.3307 H   0  0  0  0  0  0  0  0  0  0  0  0
    7.5292    0.5117   -1.2682 H   0  0  0  0  0  0  0  0  0  0  0  0
    5.3787    1.5835   -0.6672 H   0  0  0  0  0  0  0  0  0  0  0  0
   -2.9892    1.2445   -0.6550 H   0  0  0  0  0  0  0  0  0  0  0  0
   -1.2453    1.2184   -0.9276 H   0  0  0  0  0  0  0  0  0  0  0  0
   -2.4619    0.0220   -2.5795 H   0  0  0  0  0  0  0  0  0  0  0  0
   -2.7892   -1.8021   -4.1938 H   0  0  0  0  0  0  0  0  0  0  0  0
   -2.2841   -4.7143   -1.0970 H   0  0  0  0  0  0  0  0  0  0  0  0
   -1.9498   -2.8979    0.5676 H   0  0  0  0  0  0  0  0  0  0  0  0
  1  2  1  0
  2  3  2  0
  3  4  1  0
  4  5  1  0
  5  6  2  0
  6  7  1  0
  7  8  1  0
  8  9  2  0
  9 10  1  0
 10 11  1  0
 11 12  2  0
 11 13  1  0
 13 14  1  0
 14 15  2  3
 15 16  1  0
 16 17  2  0
 17 18  1  0
 18 19  2  0
 19 20  1  0
 19 21  1  0
 21 22  2  0
 10 23  2  0
 23 24  1  0
 24 25  1  0
 25 26  1  0
 26 27  2  0
 27 28  1  0
 28 29  2  0
 29 30  1  0
 29 31  1  0
 31 32  2  0
  6  2  1  0
 23  7  1  0
 32 26  1  0
 22 16  1  0
  1 33  1  0
  1 34  1  0
 13 35  1  0
 15 36  1  0
 17 37  1  0
 18 38  1  0
 20 39  1  0
 21 40  1  0
 22 41  1  0
 24 42  1  0
 24 43  1  0
 27 44  1  0
 28 45  1  0
 31 46  1  0
 32 47  1  0
M  END
$$$$
