
     RDKit          3D

 69 74  0  0  0  0  0  0  0  0999 V2000
    2.4414    0.8166    2.8184 O   0  0  0  0  0  0  0  0  0  0  0  0
    2.2352    1.6155    1.6443 C   0  0  0  0  0  0  0  0  0  0  0  0
    3.5776    2.1044    1.0753 C   0  0  0  0  0  0  0  0  0  0  0  0
    4.2146    1.1341    0.2396 O   0  0  0  0  0  0  0  0  0  0  0  0
    5.1849    0.3087    0.7249 C   0  0  0  0  0  0  0  0  0  0  0  0
    5.4828    0.1921    2.0882 C   0  0  0  0  0  0  0  0  0  0  0  0
    6.4820   -0.6723    2.5399 C   0  0  0  0  0  0  0  0  0  0  0  0
    7.1990   -1.4422    1.6320 C   0  0  0  0  0  0  0  0  0  0  0  0
    6.9243   -1.3653    0.2665 C   0  0  0  0  0  0  0  0  0  0  0  0
    7.6945   -2.1921   -0.5841 N   0  0  0  0  0  0  0  0  0  0  0  0
    7.4623   -2.1548   -1.8569 C   0  0  0  0  0  0  0  0  0  0  0  0
    6.4574   -1.3045   -2.4132 C   0  0  0  0  0  0  0  0  0  0  0  0
    6.0607   -1.1235   -3.7208 C   0  0  0  0  0  0  0  0  0  0  0  0
    5.0276   -0.1631   -3.7083 C   0  0  0  0  0  0  0  0  0  0  0  0
    4.8285    0.2090   -2.3949 C   0  0  0  0  0  0  0  0  0  0  0  0
    5.7035   -0.4903   -1.5928 N   0  0  0  0  0  0  0  0  0  0  0  0
    5.9091   -0.4864   -0.1867 C   0  0  0  0  0  0  0  0  0  0  0  0
    1.4122    0.7984    0.6227 C   0  0  0  0  0  0  0  0  0  0  0  0
    0.1574    0.2755    1.2169 N   0  0  0  0  0  0  0  0  0  0  0  0
   -0.4888   -0.7035    0.3141 C   0  0  0  0  0  0  0  0  0  0  0  0
   -1.6189   -0.1196   -0.5634 C   0  0  0  0  0  0  0  0  0  0  0  0
   -2.7281    0.5197    0.1889 N   0  0  0  0  0  0  0  0  0  0  0  0
   -3.9382   -0.3525    0.2645 C   0  0  0  0  0  0  0  0  0  0  0  0
   -4.5170   -0.7140   -1.1124 C   0  0  0  0  0  0  0  0  0  0  0  0
   -4.5810    0.2212   -2.1604 C   0  0  0  0  0  0  0  0  0  0  0  0
   -5.1240   -0.1279   -3.3980 C   0  0  0  0  0  0  0  0  0  0  0  0
   -5.6173   -1.4141   -3.6052 C   0  0  0  0  0  0  0  0  0  0  0  0
   -5.5712   -2.3514   -2.5750 C   0  0  0  0  0  0  0  0  0  0  0  0
   -5.0286   -2.0043   -1.3362 C   0  0  0  0  0  0  0  0  0  0  0  0
   -5.0532    0.2232    1.1495 C   0  0  0  0  0  0  0  0  0  0  0  0
   -5.5884   -0.5486    2.1952 C   0  0  0  0  0  0  0  0  0  0  0  0
   -6.6092   -0.0438    3.0034 C   0  0  0  0  0  0  0  0  0  0  0  0
   -7.1114    1.2357    2.7767 C   0  0  0  0  0  0  0  0  0  0  0  0
   -6.5951    2.0130    1.7426 C   0  0  0  0  0  0  0  0  0  0  0  0
   -5.5744    1.5107    0.9338 C   0  0  0  0  0  0  0  0  0  0  0  0
   -2.2607    0.9209    1.5390 C   0  0  0  0  0  0  0  0  0  0  0  0
   -0.7831    1.3711    1.5499 C   0  0  0  0  0  0  0  0  0  0  0  0
    1.6429    0.2512    2.8762 H   0  0  0  0  0  0  0  0  0  0  0  0
    1.6737    2.4970    1.9734 H   0  0  0  0  0  0  0  0  0  0  0  0
    4.2456    2.4915    1.8522 H   0  0  0  0  0  0  0  0  0  0  0  0
    3.3663    2.9527    0.4127 H   0  0  0  0  0  0  0  0  0  0  0  0
    4.9385    0.7497    2.8440 H   0  0  0  0  0  0  0  0  0  0  0  0
    6.6932   -0.7491    3.6036 H   0  0  0  0  0  0  0  0  0  0  0  0
    7.9750   -2.1160    1.9850 H   0  0  0  0  0  0  0  0  0  0  0  0
    8.0541   -2.7948   -2.5317 H   0  0  0  0  0  0  0  0  0  0  0  0
    6.4700   -1.6258   -4.5880 H   0  0  0  0  0  0  0  0  0  0  0  0
    4.4836    0.2223   -4.5612 H   0  0  0  0  0  0  0  0  0  0  0  0
    4.1260    0.9218   -1.9939 H   0  0  0  0  0  0  0  0  0  0  0  0
    2.0163   -0.0681    0.3259 H   0  0  0  0  0  0  0  0  0  0  0  0
    1.2134    1.3917   -0.2781 H   0  0  0  0  0  0  0  0  0  0  0  0
   -0.9136   -1.4991    0.9407 H   0  0  0  0  0  0  0  0  0  0  0  0
    0.2474   -1.2056   -0.3262 H   0  0  0  0  0  0  0  0  0  0  0  0
   -1.1857    0.6509   -1.2149 H   0  0  0  0  0  0  0  0  0  0  0  0
   -1.9663   -0.9068   -1.2413 H   0  0  0  0  0  0  0  0  0  0  0  0
   -3.6056   -1.2947    0.7261 H   0  0  0  0  0  0  0  0  0  0  0  0
   -4.1999    1.2296   -2.0140 H   0  0  0  0  0  0  0  0  0  0  0  0
   -5.1641    0.6065   -4.1983 H   0  0  0  0  0  0  0  0  0  0  0  0
   -6.0420   -1.6847   -4.5680 H   0  0  0  0  0  0  0  0  0  0  0  0
   -5.9629   -3.3528   -2.7342 H   0  0  0  0  0  0  0  0  0  0  0  0
   -5.0108   -2.7479   -0.5424 H   0  0  0  0  0  0  0  0  0  0  0  0
   -5.2140   -1.5514    2.3872 H   0  0  0  0  0  0  0  0  0  0  0  0
   -7.0150   -0.6509    3.8084 H   0  0  0  0  0  0  0  0  0  0  0  0
   -7.9077    1.6268    3.4042 H   0  0  0  0  0  0  0  0  0  0  0  0
   -6.9876    3.0101    1.5628 H   0  0  0  0  0  0  0  0  0  0  0  0
   -5.1778    2.1307    0.1333 H   0  0  0  0  0  0  0  0  0  0  0  0
   -2.3738    0.0994    2.2599 H   0  0  0  0  0  0  0  0  0  0  0  0
   -2.8677    1.7592    1.8985 H   0  0  0  0  0  0  0  0  0  0  0  0
   -0.6769    2.2115    0.8502 H   0  0  0  0  0  0  0  0  0  0  0  0
   -0.5406    1.7496    2.5496 H   0  0  0  0  0  0  0  0  0  0  0  0
  1  2  1  0
  2  3  1  0
  3  4  1  0
  4  5  1  0
  5  6  2  0
  6  7  1  0
  7  8  2  0
  8  9  1  0
  9 10  1  0
 10 11  2  0
 11 12  1  0
 12 13  2  0
 13 14  1  0
 14 15  2  0
 15 16  1  0
 16 17  1  0
  2 18  1  0
 18 19  1  0
 19 20  1  0
 20 21  1  0
 21 22  1  0
 22 23  1  0
 23 24  1  0
 24 25  2  0
 25 26  1  0
 26 27  2  0
 27 28  1  0
 28 29  2  0
 23 30  1  0
 30 31  2  0
 31 32  1  0
 32 33  2  0
 33 34  1  0
 34 35  2  0
 22 36  1  0
 36 37  1  0
 17  5  1  0
 37 19  1  0
 17  9  2  0
 29 24  1  0
 35 30  1  0
 16 12  1  0
  1 38  1  0
  2 39  1  0
  3 40  1  0
  3 41  1  0
  6 42  1  0
  7 43  1  0
  8 44  1  0
 11 45  1  0
 13 46  1  0
 14 47  1  0
 15 48  1  0
 18 49  1  0
 18 50  1  0
 20 51  1  0
 20 52  1  0
 21 53  1  0
 21 54  1  0
 23 55  1  0
 25 56  1  0
 26 57  1  0
 27 58  1  0
 28 59  1  0
 29 60  1  0
 31 61  1  0
 32 62  1  0
 33 63  1  0
 34 64  1  0
 35 65  1  0
 36 66  1  0
 36 67  1  0
 37 68  1  0
 37 69  1  0
M  END
$$$$
