
     RDKit          3D

 46 48  0  0  0  0  0  0  0  0999 V2000
   -7.7245   -0.1012   -0.9290 C   0  0  0  0  0  0  0  0  0  0  0  0
   -6.8558   -0.9894   -0.2366 O   0  0  0  0  0  0  0  0  0  0  0  0
   -5.6166   -0.5117    0.0947 C   0  0  0  0  0  0  0  0  0  0  0  0
   -5.1353    0.7672   -0.1757 C   0  0  0  0  0  0  0  0  0  0  0  0
   -3.8440    1.1246    0.2203 C   0  0  0  0  0  0  0  0  0  0  0  0
   -3.0203    0.2054    0.8845 C   0  0  0  0  0  0  0  0  0  0  0  0
   -1.6694    0.6127    1.2992 C   0  0  0  0  0  0  0  0  0  0  0  0
   -0.6347    0.8463    0.4812 C   0  0  0  0  0  0  0  0  0  0  0  0
   -0.6053    0.7370   -1.2481 S   0  0  0  0  0  0  0  0  0  0  0  0
    1.0849    1.1427   -1.2874 C   0  0  0  0  0  0  0  0  0  0  0  0
    1.7625    1.2294   -2.4370 C   0  0  0  0  0  0  0  0  0  0  0  0
    3.1940    1.5788   -2.5903 C   0  0  0  0  0  0  0  0  0  0  0  0
    3.5260    2.3801   -3.4582 O   0  0  0  0  0  0  0  0  0  0  0  0
    4.2181    0.9484   -1.7212 C   0  0  0  0  0  0  0  0  0  0  0  0
    5.3666    1.6844   -1.4114 C   0  0  0  0  0  0  0  0  0  0  0  0
    6.3503    1.1347   -0.5868 C   0  0  0  0  0  0  0  0  0  0  0  0
    6.1974   -0.1552   -0.0644 C   0  0  0  0  0  0  0  0  0  0  0  0
    7.2702   -0.7570    0.7955 C   0  0  0  0  0  0  0  0  0  0  0  0
    5.0631   -0.9015   -0.4073 C   0  0  0  0  0  0  0  0  0  0  0  0
    4.0771   -0.3557   -1.2334 C   0  0  0  0  0  0  0  0  0  0  0  0
    1.5720    1.3664   -0.0340 N   0  0  0  0  0  0  0  0  0  0  0  0
    0.6992    1.2296    1.0164 C   0  0  0  0  0  0  0  0  0  0  0  0
    0.9854    1.4026    2.1893 O   0  0  0  0  0  0  0  0  0  0  0  0
   -3.5050   -1.0844    1.1684 C   0  0  0  0  0  0  0  0  0  0  0  0
   -2.6436   -1.9226    1.8315 O   0  0  0  0  0  0  0  0  0  0  0  0
   -3.1103   -3.2296    2.1393 C   0  0  0  0  0  0  0  0  0  0  0  0
   -4.8002   -1.4299    0.7665 C   0  0  0  0  0  0  0  0  0  0  0  0
   -8.6614   -0.6328   -1.1217 H   0  0  0  0  0  0  0  0  0  0  0  0
   -7.9596    0.7767   -0.3182 H   0  0  0  0  0  0  0  0  0  0  0  0
   -7.3020    0.1904   -1.8962 H   0  0  0  0  0  0  0  0  0  0  0  0
   -5.7348    1.5107   -0.6898 H   0  0  0  0  0  0  0  0  0  0  0  0
   -3.4852    2.1293    0.0064 H   0  0  0  0  0  0  0  0  0  0  0  0
   -1.5319    0.6792    2.3772 H   0  0  0  0  0  0  0  0  0  0  0  0
    1.2496    1.1168   -3.3885 H   0  0  0  0  0  0  0  0  0  0  0  0
    5.5007    2.6878   -1.8119 H   0  0  0  0  0  0  0  0  0  0  0  0
    7.2390    1.7194   -0.3572 H   0  0  0  0  0  0  0  0  0  0  0  0
    8.0029   -1.2766    0.1705 H   0  0  0  0  0  0  0  0  0  0  0  0
    6.8440   -1.4697    1.5093 H   0  0  0  0  0  0  0  0  0  0  0  0
    7.7843    0.0159    1.3764 H   0  0  0  0  0  0  0  0  0  0  0  0
    4.9436   -1.9175   -0.0351 H   0  0  0  0  0  0  0  0  0  0  0  0
    3.2164   -0.9667   -1.4927 H   0  0  0  0  0  0  0  0  0  0  0  0
    2.5230    1.6416    0.1688 H   0  0  0  0  0  0  0  0  0  0  0  0
   -2.3082   -3.7545    2.6671 H   0  0  0  0  0  0  0  0  0  0  0  0
   -3.9779   -3.1926    2.8063 H   0  0  0  0  0  0  0  0  0  0  0  0
   -3.3329   -3.7941    1.2280 H   0  0  0  0  0  0  0  0  0  0  0  0
   -5.2113   -2.4150    0.9614 H   0  0  0  0  0  0  0  0  0  0  0  0
  1  2  1  0
  2  3  1  0
  3  4  2  0
  4  5  1  0
  5  6  2  0
  6  7  1  0
  7  8  2  3
  8  9  1  0
  9 10  1  0
 10 11  2  3
 11 12  1  0
 12 13  2  0
 12 14  1  0
 14 15  2  0
 15 16  1  0
 16 17  2  0
 17 18  1  0
 17 19  1  0
 19 20  2  0
 10 21  1  0
 21 22  1  0
 22 23  2  0
  6 24  1  0
 24 25  1  0
 25 26  1  0
 24 27  2  0
 27  3  1  0
 22  8  1  0
 20 14  1  0
  1 28  1  0
  1 29  1  0
  1 30  1  0
  4 31  1  0
  5 32  1  0
  7 33  1  0
 11 34  1  0
 15 35  1  0
 16 36  1  0
 18 37  1  0
 18 38  1  0
 18 39  1  0
 19 40  1  0
 20 41  1  0
 21 42  1  0
 26 43  1  0
 26 44  1  0
 26 45  1  0
 27 46  1  0
M  END
$$$$
