
     RDKit          3D

 42 44  0  0  0  0  0  0  0  0999 V2000
   -5.1261    1.4174    0.4628 C   0  0  0  0  0  0  0  0  0  0  0  0
   -4.1058    1.0884   -0.5873 C   0  0  0  0  0  0  0  0  0  0  0  0
   -4.4869    0.9668   -1.9242 C   0  0  0  0  0  0  0  0  0  0  0  0
   -3.5616    0.6279   -2.9169 C   0  0  0  0  0  0  0  0  0  0  0  0
   -2.2285    0.4002   -2.5375 C   0  0  0  0  0  0  0  0  0  0  0  0
   -1.8134    0.5086   -1.2099 C   0  0  0  0  0  0  0  0  0  0  0  0
   -2.7713    0.8452   -0.2254 C   0  0  0  0  0  0  0  0  0  0  0  0
   -0.4152    0.2180   -1.1799 C   0  0  0  0  0  0  0  0  0  0  0  0
    0.3960    0.2224   -0.0014 C   0  0  0  0  0  0  0  0  0  0  0  0
    1.3538   -0.6762    0.2829 C   0  0  0  0  0  0  0  0  0  0  0  0
    2.1535   -0.6629    1.5118 C   0  0  0  0  0  0  0  0  0  0  0  0
    1.5943   -0.3957    2.7607 C   0  0  0  0  0  0  0  0  0  0  0  0
    2.3959   -0.4258    3.8963 C   0  0  0  0  0  0  0  0  0  0  0  0
    3.7127   -0.7150    3.8021 N   0  0  0  0  0  4  0  0  0  0  0  0
    4.5396   -0.7492    5.0204 C   0  0  0  0  0  0  0  0  0  0  0  0
    4.2723   -1.0005    2.6055 C   0  0  0  0  0  0  0  0  0  0  0  0
    3.5078   -0.9842    1.4442 C   0  0  0  0  0  0  0  0  0  0  0  0
    0.0069   -0.0122   -2.4800 C   0  0  0  0  0  0  0  0  0  0  0  0
    1.3664   -0.2646   -3.0392 C   0  0  0  0  0  0  0  0  0  0  0  0
   -1.1189    0.0476   -3.2817 N   0  0  0  0  0  0  0  0  0  0  0  0
   -1.1421   -0.1994   -4.7102 C   0  0  0  0  0  0  0  0  0  0  0  0
   -5.9143    2.0590    0.0548 H   0  0  0  0  0  0  0  0  0  0  0  0
   -4.6675    1.9584    1.2972 H   0  0  0  0  0  0  0  0  0  0  0  0
   -5.5799    0.4976    0.8444 H   0  0  0  0  0  0  0  0  0  0  0  0
   -5.5228    1.1369   -2.2128 H   0  0  0  0  0  0  0  0  0  0  0  0
   -3.8827    0.5459   -3.9504 H   0  0  0  0  0  0  0  0  0  0  0  0
   -2.4706    0.9186    0.8151 H   0  0  0  0  0  0  0  0  0  0  0  0
    0.1669    1.0107    0.7121 H   0  0  0  0  0  0  0  0  0  0  0  0
    1.5715   -1.4746   -0.4241 H   0  0  0  0  0  0  0  0  0  0  0  0
    0.5332   -0.1764    2.8628 H   0  0  0  0  0  0  0  0  0  0  0  0
    1.9911   -0.2262    4.8846 H   0  0  0  0  0  0  0  0  0  0  0  0
    4.1429   -0.0309    5.7426 H   0  0  0  0  0  0  0  0  0  0  0  0
    5.5662   -0.4746    4.7646 H   0  0  0  0  0  0  0  0  0  0  0  0
    4.4954   -1.7663    5.4173 H   0  0  0  0  0  0  0  0  0  0  0  0
    5.3311   -1.2436    2.5873 H   0  0  0  0  0  0  0  0  0  0  0  0
    3.9772   -1.2150    0.4894 H   0  0  0  0  0  0  0  0  0  0  0  0
    1.5290   -1.3390   -3.1700 H   0  0  0  0  0  0  0  0  0  0  0  0
    1.4984    0.2291   -4.0074 H   0  0  0  0  0  0  0  0  0  0  0  0
    2.1484    0.1250   -2.3805 H   0  0  0  0  0  0  0  0  0  0  0  0
   -2.1261   -0.5706   -5.0050 H   0  0  0  0  0  0  0  0  0  0  0  0
   -0.3992   -0.9611   -4.9589 H   0  0  0  0  0  0  0  0  0  0  0  0
   -0.9175    0.7407   -5.2197 H   0  0  0  0  0  0  0  0  0  0  0  0
  1  2  1  0
  2  3  2  0
  3  4  1  0
  4  5  2  0
  5  6  1  0
  6  7  2  0
  6  8  1  0
  8  9  1  0
  9 10  2  3
 10 11  1  0
 11 12  2  0
 12 13  1  0
 13 14  2  0
 14 15  1  0
 14 16  1  0
 16 17  2  0
  8 18  2  0
 18 19  1  0
 18 20  1  0
 20 21  1  0
  7  2  1  0
 17 11  1  0
 20  5  1  0
  1 22  1  0
  1 23  1  0
  1 24  1  0
  3 25  1  0
  4 26  1  0
  7 27  1  0
  9 28  1  0
 10 29  1  0
 12 30  1  0
 13 31  1  0
 15 32  1  0
 15 33  1  0
 15 34  1  0
 16 35  1  0
 17 36  1  0
 19 37  1  0
 19 38  1  0
 19 39  1  0
 21 40  1  0
 21 41  1  0
 21 42  1  0
M  CHG  1  14   1
M  END
$$$$
