
     RDKit          3D

 84 86  0  0  0  0  0  0  0  0999 V2000
   -4.1763    3.8577    0.4899 C   0  0  0  0  0  0  0  0  0  0  0  0
   -2.6912    3.6863    0.5787 C   0  0  0  0  0  0  0  0  0  0  0  0
   -1.8772    4.5318    0.2403 O   0  0  0  0  0  0  0  0  0  0  0  0
   -2.4019    2.4633    1.0990 O   0  0  0  0  0  0  0  0  0  0  0  0
   -1.0088    2.1218    1.2081 C   0  0  1  0  0  0  0  0  0  0  0  0
   -0.5193    2.2394    2.6553 C   0  0  1  0  0  0  0  0  0  0  0  0
   -0.9960    3.4727    3.4099 C   0  0  0  0  0  0  0  0  0  0  0  0
   -0.9535    0.9236    3.3386 C   0  0  0  0  0  0  0  0  0  0  0  0
   -1.4057   -0.0683    2.2132 C   0  0  2  0  0  0  0  0  0  0  0  0
   -2.8443   -0.0243    2.1201 O   0  0  0  0  0  0  0  0  0  0  0  0
   -3.5737   -0.4636    3.1801 C   0  0  0  0  0  0  0  0  0  0  0  0
   -5.0316   -0.2313    2.9284 C   0  0  0  0  0  0  0  0  0  0  0  0
   -3.1195   -0.9938    4.1817 O   0  0  0  0  0  0  0  0  0  0  0  0
   -0.7665   -1.4883    2.3758 C   0  0  0  0  0  0  0  0  0  0  0  0
    0.1458   -1.6897    3.1833 O   0  0  0  0  0  0  0  0  0  0  0  0
   -1.1989   -2.6249    1.4754 C   0  0  0  0  0  0  0  0  0  0  0  0
   -2.6661   -2.8767    1.2931 C   0  0  0  0  0  0  0  0  0  0  0  0
   -0.3069   -3.4774    0.9260 C   0  0  0  0  0  0  0  0  0  0  0  0
    1.1994   -3.4716    0.9974 C   0  0  0  0  0  0  0  0  0  0  0  0
    1.9258   -3.6087   -0.3808 C   0  0  0  0  0  0  0  0  0  0  0  0
    1.6897   -5.0266   -0.9555 C   0  0  0  0  0  0  0  0  0  0  0  0
    3.4444   -3.4721   -0.1289 C   0  0  0  0  0  0  0  0  0  0  0  0
    1.4250   -2.5398   -1.4122 C   0  0  2  0  0  0  0  0  0  0  0  0
    2.1478   -2.7009   -2.6592 O   0  0  0  0  0  0  0  0  0  0  0  0
    1.4713   -3.1871   -3.7322 C   0  0  0  0  0  0  0  0  0  0  0  0
    2.3833   -3.2565   -4.9186 C   0  0  0  0  0  0  0  0  0  0  0  0
    0.2954   -3.5229   -3.7452 O   0  0  0  0  0  0  0  0  0  0  0  0
    1.6696   -1.0904   -0.9662 C   0  0  0  0  0  0  0  0  0  0  0  0
    0.8425   -0.0557   -1.7508 C   0  0  2  0  0  0  0  0  0  0  0  0
    1.2869    1.2648   -1.3647 O   0  0  0  0  0  0  0  0  0  0  0  0
    2.2631    1.8037   -2.1401 C   0  0  0  0  0  0  0  0  0  0  0  0
    2.7760    1.2860   -3.1198 O   0  0  0  0  0  0  0  0  0  0  0  0
    2.6307    3.1568   -1.6540 C   0  0  0  0  0  0  0  0  0  0  0  0
    2.4255    3.5523   -0.3270 C   0  0  0  0  0  0  0  0  0  0  0  0
    2.7920    4.8359    0.0846 C   0  0  0  0  0  0  0  0  0  0  0  0
    3.3737    5.7221   -0.8217 C   0  0  0  0  0  0  0  0  0  0  0  0
    3.5959    5.3279   -2.1407 C   0  0  0  0  0  0  0  0  0  0  0  0
    3.2286    4.0468   -2.5560 C   0  0  0  0  0  0  0  0  0  0  0  0
   -0.6696   -0.1184   -1.5249 C   0  0  0  0  0  0  0  0  0  0  0  0
   -1.4543   -0.4952   -2.7626 C   0  0  0  0  0  0  0  0  0  0  0  0
   -1.3474    0.1806   -0.3947 C   0  0  0  0  0  0  0  0  0  0  0  0
   -0.7970    0.6170    0.9431 C   0  0  1  0  0  0  0  0  0  0  0  0
   -4.5987    3.0900   -0.1630 H   0  0  0  0  0  0  0  0  0  0  0  0
   -4.6168    3.7979    1.4882 H   0  0  0  0  0  0  0  0  0  0  0  0
   -4.4028    4.8396    0.0650 H   0  0  0  0  0  0  0  0  0  0  0  0
   -0.3978    2.7199    0.5242 H   0  0  0  0  0  0  0  0  0  0  0  0
    0.5797    2.2574    2.6395 H   0  0  0  0  0  0  0  0  0  0  0  0
   -2.0857    3.4838    3.5214 H   0  0  0  0  0  0  0  0  0  0  0  0
   -0.5604    3.4988    4.4144 H   0  0  0  0  0  0  0  0  0  0  0  0
   -0.6950    4.3867    2.8883 H   0  0  0  0  0  0  0  0  0  0  0  0
   -1.7531    1.1212    4.0602 H   0  0  0  0  0  0  0  0  0  0  0  0
   -0.1019    0.5459    3.9150 H   0  0  0  0  0  0  0  0  0  0  0  0
   -5.2080    0.8262    2.7104 H   0  0  0  0  0  0  0  0  0  0  0  0
   -5.3651   -0.8550    2.0949 H   0  0  0  0  0  0  0  0  0  0  0  0
   -5.6010   -0.4997    3.8223 H   0  0  0  0  0  0  0  0  0  0  0  0
   -2.8609   -3.8214    0.7709 H   0  0  0  0  0  0  0  0  0  0  0  0
   -3.1320   -2.0897    0.6946 H   0  0  0  0  0  0  0  0  0  0  0  0
   -3.1689   -2.9538    2.2608 H   0  0  0  0  0  0  0  0  0  0  0  0
   -0.7104   -4.3163    0.3587 H   0  0  0  0  0  0  0  0  0  0  0  0
    1.5684   -2.5769    1.5047 H   0  0  0  0  0  0  0  0  0  0  0  0
    1.4961   -4.3119    1.6401 H   0  0  0  0  0  0  0  0  0  0  0  0
    2.3310   -5.2215   -1.8223 H   0  0  0  0  0  0  0  0  0  0  0  0
    0.6523   -5.1681   -1.2770 H   0  0  0  0  0  0  0  0  0  0  0  0
    1.9152   -5.7973   -0.2103 H   0  0  0  0  0  0  0  0  0  0  0  0
    4.0196   -3.5618   -1.0565 H   0  0  0  0  0  0  0  0  0  0  0  0
    3.8008   -4.2549    0.5509 H   0  0  0  0  0  0  0  0  0  0  0  0
    3.6947   -2.5087    0.3280 H   0  0  0  0  0  0  0  0  0  0  0  0
    0.3525   -2.6916   -1.5707 H   0  0  0  0  0  0  0  0  0  0  0  0
    3.2168   -3.9315   -4.7065 H   0  0  0  0  0  0  0  0  0  0  0  0
    2.7486   -2.2556   -5.1632 H   0  0  0  0  0  0  0  0  0  0  0  0
    1.8304   -3.6455   -5.7780 H   0  0  0  0  0  0  0  0  0  0  0  0
    1.4845   -0.9681    0.1000 H   0  0  0  0  0  0  0  0  0  0  0  0
    2.7312   -0.8440   -1.1030 H   0  0  0  0  0  0  0  0  0  0  0  0
    1.0246   -0.2027   -2.8230 H   0  0  0  0  0  0  0  0  0  0  0  0
    1.9909    2.8698    0.3963 H   0  0  0  0  0  0  0  0  0  0  0  0
    2.6237    5.1461    1.1135 H   0  0  0  0  0  0  0  0  0  0  0  0
    3.6558    6.7217   -0.4989 H   0  0  0  0  0  0  0  0  0  0  0  0
    4.0544    6.0174   -2.8451 H   0  0  0  0  0  0  0  0  0  0  0  0
    3.4065    3.7452   -3.5863 H   0  0  0  0  0  0  0  0  0  0  0  0
   -1.1575    0.1299   -3.6104 H   0  0  0  0  0  0  0  0  0  0  0  0
   -2.5333   -0.3659   -2.6287 H   0  0  0  0  0  0  0  0  0  0  0  0
   -1.2816   -1.5425   -3.0173 H   0  0  0  0  0  0  0  0  0  0  0  0
   -2.4371    0.1372   -0.4311 H   0  0  0  0  0  0  0  0  0  0  0  0
    0.2836    0.4434    0.9630 H   0  0  0  0  0  0  0  0  0  0  0  0
  1  2  1  0
  2  3  2  0
  2  4  1  0
  4  5  1  0
  5  6  1  0
  6  7  1  0
  6  8  1  0
  8  9  1  0
  9 10  1  6
 10 11  1  0
 11 12  1  0
 11 13  2  0
  9 14  1  0
 14 15  2  0
 14 16  1  0
 16 17  1  0
 16 18  2  3
 18 19  1  0
 19 20  1  0
 20 21  1  0
 20 22  1  0
 20 23  1  0
 23 24  1  0
 24 25  1  0
 25 26  1  0
 25 27  2  0
 23 28  1  0
 28 29  1  0
 29 30  1  0
 30 31  1  0
 31 32  2  0
 31 33  1  0
 33 34  2  0
 34 35  1  0
 35 36  2  0
 36 37  1  0
 37 38  2  0
 29 39  1  0
 39 40  1  0
 39 41  2  0
 41 42  1  0
 42  5  1  0
 42  9  1  0
 38 33  1  0
  1 43  1  0
  1 44  1  0
  1 45  1  0
  5 46  1  6
  6 47  1  6
  7 48  1  0
  7 49  1  0
  7 50  1  0
  8 51  1  0
  8 52  1  0
 12 53  1  0
 12 54  1  0
 12 55  1  0
 17 56  1  0
 17 57  1  0
 17 58  1  0
 18 59  1  0
 19 60  1  0
 19 61  1  0
 21 62  1  0
 21 63  1  0
 21 64  1  0
 22 65  1  0
 22 66  1  0
 22 67  1  0
 23 68  1  6
 26 69  1  0
 26 70  1  0
 26 71  1  0
 28 72  1  0
 28 73  1  0
 29 74  1  6
 34 75  1  0
 35 76  1  0
 36 77  1  0
 37 78  1  0
 38 79  1  0
 40 80  1  0
 40 81  1  0
 40 82  1  0
 41 83  1  0
 42 84  1  6
M  END
$$$$
