
     RDKit          3D

 60 63  0  0  0  0  0  0  0  0999 V2000
    7.9569   -3.4840   -0.4227 C   0  0  0  0  0  0  0  0  0  0  0  0
    7.8691   -2.2327    0.2468 O   0  0  0  0  0  0  0  0  0  0  0  0
    6.6516   -1.8958    0.7712 C   0  0  0  0  0  0  0  0  0  0  0  0
    5.4823   -2.6528    0.6870 C   0  0  0  0  0  0  0  0  0  0  0  0
    4.2974   -2.1878    1.2710 C   0  0  0  0  0  0  0  0  0  0  0  0
    4.2685   -0.9630    1.9514 C   0  0  0  0  0  0  0  0  0  0  0  0
    2.9910   -0.4421    2.5564 C   0  0  0  0  0  0  0  0  0  0  0  0
    2.3311    0.4605    1.6453 N   0  0  0  0  0  0  0  0  0  0  0  0
    2.4214    1.8341    1.7676 C   0  0  0  0  0  0  0  0  0  0  0  0
    3.0502    2.3794    2.6716 O   0  0  0  0  0  0  0  0  0  0  0  0
    1.8344    2.6053    0.5701 C   0  0  0  0  0  0  0  0  0  0  0  0
    1.5814    4.0766    0.8834 C   0  0  0  0  0  0  0  0  0  0  0  0
    0.6674    1.9057    0.0039 N   0  0  0  0  0  0  0  0  0  0  0  0
    0.8802    1.2889   -1.2403 N   0  0  0  0  0  0  0  0  0  0  0  0
   -0.0811    0.6619   -1.8596 C   0  0  0  0  0  0  0  0  0  0  0  0
    0.2145    0.0456   -3.1975 C   0  0  0  0  0  0  0  0  0  0  0  0
   -1.3797    0.5736   -1.2417 C   0  0  0  0  0  0  0  0  0  0  0  0
   -2.5668   -0.0569   -1.5768 C   0  0  0  0  0  0  0  0  0  0  0  0
   -2.8623   -1.0073   -2.6803 C   0  0  0  0  0  0  0  0  0  0  0  0
   -3.4855    0.3369   -0.5948 N   0  0  0  0  0  0  0  0  0  0  0  0
   -4.9060    0.1850   -0.5309 C   0  0  0  0  0  0  0  0  0  0  0  0
   -5.5515    0.3699    0.7030 C   0  0  0  0  0  0  0  0  0  0  0  0
   -6.9390    0.2374    0.8118 C   0  0  0  0  0  0  0  0  0  0  0  0
   -7.7121   -0.0579   -0.3136 C   0  0  0  0  0  0  0  0  0  0  0  0
   -9.1966   -0.2331   -0.1930 C   0  0  0  0  0  0  0  0  0  0  0  0
   -7.0739   -0.2316   -1.5453 C   0  0  0  0  0  0  0  0  0  0  0  0
   -5.6841   -0.0983   -1.6587 C   0  0  0  0  0  0  0  0  0  0  0  0
   -2.8514    0.9634    0.4337 N   0  0  0  0  0  0  0  0  0  0  0  0
   -1.6049    1.1673    0.0038 C   0  0  0  0  0  0  0  0  0  0  0  0
   -0.5506    1.8765    0.7185 C   0  0  0  0  0  0  0  0  0  0  0  0
   -0.7058    2.3780    1.8280 O   0  0  0  0  0  0  0  0  0  0  0  0
    5.4433   -0.2041    2.0240 C   0  0  0  0  0  0  0  0  0  0  0  0
    6.6233   -0.6706    1.4403 C   0  0  0  0  0  0  0  0  0  0  0  0
    8.9904   -3.6100   -0.7609 H   0  0  0  0  0  0  0  0  0  0  0  0
    7.7244   -4.3127    0.2535 H   0  0  0  0  0  0  0  0  0  0  0  0
    7.3121   -3.5035   -1.3073 H   0  0  0  0  0  0  0  0  0  0  0  0
    5.4567   -3.6078    0.1731 H   0  0  0  0  0  0  0  0  0  0  0  0
    3.3962   -2.7924    1.1915 H   0  0  0  0  0  0  0  0  0  0  0  0
    2.2986   -1.2676    2.7552 H   0  0  0  0  0  0  0  0  0  0  0  0
    3.1935    0.0489    3.5146 H   0  0  0  0  0  0  0  0  0  0  0  0
    1.9978    0.0969    0.7601 H   0  0  0  0  0  0  0  0  0  0  0  0
    2.6192    2.5757   -0.1990 H   0  0  0  0  0  0  0  0  0  0  0  0
    2.5258    4.5894    1.0972 H   0  0  0  0  0  0  0  0  0  0  0  0
    0.9445    4.2110    1.7625 H   0  0  0  0  0  0  0  0  0  0  0  0
    1.1056    4.5813    0.0363 H   0  0  0  0  0  0  0  0  0  0  0  0
   -0.5703    0.3002   -3.9145 H   0  0  0  0  0  0  0  0  0  0  0  0
    0.2810   -1.0404   -3.0917 H   0  0  0  0  0  0  0  0  0  0  0  0
    1.1694    0.4152   -3.5824 H   0  0  0  0  0  0  0  0  0  0  0  0
   -3.1834   -0.4715   -3.5788 H   0  0  0  0  0  0  0  0  0  0  0  0
   -1.9754   -1.5943   -2.9377 H   0  0  0  0  0  0  0  0  0  0  0  0
   -3.6232   -1.7411   -2.3977 H   0  0  0  0  0  0  0  0  0  0  0  0
   -4.9830    0.6067    1.6024 H   0  0  0  0  0  0  0  0  0  0  0  0
   -7.4076    0.3695    1.7846 H   0  0  0  0  0  0  0  0  0  0  0  0
   -9.7023    0.0794   -1.1127 H   0  0  0  0  0  0  0  0  0  0  0  0
   -9.5988    0.3784    0.6219 H   0  0  0  0  0  0  0  0  0  0  0  0
   -9.4346   -1.2834    0.0030 H   0  0  0  0  0  0  0  0  0  0  0  0
   -7.6581   -0.4608   -2.4332 H   0  0  0  0  0  0  0  0  0  0  0  0
   -5.2613   -0.1823   -2.6516 H   0  0  0  0  0  0  0  0  0  0  0  0
    5.4423    0.7586    2.5337 H   0  0  0  0  0  0  0  0  0  0  0  0
    7.5281   -0.0710    1.5074 H   0  0  0  0  0  0  0  0  0  0  0  0
  1  2  1  0
  2  3  1  0
  3  4  2  0
  4  5  1  0
  5  6  2  0
  6  7  1  0
  7  8  1  0
  8  9  1  0
  9 10  2  0
  9 11  1  0
 11 12  1  0
 11 13  1  0
 13 14  1  0
 14 15  2  0
 15 16  1  0
 15 17  1  0
 17 18  2  0
 18 19  1  0
 18 20  1  0
 20 21  1  0
 21 22  2  0
 22 23  1  0
 23 24  2  0
 24 25  1  0
 24 26  1  0
 26 27  2  0
 20 28  1  0
 28 29  2  0
 29 30  1  0
 30 31  2  0
  6 32  1  0
 32 33  2  0
 33  3  1  0
 30 13  1  0
 29 17  1  0
 27 21  1  0
  1 34  1  0
  1 35  1  0
  1 36  1  0
  4 37  1  0
  5 38  1  0
  7 39  1  0
  7 40  1  0
  8 41  1  0
 11 42  1  0
 12 43  1  0
 12 44  1  0
 12 45  1  0
 16 46  1  0
 16 47  1  0
 16 48  1  0
 19 49  1  0
 19 50  1  0
 19 51  1  0
 22 52  1  0
 23 53  1  0
 25 54  1  0
 25 55  1  0
 25 56  1  0
 26 57  1  0
 27 58  1  0
 32 59  1  0
 33 60  1  0
M  END
$$$$
