
     RDKit          3D

 53 56  0  0  0  0  0  0  0  0999 V2000
    7.5870    1.9423   -2.9796 C   0  0  0  0  0  0  0  0  0  0  0  0
    6.6427    2.3861   -2.0135 O   0  0  0  0  0  0  0  0  0  0  0  0
    5.8079    1.4356   -1.4821 C   0  0  0  0  0  0  0  0  0  0  0  0
    4.8943    1.9120   -0.5396 C   0  0  0  0  0  0  0  0  0  0  0  0
    3.9821    1.0461    0.0731 C   0  0  0  0  0  0  0  0  0  0  0  0
    3.9729   -0.3156   -0.2455 C   0  0  0  0  0  0  0  0  0  0  0  0
    3.0351   -1.1253    0.4252 N   0  0  0  0  0  0  0  0  0  0  0  0
    2.7588   -2.4639    0.2093 C   0  0  0  0  0  0  0  0  0  0  0  0
    3.2583   -3.1750   -0.6611 O   0  0  0  0  0  0  0  0  0  0  0  0
    1.7430   -3.0377    1.1903 C   0  0  0  0  0  0  0  0  0  0  0  0
    0.0424   -2.7285    0.6309 S   0  0  0  0  0  0  0  0  0  0  0  0
   -0.2311   -1.1188    1.2247 C   0  0  0  0  0  0  0  0  0  0  0  0
    0.7014   -0.3853    1.7900 N   0  0  0  0  0  0  0  0  0  0  0  0
    0.1207    0.7704    2.2249 N   0  0  0  0  0  0  0  0  0  0  0  0
   -1.1644    0.7331    1.9209 C   0  0  0  0  0  0  0  0  0  0  0  0
   -2.1016    1.8902    2.0969 C   0  0  0  0  0  0  0  0  0  0  0  0
   -2.6425    2.4379    0.8021 C   0  0  0  0  0  0  0  0  0  0  0  0
   -3.9497    2.4382    0.3516 C   0  0  0  0  0  0  0  0  0  0  0  0
   -4.0860    3.0575   -0.9248 C   0  0  0  0  0  0  0  0  0  0  0  0
   -2.8783    3.5116   -1.4125 C   0  0  0  0  0  0  0  0  0  0  0  0
   -1.5965    3.2073   -0.3210 S   0  0  0  0  0  0  0  0  0  0  0  0
   -1.4618   -0.4883    1.3198 N   0  0  0  0  0  0  0  0  0  0  0  0
   -2.7414   -0.9714    0.9317 C   0  0  0  0  0  0  0  0  0  0  0  0
   -2.9179   -1.5745   -0.3191 C   0  0  0  0  0  0  0  0  0  0  0  0
   -4.1758   -2.0631   -0.6844 C   0  0  0  0  0  0  0  0  0  0  0  0
   -5.2687   -1.9472    0.1860 C   0  0  0  0  0  0  0  0  0  0  0  0
   -6.6084   -2.4980   -0.2099 C   0  0  0  0  0  0  0  0  0  0  0  0
   -5.0819   -1.3524    1.4391 C   0  0  0  0  0  0  0  0  0  0  0  0
   -3.8262   -0.8618    1.8110 C   0  0  0  0  0  0  0  0  0  0  0  0
    4.8886   -0.7923   -1.1830 C   0  0  0  0  0  0  0  0  0  0  0  0
    5.8003    0.0782   -1.7999 C   0  0  0  0  0  0  0  0  0  0  0  0
    8.1688    2.8126   -3.3063 H   0  0  0  0  0  0  0  0  0  0  0  0
    8.2825    1.2157   -2.5463 H   0  0  0  0  0  0  0  0  0  0  0  0
    7.0837    1.5302   -3.8601 H   0  0  0  0  0  0  0  0  0  0  0  0
    4.8866    2.9682   -0.2833 H   0  0  0  0  0  0  0  0  0  0  0  0
    3.2790    1.4548    0.7965 H   0  0  0  0  0  0  0  0  0  0  0  0
    2.4286   -0.6420    1.0941 H   0  0  0  0  0  0  0  0  0  0  0  0
    1.9182   -2.6585    2.2043 H   0  0  0  0  0  0  0  0  0  0  0  0
    1.8954   -4.1213    1.2334 H   0  0  0  0  0  0  0  0  0  0  0  0
   -2.9212    1.6168    2.7696 H   0  0  0  0  0  0  0  0  0  0  0  0
   -1.5667    2.6969    2.6173 H   0  0  0  0  0  0  0  0  0  0  0  0
   -4.7760    2.0118    0.9062 H   0  0  0  0  0  0  0  0  0  0  0  0
   -5.0209    3.1606   -1.4610 H   0  0  0  0  0  0  0  0  0  0  0  0
   -2.6899    4.0148   -2.3481 H   0  0  0  0  0  0  0  0  0  0  0  0
   -2.1050   -1.6510   -1.0405 H   0  0  0  0  0  0  0  0  0  0  0  0
   -4.2982   -2.5302   -1.6599 H   0  0  0  0  0  0  0  0  0  0  0  0
   -6.5993   -3.5904   -0.1446 H   0  0  0  0  0  0  0  0  0  0  0  0
   -7.4033   -2.1209    0.4413 H   0  0  0  0  0  0  0  0  0  0  0  0
   -6.8559   -2.2004   -1.2321 H   0  0  0  0  0  0  0  0  0  0  0  0
   -5.9140   -1.2744    2.1373 H   0  0  0  0  0  0  0  0  0  0  0  0
   -3.7111   -0.4536    2.8090 H   0  0  0  0  0  0  0  0  0  0  0  0
    4.9260   -1.8418   -1.4563 H   0  0  0  0  0  0  0  0  0  0  0  0
    6.4897   -0.3452   -2.5215 H   0  0  0  0  0  0  0  0  0  0  0  0
  1  2  1  0
  2  3  1  0
  3  4  2  0
  4  5  1  0
  5  6  2  0
  6  7  1  0
  7  8  1  0
  8  9  2  0
  8 10  1  0
 10 11  1  0
 11 12  1  0
 12 13  2  0
 13 14  1  0
 14 15  2  0
 15 16  1  0
 16 17  1  0
 17 18  2  0
 18 19  1  0
 19 20  2  0
 20 21  1  0
 15 22  1  0
 22 23  1  0
 23 24  2  0
 24 25  1  0
 25 26  2  0
 26 27  1  0
 26 28  1  0
 28 29  2  0
  6 30  1  0
 30 31  2  0
 31  3  1  0
 22 12  1  0
 29 23  1  0
 21 17  1  0
  1 32  1  0
  1 33  1  0
  1 34  1  0
  4 35  1  0
  5 36  1  0
  7 37  1  0
 10 38  1  0
 10 39  1  0
 16 40  1  0
 16 41  1  0
 18 42  1  0
 19 43  1  0
 20 44  1  0
 24 45  1  0
 25 46  1  0
 27 47  1  0
 27 48  1  0
 27 49  1  0
 28 50  1  0
 29 51  1  0
 30 52  1  0
 31 53  1  0
M  END
$$$$
