
     RDKit          3D

 39 41  0  0  0  0  0  0  0  0999 V2000
   -1.4224    0.5481   -2.1240 C   0  0  0  0  0  0  0  0  0  0  0  0
   -1.4192   -0.5804   -1.2561 O   0  0  0  0  0  0  0  0  0  0  0  0
   -2.4157   -0.6524   -0.3169 C   0  0  0  0  0  0  0  0  0  0  0  0
   -3.4774    0.2489   -0.1988 C   0  0  0  0  0  0  0  0  0  0  0  0
   -4.4524    0.0785    0.7973 C   0  0  0  0  0  0  0  0  0  0  0  0
   -5.6109    1.0293    0.8992 C   0  0  0  0  0  0  0  0  0  0  0  0
   -4.3738   -1.0255    1.6553 C   0  0  0  0  0  0  0  0  0  0  0  0
   -3.3179   -1.9292    1.5468 C   0  0  0  0  0  0  0  0  0  0  0  0
   -2.3296   -1.7271    0.5824 C   0  0  0  0  0  0  0  0  0  0  0  0
   -1.3022   -2.6274    0.4307 O   0  0  0  0  0  0  0  0  0  0  0  0
   -0.4378   -2.6949    1.5631 C   0  0  0  0  0  0  0  0  0  0  0  0
    0.7820   -1.7644    1.5073 C   0  0  0  0  0  0  0  0  0  0  0  0
    1.5015   -1.6362    2.4947 O   0  0  0  0  0  0  0  0  0  0  0  0
    0.9561   -1.1705    0.2814 N   0  0  0  0  0  0  0  0  0  0  0  0
    1.9351   -0.2846   -0.0852 C   0  0  0  0  0  0  0  0  0  0  0  0
    1.9542    0.2934   -1.2679 N   0  0  0  0  0  0  0  0  0  0  0  0
    3.0310    1.1458   -1.4162 N   0  0  0  0  0  0  0  0  0  0  0  0
    3.7819    1.1570   -0.3383 C   0  0  0  0  0  0  0  0  0  0  0  0
    5.0697    2.0307   -0.2267 C   0  0  0  0  0  0  0  0  0  0  0  0
    6.4191    1.3673   -0.3435 C   0  0  0  0  0  0  0  0  0  0  0  0
    5.9226    2.2482   -1.4518 C   0  0  0  0  0  0  0  0  0  0  0  0
    3.2309    0.1570    0.9309 S   0  0  0  0  0  0  0  0  0  0  0  0
   -2.3141    0.5553   -2.7585 H   0  0  0  0  0  0  0  0  0  0  0  0
   -1.3293    1.4793   -1.5567 H   0  0  0  0  0  0  0  0  0  0  0  0
   -0.5496    0.4673   -2.7787 H   0  0  0  0  0  0  0  0  0  0  0  0
   -3.5769    1.0915   -0.8757 H   0  0  0  0  0  0  0  0  0  0  0  0
   -5.8817    1.1983    1.9477 H   0  0  0  0  0  0  0  0  0  0  0  0
   -6.4782    0.6213    0.3681 H   0  0  0  0  0  0  0  0  0  0  0  0
   -5.3611    2.0043    0.4666 H   0  0  0  0  0  0  0  0  0  0  0  0
   -5.1406   -1.1911    2.4098 H   0  0  0  0  0  0  0  0  0  0  0  0
   -3.2837   -2.7942    2.2036 H   0  0  0  0  0  0  0  0  0  0  0  0
   -0.9605   -2.5164    2.5115 H   0  0  0  0  0  0  0  0  0  0  0  0
   -0.0458   -3.7185    1.5959 H   0  0  0  0  0  0  0  0  0  0  0  0
    0.2347   -1.3120   -0.4235 H   0  0  0  0  0  0  0  0  0  0  0  0
    4.9778    2.8655    0.4601 H   0  0  0  0  0  0  0  0  0  0  0  0
    7.2195    1.7402    0.2844 H   0  0  0  0  0  0  0  0  0  0  0  0
    6.4616    0.2996   -0.5287 H   0  0  0  0  0  0  0  0  0  0  0  0
    5.6184    1.7770   -2.3828 H   0  0  0  0  0  0  0  0  0  0  0  0
    6.3846    3.2209   -1.5794 H   0  0  0  0  0  0  0  0  0  0  0  0
  1  2  1  0
  2  3  1  0
  3  4  2  0
  4  5  1  0
  5  6  1  0
  5  7  2  0
  7  8  1  0
  8  9  2  0
  9 10  1  0
 10 11  1  0
 11 12  1  0
 12 13  2  0
 12 14  1  0
 14 15  1  0
 15 16  2  0
 16 17  1  0
 17 18  2  0
 18 19  1  0
 19 20  1  0
 20 21  1  0
 18 22  1  0
  9  3  1  0
 22 15  1  0
 21 19  1  0
  1 23  1  0
  1 24  1  0
  1 25  1  0
  4 26  1  0
  6 27  1  0
  6 28  1  0
  6 29  1  0
  7 30  1  0
  8 31  1  0
 11 32  1  0
 11 33  1  0
 14 34  1  0
 19 35  1  0
 20 36  1  0
 20 37  1  0
 21 38  1  0
 21 39  1  0
M  END
$$$$
