
     RDKit          3D

 47 50  0  0  0  0  0  0  0  0999 V2000
   -4.0237    2.9897    0.9713 C   0  0  0  0  0  0  0  0  0  0  0  0
   -4.0284    1.4608    1.0013 C   0  0  0  0  0  0  0  0  0  0  0  0
   -2.6248    0.9003    1.1817 C   0  0  0  0  0  0  0  0  0  0  0  0
   -1.8053    0.9139   -0.0932 C   0  0  0  0  0  0  0  0  0  0  0  0
   -0.9914    1.8189   -0.3009 O   0  0  0  0  0  0  0  0  0  0  0  0
   -1.9422   -0.1630   -0.9624 N   0  0  0  0  0  0  0  0  0  0  0  0
   -1.0516   -0.2212   -2.1262 C   0  0  0  0  0  0  0  0  0  0  0  0
    0.3317   -0.7746   -1.7675 C   0  0  0  0  0  0  0  0  0  0  0  0
    0.6638   -1.9012   -2.1263 O   0  0  0  0  0  0  0  0  0  0  0  0
    1.0997    0.1152   -1.0382 N   0  0  0  0  0  0  0  0  0  0  0  0
    2.4039   -0.0698   -0.5414 C   0  0  0  0  0  0  0  0  0  0  0  0
    3.1467   -1.2411   -0.7163 C   0  0  0  0  0  0  0  0  0  0  0  0
    4.4374   -1.3508   -0.1869 C   0  0  0  0  0  0  0  0  0  0  0  0
    4.9939   -0.2882    0.5196 C   0  0  0  0  0  0  0  0  0  0  0  0
    4.2672    0.8947    0.6774 C   0  0  0  0  0  0  0  0  0  0  0  0
    2.9730    0.9982    0.1655 C   0  0  0  0  0  0  0  0  0  0  0  0
    4.7615    1.9976    1.3277 O   0  0  0  0  0  0  0  0  0  0  0  0
    6.1857    1.9224    1.4552 C   0  0  0  0  0  0  0  0  0  0  0  0
    6.6028    0.5508    1.9623 C   0  0  0  0  0  0  0  0  0  0  0  0
    6.2556   -0.4718    1.0206 O   0  0  0  0  0  0  0  0  0  0  0  0
   -2.9704   -1.1519   -0.8543 C   0  0  0  0  0  0  0  0  0  0  0  0
   -2.6414   -2.4997   -1.0604 C   0  0  0  0  0  0  0  0  0  0  0  0
   -3.6081   -3.4993   -0.9491 C   0  0  0  0  0  0  0  0  0  0  0  0
   -4.9233   -3.1664   -0.6475 C   0  0  0  0  0  0  0  0  0  0  0  0
   -5.2759   -1.8296   -0.4721 C   0  0  0  0  0  0  0  0  0  0  0  0
   -4.3117   -0.8182   -0.5653 C   0  0  0  0  0  0  0  0  0  0  0  0
   -4.9081    0.8657   -0.4860 S   0  0  0  0  0  0  0  0  0  0  0  0
   -3.4428    3.3830    0.1301 H   0  0  0  0  0  0  0  0  0  0  0  0
   -5.0407    3.3976    0.9019 H   0  0  0  0  0  0  0  0  0  0  0  0
   -3.5856    3.3886    1.8951 H   0  0  0  0  0  0  0  0  0  0  0  0
   -4.6278    1.1514    1.8664 H   0  0  0  0  0  0  0  0  0  0  0  0
   -2.6560   -0.1176    1.5893 H   0  0  0  0  0  0  0  0  0  0  0  0
   -2.0820    1.4842    1.9359 H   0  0  0  0  0  0  0  0  0  0  0  0
   -0.9268    0.7882   -2.5415 H   0  0  0  0  0  0  0  0  0  0  0  0
   -1.4907   -0.8314   -2.9260 H   0  0  0  0  0  0  0  0  0  0  0  0
    0.6521    1.0062   -0.8099 H   0  0  0  0  0  0  0  0  0  0  0  0
    2.7491   -2.0934   -1.2549 H   0  0  0  0  0  0  0  0  0  0  0  0
    5.0002   -2.2720   -0.3232 H   0  0  0  0  0  0  0  0  0  0  0  0
    2.4240    1.9277    0.3124 H   0  0  0  0  0  0  0  0  0  0  0  0
    6.6362    2.1445    0.4797 H   0  0  0  0  0  0  0  0  0  0  0  0
    6.4978    2.6997    2.1606 H   0  0  0  0  0  0  0  0  0  0  0  0
    6.1246    0.3167    2.9227 H   0  0  0  0  0  0  0  0  0  0  0  0
    7.6886    0.5172    2.1024 H   0  0  0  0  0  0  0  0  0  0  0  0
   -1.6192   -2.8035   -1.2757 H   0  0  0  0  0  0  0  0  0  0  0  0
   -3.3273   -4.5411   -1.0849 H   0  0  0  0  0  0  0  0  0  0  0  0
   -5.6742   -3.9447   -0.5531 H   0  0  0  0  0  0  0  0  0  0  0  0
   -6.3162   -1.5827   -0.2705 H   0  0  0  0  0  0  0  0  0  0  0  0
  1  2  1  0
  2  3  1  0
  3  4  1  0
  4  5  2  0
  4  6  1  0
  6  7  1  0
  7  8  1  0
  8  9  2  0
  8 10  1  0
 10 11  1  0
 11 12  2  0
 12 13  1  0
 13 14  2  0
 14 15  1  0
 15 16  2  0
 15 17  1  0
 17 18  1  0
 18 19  1  0
 19 20  1  0
  6 21  1  0
 21 22  2  0
 22 23  1  0
 23 24  2  0
 24 25  1  0
 25 26  2  0
 26 27  1  0
 27  2  1  0
 16 11  1  0
 26 21  1  0
 20 14  1  0
  1 28  1  0
  1 29  1  0
  1 30  1  0
  2 31  1  0
  3 32  1  0
  3 33  1  0
  7 34  1  0
  7 35  1  0
 10 36  1  0
 12 37  1  0
 13 38  1  0
 16 39  1  0
 18 40  1  0
 18 41  1  0
 19 42  1  0
 19 43  1  0
 22 44  1  0
 23 45  1  0
 24 46  1  0
 25 47  1  0
M  END
$$$$
