
     RDKit          3D

 31 33  0  0  0  0  0  0  0  0999 V2000
   -2.9963    1.6229    0.3763 C   0  0  0  0  0  0  0  0  0  0  0  0
   -3.1805    0.2020   -0.0500 C   0  0  0  0  0  0  0  0  0  0  0  0
   -4.4540   -0.3594   -0.3944 C   0  0  0  0  0  0  0  0  0  0  0  0
   -4.3723   -1.6812   -0.7614 C   0  0  0  0  0  0  0  0  0  0  0  0
   -2.7735   -2.2622   -0.6978 S   0  0  0  0  0  0  0  0  0  0  0  0
   -2.1619   -0.7397   -0.1682 C   0  0  0  0  0  0  0  0  0  0  0  0
   -0.6770   -0.5453    0.1084 C   0  0  0  0  0  0  0  0  0  0  0  0
   -0.1000   -1.6103    1.0170 C   0  0  0  0  0  0  0  0  0  0  0  0
    0.9203   -1.0269    1.9385 C   0  0  0  0  0  0  0  0  0  0  0  0
    0.8466   -1.2408    3.1539 O   0  0  0  0  0  0  0  0  0  0  0  0
    1.9715   -0.2929    1.5091 N   0  0  0  0  0  0  0  0  0  0  0  0
    2.4455    0.1638    0.2637 C   0  0  0  0  0  0  0  0  0  0  0  0
    3.7139    0.7839    0.3560 C   0  0  0  0  0  0  0  0  0  0  0  0
    4.3828    1.2848   -0.7606 C   0  0  0  0  0  0  0  0  0  0  0  0
    3.7948    1.1790   -2.0069 C   0  0  0  0  0  0  0  0  0  0  0  0
    2.5394    0.5839   -2.1203 C   0  0  0  0  0  0  0  0  0  0  0  0
    1.8372    0.0794   -0.9998 C   0  0  0  0  0  0  0  0  0  0  0  0
    0.2422   -0.5698   -1.4607 S   0  0  0  0  0  0  0  0  0  0  0  0
   -2.2941    2.1346   -0.2898 H   0  0  0  0  0  0  0  0  0  0  0  0
   -2.6069    1.6669    1.3985 H   0  0  0  0  0  0  0  0  0  0  0  0
   -3.9434    2.1716    0.3521 H   0  0  0  0  0  0  0  0  0  0  0  0
   -5.3898    0.1869   -0.3758 H   0  0  0  0  0  0  0  0  0  0  0  0
   -5.1782   -2.3340   -1.0670 H   0  0  0  0  0  0  0  0  0  0  0  0
   -0.5514    0.4510    0.5490 H   0  0  0  0  0  0  0  0  0  0  0  0
    0.3396   -2.4679    0.4934 H   0  0  0  0  0  0  0  0  0  0  0  0
   -0.8854   -2.0186    1.6682 H   0  0  0  0  0  0  0  0  0  0  0  0
    2.5551   -0.0678    2.3088 H   0  0  0  0  0  0  0  0  0  0  0  0
    4.2160    0.8755    1.3184 H   0  0  0  0  0  0  0  0  0  0  0  0
    5.3599    1.7482   -0.6517 H   0  0  0  0  0  0  0  0  0  0  0  0
    4.3013    1.5582   -2.8906 H   0  0  0  0  0  0  0  0  0  0  0  0
    2.0986    0.5240   -3.1161 H   0  0  0  0  0  0  0  0  0  0  0  0
  1  2  1  0
  2  3  1  0
  3  4  2  0
  4  5  1  0
  5  6  1  0
  6  7  1  0
  7  8  1  0
  8  9  1  0
  9 10  2  0
  9 11  1  0
 11 12  1  0
 12 13  2  0
 13 14  1  0
 14 15  2  0
 15 16  1  0
 16 17  2  0
 17 18  1  0
  6  2  2  0
 18  7  1  0
 17 12  1  0
  1 19  1  0
  1 20  1  0
  1 21  1  0
  3 22  1  0
  4 23  1  0
  7 24  1  0
  8 25  1  0
  8 26  1  0
 11 27  1  0
 13 28  1  0
 14 29  1  0
 15 30  1  0
 16 31  1  0
M  END
$$$$
