
     RDKit          3D

 37 39  0  0  0  0  0  0  0  0999 V2000
    4.7579    3.0333   -3.4012 C   0  0  0  0  0  0  0  0  0  0  0  0
    5.1040    2.1100   -2.3768 O   0  0  0  0  0  0  0  0  0  0  0  0
    4.0757    1.5513   -1.6659 C   0  0  0  0  0  0  0  0  0  0  0  0
    2.7198    1.8056   -1.8559 C   0  0  0  0  0  0  0  0  0  0  0  0
    1.7506    1.1698   -1.0624 C   0  0  0  0  0  0  0  0  0  0  0  0
    2.1436    0.2546   -0.0619 C   0  0  0  0  0  0  0  0  0  0  0  0
    1.4664   -0.5544    0.9047 C   0  0  0  0  0  0  0  0  0  0  0  0
    0.0691   -0.7162    1.1534 C   0  0  0  0  0  0  0  0  0  0  0  0
   -0.8945   -0.6912    0.2175 C   0  0  0  0  0  0  0  0  0  0  0  0
   -2.3217   -0.8763    0.5021 C   0  0  0  0  0  0  0  0  0  0  0  0
   -2.7840   -1.8366    1.4009 C   0  0  0  0  0  0  0  0  0  0  0  0
   -4.1507   -1.9869    1.6082 C   0  0  0  0  0  0  0  0  0  0  0  0
   -5.0372   -1.2126    0.9440 N   0  0  0  0  0  4  0  0  0  0  0  0
   -6.4804   -1.3963    1.1738 C   0  0  0  0  0  0  0  0  0  0  0  0
   -4.6142   -0.2911    0.0504 C   0  0  0  0  0  0  0  0  0  0  0  0
   -3.2568   -0.1085   -0.1897 C   0  0  0  0  0  0  0  0  0  0  0  0
    2.4270   -1.2022    1.6518 C   0  0  0  0  0  0  0  0  0  0  0  0
    3.6552   -0.8535    1.1555 N   0  0  0  0  0  0  0  0  0  0  0  0
    3.5111    0.0343    0.1150 C   0  0  0  0  0  0  0  0  0  0  0  0
    4.4885    0.6592   -0.6702 C   0  0  0  0  0  0  0  0  0  0  0  0
    4.2449    3.9077   -2.9872 H   0  0  0  0  0  0  0  0  0  0  0  0
    5.6857    3.3807   -3.8657 H   0  0  0  0  0  0  0  0  0  0  0  0
    4.1557    2.5523   -4.1790 H   0  0  0  0  0  0  0  0  0  0  0  0
    2.3741    2.5013   -2.6134 H   0  0  0  0  0  0  0  0  0  0  0  0
    0.7029    1.4012   -1.2210 H   0  0  0  0  0  0  0  0  0  0  0  0
   -0.1988   -0.8967    2.1925 H   0  0  0  0  0  0  0  0  0  0  0  0
   -0.6344   -0.5313   -0.8267 H   0  0  0  0  0  0  0  0  0  0  0  0
   -2.0900   -2.4829    1.9351 H   0  0  0  0  0  0  0  0  0  0  0  0
   -4.5441   -2.7282    2.2983 H   0  0  0  0  0  0  0  0  0  0  0  0
   -6.6397   -1.7288    2.2028 H   0  0  0  0  0  0  0  0  0  0  0  0
   -6.8319   -2.1474    0.4623 H   0  0  0  0  0  0  0  0  0  0  0  0
   -6.9920   -0.4428    1.0190 H   0  0  0  0  0  0  0  0  0  0  0  0
   -5.3686    0.2929   -0.4694 H   0  0  0  0  0  0  0  0  0  0  0  0
   -2.9362    0.6404   -0.9121 H   0  0  0  0  0  0  0  0  0  0  0  0
    2.3524   -1.8922    2.4817 H   0  0  0  0  0  0  0  0  0  0  0  0
    4.5447   -1.1851    1.5041 H   0  0  0  0  0  0  0  0  0  0  0  0
    5.5457    0.4665   -0.5131 H   0  0  0  0  0  0  0  0  0  0  0  0
  1  2  1  0
  2  3  1  0
  3  4  2  0
  4  5  1  0
  5  6  2  0
  6  7  1  0
  7  8  1  0
  8  9  2  3
  9 10  1  0
 10 11  2  0
 11 12  1  0
 12 13  2  0
 13 14  1  0
 13 15  1  0
 15 16  2  0
  7 17  2  0
 17 18  1  0
 18 19  1  0
 19 20  2  0
 20  3  1  0
 19  6  1  0
 16 10  1  0
  1 21  1  0
  1 22  1  0
  1 23  1  0
  4 24  1  0
  5 25  1  0
  8 26  1  0
  9 27  1  0
 11 28  1  0
 12 29  1  0
 14 30  1  0
 14 31  1  0
 14 32  1  0
 15 33  1  0
 16 34  1  0
 17 35  1  0
 18 36  1  0
 20 37  1  0
M  CHG  1  13   1
M  END
$$$$
