
     RDKit          3D

 59 61  0  0  0  0  0  0  0  0999 V2000
   -7.4337   -2.6268   -0.2954 C   0  0  0  0  0  0  0  0  0  0  0  0
   -6.2247   -2.1723    0.0651 C   0  0  0  0  0  0  0  0  0  0  0  0
   -5.7833   -0.7150    0.2375 C   0  0  0  0  0  0  0  0  0  0  0  0
   -5.5523   -0.5558    1.7638 C   0  0  0  0  0  0  0  0  0  0  0  0
   -6.8670    0.3288   -0.1316 C   0  0  0  0  0  0  0  0  0  0  0  0
   -4.5147   -0.4450   -0.6114 C   0  0  0  0  0  0  0  0  0  0  0  0
   -3.2940   -0.0556   -0.0182 C   0  0  0  0  0  0  0  0  0  0  0  0
   -2.1258    0.1928   -0.7710 C   0  0  0  0  0  0  0  0  0  0  0  0
   -0.8546    0.6068   -0.0489 C   0  0  2  0  0  0  0  0  0  0  0  0
   -0.3992    2.0096   -0.4292 C   0  0  0  0  0  0  0  0  0  0  0  0
    0.8277    2.3270    0.3742 C   0  0  0  0  0  0  0  0  0  0  0  0
    1.1104    3.4663    0.7392 O   0  0  0  0  0  0  0  0  0  0  0  0
    1.7462    1.2082    0.6651 C   0  0  0  0  0  0  0  0  0  0  0  0
    1.3644   -0.0764    0.2783 C   0  0  0  0  0  0  0  0  0  0  0  0
    2.2346   -1.1472    0.4675 C   0  0  0  0  0  0  0  0  0  0  0  0
    3.4727   -0.9337    1.0757 C   0  0  0  0  0  0  0  0  0  0  0  0
    4.3160   -1.9925    1.2705 O   0  0  0  0  0  0  0  0  0  0  0  0
    3.8698    0.3437    1.5017 C   0  0  0  0  0  0  0  0  0  0  0  0
    5.2257    0.5666    2.1378 C   0  0  0  0  0  0  0  0  0  0  0  0
    6.2644    1.0077    1.1381 C   0  0  0  0  0  0  0  0  0  0  0  0
    7.3545    0.3411    0.7087 C   0  0  0  0  0  0  0  0  0  0  0  0
    8.2864    0.9669   -0.2956 C   0  0  0  0  0  0  0  0  0  0  0  0
    7.7542   -1.0412    1.1434 C   0  0  0  0  0  0  0  0  0  0  0  0
    2.9898    1.4174    1.2806 C   0  0  0  0  0  0  0  0  0  0  0  0
    3.3918    2.6693    1.6776 O   0  0  0  0  0  0  0  0  0  0  0  0
    0.1639   -0.3721   -0.3117 O   0  0  0  0  0  0  0  0  0  0  0  0
   -2.1912    0.0409   -2.1574 C   0  0  0  0  0  0  0  0  0  0  0  0
   -1.0754    0.2772   -2.9090 O   0  0  0  0  0  0  0  0  0  0  0  0
   -3.3750   -0.3423   -2.7810 C   0  0  0  0  0  0  0  0  0  0  0  0
   -4.5180   -0.5804   -2.0127 C   0  0  0  0  0  0  0  0  0  0  0  0
   -5.6674   -0.9551   -2.6534 O   0  0  0  0  0  0  0  0  0  0  0  0
   -8.2620   -1.9637   -0.5187 H   0  0  0  0  0  0  0  0  0  0  0  0
   -7.6152   -3.6931   -0.3879 H   0  0  0  0  0  0  0  0  0  0  0  0
   -5.4498   -2.9146    0.2585 H   0  0  0  0  0  0  0  0  0  0  0  0
   -5.2510    0.4665    2.0228 H   0  0  0  0  0  0  0  0  0  0  0  0
   -6.4691   -0.7691    2.3286 H   0  0  0  0  0  0  0  0  0  0  0  0
   -4.7812   -1.2410    2.1376 H   0  0  0  0  0  0  0  0  0  0  0  0
   -7.7489    0.2364    0.5140 H   0  0  0  0  0  0  0  0  0  0  0  0
   -6.4827    1.3494   -0.0127 H   0  0  0  0  0  0  0  0  0  0  0  0
   -7.2174    0.2361   -1.1642 H   0  0  0  0  0  0  0  0  0  0  0  0
   -3.2284    0.0617    1.0607 H   0  0  0  0  0  0  0  0  0  0  0  0
   -1.0512    0.5755    1.0335 H   0  0  0  0  0  0  0  0  0  0  0  0
   -1.1796    2.7423   -0.1958 H   0  0  0  0  0  0  0  0  0  0  0  0
   -0.1272    2.1057   -1.4849 H   0  0  0  0  0  0  0  0  0  0  0  0
    1.9293   -2.1388    0.1469 H   0  0  0  0  0  0  0  0  0  0  0  0
    3.9387   -2.7841    0.8534 H   0  0  0  0  0  0  0  0  0  0  0  0
    5.5314   -0.3260    2.6914 H   0  0  0  0  0  0  0  0  0  0  0  0
    5.1430    1.3388    2.9138 H   0  0  0  0  0  0  0  0  0  0  0  0
    6.0826    2.0085    0.7449 H   0  0  0  0  0  0  0  0  0  0  0  0
    7.9651    1.9705   -0.5936 H   0  0  0  0  0  0  0  0  0  0  0  0
    8.3368    0.3523   -1.2004 H   0  0  0  0  0  0  0  0  0  0  0  0
    9.2941    1.0521    0.1243 H   0  0  0  0  0  0  0  0  0  0  0  0
    7.0684   -1.4906    1.8636 H   0  0  0  0  0  0  0  0  0  0  0  0
    7.7978   -1.7087    0.2763 H   0  0  0  0  0  0  0  0  0  0  0  0
    8.7454   -1.0161    1.6082 H   0  0  0  0  0  0  0  0  0  0  0  0
    2.6835    3.3130    1.4491 H   0  0  0  0  0  0  0  0  0  0  0  0
   -1.2491    0.0275   -3.8313 H   0  0  0  0  0  0  0  0  0  0  0  0
   -3.4123   -0.4491   -3.8596 H   0  0  0  0  0  0  0  0  0  0  0  0
   -5.4871   -1.1003   -3.5951 H   0  0  0  0  0  0  0  0  0  0  0  0
  1  2  2  0
  2  3  1  0
  3  4  1  0
  3  5  1  0
  3  6  1  0
  6  7  2  0
  7  8  1  0
  8  9  1  0
  9 10  1  0
 10 11  1  0
 11 12  2  0
 11 13  1  0
 13 14  2  0
 14 15  1  0
 15 16  2  0
 16 17  1  0
 16 18  1  0
 18 19  1  0
 19 20  1  0
 20 21  2  3
 21 22  1  0
 21 23  1  0
 18 24  2  0
 24 25  1  0
 14 26  1  0
  8 27  2  0
 27 28  1  0
 27 29  1  0
 29 30  2  0
 30 31  1  0
 30  6  1  0
 26  9  1  0
 24 13  1  0
  1 32  1  0
  1 33  1  0
  2 34  1  0
  4 35  1  0
  4 36  1  0
  4 37  1  0
  5 38  1  0
  5 39  1  0
  5 40  1  0
  7 41  1  0
  9 42  1  1
 10 43  1  0
 10 44  1  0
 15 45  1  0
 17 46  1  0
 19 47  1  0
 19 48  1  0
 20 49  1  0
 22 50  1  0
 22 51  1  0
 22 52  1  0
 23 53  1  0
 23 54  1  0
 23 55  1  0
 25 56  1  0
 28 57  1  0
 29 58  1  0
 31 59  1  0
M  END
$$$$
