
     RDKit          3D

 97 99  0  0  0  0  0  0  0  0999 V2000
   -2.0345   -1.2198   -2.8481 C   0  0  0  0  0  0  0  0  0  0  0  0
   -1.7192   -0.5644   -1.7132 C   0  0  0  0  0  0  0  0  0  0  0  0
   -2.4466   -0.8237   -0.3911 C   0  0  1  0  0  0  0  0  0  0  0  0
   -3.8220   -0.4344   -0.6110 O   0  0  0  0  0  0  0  0  0  0  0  0
   -4.4038    0.3186    0.3603 C   0  0  0  0  0  0  0  0  0  0  0  0
   -3.8444    0.7006    1.3817 O   0  0  0  0  0  0  0  0  0  0  0  0
   -5.8508    0.6224    0.0292 C   0  0  0  0  0  0  0  0  0  0  0  0
   -6.6807   -0.6556   -0.0029 C   0  0  0  0  0  0  0  0  0  0  0  0
   -5.9531    1.3990   -1.2792 C   0  0  0  0  0  0  0  0  0  0  0  0
   -2.4010   -2.2811    0.1216 C   0  0  0  0  0  0  0  0  0  0  0  0
   -1.0939   -2.8706    0.0489 O   0  0  0  0  0  0  0  0  0  0  0  0
   -0.9776   -3.9863   -0.7267 C   0  0  0  0  0  0  0  0  0  0  0  0
    0.2727   -4.7362   -0.3795 C   0  0  0  0  0  0  0  0  0  0  0  0
   -1.8139   -4.3856   -1.5221 O   0  0  0  0  0  0  0  0  0  0  0  0
   -2.8870   -2.3356    1.5812 C   0  0  0  0  0  0  0  0  0  0  0  0
   -4.0951   -2.5309    1.7906 O   0  0  0  0  0  0  0  0  0  0  0  0
   -1.8902   -2.1642    2.7710 C   0  0  0  0  0  0  0  0  0  0  0  0
   -2.7204   -1.9619    4.0646 C   0  0  0  0  0  0  0  0  0  0  0  0
   -1.0980   -3.4664    2.9804 C   0  0  0  0  0  0  0  0  0  0  0  0
   -1.0337   -0.9079    2.6217 C   0  0  0  0  0  0  0  0  0  0  0  0
    0.2982   -0.8144    2.4279 C   0  0  0  0  0  0  0  0  0  0  0  0
    1.1298    0.4647    2.4688 C   0  0  2  0  0  0  0  0  0  0  0  0
    0.3675    1.7001    2.9867 C   0  0  0  0  0  0  0  0  0  0  0  0
    2.0201    0.7630    1.2108 C   0  0  2  0  0  0  0  0  0  0  0  0
    2.9174    1.8451    1.6140 O   0  0  0  0  0  0  0  0  0  0  0  0
    4.1932    1.5069    1.9239 C   0  0  0  0  0  0  0  0  0  0  0  0
    4.6825    0.3935    1.8225 O   0  0  0  0  0  0  0  0  0  0  0  0
    4.9441    2.7032    2.3910 C   0  0  0  0  0  0  0  0  0  0  0  0
    4.3146    3.9313    2.6449 C   0  0  0  0  0  0  0  0  0  0  0  0
    5.0625    5.0251    3.0855 C   0  0  0  0  0  0  0  0  0  0  0  0
    6.4383    4.8965    3.2757 C   0  0  0  0  0  0  0  0  0  0  0  0
    7.0682    3.6766    3.0281 C   0  0  0  0  0  0  0  0  0  0  0  0
    6.3250    2.5813    2.5875 C   0  0  0  0  0  0  0  0  0  0  0  0
    1.3337    1.2392   -0.1178 C   0  0  1  0  0  0  0  0  0  0  0  0
    0.5151    2.3725    0.1527 O   0  0  0  0  0  0  0  0  0  0  0  0
    2.3421    1.6719   -1.1963 C   0  0  0  0  0  0  0  0  0  0  0  0
    2.8628    0.3666   -1.7941 C   0  0  2  0  0  0  0  0  0  0  0  0
    3.4232    0.5645   -3.1960 C   0  0  0  0  0  0  0  0  0  0  0  0
    1.6844   -0.6303   -1.6608 C   0  0  2  0  0  0  0  0  0  0  0  0
    1.2512   -1.1037   -2.9430 O   0  0  0  0  0  0  0  0  0  0  0  0
    1.4804   -2.4182   -3.2312 C   0  0  0  0  0  0  0  0  0  0  0  0
    1.1315   -2.6910   -4.6649 C   0  0  0  0  0  0  0  0  0  0  0  0
    1.9159   -3.2622   -2.4544 O   0  0  0  0  0  0  0  0  0  0  0  0
    0.5714    0.1000   -0.8451 C   0  0  2  0  0  0  0  0  0  0  0  0
   -0.6914    0.5742   -1.6159 C   0  0  1  0  0  0  0  0  0  0  0  0
   -0.3261    1.0828   -2.9072 O   0  0  0  0  0  0  0  0  0  0  0  0
   -1.1294    2.0495   -3.4245 C   0  0  0  0  0  0  0  0  0  0  0  0
   -0.6346    2.4577   -4.7786 C   0  0  0  0  0  0  0  0  0  0  0  0
   -2.1408    2.5051   -2.9062 O   0  0  0  0  0  0  0  0  0  0  0  0
   -1.5510   -0.9957   -3.7909 H   0  0  0  0  0  0  0  0  0  0  0  0
   -2.8053   -1.9858   -2.8685 H   0  0  0  0  0  0  0  0  0  0  0  0
   -1.9942   -0.1608    0.3510 H   0  0  0  0  0  0  0  0  0  0  0  0
   -6.2337    1.2590    0.8351 H   0  0  0  0  0  0  0  0  0  0  0  0
   -7.7440   -0.4229   -0.1430 H   0  0  0  0  0  0  0  0  0  0  0  0
   -6.5767   -1.2111    0.9354 H   0  0  0  0  0  0  0  0  0  0  0  0
   -6.3640   -1.3185   -0.8165 H   0  0  0  0  0  0  0  0  0  0  0  0
   -6.9825    1.7290   -1.4555 H   0  0  0  0  0  0  0  0  0  0  0  0
   -5.6476    0.7853   -2.1319 H   0  0  0  0  0  0  0  0  0  0  0  0
   -5.3101    2.2842   -1.2612 H   0  0  0  0  0  0  0  0  0  0  0  0
   -3.1386   -2.8702   -0.4411 H   0  0  0  0  0  0  0  0  0  0  0  0
    0.0570   -5.4361    0.4295 H   0  0  0  0  0  0  0  0  0  0  0  0
    0.6207   -5.2917   -1.2517 H   0  0  0  0  0  0  0  0  0  0  0  0
    1.0601   -4.0418   -0.0706 H   0  0  0  0  0  0  0  0  0  0  0  0
   -3.3778   -1.0859    3.9872 H   0  0  0  0  0  0  0  0  0  0  0  0
   -2.0758   -1.8245    4.9426 H   0  0  0  0  0  0  0  0  0  0  0  0
   -3.3622   -2.8294    4.2663 H   0  0  0  0  0  0  0  0  0  0  0  0
   -0.3700   -3.6551    2.1933 H   0  0  0  0  0  0  0  0  0  0  0  0
   -1.7642   -4.3341    3.0101 H   0  0  0  0  0  0  0  0  0  0  0  0
   -0.5366   -3.4458    3.9211 H   0  0  0  0  0  0  0  0  0  0  0  0
   -1.6071    0.0191    2.7453 H   0  0  0  0  0  0  0  0  0  0  0  0
    0.8876   -1.7261    2.3091 H   0  0  0  0  0  0  0  0  0  0  0  0
    1.8611    0.2614    3.2704 H   0  0  0  0  0  0  0  0  0  0  0  0
   -0.0380    1.5035    3.9890 H   0  0  0  0  0  0  0  0  0  0  0  0
    1.0250    2.5723    3.0847 H   0  0  0  0  0  0  0  0  0  0  0  0
   -0.4712    1.9798    2.3387 H   0  0  0  0  0  0  0  0  0  0  0  0
    2.5950   -0.1467    0.9853 H   0  0  0  0  0  0  0  0  0  0  0  0
    3.2420    4.0455    2.5187 H   0  0  0  0  0  0  0  0  0  0  0  0
    4.5674    5.9734    3.2889 H   0  0  0  0  0  0  0  0  0  0  0  0
    7.0176    5.7462    3.6290 H   0  0  0  0  0  0  0  0  0  0  0  0
    8.1414    3.5783    3.1879 H   0  0  0  0  0  0  0  0  0  0  0  0
    6.8243    1.6328    2.3988 H   0  0  0  0  0  0  0  0  0  0  0  0
    1.0823    3.0323    0.5924 H   0  0  0  0  0  0  0  0  0  0  0  0
    1.8414    2.2782   -1.9623 H   0  0  0  0  0  0  0  0  0  0  0  0
    3.1545    2.2941   -0.8077 H   0  0  0  0  0  0  0  0  0  0  0  0
    3.6813    0.0087   -1.1526 H   0  0  0  0  0  0  0  0  0  0  0  0
    2.6532    0.9157   -3.8960 H   0  0  0  0  0  0  0  0  0  0  0  0
    4.2316    1.3070   -3.1788 H   0  0  0  0  0  0  0  0  0  0  0  0
    3.8488   -0.3702   -3.5796 H   0  0  0  0  0  0  0  0  0  0  0  0
    2.0394   -1.4645   -1.0405 H   0  0  0  0  0  0  0  0  0  0  0  0
    0.0827   -2.4525   -4.8591 H   0  0  0  0  0  0  0  0  0  0  0  0
    1.7814   -2.1066   -5.3191 H   0  0  0  0  0  0  0  0  0  0  0  0
    1.2909   -3.7532   -4.8746 H   0  0  0  0  0  0  0  0  0  0  0  0
    0.2293   -0.6087   -0.0913 H   0  0  0  0  0  0  0  0  0  0  0  0
   -1.1842    1.3746   -1.0472 H   0  0  0  0  0  0  0  0  0  0  0  0
    0.4505    2.3573   -4.8334 H   0  0  0  0  0  0  0  0  0  0  0  0
   -0.8915    3.5083   -4.9609 H   0  0  0  0  0  0  0  0  0  0  0  0
   -1.0979    1.8240   -5.5374 H   0  0  0  0  0  0  0  0  0  0  0  0
  1  2  2  0
  2  3  1  0
  3  4  1  0
  4  5  1  0
  5  6  2  0
  5  7  1  0
  7  8  1  0
  7  9  1  0
  3 10  1  0
 10 11  1  0
 11 12  1  0
 12 13  1  0
 12 14  2  0
 10 15  1  0
 15 16  2  0
 15 17  1  0
 17 18  1  0
 17 19  1  0
 17 20  1  0
 20 21  2  0
 21 22  1  0
 22 23  1  0
 22 24  1  0
 24 25  1  0
 25 26  1  0
 26 27  2  0
 26 28  1  0
 28 29  2  0
 29 30  1  0
 30 31  2  0
 31 32  1  0
 32 33  2  0
 24 34  1  0
 34 35  1  1
 34 36  1  0
 36 37  1  0
 37 38  1  0
 37 39  1  0
 39 40  1  0
 40 41  1  0
 41 42  1  0
 41 43  2  0
 39 44  1  0
 44 45  1  0
 45 46  1  0
 46 47  1  0
 47 48  1  0
 47 49  2  0
 45  2  1  0
 33 28  1  0
 44 34  1  0
  1 50  1  0
  1 51  1  0
  3 52  1  1
  7 53  1  0
  8 54  1  0
  8 55  1  0
  8 56  1  0
  9 57  1  0
  9 58  1  0
  9 59  1  0
 10 60  1  0
 13 61  1  0
 13 62  1  0
 13 63  1  0
 18 64  1  0
 18 65  1  0
 18 66  1  0
 19 67  1  0
 19 68  1  0
 19 69  1  0
 20 70  1  0
 21 71  1  0
 22 72  1  1
 23 73  1  0
 23 74  1  0
 23 75  1  0
 24 76  1  6
 29 77  1  0
 30 78  1  0
 31 79  1  0
 32 80  1  0
 33 81  1  0
 35 82  1  0
 36 83  1  0
 36 84  1  0
 37 85  1  1
 38 86  1  0
 38 87  1  0
 38 88  1  0
 39 89  1  1
 42 90  1  0
 42 91  1  0
 42 92  1  0
 44 93  1  1
 45 94  1  1
 48 95  1  0
 48 96  1  0
 48 97  1  0
M  END
$$$$
