
     RDKit          3D

 39 41  0  0  0  0  0  0  0  0999 V2000
   -4.7350    1.3432   -2.3442 C   0  0  0  0  0  0  0  0  0  0  0  0
   -4.2145    1.0407   -0.9691 C   0  0  0  0  0  0  0  0  0  0  0  0
   -5.0808    1.0520    0.1278 C   0  0  0  0  0  0  0  0  0  0  0  0
   -4.6191    0.8026    1.4240 C   0  0  0  0  0  0  0  0  0  0  0  0
   -3.2529    0.5525    1.5905 C   0  0  0  0  0  0  0  0  0  0  0  0
   -2.5382    0.2836    2.7328 N   0  0  0  0  0  0  0  0  0  0  0  0
   -1.2006    0.1225    2.4498 C   0  0  0  0  0  0  0  0  0  0  0  0
   -0.2290   -0.1219    3.5476 C   0  0  0  0  0  0  0  0  0  0  0  0
   -1.0586    0.2589    1.0787 C   0  0  0  0  0  0  0  0  0  0  0  0
    0.1524    0.1735    0.3213 C   0  0  0  0  0  0  0  0  0  0  0  0
    1.1782   -0.6579    0.5696 C   0  0  0  0  0  0  0  0  0  0  0  0
    2.3931   -0.7235   -0.2491 C   0  0  0  0  0  0  0  0  0  0  0  0
    2.3518   -0.7039   -1.6425 C   0  0  0  0  0  0  0  0  0  0  0  0
    3.5335   -0.7982   -2.3689 C   0  0  0  0  0  0  0  0  0  0  0  0
    4.7229   -0.9118   -1.7371 N   0  0  0  0  0  4  0  0  0  0  0  0
    5.9604   -1.0186   -2.5284 C   0  0  0  0  0  0  0  0  0  0  0  0
    4.7857   -0.9564   -0.3877 C   0  0  0  0  0  0  0  0  0  0  0  0
    3.6289   -0.8678    0.3785 C   0  0  0  0  0  0  0  0  0  0  0  0
   -2.3500    0.5477    0.5303 C   0  0  0  0  0  0  0  0  0  0  0  0
   -2.8441    0.8003   -0.7695 C   0  0  0  0  0  0  0  0  0  0  0  0
   -4.1397    0.8324   -3.1083 H   0  0  0  0  0  0  0  0  0  0  0  0
   -4.6982    2.4212   -2.5289 H   0  0  0  0  0  0  0  0  0  0  0  0
   -5.7687    0.9993   -2.4553 H   0  0  0  0  0  0  0  0  0  0  0  0
   -6.1403    1.2565   -0.0182 H   0  0  0  0  0  0  0  0  0  0  0  0
   -5.3037    0.8088    2.2663 H   0  0  0  0  0  0  0  0  0  0  0  0
   -2.9471    0.2369    3.6561 H   0  0  0  0  0  0  0  0  0  0  0  0
   -0.6294    0.2016    4.5143 H   0  0  0  0  0  0  0  0  0  0  0  0
    0.7009    0.4296    3.3775 H   0  0  0  0  0  0  0  0  0  0  0  0
    0.0043   -1.1888    3.6188 H   0  0  0  0  0  0  0  0  0  0  0  0
    0.2014    0.8370   -0.5396 H   0  0  0  0  0  0  0  0  0  0  0  0
    1.1369   -1.3372    1.4177 H   0  0  0  0  0  0  0  0  0  0  0  0
    1.4040   -0.6292   -2.1725 H   0  0  0  0  0  0  0  0  0  0  0  0
    3.5364   -0.7899   -3.4553 H   0  0  0  0  0  0  0  0  0  0  0  0
    5.8377   -0.4631   -3.4618 H   0  0  0  0  0  0  0  0  0  0  0  0
    6.1321   -2.0796   -2.7256 H   0  0  0  0  0  0  0  0  0  0  0  0
    6.7883   -0.5889   -1.9586 H   0  0  0  0  0  0  0  0  0  0  0  0
    5.7651   -1.0660    0.0697 H   0  0  0  0  0  0  0  0  0  0  0  0
    3.6999   -0.9033    1.4643 H   0  0  0  0  0  0  0  0  0  0  0  0
   -2.1638    0.8053   -1.6153 H   0  0  0  0  0  0  0  0  0  0  0  0
  1  2  1  0
  2  3  2  0
  3  4  1  0
  4  5  2  0
  5  6  1  0
  6  7  1  0
  7  8  1  0
  7  9  2  0
  9 10  1  0
 10 11  2  3
 11 12  1  0
 12 13  2  0
 13 14  1  0
 14 15  2  0
 15 16  1  0
 15 17  1  0
 17 18  2  0
  9 19  1  0
 19 20  2  0
 20  2  1  0
 19  5  1  0
 18 12  1  0
  1 21  1  0
  1 22  1  0
  1 23  1  0
  3 24  1  0
  4 25  1  0
  6 26  1  0
  8 27  1  0
  8 28  1  0
  8 29  1  0
 10 30  1  0
 11 31  1  0
 13 32  1  0
 14 33  1  0
 16 34  1  0
 16 35  1  0
 16 36  1  0
 17 37  1  0
 18 38  1  0
 20 39  1  0
M  CHG  1  15   1
M  END
$$$$
