
     RDKit          3D

 62 66  0  0  0  0  0  0  0  0999 V2000
   -5.0982    5.8429   -2.4778 C   0  0  0  0  0  0  0  0  0  0  0  0
   -4.0689    4.9385   -2.0977 O   0  0  0  0  0  0  0  0  0  0  0  0
   -4.4442    3.8402   -1.3731 C   0  0  0  0  0  0  0  0  0  0  0  0
   -5.7359    3.5301   -0.9703 C   0  0  0  0  0  0  0  0  0  0  0  0
   -5.9933    2.3702   -0.2304 C   0  0  0  0  0  0  0  0  0  0  0  0
   -4.9255    1.5159    0.1056 C   0  0  0  0  0  0  0  0  0  0  0  0
   -5.0190    0.0526    1.0004 S   0  0  0  0  0  0  0  0  0  0  0  0
   -3.3368   -0.2277    0.8829 C   0  0  0  0  0  0  0  0  0  0  0  0
   -2.7821   -1.4222    1.5344 C   0  0  0  0  0  0  0  0  0  0  0  0
   -2.1915   -1.2824    2.8011 C   0  0  0  0  0  0  0  0  0  0  0  0
   -1.6463   -2.3857    3.4548 C   0  0  0  0  0  0  0  0  0  0  0  0
   -1.6839   -3.6369    2.8470 C   0  0  0  0  0  0  0  0  0  0  0  0
   -2.2630   -3.7896    1.5837 C   0  0  0  0  0  0  0  0  0  0  0  0
   -2.8154   -2.6896    0.9164 C   0  0  0  0  0  0  0  0  0  0  0  0
   -3.3813   -2.7468   -0.3329 O   0  0  0  0  0  0  0  0  0  0  0  0
   -3.5537   -4.0300   -0.9172 C   0  0  0  0  0  0  0  0  0  0  0  0
   -2.6970    0.7797    0.1794 C   0  0  0  0  0  0  0  0  0  0  0  0
   -1.2544    0.7651   -0.0353 C   0  0  0  0  0  0  0  0  0  0  0  0
   -0.4396    1.6937    0.6174 C   0  0  0  0  0  0  0  0  0  0  0  0
    0.9412    1.6789    0.4065 C   0  0  0  0  0  0  0  0  0  0  0  0
    1.5222    0.7442   -0.4548 C   0  0  0  0  0  0  0  0  0  0  0  0
    2.8808    0.8443   -0.5697 O   0  0  0  0  0  0  0  0  0  0  0  0
    3.5386   -0.1172   -1.3965 C   0  0  0  0  0  0  0  0  0  0  0  0
    5.0570    0.1445   -1.3870 C   0  0  0  0  0  0  0  0  0  0  0  0
    5.7110   -0.0812   -0.0899 N   0  0  0  0  0  0  0  0  0  0  0  0
    5.6654   -1.4694    0.3674 C   0  0  0  0  0  0  0  0  0  0  0  0
    6.7519   -1.5368    1.4337 C   0  0  0  0  0  0  0  0  0  0  0  0
    7.6460   -0.3294    1.1776 C   0  0  0  0  0  0  0  0  0  0  0  0
    7.1315    0.2670   -0.1209 C   0  0  0  0  0  0  0  0  0  0  0  0
    0.7073   -0.1790   -1.1108 C   0  0  0  0  0  0  0  0  0  0  0  0
   -0.6765   -0.1674   -0.9030 C   0  0  0  0  0  0  0  0  0  0  0  0
   -3.6146    1.7988   -0.2801 C   0  0  0  0  0  0  0  0  0  0  0  0
   -3.3916    2.9821   -1.0325 C   0  0  0  0  0  0  0  0  0  0  0  0
   -5.8316    5.3555   -3.1287 H   0  0  0  0  0  0  0  0  0  0  0  0
   -5.5798    6.2845   -1.5992 H   0  0  0  0  0  0  0  0  0  0  0  0
   -4.6360    6.6550   -3.0472 H   0  0  0  0  0  0  0  0  0  0  0  0
   -6.5792    4.1681   -1.2139 H   0  0  0  0  0  0  0  0  0  0  0  0
   -7.0071    2.1321    0.0797 H   0  0  0  0  0  0  0  0  0  0  0  0
   -2.1543   -0.3065    3.2804 H   0  0  0  0  0  0  0  0  0  0  0  0
   -1.1907   -2.2665    4.4343 H   0  0  0  0  0  0  0  0  0  0  0  0
   -1.2562   -4.4980    3.3545 H   0  0  0  0  0  0  0  0  0  0  0  0
   -2.2592   -4.7815    1.1447 H   0  0  0  0  0  0  0  0  0  0  0  0
   -4.1696   -4.6764   -0.2833 H   0  0  0  0  0  0  0  0  0  0  0  0
   -4.0808   -3.8964   -1.8668 H   0  0  0  0  0  0  0  0  0  0  0  0
   -2.5868   -4.4940   -1.1371 H   0  0  0  0  0  0  0  0  0  0  0  0
   -0.8693    2.4284    1.2935 H   0  0  0  0  0  0  0  0  0  0  0  0
    1.5725    2.4005    0.9194 H   0  0  0  0  0  0  0  0  0  0  0  0
    3.1857   -0.0059   -2.4293 H   0  0  0  0  0  0  0  0  0  0  0  0
    3.3247   -1.1359   -1.0533 H   0  0  0  0  0  0  0  0  0  0  0  0
    5.2141    1.1936   -1.6684 H   0  0  0  0  0  0  0  0  0  0  0  0
    5.5250   -0.4773   -2.1608 H   0  0  0  0  0  0  0  0  0  0  0  0
    4.6899   -1.7379    0.7844 H   0  0  0  0  0  0  0  0  0  0  0  0
    5.9031   -2.1699   -0.4432 H   0  0  0  0  0  0  0  0  0  0  0  0
    7.3152   -2.4732    1.3612 H   0  0  0  0  0  0  0  0  0  0  0  0
    6.3235   -1.4793    2.4408 H   0  0  0  0  0  0  0  0  0  0  0  0
    7.5395    0.3894    1.9993 H   0  0  0  0  0  0  0  0  0  0  0  0
    8.7022   -0.6080    1.1103 H   0  0  0  0  0  0  0  0  0  0  0  0
    7.6439   -0.1950   -0.9743 H   0  0  0  0  0  0  0  0  0  0  0  0
    7.2928    1.3489   -0.1577 H   0  0  0  0  0  0  0  0  0  0  0  0
    1.1115   -0.9204   -1.7907 H   0  0  0  0  0  0  0  0  0  0  0  0
   -1.3012   -0.8919   -1.4214 H   0  0  0  0  0  0  0  0  0  0  0  0
   -2.3824    3.2286   -1.3558 H   0  0  0  0  0  0  0  0  0  0  0  0
  1  2  1  0
  2  3  1  0
  3  4  2  0
  4  5  1  0
  5  6  2  0
  6  7  1  0
  7  8  1  0
  8  9  1  0
  9 10  2  0
 10 11  1  0
 11 12  2  0
 12 13  1  0
 13 14  2  0
 14 15  1  0
 15 16  1  0
  8 17  2  0
 17 18  1  0
 18 19  2  0
 19 20  1  0
 20 21  2  0
 21 22  1  0
 22 23  1  0
 23 24  1  0
 24 25  1  0
 25 26  1  0
 26 27  1  0
 27 28  1  0
 28 29  1  0
 21 30  1  0
 30 31  2  0
 17 32  1  0
 32 33  2  0
 33  3  1  0
 32  6  1  0
 14  9  1  0
 31 18  1  0
 29 25  1  0
  1 34  1  0
  1 35  1  0
  1 36  1  0
  4 37  1  0
  5 38  1  0
 10 39  1  0
 11 40  1  0
 12 41  1  0
 13 42  1  0
 16 43  1  0
 16 44  1  0
 16 45  1  0
 19 46  1  0
 20 47  1  0
 23 48  1  0
 23 49  1  0
 24 50  1  0
 24 51  1  0
 26 52  1  0
 26 53  1  0
 27 54  1  0
 27 55  1  0
 28 56  1  0
 28 57  1  0
 29 58  1  0
 29 59  1  0
 30 60  1  0
 31 61  1  0
 33 62  1  0
M  END
$$$$
