
     RDKit          3D

 59 64  0  0  0  0  0  0  0  0999 V2000
   -6.0254    0.2693   -2.0613 C   0  0  0  0  0  0  0  0  0  0  0  0
   -6.1500    0.0393   -0.5988 C   0  0  0  0  0  0  0  0  0  0  0  0
   -7.2192   -0.4377    0.0067 N   0  0  0  0  0  0  0  0  0  0  0  0
   -6.9088   -0.4811    1.3414 C   0  0  0  0  0  0  0  0  0  0  0  0
   -7.6928   -0.9033    2.4246 C   0  0  0  0  0  0  0  0  0  0  0  0
   -7.1468   -0.8523    3.7117 C   0  0  0  0  0  0  0  0  0  0  0  0
   -5.8456   -0.3899    3.9162 C   0  0  0  0  0  0  0  0  0  0  0  0
   -5.0481    0.0348    2.8472 C   0  0  0  0  0  0  0  0  0  0  0  0
   -5.6142   -0.0245    1.5676 C   0  0  0  0  0  0  0  0  0  0  0  0
   -5.1481    0.2961    0.3125 N   0  0  0  0  0  0  0  0  0  0  0  0
   -3.8263    0.8169    0.0141 C   0  0  0  0  0  0  0  0  0  0  0  0
   -2.8071   -0.2981   -0.1911 C   0  0  0  0  0  0  0  0  0  0  0  0
   -1.4742    0.2234   -0.5889 C   0  0  0  0  0  0  0  0  0  0  0  0
   -1.0488    1.4891   -0.2620 N   0  0  0  0  0  0  0  0  0  0  0  0
    0.1580    1.5363   -0.7831 C   0  0  0  0  0  0  0  0  0  0  0  0
    1.1588    2.5802   -0.8233 C   0  0  0  0  0  0  0  0  0  0  0  0
    0.9699    3.8294   -0.2298 C   0  0  0  0  0  0  0  0  0  0  0  0
    1.9756    4.7912   -0.3214 C   0  0  0  0  0  0  0  0  0  0  0  0
    3.1608    4.5042   -1.0016 C   0  0  0  0  0  0  0  0  0  0  0  0
    3.3486    3.2519   -1.5935 C   0  0  0  0  0  0  0  0  0  0  0  0
    2.3547    2.2772   -1.5129 C   0  0  0  0  0  0  0  0  0  0  0  0
    2.5804    1.0177   -2.1298 N   0  0  0  0  0  0  0  0  0  0  0  0
    1.6543    0.1003   -2.0552 C   0  0  0  0  0  0  0  0  0  0  0  0
    1.9910   -1.4474   -2.8232 S   0  0  0  0  0  0  0  0  0  0  0  0
    2.0927   -2.4881   -1.3397 C   0  0  0  0  0  0  0  0  0  0  0  0
    2.9924   -1.8465   -0.3004 C   0  0  0  0  0  0  0  0  0  0  0  0
    2.5401   -1.1533    0.6083 O   0  0  0  0  0  0  0  0  0  0  0  0
    4.3350   -2.0771   -0.4831 N   0  0  0  0  0  0  0  0  0  0  0  0
    5.3024   -1.3664    0.3208 C   0  0  0  0  0  0  0  0  0  0  0  0
    6.6375   -1.9576    0.0762 C   0  0  0  0  0  0  0  0  0  0  0  0
    7.4584   -2.7892    0.8109 C   0  0  0  0  0  0  0  0  0  0  0  0
    8.6135   -3.0081    0.0225 C   0  0  0  0  0  0  0  0  0  0  0  0
    8.4247   -2.2981   -1.1395 C   0  0  0  0  0  0  0  0  0  0  0  0
    7.2248   -1.6643   -1.1210 O   0  0  0  0  0  0  0  0  0  0  0  0
    0.4426    0.3470   -1.3963 N   0  0  0  0  0  0  0  0  0  0  0  0
   -0.6027   -0.5095   -1.2957 N   0  0  0  0  0  0  0  0  0  0  0  0
   -6.9429   -0.0368   -2.5740 H   0  0  0  0  0  0  0  0  0  0  0  0
   -5.8587    1.3289   -2.2748 H   0  0  0  0  0  0  0  0  0  0  0  0
   -5.1966   -0.3123   -2.4788 H   0  0  0  0  0  0  0  0  0  0  0  0
   -8.7028   -1.2590    2.2542 H   0  0  0  0  0  0  0  0  0  0  0  0
   -7.7452   -1.1768    4.5587 H   0  0  0  0  0  0  0  0  0  0  0  0
   -5.4433   -0.3575    4.9259 H   0  0  0  0  0  0  0  0  0  0  0  0
   -4.0387    0.3941    3.0149 H   0  0  0  0  0  0  0  0  0  0  0  0
   -3.5350    1.4739    0.8433 H   0  0  0  0  0  0  0  0  0  0  0  0
   -3.9039    1.4552   -0.8740 H   0  0  0  0  0  0  0  0  0  0  0  0
   -3.1688   -0.9946   -0.9585 H   0  0  0  0  0  0  0  0  0  0  0  0
   -2.6967   -0.8809    0.7319 H   0  0  0  0  0  0  0  0  0  0  0  0
    0.0471    4.0539    0.2998 H   0  0  0  0  0  0  0  0  0  0  0  0
    1.8358    5.7676    0.1370 H   0  0  0  0  0  0  0  0  0  0  0  0
    3.9415    5.2577   -1.0723 H   0  0  0  0  0  0  0  0  0  0  0  0
    4.2729    3.0344   -2.1218 H   0  0  0  0  0  0  0  0  0  0  0  0
    2.4922   -3.4694   -1.6167 H   0  0  0  0  0  0  0  0  0  0  0  0
    1.1024   -2.6521   -0.9060 H   0  0  0  0  0  0  0  0  0  0  0  0
    4.6412   -2.3383   -1.4136 H   0  0  0  0  0  0  0  0  0  0  0  0
    5.0207   -1.4378    1.3758 H   0  0  0  0  0  0  0  0  0  0  0  0
    5.2805   -0.3116    0.0304 H   0  0  0  0  0  0  0  0  0  0  0  0
    7.2459   -3.1865    1.7934 H   0  0  0  0  0  0  0  0  0  0  0  0
    9.4785   -3.6099    0.2670 H   0  0  0  0  0  0  0  0  0  0  0  0
    9.0158   -2.1538   -2.0337 H   0  0  0  0  0  0  0  0  0  0  0  0
  1  2  1  0
  2  3  2  0
  3  4  1  0
  4  5  2  0
  5  6  1  0
  6  7  2  0
  7  8  1  0
  8  9  2  0
  9 10  1  0
 10 11  1  0
 11 12  1  0
 12 13  1  0
 13 14  1  0
 14 15  2  0
 15 16  1  0
 16 17  2  0
 17 18  1  0
 18 19  2  0
 19 20  1  0
 20 21  2  0
 21 22  1  0
 22 23  2  0
 23 24  1  0
 24 25  1  0
 25 26  1  0
 26 27  2  0
 26 28  1  0
 28 29  1  0
 29 30  1  0
 30 31  2  0
 31 32  1  0
 32 33  2  0
 33 34  1  0
 23 35  1  0
 35 36  1  0
 10  2  1  0
 36 13  2  0
  9  4  1  0
 35 15  1  0
 21 16  1  0
 34 30  1  0
  1 37  1  0
  1 38  1  0
  1 39  1  0
  5 40  1  0
  6 41  1  0
  7 42  1  0
  8 43  1  0
 11 44  1  0
 11 45  1  0
 12 46  1  0
 12 47  1  0
 17 48  1  0
 18 49  1  0
 19 50  1  0
 20 51  1  0
 25 52  1  0
 25 53  1  0
 28 54  1  0
 29 55  1  0
 29 56  1  0
 31 57  1  0
 32 58  1  0
 33 59  1  0
M  END
$$$$
