
     RDKit          3D

 60 64  0  0  0  0  0  0  0  0999 V2000
   -5.2348    5.1662    0.1749 C   0  0  0  0  0  0  0  0  0  0  0  0
   -4.9852    3.7814   -0.3448 C   0  0  0  0  0  0  0  0  0  0  0  0
   -3.6956    3.3896   -0.7213 C   0  0  0  0  0  0  0  0  0  0  0  0
   -3.4645    2.1108   -1.2331 C   0  0  0  0  0  0  0  0  0  0  0  0
   -4.5230    1.2056   -1.3921 C   0  0  0  0  0  0  0  0  0  0  0  0
   -4.2729   -0.1782   -1.9361 C   0  0  0  0  0  0  0  0  0  0  0  0
   -4.2294   -1.1661   -0.8783 N   0  0  0  0  0  0  0  0  0  0  0  0
   -5.2927   -1.9722   -0.6302 N   0  0  0  0  0  0  0  0  0  0  0  0
   -4.9595   -2.7884    0.3704 N   0  0  0  0  0  0  0  0  0  0  0  0
   -3.6797   -2.4920    0.7243 C   0  0  0  0  0  0  0  0  0  0  0  0
   -2.8254   -3.0557    1.7335 C   0  0  0  0  0  0  0  0  0  0  0  0
   -3.1198   -3.9632    2.5037 O   0  0  0  0  0  0  0  0  0  0  0  0
   -1.5744   -2.4495    1.7569 N   0  0  0  0  0  0  0  0  0  0  0  0
   -1.1918   -1.4075    0.9143 C   0  0  0  0  0  0  0  0  0  0  0  0
    0.2398   -0.9238    1.1076 C   0  0  0  0  0  0  0  0  0  0  0  0
    1.1598   -1.6889    0.1424 C   0  0  0  0  0  0  0  0  0  0  0  0
    1.3607   -0.9294   -1.1654 C   0  0  0  0  0  0  0  0  0  0  0  0
    1.9501    0.4068   -0.9228 N   0  0  0  0  0  0  0  0  0  0  0  0
    3.3901    0.8056   -1.7307 S   0  0  0  0  0  6  0  0  0  0  0  0
    3.6874    2.1968   -1.4617 O   0  0  0  0  0  0  0  0  0  0  0  0
    3.2997    0.3062   -3.0864 O   0  0  0  0  0  0  0  0  0  0  0  0
    4.6076   -0.1750   -0.8756 C   0  0  0  0  0  0  0  0  0  0  0  0
    5.2797    0.3629    0.2253 C   0  0  0  0  0  0  0  0  0  0  0  0
    6.2434   -0.4018    0.8857 C   0  0  0  0  0  0  0  0  0  0  0  0
    6.5438   -1.6988    0.4476 C   0  0  0  0  0  0  0  0  0  0  0  0
    7.6081   -2.5033    1.1366 C   0  0  0  0  0  0  0  0  0  0  0  0
    5.8928   -2.2096   -0.6838 C   0  0  0  0  0  0  0  0  0  0  0  0
    4.9279   -1.4501   -1.3484 C   0  0  0  0  0  0  0  0  0  0  0  0
    1.7399    0.9895    0.4186 C   0  0  0  0  0  0  0  0  0  0  0  0
    0.3644    0.5986    0.9445 C   0  0  0  0  0  0  0  0  0  0  0  0
   -1.9520   -0.9119   -0.0220 N   0  0  0  0  0  0  0  0  0  0  0  0
   -3.1826   -1.4786   -0.0588 C   0  0  0  0  0  0  0  0  0  0  0  0
   -5.8150    1.6030   -1.0212 C   0  0  0  0  0  0  0  0  0  0  0  0
   -6.0442    2.8818   -0.5087 C   0  0  0  0  0  0  0  0  0  0  0  0
   -6.1208    5.1914    0.8183 H   0  0  0  0  0  0  0  0  0  0  0  0
   -4.3874    5.5129    0.7758 H   0  0  0  0  0  0  0  0  0  0  0  0
   -5.3860    5.8576   -0.6600 H   0  0  0  0  0  0  0  0  0  0  0  0
   -2.8603    4.0788   -0.6160 H   0  0  0  0  0  0  0  0  0  0  0  0
   -2.4491    1.8261   -1.5042 H   0  0  0  0  0  0  0  0  0  0  0  0
   -5.0611   -0.4619   -2.6435 H   0  0  0  0  0  0  0  0  0  0  0  0
   -3.3219   -0.2291   -2.4792 H   0  0  0  0  0  0  0  0  0  0  0  0
   -0.9489   -2.8107    2.4621 H   0  0  0  0  0  0  0  0  0  0  0  0
    0.5457   -1.1872    2.1291 H   0  0  0  0  0  0  0  0  0  0  0  0
    0.7667   -2.6901   -0.0708 H   0  0  0  0  0  0  0  0  0  0  0  0
    2.1359   -1.8337    0.6232 H   0  0  0  0  0  0  0  0  0  0  0  0
    1.9887   -1.5305   -1.8291 H   0  0  0  0  0  0  0  0  0  0  0  0
    0.4058   -0.7913   -1.6848 H   0  0  0  0  0  0  0  0  0  0  0  0
    5.0673    1.3733    0.5677 H   0  0  0  0  0  0  0  0  0  0  0  0
    6.7680    0.0240    1.7393 H   0  0  0  0  0  0  0  0  0  0  0  0
    8.5844   -2.2957    0.6869 H   0  0  0  0  0  0  0  0  0  0  0  0
    7.4003   -3.5756    1.0560 H   0  0  0  0  0  0  0  0  0  0  0  0
    7.6506   -2.2608    2.2039 H   0  0  0  0  0  0  0  0  0  0  0  0
    6.1428   -3.1997   -1.0600 H   0  0  0  0  0  0  0  0  0  0  0  0
    4.4436   -1.8538   -2.2348 H   0  0  0  0  0  0  0  0  0  0  0  0
    2.5136    0.6484    1.1137 H   0  0  0  0  0  0  0  0  0  0  0  0
    1.7911    2.0814    0.3544 H   0  0  0  0  0  0  0  0  0  0  0  0
    0.1875    1.0793    1.9145 H   0  0  0  0  0  0  0  0  0  0  0  0
   -0.3983    1.0006    0.2668 H   0  0  0  0  0  0  0  0  0  0  0  0
   -6.6540    0.9164   -1.1251 H   0  0  0  0  0  0  0  0  0  0  0  0
   -7.0570    3.1691   -0.2339 H   0  0  0  0  0  0  0  0  0  0  0  0
  1  2  1  0
  2  3  2  0
  3  4  1  0
  4  5  2  0
  5  6  1  0
  6  7  1  0
  7  8  1  0
  8  9  2  0
  9 10  1  0
 10 11  1  0
 11 12  2  0
 11 13  1  0
 13 14  1  0
 14 15  1  0
 15 16  1  0
 16 17  1  0
 17 18  1  0
 18 19  1  0
 19 20  2  0
 19 21  2  0
 19 22  1  0
 22 23  2  0
 23 24  1  0
 24 25  2  0
 25 26  1  0
 25 27  1  0
 27 28  2  0
 18 29  1  0
 29 30  1  0
 14 31  2  0
 31 32  1  0
  5 33  1  0
 33 34  2  0
 34  2  1  0
 32  7  1  0
 32 10  2  0
 30 15  1  0
 28 22  1  0
  1 35  1  0
  1 36  1  0
  1 37  1  0
  3 38  1  0
  4 39  1  0
  6 40  1  0
  6 41  1  0
 13 42  1  0
 15 43  1  0
 16 44  1  0
 16 45  1  0
 17 46  1  0
 17 47  1  0
 23 48  1  0
 24 49  1  0
 26 50  1  0
 26 51  1  0
 26 52  1  0
 27 53  1  0
 28 54  1  0
 29 55  1  0
 29 56  1  0
 30 57  1  0
 30 58  1  0
 33 59  1  0
 34 60  1  0
M  END
$$$$
