
     RDKit          3D

 41 44  0  0  0  0  0  0  0  0999 V2000
    0.6037   -1.2368   -1.9653 O   0  0  0  0  0  0  0  0  0  0  0  0
    0.4028   -0.1043   -1.5339 C   0  0  0  0  0  0  0  0  0  0  0  0
   -0.9390    0.5994   -1.7738 C   0  0  0  0  0  0  0  0  0  0  0  0
   -1.7704    0.6427   -0.5649 N   0  0  0  0  0  0  0  0  0  0  0  0
   -1.4680    1.6052    0.3924 C   0  0  0  0  0  0  0  0  0  0  0  0
   -0.5648    2.4320    0.2253 O   0  0  0  0  0  0  0  0  0  0  0  0
   -2.2103    1.5488    1.7067 C   0  0  0  0  0  0  0  0  0  0  0  0
   -3.5317    2.2821    1.6503 C   0  0  0  0  0  0  0  0  0  0  0  0
   -4.6050    1.8710    0.2423 S   0  0  0  0  0  0  0  0  0  0  0  0
   -4.1604    0.1590   -0.0404 C   0  0  0  0  0  0  0  0  0  0  0  0
   -5.2082   -0.7726    0.0296 C   0  0  0  0  0  0  0  0  0  0  0  0
   -5.0011   -2.1064   -0.3176 C   0  0  0  0  0  0  0  0  0  0  0  0
   -3.7501   -2.5172   -0.7613 C   0  0  0  0  0  0  0  0  0  0  0  0
   -2.7019   -1.5982   -0.8482 C   0  0  0  0  0  0  0  0  0  0  0  0
   -2.8809   -0.2553   -0.4747 C   0  0  0  0  0  0  0  0  0  0  0  0
    1.2901    0.6646   -0.7999 N   0  0  0  0  0  0  0  0  0  0  0  0
    2.6015    0.3376   -0.4054 C   0  0  0  0  0  0  0  0  0  0  0  0
    3.2725    1.2824    0.4040 C   0  0  0  0  0  0  0  0  0  0  0  0
    4.5794    1.0573    0.8506 C   0  0  0  0  0  0  0  0  0  0  0  0
    5.1877   -0.1169    0.4717 C   0  0  0  0  0  0  0  0  0  0  0  0
    4.5432   -1.0400   -0.3165 C   0  0  0  0  0  0  0  0  0  0  0  0
    3.2535   -0.8438   -0.7712 C   0  0  0  0  0  0  0  0  0  0  0  0
    5.3190   -2.1276   -0.5768 O   0  0  0  0  0  0  0  0  0  0  0  0
    6.5230   -1.7811    0.1370 C   0  0  0  0  0  0  0  0  0  0  0  0
    6.4463   -0.5054    0.8069 O   0  0  0  0  0  0  0  0  0  0  0  0
   -0.7398    1.6236   -2.1134 H   0  0  0  0  0  0  0  0  0  0  0  0
   -1.4676    0.1019   -2.5952 H   0  0  0  0  0  0  0  0  0  0  0  0
   -1.5731    2.0080    2.4730 H   0  0  0  0  0  0  0  0  0  0  0  0
   -2.3338    0.5085    2.0290 H   0  0  0  0  0  0  0  0  0  0  0  0
   -4.0916    2.0913    2.5721 H   0  0  0  0  0  0  0  0  0  0  0  0
   -3.3531    3.3621    1.6046 H   0  0  0  0  0  0  0  0  0  0  0  0
   -6.2046   -0.4599    0.3364 H   0  0  0  0  0  0  0  0  0  0  0  0
   -5.8207   -2.8184   -0.2588 H   0  0  0  0  0  0  0  0  0  0  0  0
   -3.5840   -3.5550   -1.0417 H   0  0  0  0  0  0  0  0  0  0  0  0
   -1.7342   -1.9674   -1.1804 H   0  0  0  0  0  0  0  0  0  0  0  0
    0.9246    1.5555   -0.4562 H   0  0  0  0  0  0  0  0  0  0  0  0
    2.7768    2.2066    0.6953 H   0  0  0  0  0  0  0  0  0  0  0  0
    5.0951    1.7804    1.4716 H   0  0  0  0  0  0  0  0  0  0  0  0
    2.7946   -1.6022   -1.3925 H   0  0  0  0  0  0  0  0  0  0  0  0
    6.7235   -2.5576    0.8842 H   0  0  0  0  0  0  0  0  0  0  0  0
    7.3569   -1.7540   -0.5739 H   0  0  0  0  0  0  0  0  0  0  0  0
  1  2  2  0
  2  3  1  0
  3  4  1  0
  4  5  1  0
  5  6  2  0
  5  7  1  0
  7  8  1  0
  8  9  1  0
  9 10  1  0
 10 11  2  0
 11 12  1  0
 12 13  2  0
 13 14  1  0
 14 15  2  0
  2 16  1  0
 16 17  1  0
 17 18  2  0
 18 19  1  0
 19 20  2  0
 20 21  1  0
 21 22  2  0
 21 23  1  0
 23 24  1  0
 24 25  1  0
 15  4  1  0
 22 17  1  0
 15 10  1  0
 25 20  1  0
  3 26  1  0
  3 27  1  0
  7 28  1  0
  7 29  1  0
  8 30  1  0
  8 31  1  0
 11 32  1  0
 12 33  1  0
 13 34  1  0
 14 35  1  0
 16 36  1  0
 18 37  1  0
 19 38  1  0
 22 39  1  0
 24 40  1  0
 24 41  1  0
M  END
$$$$
