
     RDKit          3D

 37 38  0  0  0  0  0  0  0  0999 V2000
   -5.4123   -0.2463   -2.6466 C   0  0  0  0  0  0  0  0  0  0  0  0
   -5.0370   -0.0561   -1.2460 N   0  0  0  0  0  0  0  0  0  0  0  0
   -6.0665   -0.4010   -0.2662 C   0  0  0  0  0  0  0  0  0  0  0  0
   -3.6897   -0.1372   -0.8818 C   0  0  0  0  0  0  0  0  0  0  0  0
   -3.2812   -0.2509    0.4579 C   0  0  0  0  0  0  0  0  0  0  0  0
   -1.9286   -0.3098    0.8305 C   0  0  0  0  0  0  0  0  0  0  0  0
   -0.9215   -0.2340   -0.1299 C   0  0  0  0  0  0  0  0  0  0  0  0
    0.4828   -0.3196    0.2937 C   0  0  0  0  0  0  0  0  0  0  0  0
    1.4595    0.4338   -0.2376 C   0  0  0  0  0  0  0  0  0  0  0  0
    2.8649    0.3665    0.1788 C   0  0  0  0  0  0  0  0  0  0  0  0
    3.2423    0.2082    1.5116 C   0  0  0  0  0  0  0  0  0  0  0  0
    4.5908    0.1823    1.8493 C   0  0  0  0  0  0  0  0  0  0  0  0
    5.5417    0.3127    0.8979 N   0  0  0  0  0  4  0  0  0  0  0  0
    6.9635    0.2913    1.2812 C   0  0  0  0  0  0  0  0  0  0  0  0
    5.2008    0.4908   -0.3976 C   0  0  0  0  0  0  0  0  0  0  0  0
    3.8643    0.5249   -0.7799 C   0  0  0  0  0  0  0  0  0  0  0  0
   -1.2973   -0.1250   -1.4678 C   0  0  0  0  0  0  0  0  0  0  0  0
   -2.6533   -0.0687   -1.8287 C   0  0  0  0  0  0  0  0  0  0  0  0
   -5.1077   -1.2361   -3.0041 H   0  0  0  0  0  0  0  0  0  0  0  0
   -4.9706    0.5276   -3.2835 H   0  0  0  0  0  0  0  0  0  0  0  0
   -6.4964   -0.1648   -2.7841 H   0  0  0  0  0  0  0  0  0  0  0  0
   -5.9631   -1.4409    0.0628 H   0  0  0  0  0  0  0  0  0  0  0  0
   -7.0719   -0.2857   -0.6868 H   0  0  0  0  0  0  0  0  0  0  0  0
   -6.0269    0.2660    0.6017 H   0  0  0  0  0  0  0  0  0  0  0  0
   -4.0109   -0.2952    1.2610 H   0  0  0  0  0  0  0  0  0  0  0  0
   -1.6854   -0.4013    1.8863 H   0  0  0  0  0  0  0  0  0  0  0  0
    0.6790   -1.0375    1.0859 H   0  0  0  0  0  0  0  0  0  0  0  0
    1.2303    1.1456   -1.0295 H   0  0  0  0  0  0  0  0  0  0  0  0
    2.4950    0.1176    2.2975 H   0  0  0  0  0  0  0  0  0  0  0  0
    4.9180    0.0644    2.8786 H   0  0  0  0  0  0  0  0  0  0  0  0
    7.2577    1.3197    1.5044 H   0  0  0  0  0  0  0  0  0  0  0  0
    7.5519   -0.1117    0.4529 H   0  0  0  0  0  0  0  0  0  0  0  0
    7.0884   -0.3492    2.1582 H   0  0  0  0  0  0  0  0  0  0  0  0
    6.0034    0.6082   -1.1204 H   0  0  0  0  0  0  0  0  0  0  0  0
    3.6108    0.6678   -1.8290 H   0  0  0  0  0  0  0  0  0  0  0  0
   -0.5518   -0.0883   -2.2574 H   0  0  0  0  0  0  0  0  0  0  0  0
   -2.8731    0.0318   -2.8874 H   0  0  0  0  0  0  0  0  0  0  0  0
  1  2  1  0
  2  3  1  0
  2  4  1  0
  4  5  2  0
  5  6  1  0
  6  7  2  0
  7  8  1  0
  8  9  2  3
  9 10  1  0
 10 11  2  0
 11 12  1  0
 12 13  2  0
 13 14  1  0
 13 15  1  0
 15 16  2  0
  7 17  1  0
 17 18  2  0
 18  4  1  0
 16 10  1  0
  1 19  1  0
  1 20  1  0
  1 21  1  0
  3 22  1  0
  3 23  1  0
  3 24  1  0
  5 25  1  0
  6 26  1  0
  8 27  1  0
  9 28  1  0
 11 29  1  0
 12 30  1  0
 14 31  1  0
 14 32  1  0
 14 33  1  0
 15 34  1  0
 16 35  1  0
 17 36  1  0
 18 37  1  0
M  CHG  1  13   1
M  END
$$$$
