
     RDKit          3D

 43 45  0  0  0  0  0  0  0  0999 V2000
    1.7052   -2.3072    0.7334 O   0  0  0  0  0  0  0  0  0  0  0  0
    1.9620   -1.1053    0.7312 C   0  0  0  0  0  0  0  0  0  0  0  0
    3.3690   -0.6222    1.0669 C   0  0  0  0  0  0  0  0  0  0  0  0
    3.8906    0.7474   -0.0285 S   0  0  0  0  0  0  0  0  0  0  0  0
    5.6491    0.7892    0.2902 C   0  0  0  0  0  0  0  0  0  0  0  0
    6.5078    0.9426   -0.8063 C   0  0  0  0  0  0  0  0  0  0  0  0
    7.8936    0.9946   -0.6247 C   0  0  0  0  0  0  0  0  0  0  0  0
    8.4365    0.9027    0.6560 C   0  0  0  0  0  0  0  0  0  0  0  0
    7.5929    0.7649    1.7560 C   0  0  0  0  0  0  0  0  0  0  0  0
    6.2125    0.7142    1.5690 C   0  0  0  0  0  0  0  0  0  0  0  0
    5.4348    0.6066    2.6567 F   0  0  0  0  0  0  0  0  0  0  0  0
    1.0558   -0.0794    0.5243 N   0  0  0  0  0  0  0  0  0  0  0  0
   -0.3255   -0.1781    0.2746 C   0  0  0  0  0  0  0  0  0  0  0  0
   -1.0382   -1.3709    0.2752 C   0  0  0  0  0  0  0  0  0  0  0  0
   -2.4202   -1.3754    0.0230 C   0  0  0  0  0  0  0  0  0  0  0  0
   -3.1411   -0.1997   -0.2326 C   0  0  0  0  0  0  0  0  0  0  0  0
   -4.5012   -0.2115   -0.4784 N   0  0  0  0  0  0  0  0  0  0  0  0
   -5.3380    0.9870   -0.3091 C   0  0  0  0  0  0  0  0  0  0  0  0
   -6.7756    0.5819    0.0593 C   0  0  0  0  0  0  0  0  0  0  0  0
   -7.4149   -0.2597   -0.9105 O   0  0  0  0  0  0  0  0  0  0  0  0
   -6.4941   -1.0804   -1.6423 C   0  0  0  0  0  0  0  0  0  0  0  0
   -5.2162   -1.4385   -0.8648 C   0  0  0  0  0  0  0  0  0  0  0  0
   -2.3988    0.9896   -0.2282 C   0  0  0  0  0  0  0  0  0  0  0  0
   -1.0179    1.0055    0.0202 C   0  0  0  0  0  0  0  0  0  0  0  0
    4.0581   -1.4639    0.9461 H   0  0  0  0  0  0  0  0  0  0  0  0
    3.3671   -0.2985    2.1112 H   0  0  0  0  0  0  0  0  0  0  0  0
    6.1063    1.0198   -1.8151 H   0  0  0  0  0  0  0  0  0  0  0  0
    8.5483    1.1094   -1.4862 H   0  0  0  0  0  0  0  0  0  0  0  0
    9.5139    0.9442    0.7963 H   0  0  0  0  0  0  0  0  0  0  0  0
    7.9993    0.7021    2.7608 H   0  0  0  0  0  0  0  0  0  0  0  0
    1.4574    0.8515    0.4772 H   0  0  0  0  0  0  0  0  0  0  0  0
   -0.5593   -2.3237    0.4757 H   0  0  0  0  0  0  0  0  0  0  0  0
   -2.9243   -2.3371    0.0581 H   0  0  0  0  0  0  0  0  0  0  0  0
   -4.9568    1.6308    0.4916 H   0  0  0  0  0  0  0  0  0  0  0  0
   -5.3387    1.5534   -1.2476 H   0  0  0  0  0  0  0  0  0  0  0  0
   -6.7846    0.0472    1.0172 H   0  0  0  0  0  0  0  0  0  0  0  0
   -7.3979    1.4747    0.1802 H   0  0  0  0  0  0  0  0  0  0  0  0
   -7.0262   -1.9922   -1.9320 H   0  0  0  0  0  0  0  0  0  0  0  0
   -6.2380   -0.5458   -2.5646 H   0  0  0  0  0  0  0  0  0  0  0  0
   -4.5968   -2.0706   -1.5108 H   0  0  0  0  0  0  0  0  0  0  0  0
   -5.4749   -2.0011    0.0394 H   0  0  0  0  0  0  0  0  0  0  0  0
   -2.8790    1.9397   -0.4448 H   0  0  0  0  0  0  0  0  0  0  0  0
   -0.5017    1.9618    0.0036 H   0  0  0  0  0  0  0  0  0  0  0  0
  1  2  2  0
  2  3  1  0
  3  4  1  0
  4  5  1  0
  5  6  2  0
  6  7  1  0
  7  8  2  0
  8  9  1  0
  9 10  2  0
 10 11  1  0
  2 12  1  0
 12 13  1  0
 13 14  2  0
 14 15  1  0
 15 16  2  0
 16 17  1  0
 17 18  1  0
 18 19  1  0
 19 20  1  0
 20 21  1  0
 21 22  1  0
 16 23  1  0
 23 24  2  0
 10  5  1  0
 24 13  1  0
 22 17  1  0
  3 25  1  0
  3 26  1  0
  6 27  1  0
  7 28  1  0
  8 29  1  0
  9 30  1  0
 12 31  1  0
 14 32  1  0
 15 33  1  0
 18 34  1  0
 18 35  1  0
 19 36  1  0
 19 37  1  0
 21 38  1  0
 21 39  1  0
 22 40  1  0
 22 41  1  0
 23 42  1  0
 24 43  1  0
M  END
$$$$
