
     RDKit          3D

 62 65  0  0  0  0  0  0  0  0999 V2000
   -3.7115   -2.1426    2.9794 C   0  0  0  0  0  0  0  0  0  0  0  0
   -3.6710   -0.6228    2.9218 C   0  0  0  0  0  0  0  0  0  0  0  0
   -3.5342   -0.1558    1.5461 N   0  0  0  0  0  0  0  0  0  0  0  0
   -2.3571    0.0170    0.7916 C   0  0  0  0  0  0  0  0  0  0  0  0
   -1.1082   -0.1499    1.2759 C   0  0  0  0  0  0  0  0  0  0  0  0
    0.1544    0.0154    0.5885 C   0  0  0  0  0  0  0  0  0  0  0  0
    1.3302   -0.1958    1.1976 C   0  0  0  0  0  0  0  0  0  0  0  0
    2.6134   -0.0546    0.4772 C   0  0  0  0  0  0  0  0  0  0  0  0
    3.0512    0.9937   -0.1586 N   0  0  0  0  0  4  0  0  0  0  0  0
    2.4555    2.3384   -0.3027 C   0  0  0  0  0  0  0  0  0  0  0  0
    1.8827    2.5213   -1.6971 C   0  0  0  0  0  0  0  0  0  0  0  0
    4.3971    0.7123   -0.6956 C   0  0  0  0  0  0  0  0  0  0  0  0
    5.2424    1.5450   -1.4076 C   0  0  0  0  0  0  0  0  0  0  0  0
    6.4779    1.0263   -1.8044 C   0  0  0  0  0  0  0  0  0  0  0  0
    6.8383   -0.2926   -1.4832 C   0  0  0  0  0  0  0  0  0  0  0  0
    5.9735   -1.1147   -0.7575 C   0  0  0  0  0  0  0  0  0  0  0  0
    4.7509   -0.5925   -0.3674 C   0  0  0  0  0  0  0  0  0  0  0  0
    3.6370   -1.2187    0.4245 C   0  0  0  0  0  0  0  0  0  0  0  0
    3.0407   -2.4230   -0.3091 C   0  0  0  0  0  0  0  0  0  0  0  0
    4.1087   -1.6034    1.8297 C   0  0  0  0  0  0  0  0  0  0  0  0
   -2.7737    0.4203   -0.6648 C   0  0  0  0  0  0  0  0  0  0  0  0
   -2.3275    1.8441   -1.0277 C   0  0  0  0  0  0  0  0  0  0  0  0
   -2.3258   -0.6066   -1.7166 C   0  0  0  0  0  0  0  0  0  0  0  0
   -4.2948    0.3887   -0.5627 C   0  0  0  0  0  0  0  0  0  0  0  0
   -5.2426    0.6424   -1.5484 C   0  0  0  0  0  0  0  0  0  0  0  0
   -6.5914    0.5364   -1.2140 C   0  0  0  0  0  0  0  0  0  0  0  0
   -6.9721    0.1810    0.0857 C   0  0  0  0  0  0  0  0  0  0  0  0
   -6.0090   -0.0706    1.0697 C   0  0  0  0  0  0  0  0  0  0  0  0
   -4.6658    0.0368    0.7444 C   0  0  0  0  0  0  0  0  0  0  0  0
   -2.8002   -2.5795    2.5580 H   0  0  0  0  0  0  0  0  0  0  0  0
   -3.8018   -2.4801    4.0168 H   0  0  0  0  0  0  0  0  0  0  0  0
   -4.5629   -2.5401    2.4180 H   0  0  0  0  0  0  0  0  0  0  0  0
   -2.8356   -0.2598    3.5312 H   0  0  0  0  0  0  0  0  0  0  0  0
   -4.5647   -0.2060    3.4004 H   0  0  0  0  0  0  0  0  0  0  0  0
   -1.0180   -0.4447    2.3198 H   0  0  0  0  0  0  0  0  0  0  0  0
    0.1201    0.3041   -0.4537 H   0  0  0  0  0  0  0  0  0  0  0  0
    1.3817   -0.5513    2.2237 H   0  0  0  0  0  0  0  0  0  0  0  0
    3.2237    3.0871   -0.0820 H   0  0  0  0  0  0  0  0  0  0  0  0
    1.6691    2.4539    0.4496 H   0  0  0  0  0  0  0  0  0  0  0  0
    2.6605    2.4938   -2.4666 H   0  0  0  0  0  0  0  0  0  0  0  0
    1.1523    1.7450   -1.9449 H   0  0  0  0  0  0  0  0  0  0  0  0
    1.3807    3.4915   -1.7703 H   0  0  0  0  0  0  0  0  0  0  0  0
    4.9901    2.5676   -1.6663 H   0  0  0  0  0  0  0  0  0  0  0  0
    7.1744    1.6462   -2.3688 H   0  0  0  0  0  0  0  0  0  0  0  0
    7.8074   -0.6766   -1.8027 H   0  0  0  0  0  0  0  0  0  0  0  0
    6.2669   -2.1324   -0.5110 H   0  0  0  0  0  0  0  0  0  0  0  0
    2.6626   -2.1429   -1.2998 H   0  0  0  0  0  0  0  0  0  0  0  0
    2.2006   -2.8516    0.2488 H   0  0  0  0  0  0  0  0  0  0  0  0
    3.7848   -3.2153   -0.4509 H   0  0  0  0  0  0  0  0  0  0  0  0
    4.4711   -0.7294    2.3845 H   0  0  0  0  0  0  0  0  0  0  0  0
    4.9248   -2.3340    1.7937 H   0  0  0  0  0  0  0  0  0  0  0  0
    3.2966   -2.0468    2.4163 H   0  0  0  0  0  0  0  0  0  0  0  0
   -2.6702    2.5742   -0.2843 H   0  0  0  0  0  0  0  0  0  0  0  0
   -2.7333    2.1544   -1.9979 H   0  0  0  0  0  0  0  0  0  0  0  0
   -1.2404    1.9320   -1.0953 H   0  0  0  0  0  0  0  0  0  0  0  0
   -1.2414   -0.6190   -1.8523 H   0  0  0  0  0  0  0  0  0  0  0  0
   -2.7620   -0.3895   -2.6989 H   0  0  0  0  0  0  0  0  0  0  0  0
   -2.6356   -1.6224   -1.4419 H   0  0  0  0  0  0  0  0  0  0  0  0
   -4.9510    0.9138   -2.5574 H   0  0  0  0  0  0  0  0  0  0  0  0
   -7.3543    0.7276   -1.9651 H   0  0  0  0  0  0  0  0  0  0  0  0
   -8.0284    0.0993    0.3328 H   0  0  0  0  0  0  0  0  0  0  0  0
   -6.3367   -0.3450    2.0654 H   0  0  0  0  0  0  0  0  0  0  0  0
  1  2  1  0
  2  3  1  0
  3  4  1  0
  4  5  2  3
  5  6  1  0
  6  7  2  3
  7  8  1  0
  8  9  2  0
  9 10  1  0
 10 11  1  0
  9 12  1  0
 12 13  2  0
 13 14  1  0
 14 15  2  0
 15 16  1  0
 16 17  2  0
 17 18  1  0
 18 19  1  0
 18 20  1  0
  4 21  1  0
 21 22  1  0
 21 23  1  0
 21 24  1  0
 24 25  2  0
 25 26  1  0
 26 27  2  0
 27 28  1  0
 28 29  2  0
 29  3  1  0
 18  8  1  0
 29 24  1  0
 17 12  1  0
  1 30  1  0
  1 31  1  0
  1 32  1  0
  2 33  1  0
  2 34  1  0
  5 35  1  0
  6 36  1  0
  7 37  1  0
 10 38  1  0
 10 39  1  0
 11 40  1  0
 11 41  1  0
 11 42  1  0
 13 43  1  0
 14 44  1  0
 15 45  1  0
 16 46  1  0
 19 47  1  0
 19 48  1  0
 19 49  1  0
 20 50  1  0
 20 51  1  0
 20 52  1  0
 22 53  1  0
 22 54  1  0
 22 55  1  0
 23 56  1  0
 23 57  1  0
 23 58  1  0
 25 59  1  0
 26 60  1  0
 27 61  1  0
 28 62  1  0
M  CHG  1   9   1
M  END
$$$$
