
     RDKit          3D

 35 36  0  0  0  0  0  0  0  0999 V2000
   -6.2224   -1.6434   -1.4943 C   0  0  0  0  0  0  0  0  0  0  0  0
   -4.9333   -0.9072   -1.2806 C   0  0  0  0  0  0  0  0  0  0  0  0
   -3.7080   -1.5620   -1.4352 C   0  0  0  0  0  0  0  0  0  0  0  0
   -2.4995   -0.8741   -1.2667 C   0  0  0  0  0  0  0  0  0  0  0  0
   -2.4905    0.4857   -0.9497 C   0  0  0  0  0  0  0  0  0  0  0  0
   -1.3017    1.2321   -0.7683 N   0  0  0  0  0  0  0  0  0  0  0  0
    0.0076    0.7846   -0.8298 C   0  0  0  0  0  0  0  0  0  0  0  0
    0.3742   -0.3644   -1.0621 O   0  0  0  0  0  0  0  0  0  0  0  0
    1.0202    1.9157   -0.5947 C   0  0  0  0  0  0  0  0  0  0  0  0
    2.3243    1.4365   -0.2759 O   0  0  0  0  0  0  0  0  0  0  0  0
    2.4197    0.9314    0.9763 C   0  0  0  0  0  0  0  0  0  0  0  0
    1.5547    0.9274    1.8352 O   0  0  0  0  0  0  0  0  0  0  0  0
    3.7237    0.2739    1.1299 C   0  0  0  0  0  0  0  0  0  0  0  0
    3.7133   -1.0979    1.4175 C   0  0  0  0  0  0  0  0  0  0  0  0
    4.9200   -1.7739    1.5740 C   0  0  0  0  0  0  0  0  0  0  0  0
    4.9191   -3.4585    1.9182 Cl  0  0  0  0  0  0  0  0  0  0  0  0
    6.1319   -1.0939    1.4544 C   0  0  0  0  0  0  0  0  0  0  0  0
    6.1384    0.2775    1.1824 C   0  0  0  0  0  0  0  0  0  0  0  0
    4.9331    0.9685    1.0231 C   0  0  0  0  0  0  0  0  0  0  0  0
    5.0113    2.6706    0.7455 Cl  0  0  0  0  0  0  0  0  0  0  0  0
   -3.7267    1.1436   -0.8111 C   0  0  0  0  0  0  0  0  0  0  0  0
   -3.8180    2.9999   -0.3944 Br  0  0  0  0  0  0  0  0  0  0  0  0
   -4.9350    0.4577   -0.9792 C   0  0  0  0  0  0  0  0  0  0  0  0
   -6.5196   -1.5800   -2.5456 H   0  0  0  0  0  0  0  0  0  0  0  0
   -6.1206   -2.6982   -1.2180 H   0  0  0  0  0  0  0  0  0  0  0  0
   -7.0204   -1.2214   -0.8743 H   0  0  0  0  0  0  0  0  0  0  0  0
   -3.6783   -2.6207   -1.6874 H   0  0  0  0  0  0  0  0  0  0  0  0
   -1.5809   -1.4383   -1.3935 H   0  0  0  0  0  0  0  0  0  0  0  0
   -1.4516    2.2060   -0.5260 H   0  0  0  0  0  0  0  0  0  0  0  0
    1.1007    2.4822   -1.5287 H   0  0  0  0  0  0  0  0  0  0  0  0
    0.6652    2.6057    0.1804 H   0  0  0  0  0  0  0  0  0  0  0  0
    2.7672   -1.6283    1.5090 H   0  0  0  0  0  0  0  0  0  0  0  0
    7.0739   -1.6233    1.5780 H   0  0  0  0  0  0  0  0  0  0  0  0
    7.0885    0.8015    1.1036 H   0  0  0  0  0  0  0  0  0  0  0  0
   -5.8805    0.9851   -0.8741 H   0  0  0  0  0  0  0  0  0  0  0  0
  1  2  1  0
  2  3  2  0
  3  4  1  0
  4  5  2  0
  5  6  1  0
  6  7  1  0
  7  8  2  0
  7  9  1  0
  9 10  1  0
 10 11  1  0
 11 12  2  0
 11 13  1  0
 13 14  2  0
 14 15  1  0
 15 16  1  0
 15 17  2  0
 17 18  1  0
 18 19  2  0
 19 20  1  0
  5 21  1  0
 21 22  1  0
 21 23  2  0
 23  2  1  0
 19 13  1  0
  1 24  1  0
  1 25  1  0
  1 26  1  0
  3 27  1  0
  4 28  1  0
  6 29  1  0
  9 30  1  0
  9 31  1  0
 14 32  1  0
 17 33  1  0
 18 34  1  0
 23 35  1  0
M  END
$$$$
