
     RDKit          3D

 59 61  0  0  0  0  0  0  0  0999 V2000
   -7.0092    1.3447   -1.8819 C   0  0  0  0  0  0  0  0  0  0  0  0
   -6.6913    0.1860   -1.2857 C   0  0  0  0  0  0  0  0  0  0  0  0
   -5.9566   -0.0425    0.0409 C   0  0  0  0  0  0  0  0  0  0  0  0
   -5.7520    1.2989    0.8003 C   0  0  0  0  0  0  0  0  0  0  0  0
   -6.8719   -0.8800    0.9724 C   0  0  0  0  0  0  0  0  0  0  0  0
   -4.6192   -0.7888   -0.2265 C   0  0  0  0  0  0  0  0  0  0  0  0
   -3.3715   -0.1575   -0.0134 C   0  0  0  0  0  0  0  0  0  0  0  0
   -2.1342   -0.8011   -0.2404 C   0  0  0  0  0  0  0  0  0  0  0  0
   -0.8564   -0.0059   -0.0377 C   0  0  2  0  0  0  0  0  0  0  0  0
   -0.4410    0.6727   -1.3356 C   0  0  0  0  0  0  0  0  0  0  0  0
    0.8043    1.4672   -1.0670 C   0  0  0  0  0  0  0  0  0  0  0  0
    1.0812    2.4989   -1.6739 O   0  0  0  0  0  0  0  0  0  0  0  0
    1.7438    0.9233   -0.0663 C   0  0  0  0  0  0  0  0  0  0  0  0
    1.3816   -0.2408    0.6125 C   0  0  0  0  0  0  0  0  0  0  0  0
    2.2669   -0.8279    1.5128 C   0  0  0  0  0  0  0  0  0  0  0  0
    3.5031   -0.2264    1.7555 C   0  0  0  0  0  0  0  0  0  0  0  0
    4.3634   -0.7969    2.6520 O   0  0  0  0  0  0  0  0  0  0  0  0
    3.8827    0.9593    1.1059 C   0  0  0  0  0  0  0  0  0  0  0  0
    5.2387    1.5856    1.3572 C   0  0  0  0  0  0  0  0  0  0  0  0
    6.2666    1.1549    0.3420 C   0  0  0  0  0  0  0  0  0  0  0  0
    7.3658    0.3972    0.5281 C   0  0  0  0  0  0  0  0  0  0  0  0
    7.7901   -0.2119    1.8355 C   0  0  0  0  0  0  0  0  0  0  0  0
    8.2849    0.0878   -0.6246 C   0  0  0  0  0  0  0  0  0  0  0  0
    2.9863    1.5245    0.1822 C   0  0  0  0  0  0  0  0  0  0  0  0
    3.3718    2.6702   -0.4687 O   0  0  0  0  0  0  0  0  0  0  0  0
    0.1848   -0.8855    0.4286 O   0  0  0  0  0  0  0  0  0  0  0  0
   -2.1579   -2.1166   -0.7043 C   0  0  0  0  0  0  0  0  0  0  0  0
   -1.0226   -2.8359   -0.9474 O   0  0  0  0  0  0  0  0  0  0  0  0
   -3.3604   -2.7649   -0.9526 C   0  0  0  0  0  0  0  0  0  0  0  0
   -4.5713   -2.1075   -0.7192 C   0  0  0  0  0  0  0  0  0  0  0  0
   -5.7293   -2.7797   -1.0005 O   0  0  0  0  0  0  0  0  0  0  0  0
   -6.7619    2.3134   -1.4642 H   0  0  0  0  0  0  0  0  0  0  0  0
   -7.5374    1.3417   -2.8312 H   0  0  0  0  0  0  0  0  0  0  0  0
   -6.9939   -0.7250   -1.8038 H   0  0  0  0  0  0  0  0  0  0  0  0
   -5.1616    2.0211    0.2247 H   0  0  0  0  0  0  0  0  0  0  0  0
   -5.2428    1.1398    1.7589 H   0  0  0  0  0  0  0  0  0  0  0  0
   -6.7112    1.7820    1.0256 H   0  0  0  0  0  0  0  0  0  0  0  0
   -7.7573   -0.3072    1.2760 H   0  0  0  0  0  0  0  0  0  0  0  0
   -6.3400   -1.1752    1.8848 H   0  0  0  0  0  0  0  0  0  0  0  0
   -7.2527   -1.7921    0.5043 H   0  0  0  0  0  0  0  0  0  0  0  0
   -3.3372    0.8733    0.3312 H   0  0  0  0  0  0  0  0  0  0  0  0
   -1.0330    0.7357    0.7556 H   0  0  0  0  0  0  0  0  0  0  0  0
   -1.2252    1.3516   -1.6881 H   0  0  0  0  0  0  0  0  0  0  0  0
   -0.2141   -0.0511   -2.1268 H   0  0  0  0  0  0  0  0  0  0  0  0
    1.9794   -1.7408    2.0261 H   0  0  0  0  0  0  0  0  0  0  0  0
    3.9971   -1.6393    2.9662 H   0  0  0  0  0  0  0  0  0  0  0  0
    5.1501    2.6791    1.3171 H   0  0  0  0  0  0  0  0  0  0  0  0
    5.5576    1.3882    2.3849 H   0  0  0  0  0  0  0  0  0  0  0  0
    6.0686    1.5401   -0.6588 H   0  0  0  0  0  0  0  0  0  0  0  0
    7.8442   -1.3016    1.7408 H   0  0  0  0  0  0  0  0  0  0  0  0
    8.7815    0.1583    2.1172 H   0  0  0  0  0  0  0  0  0  0  0  0
    7.1132    0.0075    2.6626 H   0  0  0  0  0  0  0  0  0  0  0  0
    7.9468    0.5439   -1.5611 H   0  0  0  0  0  0  0  0  0  0  0  0
    9.2924    0.4632   -0.4172 H   0  0  0  0  0  0  0  0  0  0  0  0
    8.3420   -0.9939   -0.7840 H   0  0  0  0  0  0  0  0  0  0  0  0
    2.6589    2.9362   -1.0924 H   0  0  0  0  0  0  0  0  0  0  0  0
   -0.2886   -2.4083   -0.4672 H   0  0  0  0  0  0  0  0  0  0  0  0
   -3.3359   -3.7834   -1.3280 H   0  0  0  0  0  0  0  0  0  0  0  0
   -5.5101   -3.6582   -1.3521 H   0  0  0  0  0  0  0  0  0  0  0  0
  1  2  2  0
  2  3  1  0
  3  4  1  0
  3  5  1  0
  3  6  1  0
  6  7  2  0
  7  8  1  0
  8  9  1  0
  9 10  1  0
 10 11  1  0
 11 12  2  0
 11 13  1  0
 13 14  2  0
 14 15  1  0
 15 16  2  0
 16 17  1  0
 16 18  1  0
 18 19  1  0
 19 20  1  0
 20 21  2  3
 21 22  1  0
 21 23  1  0
 18 24  2  0
 24 25  1  0
 14 26  1  0
  8 27  2  0
 27 28  1  0
 27 29  1  0
 29 30  2  0
 30 31  1  0
 30  6  1  0
 26  9  1  0
 24 13  1  0
  1 32  1  0
  1 33  1  0
  2 34  1  0
  4 35  1  0
  4 36  1  0
  4 37  1  0
  5 38  1  0
  5 39  1  0
  5 40  1  0
  7 41  1  0
  9 42  1  1
 10 43  1  0
 10 44  1  0
 15 45  1  0
 17 46  1  0
 19 47  1  0
 19 48  1  0
 20 49  1  0
 22 50  1  0
 22 51  1  0
 22 52  1  0
 23 53  1  0
 23 54  1  0
 23 55  1  0
 25 56  1  0
 28 57  1  0
 29 58  1  0
 31 59  1  0
M  END
$$$$
