
     RDKit          3D

 59 62  0  0  0  0  0  0  0  0999 V2000
    6.5807   -0.1823   -1.8564 C   0  0  0  0  0  0  0  0  0  0  0  0
    5.7260   -1.0386   -0.9396 C   0  0  0  0  0  0  0  0  0  0  0  0
    4.4255   -0.4664   -0.8013 O   0  0  0  0  0  0  0  0  0  0  0  0
    3.4967   -0.8804   -1.8050 C   0  0  0  0  0  0  0  0  0  0  0  0
    2.7368   -2.1305   -1.3672 C   0  0  0  0  0  0  0  0  0  0  0  0
    1.8637   -1.9196   -0.1242 C   0  0  0  0  0  0  0  0  0  0  0  0
    0.6126   -1.1916   -0.4371 N   0  0  0  0  0  0  0  0  0  0  0  0
   -0.4547   -1.9009   -1.0162 C   0  0  0  0  0  0  0  0  0  0  0  0
   -0.3239   -3.1755   -1.2420 N   0  0  0  0  0  0  0  0  0  0  0  0
   -1.7100   -1.1607   -1.3570 C   0  0  0  0  0  0  0  0  0  0  0  0
   -3.1169   -1.9226   -1.9966 S   0  0  0  0  0  6  0  0  0  0  0  0
   -3.7619   -1.0371   -2.9526 O   0  0  0  0  0  0  0  0  0  0  0  0
   -2.8276   -3.2985   -2.3681 O   0  0  0  0  0  0  0  0  0  0  0  0
   -4.1798   -2.0100   -0.5660 C   0  0  0  0  0  0  0  0  0  0  0  0
   -3.8688   -2.9040    0.4639 C   0  0  0  0  0  0  0  0  0  0  0  0
   -4.6973   -2.9686    1.5861 C   0  0  0  0  0  0  0  0  0  0  0  0
   -5.8327   -2.1496    1.6838 C   0  0  0  0  0  0  0  0  0  0  0  0
   -6.7361   -2.2553    2.8786 C   0  0  0  0  0  0  0  0  0  0  0  0
   -6.1465   -1.2802    0.6292 C   0  0  0  0  0  0  0  0  0  0  0  0
   -5.3205   -1.2046   -0.4948 C   0  0  0  0  0  0  0  0  0  0  0  0
   -1.7322    0.1591   -1.1089 C   0  0  0  0  0  0  0  0  0  0  0  0
   -0.6019    0.8566   -0.5171 C   0  0  0  0  0  0  0  0  0  0  0  0
   -0.6901    2.3245   -0.2688 C   0  0  0  0  0  0  0  0  0  0  0  0
   -1.7286    2.9264   -0.5477 O   0  0  0  0  0  0  0  0  0  0  0  0
    0.4362    2.9212    0.2685 N   0  0  0  0  0  0  0  0  0  0  0  0
    0.4421    4.2910    0.5094 C   0  0  0  0  0  0  0  0  0  0  0  0
    1.5079    4.9184    1.0334 C   0  0  0  0  0  0  0  0  0  0  0  0
    1.5417    6.3897    1.3046 C   0  0  0  0  0  0  0  0  0  0  0  0
    2.6873    4.1483    1.3568 C   0  0  0  0  0  0  0  0  0  0  0  0
    2.7211    2.8288    1.1441 C   0  0  0  0  0  0  0  0  0  0  0  0
    1.5350    2.1402    0.5686 C   0  0  0  0  0  0  0  0  0  0  0  0
    1.5941    0.8622    0.3816 N   0  0  0  0  0  0  0  0  0  0  0  0
    0.5322    0.1993   -0.1813 C   0  0  0  0  0  0  0  0  0  0  0  0
    6.6154    0.8496   -1.4932 H   0  0  0  0  0  0  0  0  0  0  0  0
    7.6029   -0.5726   -1.9113 H   0  0  0  0  0  0  0  0  0  0  0  0
    6.1668   -0.1472   -2.8678 H   0  0  0  0  0  0  0  0  0  0  0  0
    6.1765   -1.0559    0.0588 H   0  0  0  0  0  0  0  0  0  0  0  0
    5.6748   -2.0723   -1.2957 H   0  0  0  0  0  0  0  0  0  0  0  0
    2.8025   -0.0518   -1.9808 H   0  0  0  0  0  0  0  0  0  0  0  0
    4.0123   -1.0630   -2.7566 H   0  0  0  0  0  0  0  0  0  0  0  0
    3.4633   -2.9173   -1.1298 H   0  0  0  0  0  0  0  0  0  0  0  0
    2.1329   -2.4911   -2.2067 H   0  0  0  0  0  0  0  0  0  0  0  0
    1.6114   -2.8997    0.3002 H   0  0  0  0  0  0  0  0  0  0  0  0
    2.4346   -1.4235    0.6684 H   0  0  0  0  0  0  0  0  0  0  0  0
   -1.1483   -3.5918   -1.7069 H   0  0  0  0  0  0  0  0  0  0  0  0
   -2.9990   -3.5561    0.4026 H   0  0  0  0  0  0  0  0  0  0  0  0
   -4.4572   -3.6689    2.3868 H   0  0  0  0  0  0  0  0  0  0  0  0
   -6.1607   -2.4610    3.7878 H   0  0  0  0  0  0  0  0  0  0  0  0
   -7.2825   -1.3184    3.0497 H   0  0  0  0  0  0  0  0  0  0  0  0
   -7.4533   -3.0636    2.7251 H   0  0  0  0  0  0  0  0  0  0  0  0
   -7.0388   -0.6596    0.6748 H   0  0  0  0  0  0  0  0  0  0  0  0
   -5.5811   -0.5239   -1.3051 H   0  0  0  0  0  0  0  0  0  0  0  0
   -2.6123    0.7573   -1.3368 H   0  0  0  0  0  0  0  0  0  0  0  0
   -0.4655    4.8345    0.2476 H   0  0  0  0  0  0  0  0  0  0  0  0
    2.3083    6.8739    0.6919 H   0  0  0  0  0  0  0  0  0  0  0  0
    1.7678    6.5851    2.3606 H   0  0  0  0  0  0  0  0  0  0  0  0
    0.5809    6.8672    1.0797 H   0  0  0  0  0  0  0  0  0  0  0  0
    3.5500    4.6588    1.7730 H   0  0  0  0  0  0  0  0  0  0  0  0
    3.5879    2.2225    1.3625 H   0  0  0  0  0  0  0  0  0  0  0  0
  1  2  1  0
  2  3  1  0
  3  4  1  0
  4  5  1  0
  5  6  1  0
  6  7  1  0
  7  8  1  0
  8  9  2  3
  8 10  1  0
 10 11  1  0
 11 12  2  0
 11 13  2  0
 11 14  1  0
 14 15  2  0
 15 16  1  0
 16 17  2  0
 17 18  1  0
 17 19  1  0
 19 20  2  0
 10 21  2  0
 21 22  1  0
 22 23  1  0
 23 24  2  0
 23 25  1  0
 25 26  1  0
 26 27  2  0
 27 28  1  0
 27 29  1  0
 29 30  2  0
 30 31  1  0
 31 32  2  0
 32 33  1  0
 33  7  1  0
 20 14  1  0
 33 22  2  0
 31 25  1  0
  1 34  1  0
  1 35  1  0
  1 36  1  0
  2 37  1  0
  2 38  1  0
  4 39  1  0
  4 40  1  0
  5 41  1  0
  5 42  1  0
  6 43  1  0
  6 44  1  0
  9 45  1  0
 15 46  1  0
 16 47  1  0
 18 48  1  0
 18 49  1  0
 18 50  1  0
 19 51  1  0
 20 52  1  0
 21 53  1  0
 26 54  1  0
 28 55  1  0
 28 56  1  0
 28 57  1  0
 29 58  1  0
 30 59  1  0
M  END
$$$$
