
     RDKit          3D

 37 39  0  0  0  0  0  0  0  0999 V2000
   -7.2716    2.5778   -1.2641 C   0  0  0  0  0  0  0  0  0  0  0  0
   -6.8293    1.3871   -0.4271 C   0  0  0  0  0  0  0  0  0  0  0  0
   -5.3669    1.1068   -0.5551 C   0  0  0  0  0  0  0  0  0  0  0  0
   -4.5710    1.5604   -1.5063 N   0  0  0  0  0  0  0  0  0  0  0  0
   -3.2742    1.1121   -1.3473 N   0  0  0  0  0  0  0  0  0  0  0  0
   -3.1415    0.3232   -0.3038 C   0  0  0  0  0  0  0  0  0  0  0  0
   -1.9448   -0.2520    0.0347 N   0  0  0  0  0  0  0  0  0  0  0  0
   -1.6982   -1.1292    1.0659 C   0  0  0  0  0  0  0  0  0  0  0  0
   -2.5112   -1.5609    1.8796 O   0  0  0  0  0  0  0  0  0  0  0  0
   -0.2390   -1.5900    1.1217 C   0  0  0  0  0  0  0  0  0  0  0  0
    0.5757   -0.8488    0.2111 O   0  0  0  0  0  0  0  0  0  0  0  0
    1.9248   -1.0241    0.3621 C   0  0  0  0  0  0  0  0  0  0  0  0
    2.5344   -2.1719    0.8612 C   0  0  0  0  0  0  0  0  0  0  0  0
    3.9273   -2.2362    0.9650 C   0  0  0  0  0  0  0  0  0  0  0  0
    4.7299   -1.1576    0.5662 C   0  0  0  0  0  0  0  0  0  0  0  0
    6.1291   -1.2052    0.6751 C   0  0  0  0  0  0  0  0  0  0  0  0
    6.9128   -0.1212    0.2748 C   0  0  0  0  0  0  0  0  0  0  0  0
    6.3088    1.0203   -0.2440 C   0  0  0  0  0  0  0  0  0  0  0  0
    4.9192    1.0819   -0.3603 C   0  0  0  0  0  0  0  0  0  0  0  0
    4.1153    0.0007    0.0422 C   0  0  0  0  0  0  0  0  0  0  0  0
    2.7146    0.0469   -0.0607 C   0  0  0  0  0  0  0  0  0  0  0  0
   -4.5758    0.0913    0.5850 S   0  0  0  0  0  0  0  0  0  0  0  0
   -7.0980    2.3977   -2.3296 H   0  0  0  0  0  0  0  0  0  0  0  0
   -6.7300    3.4871   -0.9783 H   0  0  0  0  0  0  0  0  0  0  0  0
   -8.3413    2.7618   -1.1220 H   0  0  0  0  0  0  0  0  0  0  0  0
   -7.3931    0.5008   -0.7398 H   0  0  0  0  0  0  0  0  0  0  0  0
   -7.0830    1.5828    0.6222 H   0  0  0  0  0  0  0  0  0  0  0  0
   -1.1678    0.0039   -0.5627 H   0  0  0  0  0  0  0  0  0  0  0  0
   -0.2325   -2.6542    0.8608 H   0  0  0  0  0  0  0  0  0  0  0  0
    0.1056   -1.4336    2.1520 H   0  0  0  0  0  0  0  0  0  0  0  0
    1.9593   -3.0403    1.1663 H   0  0  0  0  0  0  0  0  0  0  0  0
    4.3831   -3.1403    1.3634 H   0  0  0  0  0  0  0  0  0  0  0  0
    6.6198   -2.0888    1.0790 H   0  0  0  0  0  0  0  0  0  0  0  0
    7.9948   -0.1697    0.3675 H   0  0  0  0  0  0  0  0  0  0  0  0
    6.9183    1.8642   -0.5573 H   0  0  0  0  0  0  0  0  0  0  0  0
    4.4660    1.9830   -0.7660 H   0  0  0  0  0  0  0  0  0  0  0  0
    2.2302    0.9340   -0.4646 H   0  0  0  0  0  0  0  0  0  0  0  0
  1  2  1  0
  2  3  1  0
  3  4  2  0
  4  5  1  0
  5  6  2  0
  6  7  1  0
  7  8  1  0
  8  9  2  0
  8 10  1  0
 10 11  1  0
 11 12  1  0
 12 13  2  0
 13 14  1  0
 14 15  2  0
 15 16  1  0
 16 17  2  0
 17 18  1  0
 18 19  2  0
 19 20  1  0
 20 21  2  0
  6 22  1  0
 22  3  1  0
 21 12  1  0
 20 15  1  0
  1 23  1  0
  1 24  1  0
  1 25  1  0
  2 26  1  0
  2 27  1  0
  7 28  1  0
 10 29  1  0
 10 30  1  0
 13 31  1  0
 14 32  1  0
 16 33  1  0
 17 34  1  0
 18 35  1  0
 19 36  1  0
 21 37  1  0
M  END
$$$$
