
     RDKit          3D

 50 52  0  0  0  0  0  0  0  0999 V2000
    3.0085   -2.0230   -2.8238 C   0  0  0  0  0  0  0  0  0  0  0  0
    2.9773   -1.8892   -1.3107 C   0  0  0  0  0  0  0  0  0  0  0  0
    2.9198   -0.4825   -0.8873 N   0  0  0  0  0  4  0  0  0  0  0  0
    1.7792    0.1493   -0.6226 C   0  0  0  0  0  0  0  0  0  0  0  0
    0.4685   -0.3847   -0.7765 C   0  0  0  0  0  0  0  0  0  0  0  0
   -0.5781   -0.0145   -0.0191 C   0  0  0  0  0  0  0  0  0  0  0  0
   -1.9007   -0.5763   -0.2165 C   0  0  0  0  0  0  0  0  0  0  0  0
   -2.9836   -0.1677    0.4642 C   0  0  0  0  0  0  0  0  0  0  0  0
   -4.3021   -0.6289    0.3226 N   0  0  0  0  0  0  0  0  0  0  0  0
   -4.6820   -1.4624   -0.7550 C   0  0  0  0  0  0  0  0  0  0  0  0
   -5.9118   -2.3289   -0.5611 C   0  0  0  0  0  0  0  0  0  0  0  0
   -4.0493   -1.5750   -1.8101 O   0  0  0  0  0  0  0  0  0  0  0  0
   -5.2956   -0.1326    1.2437 C   0  0  0  0  0  0  0  0  0  0  0  0
   -5.0124   -0.0427    2.6162 C   0  0  0  0  0  0  0  0  0  0  0  0
   -5.9642    0.4535    3.5109 C   0  0  0  0  0  0  0  0  0  0  0  0
   -7.2049    0.8798    3.0442 C   0  0  0  0  0  0  0  0  0  0  0  0
   -7.4937    0.8156    1.6835 C   0  0  0  0  0  0  0  0  0  0  0  0
   -6.5441    0.3164    0.7878 C   0  0  0  0  0  0  0  0  0  0  0  0
    2.0954    1.7620   -0.1103 S   0  0  0  0  0  0  0  0  0  0  0  0
    3.7924    1.5665   -0.2702 C   0  0  0  0  0  0  0  0  0  0  0  0
    4.8108    2.4995   -0.0233 C   0  0  0  0  0  0  0  0  0  0  0  0
    6.1413    2.1187   -0.2293 C   0  0  0  0  0  0  0  0  0  0  0  0
    7.0491    3.1030    0.0407 O   0  0  0  0  0  0  0  0  0  0  0  0
    8.4273    2.8006   -0.1489 C   0  0  0  0  0  0  0  0  0  0  0  0
    6.4377    0.8334   -0.6729 C   0  0  0  0  0  0  0  0  0  0  0  0
    5.4148   -0.0981   -0.9179 C   0  0  0  0  0  0  0  0  0  0  0  0
    4.0719    0.2780   -0.7095 C   0  0  0  0  0  0  0  0  0  0  0  0
    2.1209   -1.5715   -3.2775 H   0  0  0  0  0  0  0  0  0  0  0  0
    3.0427   -3.0780   -3.1121 H   0  0  0  0  0  0  0  0  0  0  0  0
    3.8863   -1.5240   -3.2459 H   0  0  0  0  0  0  0  0  0  0  0  0
    3.8609   -2.3650   -0.8709 H   0  0  0  0  0  0  0  0  0  0  0  0
    2.1234   -2.4398   -0.9006 H   0  0  0  0  0  0  0  0  0  0  0  0
    0.3054   -1.1283   -1.5535 H   0  0  0  0  0  0  0  0  0  0  0  0
   -0.4843    0.7278    0.7723 H   0  0  0  0  0  0  0  0  0  0  0  0
   -1.9830   -1.3607   -0.9638 H   0  0  0  0  0  0  0  0  0  0  0  0
   -2.8614    0.6152    1.2111 H   0  0  0  0  0  0  0  0  0  0  0  0
   -5.7241   -3.3018   -1.0279 H   0  0  0  0  0  0  0  0  0  0  0  0
   -6.7750   -1.8723   -1.0502 H   0  0  0  0  0  0  0  0  0  0  0  0
   -6.1224   -2.5225    0.4933 H   0  0  0  0  0  0  0  0  0  0  0  0
   -4.0631   -0.3920    3.0138 H   0  0  0  0  0  0  0  0  0  0  0  0
   -5.7399    0.5025    4.5740 H   0  0  0  0  0  0  0  0  0  0  0  0
   -7.9455    1.2677    3.7399 H   0  0  0  0  0  0  0  0  0  0  0  0
   -8.4562    1.1654    1.3165 H   0  0  0  0  0  0  0  0  0  0  0  0
   -6.7841    0.3274   -0.2725 H   0  0  0  0  0  0  0  0  0  0  0  0
    4.5791    3.5057    0.3211 H   0  0  0  0  0  0  0  0  0  0  0  0
    9.0044    3.6936    0.1094 H   0  0  0  0  0  0  0  0  0  0  0  0
    8.7470    1.9912    0.5157 H   0  0  0  0  0  0  0  0  0  0  0  0
    8.6360    2.5581   -1.1962 H   0  0  0  0  0  0  0  0  0  0  0  0
    7.4651    0.5184   -0.8420 H   0  0  0  0  0  0  0  0  0  0  0  0
    5.6962   -1.0871   -1.2685 H   0  0  0  0  0  0  0  0  0  0  0  0
  1  2  1  0
  2  3  1  0
  3  4  2  0
  4  5  1  0
  5  6  2  3
  6  7  1  0
  7  8  2  3
  8  9  1  0
  9 10  1  0
 10 11  1  0
 10 12  2  0
  9 13  1  0
 13 14  2  0
 14 15  1  0
 15 16  2  0
 16 17  1  0
 17 18  2  0
  4 19  1  0
 19 20  1  0
 20 21  2  0
 21 22  1  0
 22 23  1  0
 23 24  1  0
 22 25  2  0
 25 26  1  0
 26 27  2  0
 27  3  1  0
 18 13  1  0
 27 20  1  0
  1 28  1  0
  1 29  1  0
  1 30  1  0
  2 31  1  0
  2 32  1  0
  5 33  1  0
  6 34  1  0
  7 35  1  0
  8 36  1  0
 11 37  1  0
 11 38  1  0
 11 39  1  0
 14 40  1  0
 15 41  1  0
 16 42  1  0
 17 43  1  0
 18 44  1  0
 21 45  1  0
 24 46  1  0
 24 47  1  0
 24 48  1  0
 25 49  1  0
 26 50  1  0
M  CHG  1   3   1
M  END
$$$$
