
     RDKit          3D

 40 42  0  0  0  0  0  0  0  0999 V2000
   -5.6751   -0.1059   -1.8784 C   0  0  0  0  0  0  0  0  0  0  0  0
   -5.0821    0.5936   -0.9014 C   0  0  0  0  0  0  0  0  0  0  0  0
   -4.6098    0.0104    0.3988 C   0  0  0  0  0  0  0  0  0  0  0  0
   -3.1859    0.2542    0.6124 N   0  0  0  0  0  0  0  0  0  0  0  0
   -2.1910   -0.6059    0.2166 C   0  0  0  0  0  0  0  0  0  0  0  0
   -0.9813   -0.0575    0.5805 C   0  0  0  0  0  0  0  0  0  0  0  0
    0.2638   -0.6953    0.2924 C   0  0  0  0  0  0  0  0  0  0  0  0
    1.4078   -0.0587   -0.0097 C   0  0  0  0  0  0  0  0  0  0  0  0
    2.6718   -0.7364   -0.3168 C   0  0  0  0  0  0  0  0  0  0  0  0
    2.7310   -1.8797   -1.1121 C   0  0  0  0  0  0  0  0  0  0  0  0
    3.9623   -2.4609   -1.3941 C   0  0  0  0  0  0  0  0  0  0  0  0
    5.1049   -1.9205   -0.9156 N   0  0  0  0  0  4  0  0  0  0  0  0
    6.3961   -2.5613   -1.2173 C   0  0  0  0  0  0  0  0  0  0  0  0
    5.0733   -0.8083   -0.1483 C   0  0  0  0  0  0  0  0  0  0  0  0
    3.8645   -0.1927    0.1566 C   0  0  0  0  0  0  0  0  0  0  0  0
   -1.2505    1.1685    1.2658 C   0  0  0  0  0  0  0  0  0  0  0  0
   -0.4564    2.1445    1.9101 C   0  0  0  0  0  0  0  0  0  0  0  0
   -1.0578    3.2648    2.4936 C   0  0  0  0  0  0  0  0  0  0  0  0
   -2.4370    3.4265    2.4516 C   0  0  0  0  0  0  0  0  0  0  0  0
   -3.2515    2.4725    1.8374 C   0  0  0  0  0  0  0  0  0  0  0  0
   -2.6407    1.3470    1.2580 C   0  0  0  0  0  0  0  0  0  0  0  0
   -5.8584   -1.1727   -1.7937 H   0  0  0  0  0  0  0  0  0  0  0  0
   -5.9958    0.3839   -2.7937 H   0  0  0  0  0  0  0  0  0  0  0  0
   -4.9287    1.6625   -1.0396 H   0  0  0  0  0  0  0  0  0  0  0  0
   -4.7638   -1.0744    0.4409 H   0  0  0  0  0  0  0  0  0  0  0  0
   -5.1600    0.4496    1.2371 H   0  0  0  0  0  0  0  0  0  0  0  0
   -2.4330   -1.5209   -0.3085 H   0  0  0  0  0  0  0  0  0  0  0  0
    0.2415   -1.7830    0.3023 H   0  0  0  0  0  0  0  0  0  0  0  0
    1.4310    1.0288   -0.0419 H   0  0  0  0  0  0  0  0  0  0  0  0
    1.8262   -2.3203   -1.5265 H   0  0  0  0  0  0  0  0  0  0  0  0
    4.0429   -3.3560   -2.0047 H   0  0  0  0  0  0  0  0  0  0  0  0
    6.3350   -3.0481   -2.1941 H   0  0  0  0  0  0  0  0  0  0  0  0
    6.5904   -3.2925   -0.4288 H   0  0  0  0  0  0  0  0  0  0  0  0
    7.1782   -1.7981   -1.2425 H   0  0  0  0  0  0  0  0  0  0  0  0
    6.0194   -0.4182    0.2166 H   0  0  0  0  0  0  0  0  0  0  0  0
    3.8602    0.7046    0.7733 H   0  0  0  0  0  0  0  0  0  0  0  0
    0.6205    2.0311    1.9691 H   0  0  0  0  0  0  0  0  0  0  0  0
   -0.4422    4.0128    2.9871 H   0  0  0  0  0  0  0  0  0  0  0  0
   -2.8914    4.3029    2.9089 H   0  0  0  0  0  0  0  0  0  0  0  0
   -4.3284    2.6089    1.8193 H   0  0  0  0  0  0  0  0  0  0  0  0
  1  2  2  0
  2  3  1  0
  3  4  1  0
  4  5  1  0
  5  6  2  0
  6  7  1  0
  7  8  2  3
  8  9  1  0
  9 10  2  0
 10 11  1  0
 11 12  2  0
 12 13  1  0
 12 14  1  0
 14 15  2  0
  6 16  1  0
 16 17  2  0
 17 18  1  0
 18 19  2  0
 19 20  1  0
 20 21  2  0
 21  4  1  0
 15  9  1  0
 21 16  1  0
  1 22  1  0
  1 23  1  0
  2 24  1  0
  3 25  1  0
  3 26  1  0
  5 27  1  0
  7 28  1  0
  8 29  1  0
 10 30  1  0
 11 31  1  0
 13 32  1  0
 13 33  1  0
 13 34  1  0
 14 35  1  0
 15 36  1  0
 17 37  1  0
 18 38  1  0
 19 39  1  0
 20 40  1  0
M  CHG  1  12   1
M  END
$$$$
