
     RDKit          3D

 53 58  0  0  0  0  0  0  0  0999 V2000
   -0.6729   -1.0058   -1.5643 O   0  0  0  0  0  0  0  0  0  0  0  0
   -1.2590   -0.9773   -0.4780 C   0  0  0  0  0  0  0  0  0  0  0  0
   -0.4002   -0.9873    0.8067 C   0  0  0  0  0  0  0  0  0  0  0  0
    0.9135   -0.3518    0.5699 N   0  0  0  0  0  4  0  0  0  0  0  0
    2.1709   -0.9124    0.7875 C   0  0  0  0  0  0  0  0  0  0  0  0
    3.1459   -0.0072    0.3809 C   0  0  0  0  0  0  0  0  0  0  0  0
    4.7026   -0.2358    0.4104 C   0  0  0  0  0  0  0  0  0  0  0  0
    5.2254   -1.4251    0.9407 C   0  0  0  0  0  0  0  0  0  0  0  0
    6.6091   -1.6420    0.9597 C   0  0  0  0  0  0  0  0  0  0  0  0
    7.4705   -0.6757    0.4468 C   0  0  0  0  0  0  0  0  0  0  0  0
    9.1686   -0.9451    0.4654 Cl  0  0  0  0  0  0  0  0  0  0  0  0
    6.9588    0.5078   -0.0819 C   0  0  0  0  0  0  0  0  0  0  0  0
    5.5751    0.7286   -0.1019 C   0  0  0  0  0  0  0  0  0  0  0  0
    2.4093    1.0833   -0.0466 N   0  0  0  0  0  0  0  0  0  0  0  0
    1.1025    0.8449    0.0202 C   0  0  0  0  0  0  0  0  0  0  0  0
    0.2769    1.9642   -0.4928 C   0  0  0  0  0  0  0  0  0  0  0  0
    1.3056    3.1091   -0.5689 C   0  0  0  0  0  0  0  0  0  0  0  0
    2.6890    2.4013   -0.6007 C   0  0  0  0  0  0  0  0  0  0  0  0
   -2.6373   -0.7516   -0.3047 N   0  0  0  0  0  0  0  0  0  0  0  0
   -3.3323   -1.0780    0.9125 C   0  0  0  0  0  0  0  0  0  0  0  0
   -3.0161   -2.2694    1.5949 C   0  0  0  0  0  0  0  0  0  0  0  0
   -3.6626   -2.6148    2.7849 C   0  0  0  0  0  0  0  0  0  0  0  0
   -4.6490   -1.7848    3.3057 C   0  0  0  0  0  0  0  0  0  0  0  0
   -5.0036   -0.6215    2.6252 C   0  0  0  0  0  0  0  0  0  0  0  0
   -4.3646   -0.2747    1.4261 C   0  0  0  0  0  0  0  0  0  0  0  0
   -4.8667    1.2176    0.6127 S   0  0  0  0  0  0  0  0  0  0  0  0
   -4.4882    0.7349   -1.0578 C   0  0  0  0  0  0  0  0  0  0  0  0
   -5.2424    1.3218   -2.0853 C   0  0  0  0  0  0  0  0  0  0  0  0
   -4.9654    1.0323   -3.4179 C   0  0  0  0  0  0  0  0  0  0  0  0
   -3.9290    0.1618   -3.7290 C   0  0  0  0  0  0  0  0  0  0  0  0
   -3.1689   -0.4190   -2.7081 C   0  0  0  0  0  0  0  0  0  0  0  0
   -3.4292   -0.1480   -1.3527 C   0  0  0  0  0  0  0  0  0  0  0  0
   -0.2307   -2.0213    1.1194 H   0  0  0  0  0  0  0  0  0  0  0  0
   -0.8698   -0.4140    1.6117 H   0  0  0  0  0  0  0  0  0  0  0  0
    2.2134   -1.9091    1.1934 H   0  0  0  0  0  0  0  0  0  0  0  0
    4.5889   -2.2045    1.3521 H   0  0  0  0  0  0  0  0  0  0  0  0
    7.0100   -2.5666    1.3725 H   0  0  0  0  0  0  0  0  0  0  0  0
    7.6330    1.2603   -0.4854 H   0  0  0  0  0  0  0  0  0  0  0  0
    5.2201    1.6545   -0.5374 H   0  0  0  0  0  0  0  0  0  0  0  0
   -0.0778    1.6660   -1.4798 H   0  0  0  0  0  0  0  0  0  0  0  0
   -0.5402    2.1557    0.2032 H   0  0  0  0  0  0  0  0  0  0  0  0
    1.2357    3.7155    0.3430 H   0  0  0  0  0  0  0  0  0  0  0  0
    1.1446    3.7696   -1.4276 H   0  0  0  0  0  0  0  0  0  0  0  0
    3.4179    2.9361    0.0136 H   0  0  0  0  0  0  0  0  0  0  0  0
    3.0501    2.2848   -1.6278 H   0  0  0  0  0  0  0  0  0  0  0  0
   -2.3124   -2.9895    1.1815 H   0  0  0  0  0  0  0  0  0  0  0  0
   -3.4188   -3.5467    3.2932 H   0  0  0  0  0  0  0  0  0  0  0  0
   -5.1630   -2.0540    4.2269 H   0  0  0  0  0  0  0  0  0  0  0  0
   -5.7954    0.0072    3.0319 H   0  0  0  0  0  0  0  0  0  0  0  0
   -6.0537    2.0098   -1.8533 H   0  0  0  0  0  0  0  0  0  0  0  0
   -5.5613    1.4807   -4.2096 H   0  0  0  0  0  0  0  0  0  0  0  0
   -3.7211   -0.0841   -4.7689 H   0  0  0  0  0  0  0  0  0  0  0  0
   -2.4058   -1.1310   -3.0122 H   0  0  0  0  0  0  0  0  0  0  0  0
  1  2  2  0
  2  3  1  0
  3  4  1  0
  4  5  1  0
  5  6  2  0
  6  7  1  0
  7  8  2  0
  8  9  1  0
  9 10  2  0
 10 11  1  0
 10 12  1  0
 12 13  2  0
  6 14  1  0
 14 15  1  0
 15 16  1  0
 16 17  1  0
 17 18  1  0
  2 19  1  0
 19 20  1  0
 20 21  2  0
 21 22  1  0
 22 23  2  0
 23 24  1  0
 24 25  2  0
 25 26  1  0
 26 27  1  0
 27 28  2  0
 28 29  1  0
 29 30  2  0
 30 31  1  0
 31 32  2  0
 15  4  2  0
 32 19  1  0
 13  7  1  0
 18 14  1  0
 25 20  1  0
 32 27  1  0
  3 33  1  0
  3 34  1  0
  5 35  1  0
  8 36  1  0
  9 37  1  0
 12 38  1  0
 13 39  1  0
 16 40  1  0
 16 41  1  0
 17 42  1  0
 17 43  1  0
 18 44  1  0
 18 45  1  0
 21 46  1  0
 22 47  1  0
 23 48  1  0
 24 49  1  0
 28 50  1  0
 29 51  1  0
 30 52  1  0
 31 53  1  0
M  CHG  1   4   1
M  END
$$$$
