
     RDKit          3D

 48 51  0  0  0  0  0  0  0  0999 V2000
    7.7438    1.6203   -0.6616 C   0  0  0  0  0  0  0  0  0  0  0  0
    6.3483    1.1500   -0.6239 C   0  0  0  0  0  0  0  0  0  0  0  0
    5.7519   -0.0851   -0.6274 C   0  0  0  0  0  0  0  0  0  0  0  0
    4.3619    0.1887   -0.5781 C   0  0  0  0  0  0  0  0  0  0  0  0
    3.2653   -0.7803   -0.5570 C   0  0  0  0  0  0  0  0  0  0  0  0
    3.4555   -1.9927   -0.5442 O   0  0  0  0  0  0  0  0  0  0  0  0
    2.0110   -0.2119   -0.5409 N   0  0  0  0  0  0  0  0  0  0  0  0
    0.8144   -1.0000   -0.3643 C   0  0  0  0  0  0  0  0  0  0  0  0
    0.6133   -1.3645    1.1260 C   0  0  0  0  0  0  0  0  0  0  0  0
   -0.8388   -1.8047    1.4758 C   0  0  0  0  0  0  0  0  0  0  0  0
   -0.9201   -2.0875    2.9881 C   0  0  0  0  0  0  0  0  0  0  0  0
   -1.2067   -3.1033    0.7293 C   0  0  0  0  0  0  0  0  0  0  0  0
   -1.8513   -0.6687    1.1244 C   0  0  0  0  0  0  0  0  0  0  0  0
   -1.5441   -0.0560   -0.2027 C   0  0  0  0  0  0  0  0  0  0  0  0
   -0.3454   -0.2179   -0.8761 C   0  0  0  0  0  0  0  0  0  0  0  0
   -0.5447    0.4097   -2.1099 C   0  0  0  0  0  0  0  0  0  0  0  0
   -1.7543    0.9535   -2.2113 N   0  0  0  0  0  0  0  0  0  0  0  0
   -2.3631    0.7235   -1.0109 N   0  0  0  0  0  0  0  0  0  0  0  0
   -3.6615    1.2799   -0.7815 C   0  0  0  0  0  0  0  0  0  0  0  0
   -4.3564    1.8423   -1.8718 C   0  0  0  0  0  0  0  0  0  0  0  0
   -5.6271    2.3981   -1.7021 C   0  0  0  0  0  0  0  0  0  0  0  0
   -6.2057    2.4041   -0.4422 C   0  0  0  0  0  0  0  0  0  0  0  0
   -7.4226    2.9371   -0.2737 F   0  0  0  0  0  0  0  0  0  0  0  0
   -5.5337    1.8715    0.6502 C   0  0  0  0  0  0  0  0  0  0  0  0
   -4.2603    1.3128    0.4848 C   0  0  0  0  0  0  0  0  0  0  0  0
    4.1390    1.5155   -0.5424 N   0  0  0  0  0  0  0  0  0  0  0  0
    5.3878    2.1101   -0.5729 O   0  0  0  0  0  0  0  0  0  0  0  0
    7.9049    2.2763   -1.5225 H   0  0  0  0  0  0  0  0  0  0  0  0
    8.4398    0.7793   -0.7400 H   0  0  0  0  0  0  0  0  0  0  0  0
    7.9847    2.1784    0.2483 H   0  0  0  0  0  0  0  0  0  0  0  0
    6.2319   -1.0522   -0.6612 H   0  0  0  0  0  0  0  0  0  0  0  0
    1.9714    0.7977   -0.4340 H   0  0  0  0  0  0  0  0  0  0  0  0
    0.9131   -1.9216   -0.9513 H   0  0  0  0  0  0  0  0  0  0  0  0
    0.8699   -0.4931    1.7469 H   0  0  0  0  0  0  0  0  0  0  0  0
    1.3282   -2.1492    1.4065 H   0  0  0  0  0  0  0  0  0  0  0  0
   -1.9337   -2.3840    3.2807 H   0  0  0  0  0  0  0  0  0  0  0  0
   -0.2381   -2.8951    3.2770 H   0  0  0  0  0  0  0  0  0  0  0  0
   -0.6510   -1.2008    3.5730 H   0  0  0  0  0  0  0  0  0  0  0  0
   -0.4869   -3.8993    0.9505 H   0  0  0  0  0  0  0  0  0  0  0  0
   -2.1981   -3.4608    1.0306 H   0  0  0  0  0  0  0  0  0  0  0  0
   -1.2280   -2.9691   -0.3566 H   0  0  0  0  0  0  0  0  0  0  0  0
   -1.7824    0.1184    1.8858 H   0  0  0  0  0  0  0  0  0  0  0  0
   -2.8677   -1.0779    1.1409 H   0  0  0  0  0  0  0  0  0  0  0  0
    0.1360    0.4829   -2.9492 H   0  0  0  0  0  0  0  0  0  0  0  0
   -3.9210    1.8467   -2.8704 H   0  0  0  0  0  0  0  0  0  0  0  0
   -6.1615    2.8245   -2.5450 H   0  0  0  0  0  0  0  0  0  0  0  0
   -6.0010    1.9028    1.6300 H   0  0  0  0  0  0  0  0  0  0  0  0
   -3.7666    0.9517    1.3765 H   0  0  0  0  0  0  0  0  0  0  0  0
  1  2  1  0
  2  3  2  0
  3  4  1  0
  4  5  1  0
  5  6  2  0
  5  7  1  0
  7  8  1  0
  8  9  1  0
  9 10  1  0
 10 11  1  0
 10 12  1  0
 10 13  1  0
 13 14  1  0
 14 15  2  0
 15 16  1  0
 16 17  2  0
 17 18  1  0
 18 19  1  0
 19 20  2  0
 20 21  1  0
 21 22  2  0
 22 23  1  0
 22 24  1  0
 24 25  2  0
  4 26  2  0
 26 27  1  0
 27  2  1  0
 15  8  1  0
 25 19  1  0
 18 14  1  0
  1 28  1  0
  1 29  1  0
  1 30  1  0
  3 31  1  0
  7 32  1  0
  8 33  1  0
  9 34  1  0
  9 35  1  0
 11 36  1  0
 11 37  1  0
 11 38  1  0
 12 39  1  0
 12 40  1  0
 12 41  1  0
 13 42  1  0
 13 43  1  0
 16 44  1  0
 20 45  1  0
 21 46  1  0
 24 47  1  0
 25 48  1  0
M  END
$$$$
