
     RDKit          3D

 46 49  0  0  0  0  0  0  0  0999 V2000
    4.4241    1.4986    1.5392 O   0  0  0  0  0  0  0  0  0  0  0  0
    3.5579    1.4678    0.6680 C   0  0  0  0  0  0  0  0  0  0  0  0
    2.4605    2.5223    0.6299 C   0  0  0  0  0  0  0  0  0  0  0  0
    0.9841    1.9556    1.5221 S   0  0  0  0  0  0  0  0  0  0  0  0
    0.2819    0.8791    0.3701 C   0  0  0  0  0  0  0  0  0  0  0  0
    0.7105    0.6846   -0.8548 N   0  0  0  0  0  0  0  0  0  0  0  0
   -0.0801   -0.2749   -1.4262 N   0  0  0  0  0  0  0  0  0  0  0  0
   -1.0106   -0.6225   -0.5541 C   0  0  0  0  0  0  0  0  0  0  0  0
   -2.0875   -1.6343   -0.7942 C   0  0  0  0  0  0  0  0  0  0  0  0
   -3.4680   -1.0411   -0.8765 C   0  0  0  0  0  0  0  0  0  0  0  0
   -4.5379   -1.2334   -0.0210 C   0  0  0  0  0  0  0  0  0  0  0  0
   -5.6894   -0.4930   -0.4166 C   0  0  0  0  0  0  0  0  0  0  0  0
   -5.4724    0.2225   -1.5742 C   0  0  0  0  0  0  0  0  0  0  0  0
   -3.8897   -0.0025   -2.1779 S   0  0  0  0  0  0  0  0  0  0  0  0
   -0.8029    0.0801    0.6158 N   0  0  0  0  0  0  0  0  0  0  0  0
   -1.5283   -0.0569    1.8636 C   0  0  0  0  0  0  0  0  0  0  0  0
   -2.6044    0.9544    2.0181 C   0  0  0  0  0  0  0  0  0  0  0  0
   -3.0738    2.0138    1.2644 C   0  0  0  0  0  0  0  0  0  0  0  0
   -4.1544    2.5762    1.9894 C   0  0  0  0  0  0  0  0  0  0  0  0
   -4.2681    1.8377    3.1434 C   0  0  0  0  0  0  0  0  0  0  0  0
   -3.3388    0.8482    3.1664 O   0  0  0  0  0  0  0  0  0  0  0  0
    3.4566    0.5349   -0.3502 N   0  0  0  0  0  0  0  0  0  0  0  0
    4.3366   -0.5238   -0.6478 C   0  0  0  0  0  0  0  0  0  0  0  0
    3.9465   -1.4073   -1.6640 C   0  0  0  0  0  0  0  0  0  0  0  0
    4.7707   -2.4711   -2.0395 C   0  0  0  0  0  0  0  0  0  0  0  0
    5.9935   -2.6562   -1.3964 C   0  0  0  0  0  0  0  0  0  0  0  0
    7.1169   -4.0947   -1.9008 Br  0  0  0  0  0  0  0  0  0  0  0  0
    6.3942   -1.7839   -0.3878 C   0  0  0  0  0  0  0  0  0  0  0  0
    5.5658   -0.7211   -0.0129 C   0  0  0  0  0  0  0  0  0  0  0  0
    2.8405    3.4203    1.1291 H   0  0  0  0  0  0  0  0  0  0  0  0
    2.2269    2.8082   -0.4014 H   0  0  0  0  0  0  0  0  0  0  0  0
   -1.8729   -2.1680   -1.7298 H   0  0  0  0  0  0  0  0  0  0  0  0
   -2.0526   -2.3956   -0.0053 H   0  0  0  0  0  0  0  0  0  0  0  0
   -4.5003   -1.8653    0.8602 H   0  0  0  0  0  0  0  0  0  0  0  0
   -6.6312   -0.4898    0.1198 H   0  0  0  0  0  0  0  0  0  0  0  0
   -6.1702    0.8607   -2.0981 H   0  0  0  0  0  0  0  0  0  0  0  0
   -1.9509   -1.0660    1.9037 H   0  0  0  0  0  0  0  0  0  0  0  0
   -0.8114    0.0108    2.6896 H   0  0  0  0  0  0  0  0  0  0  0  0
   -2.6909    2.3414    0.3055 H   0  0  0  0  0  0  0  0  0  0  0  0
   -4.7693    3.4202    1.7089 H   0  0  0  0  0  0  0  0  0  0  0  0
   -4.9259    1.8839    4.0005 H   0  0  0  0  0  0  0  0  0  0  0  0
    2.5994    0.5683   -0.9037 H   0  0  0  0  0  0  0  0  0  0  0  0
    2.9953   -1.2743   -2.1774 H   0  0  0  0  0  0  0  0  0  0  0  0
    4.4509   -3.1439   -2.8312 H   0  0  0  0  0  0  0  0  0  0  0  0
    7.3522   -1.9133    0.1146 H   0  0  0  0  0  0  0  0  0  0  0  0
    5.9167   -0.0564    0.7714 H   0  0  0  0  0  0  0  0  0  0  0  0
  1  2  2  0
  2  3  1  0
  3  4  1  0
  4  5  1  0
  5  6  2  0
  6  7  1  0
  7  8  2  0
  8  9  1  0
  9 10  1  0
 10 11  2  0
 11 12  1  0
 12 13  2  0
 13 14  1  0
  8 15  1  0
 15 16  1  0
 16 17  1  0
 17 18  2  0
 18 19  1  0
 19 20  2  0
 20 21  1  0
  2 22  1  0
 22 23  1  0
 23 24  2  0
 24 25  1  0
 25 26  2  0
 26 27  1  0
 26 28  1  0
 28 29  2  0
 15  5  1  0
 21 17  1  0
 29 23  1  0
 14 10  1  0
  3 30  1  0
  3 31  1  0
  9 32  1  0
  9 33  1  0
 11 34  1  0
 12 35  1  0
 13 36  1  0
 16 37  1  0
 16 38  1  0
 18 39  1  0
 19 40  1  0
 20 41  1  0
 22 42  1  0
 24 43  1  0
 25 44  1  0
 28 45  1  0
 29 46  1  0
M  END
$$$$
