
     RDKit          3D

 84 89  0  0  0  0  0  0  0  0999 V2000
   10.6601   -1.5248    2.3529 C   0  0  0  0  0  0  0  0  0  0  0  0
   10.1233   -0.2202    2.1232 O   0  0  0  0  0  0  0  0  0  0  0  0
   10.6120    0.3865    1.0070 C   0  0  0  0  0  0  0  0  0  0  0  0
   11.4505   -0.0901    0.2541 O   0  0  0  0  0  0  0  0  0  0  0  0
    9.9719    1.7407    0.8219 C   0  0  0  0  0  0  0  0  0  0  0  0
    9.3248    1.8801   -0.5540 C   0  0  0  0  0  0  0  0  0  0  0  0
    8.0627    1.0219   -0.6865 C   0  0  0  0  0  0  0  0  0  0  0  0
    7.4163    1.1922   -2.0629 C   0  0  0  0  0  0  0  0  0  0  0  0
    6.1883    0.2991   -2.2630 C   0  0  0  0  0  0  0  0  0  0  0  0
    4.9867    0.7213   -1.4133 C   0  0  0  0  0  0  0  0  0  0  0  0
    3.7885   -0.1984   -1.6572 C   0  0  0  0  0  0  0  0  0  0  0  0
    2.5556    0.2691   -0.8805 C   0  0  0  0  0  0  0  0  0  0  0  0
    1.3635   -0.6528   -1.0901 C   0  0  0  0  0  0  0  0  0  0  0  0
    1.4573   -1.6834   -1.7591 O   0  0  0  0  0  0  0  0  0  0  0  0
    0.1718   -0.2910   -0.4665 N   0  0  0  0  0  0  0  0  0  0  0  0
   -0.0845    1.0699    0.0577 C   0  0  0  0  0  0  0  0  0  0  0  0
   -1.3001    1.1763    1.0200 C   0  0  0  0  0  0  0  0  0  0  0  0
   -2.4275    0.4659    0.4445 N   0  0  0  0  0  0  0  0  0  0  0  0
   -2.0867   -0.9805    0.2682 C   0  0  2  0  0  0  0  0  0  0  0  0
   -1.0226   -1.0898   -0.8144 C   0  0  0  0  0  0  0  0  0  0  0  0
   -3.4292   -1.5470    0.0231 C   0  0  0  0  0  0  0  0  0  0  0  0
   -4.4083   -0.6654    0.5098 C   0  0  0  0  0  0  0  0  0  0  0  0
   -5.6324   -1.2641    0.3884 C   0  0  0  0  0  0  0  0  0  0  0  0
   -6.8014   -0.8507    0.8752 O   0  0  0  0  0  0  0  0  0  0  0  0
   -5.4321   -2.4787   -0.3023 N   0  0  0  0  0  0  0  0  0  0  0  0
   -6.4656   -3.3492   -0.7710 C   0  0  0  0  0  0  0  0  0  0  0  0
   -6.2734   -4.7359   -0.8053 C   0  0  0  0  0  0  0  0  0  0  0  0
   -7.2954   -5.5756   -1.2563 C   0  0  0  0  0  0  0  0  0  0  0  0
   -8.5056   -5.0375   -1.6901 C   0  0  0  0  0  0  0  0  0  0  0  0
   -8.6966   -3.6564   -1.6787 C   0  0  0  0  0  0  0  0  0  0  0  0
   -7.6831   -2.8127   -1.2186 C   0  0  0  0  0  0  0  0  0  0  0  0
   -4.0441   -2.6720   -0.4568 C   0  0  0  0  0  0  0  0  0  0  0  0
   -3.5295   -3.7572   -1.0294 O   0  0  0  0  0  0  0  0  0  0  0  0
   -3.7730    0.5583    1.0613 C   0  0  1  0  0  0  0  0  0  0  0  0
   -3.7957    0.6198    2.6073 C   0  0  0  0  0  0  0  0  0  0  0  0
   -3.2388   -0.1166    3.4092 O   0  0  0  0  0  0  0  0  0  0  0  0
   -4.5716    1.7312    2.9494 N   0  0  0  0  0  0  0  0  0  0  0  0
   -5.0384    2.4068    1.8205 C   0  0  0  0  0  0  0  0  0  0  0  0
   -4.5744    1.7626    0.6624 C   0  0  0  0  0  0  0  0  0  0  0  0
   -4.8660    2.2668   -0.5944 C   0  0  0  0  0  0  0  0  0  0  0  0
   -5.6448    3.4210   -0.6727 C   0  0  0  0  0  0  0  0  0  0  0  0
   -6.1167    4.0542    0.4958 C   0  0  0  0  0  0  0  0  0  0  0  0
   -7.0596    5.4914    0.2883 Cl  0  0  0  0  0  0  0  0  0  0  0  0
   -5.8267    3.5515    1.7799 C   0  0  0  0  0  0  0  0  0  0  0  0
   -6.3251    4.2307    3.0221 C   0  0  0  0  0  0  0  0  0  0  0  0
   10.4234   -2.1893    1.5160 H   0  0  0  0  0  0  0  0  0  0  0  0
   10.1966   -1.9277    3.2572 H   0  0  0  0  0  0  0  0  0  0  0  0
   11.7419   -1.4741    2.5129 H   0  0  0  0  0  0  0  0  0  0  0  0
   10.7563    2.4929    0.9526 H   0  0  0  0  0  0  0  0  0  0  0  0
    9.2288    1.9179    1.6064 H   0  0  0  0  0  0  0  0  0  0  0  0
    9.0599    2.9328   -0.7123 H   0  0  0  0  0  0  0  0  0  0  0  0
   10.0412    1.6088   -1.3384 H   0  0  0  0  0  0  0  0  0  0  0  0
    7.3544    1.3059    0.0990 H   0  0  0  0  0  0  0  0  0  0  0  0
    8.3132   -0.0341   -0.5314 H   0  0  0  0  0  0  0  0  0  0  0  0
    7.1410    2.2411   -2.2217 H   0  0  0  0  0  0  0  0  0  0  0  0
    8.1531    0.9400   -2.8352 H   0  0  0  0  0  0  0  0  0  0  0  0
    5.9022    0.3426   -3.3221 H   0  0  0  0  0  0  0  0  0  0  0  0
    6.4526   -0.7440   -2.0505 H   0  0  0  0  0  0  0  0  0  0  0  0
    4.7149    1.7558   -1.6573 H   0  0  0  0  0  0  0  0  0  0  0  0
    5.2443    0.6930   -0.3489 H   0  0  0  0  0  0  0  0  0  0  0  0
    3.5565   -0.2317   -2.7292 H   0  0  0  0  0  0  0  0  0  0  0  0
    4.0480   -1.2219   -1.3602 H   0  0  0  0  0  0  0  0  0  0  0  0
    2.7846    0.2938    0.1921 H   0  0  0  0  0  0  0  0  0  0  0  0
    2.2869    1.2784   -1.2141 H   0  0  0  0  0  0  0  0  0  0  0  0
   -0.2529    1.7115   -0.8166 H   0  0  0  0  0  0  0  0  0  0  0  0
    0.8061    1.4424    0.5723 H   0  0  0  0  0  0  0  0  0  0  0  0
   -1.5345    2.2361    1.1657 H   0  0  0  0  0  0  0  0  0  0  0  0
   -1.0257    0.7603    1.9965 H   0  0  0  0  0  0  0  0  0  0  0  0
   -1.7028   -1.3950    1.2114 H   0  0  0  0  0  0  0  0  0  0  0  0
   -1.3906   -0.7231   -1.7813 H   0  0  0  0  0  0  0  0  0  0  0  0
   -0.7410   -2.1390   -0.9548 H   0  0  0  0  0  0  0  0  0  0  0  0
   -7.3915   -1.6219    0.9578 H   0  0  0  0  0  0  0  0  0  0  0  0
   -5.3501   -5.1908   -0.4563 H   0  0  0  0  0  0  0  0  0  0  0  0
   -7.1425   -6.6512   -1.2733 H   0  0  0  0  0  0  0  0  0  0  0  0
   -9.2942   -5.6928   -2.0507 H   0  0  0  0  0  0  0  0  0  0  0  0
   -9.6310   -3.2353   -2.0447 H   0  0  0  0  0  0  0  0  0  0  0  0
   -7.8452   -1.7375   -1.2688 H   0  0  0  0  0  0  0  0  0  0  0  0
   -2.5727   -3.6216   -1.1400 H   0  0  0  0  0  0  0  0  0  0  0  0
   -4.7505    1.9828    3.9090 H   0  0  0  0  0  0  0  0  0  0  0  0
   -4.5009    1.7740   -1.4913 H   0  0  0  0  0  0  0  0  0  0  0  0
   -5.8886    3.8322   -1.6501 H   0  0  0  0  0  0  0  0  0  0  0  0
   -7.4108    4.3702    2.9748 H   0  0  0  0  0  0  0  0  0  0  0  0
   -5.8385    5.2045    3.1436 H   0  0  0  0  0  0  0  0  0  0  0  0
   -6.1263    3.6468    3.9253 H   0  0  0  0  0  0  0  0  0  0  0  0
  1  2  1  0
  2  3  1  0
  3  4  2  0
  3  5  1  0
  5  6  1  0
  6  7  1  0
  7  8  1  0
  8  9  1  0
  9 10  1  0
 10 11  1  0
 11 12  1  0
 12 13  1  0
 13 14  2  0
 13 15  1  0
 15 16  1  0
 16 17  1  0
 17 18  1  0
 18 19  1  0
 19 20  1  0
 19 21  1  0
 21 22  1  0
 22 23  2  0
 23 24  1  0
 23 25  1  0
 25 26  1  0
 26 27  2  0
 27 28  1  0
 28 29  2  0
 29 30  1  0
 30 31  2  0
 25 32  1  0
 32 33  1  0
 22 34  1  0
 34 35  1  0
 35 36  2  0
 35 37  1  0
 37 38  1  0
 38 39  2  0
 39 40  1  0
 40 41  2  0
 41 42  1  0
 42 43  1  0
 42 44  2  0
 44 45  1  0
 20 15  1  0
 32 21  2  0
 39 34  1  0
 34 18  1  6
 44 38  1  0
 31 26  1  0
  1 46  1  0
  1 47  1  0
  1 48  1  0
  5 49  1  0
  5 50  1  0
  6 51  1  0
  6 52  1  0
  7 53  1  0
  7 54  1  0
  8 55  1  0
  8 56  1  0
  9 57  1  0
  9 58  1  0
 10 59  1  0
 10 60  1  0
 11 61  1  0
 11 62  1  0
 12 63  1  0
 12 64  1  0
 16 65  1  0
 16 66  1  0
 17 67  1  0
 17 68  1  0
 19 69  1  1
 20 70  1  0
 20 71  1  0
 24 72  1  0
 27 73  1  0
 28 74  1  0
 29 75  1  0
 30 76  1  0
 31 77  1  0
 33 78  1  0
 37 79  1  0
 40 80  1  0
 41 81  1  0
 45 82  1  0
 45 83  1  0
 45 84  1  0
M  END
$$$$
