
     RDKit          3D

 50 52  0  0  0  0  0  0  0  0999 V2000
    6.5518    1.4607   -0.6738 C   0  0  0  0  0  0  0  0  0  0  0  0
    7.0088    0.1197   -0.3541 N   0  0  0  0  0  0  0  0  0  0  0  0
    6.9199   -0.4639    1.2100 S   0  0  0  0  0  6  0  0  0  0  0  0
    7.3121   -1.8541    1.1554 O   0  0  0  0  0  0  0  0  0  0  0  0
    7.5751    0.4837    2.0835 O   0  0  0  0  0  0  0  0  0  0  0  0
    5.1737   -0.4067    1.5392 C   0  0  0  0  0  0  0  0  0  0  0  0
    4.3471   -1.4057    1.0178 C   0  0  0  0  0  0  0  0  0  0  0  0
    2.9764   -1.3705    1.2839 C   0  0  0  0  0  0  0  0  0  0  0  0
    2.4316   -0.3438    2.0698 C   0  0  0  0  0  0  0  0  0  0  0  0
    0.9626   -0.3542    2.3248 C   0  0  0  0  0  0  0  0  0  0  0  0
    0.3200   -1.3905    2.1989 O   0  0  0  0  0  0  0  0  0  0  0  0
    0.3857    0.8534    2.6598 N   0  0  0  0  0  0  0  0  0  0  0  0
   -1.0606    0.9744    2.6923 C   0  0  0  0  0  0  0  0  0  0  0  0
   -1.5519    1.4609    1.3270 C   0  0  0  0  0  0  0  0  0  0  0  0
   -0.9019    2.2433    0.6337 O   0  0  0  0  0  0  0  0  0  0  0  0
   -2.7977    0.9939    0.9670 N   0  0  0  0  0  0  0  0  0  0  0  0
   -3.3597    1.3003   -0.3416 C   0  0  0  0  0  0  0  0  0  0  0  0
   -2.7401    0.4383   -1.4578 C   0  0  0  0  0  0  0  0  0  0  0  0
   -3.1531    0.9066   -2.8509 C   0  0  0  0  0  0  0  0  0  0  0  0
   -4.5668    0.7977   -3.0447 O   0  0  0  0  0  0  0  0  0  0  0  0
   -5.0152   -0.4413   -2.6654 C   0  0  0  0  0  0  0  0  0  0  0  0
   -6.2611   -0.8349   -3.1494 C   0  0  0  0  0  0  0  0  0  0  0  0
   -6.7733   -2.0884   -2.8105 C   0  0  0  0  0  0  0  0  0  0  0  0
   -6.0412   -2.9426   -1.9841 C   0  0  0  0  0  0  0  0  0  0  0  0
   -4.8007   -2.5405   -1.4860 C   0  0  0  0  0  0  0  0  0  0  0  0
   -4.2935   -1.2850   -1.8160 C   0  0  0  0  0  0  0  0  0  0  0  0
   -3.0878   -0.9461   -1.2595 O   0  0  0  0  0  0  0  0  0  0  0  0
    3.2756    0.6367    2.6123 C   0  0  0  0  0  0  0  0  0  0  0  0
    4.6480    0.6064    2.3471 C   0  0  0  0  0  0  0  0  0  0  0  0
    7.1400    1.8480   -1.5107 H   0  0  0  0  0  0  0  0  0  0  0  0
    6.6751    2.1483    0.1667 H   0  0  0  0  0  0  0  0  0  0  0  0
    5.5011    1.4378   -0.9749 H   0  0  0  0  0  0  0  0  0  0  0  0
    7.0567   -0.5893   -1.0825 H   0  0  0  0  0  0  0  0  0  0  0  0
    4.7597   -2.2129    0.4162 H   0  0  0  0  0  0  0  0  0  0  0  0
    2.3307   -2.1496    0.8807 H   0  0  0  0  0  0  0  0  0  0  0  0
    0.8780    1.6964    2.3899 H   0  0  0  0  0  0  0  0  0  0  0  0
   -1.3174    1.7321    3.4383 H   0  0  0  0  0  0  0  0  0  0  0  0
   -1.5255    0.0227    2.9644 H   0  0  0  0  0  0  0  0  0  0  0  0
   -3.1247    0.1411    1.4083 H   0  0  0  0  0  0  0  0  0  0  0  0
   -4.4376    1.1333   -0.2509 H   0  0  0  0  0  0  0  0  0  0  0  0
   -3.1898    2.3634   -0.5457 H   0  0  0  0  0  0  0  0  0  0  0  0
   -1.6469    0.4902   -1.3929 H   0  0  0  0  0  0  0  0  0  0  0  0
   -2.8756    1.9550   -3.0035 H   0  0  0  0  0  0  0  0  0  0  0  0
   -2.6518    0.3152   -3.6282 H   0  0  0  0  0  0  0  0  0  0  0  0
   -6.8268   -0.1718   -3.7979 H   0  0  0  0  0  0  0  0  0  0  0  0
   -7.7413   -2.4006   -3.1943 H   0  0  0  0  0  0  0  0  0  0  0  0
   -6.4386   -3.9207   -1.7242 H   0  0  0  0  0  0  0  0  0  0  0  0
   -4.2345   -3.2016   -0.8355 H   0  0  0  0  0  0  0  0  0  0  0  0
    2.8876    1.4128    3.2666 H   0  0  0  0  0  0  0  0  0  0  0  0
    5.2975    1.3643    2.7813 H   0  0  0  0  0  0  0  0  0  0  0  0
  1  2  1  0
  2  3  1  0
  3  4  2  0
  3  5  2  0
  3  6  1  0
  6  7  2  0
  7  8  1  0
  8  9  2  0
  9 10  1  0
 10 11  2  0
 10 12  1  0
 12 13  1  0
 13 14  1  0
 14 15  2  0
 14 16  1  0
 16 17  1  0
 17 18  1  0
 18 19  1  0
 19 20  1  0
 20 21  1  0
 21 22  2  0
 22 23  1  0
 23 24  2  0
 24 25  1  0
 25 26  2  0
 26 27  1  0
  9 28  1  0
 28 29  2  0
 29  6  1  0
 27 18  1  0
 26 21  1  0
  1 30  1  0
  1 31  1  0
  1 32  1  0
  2 33  1  0
  7 34  1  0
  8 35  1  0
 12 36  1  0
 13 37  1  0
 13 38  1  0
 16 39  1  0
 17 40  1  0
 17 41  1  0
 18 42  1  0
 19 43  1  0
 19 44  1  0
 22 45  1  0
 23 46  1  0
 24 47  1  0
 25 48  1  0
 28 49  1  0
 29 50  1  0
M  END
$$$$
