
     RDKit          3D

 44 47  0  0  0  0  0  0  0  0999 V2000
   -3.1700   -1.4299   -1.4554 O   0  0  0  0  0  0  0  0  0  0  0  0
   -2.5471   -0.8299   -0.5905 C   0  0  0  0  0  0  0  0  0  0  0  0
   -1.7820   -1.3757    0.4186 O   0  0  0  0  0  0  0  0  0  0  0  0
   -1.6667   -2.7688    0.3350 C   0  0  0  0  0  0  0  0  0  0  0  0
   -2.4553   -3.5349    1.1942 C   0  0  0  0  0  0  0  0  0  0  0  0
   -2.3576   -4.9258    1.1576 C   0  0  0  0  0  0  0  0  0  0  0  0
   -1.4671   -5.5363    0.2792 C   0  0  0  0  0  0  0  0  0  0  0  0
   -0.6631   -4.7601   -0.5621 C   0  0  0  0  0  0  0  0  0  0  0  0
   -0.7403   -3.3635   -0.5336 C   0  0  0  0  0  0  0  0  0  0  0  0
    0.1134   -2.5899   -1.4466 C   0  0  0  0  0  0  0  0  0  0  0  0
    1.0523   -1.6875   -1.1239 C   0  0  0  0  0  0  0  0  0  0  0  0
    1.4879   -1.3239    0.2559 C   0  0  0  0  0  0  0  0  0  0  0  0
    1.3388   -2.1072    1.1943 O   0  0  0  0  0  0  0  0  0  0  0  0
    2.1225   -0.0248    0.4260 C   0  0  0  0  0  0  0  0  0  0  0  0
    2.7092    0.5417    1.5442 C   0  0  0  0  0  0  0  0  0  0  0  0
    3.1811    1.8295    1.1627 C   0  0  0  0  0  0  0  0  0  0  0  0
    3.8702    2.8769    1.7974 C   0  0  0  0  0  0  0  0  0  0  0  0
    4.1738    4.0298    1.0594 C   0  0  0  0  0  0  0  0  0  0  0  0
    3.7987    4.1471   -0.2816 C   0  0  0  0  0  0  0  0  0  0  0  0
    3.1196    3.1142   -0.9338 C   0  0  0  0  0  0  0  0  0  0  0  0
    2.8352    1.9794   -0.1738 C   0  0  0  0  0  0  0  0  0  0  0  0
    2.1943    0.8646   -0.6224 O   0  0  0  0  0  0  0  0  0  0  0  0
   -2.5133    0.6606   -0.4880 C   0  0  0  0  0  0  0  0  0  0  0  0
   -3.3031    1.3990   -1.3800 C   0  0  0  0  0  0  0  0  0  0  0  0
   -3.3064    2.8001   -1.3333 C   0  0  0  0  0  0  0  0  0  0  0  0
   -2.5211    3.4722   -0.3962 C   0  0  0  0  0  0  0  0  0  0  0  0
   -1.7282    2.7478    0.4928 C   0  0  0  0  0  0  0  0  0  0  0  0
   -1.7231    1.3457    0.4497 C   0  0  0  0  0  0  0  0  0  0  0  0
   -3.1416   -3.0531    1.8774 H   0  0  0  0  0  0  0  0  0  0  0  0
   -2.9714   -5.5340    1.8151 H   0  0  0  0  0  0  0  0  0  0  0  0
   -1.3930   -6.6225    0.2508 H   0  0  0  0  0  0  0  0  0  0  0  0
    0.0253   -5.2572   -1.2336 H   0  0  0  0  0  0  0  0  0  0  0  0
   -0.0850   -2.7762   -2.4920 H   0  0  0  0  0  0  0  0  0  0  0  0
    1.5658   -1.1586   -1.9219 H   0  0  0  0  0  0  0  0  0  0  0  0
    2.7847    0.0674    2.5153 H   0  0  0  0  0  0  0  0  0  0  0  0
    4.1757    2.7900    2.8353 H   0  0  0  0  0  0  0  0  0  0  0  0
    4.7031    4.8484    1.5368 H   0  0  0  0  0  0  0  0  0  0  0  0
    4.0438    5.0567   -0.8300 H   0  0  0  0  0  0  0  0  0  0  0  0
    2.8184    3.1967   -1.9732 H   0  0  0  0  0  0  0  0  0  0  0  0
   -3.9192    0.8848   -2.1170 H   0  0  0  0  0  0  0  0  0  0  0  0
   -3.9233    3.3640   -2.0298 H   0  0  0  0  0  0  0  0  0  0  0  0
   -2.5277    4.5619   -0.3599 H   0  0  0  0  0  0  0  0  0  0  0  0
   -1.1138    3.2741    1.2203 H   0  0  0  0  0  0  0  0  0  0  0  0
   -1.0946    0.8072    1.1538 H   0  0  0  0  0  0  0  0  0  0  0  0
  1  2  2  0
  2  3  1  0
  3  4  1  0
  4  5  2  0
  5  6  1  0
  6  7  2  0
  7  8  1  0
  8  9  2  0
  9 10  1  0
 10 11  2  3
 11 12  1  0
 12 13  2  0
 12 14  1  0
 14 15  2  0
 15 16  1  0
 16 17  2  0
 17 18  1  0
 18 19  2  0
 19 20  1  0
 20 21  2  0
 21 22  1  0
  2 23  1  0
 23 24  2  0
 24 25  1  0
 25 26  2  0
 26 27  1  0
 27 28  2  0
  9  4  1  0
 22 14  1  0
 28 23  1  0
 21 16  1  0
  5 29  1  0
  6 30  1  0
  7 31  1  0
  8 32  1  0
 10 33  1  0
 11 34  1  0
 15 35  1  0
 17 36  1  0
 18 37  1  0
 19 38  1  0
 20 39  1  0
 24 40  1  0
 25 41  1  0
 26 42  1  0
 27 43  1  0
 28 44  1  0
M  END
$$$$
