
     RDKit          3D

 58 63  0  0  0  0  0  0  0  0999 V2000
    5.6740   -3.9460    0.4816 C   0  0  0  0  0  0  0  0  0  0  0  0
    5.4632   -2.4959    0.7515 C   0  0  0  0  0  0  0  0  0  0  0  0
    6.3544   -1.4559    0.5912 C   0  0  0  0  0  0  0  0  0  0  0  0
    5.7896   -0.2019    0.9637 C   0  0  0  0  0  0  0  0  0  0  0  0
    4.4699   -0.3132    1.3567 C   0  0  0  0  0  0  0  0  0  0  0  0
    3.6129    0.7562    1.8478 C   0  0  0  0  0  0  0  0  0  0  0  0
    4.0260    1.5612    2.6843 O   0  0  0  0  0  0  0  0  0  0  0  0
    2.3125    0.8793    1.3325 N   0  0  0  0  0  0  0  0  0  0  0  0
    1.4286    1.8603    1.9545 C   0  0  0  0  0  0  0  0  0  0  0  0
   -0.0336    1.5454    1.6644 C   0  0  0  0  0  0  0  0  0  0  0  0
   -0.3295    1.6202    0.1426 C   0  0  0  0  0  0  0  0  0  0  0  0
    0.9077    1.1759   -0.6873 C   0  0  0  0  0  0  0  0  0  0  0  0
    1.8663    0.2713    0.0815 C   0  0  0  0  0  0  0  0  0  0  0  0
   -0.5008    3.0509   -0.0811 O   0  0  0  0  0  0  0  0  0  0  0  0
   -1.1777    3.4507   -1.1936 C   0  0  0  0  0  0  0  0  0  0  0  0
   -1.0946    4.8076   -1.5067 C   0  0  0  0  0  0  0  0  0  0  0  0
   -1.7326    5.3055   -2.6454 C   0  0  0  0  0  0  0  0  0  0  0  0
   -2.4564    4.4430   -3.4680 C   0  0  0  0  0  0  0  0  0  0  0  0
   -3.2318    5.0569   -4.8745 Cl  0  0  0  0  0  0  0  0  0  0  0  0
   -2.5566    3.0900   -3.1564 C   0  0  0  0  0  0  0  0  0  0  0  0
   -1.9217    2.6058   -2.0082 C   0  0  0  0  0  0  0  0  0  0  0  0
   -2.0232    1.1878   -1.6424 C   0  0  0  0  0  0  0  0  0  0  0  0
   -2.3908    0.3691   -2.4810 O   0  0  0  0  0  0  0  0  0  0  0  0
   -1.6245    0.8350   -0.2125 C   0  0  0  0  0  0  0  0  0  0  0  0
   -1.5494   -0.6739   -0.0251 C   0  0  0  0  0  0  0  0  0  0  0  0
   -2.9248   -0.9073    0.5035 C   0  0  0  0  0  0  0  0  0  0  0  0
   -3.5086   -2.2654    0.6075 C   0  0  0  0  0  0  0  0  0  0  0  0
   -4.8343   -2.4017    1.0390 C   0  0  0  0  0  0  0  0  0  0  0  0
   -5.4114   -3.6678    1.1528 C   0  0  0  0  0  0  0  0  0  0  0  0
   -4.6678   -4.8033    0.8373 C   0  0  0  0  0  0  0  0  0  0  0  0
   -3.3472   -4.6749    0.4094 C   0  0  0  0  0  0  0  0  0  0  0  0
   -2.7653   -3.4092    0.2949 C   0  0  0  0  0  0  0  0  0  0  0  0
   -3.5436    0.1616    0.8931 N   0  0  0  0  0  0  0  0  0  0  0  0
   -2.6954    1.2623    0.6455 O   0  0  0  0  0  0  0  0  0  0  0  0
    3.9608   -1.9490    1.3604 S   0  0  0  0  0  0  0  0  0  0  0  0
    5.1082   -4.2566   -0.4030 H   0  0  0  0  0  0  0  0  0  0  0  0
    6.7327   -4.1587    0.2976 H   0  0  0  0  0  0  0  0  0  0  0  0
    5.3551   -4.5571    1.3329 H   0  0  0  0  0  0  0  0  0  0  0  0
    7.3705   -1.5864    0.2384 H   0  0  0  0  0  0  0  0  0  0  0  0
    6.3208    0.7426    0.9444 H   0  0  0  0  0  0  0  0  0  0  0  0
    1.7053    2.8512    1.5749 H   0  0  0  0  0  0  0  0  0  0  0  0
    1.5986    1.8647    3.0373 H   0  0  0  0  0  0  0  0  0  0  0  0
   -0.2546    0.5536    2.0721 H   0  0  0  0  0  0  0  0  0  0  0  0
   -0.6616    2.2613    2.2099 H   0  0  0  0  0  0  0  0  0  0  0  0
    0.6035    0.6655   -1.6083 H   0  0  0  0  0  0  0  0  0  0  0  0
    1.4686    2.0626   -1.0139 H   0  0  0  0  0  0  0  0  0  0  0  0
    2.7264    0.0472   -0.5575 H   0  0  0  0  0  0  0  0  0  0  0  0
    1.3772   -0.6748    0.3324 H   0  0  0  0  0  0  0  0  0  0  0  0
   -0.5235    5.4794   -0.8692 H   0  0  0  0  0  0  0  0  0  0  0  0
   -1.6586    6.3637   -2.8851 H   0  0  0  0  0  0  0  0  0  0  0  0
   -3.1313    2.4189   -3.7908 H   0  0  0  0  0  0  0  0  0  0  0  0
   -1.3460   -1.2297   -0.9433 H   0  0  0  0  0  0  0  0  0  0  0  0
   -0.8443   -0.9907    0.7462 H   0  0  0  0  0  0  0  0  0  0  0  0
   -5.4276   -1.5237    1.2864 H   0  0  0  0  0  0  0  0  0  0  0  0
   -6.4416   -3.7656    1.4864 H   0  0  0  0  0  0  0  0  0  0  0  0
   -5.1187   -5.7890    0.9247 H   0  0  0  0  0  0  0  0  0  0  0  0
   -2.7697   -5.5630    0.1641 H   0  0  0  0  0  0  0  0  0  0  0  0
   -1.7339   -3.3457   -0.0369 H   0  0  0  0  0  0  0  0  0  0  0  0
  1  2  1  0
  2  3  2  0
  3  4  1  0
  4  5  2  0
  5  6  1  0
  6  7  2  0
  6  8  1  0
  8  9  1  0
  9 10  1  0
 10 11  1  0
 11 12  1  0
 12 13  1  0
 11 14  1  0
 14 15  1  0
 15 16  2  0
 16 17  1  0
 17 18  2  0
 18 19  1  0
 18 20  1  0
 20 21  2  0
 21 22  1  0
 22 23  2  0
 22 24  1  0
 24 25  1  0
 25 26  1  0
 26 27  1  0
 27 28  2  0
 28 29  1  0
 29 30  2  0
 30 31  1  0
 31 32  2  0
 26 33  2  0
 33 34  1  0
  5 35  1  0
 35  2  1  0
 13  8  1  0
 21 15  1  0
 34 24  1  0
 24 11  1  0
 32 27  1  0
  1 36  1  0
  1 37  1  0
  1 38  1  0
  3 39  1  0
  4 40  1  0
  9 41  1  0
  9 42  1  0
 10 43  1  0
 10 44  1  0
 12 45  1  0
 12 46  1  0
 13 47  1  0
 13 48  1  0
 16 49  1  0
 17 50  1  0
 20 51  1  0
 25 52  1  0
 25 53  1  0
 28 54  1  0
 29 55  1  0
 30 56  1  0
 31 57  1  0
 32 58  1  0
M  END
$$$$
