
     RDKit          3D

 42 44  0  0  0  0  0  0  0  0999 V2000
    2.7885    1.4859    1.5884 O   0  0  0  0  0  0  0  0  0  0  0  0
    2.0759    1.2525    0.6176 C   0  0  0  0  0  0  0  0  0  0  0  0
    2.1368    0.1276   -0.1784 N   0  0  0  0  0  0  0  0  0  0  0  0
    2.9908   -0.9948   -0.0459 C   0  0  0  0  0  0  0  0  0  0  0  0
    3.9719   -1.1015    0.9438 C   0  0  0  0  0  0  0  0  0  0  0  0
    4.7857   -2.2379    1.0228 C   0  0  0  0  0  0  0  0  0  0  0  0
    4.6297   -3.2823    0.1148 C   0  0  0  0  0  0  0  0  0  0  0  0
    3.6566   -3.1942   -0.8773 C   0  0  0  0  0  0  0  0  0  0  0  0
    2.8441   -2.0594   -0.9560 C   0  0  0  0  0  0  0  0  0  0  0  0
    1.6426   -2.0092   -2.2018 Cl  0  0  0  0  0  0  0  0  0  0  0  0
    1.0449    2.2715    0.2473 C   0  0  0  0  0  0  0  0  0  0  0  0
    1.2784    3.5967    0.6516 C   0  0  0  0  0  0  0  0  0  0  0  0
    0.3605    4.6070    0.3561 C   0  0  0  0  0  0  0  0  0  0  0  0
   -0.8035    4.3066   -0.3467 C   0  0  0  0  0  0  0  0  0  0  0  0
   -1.0578    2.9947   -0.7446 C   0  0  0  0  0  0  0  0  0  0  0  0
   -0.1482    1.9751   -0.4296 C   0  0  0  0  0  0  0  0  0  0  0  0
   -0.4182    0.6921   -0.8540 O   0  0  0  0  0  0  0  0  0  0  0  0
   -1.4770    0.0676   -0.2346 C   0  0  0  0  0  0  0  0  0  0  0  0
   -1.4570   -0.1653    1.1442 C   0  0  0  0  0  0  0  0  0  0  0  0
   -2.5261   -0.8245    1.7628 C   0  0  0  0  0  0  0  0  0  0  0  0
   -3.6327   -1.2662    1.0172 C   0  0  0  0  0  0  0  0  0  0  0  0
   -4.7746   -1.9931    1.6908 C   0  0  0  0  0  0  0  0  0  0  0  0
   -4.5999   -3.3416    1.6808 F   0  0  0  0  0  0  0  0  0  0  0  0
   -4.9368   -1.6406    2.9950 F   0  0  0  0  0  0  0  0  0  0  0  0
   -5.9731   -1.7628    1.0884 F   0  0  0  0  0  0  0  0  0  0  0  0
   -3.6395   -1.0584   -0.3713 C   0  0  0  0  0  0  0  0  0  0  0  0
   -2.5582   -0.4055   -0.9816 C   0  0  0  0  0  0  0  0  0  0  0  0
   -2.6030   -0.1944   -2.4170 N   0  0  0  0  0  4  0  0  0  0  0  0
   -1.6223   -0.5462   -3.0833 O   0  0  0  0  0  0  0  0  0  0  0  0
   -3.6372    0.3132   -2.8723 O   0  0  0  0  0  1  0  0  0  0  0  0
    1.4873    0.0693   -0.9593 H   0  0  0  0  0  0  0  0  0  0  0  0
    4.1366   -0.3140    1.6724 H   0  0  0  0  0  0  0  0  0  0  0  0
    5.5453   -2.3007    1.7990 H   0  0  0  0  0  0  0  0  0  0  0  0
    5.2655   -4.1617    0.1806 H   0  0  0  0  0  0  0  0  0  0  0  0
    3.5347   -4.0098   -1.5852 H   0  0  0  0  0  0  0  0  0  0  0  0
    2.1865    3.8493    1.1978 H   0  0  0  0  0  0  0  0  0  0  0  0
    0.5598    5.6291    0.6704 H   0  0  0  0  0  0  0  0  0  0  0  0
   -1.5116    5.0961   -0.5885 H   0  0  0  0  0  0  0  0  0  0  0  0
   -1.9629    2.7788   -1.3064 H   0  0  0  0  0  0  0  0  0  0  0  0
   -0.6108    0.1516    1.7508 H   0  0  0  0  0  0  0  0  0  0  0  0
   -2.4896   -0.9949    2.8397 H   0  0  0  0  0  0  0  0  0  0  0  0
   -4.4823   -1.4054   -0.9698 H   0  0  0  0  0  0  0  0  0  0  0  0
  1  2  2  0
  2  3  1  0
  3  4  1  0
  4  5  2  0
  5  6  1  0
  6  7  2  0
  7  8  1  0
  8  9  2  0
  9 10  1  0
  2 11  1  0
 11 12  2  0
 12 13  1  0
 13 14  2  0
 14 15  1  0
 15 16  2  0
 16 17  1  0
 17 18  1  0
 18 19  2  0
 19 20  1  0
 20 21  2  0
 21 22  1  0
 22 23  1  0
 22 24  1  0
 22 25  1  0
 21 26  1  0
 26 27  2  0
 27 28  1  0
 28 29  2  0
 28 30  1  0
  9  4  1  0
 16 11  1  0
 27 18  1  0
  3 31  1  0
  5 32  1  0
  6 33  1  0
  7 34  1  0
  8 35  1  0
 12 36  1  0
 13 37  1  0
 14 38  1  0
 15 39  1  0
 19 40  1  0
 20 41  1  0
 26 42  1  0
M  CHG  2  28   1  30  -1
M  END
$$$$
