
     RDKit          3D

 33 34  0  0  0  0  0  0  0  0999 V2000
   -4.4892   -2.0304   -0.6541 C   0  0  0  0  0  0  0  0  0  0  0  0
   -3.4449   -0.9527   -0.6757 C   0  0  0  0  0  0  0  0  0  0  0  0
   -3.8222    0.3924   -0.5954 C   0  0  0  0  0  0  0  0  0  0  0  0
   -2.8573    1.4021   -0.5835 C   0  0  0  0  0  0  0  0  0  0  0  0
   -1.5034    1.0720   -0.6555 C   0  0  0  0  0  0  0  0  0  0  0  0
   -0.5698    2.0649   -0.5944 O   0  0  0  0  0  0  0  0  0  0  0  0
   -1.1086   -0.2646   -0.7487 C   0  0  0  0  0  0  0  0  0  0  0  0
    0.3127   -0.6862   -0.8538 C   0  0  0  0  0  0  0  0  0  0  0  0
    0.6661   -1.7184   -0.2848 O   0  0  0  0  0  0  0  0  0  0  0  0
    1.2685    0.1241   -1.6949 C   0  0  0  0  0  0  0  0  0  0  0  0
    2.2322    0.9996   -0.9354 C   0  0  0  0  0  0  0  0  0  0  0  0
    2.6624    2.0579   -1.3932 O   0  0  0  0  0  0  0  0  0  0  0  0
    2.6977    0.5843    0.4007 C   0  0  0  0  0  0  0  0  0  0  0  0
    2.2630    1.3423    1.4963 C   0  0  0  0  0  0  0  0  0  0  0  0
    2.6745    1.0000    2.7849 C   0  0  0  0  0  0  0  0  0  0  0  0
    3.5234   -0.0894    2.9781 C   0  0  0  0  0  0  0  0  0  0  0  0
    3.9702   -0.8325    1.8830 C   0  0  0  0  0  0  0  0  0  0  0  0
    3.5624   -0.4964    0.5883 C   0  0  0  0  0  0  0  0  0  0  0  0
    4.1954   -1.4210   -0.7240 Cl  0  0  0  0  0  0  0  0  0  0  0  0
   -2.0830   -1.2746   -0.7364 C   0  0  0  0  0  0  0  0  0  0  0  0
   -5.3095   -1.7804   -1.3363 H   0  0  0  0  0  0  0  0  0  0  0  0
   -4.0757   -2.9914   -0.9768 H   0  0  0  0  0  0  0  0  0  0  0  0
   -4.8874   -2.1477    0.3583 H   0  0  0  0  0  0  0  0  0  0  0  0
   -4.8756    0.6602   -0.5312 H   0  0  0  0  0  0  0  0  0  0  0  0
   -3.1831    2.4353   -0.5055 H   0  0  0  0  0  0  0  0  0  0  0  0
   -1.0153    2.9297   -0.6055 H   0  0  0  0  0  0  0  0  0  0  0  0
    0.7008    0.7545   -2.3879 H   0  0  0  0  0  0  0  0  0  0  0  0
    1.8370   -0.5675   -2.3263 H   0  0  0  0  0  0  0  0  0  0  0  0
    1.6097    2.1975    1.3440 H   0  0  0  0  0  0  0  0  0  0  0  0
    2.3349    1.5830    3.6379 H   0  0  0  0  0  0  0  0  0  0  0  0
    3.8454   -0.3570    3.9820 H   0  0  0  0  0  0  0  0  0  0  0  0
    4.6414   -1.6721    2.0458 H   0  0  0  0  0  0  0  0  0  0  0  0
   -1.7726   -2.3177   -0.7833 H   0  0  0  0  0  0  0  0  0  0  0  0
  1  2  1  0
  2  3  2  0
  3  4  1  0
  4  5  2  0
  5  6  1  0
  5  7  1  0
  7  8  1  0
  8  9  2  0
  8 10  1  0
 10 11  1  0
 11 12  2  0
 11 13  1  0
 13 14  2  0
 14 15  1  0
 15 16  2  0
 16 17  1  0
 17 18  2  0
 18 19  1  0
  7 20  2  0
 20  2  1  0
 18 13  1  0
  1 21  1  0
  1 22  1  0
  1 23  1  0
  3 24  1  0
  4 25  1  0
  6 26  1  0
 10 27  1  0
 10 28  1  0
 14 29  1  0
 15 30  1  0
 16 31  1  0
 17 32  1  0
 20 33  1  0
M  END
$$$$
