
     RDKit          3D

 45 47  0  0  0  0  0  0  0  0999 V2000
   -4.1486   -0.6862    1.7338 O   0  0  0  0  0  0  0  0  0  0  0  0
   -3.2265   -0.1615    1.1115 C   0  0  0  0  0  0  0  0  0  0  0  0
   -3.4320    0.5266   -0.2325 C   0  0  0  0  0  0  0  0  0  0  0  0
   -4.8561    0.5090   -0.7383 C   0  0  0  0  0  0  0  0  0  0  0  0
   -5.7464    1.5358   -0.3907 C   0  0  0  0  0  0  0  0  0  0  0  0
   -7.0653    1.5139   -0.8502 C   0  0  0  0  0  0  0  0  0  0  0  0
   -7.5017    0.4630   -1.6535 C   0  0  0  0  0  0  0  0  0  0  0  0
   -9.1259    0.4379   -2.2209 Cl  0  0  0  0  0  0  0  0  0  0  0  0
   -6.6318   -0.5687   -1.9985 C   0  0  0  0  0  0  0  0  0  0  0  0
   -5.3127   -0.5480   -1.5396 C   0  0  0  0  0  0  0  0  0  0  0  0
   -1.8594   -0.1761    1.6506 C   0  0  0  0  0  0  0  0  0  0  0  0
   -1.4990   -0.7623    2.8493 C   0  0  0  0  0  0  0  0  0  0  0  0
   -0.1563   -0.5942    3.0341 N   0  0  0  0  0  0  0  0  0  0  0  0
    0.3887    0.1060    1.9786 C   0  0  0  0  0  0  0  0  0  0  0  0
    1.8030    0.4122    1.9432 C   0  0  0  0  0  0  0  0  0  0  0  0
    2.5760    0.0176    2.8100 O   0  0  0  0  0  0  0  0  0  0  0  0
    2.2169    1.1784    0.8758 N   0  0  0  0  0  0  0  0  0  0  0  0
    3.5798    1.6566    0.7654 C   0  0  0  0  0  0  0  0  0  0  0  0
    4.5764    0.5700    0.3668 C   0  0  0  0  0  0  0  0  0  0  0  0
    4.2528   -0.0378   -0.9951 C   0  0  0  0  0  0  0  0  0  0  0  0
    5.2533   -0.9976   -1.4163 N   0  0  0  0  0  0  0  0  0  0  0  0
    5.2945   -2.3213   -1.0817 C   0  0  0  0  0  0  0  0  0  0  0  0
    6.4032   -2.8140   -1.7298 C   0  0  0  0  0  0  0  0  0  0  0  0
    7.0254   -1.8260   -2.4494 N   0  0  0  0  0  0  0  0  0  0  0  0
    6.3099   -0.7437   -2.2421 C   0  0  0  0  0  0  0  0  0  0  0  0
   -0.6564    0.3700    1.1051 C   0  0  0  0  0  0  0  0  0  0  0  0
   -2.7855    0.0422   -0.9749 H   0  0  0  0  0  0  0  0  0  0  0  0
   -3.0992    1.5684   -0.1457 H   0  0  0  0  0  0  0  0  0  0  0  0
   -5.4235    2.3556    0.2475 H   0  0  0  0  0  0  0  0  0  0  0  0
   -7.7466    2.3135   -0.5725 H   0  0  0  0  0  0  0  0  0  0  0  0
   -6.9750   -1.3938   -2.6167 H   0  0  0  0  0  0  0  0  0  0  0  0
   -4.6486   -1.3677   -1.8055 H   0  0  0  0  0  0  0  0  0  0  0  0
   -2.0977   -1.2897    3.5825 H   0  0  0  0  0  0  0  0  0  0  0  0
    0.3835   -0.9266    3.8257 H   0  0  0  0  0  0  0  0  0  0  0  0
    1.5124    1.6049    0.2926 H   0  0  0  0  0  0  0  0  0  0  0  0
    3.8713    2.0882    1.7296 H   0  0  0  0  0  0  0  0  0  0  0  0
    3.5806    2.4628    0.0239 H   0  0  0  0  0  0  0  0  0  0  0  0
    5.5817    1.0094    0.3445 H   0  0  0  0  0  0  0  0  0  0  0  0
    4.6029   -0.2213    1.1256 H   0  0  0  0  0  0  0  0  0  0  0  0
    3.2900   -0.5615   -0.9802 H   0  0  0  0  0  0  0  0  0  0  0  0
    4.1959    0.7392   -1.7664 H   0  0  0  0  0  0  0  0  0  0  0  0
    4.5666   -2.7872   -0.4323 H   0  0  0  0  0  0  0  0  0  0  0  0
    6.7860   -3.8263   -1.7172 H   0  0  0  0  0  0  0  0  0  0  0  0
    6.5135    0.2332   -2.6608 H   0  0  0  0  0  0  0  0  0  0  0  0
   -0.5703    0.8968    0.1642 H   0  0  0  0  0  0  0  0  0  0  0  0
  1  2  2  0
  2  3  1  0
  3  4  1  0
  4  5  2  0
  5  6  1  0
  6  7  2  0
  7  8  1  0
  7  9  1  0
  9 10  2  0
  2 11  1  0
 11 12  2  0
 12 13  1  0
 13 14  1  0
 14 15  1  0
 15 16  2  0
 15 17  1  0
 17 18  1  0
 18 19  1  0
 19 20  1  0
 20 21  1  0
 21 22  1  0
 22 23  2  0
 23 24  1  0
 24 25  2  0
 14 26  2  0
 10  4  1  0
 26 11  1  0
 25 21  1  0
  3 27  1  0
  3 28  1  0
  5 29  1  0
  6 30  1  0
  9 31  1  0
 10 32  1  0
 12 33  1  0
 13 34  1  0
 17 35  1  0
 18 36  1  0
 18 37  1  0
 19 38  1  0
 19 39  1  0
 20 40  1  0
 20 41  1  0
 22 42  1  0
 23 43  1  0
 25 44  1  0
 26 45  1  0
M  END
$$$$
