
     RDKit          3D

 31 33  0  0  0  0  0  0  0  0999 V2000
    0.3718   -1.0779   -2.0283 O   0  0  0  0  0  0  0  0  0  0  0  0
    0.4890   -1.2065   -0.5888 S   0  0  0  0  0  6  0  0  0  0  0  0
    0.2360   -2.4677    0.0769 O   0  0  0  0  0  0  0  0  0  0  0  0
    2.1390   -0.7203   -0.1291 C   0  0  0  0  0  0  0  0  0  0  0  0
    3.0756   -0.3903   -1.1124 C   0  0  0  0  0  0  0  0  0  0  0  0
    4.3610   -0.0070   -0.7294 C   0  0  0  0  0  0  0  0  0  0  0  0
    4.7032    0.0405    0.6238 C   0  0  0  0  0  0  0  0  0  0  0  0
    3.7647   -0.2980    1.6009 C   0  0  0  0  0  0  0  0  0  0  0  0
    2.4777   -0.6824    1.2273 C   0  0  0  0  0  0  0  0  0  0  0  0
   -0.4493    0.0301    0.1289 N   0  0  0  0  0  0  0  0  0  0  0  0
   -0.2236    1.4153   -0.4159 C   0  0  0  0  0  0  0  0  0  0  0  0
   -1.5421    1.8680   -1.0633 C   0  0  0  0  0  0  0  0  0  0  0  0
   -2.5196    0.8766   -0.5301 C   0  0  0  0  0  0  0  0  0  0  0  0
   -3.9003    0.8916   -0.6513 C   0  0  0  0  0  0  0  0  0  0  0  0
   -4.6239   -0.1752   -0.1136 C   0  0  0  0  0  0  0  0  0  0  0  0
   -3.9637   -1.2345    0.5283 C   0  0  0  0  0  0  0  0  0  0  0  0
   -2.5708   -1.2411    0.6381 C   0  0  0  0  0  0  0  0  0  0  0  0
   -1.8663   -0.1833    0.0915 C   0  0  0  0  0  0  0  0  0  0  0  0
    2.8171   -0.4332   -2.1679 H   0  0  0  0  0  0  0  0  0  0  0  0
    5.0996    0.2494   -1.4852 H   0  0  0  0  0  0  0  0  0  0  0  0
    5.7079    0.3355    0.9180 H   0  0  0  0  0  0  0  0  0  0  0  0
    4.0396   -0.2674    2.6525 H   0  0  0  0  0  0  0  0  0  0  0  0
    1.7473   -0.9537    1.9866 H   0  0  0  0  0  0  0  0  0  0  0  0
    0.0293    2.0651    0.4313 H   0  0  0  0  0  0  0  0  0  0  0  0
    0.6026    1.4793   -1.1296 H   0  0  0  0  0  0  0  0  0  0  0  0
   -1.7911    2.8953   -0.7822 H   0  0  0  0  0  0  0  0  0  0  0  0
   -1.4849    1.7883   -2.1540 H   0  0  0  0  0  0  0  0  0  0  0  0
   -4.4114    1.7052   -1.1562 H   0  0  0  0  0  0  0  0  0  0  0  0
   -5.7084   -0.1890   -0.1951 H   0  0  0  0  0  0  0  0  0  0  0  0
   -4.5402   -2.0574    0.9441 H   0  0  0  0  0  0  0  0  0  0  0  0
   -2.0658   -2.0553    1.1468 H   0  0  0  0  0  0  0  0  0  0  0  0
  1  2  2  0
  2  3  2  0
  2  4  1  0
  4  5  2  0
  5  6  1  0
  6  7  2  0
  7  8  1  0
  8  9  2  0
  2 10  1  0
 10 11  1  0
 11 12  1  0
 12 13  1  0
 13 14  2  0
 14 15  1  0
 15 16  2  0
 16 17  1  0
 17 18  2  0
  9  4  1  0
 18 10  1  0
 18 13  1  0
  5 19  1  0
  6 20  1  0
  7 21  1  0
  8 22  1  0
  9 23  1  0
 11 24  1  0
 11 25  1  0
 12 26  1  0
 12 27  1  0
 14 28  1  0
 15 29  1  0
 16 30  1  0
 17 31  1  0
M  END
$$$$
