
     RDKit          3D

 45 47  0  0  0  0  0  0  0  0999 V2000
   -8.0051   -1.3207   -0.8355 C   0  0  0  0  0  0  0  0  0  0  0  0
   -6.5115   -1.5761   -0.9308 C   0  0  0  0  0  0  0  0  0  0  0  0
   -5.8674   -0.7916    0.0685 O   0  0  0  0  0  0  0  0  0  0  0  0
   -4.4989   -0.8562    0.1530 C   0  0  0  0  0  0  0  0  0  0  0  0
   -3.6932   -1.6610   -0.6583 C   0  0  0  0  0  0  0  0  0  0  0  0
   -2.3049   -1.6605   -0.4985 C   0  0  0  0  0  0  0  0  0  0  0  0
   -1.7055   -0.8538    0.4707 C   0  0  0  0  0  0  0  0  0  0  0  0
   -0.2477   -0.8908    0.6291 C   0  0  0  0  0  0  0  0  0  0  0  0
    0.5956    0.1265    0.4071 C   0  0  0  0  0  0  0  0  0  0  0  0
    0.2184    1.7265   -0.1184 S   0  0  0  0  0  0  0  0  0  0  0  0
    1.9080    2.2280   -0.1455 C   0  0  0  0  0  0  0  0  0  0  0  0
    2.4021    3.7737   -0.5317 S   0  0  0  0  0  0  0  0  0  0  0  0
    2.6874    1.1572    0.2403 N   0  0  0  0  0  0  0  0  0  0  0  0
    4.0952    1.2075    0.2432 N   0  0  0  0  0  0  0  0  0  0  0  0
    4.7178    0.7933   -0.9233 C   0  0  0  0  0  0  0  0  0  0  0  0
    4.1189    0.5742   -1.9714 O   0  0  0  0  0  0  0  0  0  0  0  0
    6.1851    0.5783   -0.8391 C   0  0  0  0  0  0  0  0  0  0  0  0
    6.9825    1.2741    0.0707 C   0  0  0  0  0  0  0  0  0  0  0  0
    8.3406    1.0096    0.0703 C   0  0  0  0  0  0  0  0  0  0  0  0
    8.9310    0.1213   -0.7564 N   0  0  0  0  0  0  0  0  0  0  0  0
    8.1375   -0.5232   -1.6387 C   0  0  0  0  0  0  0  0  0  0  0  0
    6.7721   -0.3286   -1.7217 C   0  0  0  0  0  0  0  0  0  0  0  0
    2.0651   -0.0292    0.5854 C   0  0  0  0  0  0  0  0  0  0  0  0
    2.6147   -1.0364    1.0121 O   0  0  0  0  0  0  0  0  0  0  0  0
   -2.5087   -0.0542    1.2937 C   0  0  0  0  0  0  0  0  0  0  0  0
   -3.9005   -0.0423    1.1360 C   0  0  0  0  0  0  0  0  0  0  0  0
   -4.7588    0.7127    1.8978 O   0  0  0  0  0  0  0  0  0  0  0  0
   -4.1888    1.6782    2.7694 C   0  0  0  0  0  0  0  0  0  0  0  0
   -8.3790   -1.5870    0.1587 H   0  0  0  0  0  0  0  0  0  0  0  0
   -8.2248   -0.2583   -0.9846 H   0  0  0  0  0  0  0  0  0  0  0  0
   -8.5488   -1.9025   -1.5850 H   0  0  0  0  0  0  0  0  0  0  0  0
   -6.1627   -1.2847   -1.9282 H   0  0  0  0  0  0  0  0  0  0  0  0
   -6.3202   -2.6417   -0.7600 H   0  0  0  0  0  0  0  0  0  0  0  0
   -4.1135   -2.3020   -1.4257 H   0  0  0  0  0  0  0  0  0  0  0  0
   -1.6987   -2.2943   -1.1426 H   0  0  0  0  0  0  0  0  0  0  0  0
    0.1470   -1.8602    0.9319 H   0  0  0  0  0  0  0  0  0  0  0  0
    4.5229    0.9643    1.1312 H   0  0  0  0  0  0  0  0  0  0  0  0
    6.5833    2.0233    0.7437 H   0  0  0  0  0  0  0  0  0  0  0  0
    9.0144    1.5244    0.7503 H   0  0  0  0  0  0  0  0  0  0  0  0
    8.6463   -1.2209   -2.2982 H   0  0  0  0  0  0  0  0  0  0  0  0
    6.1815   -0.8711   -2.4531 H   0  0  0  0  0  0  0  0  0  0  0  0
   -2.0307    0.5477    2.0591 H   0  0  0  0  0  0  0  0  0  0  0  0
   -3.5549    2.3843    2.2227 H   0  0  0  0  0  0  0  0  0  0  0  0
   -3.6353    1.1950    3.5811 H   0  0  0  0  0  0  0  0  0  0  0  0
   -5.0078    2.2472    3.2197 H   0  0  0  0  0  0  0  0  0  0  0  0
  1  2  1  0
  2  3  1  0
  3  4  1  0
  4  5  2  0
  5  6  1  0
  6  7  2  0
  7  8  1  0
  8  9  2  3
  9 10  1  0
 10 11  1  0
 11 12  2  0
 11 13  1  0
 13 14  1  0
 14 15  1  0
 15 16  2  0
 15 17  1  0
 17 18  2  0
 18 19  1  0
 19 20  2  0
 20 21  1  0
 21 22  2  0
 13 23  1  0
 23 24  2  0
  7 25  1  0
 25 26  2  0
 26 27  1  0
 27 28  1  0
 26  4  1  0
 23  9  1  0
 22 17  1  0
  1 29  1  0
  1 30  1  0
  1 31  1  0
  2 32  1  0
  2 33  1  0
  5 34  1  0
  6 35  1  0
  8 36  1  0
 14 37  1  0
 18 38  1  0
 19 39  1  0
 21 40  1  0
 22 41  1  0
 25 42  1  0
 28 43  1  0
 28 44  1  0
 28 45  1  0
M  END
$$$$
