
     RDKit          3D

 40 41  0  0  0  0  0  0  0  0999 V2000
   -6.1944    1.5563   -2.1126 C   0  0  0  0  0  0  0  0  0  0  0  0
   -5.2725    2.5107   -1.5995 O   0  0  0  0  0  0  0  0  0  0  0  0
   -4.2395    2.0317   -0.8440 C   0  0  0  0  0  0  0  0  0  0  0  0
   -4.0287    0.6989   -0.4898 C   0  0  0  0  0  0  0  0  0  0  0  0
   -2.9243    0.3467    0.2954 C   0  0  0  0  0  0  0  0  0  0  0  0
   -2.0200    1.3243    0.7320 C   0  0  0  0  0  0  0  0  0  0  0  0
   -0.8628    0.8949    1.5623 C   0  0  0  0  0  0  0  0  0  0  0  0
   -0.6563   -0.2633    1.8936 O   0  0  0  0  0  0  0  0  0  0  0  0
   -0.0810    1.9528    1.8823 O   0  0  0  0  0  0  0  0  0  0  0  0
    1.0622    1.6497    2.6839 C   0  0  0  0  0  0  0  0  0  0  0  0
    2.2010    1.0038    1.8924 C   0  0  0  0  0  0  0  0  0  0  0  0
    3.1251    1.6565    1.4172 O   0  0  0  0  0  0  0  0  0  0  0  0
    2.0949   -0.3645    1.7645 N   0  0  0  0  0  0  0  0  0  0  0  0
    3.0199   -1.1282    0.9479 C   0  0  0  0  0  0  0  0  0  0  0  0
    2.6719   -1.0732   -0.5444 C   0  0  0  0  0  0  0  0  0  0  0  0
    3.5042   -1.9597   -1.3405 N   0  0  0  0  0  0  0  0  0  0  0  0
    3.2900   -3.3130   -1.4382 C   0  0  0  0  0  0  0  0  0  0  0  0
    2.2275   -3.8618   -0.7845 O   0  0  0  0  0  0  0  0  0  0  0  0
    4.1871   -3.9669   -2.1843 C   0  0  0  0  0  0  0  0  0  0  0  0
    5.3897   -2.8840   -2.8148 S   0  0  0  0  0  0  0  0  0  0  0  0
    4.6288   -1.4970   -2.0055 C   0  0  0  0  0  0  0  0  0  0  0  0
    5.0714   -0.3635   -2.0600 O   0  0  0  0  0  0  0  0  0  0  0  0
   -2.2325    2.6604    0.3749 C   0  0  0  0  0  0  0  0  0  0  0  0
   -3.3384    3.0061   -0.4074 C   0  0  0  0  0  0  0  0  0  0  0  0
   -6.9423    2.0985   -2.6996 H   0  0  0  0  0  0  0  0  0  0  0  0
   -6.7180    1.0375   -1.3027 H   0  0  0  0  0  0  0  0  0  0  0  0
   -5.6965    0.8460   -2.7809 H   0  0  0  0  0  0  0  0  0  0  0  0
   -4.7031   -0.0907   -0.8056 H   0  0  0  0  0  0  0  0  0  0  0  0
   -2.7757   -0.6972    0.5644 H   0  0  0  0  0  0  0  0  0  0  0  0
    0.7869    1.0210    3.5395 H   0  0  0  0  0  0  0  0  0  0  0  0
    1.4353    2.5921    3.1005 H   0  0  0  0  0  0  0  0  0  0  0  0
    1.1761   -0.7710    1.9491 H   0  0  0  0  0  0  0  0  0  0  0  0
    4.0374   -0.7542    1.1123 H   0  0  0  0  0  0  0  0  0  0  0  0
    2.9826   -2.1581    1.3179 H   0  0  0  0  0  0  0  0  0  0  0  0
    2.7902   -0.0468   -0.9109 H   0  0  0  0  0  0  0  0  0  0  0  0
    1.6192   -1.3386   -0.7055 H   0  0  0  0  0  0  0  0  0  0  0  0
    2.2309   -4.8208   -0.9494 H   0  0  0  0  0  0  0  0  0  0  0  0
    4.2021   -5.0276   -2.3860 H   0  0  0  0  0  0  0  0  0  0  0  0
   -1.5506    3.4455    0.6930 H   0  0  0  0  0  0  0  0  0  0  0  0
   -3.4979    4.0467   -0.6834 H   0  0  0  0  0  0  0  0  0  0  0  0
  1  2  1  0
  2  3  1  0
  3  4  2  0
  4  5  1  0
  5  6  2  0
  6  7  1  0
  7  8  2  0
  7  9  1  0
  9 10  1  0
 10 11  1  0
 11 12  2  0
 11 13  1  0
 13 14  1  0
 14 15  1  0
 15 16  1  0
 16 17  1  0
 17 18  1  0
 17 19  2  0
 19 20  1  0
 20 21  1  0
 21 22  2  0
  6 23  1  0
 23 24  2  0
 24  3  1  0
 21 16  1  0
  1 25  1  0
  1 26  1  0
  1 27  1  0
  4 28  1  0
  5 29  1  0
 10 30  1  0
 10 31  1  0
 13 32  1  0
 14 33  1  0
 14 34  1  0
 15 35  1  0
 15 36  1  0
 18 37  1  0
 19 38  1  0
 23 39  1  0
 24 40  1  0
M  END
$$$$
