
     RDKit          3D

 44 46  0  0  0  0  0  0  0  0999 V2000
    7.3702    4.9051    2.7599 C   0  0  0  0  0  0  0  0  0  0  0  0
    7.1603    4.3215    1.4792 O   0  0  0  0  0  0  0  0  0  0  0  0
    6.0054    3.6110    1.3080 C   0  0  0  0  0  0  0  0  0  0  0  0
    5.0729    3.3091    2.2981 C   0  0  0  0  0  0  0  0  0  0  0  0
    3.9247    2.5689    1.9829 C   0  0  0  0  0  0  0  0  0  0  0  0
    3.6877    2.1156    0.6763 C   0  0  0  0  0  0  0  0  0  0  0  0
    2.4911    1.3506    0.3429 C   0  0  0  0  0  0  0  0  0  0  0  0
    1.8979    0.9367   -0.8263 C   0  0  0  0  0  0  0  0  0  0  0  0
    0.7362    0.2317   -0.4216 C   0  0  0  0  0  0  0  0  0  0  0  0
   -0.2683   -0.3995   -1.2862 C   0  0  0  0  0  0  0  0  0  0  0  0
   -0.1762   -0.3371   -2.5069 O   0  0  0  0  0  0  0  0  0  0  0  0
   -1.2684   -1.0311   -0.5697 N   0  0  0  0  0  0  0  0  0  0  0  0
   -2.3959   -1.7141   -1.0598 C   0  0  0  0  0  0  0  0  0  0  0  0
   -2.7022   -1.8418   -2.4158 C   0  0  0  0  0  0  0  0  0  0  0  0
   -3.8443   -2.5435   -2.8313 C   0  0  0  0  0  0  0  0  0  0  0  0
   -4.7006   -3.1263   -1.8962 C   0  0  0  0  0  0  0  0  0  0  0  0
   -5.8278   -3.8431   -2.1974 O   0  0  0  0  0  0  0  0  0  0  0  0
   -6.1024   -4.0747   -3.5725 C   0  0  0  0  0  0  0  0  0  0  0  0
   -4.4003   -2.9737   -0.5360 C   0  0  0  0  0  0  0  0  0  0  0  0
   -5.1740   -3.5547    0.4404 O   0  0  0  0  0  0  0  0  0  0  0  0
   -6.3136   -2.7393    0.7156 C   0  0  0  0  0  0  0  0  0  0  0  0
   -3.2514   -2.2938   -0.1194 C   0  0  0  0  0  0  0  0  0  0  0  0
    0.6352    0.2119    0.9185 N   0  0  0  0  0  0  0  0  0  0  0  0
    1.7321    0.9117    1.3886 O   0  0  0  0  0  0  0  0  0  0  0  0
    4.6391    2.4155   -0.3074 C   0  0  0  0  0  0  0  0  0  0  0  0
    5.7862    3.1526    0.0080 C   0  0  0  0  0  0  0  0  0  0  0  0
    6.5616    5.5945    3.0206 H   0  0  0  0  0  0  0  0  0  0  0  0
    8.2976    5.4843    2.7162 H   0  0  0  0  0  0  0  0  0  0  0  0
    7.4959    4.1310    3.5250 H   0  0  0  0  0  0  0  0  0  0  0  0
    5.2099    3.6234    3.3275 H   0  0  0  0  0  0  0  0  0  0  0  0
    3.2181    2.3500    2.7813 H   0  0  0  0  0  0  0  0  0  0  0  0
    2.2307    1.1180   -1.8376 H   0  0  0  0  0  0  0  0  0  0  0  0
   -1.1548   -0.9848    0.4397 H   0  0  0  0  0  0  0  0  0  0  0  0
   -2.0740   -1.4070   -3.1866 H   0  0  0  0  0  0  0  0  0  0  0  0
   -4.0291   -2.6128   -3.8990 H   0  0  0  0  0  0  0  0  0  0  0  0
   -5.2825   -4.6129   -4.0583 H   0  0  0  0  0  0  0  0  0  0  0  0
   -6.9951   -4.7038   -3.6336 H   0  0  0  0  0  0  0  0  0  0  0  0
   -6.3219   -3.1362   -4.0909 H   0  0  0  0  0  0  0  0  0  0  0  0
   -6.0035   -1.7921    1.1753 H   0  0  0  0  0  0  0  0  0  0  0  0
   -6.9363   -3.2763    1.4384 H   0  0  0  0  0  0  0  0  0  0  0  0
   -6.9211   -2.5509   -0.1795 H   0  0  0  0  0  0  0  0  0  0  0  0
   -3.0376   -2.2360    0.9446 H   0  0  0  0  0  0  0  0  0  0  0  0
    4.5122    2.0736   -1.3307 H   0  0  0  0  0  0  0  0  0  0  0  0
    6.5163    3.3689   -0.7690 H   0  0  0  0  0  0  0  0  0  0  0  0
  1  2  1  0
  2  3  1  0
  3  4  2  0
  4  5  1  0
  5  6  2  0
  6  7  1  0
  7  8  2  0
  8  9  1  0
  9 10  1  0
 10 11  2  0
 10 12  1  0
 12 13  1  0
 13 14  2  0
 14 15  1  0
 15 16  2  0
 16 17  1  0
 17 18  1  0
 16 19  1  0
 19 20  1  0
 20 21  1  0
 19 22  2  0
  9 23  2  0
 23 24  1  0
  6 25  1  0
 25 26  2  0
 26  3  1  0
 24  7  1  0
 22 13  1  0
  1 27  1  0
  1 28  1  0
  1 29  1  0
  4 30  1  0
  5 31  1  0
  8 32  1  0
 12 33  1  0
 14 34  1  0
 15 35  1  0
 18 36  1  0
 18 37  1  0
 18 38  1  0
 21 39  1  0
 21 40  1  0
 21 41  1  0
 22 42  1  0
 25 43  1  0
 26 44  1  0
M  END
$$$$
