
     RDKit          3D

 45 47  0  0  0  0  0  0  0  0999 V2000
   -6.3626    0.0272    2.9575 C   0  0  0  0  0  0  0  0  0  0  0  0
   -5.6533    0.4826    1.6947 C   0  0  0  0  0  0  0  0  0  0  0  0
   -4.5112   -0.3477    1.5090 O   0  0  0  0  0  0  0  0  0  0  0  0
   -3.7201   -0.1159    0.4118 C   0  0  0  0  0  0  0  0  0  0  0  0
   -3.9488    0.8903   -0.5316 C   0  0  0  0  0  0  0  0  0  0  0  0
   -3.0837    1.0515   -1.6181 C   0  0  0  0  0  0  0  0  0  0  0  0
   -1.9787    0.2117   -1.7749 C   0  0  0  0  0  0  0  0  0  0  0  0
   -1.1176    0.3768   -2.9508 C   0  0  0  0  0  0  0  0  0  0  0  0
    0.2007    0.6233   -2.9550 C   0  0  0  0  0  0  0  0  0  0  0  0
    1.1025    0.7752   -4.4320 S   0  0  0  0  0  0  0  0  0  0  0  0
    2.6353    1.0232   -3.6018 C   0  0  0  0  0  0  0  0  0  0  0  0
    4.0768    1.2934   -4.3957 S   0  0  0  0  0  0  0  0  0  0  0  0
    2.4033    0.9928   -2.2440 N   0  0  0  0  0  0  0  0  0  0  0  0
    3.4358    1.0849   -1.2971 N   0  0  0  0  0  0  0  0  0  0  0  0
    3.9758   -0.1073   -0.8521 C   0  0  0  0  0  0  0  0  0  0  0  0
    3.8242   -1.1812   -1.4255 O   0  0  0  0  0  0  0  0  0  0  0  0
    4.7934   -0.0332    0.3808 C   0  0  0  0  0  0  0  0  0  0  0  0
    4.4400    0.7925    1.4481 C   0  0  0  0  0  0  0  0  0  0  0  0
    5.2607    0.7865    2.5616 C   0  0  0  0  0  0  0  0  0  0  0  0
    6.3743    0.0307    2.6680 N   0  0  0  0  0  0  0  0  0  0  0  0
    6.6764   -0.7757    1.6275 C   0  0  0  0  0  0  0  0  0  0  0  0
    5.9213   -0.8477    0.4730 C   0  0  0  0  0  0  0  0  0  0  0  0
    1.1075    0.8208   -1.7852 C   0  0  0  0  0  0  0  0  0  0  0  0
    0.7675    0.8699   -0.6108 O   0  0  0  0  0  0  0  0  0  0  0  0
   -1.7564   -0.8083   -0.8418 C   0  0  0  0  0  0  0  0  0  0  0  0
   -2.6069   -0.9655    0.2602 C   0  0  0  0  0  0  0  0  0  0  0  0
   -2.4471   -1.9371    1.2188 O   0  0  0  0  0  0  0  0  0  0  0  0
   -1.1624   -2.5380    1.3152 C   0  0  0  0  0  0  0  0  0  0  0  0
   -5.6943    0.0985    3.8220 H   0  0  0  0  0  0  0  0  0  0  0  0
   -7.2512    0.6358    3.1467 H   0  0  0  0  0  0  0  0  0  0  0  0
   -6.6639   -1.0223    2.8733 H   0  0  0  0  0  0  0  0  0  0  0  0
   -6.3388    0.3838    0.8451 H   0  0  0  0  0  0  0  0  0  0  0  0
   -5.3484    1.5285    1.8143 H   0  0  0  0  0  0  0  0  0  0  0  0
   -4.7920    1.5676   -0.4515 H   0  0  0  0  0  0  0  0  0  0  0  0
   -3.2849    1.8412   -2.3388 H   0  0  0  0  0  0  0  0  0  0  0  0
   -1.6502    0.2843   -3.8966 H   0  0  0  0  0  0  0  0  0  0  0  0
    3.4400    1.9230   -0.7289 H   0  0  0  0  0  0  0  0  0  0  0  0
    3.5402    1.3962    1.4467 H   0  0  0  0  0  0  0  0  0  0  0  0
    5.0356    1.4005    3.4296 H   0  0  0  0  0  0  0  0  0  0  0  0
    7.5691   -1.3822    1.7537 H   0  0  0  0  0  0  0  0  0  0  0  0
    6.2039   -1.5171   -0.3330 H   0  0  0  0  0  0  0  0  0  0  0  0
   -0.9146   -1.4769   -0.9895 H   0  0  0  0  0  0  0  0  0  0  0  0
   -0.3696   -1.7856    1.3888 H   0  0  0  0  0  0  0  0  0  0  0  0
   -1.1408   -3.1341    2.2326 H   0  0  0  0  0  0  0  0  0  0  0  0
   -0.9866   -3.2171    0.4749 H   0  0  0  0  0  0  0  0  0  0  0  0
  1  2  1  0
  2  3  1  0
  3  4  1  0
  4  5  2  0
  5  6  1  0
  6  7  2  0
  7  8  1  0
  8  9  2  3
  9 10  1  0
 10 11  1  0
 11 12  2  0
 11 13  1  0
 13 14  1  0
 14 15  1  0
 15 16  2  0
 15 17  1  0
 17 18  2  0
 18 19  1  0
 19 20  2  0
 20 21  1  0
 21 22  2  0
 13 23  1  0
 23 24  2  0
  7 25  1  0
 25 26  2  0
 26 27  1  0
 27 28  1  0
 26  4  1  0
 23  9  1  0
 22 17  1  0
  1 29  1  0
  1 30  1  0
  1 31  1  0
  2 32  1  0
  2 33  1  0
  5 34  1  0
  6 35  1  0
  8 36  1  0
 14 37  1  0
 18 38  1  0
 19 39  1  0
 21 40  1  0
 22 41  1  0
 25 42  1  0
 28 43  1  0
 28 44  1  0
 28 45  1  0
M  END
$$$$
