
     RDKit          3D

 42 44  0  0  0  0  0  0  0  0999 V2000
   -2.1418   -2.6215    0.3184 C   0  0  0  0  0  0  0  0  0  0  0  0
   -3.0730   -1.5751    0.9007 C   0  0  0  0  0  0  0  0  0  0  0  0
   -3.5658   -1.7776    2.0142 O   0  0  0  0  0  0  0  0  0  0  0  0
   -3.3598   -0.4587    0.0866 N   0  0  0  0  0  0  0  0  0  0  0  0
   -2.4187    0.0726   -0.7991 C   0  0  0  0  0  0  0  0  0  0  0  0
   -1.0968    0.2379   -0.6232 C   0  0  0  0  0  0  0  0  0  0  0  0
   -0.3442    0.0544    0.6006 C   0  0  0  0  0  0  0  0  0  0  0  0
    0.9917    0.0576    0.7446 C   0  0  0  0  0  0  0  0  0  0  0  0
    1.9861    0.1891   -0.3035 C   0  0  0  0  0  0  0  0  0  0  0  0
    3.3176    0.2208   -0.1428 C   0  0  0  0  0  0  0  0  0  0  0  0
    4.2126    0.1234    1.3437 S   0  0  0  0  0  0  0  0  0  0  0  0
    5.7573    0.2511    0.4856 C   0  0  0  0  0  0  0  0  0  0  0  0
    7.0195    0.2443    1.0622 C   0  0  0  0  0  0  0  0  0  0  0  0
    8.1414    0.3549    0.2330 C   0  0  0  0  0  0  0  0  0  0  0  0
    7.9952    0.4710   -1.1577 C   0  0  0  0  0  0  0  0  0  0  0  0
    6.7249    0.4776   -1.7346 C   0  0  0  0  0  0  0  0  0  0  0  0
    5.6245    0.3666   -0.8946 C   0  0  0  0  0  0  0  0  0  0  0  0
    4.2222    0.3562   -1.3265 C   0  0  0  0  0  0  0  0  0  0  0  0
    3.8705    0.4469   -2.4906 O   0  0  0  0  0  0  0  0  0  0  0  0
   -4.6995    0.1046    0.1247 C   0  0  0  0  0  0  0  0  0  0  0  0
   -5.7971   -0.6159    0.6231 C   0  0  0  0  0  0  0  0  0  0  0  0
   -7.0846   -0.0658    0.6359 C   0  0  0  0  0  0  0  0  0  0  0  0
   -7.3027    1.2189    0.1507 C   0  0  0  0  0  0  0  0  0  0  0  0
   -6.2331    1.9556   -0.3451 C   0  0  0  0  0  0  0  0  0  0  0  0
   -4.9468    1.4041   -0.3580 C   0  0  0  0  0  0  0  0  0  0  0  0
   -1.1775   -2.5931    0.8296 H   0  0  0  0  0  0  0  0  0  0  0  0
   -2.0028   -2.5131   -0.7593 H   0  0  0  0  0  0  0  0  0  0  0  0
   -2.5930   -3.6061    0.4812 H   0  0  0  0  0  0  0  0  0  0  0  0
   -2.8437    0.4325   -1.7357 H   0  0  0  0  0  0  0  0  0  0  0  0
   -0.5494    0.6581   -1.4652 H   0  0  0  0  0  0  0  0  0  0  0  0
   -0.9313   -0.0589    1.5127 H   0  0  0  0  0  0  0  0  0  0  0  0
    1.3681   -0.0665    1.7600 H   0  0  0  0  0  0  0  0  0  0  0  0
    1.6113    0.2595   -1.3230 H   0  0  0  0  0  0  0  0  0  0  0  0
    7.1417    0.1549    2.1379 H   0  0  0  0  0  0  0  0  0  0  0  0
    9.1379    0.3511    0.6706 H   0  0  0  0  0  0  0  0  0  0  0  0
    8.8775    0.5562   -1.7888 H   0  0  0  0  0  0  0  0  0  0  0  0
    6.5969    0.5667   -2.8095 H   0  0  0  0  0  0  0  0  0  0  0  0
   -5.6870   -1.6294    0.9997 H   0  0  0  0  0  0  0  0  0  0  0  0
   -7.9146   -0.6479    1.0288 H   0  0  0  0  0  0  0  0  0  0  0  0
   -8.3018    1.6459    0.1655 H   0  0  0  0  0  0  0  0  0  0  0  0
   -6.3936    2.9653   -0.7142 H   0  0  0  0  0  0  0  0  0  0  0  0
   -4.1383    2.0318   -0.7228 H   0  0  0  0  0  0  0  0  0  0  0  0
  1  2  1  0
  2  3  2  0
  2  4  1  0
  4  5  1  0
  5  6  2  3
  6  7  1  0
  7  8  2  3
  8  9  1  0
  9 10  2  3
 10 11  1  0
 11 12  1  0
 12 13  2  0
 13 14  1  0
 14 15  2  0
 15 16  1  0
 16 17  2  0
 17 18  1  0
 18 19  2  0
  4 20  1  0
 20 21  2  0
 21 22  1  0
 22 23  2  0
 23 24  1  0
 24 25  2  0
 18 10  1  0
 25 20  1  0
 17 12  1  0
  1 26  1  0
  1 27  1  0
  1 28  1  0
  5 29  1  0
  6 30  1  0
  7 31  1  0
  8 32  1  0
  9 33  1  0
 13 34  1  0
 14 35  1  0
 15 36  1  0
 16 37  1  0
 21 38  1  0
 22 39  1  0
 23 40  1  0
 24 41  1  0
 25 42  1  0
M  END
$$$$
