
     RDKit          3D

 42 44  0  0  0  0  0  0  0  0999 V2000
   -3.6628   -0.2086   -3.0160 C   0  0  0  0  0  0  0  0  0  0  0  0
   -4.0650   -0.3645   -1.6611 O   0  0  0  0  0  0  0  0  0  0  0  0
   -3.0927   -0.7153   -0.7657 C   0  0  0  0  0  0  0  0  0  0  0  0
   -3.5306   -0.8175    0.5600 C   0  0  0  0  0  0  0  0  0  0  0  0
   -2.6416   -1.1556    1.5822 C   0  0  0  0  0  0  0  0  0  0  0  0
   -1.2999   -1.3837    1.2719 C   0  0  0  0  0  0  0  0  0  0  0  0
   -0.1503   -1.8035    2.5625 S   0  0  0  0  0  6  0  0  0  0  0  0
    0.8799   -2.6431    1.9919 O   0  0  0  0  0  0  0  0  0  0  0  0
   -0.9224   -2.2444    3.7068 O   0  0  0  0  0  0  0  0  0  0  0  0
    0.5039   -0.3108    3.0061 N   0  0  0  0  0  0  0  0  0  0  0  0
    1.0873    0.5389    2.0213 C   0  0  0  0  0  0  0  0  0  0  0  0
    2.2261    0.1123    1.3313 C   0  0  0  0  0  0  0  0  0  0  0  0
    2.7930    0.9040    0.3243 C   0  0  0  0  0  0  0  0  0  0  0  0
    4.2582    0.3312   -0.5177 S   0  0  0  0  0  0  0  0  0  0  0  0
    3.6090   -0.8018   -1.6758 C   0  0  0  0  0  0  0  0  0  0  0  0
    2.2715   -1.0545   -1.8602 N   0  0  0  0  0  0  0  0  0  0  0  0
    2.2692   -1.9915   -2.7786 C   0  0  0  0  0  0  0  0  0  0  0  0
    3.5473   -2.2815   -3.1330 N   0  0  0  0  0  0  0  0  0  0  0  0
    4.4223   -1.5310   -2.4507 N   0  0  0  0  0  0  0  0  0  0  0  0
    2.2107    2.1424    0.0315 C   0  0  0  0  0  0  0  0  0  0  0  0
    2.7542    2.9381   -0.9413 O   0  0  0  0  0  0  0  0  0  0  0  0
    1.0823    2.5829    0.7268 C   0  0  0  0  0  0  0  0  0  0  0  0
    0.5101    1.7882    1.7329 C   0  0  0  0  0  0  0  0  0  0  0  0
   -0.7081    2.2929    2.4551 C   0  0  0  0  0  0  0  0  0  0  0  0
   -0.8589   -1.3183   -0.0518 C   0  0  0  0  0  0  0  0  0  0  0  0
   -1.7539   -0.9723   -1.0681 C   0  0  0  0  0  0  0  0  0  0  0  0
   -2.9163    0.5859   -3.1163 H   0  0  0  0  0  0  0  0  0  0  0  0
   -4.5434    0.0870   -3.5932 H   0  0  0  0  0  0  0  0  0  0  0  0
   -3.2946   -1.1519   -3.4302 H   0  0  0  0  0  0  0  0  0  0  0  0
   -4.5766   -0.6323    0.7950 H   0  0  0  0  0  0  0  0  0  0  0  0
   -3.0033   -1.2357    2.6044 H   0  0  0  0  0  0  0  0  0  0  0  0
   -0.0050    0.1130    3.7784 H   0  0  0  0  0  0  0  0  0  0  0  0
    2.6798   -0.8458    1.5781 H   0  0  0  0  0  0  0  0  0  0  0  0
    1.4071   -2.4827   -3.2054 H   0  0  0  0  0  0  0  0  0  0  0  0
    3.8914   -2.9558   -3.8080 H   0  0  0  0  0  0  0  0  0  0  0  0
    2.2365    3.7545   -1.0207 H   0  0  0  0  0  0  0  0  0  0  0  0
    0.6389    3.5460    0.4892 H   0  0  0  0  0  0  0  0  0  0  0  0
   -0.9650    3.3129    2.1487 H   0  0  0  0  0  0  0  0  0  0  0  0
   -0.5293    2.3181    3.5346 H   0  0  0  0  0  0  0  0  0  0  0  0
   -1.5713    1.6566    2.2419 H   0  0  0  0  0  0  0  0  0  0  0  0
    0.1813   -1.5206   -0.3002 H   0  0  0  0  0  0  0  0  0  0  0  0
   -1.3691   -0.9099   -2.0810 H   0  0  0  0  0  0  0  0  0  0  0  0
  1  2  1  0
  2  3  1  0
  3  4  2  0
  4  5  1  0
  5  6  2  0
  6  7  1  0
  7  8  2  0
  7  9  2  0
  7 10  1  0
 10 11  1  0
 11 12  2  0
 12 13  1  0
 13 14  1  0
 14 15  1  0
 15 16  1  0
 16 17  2  0
 17 18  1  0
 18 19  1  0
 13 20  2  0
 20 21  1  0
 20 22  1  0
 22 23  2  0
 23 24  1  0
  6 25  1  0
 25 26  2  0
 26  3  1  0
 23 11  1  0
 19 15  2  0
  1 27  1  0
  1 28  1  0
  1 29  1  0
  4 30  1  0
  5 31  1  0
 10 32  1  0
 12 33  1  0
 17 34  1  0
 18 35  1  0
 21 36  1  0
 22 37  1  0
 24 38  1  0
 24 39  1  0
 24 40  1  0
 25 41  1  0
 26 42  1  0
M  END
$$$$
