
     RDKit          3D

 54 57  0  0  0  0  0  0  0  0999 V2000
    6.3247    1.0300    3.6321 C   0  0  0  0  0  0  0  0  0  0  0  0
    5.2242    0.1663    3.0371 C   0  0  0  0  0  0  0  0  0  0  0  0
    4.2579    0.9689    2.1795 C   0  0  0  0  0  0  0  0  0  0  0  0
    4.3199    2.1962    2.1140 O   0  0  0  0  0  0  0  0  0  0  0  0
    3.3022    0.2475    1.4794 N   0  0  0  0  0  0  0  0  0  0  0  0
    2.3941    0.9705    0.5806 C   0  0  0  0  0  0  0  0  0  0  0  0
    1.9135    0.0940   -0.5869 C   0  0  0  0  0  0  0  0  0  0  0  0
    1.2019   -1.1138   -0.0900 N   0  0  0  0  0  0  0  0  0  0  0  0
    1.0130   -2.0568   -1.1336 C   0  0  0  0  0  0  0  0  0  0  0  0
    2.0189   -2.9480   -1.5336 C   0  0  0  0  0  0  0  0  0  0  0  0
    1.7980   -3.8364   -2.5874 C   0  0  0  0  0  0  0  0  0  0  0  0
    0.5719   -3.8377   -3.2499 C   0  0  0  0  0  0  0  0  0  0  0  0
    0.3149   -4.9409   -4.5469 Cl  0  0  0  0  0  0  0  0  0  0  0  0
   -0.4434   -2.9598   -2.8743 C   0  0  0  0  0  0  0  0  0  0  0  0
   -0.2282   -2.0699   -1.8217 C   0  0  0  0  0  0  0  0  0  0  0  0
   -1.1959   -1.1573   -1.3500 N   0  0  0  0  0  0  0  0  0  0  0  0
   -2.4401   -0.8846   -1.8716 C   0  0  0  0  0  0  0  0  0  0  0  0
   -2.9251   -1.3588   -2.8914 O   0  0  0  0  0  0  0  0  0  0  0  0
   -3.2274    0.1257   -1.1109 C   0  0  0  0  0  0  0  0  0  0  0  0
   -3.1673    0.2052    0.2890 C   0  0  0  0  0  0  0  0  0  0  0  0
   -3.9244    1.1642    0.9666 C   0  0  0  0  0  0  0  0  0  0  0  0
   -4.7453    2.0344    0.2512 C   0  0  0  0  0  0  0  0  0  0  0  0
   -4.7964    1.9646   -1.1451 C   0  0  0  0  0  0  0  0  0  0  0  0
   -4.0568    0.9990   -1.8251 C   0  0  0  0  0  0  0  0  0  0  0  0
   -5.5577    2.8099   -1.9111 O   0  0  0  0  0  0  0  0  0  0  0  0
   -5.9950    3.9478   -1.1593 C   0  0  0  0  0  0  0  0  0  0  0  0
   -6.5196    3.5219    0.2018 C   0  0  0  0  0  0  0  0  0  0  0  0
   -5.4733    2.9351    0.9855 O   0  0  0  0  0  0  0  0  0  0  0  0
    1.7157   -1.6745    1.1833 C   0  0  0  0  0  0  0  0  0  0  0  0
    3.1444   -1.2123    1.5250 C   0  0  0  0  0  0  0  0  0  0  0  0
    7.0089    0.4178    4.2279 H   0  0  0  0  0  0  0  0  0  0  0  0
    6.9043    1.5258    2.8464 H   0  0  0  0  0  0  0  0  0  0  0  0
    5.9071    1.8060    4.2822 H   0  0  0  0  0  0  0  0  0  0  0  0
    5.6816   -0.6165    2.4229 H   0  0  0  0  0  0  0  0  0  0  0  0
    4.6627   -0.3002    3.8532 H   0  0  0  0  0  0  0  0  0  0  0  0
    1.5400    1.2953    1.1870 H   0  0  0  0  0  0  0  0  0  0  0  0
    2.8869    1.8675    0.1904 H   0  0  0  0  0  0  0  0  0  0  0  0
    2.7842   -0.1900   -1.1936 H   0  0  0  0  0  0  0  0  0  0  0  0
    1.2373    0.6795   -1.2211 H   0  0  0  0  0  0  0  0  0  0  0  0
    2.9875   -2.9503   -1.0444 H   0  0  0  0  0  0  0  0  0  0  0  0
    2.5861   -4.5206   -2.8910 H   0  0  0  0  0  0  0  0  0  0  0  0
   -1.3890   -2.9899   -3.4051 H   0  0  0  0  0  0  0  0  0  0  0  0
   -0.8540   -0.6161   -0.5608 H   0  0  0  0  0  0  0  0  0  0  0  0
   -2.5628   -0.4902    0.8655 H   0  0  0  0  0  0  0  0  0  0  0  0
   -3.8901    1.2216    2.0514 H   0  0  0  0  0  0  0  0  0  0  0  0
   -4.1148    0.9369   -2.9095 H   0  0  0  0  0  0  0  0  0  0  0  0
   -6.7860    4.4405   -1.7334 H   0  0  0  0  0  0  0  0  0  0  0  0
   -5.1545    4.6468   -1.0646 H   0  0  0  0  0  0  0  0  0  0  0  0
   -7.3354    2.7942    0.1083 H   0  0  0  0  0  0  0  0  0  0  0  0
   -6.8976    4.3902    0.7506 H   0  0  0  0  0  0  0  0  0  0  0  0
    1.0424   -1.3201    1.9742 H   0  0  0  0  0  0  0  0  0  0  0  0
    1.6592   -2.7697    1.2077 H   0  0  0  0  0  0  0  0  0  0  0  0
    3.8596   -1.6258    0.8050 H   0  0  0  0  0  0  0  0  0  0  0  0
    3.4170   -1.5892    2.5145 H   0  0  0  0  0  0  0  0  0  0  0  0
  1  2  1  0
  2  3  1  0
  3  4  2  0
  3  5  1  0
  5  6  1  0
  6  7  1  0
  7  8  1  0
  8  9  1  0
  9 10  2  0
 10 11  1  0
 11 12  2  0
 12 13  1  0
 12 14  1  0
 14 15  2  0
 15 16  1  0
 16 17  1  0
 17 18  2  0
 17 19  1  0
 19 20  2  0
 20 21  1  0
 21 22  2  0
 22 23  1  0
 23 24  2  0
 23 25  1  0
 25 26  1  0
 26 27  1  0
 27 28  1  0
  8 29  1  0
 29 30  1  0
 30  5  1  0
 15  9  1  0
 24 19  1  0
 28 22  1  0
  1 31  1  0
  1 32  1  0
  1 33  1  0
  2 34  1  0
  2 35  1  0
  6 36  1  0
  6 37  1  0
  7 38  1  0
  7 39  1  0
 10 40  1  0
 11 41  1  0
 14 42  1  0
 16 43  1  0
 20 44  1  0
 21 45  1  0
 24 46  1  0
 26 47  1  0
 26 48  1  0
 27 49  1  0
 27 50  1  0
 29 51  1  0
 29 52  1  0
 30 53  1  0
 30 54  1  0
M  END
$$$$
