
     RDKit          3D

 58 60  0  0  0  0  0  0  0  0999 V2000
    9.5392    2.3944   -0.0508 C   0  0  0  0  0  0  0  0  0  0  0  0
    8.1461    2.6109    0.3747 C   0  0  0  0  0  0  0  0  0  0  0  0
    6.9260    2.1920   -0.0937 C   0  0  0  0  0  0  0  0  0  0  0  0
    5.9886    2.7620    0.7943 C   0  0  0  0  0  0  0  0  0  0  0  0
    4.6148    2.6679    0.7992 N   0  0  0  0  0  0  0  0  0  0  0  0
    3.8614    1.9723   -0.1189 C   0  0  0  0  0  0  0  0  0  0  0  0
    4.2968    1.3517   -1.0839 O   0  0  0  0  0  0  0  0  0  0  0  0
    2.3795    2.0683    0.1813 C   0  0  0  0  0  0  0  0  0  0  0  0
    1.5557    1.1944   -0.7599 C   0  0  0  0  0  0  0  0  0  0  0  0
    0.0760    1.2767   -0.4416 C   0  0  0  0  0  0  0  0  0  0  0  0
   -0.3435    2.0669    0.4062 O   0  0  0  0  0  0  0  0  0  0  0  0
   -0.7770    0.4411   -1.1492 N   0  0  0  0  0  0  0  0  0  0  0  0
   -2.1896    0.4562   -0.7645 C   0  0  0  0  0  0  0  0  0  0  0  0
   -2.4849   -0.4406    0.4509 C   0  0  0  0  0  0  0  0  0  0  0  0
   -1.6206   -0.9722    1.1431 O   0  0  0  0  0  0  0  0  0  0  0  0
   -3.8403   -0.5850    0.7007 N   0  0  0  0  0  0  0  0  0  0  0  0
   -4.3085   -1.3140    1.8697 C   0  0  0  0  0  0  0  0  0  0  0  0
   -5.7838   -1.6836    1.7390 C   0  0  0  0  0  0  0  0  0  0  0  0
   -6.5515   -0.4478    2.2094 C   0  0  0  0  0  0  0  0  0  0  0  0
   -5.5630    0.3933    3.0169 C   0  0  0  0  0  0  0  0  0  0  0  0
   -4.2927   -0.4454    3.1260 C   0  0  0  0  0  0  0  0  0  0  0  0
   -0.3865   -0.3890   -2.2910 C   0  0  0  0  0  0  0  0  0  0  0  0
   -0.7813   -1.8425   -2.1726 C   0  0  0  0  0  0  0  0  0  0  0  0
   -1.6627   -2.4200   -3.1010 C   0  0  0  0  0  0  0  0  0  0  0  0
   -2.0167   -3.7659   -2.9964 C   0  0  0  0  0  0  0  0  0  0  0  0
   -1.4841   -4.5378   -1.9704 C   0  0  0  0  0  0  0  0  0  0  0  0
   -1.8283   -5.8283   -1.8716 F   0  0  0  0  0  0  0  0  0  0  0  0
   -0.6066   -3.9885   -1.0451 C   0  0  0  0  0  0  0  0  0  0  0  0
   -0.2513   -2.6435   -1.1490 C   0  0  0  0  0  0  0  0  0  0  0  0
    6.6037    3.4804    1.7405 N   0  0  0  0  0  0  0  0  0  0  0  0
    7.9575    3.3797    1.4794 O   0  0  0  0  0  0  0  0  0  0  0  0
    9.9484    1.5005    0.4306 H   0  0  0  0  0  0  0  0  0  0  0  0
    9.5978    2.2579   -1.1352 H   0  0  0  0  0  0  0  0  0  0  0  0
   10.1708    3.2474    0.2174 H   0  0  0  0  0  0  0  0  0  0  0  0
    6.7450    1.5632   -0.9519 H   0  0  0  0  0  0  0  0  0  0  0  0
    4.1715    3.1666    1.5582 H   0  0  0  0  0  0  0  0  0  0  0  0
    2.0785    3.1185    0.0842 H   0  0  0  0  0  0  0  0  0  0  0  0
    2.2119    1.7617    1.2210 H   0  0  0  0  0  0  0  0  0  0  0  0
    1.8814    0.1522   -0.6617 H   0  0  0  0  0  0  0  0  0  0  0  0
    1.7103    1.5216   -1.7945 H   0  0  0  0  0  0  0  0  0  0  0  0
   -2.8034    0.1372   -1.6142 H   0  0  0  0  0  0  0  0  0  0  0  0
   -2.4891    1.4780   -0.5032 H   0  0  0  0  0  0  0  0  0  0  0  0
   -4.4762    0.0669    0.2598 H   0  0  0  0  0  0  0  0  0  0  0  0
   -3.6832   -2.2050    1.9941 H   0  0  0  0  0  0  0  0  0  0  0  0
   -6.0686   -1.9808    0.7244 H   0  0  0  0  0  0  0  0  0  0  0  0
   -6.0120   -2.5219    2.4087 H   0  0  0  0  0  0  0  0  0  0  0  0
   -6.9228    0.1283    1.3544 H   0  0  0  0  0  0  0  0  0  0  0  0
   -7.4204   -0.7353    2.8099 H   0  0  0  0  0  0  0  0  0  0  0  0
   -5.3527    1.3281    2.4840 H   0  0  0  0  0  0  0  0  0  0  0  0
   -5.9576    0.6597    4.0022 H   0  0  0  0  0  0  0  0  0  0  0  0
   -3.3988    0.1796    3.2181 H   0  0  0  0  0  0  0  0  0  0  0  0
   -4.3536   -1.0829    4.0165 H   0  0  0  0  0  0  0  0  0  0  0  0
   -0.8637    0.0621   -3.1706 H   0  0  0  0  0  0  0  0  0  0  0  0
    0.6886   -0.3440   -2.4818 H   0  0  0  0  0  0  0  0  0  0  0  0
   -2.0836   -1.8262   -3.9096 H   0  0  0  0  0  0  0  0  0  0  0  0
   -2.7006   -4.2190   -3.7067 H   0  0  0  0  0  0  0  0  0  0  0  0
   -0.2116   -4.6039   -0.2436 H   0  0  0  0  0  0  0  0  0  0  0  0
    0.4213   -2.2145   -0.4081 H   0  0  0  0  0  0  0  0  0  0  0  0
  1  2  1  0
  2  3  2  0
  3  4  1  0
  4  5  1  0
  5  6  1  0
  6  7  2  0
  6  8  1  0
  8  9  1  0
  9 10  1  0
 10 11  2  0
 10 12  1  0
 12 13  1  0
 13 14  1  0
 14 15  2  0
 14 16  1  0
 16 17  1  0
 17 18  1  0
 18 19  1  0
 19 20  1  0
 20 21  1  0
 12 22  1  0
 22 23  1  0
 23 24  2  0
 24 25  1  0
 25 26  2  0
 26 27  1  0
 26 28  1  0
 28 29  2  0
  4 30  2  0
 30 31  1  0
 31  2  1  0
 21 17  1  0
 29 23  1  0
  1 32  1  0
  1 33  1  0
  1 34  1  0
  3 35  1  0
  5 36  1  0
  8 37  1  0
  8 38  1  0
  9 39  1  0
  9 40  1  0
 13 41  1  0
 13 42  1  0
 16 43  1  0
 17 44  1  0
 18 45  1  0
 18 46  1  0
 19 47  1  0
 19 48  1  0
 20 49  1  0
 20 50  1  0
 21 51  1  0
 21 52  1  0
 22 53  1  0
 22 54  1  0
 24 55  1  0
 25 56  1  0
 28 57  1  0
 29 58  1  0
M  END
$$$$
