
     RDKit          3D

 61 66  0  0  0  0  0  0  0  0999 V2000
   -7.3642   -1.5634   -3.7614 F   0  0  0  0  0  0  0  0  0  0  0  0
   -7.3658   -0.8914   -2.6028 C   0  0  0  0  0  0  0  0  0  0  0  0
   -8.4106   -0.0200   -2.3184 C   0  0  0  0  0  0  0  0  0  0  0  0
   -8.4106    0.6792   -1.1131 C   0  0  0  0  0  0  0  0  0  0  0  0
   -7.3655    0.5009   -0.2025 C   0  0  0  0  0  0  0  0  0  0  0  0
   -6.3127   -0.3821   -0.4874 C   0  0  0  0  0  0  0  0  0  0  0  0
   -5.1754   -0.5591    0.4908 C   0  0  0  0  0  0  0  0  0  0  0  0
   -4.0435    0.4509    0.2337 C   0  0  0  0  0  0  0  0  0  0  0  0
   -2.9599    0.3353    1.2219 N   0  0  0  0  0  0  0  0  0  0  0  0
   -2.1481    1.5743    1.2513 C   0  0  0  0  0  0  0  0  0  0  0  0
   -0.7853    1.3912    1.9504 C   0  0  0  0  0  0  0  0  0  0  0  0
    0.0599    0.3914    1.2566 N   0  0  0  0  0  0  0  0  0  0  0  0
    1.2559    0.8029    0.7292 C   0  0  0  0  0  0  0  0  0  0  0  0
    1.5471    1.9610    0.0318 C   0  0  0  0  0  0  0  0  0  0  0  0
    2.8731    1.8674   -0.4395 C   0  0  0  0  0  0  0  0  0  0  0  0
    3.3772    0.6498   -0.0250 C   0  0  0  0  0  0  0  0  0  0  0  0
    4.6533    0.0043   -0.2452 C   0  0  0  0  0  0  0  0  0  0  0  0
    5.6456    0.5822   -1.1883 C   0  0  0  0  0  0  0  0  0  0  0  0
    5.2763    0.9695   -2.4814 C   0  0  0  0  0  0  0  0  0  0  0  0
    6.2348    1.4982   -3.3485 C   0  0  0  0  0  0  0  0  0  0  0  0
    7.5599    1.6291   -2.9301 C   0  0  0  0  0  0  0  0  0  0  0  0
    7.9341    1.2222   -1.6488 C   0  0  0  0  0  0  0  0  0  0  0  0
    6.9799    0.6923   -0.7790 C   0  0  0  0  0  0  0  0  0  0  0  0
    4.9623   -1.0928    0.3810 N   0  0  0  0  0  0  0  0  0  0  0  0
    4.0366   -1.6561    1.2810 C   0  0  0  0  0  0  0  0  0  0  0  0
    4.4236   -2.8080    1.9713 C   0  0  0  0  0  0  0  0  0  0  0  0
    3.5723   -3.4053    2.9016 C   0  0  0  0  0  0  0  0  0  0  0  0
    2.3244   -2.8451    3.1575 C   0  0  0  0  0  0  0  0  0  0  0  0
    1.9174   -1.6972    2.4745 C   0  0  0  0  0  0  0  0  0  0  0  0
    2.7622   -1.1164    1.5238 C   0  0  0  0  0  0  0  0  0  0  0  0
    2.4302    0.0516    0.7920 N   0  0  0  0  0  0  0  0  0  0  0  0
   -0.7042   -0.5623    0.4115 C   0  0  0  0  0  0  0  0  0  0  0  0
   -2.0997   -0.8536    1.0095 C   0  0  0  0  0  0  0  0  0  0  0  0
   -6.3196   -1.0769   -1.7041 C   0  0  0  0  0  0  0  0  0  0  0  0
   -9.2154    0.1077   -3.0347 H   0  0  0  0  0  0  0  0  0  0  0  0
   -9.2227    1.3640   -0.8811 H   0  0  0  0  0  0  0  0  0  0  0  0
   -7.3765    1.0570    0.7333 H   0  0  0  0  0  0  0  0  0  0  0  0
   -4.8120   -1.5911    0.4258 H   0  0  0  0  0  0  0  0  0  0  0  0
   -5.5577   -0.4408    1.5132 H   0  0  0  0  0  0  0  0  0  0  0  0
   -3.6519    0.3474   -0.7875 H   0  0  0  0  0  0  0  0  0  0  0  0
   -4.4803    1.4574    0.2973 H   0  0  0  0  0  0  0  0  0  0  0  0
   -2.7138    2.3506    1.7803 H   0  0  0  0  0  0  0  0  0  0  0  0
   -1.9678    1.9394    0.2302 H   0  0  0  0  0  0  0  0  0  0  0  0
   -0.9471    1.0406    2.9774 H   0  0  0  0  0  0  0  0  0  0  0  0
   -0.2847    2.3633    2.0350 H   0  0  0  0  0  0  0  0  0  0  0  0
    0.8545    2.7673   -0.1659 H   0  0  0  0  0  0  0  0  0  0  0  0
    3.3902    2.6057   -1.0388 H   0  0  0  0  0  0  0  0  0  0  0  0
    4.2537    0.8449   -2.8259 H   0  0  0  0  0  0  0  0  0  0  0  0
    5.9516    1.7999   -4.3534 H   0  0  0  0  0  0  0  0  0  0  0  0
    8.3058    2.0384   -3.6076 H   0  0  0  0  0  0  0  0  0  0  0  0
    8.9700    1.3120   -1.3287 H   0  0  0  0  0  0  0  0  0  0  0  0
    7.2754    0.3661    0.2163 H   0  0  0  0  0  0  0  0  0  0  0  0
    5.4034   -3.2362    1.7816 H   0  0  0  0  0  0  0  0  0  0  0  0
    3.8903   -4.2975    3.4336 H   0  0  0  0  0  0  0  0  0  0  0  0
    1.6679   -3.2957    3.8975 H   0  0  0  0  0  0  0  0  0  0  0  0
    0.9539   -1.2672    2.7239 H   0  0  0  0  0  0  0  0  0  0  0  0
   -0.1526   -1.5056    0.3241 H   0  0  0  0  0  0  0  0  0  0  0  0
   -0.8227   -0.1569   -0.6028 H   0  0  0  0  0  0  0  0  0  0  0  0
   -2.5940   -1.6092    0.3892 H   0  0  0  0  0  0  0  0  0  0  0  0
   -1.9576   -1.3202    1.9928 H   0  0  0  0  0  0  0  0  0  0  0  0
   -5.5208   -1.7654   -1.9627 H   0  0  0  0  0  0  0  0  0  0  0  0
  1  2  1  0
  2  3  2  0
  3  4  1  0
  4  5  2  0
  5  6  1  0
  6  7  1  0
  7  8  1  0
  8  9  1  0
  9 10  1  0
 10 11  1  0
 11 12  1  0
 12 13  1  0
 13 14  2  0
 14 15  1  0
 15 16  2  0
 16 17  1  0
 17 18  1  0
 18 19  2  0
 19 20  1  0
 20 21  2  0
 21 22  1  0
 22 23  2  0
 17 24  2  0
 24 25  1  0
 25 26  2  0
 26 27  1  0
 27 28  2  0
 28 29  1  0
 29 30  2  0
 30 31  1  0
 12 32  1  0
 32 33  1  0
  6 34  2  0
 34  2  1  0
 33  9  1  0
 31 13  1  0
 31 16  1  0
 23 18  1  0
 30 25  1  0
  3 35  1  0
  4 36  1  0
  5 37  1  0
  7 38  1  0
  7 39  1  0
  8 40  1  0
  8 41  1  0
 10 42  1  0
 10 43  1  0
 11 44  1  0
 11 45  1  0
 14 46  1  0
 15 47  1  0
 19 48  1  0
 20 49  1  0
 21 50  1  0
 22 51  1  0
 23 52  1  0
 26 53  1  0
 27 54  1  0
 28 55  1  0
 29 56  1  0
 32 57  1  0
 32 58  1  0
 33 59  1  0
 33 60  1  0
 34 61  1  0
M  END
$$$$
