
     RDKit          3D

 52 55  0  0  0  0  0  0  0  0999 V2000
   -4.5732    4.1898    0.8469 C   0  0  0  0  0  0  0  0  0  0  0  0
   -5.1025    2.9446    1.5433 C   0  0  0  0  0  0  0  0  0  0  0  0
   -4.0492    1.8435    1.6490 C   0  0  0  0  0  0  0  0  0  0  0  0
   -3.6801    1.4318    0.3327 O   0  0  0  0  0  0  0  0  0  0  0  0
   -2.7605    0.4269    0.2253 C   0  0  0  0  0  0  0  0  0  0  0  0
   -2.0995   -0.1998    1.2814 C   0  0  0  0  0  0  0  0  0  0  0  0
   -1.1744   -1.2190    1.0271 C   0  0  0  0  0  0  0  0  0  0  0  0
   -0.9064   -1.6205   -0.2861 C   0  0  0  0  0  0  0  0  0  0  0  0
    0.0873   -2.6514   -0.5519 C   0  0  0  0  0  0  0  0  0  0  0  0
    1.4792   -2.5896   -0.5964 C   0  0  0  0  0  0  0  0  0  0  0  0
    2.4201   -1.4774   -0.3901 C   0  0  0  0  0  0  0  0  0  0  0  0
    3.6299   -1.6933   -0.3196 O   0  0  0  0  0  0  0  0  0  0  0  0
    1.8515   -0.2060   -0.3004 N   0  0  0  0  0  0  0  0  0  0  0  0
    2.5294    0.9871   -0.2128 N   0  0  0  0  0  0  0  0  0  0  0  0
    3.6667    1.0180    0.4076 C   0  0  0  0  0  0  0  0  0  0  0  0
    4.4617    2.2608    0.4999 C   0  0  0  0  0  0  0  0  0  0  0  0
    3.9834    3.4639   -0.0271 C   0  0  0  0  0  0  0  0  0  0  0  0
    4.7539    4.6227    0.0781 C   0  0  0  0  0  0  0  0  0  0  0  0
    5.9985    4.5783    0.7055 C   0  0  0  0  0  0  0  0  0  0  0  0
    6.4764    3.3764    1.2294 C   0  0  0  0  0  0  0  0  0  0  0  0
    5.7088    2.2148    1.1285 C   0  0  0  0  0  0  0  0  0  0  0  0
    1.9640   -3.8447   -0.8719 N   0  0  0  0  0  0  0  0  0  0  0  0
    0.9495   -4.6770   -1.0010 N   0  0  0  0  0  0  0  0  0  0  0  0
   -0.2112   -4.0014   -0.7876 N   0  0  0  0  0  0  0  0  0  0  0  0
   -1.4647   -4.6659   -0.8269 C   0  0  0  0  0  0  0  0  0  0  0  0
   -2.6079   -4.0045   -0.6451 N   0  0  0  0  0  0  0  0  0  0  0  0
   -3.5917   -4.9832   -0.7691 O   0  0  0  0  0  0  0  0  0  0  0  0
   -3.0330   -6.2309   -1.0248 N   0  0  0  0  0  0  0  0  0  0  0  0
   -1.7159   -6.0334   -1.0508 C   0  0  0  0  0  0  0  0  0  0  0  0
   -0.8071   -7.0042   -1.2573 N   0  0  0  0  0  0  0  0  0  0  0  0
   -1.5650   -0.9879   -1.3451 C   0  0  0  0  0  0  0  0  0  0  0  0
   -2.4865    0.0285   -1.0855 C   0  0  0  0  0  0  0  0  0  0  0  0
   -5.3502    4.9601    0.8082 H   0  0  0  0  0  0  0  0  0  0  0  0
   -3.7137    4.6020    1.3845 H   0  0  0  0  0  0  0  0  0  0  0  0
   -4.2637    3.9726   -0.1797 H   0  0  0  0  0  0  0  0  0  0  0  0
   -5.4486    3.2123    2.5467 H   0  0  0  0  0  0  0  0  0  0  0  0
   -5.9660    2.5728    0.9808 H   0  0  0  0  0  0  0  0  0  0  0  0
   -4.4823    0.9960    2.1961 H   0  0  0  0  0  0  0  0  0  0  0  0
   -3.1738    2.2261    2.1900 H   0  0  0  0  0  0  0  0  0  0  0  0
   -2.2790    0.0802    2.3150 H   0  0  0  0  0  0  0  0  0  0  0  0
   -0.6682   -1.6913    1.8670 H   0  0  0  0  0  0  0  0  0  0  0  0
    0.9003   -0.0783   -0.6261 H   0  0  0  0  0  0  0  0  0  0  0  0
    4.0943    0.1433    0.9261 H   0  0  0  0  0  0  0  0  0  0  0  0
    3.0148    3.5052   -0.5174 H   0  0  0  0  0  0  0  0  0  0  0  0
    4.3837    5.5594   -0.3304 H   0  0  0  0  0  0  0  0  0  0  0  0
    6.5983    5.4817    0.7841 H   0  0  0  0  0  0  0  0  0  0  0  0
    7.4486    3.3445    1.7142 H   0  0  0  0  0  0  0  0  0  0  0  0
    6.0934    1.2830    1.5352 H   0  0  0  0  0  0  0  0  0  0  0  0
    0.1717   -6.7892   -1.4408 H   0  0  0  0  0  0  0  0  0  0  0  0
   -1.1126   -7.9130   -1.5886 H   0  0  0  0  0  0  0  0  0  0  0  0
   -1.3765   -1.2772   -2.3766 H   0  0  0  0  0  0  0  0  0  0  0  0
   -3.0020    0.5127   -1.9118 H   0  0  0  0  0  0  0  0  0  0  0  0
  1  2  1  0
  2  3  1  0
  3  4  1  0
  4  5  1  0
  5  6  2  0
  6  7  1  0
  7  8  2  0
  8  9  1  0
  9 10  2  0
 10 11  1  0
 11 12  2  0
 11 13  1  0
 13 14  1  0
 14 15  2  3
 15 16  1  0
 16 17  2  0
 17 18  1  0
 18 19  2  0
 19 20  1  0
 20 21  2  0
 10 22  1  0
 22 23  2  0
 23 24  1  0
 24 25  1  0
 25 26  2  0
 26 27  1  0
 27 28  1  0
 28 29  2  0
 29 30  1  0
  8 31  1  0
 31 32  2  0
 32  5  1  0
 24  9  1  0
 29 25  1  0
 21 16  1  0
  1 33  1  0
  1 34  1  0
  1 35  1  0
  2 36  1  0
  2 37  1  0
  3 38  1  0
  3 39  1  0
  6 40  1  0
  7 41  1  0
 13 42  1  0
 15 43  1  0
 17 44  1  0
 18 45  1  0
 19 46  1  0
 20 47  1  0
 21 48  1  0
 30 49  1  0
 30 50  1  0
 31 51  1  0
 32 52  1  0
M  END
$$$$
