
     RDKit          3D

 51 55  0  0  0  0  0  0  0  0999 V2000
    7.3722    1.4559   -1.0184 C   0  0  0  0  0  0  0  0  0  0  0  0
    6.7820    1.8480    0.1816 C   0  0  0  0  0  0  0  0  0  0  0  0
    5.4567    1.5054    0.4540 C   0  0  0  0  0  0  0  0  0  0  0  0
    4.7087    0.7701   -0.4754 C   0  0  0  0  0  0  0  0  0  0  0  0
    3.2803    0.3814   -0.1731 C   0  0  0  0  0  0  0  0  0  0  0  0
    3.2074   -0.9698    0.5629 C   0  0  0  0  0  0  0  0  0  0  0  0
    1.8715   -1.4434    0.9479 N   0  0  0  0  0  0  0  0  0  0  0  0
    1.0330   -1.8358   -0.1965 C   0  0  0  0  0  0  0  0  0  0  0  0
   -0.4448   -2.0644    0.1917 C   0  0  0  0  0  0  0  0  0  0  0  0
   -1.0514   -0.8533    0.7671 N   0  0  0  0  0  0  0  0  0  0  0  0
   -2.3233   -0.4280    0.3950 C   0  0  0  0  0  0  0  0  0  0  0  0
   -2.5202    0.8599    0.2447 N   0  0  0  0  0  0  0  0  0  0  0  0
   -3.7696    1.3576   -0.1698 C   0  0  0  0  0  0  0  0  0  0  0  0
   -3.9139    2.7374   -0.3291 C   0  0  0  0  0  0  0  0  0  0  0  0
   -5.1288    3.2844   -0.7505 C   0  0  0  0  0  0  0  0  0  0  0  0
   -6.2156    2.4516   -1.0183 C   0  0  0  0  0  0  0  0  0  0  0  0
   -6.0940    1.0699   -0.8655 C   0  0  0  0  0  0  0  0  0  0  0  0
   -4.8717    0.5376   -0.4436 C   0  0  0  0  0  0  0  0  0  0  0  0
   -4.6660   -0.8377   -0.2498 N   0  0  0  0  0  0  0  0  0  0  0  0
   -5.5487   -1.8805   -0.4044 C   0  0  0  0  0  0  0  0  0  0  0  0
   -4.9146   -3.0414   -0.0214 C   0  0  0  0  0  0  0  0  0  0  0  0
   -3.5992   -2.6916    0.3623 C   0  0  0  0  0  0  0  0  0  0  0  0
   -3.4487   -1.3279    0.1747 C   0  0  0  0  0  0  0  0  0  0  0  0
   -0.0947    0.1315    1.3034 C   0  0  0  0  0  0  0  0  0  0  0  0
    1.1572   -0.5577    1.8858 C   0  0  0  0  0  0  0  0  0  0  0  0
    5.3131    0.3759   -1.6767 C   0  0  0  0  0  0  0  0  0  0  0  0
    6.6386    0.7198   -1.9468 C   0  0  0  0  0  0  0  0  0  0  0  0
    8.4042    1.7231   -1.2295 H   0  0  0  0  0  0  0  0  0  0  0  0
    7.3546    2.4203    0.9067 H   0  0  0  0  0  0  0  0  0  0  0  0
    5.0115    1.8159    1.3965 H   0  0  0  0  0  0  0  0  0  0  0  0
    2.8176    1.1769    0.4232 H   0  0  0  0  0  0  0  0  0  0  0  0
    2.7197    0.3464   -1.1142 H   0  0  0  0  0  0  0  0  0  0  0  0
    3.8204   -0.9169    1.4729 H   0  0  0  0  0  0  0  0  0  0  0  0
    3.6869   -1.7443   -0.0509 H   0  0  0  0  0  0  0  0  0  0  0  0
    1.0563   -1.0735   -0.9841 H   0  0  0  0  0  0  0  0  0  0  0  0
    1.4314   -2.7607   -0.6294 H   0  0  0  0  0  0  0  0  0  0  0  0
   -0.5122   -2.8790    0.9220 H   0  0  0  0  0  0  0  0  0  0  0  0
   -0.9794   -2.3759   -0.7129 H   0  0  0  0  0  0  0  0  0  0  0  0
   -3.0682    3.3881   -0.1232 H   0  0  0  0  0  0  0  0  0  0  0  0
   -5.2242    4.3606   -0.8693 H   0  0  0  0  0  0  0  0  0  0  0  0
   -7.1594    2.8813   -1.3452 H   0  0  0  0  0  0  0  0  0  0  0  0
   -6.9538    0.4432   -1.0765 H   0  0  0  0  0  0  0  0  0  0  0  0
   -6.5596   -1.7253   -0.7516 H   0  0  0  0  0  0  0  0  0  0  0  0
   -5.3567   -4.0295   -0.0077 H   0  0  0  0  0  0  0  0  0  0  0  0
   -2.8469   -3.3699    0.7394 H   0  0  0  0  0  0  0  0  0  0  0  0
   -0.5725    0.7103    2.1030 H   0  0  0  0  0  0  0  0  0  0  0  0
    0.2016    0.8316    0.5124 H   0  0  0  0  0  0  0  0  0  0  0  0
    0.8357   -1.1849    2.7276 H   0  0  0  0  0  0  0  0  0  0  0  0
    1.8235    0.1966    2.3212 H   0  0  0  0  0  0  0  0  0  0  0  0
    4.7549   -0.2014   -2.4103 H   0  0  0  0  0  0  0  0  0  0  0  0
    7.0993    0.4124   -2.8820 H   0  0  0  0  0  0  0  0  0  0  0  0
  1  2  2  0
  2  3  1  0
  3  4  2  0
  4  5  1  0
  5  6  1  0
  6  7  1  0
  7  8  1  0
  8  9  1  0
  9 10  1  0
 10 11  1  0
 11 12  2  0
 12 13  1  0
 13 14  2  0
 14 15  1  0
 15 16  2  0
 16 17  1  0
 17 18  2  0
 18 19  1  0
 19 20  1  0
 20 21  2  0
 21 22  1  0
 22 23  2  0
 10 24  1  0
 24 25  1  0
  4 26  1  0
 26 27  2  0
 27  1  1  0
 25  7  1  0
 23 11  1  0
 18 13  1  0
 23 19  1  0
  1 28  1  0
  2 29  1  0
  3 30  1  0
  5 31  1  0
  5 32  1  0
  6 33  1  0
  6 34  1  0
  8 35  1  0
  8 36  1  0
  9 37  1  0
  9 38  1  0
 14 39  1  0
 15 40  1  0
 16 41  1  0
 17 42  1  0
 20 43  1  0
 21 44  1  0
 22 45  1  0
 24 46  1  0
 24 47  1  0
 25 48  1  0
 25 49  1  0
 26 50  1  0
 27 51  1  0
M  END
$$$$
