
     RDKit          3D

 57 61  0  0  0  0  0  0  0  0999 V2000
   -4.3496   -2.0693   -2.9419 C   0  0  0  0  0  0  0  0  0  0  0  0
   -4.7325   -1.3292   -1.6614 C   0  0  0  0  0  0  0  0  0  0  0  0
   -6.1853   -1.6373   -1.2947 C   0  0  0  0  0  0  0  0  0  0  0  0
   -3.7927   -1.7448   -0.5264 C   0  0  0  0  0  0  0  0  0  0  0  0
   -4.0854   -2.6874    0.2123 O   0  0  0  0  0  0  0  0  0  0  0  0
   -2.5850   -1.0620   -0.3949 N   0  0  0  0  0  0  0  0  0  0  0  0
   -1.6855   -1.4440    0.6904 C   0  0  0  0  0  0  0  0  0  0  0  0
   -1.0736   -0.2277    1.3805 C   0  0  0  0  0  0  0  0  0  0  0  0
   -0.3425    0.7442    0.4044 C   0  0  0  0  0  0  0  0  0  0  0  0
   -0.7126    0.4144   -1.0643 C   0  0  0  0  0  0  0  0  0  0  0  0
   -2.1983    0.0943   -1.1987 C   0  0  0  0  0  0  0  0  0  0  0  0
   -0.9224    2.0436    0.7240 O   0  0  0  0  0  0  0  0  0  0  0  0
   -0.2341    3.1629    0.3579 C   0  0  0  0  0  0  0  0  0  0  0  0
   -0.9242    4.3710    0.4698 C   0  0  0  0  0  0  0  0  0  0  0  0
   -0.3085    5.5645    0.0878 C   0  0  0  0  0  0  0  0  0  0  0  0
    0.9939    5.5413   -0.4023 C   0  0  0  0  0  0  0  0  0  0  0  0
    1.5769    6.6879   -0.7739 F   0  0  0  0  0  0  0  0  0  0  0  0
    1.6976    4.3493   -0.5094 C   0  0  0  0  0  0  0  0  0  0  0  0
    1.0766    3.1628   -0.1130 C   0  0  0  0  0  0  0  0  0  0  0  0
    1.7906    1.8822   -0.1900 C   0  0  0  0  0  0  0  0  0  0  0  0
    2.7828    1.7760   -0.9050 O   0  0  0  0  0  0  0  0  0  0  0  0
    1.1959    0.7492    0.6367 C   0  0  0  0  0  0  0  0  0  0  0  0
    1.8991   -0.5716    0.3668 C   0  0  0  0  0  0  0  0  0  0  0  0
    2.9023   -0.5257    1.4697 C   0  0  0  0  0  0  0  0  0  0  0  0
    4.0637   -1.4446    1.5172 C   0  0  0  0  0  0  0  0  0  0  0  0
    5.0119   -1.2856    2.5357 C   0  0  0  0  0  0  0  0  0  0  0  0
    6.1146   -2.1386    2.6108 C   0  0  0  0  0  0  0  0  0  0  0  0
    6.2746   -3.1548    1.6709 C   0  0  0  0  0  0  0  0  0  0  0  0
    5.3332   -3.3198    0.6557 C   0  0  0  0  0  0  0  0  0  0  0  0
    4.2280   -2.4680    0.5767 C   0  0  0  0  0  0  0  0  0  0  0  0
    2.6533    0.3511    2.3903 N   0  0  0  0  0  0  0  0  0  0  0  0
    1.4809    1.0426    2.0154 O   0  0  0  0  0  0  0  0  0  0  0  0
   -4.9788   -1.7479   -3.7785 H   0  0  0  0  0  0  0  0  0  0  0  0
   -3.3057   -1.8951   -3.2186 H   0  0  0  0  0  0  0  0  0  0  0  0
   -4.4719   -3.1519   -2.8221 H   0  0  0  0  0  0  0  0  0  0  0  0
   -4.6643   -0.2487   -1.8215 H   0  0  0  0  0  0  0  0  0  0  0  0
   -6.4615   -1.1406   -0.3582 H   0  0  0  0  0  0  0  0  0  0  0  0
   -6.3508   -2.7122   -1.1612 H   0  0  0  0  0  0  0  0  0  0  0  0
   -6.8655   -1.2860   -2.0778 H   0  0  0  0  0  0  0  0  0  0  0  0
   -0.9076   -2.0787    0.2523 H   0  0  0  0  0  0  0  0  0  0  0  0
   -2.2068   -2.0535    1.4359 H   0  0  0  0  0  0  0  0  0  0  0  0
   -0.4023   -0.5819    2.1709 H   0  0  0  0  0  0  0  0  0  0  0  0
   -1.8810    0.3055    1.9016 H   0  0  0  0  0  0  0  0  0  0  0  0
   -0.1322   -0.4428   -1.4263 H   0  0  0  0  0  0  0  0  0  0  0  0
   -0.4869    1.2570   -1.7275 H   0  0  0  0  0  0  0  0  0  0  0  0
   -2.4296   -0.0942   -2.2498 H   0  0  0  0  0  0  0  0  0  0  0  0
   -2.8118    0.9429   -0.8742 H   0  0  0  0  0  0  0  0  0  0  0  0
   -1.9429    4.3839    0.8501 H   0  0  0  0  0  0  0  0  0  0  0  0
   -0.8353    6.5107    0.1681 H   0  0  0  0  0  0  0  0  0  0  0  0
    2.7165    4.3549   -0.8851 H   0  0  0  0  0  0  0  0  0  0  0  0
    2.3562   -0.6417   -0.6226 H   0  0  0  0  0  0  0  0  0  0  0  0
    1.2631   -1.4436    0.5363 H   0  0  0  0  0  0  0  0  0  0  0  0
    4.9001   -0.4957    3.2760 H   0  0  0  0  0  0  0  0  0  0  0  0
    6.8477   -2.0077    3.4029 H   0  0  0  0  0  0  0  0  0  0  0  0
    7.1340   -3.8184    1.7298 H   0  0  0  0  0  0  0  0  0  0  0  0
    5.4611   -4.1142   -0.0758 H   0  0  0  0  0  0  0  0  0  0  0  0
    3.5127   -2.6269   -0.2240 H   0  0  0  0  0  0  0  0  0  0  0  0
  1  2  1  0
  2  3  1  0
  2  4  1  0
  4  5  2  0
  4  6  1  0
  6  7  1  0
  7  8  1  0
  8  9  1  0
  9 10  1  0
 10 11  1  0
  9 12  1  0
 12 13  1  0
 13 14  2  0
 14 15  1  0
 15 16  2  0
 16 17  1  0
 16 18  1  0
 18 19  2  0
 19 20  1  0
 20 21  2  0
 20 22  1  0
 22 23  1  0
 23 24  1  0
 24 25  1  0
 25 26  2  0
 26 27  1  0
 27 28  2  0
 28 29  1  0
 29 30  2  0
 24 31  2  0
 31 32  1  0
 11  6  1  0
 19 13  1  0
 32 22  1  0
 22  9  1  0
 30 25  1  0
  1 33  1  0
  1 34  1  0
  1 35  1  0
  2 36  1  0
  3 37  1  0
  3 38  1  0
  3 39  1  0
  7 40  1  0
  7 41  1  0
  8 42  1  0
  8 43  1  0
 10 44  1  0
 10 45  1  0
 11 46  1  0
 11 47  1  0
 14 48  1  0
 15 49  1  0
 18 50  1  0
 23 51  1  0
 23 52  1  0
 26 53  1  0
 27 54  1  0
 28 55  1  0
 29 56  1  0
 30 57  1  0
M  END
$$$$
