
     RDKit          3D

 57 61  0  0  0  0  0  0  0  0999 V2000
    4.4312    2.2611    1.0989 C   0  0  0  0  0  0  0  0  0  0  0  0
    4.7477    1.1688    0.0776 C   0  0  0  0  0  0  0  0  0  0  0  0
    6.2634    1.0715   -0.1172 C   0  0  0  0  0  0  0  0  0  0  0  0
    4.1691   -0.1735    0.5404 C   0  0  0  0  0  0  0  0  0  0  0  0
    4.9127   -1.0779    0.9268 O   0  0  0  0  0  0  0  0  0  0  0  0
    2.7760   -0.3174    0.5545 N   0  0  0  0  0  0  0  0  0  0  0  0
    1.9047    0.4161   -0.3592 C   0  0  0  0  0  0  0  0  0  0  0  0
    0.4671    0.5042    0.1505 C   0  0  0  0  0  0  0  0  0  0  0  0
   -0.1278   -0.8843    0.4938 C   0  0  0  0  0  0  0  0  0  0  0  0
    0.8410   -1.5305    1.5196 C   0  0  0  0  0  0  0  0  0  0  0  0
    2.2694   -1.6145    0.9909 C   0  0  0  0  0  0  0  0  0  0  0  0
   -0.1229   -1.6315   -0.7470 O   0  0  0  0  0  0  0  0  0  0  0  0
   -0.7934   -2.8227   -0.7292 C   0  0  0  0  0  0  0  0  0  0  0  0
   -0.4770   -3.7213   -1.7489 C   0  0  0  0  0  0  0  0  0  0  0  0
   -1.1034   -4.9678   -1.7965 C   0  0  0  0  0  0  0  0  0  0  0  0
   -2.0443   -5.3038   -0.8278 C   0  0  0  0  0  0  0  0  0  0  0  0
   -2.6425   -6.5004   -0.8795 F   0  0  0  0  0  0  0  0  0  0  0  0
   -2.3793   -4.4147    0.1851 C   0  0  0  0  0  0  0  0  0  0  0  0
   -1.7545   -3.1658    0.2232 C   0  0  0  0  0  0  0  0  0  0  0  0
   -2.1185   -2.1800    1.2590 C   0  0  0  0  0  0  0  0  0  0  0  0
   -2.8553   -2.5133    2.1809 O   0  0  0  0  0  0  0  0  0  0  0  0
   -1.5781   -0.7705    1.0439 C   0  0  0  0  0  0  0  0  0  0  0  0
   -2.5725   -0.0351    0.1511 C   0  0  0  0  0  0  0  0  0  0  0  0
   -2.6553    1.2533    0.8920 C   0  0  0  0  0  0  0  0  0  0  0  0
   -3.3250    2.4473    0.3244 C   0  0  0  0  0  0  0  0  0  0  0  0
   -3.3006    3.6469    1.0496 C   0  0  0  0  0  0  0  0  0  0  0  0
   -3.9201    4.7920    0.5412 C   0  0  0  0  0  0  0  0  0  0  0  0
   -4.5663    4.7386   -0.6913 C   0  0  0  0  0  0  0  0  0  0  0  0
   -5.3281    6.1460   -1.3208 Cl  0  0  0  0  0  0  0  0  0  0  0  0
   -4.5984    3.5498   -1.4193 C   0  0  0  0  0  0  0  0  0  0  0  0
   -3.9787    2.4017   -0.9129 C   0  0  0  0  0  0  0  0  0  0  0  0
   -2.1020    1.2431    2.0611 N   0  0  0  0  0  0  0  0  0  0  0  0
   -1.5937   -0.0571    2.2840 O   0  0  0  0  0  0  0  0  0  0  0  0
    4.8311    3.2267    0.7717 H   0  0  0  0  0  0  0  0  0  0  0  0
    4.8696    2.0244    2.0748 H   0  0  0  0  0  0  0  0  0  0  0  0
    3.3545    2.3810    1.2515 H   0  0  0  0  0  0  0  0  0  0  0  0
    4.3225    1.4246   -0.8979 H   0  0  0  0  0  0  0  0  0  0  0  0
    6.6683    2.0170   -0.4928 H   0  0  0  0  0  0  0  0  0  0  0  0
    6.5120    0.2878   -0.8410 H   0  0  0  0  0  0  0  0  0  0  0  0
    6.7761    0.8323    0.8212 H   0  0  0  0  0  0  0  0  0  0  0  0
    1.9471   -0.0934   -1.3296 H   0  0  0  0  0  0  0  0  0  0  0  0
    2.2697    1.4315   -0.5235 H   0  0  0  0  0  0  0  0  0  0  0  0
    0.4540    1.1504    1.0366 H   0  0  0  0  0  0  0  0  0  0  0  0
   -0.1234    0.9980   -0.6294 H   0  0  0  0  0  0  0  0  0  0  0  0
    0.5267   -2.5450    1.7870 H   0  0  0  0  0  0  0  0  0  0  0  0
    0.8424   -0.9436    2.4472 H   0  0  0  0  0  0  0  0  0  0  0  0
    2.9112   -2.0192    1.7820 H   0  0  0  0  0  0  0  0  0  0  0  0
    2.3358   -2.3025    0.1394 H   0  0  0  0  0  0  0  0  0  0  0  0
    0.2655   -3.4596   -2.4990 H   0  0  0  0  0  0  0  0  0  0  0  0
   -0.8617   -5.6811   -2.5793 H   0  0  0  0  0  0  0  0  0  0  0  0
   -3.1237   -4.6971    0.9246 H   0  0  0  0  0  0  0  0  0  0  0  0
   -3.5669   -0.4950    0.1421 H   0  0  0  0  0  0  0  0  0  0  0  0
   -2.2275    0.0906   -0.8774 H   0  0  0  0  0  0  0  0  0  0  0  0
   -2.8014    3.6988    2.0160 H   0  0  0  0  0  0  0  0  0  0  0  0
   -3.8935    5.7166    1.1117 H   0  0  0  0  0  0  0  0  0  0  0  0
   -5.1061    3.5098   -2.3802 H   0  0  0  0  0  0  0  0  0  0  0  0
   -4.0267    1.4892   -1.5005 H   0  0  0  0  0  0  0  0  0  0  0  0
  1  2  1  0
  2  3  1  0
  2  4  1  0
  4  5  2  0
  4  6  1  0
  6  7  1  0
  7  8  1  0
  8  9  1  0
  9 10  1  0
 10 11  1  0
  9 12  1  0
 12 13  1  0
 13 14  2  0
 14 15  1  0
 15 16  2  0
 16 17  1  0
 16 18  1  0
 18 19  2  0
 19 20  1  0
 20 21  2  0
 20 22  1  0
 22 23  1  0
 23 24  1  0
 24 25  1  0
 25 26  2  0
 26 27  1  0
 27 28  2  0
 28 29  1  0
 28 30  1  0
 30 31  2  0
 24 32  2  0
 32 33  1  0
 11  6  1  0
 19 13  1  0
 33 22  1  0
 22  9  1  0
 31 25  1  0
  1 34  1  0
  1 35  1  0
  1 36  1  0
  2 37  1  0
  3 38  1  0
  3 39  1  0
  3 40  1  0
  7 41  1  0
  7 42  1  0
  8 43  1  0
  8 44  1  0
 10 45  1  0
 10 46  1  0
 11 47  1  0
 11 48  1  0
 14 49  1  0
 15 50  1  0
 18 51  1  0
 23 52  1  0
 23 53  1  0
 26 54  1  0
 27 55  1  0
 30 56  1  0
 31 57  1  0
M  END
$$$$
