
     RDKit          3D

 42 45  0  0  0  0  0  0  0  0999 V2000
    4.4041   -0.3877   -1.8973 O   0  0  0  0  0  0  0  0  0  0  0  0
    3.5458   -0.1238   -1.0592 C   0  0  0  0  0  0  0  0  0  0  0  0
    3.9818    0.0160    0.3478 C   0  0  0  0  0  0  0  0  0  0  0  0
    4.7750   -0.9896    0.9156 C   0  0  0  0  0  0  0  0  0  0  0  0
    5.2040   -0.8765    2.2416 C   0  0  0  0  0  0  0  0  0  0  0  0
    4.8659    0.2542    2.9833 C   0  0  0  0  0  0  0  0  0  0  0  0
    4.1144    1.2715    2.3912 C   0  0  0  0  0  0  0  0  0  0  0  0
    3.8100    2.3636    3.1045 F   0  0  0  0  0  0  0  0  0  0  0  0
    3.6700    1.1686    1.0777 C   0  0  0  0  0  0  0  0  0  0  0  0
    2.1906    0.0582   -1.3649 N   0  0  0  0  0  0  0  0  0  0  0  0
    1.8303   -0.0986   -2.7782 C   0  0  0  0  0  0  0  0  0  0  0  0
    0.4794    0.5376   -3.1135 C   0  0  0  0  0  0  0  0  0  0  0  0
   -0.5731    0.1236   -2.1862 N   0  0  0  0  0  0  0  0  0  0  0  0
   -1.8973    0.1024   -2.6703 C   0  0  0  0  0  0  0  0  0  0  0  0
   -2.1749    0.1981   -3.8711 O   0  0  0  0  0  0  0  0  0  0  0  0
   -2.9613   -0.0774   -1.6759 C   0  0  0  0  0  0  0  0  0  0  0  0
   -3.6357   -1.2909   -1.3784 C   0  0  0  0  0  0  0  0  0  0  0  0
   -4.5206   -0.9760   -0.3724 C   0  0  0  0  0  0  0  0  0  0  0  0
   -5.4055   -1.7486    0.3351 N   0  0  0  0  0  0  0  0  0  0  0  0
   -6.1631   -1.0968    1.1745 C   0  0  0  0  0  0  0  0  0  0  0  0
   -6.1639    0.3932    1.4106 C   0  0  0  0  0  0  0  0  0  0  0  0
   -7.3707    1.1367    2.6028 Br  0  0  0  0  0  0  0  0  0  0  0  0
   -5.2396    1.0798    0.7212 C   0  0  0  0  0  0  0  0  0  0  0  0
   -4.3944    0.4103   -0.1624 N   0  0  0  0  0  0  0  0  0  0  0  0
   -3.3859    0.9413   -0.8966 N   0  0  0  0  0  0  0  0  0  0  0  0
   -0.2368    0.2584   -0.7642 C   0  0  0  0  0  0  0  0  0  0  0  0
    1.1353   -0.3466   -0.4251 C   0  0  0  0  0  0  0  0  0  0  0  0
    5.0689   -1.8532    0.3233 H   0  0  0  0  0  0  0  0  0  0  0  0
    5.7977   -1.6739    2.6926 H   0  0  0  0  0  0  0  0  0  0  0  0
    5.1936    0.3552    4.0149 H   0  0  0  0  0  0  0  0  0  0  0  0
    3.1209    1.9945    0.6263 H   0  0  0  0  0  0  0  0  0  0  0  0
    1.8029   -1.1749   -2.9871 H   0  0  0  0  0  0  0  0  0  0  0  0
    2.6074    0.3417   -3.4097 H   0  0  0  0  0  0  0  0  0  0  0  0
    0.5511    1.6296   -3.0370 H   0  0  0  0  0  0  0  0  0  0  0  0
    0.2076    0.2979   -4.1468 H   0  0  0  0  0  0  0  0  0  0  0  0
   -3.4838   -2.2711   -1.8262 H   0  0  0  0  0  0  0  0  0  0  0  0
   -6.8824   -1.6818    1.7783 H   0  0  0  0  0  0  0  0  0  0  0  0
   -5.1111    2.1598    0.7865 H   0  0  0  0  0  0  0  0  0  0  0  0
   -0.9929   -0.2182   -0.1357 H   0  0  0  0  0  0  0  0  0  0  0  0
   -0.2412    1.3321   -0.5376 H   0  0  0  0  0  0  0  0  0  0  0  0
    1.3987   -0.0950    0.6062 H   0  0  0  0  0  0  0  0  0  0  0  0
    1.0791   -1.4434   -0.4773 H   0  0  0  0  0  0  0  0  0  0  0  0
  1  2  2  0
  2  3  1  0
  3  4  2  0
  4  5  1  0
  5  6  2  0
  6  7  1  0
  7  8  1  0
  7  9  2  0
  2 10  1  0
 10 11  1  0
 11 12  1  0
 12 13  1  0
 13 14  1  0
 14 15  2  0
 14 16  1  0
 16 17  1  0
 17 18  2  0
 18 19  1  0
 19 20  2  0
 20 21  1  0
 21 22  1  0
 21 23  2  0
 23 24  1  0
 24 25  1  0
 13 26  1  0
 26 27  1  0
  9  3  1  0
 27 10  1  0
 25 16  2  0
 24 18  1  0
  4 28  1  0
  5 29  1  0
  6 30  1  0
  9 31  1  0
 11 32  1  0
 11 33  1  0
 12 34  1  0
 12 35  1  0
 17 36  1  0
 20 37  1  0
 23 38  1  0
 26 39  1  0
 26 40  1  0
 27 41  1  0
 27 42  1  0
M  END
$$$$
