
     RDKit          3D

 57 59  0  0  0  0  0  0  0  0999 V2000
    4.9933    0.8512    2.1663 C   0  0  0  0  0  0  0  0  0  0  0  0
    4.9119    0.6130    0.6635 C   0  0  0  0  0  0  0  0  0  0  0  0
    5.2072    2.1845   -0.2449 S   0  0  0  0  0  0  0  0  0  0  0  0
    6.9018    1.8896   -0.8477 C   0  0  0  0  0  0  0  0  0  0  0  0
    7.9311    1.8125    0.2500 C   0  0  0  0  0  0  0  0  0  0  0  0
    8.5829    0.6028    0.5328 C   0  0  0  0  0  0  0  0  0  0  0  0
    9.5331    0.5306    1.5531 C   0  0  0  0  0  0  0  0  0  0  0  0
    9.8458    1.6655    2.2981 C   0  0  0  0  0  0  0  0  0  0  0  0
    9.2110    2.8748    2.0231 C   0  0  0  0  0  0  0  0  0  0  0  0
    8.2611    2.9493    1.0032 C   0  0  0  0  0  0  0  0  0  0  0  0
    3.5448    0.0228    0.2965 C   0  0  0  0  0  0  0  0  0  0  0  0
    3.4345   -1.1809    0.0617 O   0  0  0  0  0  0  0  0  0  0  0  0
    2.5000    0.9411    0.3438 N   0  0  0  0  0  0  0  0  0  0  0  0
    1.1595    0.6796    0.2512 N   0  0  0  0  0  0  0  0  0  0  0  0
    0.7651   -0.3579   -0.4157 C   0  0  0  0  0  0  0  0  0  0  0  0
   -0.6660   -0.7183   -0.5077 C   0  0  0  0  0  0  0  0  0  0  0  0
   -1.6488    0.0700    0.0918 C   0  0  0  0  0  0  0  0  0  0  0  0
   -2.9917   -0.3012   -0.0119 C   0  0  0  0  0  0  0  0  0  0  0  0
   -3.3615   -1.4563   -0.7077 C   0  0  0  0  0  0  0  0  0  0  0  0
   -4.7063   -1.7023   -0.7276 O   0  0  0  0  0  0  0  0  0  0  0  0
   -5.1307   -2.9195   -1.3384 C   0  0  0  0  0  0  0  0  0  0  0  0
   -6.6448   -3.0833   -1.2137 C   0  0  0  0  0  0  0  0  0  0  0  0
   -7.1982   -4.1733   -1.3368 O   0  0  0  0  0  0  0  0  0  0  0  0
   -7.3301   -1.9118   -0.9978 N   0  0  0  0  0  0  0  0  0  0  0  0
   -8.7548   -1.9098   -0.7761 C   0  0  0  0  0  0  0  0  0  0  0  0
   -9.2175   -0.5106   -0.6264 C   0  0  0  0  0  0  0  0  0  0  0  0
   -9.2815    0.3559    0.4463 C   0  0  0  0  0  0  0  0  0  0  0  0
   -9.8216    1.5667   -0.0509 C   0  0  0  0  0  0  0  0  0  0  0  0
  -10.0535    1.3619   -1.3910 C   0  0  0  0  0  0  0  0  0  0  0  0
   -9.6867    0.1055   -1.7503 O   0  0  0  0  0  0  0  0  0  0  0  0
   -2.3740   -2.2398   -1.3087 C   0  0  0  0  0  0  0  0  0  0  0  0
   -1.0266   -1.8721   -1.2089 C   0  0  0  0  0  0  0  0  0  0  0  0
    5.9927    1.1777    2.4716 H   0  0  0  0  0  0  0  0  0  0  0  0
    4.7703   -0.0749    2.7091 H   0  0  0  0  0  0  0  0  0  0  0  0
    4.2698    1.6008    2.5064 H   0  0  0  0  0  0  0  0  0  0  0  0
    5.6615   -0.1248    0.3601 H   0  0  0  0  0  0  0  0  0  0  0  0
    7.1687    2.7122   -1.5213 H   0  0  0  0  0  0  0  0  0  0  0  0
    6.9044    0.9817   -1.4617 H   0  0  0  0  0  0  0  0  0  0  0  0
    8.3547   -0.2948   -0.0382 H   0  0  0  0  0  0  0  0  0  0  0  0
   10.0309   -0.4119    1.7658 H   0  0  0  0  0  0  0  0  0  0  0  0
   10.5858    1.6084    3.0927 H   0  0  0  0  0  0  0  0  0  0  0  0
    9.4548    3.7611    2.6032 H   0  0  0  0  0  0  0  0  0  0  0  0
    7.7739    3.9016    0.8019 H   0  0  0  0  0  0  0  0  0  0  0  0
    2.7168    1.8797    0.6733 H   0  0  0  0  0  0  0  0  0  0  0  0
    1.4515   -1.0146   -0.9733 H   0  0  0  0  0  0  0  0  0  0  0  0
   -1.3802    0.9708    0.6383 H   0  0  0  0  0  0  0  0  0  0  0  0
   -3.7538    0.3159    0.4581 H   0  0  0  0  0  0  0  0  0  0  0  0
   -4.8921   -2.9160   -2.4079 H   0  0  0  0  0  0  0  0  0  0  0  0
   -4.6701   -3.7759   -0.8326 H   0  0  0  0  0  0  0  0  0  0  0  0
   -6.7841   -1.0878   -0.7704 H   0  0  0  0  0  0  0  0  0  0  0  0
   -9.2475   -2.4124   -1.6156 H   0  0  0  0  0  0  0  0  0  0  0  0
   -8.9625   -2.4865    0.1325 H   0  0  0  0  0  0  0  0  0  0  0  0
   -8.9771    0.1367    1.4606 H   0  0  0  0  0  0  0  0  0  0  0  0
  -10.0208    2.4763    0.4979 H   0  0  0  0  0  0  0  0  0  0  0  0
  -10.4546    1.9754   -2.1861 H   0  0  0  0  0  0  0  0  0  0  0  0
   -2.6132   -3.1425   -1.8619 H   0  0  0  0  0  0  0  0  0  0  0  0
   -0.2684   -2.4963   -1.6766 H   0  0  0  0  0  0  0  0  0  0  0  0
  1  2  1  0
  2  3  1  0
  3  4  1  0
  4  5  1  0
  5  6  2  0
  6  7  1  0
  7  8  2  0
  8  9  1  0
  9 10  2  0
  2 11  1  0
 11 12  2  0
 11 13  1  0
 13 14  1  0
 14 15  2  3
 15 16  1  0
 16 17  2  0
 17 18  1  0
 18 19  2  0
 19 20  1  0
 20 21  1  0
 21 22  1  0
 22 23  2  0
 22 24  1  0
 24 25  1  0
 25 26  1  0
 26 27  2  0
 27 28  1  0
 28 29  2  0
 29 30  1  0
 19 31  1  0
 31 32  2  0
 10  5  1  0
 32 16  1  0
 30 26  1  0
  1 33  1  0
  1 34  1  0
  1 35  1  0
  2 36  1  0
  4 37  1  0
  4 38  1  0
  6 39  1  0
  7 40  1  0
  8 41  1  0
  9 42  1  0
 10 43  1  0
 13 44  1  0
 15 45  1  0
 17 46  1  0
 18 47  1  0
 21 48  1  0
 21 49  1  0
 24 50  1  0
 25 51  1  0
 25 52  1  0
 27 53  1  0
 28 54  1  0
 29 55  1  0
 31 56  1  0
 32 57  1  0
M  END
$$$$
