
     RDKit          3D

 64 67  0  0  0  0  0  0  0  0999 V2000
    7.5550   -2.5378    2.5133 C   0  0  0  0  0  0  0  0  0  0  0  0
    7.8899   -1.6126    1.4866 O   0  0  0  0  0  0  0  0  0  0  0  0
    6.8816   -1.2345    0.6439 C   0  0  0  0  0  0  0  0  0  0  0  0
    5.6022   -1.7835    0.5970 C   0  0  0  0  0  0  0  0  0  0  0  0
    4.6621   -1.2952   -0.3201 C   0  0  0  0  0  0  0  0  0  0  0  0
    4.9867   -0.2542   -1.1978 C   0  0  0  0  0  0  0  0  0  0  0  0
    3.9759    0.1847   -2.0710 N   0  0  0  0  0  0  0  0  0  0  0  0
    4.0143    1.2511   -2.9544 C   0  0  0  0  0  0  0  0  0  0  0  0
    4.9611    2.0072   -3.1581 O   0  0  0  0  0  0  0  0  0  0  0  0
    2.6896    1.4397   -3.7022 C   0  0  0  0  0  0  0  0  0  0  0  0
    1.6182    1.8639   -2.7947 N   0  0  0  0  0  0  0  0  0  0  0  0
    1.5292    3.2903   -2.5295 C   0  0  0  0  0  0  0  0  0  0  0  0
    0.8631    0.8834   -2.1788 C   0  0  0  0  0  0  0  0  0  0  0  0
    1.1924   -0.3017   -2.2260 O   0  0  0  0  0  0  0  0  0  0  0  0
   -0.3615    1.3077   -1.4513 C   0  0  0  0  0  0  0  0  0  0  0  0
   -1.0719    0.4056   -0.7556 C   0  0  0  0  0  0  0  0  0  0  0  0
   -2.2700    0.6704   -0.0213 C   0  0  0  0  0  0  0  0  0  0  0  0
   -2.7707    1.9120    0.3023 C   0  0  0  0  0  0  0  0  0  0  0  0
   -3.9474    1.7102    0.9891 N   0  0  0  0  0  0  0  0  0  0  0  0
   -4.8238    2.6910    1.5357 C   0  0  0  0  0  0  0  0  0  0  0  0
   -5.9942    2.2794    2.1932 C   0  0  0  0  0  0  0  0  0  0  0  0
   -6.8698    3.2237    2.7331 C   0  0  0  0  0  0  0  0  0  0  0  0
   -6.5842    4.5813    2.6236 C   0  0  0  0  0  0  0  0  0  0  0  0
   -5.4234    4.9985    1.9749 C   0  0  0  0  0  0  0  0  0  0  0  0
   -4.5419    4.0596    1.4306 C   0  0  0  0  0  0  0  0  0  0  0  0
   -4.2293    0.3923    1.1049 N   0  0  0  0  0  0  0  0  0  0  0  0
   -3.2083   -0.2529    0.5226 C   0  0  0  0  0  0  0  0  0  0  0  0
   -3.1959   -1.7136    0.4875 C   0  0  0  0  0  0  0  0  0  0  0  0
   -2.0875   -2.4385    0.9414 C   0  0  0  0  0  0  0  0  0  0  0  0
   -2.0914   -3.8361    0.8988 C   0  0  0  0  0  0  0  0  0  0  0  0
   -3.2019   -4.5289    0.4019 C   0  0  0  0  0  0  0  0  0  0  0  0
   -3.2229   -6.0285    0.3820 C   0  0  0  0  0  0  0  0  0  0  0  0
   -4.3213   -3.8045   -0.0245 C   0  0  0  0  0  0  0  0  0  0  0  0
   -4.3173   -2.4080    0.0168 C   0  0  0  0  0  0  0  0  0  0  0  0
    6.2714    0.2835   -1.1563 C   0  0  0  0  0  0  0  0  0  0  0  0
    7.2109   -0.2071   -0.2413 C   0  0  0  0  0  0  0  0  0  0  0  0
    7.2931   -3.5145    2.0909 H   0  0  0  0  0  0  0  0  0  0  0  0
    8.4404   -2.6739    3.1403 H   0  0  0  0  0  0  0  0  0  0  0  0
    6.7507   -2.1529    3.1500 H   0  0  0  0  0  0  0  0  0  0  0  0
    5.3013   -2.5916    1.2547 H   0  0  0  0  0  0  0  0  0  0  0  0
    3.6683   -1.7375   -0.3333 H   0  0  0  0  0  0  0  0  0  0  0  0
    3.0778   -0.2986   -2.0084 H   0  0  0  0  0  0  0  0  0  0  0  0
    2.4259    0.4946   -4.1897 H   0  0  0  0  0  0  0  0  0  0  0  0
    2.8140    2.1914   -4.4886 H   0  0  0  0  0  0  0  0  0  0  0  0
    0.9163    3.7479   -3.3071 H   0  0  0  0  0  0  0  0  0  0  0  0
    2.5288    3.7284   -2.5488 H   0  0  0  0  0  0  0  0  0  0  0  0
    1.0937    3.4921   -1.5486 H   0  0  0  0  0  0  0  0  0  0  0  0
   -0.6860    2.3326   -1.5303 H   0  0  0  0  0  0  0  0  0  0  0  0
   -0.7255   -0.6258   -0.7608 H   0  0  0  0  0  0  0  0  0  0  0  0
   -2.3955    2.9029    0.1048 H   0  0  0  0  0  0  0  0  0  0  0  0
   -6.2386    1.2233    2.2915 H   0  0  0  0  0  0  0  0  0  0  0  0
   -7.7748    2.8984    3.2396 H   0  0  0  0  0  0  0  0  0  0  0  0
   -7.2673    5.3144    3.0444 H   0  0  0  0  0  0  0  0  0  0  0  0
   -5.2051    6.0598    1.8939 H   0  0  0  0  0  0  0  0  0  0  0  0
   -3.6508    4.4320    0.9372 H   0  0  0  0  0  0  0  0  0  0  0  0
   -1.2191   -1.9263    1.3475 H   0  0  0  0  0  0  0  0  0  0  0  0
   -1.2217   -4.3799    1.2610 H   0  0  0  0  0  0  0  0  0  0  0  0
   -2.2065   -6.4371    0.3790 H   0  0  0  0  0  0  0  0  0  0  0  0
   -3.7241   -6.3943   -0.5212 H   0  0  0  0  0  0  0  0  0  0  0  0
   -3.7508   -6.4083    1.2627 H   0  0  0  0  0  0  0  0  0  0  0  0
   -5.2062   -4.3211   -0.3891 H   0  0  0  0  0  0  0  0  0  0  0  0
   -5.1968   -1.8595   -0.3164 H   0  0  0  0  0  0  0  0  0  0  0  0
    6.5801    1.0826   -1.8219 H   0  0  0  0  0  0  0  0  0  0  0  0
    8.2095    0.2230   -0.2194 H   0  0  0  0  0  0  0  0  0  0  0  0
  1  2  1  0
  2  3  1  0
  3  4  2  0
  4  5  1  0
  5  6  2  0
  6  7  1  0
  7  8  1  0
  8  9  2  0
  8 10  1  0
 10 11  1  0
 11 12  1  0
 11 13  1  0
 13 14  2  0
 13 15  1  0
 15 16  2  3
 16 17  1  0
 17 18  2  0
 18 19  1  0
 19 20  1  0
 20 21  2  0
 21 22  1  0
 22 23  2  0
 23 24  1  0
 24 25  2  0
 19 26  1  0
 26 27  2  0
 27 28  1  0
 28 29  2  0
 29 30  1  0
 30 31  2  0
 31 32  1  0
 31 33  1  0
 33 34  2  0
  6 35  1  0
 35 36  2  0
 36  3  1  0
 27 17  1  0
 34 28  1  0
 25 20  1  0
  1 37  1  0
  1 38  1  0
  1 39  1  0
  4 40  1  0
  5 41  1  0
  7 42  1  0
 10 43  1  0
 10 44  1  0
 12 45  1  0
 12 46  1  0
 12 47  1  0
 15 48  1  0
 16 49  1  0
 18 50  1  0
 21 51  1  0
 22 52  1  0
 23 53  1  0
 24 54  1  0
 25 55  1  0
 29 56  1  0
 30 57  1  0
 32 58  1  0
 32 59  1  0
 32 60  1  0
 33 61  1  0
 34 62  1  0
 35 63  1  0
 36 64  1  0
M  END
$$$$
