
     RDKit          3D

 44 46  0  0  0  0  0  0  0  0999 V2000
   -5.8318    2.5122   -2.6581 C   0  0  0  0  0  0  0  0  0  0  0  0
   -5.5464    2.1656   -1.3105 O   0  0  0  0  0  0  0  0  0  0  0  0
   -4.3709    1.5032   -1.0593 C   0  0  0  0  0  0  0  0  0  0  0  0
   -3.3758    1.2712   -2.0132 C   0  0  0  0  0  0  0  0  0  0  0  0
   -2.2046    0.5917   -1.6652 C   0  0  0  0  0  0  0  0  0  0  0  0
   -2.0170    0.1266   -0.3611 C   0  0  0  0  0  0  0  0  0  0  0  0
   -0.7823   -0.5587    0.0485 C   0  0  0  0  0  0  0  0  0  0  0  0
   -0.2493   -1.6538   -0.5292 C   0  0  0  0  0  0  0  0  0  0  0  0
   -0.8428   -2.3609   -1.6110 C   0  0  0  0  0  0  0  0  0  0  0  0
   -1.3244   -2.8887   -2.5259 N   0  0  0  0  0  0  0  0  0  0  0  0
    0.9979   -2.2267    0.0584 C   0  0  0  0  0  0  0  0  0  0  0  0
    1.0330   -3.4136    0.3541 O   0  0  0  0  0  0  0  0  0  0  0  0
    2.0212   -1.3001    0.1757 N   0  0  0  0  0  0  0  0  0  0  0  0
    3.3219   -1.4969    0.7171 C   0  0  0  0  0  0  0  0  0  0  0  0
    3.7011   -2.7232    1.2733 C   0  0  0  0  0  0  0  0  0  0  0  0
    4.9737   -2.8968    1.8061 C   0  0  0  0  0  0  0  0  0  0  0  0
    5.8804   -1.8427    1.7903 C   0  0  0  0  0  0  0  0  0  0  0  0
    5.5531   -0.6103    1.2539 C   0  0  0  0  0  0  0  0  0  0  0  0
    6.5001    0.3430    1.2892 N   0  0  0  0  0  0  0  0  0  0  0  0
    6.2144    1.5536    0.7734 C   0  0  0  0  0  0  0  0  0  0  0  0
    4.9992    1.8698    0.2100 C   0  0  0  0  0  0  0  0  0  0  0  0
    4.0197    0.8810    0.1759 C   0  0  0  0  0  0  0  0  0  0  0  0
    4.2620   -0.4128    0.7039 C   0  0  0  0  0  0  0  0  0  0  0  0
   -3.0062    0.3711    0.6012 C   0  0  0  0  0  0  0  0  0  0  0  0
   -4.1840    1.0497    0.2613 C   0  0  0  0  0  0  0  0  0  0  0  0
   -5.1991    1.3281    1.1432 O   0  0  0  0  0  0  0  0  0  0  0  0
   -5.1330    0.7414    2.4349 C   0  0  0  0  0  0  0  0  0  0  0  0
   -5.1201    3.2555   -3.0316 H   0  0  0  0  0  0  0  0  0  0  0  0
   -6.8278    2.9648   -2.6833 H   0  0  0  0  0  0  0  0  0  0  0  0
   -5.8533    1.6258   -3.3008 H   0  0  0  0  0  0  0  0  0  0  0  0
   -3.4783    1.6109   -3.0386 H   0  0  0  0  0  0  0  0  0  0  0  0
   -1.4483    0.4396   -2.4323 H   0  0  0  0  0  0  0  0  0  0  0  0
   -0.3157   -0.1290    0.9346 H   0  0  0  0  0  0  0  0  0  0  0  0
    1.8351   -0.3821   -0.1987 H   0  0  0  0  0  0  0  0  0  0  0  0
    3.0299   -3.5750    1.3139 H   0  0  0  0  0  0  0  0  0  0  0  0
    5.2591   -3.8544    2.2345 H   0  0  0  0  0  0  0  0  0  0  0  0
    6.8738   -1.9876    2.2097 H   0  0  0  0  0  0  0  0  0  0  0  0
    7.0177    2.2826    0.8286 H   0  0  0  0  0  0  0  0  0  0  0  0
    4.8163    2.8590   -0.1942 H   0  0  0  0  0  0  0  0  0  0  0  0
    3.0707    1.1485   -0.2744 H   0  0  0  0  0  0  0  0  0  0  0  0
   -2.8430    0.0215    1.6158 H   0  0  0  0  0  0  0  0  0  0  0  0
   -4.2958    1.1512    3.0090 H   0  0  0  0  0  0  0  0  0  0  0  0
   -5.0752   -0.3505    2.3739 H   0  0  0  0  0  0  0  0  0  0  0  0
   -6.0554    0.9961    2.9657 H   0  0  0  0  0  0  0  0  0  0  0  0
  1  2  1  0
  2  3  1  0
  3  4  2  0
  4  5  1  0
  5  6  2  0
  6  7  1  0
  7  8  2  3
  8  9  1  0
  9 10  3  0
  8 11  1  0
 11 12  2  0
 11 13  1  0
 13 14  1  0
 14 15  2  0
 15 16  1  0
 16 17  2  0
 17 18  1  0
 18 19  2  0
 19 20  1  0
 20 21  2  0
 21 22  1  0
 22 23  2  0
  6 24  1  0
 24 25  2  0
 25 26  1  0
 26 27  1  0
 25  3  1  0
 23 14  1  0
 23 18  1  0
  1 28  1  0
  1 29  1  0
  1 30  1  0
  4 31  1  0
  5 32  1  0
  7 33  1  0
 13 34  1  0
 15 35  1  0
 16 36  1  0
 17 37  1  0
 20 38  1  0
 21 39  1  0
 22 40  1  0
 24 41  1  0
 27 42  1  0
 27 43  1  0
 27 44  1  0
M  END
$$$$
