
     RDKit          3D

 40 42  0  0  0  0  0  0  0  0999 V2000
    0.9031   -2.0091   -2.2037 O   0  0  0  0  0  0  0  0  0  0  0  0
    1.4229   -2.0170   -1.0906 C   0  0  0  0  0  0  0  0  0  0  0  0
    2.9278   -2.0393   -0.8923 C   0  0  0  0  0  0  0  0  0  0  0  0
    3.4606   -0.7552   -0.3032 C   0  0  0  0  0  0  0  0  0  0  0  0
    4.0897   -0.7504    0.9492 C   0  0  0  0  0  0  0  0  0  0  0  0
    4.5705    0.4418    1.4931 C   0  0  0  0  0  0  0  0  0  0  0  0
    4.4300    1.6375    0.7909 C   0  0  0  0  0  0  0  0  0  0  0  0
    3.8110    1.6429   -0.4574 C   0  0  0  0  0  0  0  0  0  0  0  0
    3.3300    0.4526   -1.0038 C   0  0  0  0  0  0  0  0  0  0  0  0
    0.6954   -2.0207    0.0824 N   0  0  0  0  0  0  0  0  0  0  0  0
   -0.7443   -1.7906    0.0500 C   0  0  0  0  0  0  0  0  0  0  0  0
   -1.0828   -0.2913   -0.1183 C   0  0  0  0  0  0  0  0  0  0  0  0
   -0.4892    0.3705    1.0264 O   0  0  0  0  0  0  0  0  0  0  0  0
   -0.8867    1.7363    1.1123 C   0  0  0  0  0  0  0  0  0  0  0  0
   -2.3591    1.7974    1.4935 C   0  0  0  0  0  0  0  0  0  0  0  0
   -3.1845    0.9966    0.5202 C   0  0  0  0  0  0  0  0  0  0  0  0
   -4.5591    1.2433    0.4006 C   0  0  0  0  0  0  0  0  0  0  0  0
   -5.3279    0.5144   -0.5039 C   0  0  0  0  0  0  0  0  0  0  0  0
   -4.7291   -0.4613   -1.2953 C   0  0  0  0  0  0  0  0  0  0  0  0
   -3.3634   -0.7231   -1.1712 C   0  0  0  0  0  0  0  0  0  0  0  0
   -2.5780   -0.0216   -0.2419 C   0  0  0  0  0  0  0  0  0  0  0  0
    3.4096   -2.2195   -1.8607 H   0  0  0  0  0  0  0  0  0  0  0  0
    3.1765   -2.8979   -0.2568 H   0  0  0  0  0  0  0  0  0  0  0  0
    4.2118   -1.6735    1.5114 H   0  0  0  0  0  0  0  0  0  0  0  0
    5.0567    0.4381    2.4652 H   0  0  0  0  0  0  0  0  0  0  0  0
    4.8055    2.5648    1.2153 H   0  0  0  0  0  0  0  0  0  0  0  0
    3.7033    2.5742   -1.0073 H   0  0  0  0  0  0  0  0  0  0  0  0
    2.8485    0.4725   -1.9803 H   0  0  0  0  0  0  0  0  0  0  0  0
    1.1669   -1.6609    0.9055 H   0  0  0  0  0  0  0  0  0  0  0  0
   -1.1343   -2.1629    1.0042 H   0  0  0  0  0  0  0  0  0  0  0  0
   -1.1670   -2.3996   -0.7549 H   0  0  0  0  0  0  0  0  0  0  0  0
   -0.5896    0.1075   -1.0143 H   0  0  0  0  0  0  0  0  0  0  0  0
   -0.2815    2.2160    1.8881 H   0  0  0  0  0  0  0  0  0  0  0  0
   -0.6801    2.2481    0.1641 H   0  0  0  0  0  0  0  0  0  0  0  0
   -2.6885    2.8420    1.5128 H   0  0  0  0  0  0  0  0  0  0  0  0
   -2.5039    1.3655    2.4911 H   0  0  0  0  0  0  0  0  0  0  0  0
   -5.0345    2.0108    1.0069 H   0  0  0  0  0  0  0  0  0  0  0  0
   -6.3919    0.7143   -0.5987 H   0  0  0  0  0  0  0  0  0  0  0  0
   -5.3244   -1.0180   -2.0147 H   0  0  0  0  0  0  0  0  0  0  0  0
   -2.9198   -1.4753   -1.8203 H   0  0  0  0  0  0  0  0  0  0  0  0
  1  2  2  0
  2  3  1  0
  3  4  1  0
  4  5  2  0
  5  6  1  0
  6  7  2  0
  7  8  1  0
  8  9  2  0
  2 10  1  0
 10 11  1  0
 11 12  1  0
 12 13  1  0
 13 14  1  0
 14 15  1  0
 15 16  1  0
 16 17  2  0
 17 18  1  0
 18 19  2  0
 19 20  1  0
 20 21  2  0
  9  4  1  0
 21 12  1  0
 21 16  1  0
  3 22  1  0
  3 23  1  0
  5 24  1  0
  6 25  1  0
  7 26  1  0
  8 27  1  0
  9 28  1  0
 10 29  1  0
 11 30  1  0
 11 31  1  0
 12 32  1  0
 14 33  1  0
 14 34  1  0
 15 35  1  0
 15 36  1  0
 17 37  1  0
 18 38  1  0
 19 39  1  0
 20 40  1  0
M  END
$$$$
