
     RDKit          3D

102102  0  0  0  0  0  0  0  0999 V2000
   -4.4957    3.9383    1.0434 C   0  0  0  0  0  0  0  0  0  0  0  0
   -4.5197    2.6740    0.1739 C   0  0  0  0  0  0  0  0  0  0  0  0
   -5.8134    1.9072    0.4394 C   0  0  0  0  0  0  0  0  0  0  0  0
   -3.2458    1.8254    0.4043 C   0  0  0  0  0  0  0  0  0  0  0  0
   -2.1237    2.6822    0.0980 O   0  0  0  0  0  0  0  0  0  0  0  0
   -0.8962    2.1670    0.4190 C   0  0  0  0  0  0  0  0  0  0  0  0
   -0.7426    1.1552    1.0844 O   0  0  0  0  0  0  0  0  0  0  0  0
    0.1997    3.0286   -0.2470 C   0  0  0  0  0  0  0  0  0  0  0  0
    0.2108    4.5141    0.2202 C   0  0  0  0  0  0  0  0  0  0  0  0
    1.2318    5.3355   -0.5717 C   0  0  0  0  0  0  0  0  0  0  0  0
    0.3790    4.7670    1.7185 C   0  0  0  0  0  0  0  0  0  0  0  0
    1.5172    2.3534   -0.3901 N   0  0  0  0  0  0  0  0  0  0  0  0
    1.7666    1.8194   -1.7243 C   0  0  0  0  0  0  0  0  0  0  0  0
    2.2381    2.0108    0.7479 C   0  0  0  0  0  0  0  0  0  0  0  0
    1.8497    2.3605    1.8694 O   0  0  0  0  0  0  0  0  0  0  0  0
    3.5804    1.2230    0.6696 C   0  0  0  0  0  0  0  0  0  0  0  0
    4.8376    2.0996    0.4597 C   0  0  0  0  0  0  0  0  0  0  0  0
    4.9626    3.1836    1.5294 C   0  0  0  0  0  0  0  0  0  0  0  0
    4.9645    2.7223   -0.9279 C   0  0  0  0  0  0  0  0  0  0  0  0
    3.5692    0.1650   -0.2955 O   0  0  0  0  0  0  0  0  0  0  0  0
    3.5477   -1.1170    0.1657 C   0  0  0  0  0  0  0  0  0  0  0  0
    3.8056   -1.4612    1.3137 O   0  0  0  0  0  0  0  0  0  0  0  0
    3.1225   -2.0713   -0.9711 C   0  0  0  0  0  0  0  0  0  0  0  0
    4.3336   -2.7657   -1.6340 C   0  0  0  0  0  0  0  0  0  0  0  0
    5.3949   -1.7494   -2.0804 C   0  0  0  0  0  0  0  0  0  0  0  0
    3.8823   -3.5658   -2.8672 C   0  0  0  0  0  0  0  0  0  0  0  0
    2.0812   -2.9762   -0.4085 N   0  0  0  0  0  0  0  0  0  0  0  0
    2.5111   -4.2062    0.2623 C   0  0  0  0  0  0  0  0  0  0  0  0
    0.8333   -2.3760   -0.2080 C   0  0  0  0  0  0  0  0  0  0  0  0
    0.5958   -1.2621   -0.6851 O   0  0  0  0  0  0  0  0  0  0  0  0
   -0.2657   -3.1160    0.5950 C   0  0  0  0  0  0  0  0  0  0  0  0
    0.0453   -3.1630    2.1120 C   0  0  0  0  0  0  0  0  0  0  0  0
   -0.7762   -4.2749    2.7800 C   0  0  0  0  0  0  0  0  0  0  0  0
   -0.2062   -1.8365    2.8280 C   0  0  0  0  0  0  0  0  0  0  0  0
   -1.5517   -2.4906    0.4052 O   0  0  0  0  0  0  0  0  0  0  0  0
   -2.0702   -2.6052   -0.8518 C   0  0  0  0  0  0  0  0  0  0  0  0
   -1.5932   -3.3448   -1.7087 O   0  0  0  0  0  0  0  0  0  0  0  0
   -3.3879   -1.8091   -1.0475 C   0  0  0  0  0  0  0  0  0  0  0  0
   -4.6219   -2.7602   -1.0552 C   0  0  0  0  0  0  0  0  0  0  0  0
   -4.5844   -3.7371   -2.2417 C   0  0  0  0  0  0  0  0  0  0  0  0
   -5.9436   -1.9878   -1.1201 C   0  0  0  0  0  0  0  0  0  0  0  0
   -3.5562   -0.6593   -0.1083 N   0  0  0  0  0  0  0  0  0  0  0  0
   -3.7505   -0.9336    1.3083 C   0  0  0  0  0  0  0  0  0  0  0  0
   -3.1910    0.6113   -0.5683 C   0  0  0  0  0  0  0  0  0  0  0  0
   -2.8583    0.7981   -1.7440 O   0  0  0  0  0  0  0  0  0  0  0  0
   -5.4195    4.5185    0.9276 H   0  0  0  0  0  0  0  0  0  0  0  0
   -4.3888    3.6823    2.1050 H   0  0  0  0  0  0  0  0  0  0  0  0
   -3.6653    4.5953    0.7607 H   0  0  0  0  0  0  0  0  0  0  0  0
   -4.5314    3.0045   -0.8729 H   0  0  0  0  0  0  0  0  0  0  0  0
   -5.8671    1.5399    1.4670 H   0  0  0  0  0  0  0  0  0  0  0  0
   -6.6807    2.5576    0.2779 H   0  0  0  0  0  0  0  0  0  0  0  0
   -5.9141    1.0575   -0.2380 H   0  0  0  0  0  0  0  0  0  0  0  0
   -3.1828    1.5271    1.4546 H   0  0  0  0  0  0  0  0  0  0  0  0
   -0.1660    3.0896   -1.2880 H   0  0  0  0  0  0  0  0  0  0  0  0
   -0.7787    4.9242   -0.0297 H   0  0  0  0  0  0  0  0  0  0  0  0
    1.1196    5.1773   -1.6511 H   0  0  0  0  0  0  0  0  0  0  0  0
    1.0989    6.4024   -0.3742 H   0  0  0  0  0  0  0  0  0  0  0  0
    2.2560    5.0712   -0.2932 H   0  0  0  0  0  0  0  0  0  0  0  0
    1.4199    4.6757    2.0377 H   0  0  0  0  0  0  0  0  0  0  0  0
    0.0724    5.7928    1.9608 H   0  0  0  0  0  0  0  0  0  0  0  0
   -0.2396    4.0928    2.3195 H   0  0  0  0  0  0  0  0  0  0  0  0
    2.7853    1.4840   -1.8766 H   0  0  0  0  0  0  0  0  0  0  0  0
    1.5816    2.6033   -2.4654 H   0  0  0  0  0  0  0  0  0  0  0  0
    1.0834    0.9872   -1.9120 H   0  0  0  0  0  0  0  0  0  0  0  0
    3.6811    0.7825    1.6728 H   0  0  0  0  0  0  0  0  0  0  0  0
    5.7077    1.4345    0.5700 H   0  0  0  0  0  0  0  0  0  0  0  0
    4.1922    3.9586    1.4285 H   0  0  0  0  0  0  0  0  0  0  0  0
    4.8808    2.7576    2.5356 H   0  0  0  0  0  0  0  0  0  0  0  0
    5.9334    3.6807    1.4549 H   0  0  0  0  0  0  0  0  0  0  0  0
    4.9909    1.9492   -1.7014 H   0  0  0  0  0  0  0  0  0  0  0  0
    4.1430    3.4109   -1.1359 H   0  0  0  0  0  0  0  0  0  0  0  0
    5.8964    3.2943   -1.0107 H   0  0  0  0  0  0  0  0  0  0  0  0
    2.6289   -1.4614   -1.7405 H   0  0  0  0  0  0  0  0  0  0  0  0
    4.8235   -3.4438   -0.9246 H   0  0  0  0  0  0  0  0  0  0  0  0
    4.9637   -0.9804   -2.7320 H   0  0  0  0  0  0  0  0  0  0  0  0
    6.1981   -2.2473   -2.6366 H   0  0  0  0  0  0  0  0  0  0  0  0
    5.8586   -1.2472   -1.2242 H   0  0  0  0  0  0  0  0  0  0  0  0
    3.4766   -2.9020   -3.6395 H   0  0  0  0  0  0  0  0  0  0  0  0
    4.7325   -4.1059   -3.3032 H   0  0  0  0  0  0  0  0  0  0  0  0
    3.1062   -4.3019   -2.6257 H   0  0  0  0  0  0  0  0  0  0  0  0
    1.6580   -4.8225    0.5558 H   0  0  0  0  0  0  0  0  0  0  0  0
    3.1276   -4.8120   -0.4108 H   0  0  0  0  0  0  0  0  0  0  0  0
    3.0899   -3.9501    1.1523 H   0  0  0  0  0  0  0  0  0  0  0  0
   -0.3328   -4.1438    0.2102 H   0  0  0  0  0  0  0  0  0  0  0  0
    1.1024   -3.4045    2.2714 H   0  0  0  0  0  0  0  0  0  0  0  0
   -0.4798   -5.2526    2.3746 H   0  0  0  0  0  0  0  0  0  0  0  0
   -0.5991   -4.2981    3.8619 H   0  0  0  0  0  0  0  0  0  0  0  0
   -1.8514   -4.1519    2.6013 H   0  0  0  0  0  0  0  0  0  0  0  0
    0.2437   -0.9888    2.3042 H   0  0  0  0  0  0  0  0  0  0  0  0
   -1.2743   -1.6361    2.9426 H   0  0  0  0  0  0  0  0  0  0  0  0
    0.2169   -1.8665    3.8404 H   0  0  0  0  0  0  0  0  0  0  0  0
   -3.2987   -1.3932   -2.0581 H   0  0  0  0  0  0  0  0  0  0  0  0
   -4.6231   -3.3678   -0.1398 H   0  0  0  0  0  0  0  0  0  0  0  0
   -4.4650   -3.2008   -3.1907 H   0  0  0  0  0  0  0  0  0  0  0  0
   -3.7694   -4.4613   -2.1482 H   0  0  0  0  0  0  0  0  0  0  0  0
   -5.5112   -4.3183   -2.2927 H   0  0  0  0  0  0  0  0  0  0  0  0
   -6.1176   -1.4099   -0.2114 H   0  0  0  0  0  0  0  0  0  0  0  0
   -6.7931   -2.6766   -1.2122 H   0  0  0  0  0  0  0  0  0  0  0  0
   -5.9707   -1.2993   -1.9696 H   0  0  0  0  0  0  0  0  0  0  0  0
   -3.9607   -1.9881    1.4895 H   0  0  0  0  0  0  0  0  0  0  0  0
   -4.5957   -0.3514    1.6778 H   0  0  0  0  0  0  0  0  0  0  0  0
   -2.8589   -0.6407    1.8632 H   0  0  0  0  0  0  0  0  0  0  0  0
  1  2  1  0
  2  3  1  0
  2  4  1  0
  4  5  1  0
  5  6  1  0
  6  7  2  0
  6  8  1  0
  8  9  1  0
  9 10  1  0
  9 11  1  0
  8 12  1  0
 12 13  1  0
 12 14  1  0
 14 15  2  0
 14 16  1  0
 16 17  1  0
 17 18  1  0
 17 19  1  0
 16 20  1  0
 20 21  1  0
 21 22  2  0
 21 23  1  0
 23 24  1  0
 24 25  1  0
 24 26  1  0
 23 27  1  0
 27 28  1  0
 27 29  1  0
 29 30  2  0
 29 31  1  0
 31 32  1  0
 32 33  1  0
 32 34  1  0
 31 35  1  0
 35 36  1  0
 36 37  2  0
 36 38  1  0
 38 39  1  0
 39 40  1  0
 39 41  1  0
 38 42  1  0
 42 43  1  0
 42 44  1  0
 44 45  2  0
 44  4  1  0
  1 46  1  0
  1 47  1  0
  1 48  1  0
  2 49  1  0
  3 50  1  0
  3 51  1  0
  3 52  1  0
  4 53  1  0
  8 54  1  0
  9 55  1  0
 10 56  1  0
 10 57  1  0
 10 58  1  0
 11 59  1  0
 11 60  1  0
 11 61  1  0
 13 62  1  0
 13 63  1  0
 13 64  1  0
 16 65  1  0
 17 66  1  0
 18 67  1  0
 18 68  1  0
 18 69  1  0
 19 70  1  0
 19 71  1  0
 19 72  1  0
 23 73  1  0
 24 74  1  0
 25 75  1  0
 25 76  1  0
 25 77  1  0
 26 78  1  0
 26 79  1  0
 26 80  1  0
 28 81  1  0
 28 82  1  0
 28 83  1  0
 31 84  1  0
 32 85  1  0
 33 86  1  0
 33 87  1  0
 33 88  1  0
 34 89  1  0
 34 90  1  0
 34 91  1  0
 38 92  1  0
 39 93  1  0
 40 94  1  0
 40 95  1  0
 40 96  1  0
 41 97  1  0
 41 98  1  0
 41 99  1  0
 43100  1  0
 43101  1  0
 43102  1  0
M  END
$$$$
