
     RDKit          3D

 38 38  0  0  0  0  0  0  0  0999 V2000
    5.4704    1.7409    3.7734 C   0  0  0  0  0  0  0  0  0  0  0  0
    5.7339    1.0775    2.5446 O   0  0  0  0  0  0  0  0  0  0  0  0
    4.5523    0.5799    1.9123 C   0  0  0  0  0  0  0  0  0  0  0  0
    3.9089    1.6484    1.0216 C   0  0  0  0  0  0  0  0  0  0  0  0
    2.5943    1.2764    0.5263 N   0  0  0  0  0  0  0  0  0  0  0  0
    2.4428    0.3152   -0.4506 C   0  0  0  0  0  0  0  0  0  0  0  0
    3.3744   -0.3328   -0.9108 O   0  0  0  0  0  0  0  0  0  0  0  0
    1.0522    0.1356   -0.9519 C   0  0  0  0  0  0  0  0  0  0  0  0
    0.8779    0.0336   -2.3607 C   0  0  0  0  0  0  0  0  0  0  0  0
    0.6989   -0.0275   -3.5066 N   0  0  0  0  0  0  0  0  0  0  0  0
    0.0452    0.0347   -0.0607 C   0  0  0  0  0  0  0  0  0  0  0  0
   -1.3702   -0.1538   -0.3612 C   0  0  0  0  0  0  0  0  0  0  0  0
   -2.2621    0.9346    0.1787 C   0  0  0  0  0  0  0  0  0  0  0  0
   -1.7959   -1.2362   -1.0409 C   0  0  0  0  0  0  0  0  0  0  0  0
   -3.1909   -1.5077   -1.3929 C   0  0  0  0  0  0  0  0  0  0  0  0
   -3.6541   -1.1971   -2.6755 C   0  0  0  0  0  0  0  0  0  0  0  0
   -4.9830   -1.4489   -3.0205 C   0  0  0  0  0  0  0  0  0  0  0  0
   -5.8520   -2.0122   -2.0866 C   0  0  0  0  0  0  0  0  0  0  0  0
   -5.3939   -2.3259   -0.8072 C   0  0  0  0  0  0  0  0  0  0  0  0
   -4.0651   -2.0751   -0.4597 C   0  0  0  0  0  0  0  0  0  0  0  0
    5.0257    1.0472    4.4934 H   0  0  0  0  0  0  0  0  0  0  0  0
    6.4199    2.0995    4.1797 H   0  0  0  0  0  0  0  0  0  0  0  0
    4.8111    2.6001    3.6235 H   0  0  0  0  0  0  0  0  0  0  0  0
    3.8445    0.2038    2.6612 H   0  0  0  0  0  0  0  0  0  0  0  0
    4.8520   -0.2777    1.3009 H   0  0  0  0  0  0  0  0  0  0  0  0
    4.5623    1.8637    0.1679 H   0  0  0  0  0  0  0  0  0  0  0  0
    3.7873    2.5880    1.5698 H   0  0  0  0  0  0  0  0  0  0  0  0
    1.8208    1.8917    0.7434 H   0  0  0  0  0  0  0  0  0  0  0  0
    0.2581    0.1065    1.0057 H   0  0  0  0  0  0  0  0  0  0  0  0
   -1.9399    1.9118   -0.1986 H   0  0  0  0  0  0  0  0  0  0  0  0
   -2.2173    0.9568    1.2731 H   0  0  0  0  0  0  0  0  0  0  0  0
   -3.3114    0.8141   -0.1044 H   0  0  0  0  0  0  0  0  0  0  0  0
   -1.1008   -1.9966   -1.3931 H   0  0  0  0  0  0  0  0  0  0  0  0
   -2.9835   -0.7583   -3.4118 H   0  0  0  0  0  0  0  0  0  0  0  0
   -5.3385   -1.2070   -4.0188 H   0  0  0  0  0  0  0  0  0  0  0  0
   -6.8861   -2.2094   -2.3574 H   0  0  0  0  0  0  0  0  0  0  0  0
   -6.0708   -2.7682   -0.0810 H   0  0  0  0  0  0  0  0  0  0  0  0
   -3.7171   -2.3257    0.5392 H   0  0  0  0  0  0  0  0  0  0  0  0
  1  2  1  0
  2  3  1  0
  3  4  1  0
  4  5  1  0
  5  6  1  0
  6  7  2  0
  6  8  1  0
  8  9  1  0
  9 10  3  0
  8 11  2  3
 11 12  1  0
 12 13  1  0
 12 14  2  3
 14 15  1  0
 15 16  2  0
 16 17  1  0
 17 18  2  0
 18 19  1  0
 19 20  2  0
 20 15  1  0
  1 21  1  0
  1 22  1  0
  1 23  1  0
  3 24  1  0
  3 25  1  0
  4 26  1  0
  4 27  1  0
  5 28  1  0
 11 29  1  0
 13 30  1  0
 13 31  1  0
 13 32  1  0
 14 33  1  0
 16 34  1  0
 17 35  1  0
 18 36  1  0
 19 37  1  0
 20 38  1  0
M  END
$$$$
