
     RDKit          3D

 49 53  0  0  0  0  0  0  0  0999 V2000
   -0.9176    3.4561    0.2362 O   0  0  0  0  0  0  0  0  0  0  0  0
   -0.8208    2.2277    0.1978 C   0  0  0  0  0  0  0  0  0  0  0  0
   -2.0024    1.3971    0.0426 C   0  0  0  0  0  0  0  0  0  0  0  0
   -3.3285    1.6809    0.3177 C   0  0  0  0  0  0  0  0  0  0  0  0
   -4.0965    0.5485   -0.0727 C   0  0  0  0  0  0  0  0  0  0  0  0
   -3.1770   -0.3531   -0.5928 C   0  0  0  0  0  0  0  0  0  0  0  0
   -3.5050   -1.6054   -1.1031 C   0  0  0  0  0  0  0  0  0  0  0  0
   -4.8588   -1.9591   -1.0790 C   0  0  0  0  0  0  0  0  0  0  0  0
   -5.8401   -1.0932   -0.5676 C   0  0  0  0  0  0  0  0  0  0  0  0
   -7.1957   -1.4548   -0.5487 C   0  0  0  0  0  0  0  0  0  0  0  0
   -8.1627   -0.5834   -0.0393 C   0  0  0  0  0  0  0  0  0  0  0  0
   -7.7928    0.6640    0.4596 C   0  0  0  0  0  0  0  0  0  0  0  0
   -6.4526    1.0496    0.4535 C   0  0  0  0  0  0  0  0  0  0  0  0
   -5.4689    0.1789   -0.0570 C   0  0  0  0  0  0  0  0  0  0  0  0
   -1.9183    0.1594   -0.5368 O   0  0  0  0  0  0  0  0  0  0  0  0
    0.4369    1.6110    0.2787 N   0  0  0  0  0  0  0  0  0  0  0  0
    1.6045    2.5010    0.3287 C   0  0  0  0  0  0  0  0  0  0  0  0
    2.9061    1.7862   -0.0761 C   0  0  0  0  0  0  0  0  0  0  0  0
    3.0860    0.5644    0.7415 N   0  0  0  0  0  0  0  0  0  0  0  0
    4.3112   -0.0897    0.4833 C   0  0  0  0  0  0  0  0  0  0  0  0
    4.8956    0.0828   -0.7289 N   0  0  0  0  0  0  0  0  0  0  0  0
    6.0654   -0.5497   -0.9852 C   0  0  0  0  0  0  0  0  0  0  0  0
    6.7152   -1.3754   -0.0840 C   0  0  0  0  0  0  0  0  0  0  0  0
    8.0180   -2.0132   -0.4492 C   0  0  0  0  0  0  0  0  0  0  0  0
    9.0774   -1.1897   -0.2271 F   0  0  0  0  0  0  0  0  0  0  0  0
    8.0861   -2.3672   -1.7619 F   0  0  0  0  0  0  0  0  0  0  0  0
    8.2714   -3.1501    0.2557 F   0  0  0  0  0  0  0  0  0  0  0  0
    6.1262   -1.5405    1.1706 C   0  0  0  0  0  0  0  0  0  0  0  0
    4.9202   -0.8986    1.4614 C   0  0  0  0  0  0  0  0  0  0  0  0
    4.2637   -1.1023    3.0486 Cl  0  0  0  0  0  0  0  0  0  0  0  0
    1.9465   -0.3663    0.5677 C   0  0  0  0  0  0  0  0  0  0  0  0
    0.6357    0.3306    0.9791 C   0  0  0  0  0  0  0  0  0  0  0  0
   -3.6870    2.6055    0.7485 H   0  0  0  0  0  0  0  0  0  0  0  0
   -2.7469   -2.2689   -1.5010 H   0  0  0  0  0  0  0  0  0  0  0  0
   -5.1451   -2.9331   -1.4726 H   0  0  0  0  0  0  0  0  0  0  0  0
   -7.5131   -2.4219   -0.9329 H   0  0  0  0  0  0  0  0  0  0  0  0
   -9.2086   -0.8805   -0.0335 H   0  0  0  0  0  0  0  0  0  0  0  0
   -8.5495    1.3379    0.8534 H   0  0  0  0  0  0  0  0  0  0  0  0
   -6.1829    2.0266    0.8458 H   0  0  0  0  0  0  0  0  0  0  0  0
    1.4441    3.3604   -0.3322 H   0  0  0  0  0  0  0  0  0  0  0  0
    1.6816    2.8799    1.3556 H   0  0  0  0  0  0  0  0  0  0  0  0
    3.7463    2.4748    0.0763 H   0  0  0  0  0  0  0  0  0  0  0  0
    2.8501    1.5364   -1.1443 H   0  0  0  0  0  0  0  0  0  0  0  0
    6.4720   -0.3600   -1.9773 H   0  0  0  0  0  0  0  0  0  0  0  0
    6.6081   -2.1608    1.9240 H   0  0  0  0  0  0  0  0  0  0  0  0
    1.8757   -0.6832   -0.4818 H   0  0  0  0  0  0  0  0  0  0  0  0
    2.0632   -1.2677    1.1794 H   0  0  0  0  0  0  0  0  0  0  0  0
    0.6606    0.5644    2.0514 H   0  0  0  0  0  0  0  0  0  0  0  0
   -0.1968   -0.3565    0.8328 H   0  0  0  0  0  0  0  0  0  0  0  0
  1  2  2  0
  2  3  1  0
  3  4  2  0
  4  5  1  0
  5  6  2  0
  6  7  1  0
  7  8  2  0
  8  9  1  0
  9 10  2  0
 10 11  1  0
 11 12  2  0
 12 13  1  0
 13 14  2  0
  6 15  1  0
  2 16  1  0
 16 17  1  0
 17 18  1  0
 18 19  1  0
 19 20  1  0
 20 21  2  0
 21 22  1  0
 22 23  2  0
 23 24  1  0
 24 25  1  0
 24 26  1  0
 24 27  1  0
 23 28  1  0
 28 29  2  0
 29 30  1  0
 19 31  1  0
 31 32  1  0
 15  3  1  0
 32 16  1  0
 14  5  1  0
 29 20  1  0
 14  9  1  0
  4 33  1  0
  7 34  1  0
  8 35  1  0
 10 36  1  0
 11 37  1  0
 12 38  1  0
 13 39  1  0
 17 40  1  0
 17 41  1  0
 18 42  1  0
 18 43  1  0
 22 44  1  0
 28 45  1  0
 31 46  1  0
 31 47  1  0
 32 48  1  0
 32 49  1  0
M  END
$$$$
