
     RDKit          3D

 37 39  0  0  0  0  0  0  0  0999 V2000
    5.8284   -0.4988    2.3333 O   0  0  0  0  0  0  0  0  0  0  0  0
    5.8162    0.8218    1.7996 C   0  0  0  0  0  0  0  0  0  0  0  0
    5.2665    0.7973    0.3746 C   0  0  0  0  0  0  0  0  0  0  0  0
    3.8298    0.4128    0.3978 N   0  0  0  0  0  4  0  0  0  0  0  0
    3.4920   -0.8965    0.4638 C   0  0  0  0  0  0  0  0  0  0  0  0
    2.1574   -1.2849    0.4815 C   0  0  0  0  0  0  0  0  0  0  0  0
    1.1554   -0.3194    0.4168 C   0  0  0  0  0  0  0  0  0  0  0  0
   -0.2491   -0.7398    0.4625 C   0  0  0  0  0  0  0  0  0  0  0  0
   -1.2109   -0.2113   -0.3140 C   0  0  0  0  0  0  0  0  0  0  0  0
   -2.5924   -0.5846   -0.3135 C   0  0  0  0  0  0  0  0  0  0  0  0
   -3.1936   -1.4900    0.5350 C   0  0  0  0  0  0  0  0  0  0  0  0
   -4.5242   -1.5570    0.2100 N   0  0  0  0  0  0  0  0  0  0  0  0
   -4.8033   -0.7087   -0.8360 C   0  0  0  0  0  0  0  0  0  0  0  0
   -6.0168   -0.4555   -1.4870 C   0  0  0  0  0  0  0  0  0  0  0  0
   -6.0108    0.4684   -2.5350 C   0  0  0  0  0  0  0  0  0  0  0  0
   -4.8368    1.1121   -2.9154 C   0  0  0  0  0  0  0  0  0  0  0  0
   -3.6316    0.8476   -2.2537 C   0  0  0  0  0  0  0  0  0  0  0  0
   -3.6071   -0.0811   -1.1899 C   0  0  0  0  0  0  0  0  0  0  0  0
    1.5264    1.0234    0.3654 C   0  0  0  0  0  0  0  0  0  0  0  0
    2.8736    1.3673    0.3532 C   0  0  0  0  0  0  0  0  0  0  0  0
    6.2719   -0.4626    3.2044 H   0  0  0  0  0  0  0  0  0  0  0  0
    6.8433    1.1989    1.7956 H   0  0  0  0  0  0  0  0  0  0  0  0
    5.2035    1.4534    2.4501 H   0  0  0  0  0  0  0  0  0  0  0  0
    5.7846    0.0598   -0.2486 H   0  0  0  0  0  0  0  0  0  0  0  0
    5.3495    1.7797   -0.1013 H   0  0  0  0  0  0  0  0  0  0  0  0
    4.2987   -1.6234    0.5123 H   0  0  0  0  0  0  0  0  0  0  0  0
    1.9091   -2.3433    0.5385 H   0  0  0  0  0  0  0  0  0  0  0  0
   -0.4829   -1.5410    1.1599 H   0  0  0  0  0  0  0  0  0  0  0  0
   -0.9404    0.5636   -1.0277 H   0  0  0  0  0  0  0  0  0  0  0  0
   -2.8088   -2.0954    1.3438 H   0  0  0  0  0  0  0  0  0  0  0  0
   -5.2096   -2.1416    0.6688 H   0  0  0  0  0  0  0  0  0  0  0  0
   -6.9348   -0.9556   -1.1944 H   0  0  0  0  0  0  0  0  0  0  0  0
   -6.9382    0.6861   -3.0608 H   0  0  0  0  0  0  0  0  0  0  0  0
   -4.8560    1.8264   -3.7351 H   0  0  0  0  0  0  0  0  0  0  0  0
   -2.7266    1.3579   -2.5665 H   0  0  0  0  0  0  0  0  0  0  0  0
    0.7740    1.8097    0.3465 H   0  0  0  0  0  0  0  0  0  0  0  0
    3.1936    2.4044    0.3132 H   0  0  0  0  0  0  0  0  0  0  0  0
  1  2  1  0
  2  3  1  0
  3  4  1  0
  4  5  2  0
  5  6  1  0
  6  7  2  0
  7  8  1  0
  8  9  2  3
  9 10  1  0
 10 11  2  0
 11 12  1  0
 12 13  1  0
 13 14  2  0
 14 15  1  0
 15 16  2  0
 16 17  1  0
 17 18  2  0
  7 19  1  0
 19 20  2  0
 20  4  1  0
 18 10  1  0
 18 13  1  0
  1 21  1  0
  2 22  1  0
  2 23  1  0
  3 24  1  0
  3 25  1  0
  5 26  1  0
  6 27  1  0
  8 28  1  0
  9 29  1  0
 11 30  1  0
 12 31  1  0
 14 32  1  0
 15 33  1  0
 16 34  1  0
 17 35  1  0
 19 36  1  0
 20 37  1  0
M  CHG  1   4   1
M  END
$$$$
