
     RDKit          3D

 39 40  0  0  0  0  0  0  0  0999 V2000
   -3.1532    3.9867   -1.8175 C   0  0  0  0  0  0  0  0  0  0  0  0
   -2.7544    2.7336   -1.0865 C   0  0  0  0  0  0  0  0  0  0  0  0
   -3.4671    2.2404   -0.2198 O   0  0  0  0  0  0  0  0  0  0  0  0
   -1.5161    2.2713   -1.4376 N   0  0  0  0  0  0  0  0  0  0  0  0
   -1.3290    0.9932   -1.5945 C   0  0  0  0  0  0  0  0  0  0  0  0
   -2.3344   -0.1360   -1.5369 C   0  0  0  0  0  0  0  0  0  0  0  0
   -2.0161   -1.1358   -0.4513 C   0  0  0  0  0  0  0  0  0  0  0  0
   -2.3055   -0.8417    0.8877 C   0  0  0  0  0  0  0  0  0  0  0  0
   -1.9857   -1.7514    1.8964 C   0  0  0  0  0  0  0  0  0  0  0  0
   -1.3722   -2.9611    1.5775 C   0  0  0  0  0  0  0  0  0  0  0  0
   -1.0771   -3.2625    0.2495 C   0  0  0  0  0  0  0  0  0  0  0  0
   -1.3963   -2.3548   -0.7615 C   0  0  0  0  0  0  0  0  0  0  0  0
    0.0798    0.5454   -1.9288 C   0  0  0  0  0  0  0  0  0  0  0  0
    0.3845    0.1587   -3.0420 O   0  0  0  0  0  0  0  0  0  0  0  0
    0.8407    0.6096   -0.8238 O   0  0  0  0  0  0  0  0  0  0  0  0
    2.1654    0.1087   -1.0110 C   0  0  0  0  0  0  0  0  0  0  0  0
    2.8496    0.0037    0.3297 C   0  0  0  0  0  0  0  0  0  0  0  0
    4.1648    0.4597    0.4948 C   0  0  0  0  0  0  0  0  0  0  0  0
    4.8095    0.3330    1.7269 C   0  0  0  0  0  0  0  0  0  0  0  0
    4.1501   -0.2568    2.8037 C   0  0  0  0  0  0  0  0  0  0  0  0
    2.8466   -0.7235    2.6497 C   0  0  0  0  0  0  0  0  0  0  0  0
    2.2012   -0.5986    1.4188 C   0  0  0  0  0  0  0  0  0  0  0  0
   -3.0031    3.8541   -2.8924 H   0  0  0  0  0  0  0  0  0  0  0  0
   -2.5543    4.8270   -1.4583 H   0  0  0  0  0  0  0  0  0  0  0  0
   -4.2115    4.1953   -1.6387 H   0  0  0  0  0  0  0  0  0  0  0  0
   -2.3196   -0.6355   -2.5145 H   0  0  0  0  0  0  0  0  0  0  0  0
   -3.3607    0.2187   -1.4204 H   0  0  0  0  0  0  0  0  0  0  0  0
   -2.7840    0.0994    1.1555 H   0  0  0  0  0  0  0  0  0  0  0  0
   -2.2175   -1.5141    2.9317 H   0  0  0  0  0  0  0  0  0  0  0  0
   -1.1253   -3.6691    2.3643 H   0  0  0  0  0  0  0  0  0  0  0  0
   -0.5989   -4.2066    0.0009 H   0  0  0  0  0  0  0  0  0  0  0  0
   -1.1563   -2.6092   -1.7922 H   0  0  0  0  0  0  0  0  0  0  0  0
    2.7107    0.7991   -1.6653 H   0  0  0  0  0  0  0  0  0  0  0  0
    2.1442   -0.8877   -1.4697 H   0  0  0  0  0  0  0  0  0  0  0  0
    4.6979    0.9194   -0.3345 H   0  0  0  0  0  0  0  0  0  0  0  0
    5.8276    0.6943    1.8466 H   0  0  0  0  0  0  0  0  0  0  0  0
    4.6523   -0.3533    3.7626 H   0  0  0  0  0  0  0  0  0  0  0  0
    2.3300   -1.1846    3.4874 H   0  0  0  0  0  0  0  0  0  0  0  0
    1.1834   -0.9692    1.3134 H   0  0  0  0  0  0  0  0  0  0  0  0
  1  2  1  0
  2  3  2  0
  2  4  1  0
  4  5  2  3
  5  6  1  0
  6  7  1  0
  7  8  2  0
  8  9  1  0
  9 10  2  0
 10 11  1  0
 11 12  2  0
  5 13  1  0
 13 14  2  0
 13 15  1  0
 15 16  1  0
 16 17  1  0
 17 18  2  0
 18 19  1  0
 19 20  2  0
 20 21  1  0
 21 22  2  0
 12  7  1  0
 22 17  1  0
  1 23  1  0
  1 24  1  0
  1 25  1  0
  6 26  1  0
  6 27  1  0
  8 28  1  0
  9 29  1  0
 10 30  1  0
 11 31  1  0
 12 32  1  0
 16 33  1  0
 16 34  1  0
 18 35  1  0
 19 36  1  0
 20 37  1  0
 21 38  1  0
 22 39  1  0
M  END
$$$$
