
     RDKit          3D

 59 62  0  0  0  0  0  0  0  0999 V2000
    5.9057   -0.9789   -0.2154 C   0  0  0  0  0  0  0  0  0  0  0  0
    4.8545   -0.6999    0.8446 C   0  0  0  0  0  0  0  0  0  0  0  0
    4.3144   -1.8940    1.4005 O   0  0  0  0  0  0  0  0  0  0  0  0
    3.4718   -2.6603    0.5425 C   0  0  0  0  0  0  0  0  0  0  0  0
    2.1221   -1.9925    0.2925 C   0  0  0  0  0  0  0  0  0  0  0  0
    2.0025   -1.4928   -1.1493 C   0  0  0  0  0  0  0  0  0  0  0  0
    0.6879   -0.8578   -1.3661 N   0  0  0  0  0  0  0  0  0  0  0  0
   -0.3992   -1.6691   -1.7339 C   0  0  0  0  0  0  0  0  0  0  0  0
   -0.2092   -2.9441   -1.9176 N   0  0  0  0  0  0  0  0  0  0  0  0
   -1.7440   -1.0363   -1.9033 C   0  0  0  0  0  0  0  0  0  0  0  0
   -3.1776   -1.9363   -2.2290 S   0  0  0  0  0  6  0  0  0  0  0  0
   -2.8424   -3.2849   -2.6542 O   0  0  0  0  0  0  0  0  0  0  0  0
   -4.0948   -1.1377   -3.0221 O   0  0  0  0  0  0  0  0  0  0  0  0
   -3.8901   -2.0940   -0.6013 C   0  0  0  0  0  0  0  0  0  0  0  0
   -3.3236   -2.9908    0.3088 C   0  0  0  0  0  0  0  0  0  0  0  0
   -3.8774   -3.1154    1.5835 C   0  0  0  0  0  0  0  0  0  0  0  0
   -5.0042   -2.3650    1.9450 C   0  0  0  0  0  0  0  0  0  0  0  0
   -5.5826   -2.4787    3.3250 C   0  0  0  0  0  0  0  0  0  0  0  0
   -5.5601   -1.4704    1.0209 C   0  0  0  0  0  0  0  0  0  0  0  0
   -5.0120   -1.3380   -0.2557 C   0  0  0  0  0  0  0  0  0  0  0  0
   -1.8250    0.2915   -1.7173 C   0  0  0  0  0  0  0  0  0  0  0  0
   -0.6701    1.0960   -1.3479 C   0  0  0  0  0  0  0  0  0  0  0  0
   -0.8361    2.5609   -1.1333 C   0  0  0  0  0  0  0  0  0  0  0  0
   -1.9477    3.0745   -1.2750 O   0  0  0  0  0  0  0  0  0  0  0  0
    0.3037    3.2561   -0.7720 N   0  0  0  0  0  0  0  0  0  0  0  0
    0.2298    4.6289   -0.5589 C   0  0  0  0  0  0  0  0  0  0  0  0
    1.2997    5.3553   -0.1990 C   0  0  0  0  0  0  0  0  0  0  0  0
    1.2443    6.8329    0.0404 C   0  0  0  0  0  0  0  0  0  0  0  0
    2.5720    4.6910   -0.0281 C   0  0  0  0  0  0  0  0  0  0  0  0
    2.6859    3.3716   -0.2209 C   0  0  0  0  0  0  0  0  0  0  0  0
    1.4940    2.5729   -0.6190 C   0  0  0  0  0  0  0  0  0  0  0  0
    1.6351    1.2993   -0.7969 N   0  0  0  0  0  0  0  0  0  0  0  0
    0.5489    0.5385   -1.1671 C   0  0  0  0  0  0  0  0  0  0  0  0
    6.6481   -1.6940    0.1541 H   0  0  0  0  0  0  0  0  0  0  0  0
    5.4584   -1.4105   -1.1151 H   0  0  0  0  0  0  0  0  0  0  0  0
    6.4144   -0.0550   -0.5041 H   0  0  0  0  0  0  0  0  0  0  0  0
    5.3301   -0.1595    1.6698 H   0  0  0  0  0  0  0  0  0  0  0  0
    4.0608   -0.0519    0.4613 H   0  0  0  0  0  0  0  0  0  0  0  0
    3.9950   -2.9328   -0.3781 H   0  0  0  0  0  0  0  0  0  0  0  0
    3.2914   -3.5997    1.0773 H   0  0  0  0  0  0  0  0  0  0  0  0
    1.9499   -1.1744    1.0018 H   0  0  0  0  0  0  0  0  0  0  0  0
    1.3300   -2.7308    0.4681 H   0  0  0  0  0  0  0  0  0  0  0  0
    2.8132   -0.7934   -1.3829 H   0  0  0  0  0  0  0  0  0  0  0  0
    2.1507   -2.3240   -1.8507 H   0  0  0  0  0  0  0  0  0  0  0  0
   -1.0605   -3.4366   -2.2383 H   0  0  0  0  0  0  0  0  0  0  0  0
   -2.4595   -3.5949    0.0407 H   0  0  0  0  0  0  0  0  0  0  0  0
   -3.4290   -3.8078    2.2934 H   0  0  0  0  0  0  0  0  0  0  0  0
   -6.6706   -2.3575    3.2994 H   0  0  0  0  0  0  0  0  0  0  0  0
   -5.3761   -3.4623    3.7591 H   0  0  0  0  0  0  0  0  0  0  0  0
   -5.1541   -1.7093    3.9746 H   0  0  0  0  0  0  0  0  0  0  0  0
   -6.4303   -0.8751    1.2904 H   0  0  0  0  0  0  0  0  0  0  0  0
   -5.4667   -0.6491   -0.9640 H   0  0  0  0  0  0  0  0  0  0  0  0
   -2.7763    0.8132   -1.8150 H   0  0  0  0  0  0  0  0  0  0  0  0
   -0.7457    5.0900   -0.6975 H   0  0  0  0  0  0  0  0  0  0  0  0
    0.2383    7.2337   -0.1249 H   0  0  0  0  0  0  0  0  0  0  0  0
    1.5251    7.0666    1.0728 H   0  0  0  0  0  0  0  0  0  0  0  0
    1.9257    7.3601   -0.6357 H   0  0  0  0  0  0  0  0  0  0  0  0
    3.4374    5.2797    0.2616 H   0  0  0  0  0  0  0  0  0  0  0  0
    3.6239    2.8430   -0.0993 H   0  0  0  0  0  0  0  0  0  0  0  0
  1  2  1  0
  2  3  1  0
  3  4  1  0
  4  5  1  0
  5  6  1  0
  6  7  1  0
  7  8  1  0
  8  9  2  3
  8 10  1  0
 10 11  1  0
 11 12  2  0
 11 13  2  0
 11 14  1  0
 14 15  2  0
 15 16  1  0
 16 17  2  0
 17 18  1  0
 17 19  1  0
 19 20  2  0
 10 21  2  0
 21 22  1  0
 22 23  1  0
 23 24  2  0
 23 25  1  0
 25 26  1  0
 26 27  2  0
 27 28  1  0
 27 29  1  0
 29 30  2  0
 30 31  1  0
 31 32  2  0
 32 33  1  0
 33  7  1  0
 20 14  1  0
 33 22  2  0
 31 25  1  0
  1 34  1  0
  1 35  1  0
  1 36  1  0
  2 37  1  0
  2 38  1  0
  4 39  1  0
  4 40  1  0
  5 41  1  0
  5 42  1  0
  6 43  1  0
  6 44  1  0
  9 45  1  0
 15 46  1  0
 16 47  1  0
 18 48  1  0
 18 49  1  0
 18 50  1  0
 19 51  1  0
 20 52  1  0
 21 53  1  0
 26 54  1  0
 28 55  1  0
 28 56  1  0
 28 57  1  0
 29 58  1  0
 30 59  1  0
M  END
$$$$
