
     RDKit          3D

 53 54  0  0  0  0  0  0  0  0999 V2000
   -5.1540   -1.2528   -2.9415 C   0  0  0  0  0  0  0  0  0  0  0  0
   -4.8558   -0.2336   -1.8567 C   0  0  0  0  0  0  0  0  0  0  0  0
   -5.5017   -0.5290   -0.5532 N   0  0  0  0  0  0  0  0  0  0  0  0
   -6.9566   -0.2311   -0.5144 C   0  0  0  0  0  0  0  0  0  0  0  0
   -7.1910    0.9736    0.3801 C   0  0  0  0  0  0  0  0  0  0  0  0
   -5.0277   -1.9057    0.3273 S   0  0  0  0  0  6  0  0  0  0  0  0
   -5.2616   -3.0738   -0.4943 O   0  0  0  0  0  0  0  0  0  0  0  0
   -5.6024   -1.8094    1.6530 O   0  0  0  0  0  0  0  0  0  0  0  0
   -3.2747   -1.6813    0.5056 C   0  0  0  0  0  0  0  0  0  0  0  0
   -2.3864   -2.5233   -0.1685 C   0  0  0  0  0  0  0  0  0  0  0  0
   -1.0097   -2.3330   -0.0181 C   0  0  0  0  0  0  0  0  0  0  0  0
   -0.5230   -1.3096    0.8105 C   0  0  0  0  0  0  0  0  0  0  0  0
    0.9326   -1.0602    0.9968 C   0  0  0  0  0  0  0  0  0  0  0  0
    1.3798   -0.1246    1.6419 O   0  0  0  0  0  0  0  0  0  0  0  0
    1.6656   -2.0138    0.3707 O   0  0  0  0  0  0  0  0  0  0  0  0
    3.0718   -1.7769    0.4090 C   0  0  0  0  0  0  0  0  0  0  0  0
    3.5080   -0.6449   -0.5268 C   0  0  0  0  0  0  0  0  0  0  0  0
    2.8279   -0.2547   -1.4732 O   0  0  0  0  0  0  0  0  0  0  0  0
    4.7482   -0.1205   -0.2280 N   0  0  0  0  0  0  0  0  0  0  0  0
    5.2479    1.0501   -0.9293 C   0  0  0  0  0  0  0  0  0  0  0  0
    6.6498    1.4672   -0.4722 C   0  0  0  0  0  0  0  0  0  0  0  0
    6.6560    2.0446    0.8650 N   0  0  0  0  0  0  0  0  0  0  0  0
    6.6636    3.3957    1.1118 C   0  0  0  0  0  0  0  0  0  0  0  0
    6.6968    4.2603    0.0599 O   0  0  0  0  0  0  0  0  0  0  0  0
    6.6280    3.7245    2.4085 C   0  0  0  0  0  0  0  0  0  0  0  0
    6.5717    2.3093    3.4161 S   0  0  0  0  0  0  0  0  0  0  0  0
    6.5604    1.2512    1.9966 C   0  0  0  0  0  0  0  0  0  0  0  0
    6.4465    0.0354    2.0466 O   0  0  0  0  0  0  0  0  0  0  0  0
   -1.4280   -0.4778    1.4882 C   0  0  0  0  0  0  0  0  0  0  0  0
   -2.8042   -0.6642    1.3412 C   0  0  0  0  0  0  0  0  0  0  0  0
   -4.8078   -0.8767   -3.9099 H   0  0  0  0  0  0  0  0  0  0  0  0
   -4.6319   -2.1962   -2.7608 H   0  0  0  0  0  0  0  0  0  0  0  0
   -6.2240   -1.4649   -3.0241 H   0  0  0  0  0  0  0  0  0  0  0  0
   -3.7742   -0.1338   -1.7207 H   0  0  0  0  0  0  0  0  0  0  0  0
   -5.1967    0.7548   -2.1902 H   0  0  0  0  0  0  0  0  0  0  0  0
   -7.5261   -1.0901   -0.1432 H   0  0  0  0  0  0  0  0  0  0  0  0
   -7.3422   -0.0191   -1.5174 H   0  0  0  0  0  0  0  0  0  0  0  0
   -6.6556    1.8515    0.0035 H   0  0  0  0  0  0  0  0  0  0  0  0
   -8.2575    1.2151    0.4220 H   0  0  0  0  0  0  0  0  0  0  0  0
   -6.8434    0.7832    1.4007 H   0  0  0  0  0  0  0  0  0  0  0  0
   -2.7526   -3.3224   -0.8100 H   0  0  0  0  0  0  0  0  0  0  0  0
   -0.3273   -2.9876   -0.5560 H   0  0  0  0  0  0  0  0  0  0  0  0
    3.4029   -1.5866    1.4369 H   0  0  0  0  0  0  0  0  0  0  0  0
    3.5665   -2.6925    0.0678 H   0  0  0  0  0  0  0  0  0  0  0  0
    5.1685   -0.3601    0.6703 H   0  0  0  0  0  0  0  0  0  0  0  0
    5.2653    0.8059   -1.9974 H   0  0  0  0  0  0  0  0  0  0  0  0
    4.5293    1.8649   -0.7844 H   0  0  0  0  0  0  0  0  0  0  0  0
    7.0782    2.1818   -1.1833 H   0  0  0  0  0  0  0  0  0  0  0  0
    7.3071    0.5888   -0.4604 H   0  0  0  0  0  0  0  0  0  0  0  0
    6.6825    5.1683    0.4088 H   0  0  0  0  0  0  0  0  0  0  0  0
    6.6246    4.7245    2.8165 H   0  0  0  0  0  0  0  0  0  0  0  0
   -1.0620    0.3185    2.1346 H   0  0  0  0  0  0  0  0  0  0  0  0
   -3.5012   -0.0191    1.8727 H   0  0  0  0  0  0  0  0  0  0  0  0
  1  2  1  0
  2  3  1  0
  3  4  1  0
  4  5  1  0
  3  6  1  0
  6  7  2  0
  6  8  2  0
  6  9  1  0
  9 10  2  0
 10 11  1  0
 11 12  2  0
 12 13  1  0
 13 14  2  0
 13 15  1  0
 15 16  1  0
 16 17  1  0
 17 18  2  0
 17 19  1  0
 19 20  1  0
 20 21  1  0
 21 22  1  0
 22 23  1  0
 23 24  1  0
 23 25  2  0
 25 26  1  0
 26 27  1  0
 27 28  2  0
 12 29  1  0
 29 30  2  0
 30  9  1  0
 27 22  1  0
  1 31  1  0
  1 32  1  0
  1 33  1  0
  2 34  1  0
  2 35  1  0
  4 36  1  0
  4 37  1  0
  5 38  1  0
  5 39  1  0
  5 40  1  0
 10 41  1  0
 11 42  1  0
 16 43  1  0
 16 44  1  0
 19 45  1  0
 20 46  1  0
 20 47  1  0
 21 48  1  0
 21 49  1  0
 24 50  1  0
 25 51  1  0
 29 52  1  0
 30 53  1  0
M  END
$$$$
