
     RDKit          3D

 46 48  0  0  0  0  0  0  0  0999 V2000
   -3.3367    2.7273   -1.8080 C   0  0  0  0  0  0  0  0  0  0  0  0
   -2.3365    1.9275   -1.4133 C   0  0  0  0  0  0  0  0  0  0  0  0
   -2.4176    0.4291   -1.3622 C   0  0  0  0  0  0  0  0  0  0  0  0
   -2.2418   -0.0815   -0.0158 N   0  0  0  0  0  0  0  0  0  0  0  0
   -1.0788   -0.4483    0.6044 C   0  0  0  0  0  0  0  0  0  0  0  0
    0.4852   -0.3201   -0.1166 S   0  0  0  0  0  0  0  0  0  0  0  0
    1.5349   -0.7657    1.3017 C   0  0  0  0  0  0  0  0  0  0  0  0
    2.9989   -0.6859    0.9401 C   0  0  0  0  0  0  0  0  0  0  0  0
    3.6990    0.5232    1.0677 C   0  0  0  0  0  0  0  0  0  0  0  0
    5.0496    0.6041    0.7155 C   0  0  0  0  0  0  0  0  0  0  0  0
    5.7198   -0.5251    0.2279 C   0  0  0  0  0  0  0  0  0  0  0  0
    7.1567   -0.4968   -0.1589 C   0  0  0  0  0  0  0  0  0  0  0  0
    7.7860   -1.4894   -0.4909 O   0  0  0  0  0  0  0  0  0  0  0  0
    7.6438    0.7683   -0.0997 O   0  0  0  0  0  0  0  0  0  0  0  0
    9.0200    0.8786   -0.4653 C   0  0  0  0  0  0  0  0  0  0  0  0
    5.0231   -1.7321    0.0958 C   0  0  0  0  0  0  0  0  0  0  0  0
    3.6721   -1.8109    0.4442 C   0  0  0  0  0  0  0  0  0  0  0  0
   -1.3384   -0.8963    1.8108 N   0  0  0  0  0  0  0  0  0  0  0  0
   -2.6972   -0.8169    2.0027 N   0  0  0  0  0  0  0  0  0  0  0  0
   -3.2331   -0.3205    0.9066 C   0  0  0  0  0  0  0  0  0  0  0  0
   -4.6259   -0.0871    0.7250 C   0  0  0  0  0  0  0  0  0  0  0  0
   -5.3674    1.3554    1.2680 S   0  0  0  0  0  0  0  0  0  0  0  0
   -6.8667    0.8107    0.6432 C   0  0  0  0  0  0  0  0  0  0  0  0
   -7.9813    1.5552    0.7461 N   0  0  0  0  0  0  0  0  0  0  0  0
   -6.8477   -0.3710    0.0800 N   0  0  0  0  0  0  0  0  0  0  0  0
   -5.5707   -0.9109    0.1386 C   0  0  0  0  0  0  0  0  0  0  0  0
   -5.3512   -2.2675   -0.4291 C   0  0  0  0  0  0  0  0  0  0  0  0
   -4.3031    2.3365   -2.1145 H   0  0  0  0  0  0  0  0  0  0  0  0
   -3.2106    3.8064   -1.8266 H   0  0  0  0  0  0  0  0  0  0  0  0
   -1.3901    2.3791   -1.1210 H   0  0  0  0  0  0  0  0  0  0  0  0
   -3.3775    0.0634   -1.7425 H   0  0  0  0  0  0  0  0  0  0  0  0
   -1.6492   -0.0108   -2.0059 H   0  0  0  0  0  0  0  0  0  0  0  0
    1.3298   -0.0906    2.1416 H   0  0  0  0  0  0  0  0  0  0  0  0
    1.2928   -1.7808    1.6375 H   0  0  0  0  0  0  0  0  0  0  0  0
    3.1949    1.4116    1.4437 H   0  0  0  0  0  0  0  0  0  0  0  0
    5.5649    1.5544    0.8300 H   0  0  0  0  0  0  0  0  0  0  0  0
    9.6489    0.3793    0.2803 H   0  0  0  0  0  0  0  0  0  0  0  0
    9.1945    0.4622   -1.4627 H   0  0  0  0  0  0  0  0  0  0  0  0
    9.2807    1.9412   -0.4834 H   0  0  0  0  0  0  0  0  0  0  0  0
    5.5296   -2.6189   -0.2831 H   0  0  0  0  0  0  0  0  0  0  0  0
    3.1485   -2.7583    0.3246 H   0  0  0  0  0  0  0  0  0  0  0  0
   -8.8420    1.0361    0.6118 H   0  0  0  0  0  0  0  0  0  0  0  0
   -8.0238    2.1950    1.5304 H   0  0  0  0  0  0  0  0  0  0  0  0
   -4.7683   -2.2022   -1.3535 H   0  0  0  0  0  0  0  0  0  0  0  0
   -4.8136   -2.9045    0.2805 H   0  0  0  0  0  0  0  0  0  0  0  0
   -6.3044   -2.7525   -0.6619 H   0  0  0  0  0  0  0  0  0  0  0  0
  1  2  2  0
  2  3  1  0
  3  4  1  0
  4  5  1  0
  5  6  1  0
  6  7  1  0
  7  8  1  0
  8  9  2  0
  9 10  1  0
 10 11  2  0
 11 12  1  0
 12 13  2  0
 12 14  1  0
 14 15  1  0
 11 16  1  0
 16 17  2  0
  5 18  2  0
 18 19  1  0
 19 20  2  0
 20 21  1  0
 21 22  1  0
 22 23  1  0
 23 24  1  0
 23 25  2  0
 25 26  1  0
 26 27  1  0
 20  4  1  0
 26 21  2  0
 17  8  1  0
  1 28  1  0
  1 29  1  0
  2 30  1  0
  3 31  1  0
  3 32  1  0
  7 33  1  0
  7 34  1  0
  9 35  1  0
 10 36  1  0
 15 37  1  0
 15 38  1  0
 15 39  1  0
 16 40  1  0
 17 41  1  0
 24 42  1  0
 24 43  1  0
 27 44  1  0
 27 45  1  0
 27 46  1  0
M  END
$$$$
