
     RDKit          3D

 43 45  0  0  0  0  0  0  0  0999 V2000
   -5.4578    1.7568   -1.3979 C   0  0  0  0  0  0  0  0  0  0  0  0
   -4.9525    0.5875   -0.9822 C   0  0  0  0  0  0  0  0  0  0  0  0
   -4.2498    0.3788    0.3287 C   0  0  0  0  0  0  0  0  0  0  0  0
   -2.9365   -0.2460    0.1540 N   0  0  0  0  0  0  0  0  0  0  0  0
   -1.7329    0.4279    0.0179 C   0  0  0  0  0  0  0  0  0  0  0  0
   -1.6592    1.9157   -0.0625 C   0  0  0  0  0  0  0  0  0  0  0  0
   -0.7375   -0.5351   -0.0394 C   0  0  0  0  0  0  0  0  0  0  0  0
    0.6701   -0.3089   -0.1595 C   0  0  0  0  0  0  0  0  0  0  0  0
    1.3683    0.6081    0.5314 C   0  0  0  0  0  0  0  0  0  0  0  0
    2.8159    0.8035    0.4059 C   0  0  0  0  0  0  0  0  0  0  0  0
    3.3302    2.0985    0.4244 C   0  0  0  0  0  0  0  0  0  0  0  0
    4.7031    2.2976    0.3307 C   0  0  0  0  0  0  0  0  0  0  0  0
    5.5466    1.2455    0.2399 N   0  0  0  0  0  4  0  0  0  0  0  0
    6.9965    1.4803    0.1308 C   0  0  0  0  0  0  0  0  0  0  0  0
    5.0722   -0.0200    0.2298 C   0  0  0  0  0  0  0  0  0  0  0  0
    3.7067   -0.2654    0.3191 C   0  0  0  0  0  0  0  0  0  0  0  0
   -1.3556   -1.8214   -0.0026 C   0  0  0  0  0  0  0  0  0  0  0  0
   -0.8710   -3.1480   -0.0509 C   0  0  0  0  0  0  0  0  0  0  0  0
   -1.7662   -4.2200    0.0167 C   0  0  0  0  0  0  0  0  0  0  0  0
   -3.1316   -3.9898    0.1342 C   0  0  0  0  0  0  0  0  0  0  0  0
   -3.6373   -2.6883    0.1896 C   0  0  0  0  0  0  0  0  0  0  0  0
   -2.7304   -1.6155    0.1216 C   0  0  0  0  0  0  0  0  0  0  0  0
   -5.9578    1.8327   -2.3597 H   0  0  0  0  0  0  0  0  0  0  0  0
   -5.3911    2.6593   -0.7983 H   0  0  0  0  0  0  0  0  0  0  0  0
   -5.0548   -0.2854   -1.6248 H   0  0  0  0  0  0  0  0  0  0  0  0
   -4.1049    1.3162    0.8765 H   0  0  0  0  0  0  0  0  0  0  0  0
   -4.8459   -0.2736    0.9756 H   0  0  0  0  0  0  0  0  0  0  0  0
   -1.7108    2.3520    0.9399 H   0  0  0  0  0  0  0  0  0  0  0  0
   -2.4739    2.3274   -0.6650 H   0  0  0  0  0  0  0  0  0  0  0  0
   -0.7285    2.2466   -0.5331 H   0  0  0  0  0  0  0  0  0  0  0  0
    1.1856   -0.9731   -0.8494 H   0  0  0  0  0  0  0  0  0  0  0  0
    0.8535    1.2615    1.2334 H   0  0  0  0  0  0  0  0  0  0  0  0
    2.6670    2.9587    0.4995 H   0  0  0  0  0  0  0  0  0  0  0  0
    5.1353    3.2944    0.3276 H   0  0  0  0  0  0  0  0  0  0  0  0
    7.2503    2.4075    0.6510 H   0  0  0  0  0  0  0  0  0  0  0  0
    7.2368    1.5520   -0.9328 H   0  0  0  0  0  0  0  0  0  0  0  0
    7.5300    0.6474    0.5960 H   0  0  0  0  0  0  0  0  0  0  0  0
    5.7926   -0.8298    0.1533 H   0  0  0  0  0  0  0  0  0  0  0  0
    3.3494   -1.2934    0.3302 H   0  0  0  0  0  0  0  0  0  0  0  0
    0.1927   -3.3431   -0.1398 H   0  0  0  0  0  0  0  0  0  0  0  0
   -1.3922   -5.2400   -0.0230 H   0  0  0  0  0  0  0  0  0  0  0  0
   -3.8178   -4.8325    0.1842 H   0  0  0  0  0  0  0  0  0  0  0  0
   -4.7070   -2.5266    0.2790 H   0  0  0  0  0  0  0  0  0  0  0  0
  1  2  2  0
  2  3  1  0
  3  4  1  0
  4  5  1  0
  5  6  1  0
  5  7  2  0
  7  8  1  0
  8  9  2  3
  9 10  1  0
 10 11  2  0
 11 12  1  0
 12 13  2  0
 13 14  1  0
 13 15  1  0
 15 16  2  0
  7 17  1  0
 17 18  2  0
 18 19  1  0
 19 20  2  0
 20 21  1  0
 21 22  2  0
 22  4  1  0
 16 10  1  0
 22 17  1  0
  1 23  1  0
  1 24  1  0
  2 25  1  0
  3 26  1  0
  3 27  1  0
  6 28  1  0
  6 29  1  0
  6 30  1  0
  8 31  1  0
  9 32  1  0
 11 33  1  0
 12 34  1  0
 14 35  1  0
 14 36  1  0
 14 37  1  0
 15 38  1  0
 16 39  1  0
 18 40  1  0
 19 41  1  0
 20 42  1  0
 21 43  1  0
M  CHG  1  13   1
M  END
$$$$
