
     RDKit          3D

 39 42  0  0  0  0  0  0  0  0999 V2000
    5.9651   -0.4036   -1.1882 C   0  0  0  0  0  0  0  0  0  0  0  0
    5.7908   -0.9991    0.0730 C   0  0  0  0  0  0  0  0  0  0  0  0
    4.5581   -0.9384    0.7315 C   0  0  0  0  0  0  0  0  0  0  0  0
    3.5121   -0.2767    0.1108 C   0  0  0  0  0  0  0  0  0  0  0  0
    3.6943    0.3194   -1.1564 C   0  0  0  0  0  0  0  0  0  0  0  0
    4.9112    0.2638   -1.8152 C   0  0  0  0  0  0  0  0  0  0  0  0
    2.4088    0.9761   -1.6174 C   0  0  0  0  0  0  0  0  0  0  0  0
    1.4751    0.6834   -0.4609 C   0  0  0  0  0  0  0  0  0  0  0  0
    0.1447    1.0448   -0.3242 C   0  0  0  0  0  0  0  0  0  0  0  0
   -0.5396    0.6588    0.8401 C   0  0  0  0  0  0  0  0  0  0  0  0
   -1.9948    1.0409    1.0286 C   0  0  0  0  0  0  0  0  0  0  0  0
   -2.8782    0.5073   -0.0201 N   0  0  0  0  0  0  0  0  0  0  0  0
   -2.9044   -0.9742   -0.0076 C   0  0  0  0  0  0  0  0  0  0  0  0
   -4.1933   -1.5294   -0.6314 C   0  0  0  0  0  0  0  0  0  0  0  0
   -5.3666   -1.1606    0.1080 O   0  0  0  0  0  0  0  0  0  0  0  0
   -5.2339    0.0982    0.7812 C   0  0  0  0  0  0  0  0  0  0  0  0
   -4.2478    1.0527    0.0904 C   0  0  0  0  0  0  0  0  0  0  0  0
    0.1387   -0.0774    1.8379 C   0  0  0  0  0  0  0  0  0  0  0  0
    1.4839   -0.4365    1.6900 C   0  0  0  0  0  0  0  0  0  0  0  0
    2.1466   -0.0530    0.5374 C   0  0  0  0  0  0  0  0  0  0  0  0
    6.9332   -0.4646   -1.6801 H   0  0  0  0  0  0  0  0  0  0  0  0
    6.6260   -1.5139    0.5422 H   0  0  0  0  0  0  0  0  0  0  0  0
    4.4340   -1.4012    1.7043 H   0  0  0  0  0  0  0  0  0  0  0  0
    5.0458    0.7232   -2.7887 H   0  0  0  0  0  0  0  0  0  0  0  0
    2.5474    2.0542   -1.7397 H   0  0  0  0  0  0  0  0  0  0  0  0
    2.0441    0.5090   -2.5369 H   0  0  0  0  0  0  0  0  0  0  0  0
   -0.3635    1.6053   -1.1036 H   0  0  0  0  0  0  0  0  0  0  0  0
   -2.0284    2.1387    1.0177 H   0  0  0  0  0  0  0  0  0  0  0  0
   -2.3456    0.7339    2.0227 H   0  0  0  0  0  0  0  0  0  0  0  0
   -2.8417   -1.3504    1.0222 H   0  0  0  0  0  0  0  0  0  0  0  0
   -2.0416   -1.3577   -0.5629 H   0  0  0  0  0  0  0  0  0  0  0  0
   -4.1566   -2.6232   -0.6605 H   0  0  0  0  0  0  0  0  0  0  0  0
   -4.3123   -1.1807   -1.6640 H   0  0  0  0  0  0  0  0  0  0  0  0
   -4.9240   -0.0986    1.8141 H   0  0  0  0  0  0  0  0  0  0  0  0
   -6.2292    0.5522    0.8225 H   0  0  0  0  0  0  0  0  0  0  0  0
   -4.2575    2.0294    0.5883 H   0  0  0  0  0  0  0  0  0  0  0  0
   -4.6020    1.2296   -0.9331 H   0  0  0  0  0  0  0  0  0  0  0  0
   -0.3864   -0.3786    2.7422 H   0  0  0  0  0  0  0  0  0  0  0  0
    1.9872   -1.0033    2.4658 H   0  0  0  0  0  0  0  0  0  0  0  0
  1  2  2  0
  2  3  1  0
  3  4  2  0
  4  5  1  0
  5  6  2  0
  5  7  1  0
  7  8  1  0
  8  9  2  0
  9 10  1  0
 10 11  1  0
 11 12  1  0
 12 13  1  0
 13 14  1  0
 14 15  1  0
 15 16  1  0
 16 17  1  0
 10 18  2  0
 18 19  1  0
 19 20  2  0
  6  1  1  0
 20  8  1  0
 20  4  1  0
 17 12  1  0
  1 21  1  0
  2 22  1  0
  3 23  1  0
  6 24  1  0
  7 25  1  0
  7 26  1  0
  9 27  1  0
 11 28  1  0
 11 29  1  0
 13 30  1  0
 13 31  1  0
 14 32  1  0
 14 33  1  0
 16 34  1  0
 16 35  1  0
 17 36  1  0
 17 37  1  0
 18 38  1  0
 19 39  1  0
M  END
$$$$
