
     RDKit          3D

 38 41  0  0  0  0  0  0  0  0999 V2000
    4.8325   -3.6577   -0.6668 C   0  0  0  0  0  0  0  0  0  0  0  0
    4.1013   -2.3646   -0.8712 C   0  0  0  0  0  0  0  0  0  0  0  0
    2.7229   -2.3592   -1.1109 C   0  0  0  0  0  0  0  0  0  0  0  0
    2.0343   -1.1523   -1.2658 C   0  0  0  0  0  0  0  0  0  0  0  0
    2.7076    0.0695   -1.1615 C   0  0  0  0  0  0  0  0  0  0  0  0
    2.0241    1.3529   -1.3701 C   0  0  0  0  0  0  0  0  0  0  0  0
    0.8995    1.7968   -0.7819 C   0  0  0  0  0  0  0  0  0  0  0  0
    0.1201    1.1443    0.2670 C   0  0  0  0  0  0  0  0  0  0  0  0
    0.7481    0.5076    1.2810 N   0  0  0  0  0  0  0  0  0  0  0  0
    0.0145   -0.0642    2.2573 C   0  0  0  0  0  0  0  0  0  0  0  0
   -1.3695   -0.0418    2.3203 C   0  0  0  0  0  0  0  0  0  0  0  0
   -2.0364    0.6263    1.2824 C   0  0  0  0  0  0  0  0  0  0  0  0
   -1.2737    1.2120    0.2708 C   0  0  0  0  0  0  0  0  0  0  0  0
   -2.1598    1.7799   -0.6162 N   0  0  0  0  0  0  0  0  0  0  0  0
   -3.4593    1.5952   -0.2081 C   0  0  0  0  0  0  0  0  0  0  0  0
   -4.6588    2.0065   -0.8011 C   0  0  0  0  0  0  0  0  0  0  0  0
   -5.8501    1.6684   -0.1525 C   0  0  0  0  0  0  0  0  0  0  0  0
   -5.8391    0.9475    1.0392 C   0  0  0  0  0  0  0  0  0  0  0  0
   -4.6301    0.5433    1.6169 C   0  0  0  0  0  0  0  0  0  0  0  0
   -3.4141    0.8727    0.9829 C   0  0  0  0  0  0  0  0  0  0  0  0
    4.0857    0.0631   -0.9202 C   0  0  0  0  0  0  0  0  0  0  0  0
    4.7756   -1.1433   -0.7657 C   0  0  0  0  0  0  0  0  0  0  0  0
    4.3725   -4.4628   -1.2494 H   0  0  0  0  0  0  0  0  0  0  0  0
    5.8737   -3.5738   -0.9953 H   0  0  0  0  0  0  0  0  0  0  0  0
    4.8165   -3.9333    0.3921 H   0  0  0  0  0  0  0  0  0  0  0  0
    2.1719   -3.2941   -1.1773 H   0  0  0  0  0  0  0  0  0  0  0  0
    0.9650   -1.1763   -1.4586 H   0  0  0  0  0  0  0  0  0  0  0  0
    2.5096    1.9965   -2.1013 H   0  0  0  0  0  0  0  0  0  0  0  0
    0.5227    2.7691   -1.0859 H   0  0  0  0  0  0  0  0  0  0  0  0
    0.5949   -0.5645    3.0278 H   0  0  0  0  0  0  0  0  0  0  0  0
   -1.9026   -0.5186    3.1332 H   0  0  0  0  0  0  0  0  0  0  0  0
   -1.8923    2.2598   -1.4628 H   0  0  0  0  0  0  0  0  0  0  0  0
   -4.6723    2.5674   -1.7300 H   0  0  0  0  0  0  0  0  0  0  0  0
   -6.8000    1.9731   -0.5863 H   0  0  0  0  0  0  0  0  0  0  0  0
   -6.7776    0.6948    1.5267 H   0  0  0  0  0  0  0  0  0  0  0  0
   -4.6320   -0.0192    2.5458 H   0  0  0  0  0  0  0  0  0  0  0  0
    4.6316    0.9993   -0.8345 H   0  0  0  0  0  0  0  0  0  0  0  0
    5.8429   -1.1206   -0.5596 H   0  0  0  0  0  0  0  0  0  0  0  0
  1  2  1  0
  2  3  2  0
  3  4  1  0
  4  5  2  0
  5  6  1  0
  6  7  2  3
  7  8  1  0
  8  9  2  0
  9 10  1  0
 10 11  2  0
 11 12  1  0
 12 13  2  0
 13 14  1  0
 14 15  1  0
 15 16  2  0
 16 17  1  0
 17 18  2  0
 18 19  1  0
 19 20  2  0
  5 21  1  0
 21 22  2  0
 22  2  1  0
 13  8  1  0
 20 15  1  0
 20 12  1  0
  1 23  1  0
  1 24  1  0
  1 25  1  0
  3 26  1  0
  4 27  1  0
  6 28  1  0
  7 29  1  0
 10 30  1  0
 11 31  1  0
 14 32  1  0
 16 33  1  0
 17 34  1  0
 18 35  1  0
 19 36  1  0
 21 37  1  0
 22 38  1  0
M  END
$$$$
