
     RDKit          3D

 54 57  0  0  0  0  0  0  0  0999 V2000
   -3.5824   -5.8844    0.8910 C   0  0  0  0  0  0  0  0  0  0  0  0
   -2.4651   -5.1741    1.4103 O   0  0  0  0  0  0  0  0  0  0  0  0
   -2.4220   -3.8276    1.1749 C   0  0  0  0  0  0  0  0  0  0  0  0
   -1.3316   -3.1707    1.7565 C   0  0  0  0  0  0  0  0  0  0  0  0
   -1.1598   -1.7952    1.5949 C   0  0  0  0  0  0  0  0  0  0  0  0
   -2.0761   -1.0787    0.8252 C   0  0  0  0  0  0  0  0  0  0  0  0
   -1.9026    0.3819    0.6688 C   0  0  0  0  0  0  0  0  0  0  0  0
   -2.1461    1.1153    1.7080 N   0  0  0  0  0  0  0  0  0  0  0  0
   -2.0016    2.5010    1.6019 C   0  0  0  0  0  0  0  0  0  0  0  0
   -2.2469    3.2920    2.7272 C   0  0  0  0  0  0  0  0  0  0  0  0
   -2.1184    4.6824    2.6638 C   0  0  0  0  0  0  0  0  0  0  0  0
   -1.7422    5.2946    1.4690 C   0  0  0  0  0  0  0  0  0  0  0  0
   -1.4952    4.5150    0.3396 C   0  0  0  0  0  0  0  0  0  0  0  0
   -1.6278    3.1225    0.4156 C   0  0  0  0  0  0  0  0  0  0  0  0
   -1.3684    2.2684   -0.7549 C   0  0  0  0  0  0  0  0  0  0  0  0
   -1.0700    2.7996   -1.8226 O   0  0  0  0  0  0  0  0  0  0  0  0
   -1.4980    0.8903   -0.5643 N   0  0  0  0  0  0  0  0  0  0  0  0
   -1.0784    0.0371   -1.6908 C   0  0  0  0  0  0  0  0  0  0  0  0
    0.3667   -0.4612   -1.5456 C   0  0  0  0  0  0  0  0  0  0  0  0
    1.2559    0.6527   -1.6033 O   0  0  0  0  0  0  0  0  0  0  0  0
    2.5448    0.4461   -1.1900 C   0  0  0  0  0  0  0  0  0  0  0  0
    3.1613   -0.8080   -1.1186 C   0  0  0  0  0  0  0  0  0  0  0  0
    4.4884   -0.9301   -0.6815 C   0  0  0  0  0  0  0  0  0  0  0  0
    5.1513   -2.2752   -0.6377 C   0  0  0  0  0  0  0  0  0  0  0  0
    5.2043    0.2224   -0.3466 C   0  0  0  0  0  0  0  0  0  0  0  0
    4.5996    1.4772   -0.4288 C   0  0  0  0  0  0  0  0  0  0  0  0
    3.2704    1.6013   -0.8546 C   0  0  0  0  0  0  0  0  0  0  0  0
    2.6299    2.9600   -0.9308 C   0  0  0  0  0  0  0  0  0  0  0  0
   -3.1846   -1.7163    0.2626 C   0  0  0  0  0  0  0  0  0  0  0  0
   -3.3513   -3.0945    0.4317 C   0  0  0  0  0  0  0  0  0  0  0  0
   -3.4762   -6.9338    1.1825 H   0  0  0  0  0  0  0  0  0  0  0  0
   -3.6010   -5.8430   -0.2029 H   0  0  0  0  0  0  0  0  0  0  0  0
   -4.5200   -5.5132    1.3179 H   0  0  0  0  0  0  0  0  0  0  0  0
   -0.6167   -3.7362    2.3500 H   0  0  0  0  0  0  0  0  0  0  0  0
   -0.3204   -1.2899    2.0664 H   0  0  0  0  0  0  0  0  0  0  0  0
   -2.5407    2.8162    3.6594 H   0  0  0  0  0  0  0  0  0  0  0  0
   -2.3122    5.2846    3.5480 H   0  0  0  0  0  0  0  0  0  0  0  0
   -1.6406    6.3757    1.4173 H   0  0  0  0  0  0  0  0  0  0  0  0
   -1.1990    4.9876   -0.5941 H   0  0  0  0  0  0  0  0  0  0  0  0
   -1.1704    0.5995   -2.6268 H   0  0  0  0  0  0  0  0  0  0  0  0
   -1.7496   -0.8207   -1.7743 H   0  0  0  0  0  0  0  0  0  0  0  0
    0.4850   -0.9976   -0.5990 H   0  0  0  0  0  0  0  0  0  0  0  0
    0.5872   -1.1391   -2.3782 H   0  0  0  0  0  0  0  0  0  0  0  0
    2.6302   -1.7078   -1.4119 H   0  0  0  0  0  0  0  0  0  0  0  0
    4.4303   -3.0563   -0.3740 H   0  0  0  0  0  0  0  0  0  0  0  0
    5.5874   -2.5092   -1.6137 H   0  0  0  0  0  0  0  0  0  0  0  0
    5.9437   -2.2974    0.1178 H   0  0  0  0  0  0  0  0  0  0  0  0
    6.2404    0.1530   -0.0228 H   0  0  0  0  0  0  0  0  0  0  0  0
    5.1750    2.3606   -0.1617 H   0  0  0  0  0  0  0  0  0  0  0  0
    1.8124    3.0323   -0.2065 H   0  0  0  0  0  0  0  0  0  0  0  0
    3.3483    3.7552   -0.7052 H   0  0  0  0  0  0  0  0  0  0  0  0
    2.2420    3.1442   -1.9380 H   0  0  0  0  0  0  0  0  0  0  0  0
   -3.9207   -1.1453   -0.2978 H   0  0  0  0  0  0  0  0  0  0  0  0
   -4.2188   -3.5632   -0.0212 H   0  0  0  0  0  0  0  0  0  0  0  0
  1  2  1  0
  2  3  1  0
  3  4  2  0
  4  5  1  0
  5  6  2  0
  6  7  1  0
  7  8  2  0
  8  9  1  0
  9 10  2  0
 10 11  1  0
 11 12  2  0
 12 13  1  0
 13 14  2  0
 14 15  1  0
 15 16  2  0
 15 17  1  0
 17 18  1  0
 18 19  1  0
 19 20  1  0
 20 21  1  0
 21 22  2  0
 22 23  1  0
 23 24  1  0
 23 25  2  0
 25 26  1  0
 26 27  2  0
 27 28  1  0
  6 29  1  0
 29 30  2  0
 30  3  1  0
 17  7  1  0
 27 21  1  0
 14  9  1  0
  1 31  1  0
  1 32  1  0
  1 33  1  0
  4 34  1  0
  5 35  1  0
 10 36  1  0
 11 37  1  0
 12 38  1  0
 13 39  1  0
 18 40  1  0
 18 41  1  0
 19 42  1  0
 19 43  1  0
 22 44  1  0
 24 45  1  0
 24 46  1  0
 24 47  1  0
 25 48  1  0
 26 49  1  0
 28 50  1  0
 28 51  1  0
 28 52  1  0
 29 53  1  0
 30 54  1  0
M  END
$$$$
