
     RDKit          3D

 74 78  0  0  0  0  0  0  0  0999 V2000
   -1.0092    2.7922    1.7302 C   0  0  0  0  0  0  0  0  0  0  0  0
   -1.9154    1.7579    1.0552 C   0  0  0  0  0  0  0  0  0  0  0  0
   -3.0040    2.3818    0.1648 C   0  0  0  0  0  0  0  0  0  0  0  0
   -2.6648    3.5688   -0.6306 N   0  0  0  0  0  0  0  0  0  0  0  0
   -3.7458    4.5801   -0.7763 C   0  0  0  0  0  0  0  0  0  0  0  0
   -4.0523    5.2835    0.5501 C   0  0  0  0  0  0  0  0  0  0  0  0
   -5.0200    4.0407   -1.4676 C   0  0  0  0  0  0  0  0  0  0  0  0
   -5.8056    3.2271   -0.5941 O   0  0  0  0  0  0  0  0  0  0  0  0
   -1.8950    3.4032   -1.8004 C   0  0  0  0  0  0  0  0  0  0  0  0
   -2.2782    3.7536   -2.9164 O   0  0  0  0  0  0  0  0  0  0  0  0
   -0.4615    3.0829   -1.6448 C   0  0  0  0  0  0  0  0  0  0  0  0
    0.4341    4.1164   -1.9445 C   0  0  0  0  0  0  0  0  0  0  0  0
    1.8030    3.9004   -1.8400 C   0  0  0  0  0  0  0  0  0  0  0  0
    2.2833    2.6456   -1.4597 C   0  0  0  0  0  0  0  0  0  0  0  0
    1.4058    1.5900   -1.1852 C   0  0  0  0  0  0  0  0  0  0  0  0
    1.8558    0.2934   -0.8417 N   0  0  0  0  0  0  0  0  0  0  0  0
    3.1626   -0.1574   -0.7115 C   0  0  0  0  0  0  0  0  0  0  0  0
    4.1617    0.5005   -0.9683 O   0  0  0  0  0  0  0  0  0  0  0  0
    3.1753   -1.4525   -0.2195 N   0  0  0  0  0  0  0  0  0  0  0  0
    4.2862   -2.2483    0.1228 C   0  0  0  0  0  0  0  0  0  0  0  0
    4.0071   -3.5147    0.6846 C   0  0  0  0  0  0  0  0  0  0  0  0
    5.0343   -4.3799    1.0747 C   0  0  0  0  0  0  0  0  0  0  0  0
    6.3283   -3.9514    0.8955 C   0  0  0  0  0  0  0  0  0  0  0  0
    6.6107   -2.7238    0.3461 C   0  0  0  0  0  0  0  0  0  0  0  0
    5.6152   -1.8530   -0.0542 C   0  0  0  0  0  0  0  0  0  0  0  0
    7.9496   -2.4969    0.2535 O   0  0  0  0  0  0  0  0  0  0  0  0
    8.4727   -3.7088    0.8317 C   0  0  0  0  0  0  0  0  0  0  0  0
    7.4491   -4.6496    1.2159 O   0  0  0  0  0  0  0  0  0  0  0  0
    0.0171    1.8306   -1.2543 C   0  0  0  0  0  0  0  0  0  0  0  0
   -0.8872    0.8294   -1.0329 O   0  0  0  0  0  0  0  0  0  0  0  0
   -1.1569    0.5979    0.3623 C   0  0  0  0  0  0  0  0  0  0  0  0
   -2.0317   -0.6903    0.3783 C   0  0  0  0  0  0  0  0  0  0  0  0
   -1.6086   -1.6112    1.4671 N   0  0  0  0  0  0  0  0  0  0  0  0
   -2.7174   -2.0737    2.3212 C   0  0  0  0  0  0  0  0  0  0  0  0
   -0.4431   -2.7801    1.0614 S   0  0  0  0  0  6  0  0  0  0  0  0
   -0.0406   -3.4509    2.2784 O   0  0  0  0  0  0  0  0  0  0  0  0
    0.5433   -2.1523    0.2030 O   0  0  0  0  0  0  0  0  0  0  0  0
   -1.2296   -4.0632    0.1018 C   0  0  0  0  0  0  0  0  0  0  0  0
   -1.8266   -5.2519    0.4828 C   0  0  0  0  0  0  0  0  0  0  0  0
   -2.3498   -5.9793   -0.6242 C   0  0  0  0  0  0  0  0  0  0  0  0
   -2.1377   -5.3237   -1.8151 C   0  0  0  0  0  0  0  0  0  0  0  0
   -1.2897   -3.8543   -1.5956 S   0  0  0  0  0  0  0  0  0  0  0  0
   -1.6140    3.5137    2.2893 H   0  0  0  0  0  0  0  0  0  0  0  0
   -0.3385    2.3053    2.4453 H   0  0  0  0  0  0  0  0  0  0  0  0
   -0.3939    3.3608    1.0315 H   0  0  0  0  0  0  0  0  0  0  0  0
   -2.4443    1.2901    1.9002 H   0  0  0  0  0  0  0  0  0  0  0  0
   -3.8099    2.6559    0.8512 H   0  0  0  0  0  0  0  0  0  0  0  0
   -3.4294    1.6370   -0.5184 H   0  0  0  0  0  0  0  0  0  0  0  0
   -3.3428    5.3597   -1.4384 H   0  0  0  0  0  0  0  0  0  0  0  0
   -4.7473    6.1132    0.3865 H   0  0  0  0  0  0  0  0  0  0  0  0
   -4.5039    4.6204    1.2939 H   0  0  0  0  0  0  0  0  0  0  0  0
   -3.1343    5.6921    0.9874 H   0  0  0  0  0  0  0  0  0  0  0  0
   -5.6480    4.8793   -1.7833 H   0  0  0  0  0  0  0  0  0  0  0  0
   -4.7737    3.4436   -2.3490 H   0  0  0  0  0  0  0  0  0  0  0  0
   -6.5783    2.9392   -1.1103 H   0  0  0  0  0  0  0  0  0  0  0  0
    0.0617    5.0874   -2.2652 H   0  0  0  0  0  0  0  0  0  0  0  0
    2.5021    4.7002   -2.0685 H   0  0  0  0  0  0  0  0  0  0  0  0
    3.3604    2.5231   -1.4067 H   0  0  0  0  0  0  0  0  0  0  0  0
    1.1344   -0.4103   -0.7216 H   0  0  0  0  0  0  0  0  0  0  0  0
    2.2611   -1.8517   -0.0262 H   0  0  0  0  0  0  0  0  0  0  0  0
    2.9779   -3.8355    0.8318 H   0  0  0  0  0  0  0  0  0  0  0  0
    4.8197   -5.3487    1.5093 H   0  0  0  0  0  0  0  0  0  0  0  0
    5.8923   -0.8999   -0.4868 H   0  0  0  0  0  0  0  0  0  0  0  0
    9.1349   -4.1894    0.1025 H   0  0  0  0  0  0  0  0  0  0  0  0
    9.0592   -3.4492    1.7205 H   0  0  0  0  0  0  0  0  0  0  0  0
   -0.2196    0.4002    0.8970 H   0  0  0  0  0  0  0  0  0  0  0  0
   -1.9766   -1.2051   -0.5854 H   0  0  0  0  0  0  0  0  0  0  0  0
   -3.0928   -0.4414    0.4973 H   0  0  0  0  0  0  0  0  0  0  0  0
   -3.4801   -2.5832    1.7249 H   0  0  0  0  0  0  0  0  0  0  0  0
   -3.1720   -1.2156    2.8250 H   0  0  0  0  0  0  0  0  0  0  0  0
   -2.3648   -2.7481    3.1057 H   0  0  0  0  0  0  0  0  0  0  0  0
   -1.8770   -5.5777    1.5156 H   0  0  0  0  0  0  0  0  0  0  0  0
   -2.8577   -6.9345   -0.5517 H   0  0  0  0  0  0  0  0  0  0  0  0
   -2.4295   -5.6398   -2.8074 H   0  0  0  0  0  0  0  0  0  0  0  0
  1  2  1  0
  2  3  1  0
  3  4  1  0
  4  5  1  0
  5  6  1  0
  5  7  1  0
  7  8  1  0
  4  9  1  0
  9 10  2  0
  9 11  1  0
 11 12  2  0
 12 13  1  0
 13 14  2  0
 14 15  1  0
 15 16  1  0
 16 17  1  0
 17 18  2  0
 17 19  1  0
 19 20  1  0
 20 21  2  0
 21 22  1  0
 22 23  2  0
 23 24  1  0
 24 25  2  0
 24 26  1  0
 26 27  1  0
 27 28  1  0
 15 29  2  0
 29 30  1  0
 30 31  1  0
 31 32  1  0
 32 33  1  0
 33 34  1  0
 33 35  1  0
 35 36  2  0
 35 37  2  0
 35 38  1  0
 38 39  2  0
 39 40  1  0
 40 41  2  0
 41 42  1  0
 31  2  1  0
 42 38  1  0
 29 11  1  0
 25 20  1  0
 28 23  1  0
  1 43  1  0
  1 44  1  0
  1 45  1  0
  2 46  1  0
  3 47  1  0
  3 48  1  0
  5 49  1  0
  6 50  1  0
  6 51  1  0
  6 52  1  0
  7 53  1  0
  7 54  1  0
  8 55  1  0
 12 56  1  0
 13 57  1  0
 14 58  1  0
 16 59  1  0
 19 60  1  0
 21 61  1  0
 22 62  1  0
 25 63  1  0
 27 64  1  0
 27 65  1  0
 31 66  1  0
 32 67  1  0
 32 68  1  0
 34 69  1  0
 34 70  1  0
 34 71  1  0
 39 72  1  0
 40 73  1  0
 41 74  1  0
M  END
$$$$
