
     RDKit          3D

 47 50  0  0  0  0  0  0  0  0999 V2000
   -5.7763    2.7202   -0.6870 C   0  0  0  0  0  0  0  0  0  0  0  0
   -5.5302    1.3623   -1.3196 C   0  0  0  0  0  0  0  0  0  0  0  0
   -4.3106    0.6681   -0.7191 C   0  0  0  0  0  0  0  0  0  0  0  0
   -4.1780   -0.6109   -1.3544 O   0  0  0  0  0  0  0  0  0  0  0  0
   -2.8887   -1.0780   -1.2791 C   0  0  0  0  0  0  0  0  0  0  0  0
   -2.2183   -1.2204   -2.4958 C   0  0  0  0  0  0  0  0  0  0  0  0
   -0.9118   -1.7041   -2.5191 C   0  0  0  0  0  0  0  0  0  0  0  0
   -0.2776   -2.0532   -1.3240 C   0  0  0  0  0  0  0  0  0  0  0  0
    1.0973   -2.5560   -1.3566 C   0  0  0  0  0  0  0  0  0  0  0  0
    2.1894   -1.8400   -1.0505 C   0  0  0  0  0  0  0  0  0  0  0  0
    3.8053   -2.5449   -1.1216 S   0  0  0  0  0  0  0  0  0  0  0  0
    4.4730   -1.0510   -0.6135 C   0  0  0  0  0  0  0  0  0  0  0  0
    5.6707   -0.6090   -0.3669 N   0  0  0  0  0  0  0  0  0  0  0  0
    5.4124    0.7054   -0.0060 C   0  0  0  0  0  0  0  0  0  0  0  0
    6.5524    1.7031    0.3834 C   0  0  0  0  0  0  0  0  0  0  0  0
    6.3799    3.0276    0.7373 C   0  0  0  0  0  0  0  0  0  0  0  0
    7.6691    3.5524    0.9971 C   0  0  0  0  0  0  0  0  0  0  0  0
    8.5489    2.5173    0.7901 C   0  0  0  0  0  0  0  0  0  0  0  0
    7.8840    1.3935    0.4191 O   0  0  0  0  0  0  0  0  0  0  0  0
    4.1100    1.0604   -0.0221 N   0  0  0  0  0  0  0  0  0  0  0  0
    3.5454   -0.0950   -0.4164 N   0  0  0  0  0  0  0  0  0  0  0  0
    2.2171   -0.4001   -0.6276 C   0  0  0  0  0  0  0  0  0  0  0  0
    1.3151    0.4013   -0.4784 O   0  0  0  0  0  0  0  0  0  0  0  0
   -0.9664   -1.9410   -0.1059 C   0  0  0  0  0  0  0  0  0  0  0  0
   -2.2831   -1.4677   -0.0735 C   0  0  0  0  0  0  0  0  0  0  0  0
   -3.0423   -1.3574    1.0613 O   0  0  0  0  0  0  0  0  0  0  0  0
   -2.5478   -1.9677    2.2512 C   0  0  0  0  0  0  0  0  0  0  0  0
   -3.6246   -1.8563    3.3159 C   0  0  0  0  0  0  0  0  0  0  0  0
   -6.6561    3.1924   -1.1338 H   0  0  0  0  0  0  0  0  0  0  0  0
   -5.9503    2.6240    0.3897 H   0  0  0  0  0  0  0  0  0  0  0  0
   -4.9193    3.3837   -0.8386 H   0  0  0  0  0  0  0  0  0  0  0  0
   -5.3936    1.4756   -2.4020 H   0  0  0  0  0  0  0  0  0  0  0  0
   -6.4152    0.7271   -1.1911 H   0  0  0  0  0  0  0  0  0  0  0  0
   -3.4190    1.2888   -0.8811 H   0  0  0  0  0  0  0  0  0  0  0  0
   -4.4664    0.5325    0.3564 H   0  0  0  0  0  0  0  0  0  0  0  0
   -2.7153   -0.9444   -3.4205 H   0  0  0  0  0  0  0  0  0  0  0  0
   -0.3992   -1.8012   -3.4722 H   0  0  0  0  0  0  0  0  0  0  0  0
    1.1844   -3.5950   -1.6689 H   0  0  0  0  0  0  0  0  0  0  0  0
    5.4324    3.5457    0.7926 H   0  0  0  0  0  0  0  0  0  0  0  0
    7.9243    4.5594    1.2947 H   0  0  0  0  0  0  0  0  0  0  0  0
    9.6240    2.4215    0.8576 H   0  0  0  0  0  0  0  0  0  0  0  0
   -0.4554   -2.2244    0.8074 H   0  0  0  0  0  0  0  0  0  0  0  0
   -1.6472   -1.4475    2.5972 H   0  0  0  0  0  0  0  0  0  0  0  0
   -2.3281   -3.0280    2.0758 H   0  0  0  0  0  0  0  0  0  0  0  0
   -3.8576   -0.8062    3.5199 H   0  0  0  0  0  0  0  0  0  0  0  0
   -4.5531   -2.3285    2.9772 H   0  0  0  0  0  0  0  0  0  0  0  0
   -3.3036   -2.3345    4.2458 H   0  0  0  0  0  0  0  0  0  0  0  0
  1  2  1  0
  2  3  1  0
  3  4  1  0
  4  5  1  0
  5  6  2  0
  6  7  1  0
  7  8  2  0
  8  9  1  0
  9 10  2  3
 10 11  1  0
 11 12  1  0
 12 13  2  0
 13 14  1  0
 14 15  1  0
 15 16  2  0
 16 17  1  0
 17 18  2  0
 18 19  1  0
 14 20  2  0
 20 21  1  0
 21 22  1  0
 22 23  2  0
  8 24  1  0
 24 25  2  0
 25 26  1  0
 26 27  1  0
 27 28  1  0
 25  5  1  0
 22 10  1  0
 21 12  1  0
 19 15  1  0
  1 29  1  0
  1 30  1  0
  1 31  1  0
  2 32  1  0
  2 33  1  0
  3 34  1  0
  3 35  1  0
  6 36  1  0
  7 37  1  0
  9 38  1  0
 16 39  1  0
 17 40  1  0
 18 41  1  0
 24 42  1  0
 27 43  1  0
 27 44  1  0
 28 45  1  0
 28 46  1  0
 28 47  1  0
M  END
$$$$
