
     RDKit          3D

 97 99  0  0  0  0  0  0  0  0999 V2000
   -2.2158    5.1038    0.9746 C   0  0  0  0  0  0  0  0  0  0  0  0
   -1.8430    3.9063    0.1549 C   0  0  0  0  0  0  0  0  0  0  0  0
   -1.4833    3.9572   -1.0134 O   0  0  0  0  0  0  0  0  0  0  0  0
   -1.9705    2.7784    0.9042 O   0  0  0  0  0  0  0  0  0  0  0  0
   -1.6412    1.5229    0.2512 C   0  0  1  0  0  0  0  0  0  0  0  0
   -0.9326    0.6162    1.3033 C   0  0  2  0  0  0  0  0  0  0  0  0
   -1.6670    0.6463    2.5546 O   0  0  0  0  0  0  0  0  0  0  0  0
   -2.4558   -0.4143    2.8660 C   0  0  0  0  0  0  0  0  0  0  0  0
   -3.1395   -0.1719    4.1781 C   0  0  0  0  0  0  0  0  0  0  0  0
   -2.5780   -1.4357    2.2040 O   0  0  0  0  0  0  0  0  0  0  0  0
    0.5128    1.0182    1.6203 C   0  0  0  0  0  0  0  0  0  0  0  0
    0.6988    2.1248    2.6304 C   0  0  0  0  0  0  0  0  0  0  0  0
    1.6039    0.4167    1.0932 C   0  0  0  0  0  0  0  0  0  0  0  0
    1.6166   -0.6242   -0.0256 C   0  0  1  0  0  0  0  0  0  0  0  0
    2.9246   -0.5986   -0.8590 C   0  0  1  0  0  0  0  0  0  0  0  0
    3.4664    0.7140   -1.0257 O   0  0  0  0  0  0  0  0  0  0  0  0
    2.8306    1.4855   -1.9474 C   0  0  0  0  0  0  0  0  0  0  0  0
    1.8987    1.1268   -2.6503 O   0  0  0  0  0  0  0  0  0  0  0  0
    3.4371    2.8415   -1.9948 C   0  0  0  0  0  0  0  0  0  0  0  0
    4.3626    3.2824   -1.0391 C   0  0  0  0  0  0  0  0  0  0  0  0
    4.8998    4.5696   -1.1253 C   0  0  0  0  0  0  0  0  0  0  0  0
    4.5145    5.4191   -2.1625 C   0  0  0  0  0  0  0  0  0  0  0  0
    3.5892    4.9876   -3.1133 C   0  0  0  0  0  0  0  0  0  0  0  0
    3.0494    3.7033   -3.0293 C   0  0  0  0  0  0  0  0  0  0  0  0
    3.8888   -1.5643   -0.1433 C   0  0  1  0  0  0  0  0  0  0  0  0
    5.1079   -0.9221    0.5095 C   0  0  0  0  0  0  0  0  0  0  0  0
    3.0178   -2.3343    0.8642 C   0  0  0  0  0  0  0  0  0  0  0  0
    1.5374   -2.1147    0.4360 C   0  0  1  0  0  0  0  0  0  0  0  0
    0.6262   -2.2076    1.5676 O   0  0  0  0  0  0  0  0  0  0  0  0
    0.7606   -3.2009    2.4887 C   0  0  0  0  0  0  0  0  0  0  0  0
   -0.2182   -3.0285    3.6087 C   0  0  0  0  0  0  0  0  0  0  0  0
    1.5617   -4.1272    2.4473 O   0  0  0  0  0  0  0  0  0  0  0  0
    1.1066   -3.1014   -0.7212 C   0  0  1  0  0  0  0  0  0  0  0  0
    0.6102   -4.3382   -0.1590 O   0  0  0  0  0  0  0  0  0  0  0  0
    1.3616   -5.4590   -0.3546 C   0  0  0  0  0  0  0  0  0  0  0  0
    0.7358   -6.6350    0.3362 C   0  0  0  0  0  0  0  0  0  0  0  0
    2.4001   -5.5177   -1.0006 O   0  0  0  0  0  0  0  0  0  0  0  0
    0.0966   -2.6070   -1.8109 C   0  0  1  0  0  0  0  0  0  0  0  0
   -0.3107   -3.7556   -2.7509 C   0  0  0  0  0  0  0  0  0  0  0  0
   -1.1792   -1.9080   -1.3695 C   0  0  0  0  0  0  0  0  0  0  0  0
   -1.5024   -0.6883   -1.8469 C   0  0  0  0  0  0  0  0  0  0  0  0
   -2.7932    0.1088   -1.6756 C   0  0  0  0  0  0  0  0  0  0  0  0
   -4.0149   -0.8243   -1.8770 C   0  0  0  0  0  0  0  0  0  0  0  0
   -2.8384    1.1481   -2.8266 C   0  0  0  0  0  0  0  0  0  0  0  0
   -2.9382    0.8316   -0.2864 C   0  0  2  0  0  0  0  0  0  0  0  0
   -4.0218    1.7970   -0.3980 O   0  0  0  0  0  0  0  0  0  0  0  0
   -4.8996    1.8636    0.6398 C   0  0  0  0  0  0  0  0  0  0  0  0
   -5.9662    2.8730    0.3381 C   0  0  0  0  0  0  0  0  0  0  0  0
   -4.8370    1.2163    1.6755 O   0  0  0  0  0  0  0  0  0  0  0  0
   -1.5860    5.1550    1.8656 H   0  0  0  0  0  0  0  0  0  0  0  0
   -2.0564    6.0122    0.3851 H   0  0  0  0  0  0  0  0  0  0  0  0
   -3.2710    5.0467    1.2562 H   0  0  0  0  0  0  0  0  0  0  0  0
   -0.9385    1.7038   -0.5692 H   0  0  0  0  0  0  0  0  0  0  0  0
   -0.9190   -0.4028    0.9225 H   0  0  0  0  0  0  0  0  0  0  0  0
   -2.3993   -0.1689    4.9826 H   0  0  0  0  0  0  0  0  0  0  0  0
   -3.6771    0.7809    4.1462 H   0  0  0  0  0  0  0  0  0  0  0  0
   -3.8619   -0.9741    4.3615 H   0  0  0  0  0  0  0  0  0  0  0  0
    1.7580    2.3519    2.8021 H   0  0  0  0  0  0  0  0  0  0  0  0
    0.2607    1.8567    3.5982 H   0  0  0  0  0  0  0  0  0  0  0  0
    0.2345    3.0497    2.2787 H   0  0  0  0  0  0  0  0  0  0  0  0
    2.5824    0.7437    1.4411 H   0  0  0  0  0  0  0  0  0  0  0  0
    0.7986   -0.3437   -0.6838 H   0  0  0  0  0  0  0  0  0  0  0  0
    2.7326   -1.0220   -1.8546 H   0  0  0  0  0  0  0  0  0  0  0  0
    4.6721    2.6376   -0.2185 H   0  0  0  0  0  0  0  0  0  0  0  0
    5.6184    4.9110   -0.3804 H   0  0  0  0  0  0  0  0  0  0  0  0
    4.9332    6.4196   -2.2299 H   0  0  0  0  0  0  0  0  0  0  0  0
    3.2822    5.6532   -3.9194 H   0  0  0  0  0  0  0  0  0  0  0  0
    2.3197    3.3788   -3.7728 H   0  0  0  0  0  0  0  0  0  0  0  0
    4.2609   -2.2779   -0.8925 H   0  0  0  0  0  0  0  0  0  0  0  0
    4.8226   -0.1493    1.2280 H   0  0  0  0  0  0  0  0  0  0  0  0
    5.7066   -1.6726    1.0389 H   0  0  0  0  0  0  0  0  0  0  0  0
    5.7508   -0.4578   -0.2435 H   0  0  0  0  0  0  0  0  0  0  0  0
    3.2987   -3.3948    0.8709 H   0  0  0  0  0  0  0  0  0  0  0  0
    3.1856   -1.9602    1.8833 H   0  0  0  0  0  0  0  0  0  0  0  0
   -1.2085   -3.3592    3.2900 H   0  0  0  0  0  0  0  0  0  0  0  0
    0.0990   -3.6399    4.4597 H   0  0  0  0  0  0  0  0  0  0  0  0
   -0.2321   -1.9860    3.9379 H   0  0  0  0  0  0  0  0  0  0  0  0
    2.0170   -3.3085   -1.2964 H   0  0  0  0  0  0  0  0  0  0  0  0
    0.9701   -6.6104    1.4018 H   0  0  0  0  0  0  0  0  0  0  0  0
    1.1270   -7.5596   -0.0984 H   0  0  0  0  0  0  0  0  0  0  0  0
   -0.3472   -6.6255    0.1808 H   0  0  0  0  0  0  0  0  0  0  0  0
    0.6606   -1.9058   -2.4396 H   0  0  0  0  0  0  0  0  0  0  0  0
   -0.8829   -3.3791   -3.6076 H   0  0  0  0  0  0  0  0  0  0  0  0
   -0.9337   -4.4999   -2.2421 H   0  0  0  0  0  0  0  0  0  0  0  0
    0.5724   -4.2658   -3.1527 H   0  0  0  0  0  0  0  0  0  0  0  0
   -1.8569   -2.4626   -0.7220 H   0  0  0  0  0  0  0  0  0  0  0  0
   -0.7654   -0.2009   -2.4922 H   0  0  0  0  0  0  0  0  0  0  0  0
   -4.9522   -0.2563   -1.8858 H   0  0  0  0  0  0  0  0  0  0  0  0
   -4.0914   -1.5738   -1.0770 H   0  0  0  0  0  0  0  0  0  0  0  0
   -3.9518   -1.3640   -2.8318 H   0  0  0  0  0  0  0  0  0  0  0  0
   -2.0372    1.8912   -2.7274 H   0  0  0  0  0  0  0  0  0  0  0  0
   -2.7150    0.6651   -3.8052 H   0  0  0  0  0  0  0  0  0  0  0  0
   -3.7938    1.6837   -2.8599 H   0  0  0  0  0  0  0  0  0  0  0  0
   -3.2487    0.0555    0.4158 H   0  0  0  0  0  0  0  0  0  0  0  0
   -6.7467    2.8081    1.1007 H   0  0  0  0  0  0  0  0  0  0  0  0
   -5.5390    3.8796    0.3459 H   0  0  0  0  0  0  0  0  0  0  0  0
   -6.4217    2.6572   -0.6310 H   0  0  0  0  0  0  0  0  0  0  0  0
  1  2  1  0
  2  3  2  0
  2  4  1  0
  4  5  1  0
  5  6  1  0
  6  7  1  0
  7  8  1  0
  8  9  1  0
  8 10  2  0
  6 11  1  0
 11 12  1  0
 11 13  2  0
 13 14  1  0
 14 15  1  0
 15 16  1  0
 16 17  1  0
 17 18  2  0
 17 19  1  0
 19 20  2  0
 20 21  1  0
 21 22  2  0
 22 23  1  0
 23 24  2  0
 15 25  1  0
 25 26  1  0
 25 27  1  0
 27 28  1  0
 28 29  1  1
 29 30  1  0
 30 31  1  0
 30 32  2  0
 28 33  1  0
 33 34  1  0
 34 35  1  0
 35 36  1  0
 35 37  2  0
 33 38  1  0
 38 39  1  0
 38 40  1  0
 40 41  2  0
 41 42  1  0
 42 43  1  0
 42 44  1  0
 42 45  1  0
 45 46  1  0
 46 47  1  0
 47 48  1  0
 47 49  2  0
 45  5  1  0
 28 14  1  0
 24 19  1  0
  1 50  1  0
  1 51  1  0
  1 52  1  0
  5 53  1  6
  6 54  1  6
  9 55  1  0
  9 56  1  0
  9 57  1  0
 12 58  1  0
 12 59  1  0
 12 60  1  0
 13 61  1  0
 14 62  1  6
 15 63  1  6
 20 64  1  0
 21 65  1  0
 22 66  1  0
 23 67  1  0
 24 68  1  0
 25 69  1  6
 26 70  1  0
 26 71  1  0
 26 72  1  0
 27 73  1  0
 27 74  1  0
 31 75  1  0
 31 76  1  0
 31 77  1  0
 33 78  1  6
 36 79  1  0
 36 80  1  0
 36 81  1  0
 38 82  1  6
 39 83  1  0
 39 84  1  0
 39 85  1  0
 40 86  1  0
 41 87  1  0
 43 88  1  0
 43 89  1  0
 43 90  1  0
 44 91  1  0
 44 92  1  0
 44 93  1  0
 45 94  1  1
 48 95  1  0
 48 96  1  0
 48 97  1  0
M  END
$$$$
