
     RDKit          3D

 40 42  0  0  0  0  0  0  0  0999 V2000
    5.3707   -0.8958    0.3536 N   0  0  0  0  0  0  0  0  0  0  0  0
    4.0601   -0.5220    0.8693 C   0  0  0  0  0  0  0  0  0  0  0  0
    3.0686   -0.3711   -0.2825 C   0  0  0  0  0  0  0  0  0  0  0  0
    1.6858    0.0377    0.2278 C   0  0  0  0  0  0  0  0  0  0  0  0
    0.6962    0.2032   -0.9353 C   0  0  0  0  0  0  0  0  0  0  0  0
   -0.6519    0.5830   -0.4534 N   0  0  0  0  0  0  0  0  0  0  0  0
   -0.9485    1.9773   -0.3911 C   0  0  0  0  0  0  0  0  0  0  0  0
    0.0615    2.9667   -0.4301 C   0  0  0  0  0  0  0  0  0  0  0  0
   -0.2185    4.3371   -0.3568 C   0  0  0  0  0  0  0  0  0  0  0  0
   -1.5273    4.7704   -0.2373 C   0  0  0  0  0  0  0  0  0  0  0  0
   -2.5482    3.8290   -0.1893 C   0  0  0  0  0  0  0  0  0  0  0  0
   -2.2708    2.4487   -0.2605 C   0  0  0  0  0  0  0  0  0  0  0  0
   -3.6933    1.3857   -0.2128 S   0  0  0  0  0  0  0  0  0  0  0  0
   -2.9587   -0.2233   -0.0556 C   0  0  0  0  0  0  0  0  0  0  0  0
   -3.8612   -1.2731    0.2052 C   0  0  0  0  0  0  0  0  0  0  0  0
   -3.4219   -2.5866    0.3317 C   0  0  0  0  0  0  0  0  0  0  0  0
   -2.0669   -2.8741    0.1934 C   0  0  0  0  0  0  0  0  0  0  0  0
   -1.5535   -4.2831    0.3563 C   0  0  0  0  0  0  0  0  0  0  0  0
   -0.4940   -4.5578   -0.4558 F   0  0  0  0  0  0  0  0  0  0  0  0
   -1.1252   -4.5339    1.6239 F   0  0  0  0  0  0  0  0  0  0  0  0
   -2.4886   -5.2339    0.0803 F   0  0  0  0  0  0  0  0  0  0  0  0
   -1.1699   -1.8166   -0.0615 C   0  0  0  0  0  0  0  0  0  0  0  0
   -1.5796   -0.4698   -0.2035 C   0  0  0  0  0  0  0  0  0  0  0  0
    6.0191   -1.0132    1.1318 H   0  0  0  0  0  0  0  0  0  0  0  0
    5.3158   -1.8038   -0.1066 H   0  0  0  0  0  0  0  0  0  0  0  0
    3.7133   -1.2859    1.5737 H   0  0  0  0  0  0  0  0  0  0  0  0
    4.1478    0.4225    1.4167 H   0  0  0  0  0  0  0  0  0  0  0  0
    3.4343    0.3843   -0.9897 H   0  0  0  0  0  0  0  0  0  0  0  0
    2.9893   -1.3175   -0.8323 H   0  0  0  0  0  0  0  0  0  0  0  0
    1.3236   -0.7139    0.9381 H   0  0  0  0  0  0  0  0  0  0  0  0
    1.7684    0.9702    0.7971 H   0  0  0  0  0  0  0  0  0  0  0  0
    1.0784    0.9335   -1.6605 H   0  0  0  0  0  0  0  0  0  0  0  0
    0.6559   -0.7155   -1.5350 H   0  0  0  0  0  0  0  0  0  0  0  0
    1.1121    2.7060   -0.5034 H   0  0  0  0  0  0  0  0  0  0  0  0
    0.5941    5.0586   -0.3894 H   0  0  0  0  0  0  0  0  0  0  0  0
   -1.7553    5.8309   -0.1800 H   0  0  0  0  0  0  0  0  0  0  0  0
   -3.5751    4.1776   -0.0964 H   0  0  0  0  0  0  0  0  0  0  0  0
   -4.9250   -1.0658    0.3120 H   0  0  0  0  0  0  0  0  0  0  0  0
   -4.1417   -3.3767    0.5382 H   0  0  0  0  0  0  0  0  0  0  0  0
   -0.1200   -2.0889   -0.1305 H   0  0  0  0  0  0  0  0  0  0  0  0
  1  2  1  0
  2  3  1  0
  3  4  1  0
  4  5  1  0
  5  6  1  0
  6  7  1  0
  7  8  2  0
  8  9  1  0
  9 10  2  0
 10 11  1  0
 11 12  2  0
 12 13  1  0
 13 14  1  0
 14 15  2  0
 15 16  1  0
 16 17  2  0
 17 18  1  0
 18 19  1  0
 18 20  1  0
 18 21  1  0
 17 22  1  0
 22 23  2  0
 23  6  1  0
 12  7  1  0
 23 14  1  0
  1 24  1  0
  1 25  1  0
  2 26  1  0
  2 27  1  0
  3 28  1  0
  3 29  1  0
  4 30  1  0
  4 31  1  0
  5 32  1  0
  5 33  1  0
  8 34  1  0
  9 35  1  0
 10 36  1  0
 11 37  1  0
 15 38  1  0
 16 39  1  0
 22 40  1  0
M  END
$$$$
