
     RDKit          3D

 55 60  0  0  0  0  0  0  0  0999 V2000
    7.4099    2.2686    0.1000 C   0  0  0  0  0  0  0  0  0  0  0  0
    6.8064    1.6167    1.1765 C   0  0  0  0  0  0  0  0  0  0  0  0
    5.6485    0.8631    0.9769 C   0  0  0  0  0  0  0  0  0  0  0  0
    5.0888    0.7749   -0.3024 C   0  0  0  0  0  0  0  0  0  0  0  0
    3.8696   -0.0345   -0.5490 C   0  0  0  0  0  0  0  0  0  0  0  0
    3.9022   -0.9240   -1.4963 N   0  0  0  0  0  0  0  0  0  0  0  0
    2.7774   -1.7454   -1.7053 C   0  0  0  0  0  0  0  0  0  0  0  0
    2.8838   -2.7553   -2.6663 C   0  0  0  0  0  0  0  0  0  0  0  0
    1.8304   -3.6424   -2.8907 C   0  0  0  0  0  0  0  0  0  0  0  0
    0.6622   -3.5350   -2.1400 C   0  0  0  0  0  0  0  0  0  0  0  0
    0.5364   -2.5307   -1.1778 C   0  0  0  0  0  0  0  0  0  0  0  0
    1.5798   -1.6219   -0.9797 C   0  0  0  0  0  0  0  0  0  0  0  0
    1.5286   -0.5659   -0.0351 N   0  0  0  0  0  0  0  0  0  0  0  0
    0.4812   -0.0717    0.7475 C   0  0  0  0  0  0  0  0  0  0  0  0
   -0.8305   -0.4482    0.6025 N   0  0  0  0  0  0  0  0  0  0  0  0
   -1.6743   -0.5076    1.8198 C   0  0  0  0  0  0  0  0  0  0  0  0
   -3.1455   -0.8427    1.4871 C   0  0  0  0  0  0  0  0  0  0  0  0
   -3.7342    0.1643    0.5823 N   0  0  0  0  0  0  0  0  0  0  0  0
   -5.0814    0.4791    0.6364 C   0  0  0  0  0  0  0  0  0  0  0  0
   -5.5771    1.7176    0.1971 C   0  0  0  0  0  0  0  0  0  0  0  0
   -6.9410    2.0338    0.2493 C   0  0  0  0  0  0  0  0  0  0  0  0
   -7.8528    1.1090    0.7421 C   0  0  0  0  0  0  0  0  0  0  0  0
   -7.3978   -0.1282    1.1795 C   0  0  0  0  0  0  0  0  0  0  0  0
   -6.0319   -0.4334    1.1245 C   0  0  0  0  0  0  0  0  0  0  0  0
   -2.7824    0.9326   -0.2412 C   0  0  0  0  0  0  0  0  0  0  0  0
   -1.5365    0.0895   -0.5977 C   0  0  0  0  0  0  0  0  0  0  0  0
    1.0224    0.8675    1.6063 C   0  0  0  0  0  0  0  0  0  0  0  0
    2.3753    1.0575    1.2547 C   0  0  0  0  0  0  0  0  0  0  0  0
    2.6676    0.1811    0.2285 C   0  0  0  0  0  0  0  0  0  0  0  0
    5.7076    1.4096   -1.3849 C   0  0  0  0  0  0  0  0  0  0  0  0
    6.8646    2.1622   -1.1802 C   0  0  0  0  0  0  0  0  0  0  0  0
    8.3144    2.8515    0.2567 H   0  0  0  0  0  0  0  0  0  0  0  0
    7.2447    1.6874    2.1689 H   0  0  0  0  0  0  0  0  0  0  0  0
    5.2019    0.3345    1.8148 H   0  0  0  0  0  0  0  0  0  0  0  0
    3.8056   -2.8540   -3.2338 H   0  0  0  0  0  0  0  0  0  0  0  0
    1.9308   -4.4256   -3.6373 H   0  0  0  0  0  0  0  0  0  0  0  0
   -0.1504   -4.2404   -2.2953 H   0  0  0  0  0  0  0  0  0  0  0  0
   -0.3686   -2.5023   -0.5819 H   0  0  0  0  0  0  0  0  0  0  0  0
   -1.2770   -1.2750    2.4948 H   0  0  0  0  0  0  0  0  0  0  0  0
   -1.6496    0.4529    2.3501 H   0  0  0  0  0  0  0  0  0  0  0  0
   -3.2050   -1.8285    1.0105 H   0  0  0  0  0  0  0  0  0  0  0  0
   -3.6921   -0.8863    2.4367 H   0  0  0  0  0  0  0  0  0  0  0  0
   -4.9027    2.4815   -0.1787 H   0  0  0  0  0  0  0  0  0  0  0  0
   -7.2832    3.0062   -0.0942 H   0  0  0  0  0  0  0  0  0  0  0  0
   -8.9111    1.3500    0.7826 H   0  0  0  0  0  0  0  0  0  0  0  0
   -8.1009   -0.8646    1.5589 H   0  0  0  0  0  0  0  0  0  0  0  0
   -5.7263   -1.4234    1.4516 H   0  0  0  0  0  0  0  0  0  0  0  0
   -3.2478    1.2405   -1.1851 H   0  0  0  0  0  0  0  0  0  0  0  0
   -2.4778    1.8352    0.3023 H   0  0  0  0  0  0  0  0  0  0  0  0
   -0.8638    0.6948   -1.2186 H   0  0  0  0  0  0  0  0  0  0  0  0
   -1.8573   -0.7625   -1.2090 H   0  0  0  0  0  0  0  0  0  0  0  0
    0.4774    1.4304    2.3517 H   0  0  0  0  0  0  0  0  0  0  0  0
    3.0480    1.7820    1.6944 H   0  0  0  0  0  0  0  0  0  0  0  0
    5.2896    1.3166   -2.3846 H   0  0  0  0  0  0  0  0  0  0  0  0
    7.3442    2.6591   -2.0197 H   0  0  0  0  0  0  0  0  0  0  0  0
  1  2  2  0
  2  3  1  0
  3  4  2  0
  4  5  1  0
  5  6  2  0
  6  7  1  0
  7  8  2  0
  8  9  1  0
  9 10  2  0
 10 11  1  0
 11 12  2  0
 12 13  1  0
 13 14  1  0
 14 15  1  0
 15 16  1  0
 16 17  1  0
 17 18  1  0
 18 19  1  0
 19 20  2  0
 20 21  1  0
 21 22  2  0
 22 23  1  0
 23 24  2  0
 18 25  1  0
 25 26  1  0
 14 27  2  0
 27 28  1  0
 28 29  2  0
  4 30  1  0
 30 31  2  0
 31  1  1  0
 29  5  1  0
 12  7  1  0
 29 13  1  0
 26 15  1  0
 24 19  1  0
  1 32  1  0
  2 33  1  0
  3 34  1  0
  8 35  1  0
  9 36  1  0
 10 37  1  0
 11 38  1  0
 16 39  1  0
 16 40  1  0
 17 41  1  0
 17 42  1  0
 20 43  1  0
 21 44  1  0
 22 45  1  0
 23 46  1  0
 24 47  1  0
 25 48  1  0
 25 49  1  0
 26 50  1  0
 26 51  1  0
 27 52  1  0
 28 53  1  0
 30 54  1  0
 31 55  1  0
M  END
$$$$
