
     RDKit          3D

 32 34  0  0  0  0  0  0  0  0999 V2000
    0.2528    0.4730    1.1250 O   0  0  0  0  0  0  0  0  0  0  0  0
   -0.1777    0.2323    0.0028 C   0  0  0  0  0  0  0  0  0  0  0  0
   -1.6804    0.1588   -0.3056 C   0  0  0  0  0  0  0  0  0  0  0  0
   -2.4604    0.4010    0.8544 O   0  0  0  0  0  0  0  0  0  0  0  0
   -3.8193    0.3649    0.7183 C   0  0  0  0  0  0  0  0  0  0  0  0
   -4.5265    0.6117    1.8991 C   0  0  0  0  0  0  0  0  0  0  0  0
   -5.9229    0.6065    1.9093 C   0  0  0  0  0  0  0  0  0  0  0  0
   -6.6156    0.3524    0.7295 C   0  0  0  0  0  0  0  0  0  0  0  0
   -8.5054    0.3427    0.7314 Br  0  0  0  0  0  0  0  0  0  0  0  0
   -5.9229    0.1048   -0.4543 C   0  0  0  0  0  0  0  0  0  0  0  0
   -4.5233    0.1110   -0.4603 C   0  0  0  0  0  0  0  0  0  0  0  0
    0.5794   -0.0043   -1.1293 N   0  0  0  0  0  0  0  0  0  0  0  0
    1.9492   -0.0164   -1.2185 C   0  0  0  0  0  0  0  0  0  0  0  0
    2.5639   -0.2547   -2.3572 N   0  0  0  0  0  0  0  0  0  0  0  0
    3.9389   -0.2186   -2.2230 N   0  0  0  0  0  0  0  0  0  0  0  0
    4.2923    0.0391   -0.9834 C   0  0  0  0  0  0  0  0  0  0  0  0
    5.7855    0.1469   -0.5477 C   0  0  0  0  0  0  0  0  0  0  0  0
    6.3799   -0.9302    0.3241 C   0  0  0  0  0  0  0  0  0  0  0  0
    6.7896   -0.8239   -1.1157 C   0  0  0  0  0  0  0  0  0  0  0  0
    2.9912    0.2701    0.0983 S   0  0  0  0  0  0  0  0  0  0  0  0
   -1.8858   -0.8467   -0.6929 H   0  0  0  0  0  0  0  0  0  0  0  0
   -1.8951    0.9182   -1.0676 H   0  0  0  0  0  0  0  0  0  0  0  0
   -3.9821    0.8101    2.8201 H   0  0  0  0  0  0  0  0  0  0  0  0
   -6.4529    0.8007    2.8377 H   0  0  0  0  0  0  0  0  0  0  0  0
   -6.4618   -0.0940   -1.3772 H   0  0  0  0  0  0  0  0  0  0  0  0
   -4.0206   -0.0860   -1.4008 H   0  0  0  0  0  0  0  0  0  0  0  0
    0.1266   -0.1946   -2.0127 H   0  0  0  0  0  0  0  0  0  0  0  0
    6.1241    1.1650   -0.3879 H   0  0  0  0  0  0  0  0  0  0  0  0
    5.7614   -1.7734    0.6109 H   0  0  0  0  0  0  0  0  0  0  0  0
    7.0957   -0.6299    1.0807 H   0  0  0  0  0  0  0  0  0  0  0  0
    6.4402   -1.5864   -1.8034 H   0  0  0  0  0  0  0  0  0  0  0  0
    7.7820   -0.4501   -1.3393 H   0  0  0  0  0  0  0  0  0  0  0  0
  1  2  2  0
  2  3  1  0
  3  4  1  0
  4  5  1  0
  5  6  2  0
  6  7  1  0
  7  8  2  0
  8  9  1  0
  8 10  1  0
 10 11  2  0
  2 12  1  0
 12 13  1  0
 13 14  2  0
 14 15  1  0
 15 16  2  0
 16 17  1  0
 17 18  1  0
 18 19  1  0
 16 20  1  0
 11  5  1  0
 20 13  1  0
 19 17  1  0
  3 21  1  0
  3 22  1  0
  6 23  1  0
  7 24  1  0
 10 25  1  0
 11 26  1  0
 12 27  1  0
 17 28  1  0
 18 29  1  0
 18 30  1  0
 19 31  1  0
 19 32  1  0
M  END
$$$$
