
     RDKit          3D

 38 39  0  0  0  0  0  0  0  0999 V2000
    0.7937   -1.4514    2.4569 O   0  0  0  0  0  0  0  0  0  0  0  0
    0.0854   -0.8867    1.6345 C   0  0  0  0  0  0  0  0  0  0  0  0
   -1.3536   -0.6711    1.9121 C   0  0  0  0  0  0  0  0  0  0  0  0
   -1.9893    0.4517    1.5434 C   0  0  0  0  0  0  0  0  0  0  0  0
   -3.4283    0.6604    1.7637 C   0  0  0  0  0  0  0  0  0  0  0  0
   -3.9461    0.5202    3.0622 C   0  0  0  0  0  0  0  0  0  0  0  0
   -5.3011    0.7481    3.3269 C   0  0  0  0  0  0  0  0  0  0  0  0
   -6.1654    1.1301    2.3026 C   0  0  0  0  0  0  0  0  0  0  0  0
   -5.6782    1.2862    1.0067 C   0  0  0  0  0  0  0  0  0  0  0  0
   -4.3181    1.0508    0.7444 C   0  0  0  0  0  0  0  0  0  0  0  0
   -3.8633    1.2208   -0.6337 N   0  0  0  0  0  4  0  0  0  0  0  0
   -3.0877    0.3742   -1.1018 O   0  0  0  0  0  0  0  0  0  0  0  0
   -4.2946    2.2037   -1.2526 O   0  0  0  0  0  1  0  0  0  0  0  0
    0.4906   -0.4789    0.3872 N   0  0  0  0  0  0  0  0  0  0  0  0
    1.8125   -0.8160   -0.1082 C   0  0  0  0  0  0  0  0  0  0  0  0
    2.2412    0.1140   -1.2422 C   0  0  0  0  0  0  0  0  0  0  0  0
    3.5996   -0.2486   -1.7889 C   0  0  0  0  0  0  0  0  0  0  0  0
    4.7636    0.2341   -1.1708 C   0  0  0  0  0  0  0  0  0  0  0  0
    6.0207   -0.1146   -1.6662 C   0  0  0  0  0  0  0  0  0  0  0  0
    6.1139   -0.9470   -2.7746 C   0  0  0  0  0  0  0  0  0  0  0  0
    7.3211   -1.2813   -3.2494 F   0  0  0  0  0  0  0  0  0  0  0  0
    4.9734   -1.4397   -3.3970 C   0  0  0  0  0  0  0  0  0  0  0  0
    3.7149   -1.0930   -2.9036 C   0  0  0  0  0  0  0  0  0  0  0  0
   -1.8337   -1.4722    2.4630 H   0  0  0  0  0  0  0  0  0  0  0  0
   -1.4614    1.2489    1.0242 H   0  0  0  0  0  0  0  0  0  0  0  0
   -3.2951    0.2427    3.8907 H   0  0  0  0  0  0  0  0  0  0  0  0
   -5.6796    0.6333    4.3409 H   0  0  0  0  0  0  0  0  0  0  0  0
   -7.2169    1.3098    2.5165 H   0  0  0  0  0  0  0  0  0  0  0  0
   -6.3586    1.5881    0.2125 H   0  0  0  0  0  0  0  0  0  0  0  0
   -0.2349   -0.2929   -0.2964 H   0  0  0  0  0  0  0  0  0  0  0  0
    1.7733   -1.8570   -0.4501 H   0  0  0  0  0  0  0  0  0  0  0  0
    2.5281   -0.7725    0.7215 H   0  0  0  0  0  0  0  0  0  0  0  0
    2.2540    1.1544   -0.8918 H   0  0  0  0  0  0  0  0  0  0  0  0
    1.4995    0.0882   -2.0512 H   0  0  0  0  0  0  0  0  0  0  0  0
    4.6968    0.8830   -0.2998 H   0  0  0  0  0  0  0  0  0  0  0  0
    6.9253    0.2553   -1.1944 H   0  0  0  0  0  0  0  0  0  0  0  0
    5.0716   -2.0904   -4.2599 H   0  0  0  0  0  0  0  0  0  0  0  0
    2.8264   -1.4849   -3.3942 H   0  0  0  0  0  0  0  0  0  0  0  0
  1  2  2  0
  2  3  1  0
  3  4  2  3
  4  5  1  0
  5  6  2  0
  6  7  1  0
  7  8  2  0
  8  9  1  0
  9 10  2  0
 10 11  1  0
 11 12  2  0
 11 13  1  0
  2 14  1  0
 14 15  1  0
 15 16  1  0
 16 17  1  0
 17 18  2  0
 18 19  1  0
 19 20  2  0
 20 21  1  0
 20 22  1  0
 22 23  2  0
 10  5  1  0
 23 17  1  0
  3 24  1  0
  4 25  1  0
  6 26  1  0
  7 27  1  0
  8 28  1  0
  9 29  1  0
 14 30  1  0
 15 31  1  0
 15 32  1  0
 16 33  1  0
 16 34  1  0
 18 35  1  0
 19 36  1  0
 22 37  1  0
 23 38  1  0
M  CHG  2  11   1  13  -1
M  END
$$$$
