
     RDKit          3D

 39 41  0  0  0  0  0  0  0  0999 V2000
   -4.9306   -2.2762    0.2349 C   0  0  0  0  0  0  0  0  0  0  0  0
   -4.4158   -1.5662   -1.0048 C   0  0  0  0  0  0  0  0  0  0  0  0
   -3.2272   -0.7738   -0.7317 N   0  0  0  0  0  0  0  0  0  0  0  0
   -1.9446   -1.2193   -0.9268 C   0  0  0  0  0  0  0  0  0  0  0  0
   -1.0816   -0.2099   -0.5608 C   0  0  0  0  0  0  0  0  0  0  0  0
    0.3378   -0.3566   -0.6263 C   0  0  0  0  0  0  0  0  0  0  0  0
    1.2129    0.1936    0.2320 C   0  0  0  0  0  0  0  0  0  0  0  0
    2.6673    0.0209    0.1509 C   0  0  0  0  0  0  0  0  0  0  0  0
    3.2574   -1.2034   -0.1594 C   0  0  0  0  0  0  0  0  0  0  0  0
    4.6432   -1.3129   -0.1924 C   0  0  0  0  0  0  0  0  0  0  0  0
    5.4251   -0.2439    0.0768 N   0  0  0  0  0  4  0  0  0  0  0  0
    6.8906   -0.3864    0.0442 C   0  0  0  0  0  0  0  0  0  0  0  0
    4.8763    0.9473    0.4031 C   0  0  0  0  0  0  0  0  0  0  0  0
    3.4953    1.1013    0.4502 C   0  0  0  0  0  0  0  0  0  0  0  0
   -1.8728    0.9137   -0.1651 C   0  0  0  0  0  0  0  0  0  0  0  0
   -1.5902    2.2330    0.2567 C   0  0  0  0  0  0  0  0  0  0  0  0
   -2.6353    3.1041    0.5829 C   0  0  0  0  0  0  0  0  0  0  0  0
   -3.9570    2.6857    0.4896 C   0  0  0  0  0  0  0  0  0  0  0  0
   -4.2706    1.3942    0.0602 C   0  0  0  0  0  0  0  0  0  0  0  0
   -3.2155    0.5265   -0.2696 C   0  0  0  0  0  0  0  0  0  0  0  0
   -4.1708   -2.9479    0.6484 H   0  0  0  0  0  0  0  0  0  0  0  0
   -5.2049   -1.5614    1.0177 H   0  0  0  0  0  0  0  0  0  0  0  0
   -5.8162   -2.8710   -0.0087 H   0  0  0  0  0  0  0  0  0  0  0  0
   -5.1791   -0.9017   -1.4229 H   0  0  0  0  0  0  0  0  0  0  0  0
   -4.1584   -2.2955   -1.7812 H   0  0  0  0  0  0  0  0  0  0  0  0
   -1.7577   -2.2208   -1.2924 H   0  0  0  0  0  0  0  0  0  0  0  0
    0.7023   -0.9884   -1.4335 H   0  0  0  0  0  0  0  0  0  0  0  0
    0.8519    0.8101    1.0528 H   0  0  0  0  0  0  0  0  0  0  0  0
    2.6485   -2.0821   -0.3637 H   0  0  0  0  0  0  0  0  0  0  0  0
    5.1348   -2.2530   -0.4266 H   0  0  0  0  0  0  0  0  0  0  0  0
    7.1602   -1.1471   -0.6930 H   0  0  0  0  0  0  0  0  0  0  0  0
    7.3371    0.5691   -0.2428 H   0  0  0  0  0  0  0  0  0  0  0  0
    7.2129   -0.6823    1.0455 H   0  0  0  0  0  0  0  0  0  0  0  0
    5.5495    1.7700    0.6277 H   0  0  0  0  0  0  0  0  0  0  0  0
    3.0725    2.0696    0.7133 H   0  0  0  0  0  0  0  0  0  0  0  0
   -0.5670    2.5868    0.3204 H   0  0  0  0  0  0  0  0  0  0  0  0
   -2.4125    4.1175    0.9074 H   0  0  0  0  0  0  0  0  0  0  0  0
   -4.7599    3.3735    0.7462 H   0  0  0  0  0  0  0  0  0  0  0  0
   -5.3078    1.0829   -0.0167 H   0  0  0  0  0  0  0  0  0  0  0  0
  1  2  1  0
  2  3  1  0
  3  4  1  0
  4  5  2  0
  5  6  1  0
  6  7  2  3
  7  8  1  0
  8  9  2  0
  9 10  1  0
 10 11  2  0
 11 12  1  0
 11 13  1  0
 13 14  2  0
  5 15  1  0
 15 16  2  0
 16 17  1  0
 17 18  2  0
 18 19  1  0
 19 20  2  0
 20  3  1  0
 14  8  1  0
 20 15  1  0
  1 21  1  0
  1 22  1  0
  1 23  1  0
  2 24  1  0
  2 25  1  0
  4 26  1  0
  6 27  1  0
  7 28  1  0
  9 29  1  0
 10 30  1  0
 12 31  1  0
 12 32  1  0
 12 33  1  0
 13 34  1  0
 14 35  1  0
 16 36  1  0
 17 37  1  0
 18 38  1  0
 19 39  1  0
M  CHG  1  11   1
M  END
$$$$
