
     RDKit          3D

 19 19  0  0  0  0  0  0  0  0999 V2000
   -2.1893    0.6560   -0.0824 C   0  0  0  0  0  0  0  0  0  0  0  0
   -2.4864   -0.4333   -1.1017 C   0  0  0  0  0  0  0  0  0  0  0  0
   -1.3556   -1.4434   -1.3034 C   0  0  0  0  0  0  0  0  0  0  0  0
    0.0950   -0.7469   -2.1525 S   0  0  0  0  0  0  0  0  0  0  0  0
    1.1018   -0.2421   -0.8151 C   0  0  0  0  0  0  0  0  0  0  0  0
    0.8784   -0.5944    0.4312 N   0  0  0  0  0  0  0  0  0  0  0  0
    1.8141   -0.0592    1.2954 N   0  0  0  0  0  0  0  0  0  0  0  0
    2.7133    0.6679    0.6717 C   0  0  0  0  0  0  0  0  0  0  0  0
    3.7421    1.2939    1.2757 N   0  0  0  0  0  0  0  0  0  0  0  0
    2.4844    0.7475   -1.0286 S   0  0  0  0  0  0  0  0  0  0  0  0
   -1.8919    0.2252    0.8787 H   0  0  0  0  0  0  0  0  0  0  0  0
   -1.3976    1.3278   -0.4256 H   0  0  0  0  0  0  0  0  0  0  0  0
   -3.0843    1.2641    0.0853 H   0  0  0  0  0  0  0  0  0  0  0  0
   -2.7637    0.0254   -2.0586 H   0  0  0  0  0  0  0  0  0  0  0  0
   -3.3715   -0.9833   -0.7580 H   0  0  0  0  0  0  0  0  0  0  0  0
   -1.7305   -2.2433   -1.9521 H   0  0  0  0  0  0  0  0  0  0  0  0
   -1.0809   -1.9232   -0.3586 H   0  0  0  0  0  0  0  0  0  0  0  0
    3.9625    0.9631    2.2096 H   0  0  0  0  0  0  0  0  0  0  0  0
    4.5601    1.4981    0.7141 H   0  0  0  0  0  0  0  0  0  0  0  0
  1  2  1  0
  2  3  1  0
  3  4  1  0
  4  5  1  0
  5  6  2  0
  6  7  1  0
  7  8  2  0
  8  9  1  0
  8 10  1  0
 10  5  1  0
  1 11  1  0
  1 12  1  0
  1 13  1  0
  2 14  1  0
  2 15  1  0
  3 16  1  0
  3 17  1  0
  9 18  1  0
  9 19  1  0
M  END
$$$$
