
     RDKit          3D

 19 19  0  0  0  0  0  0  0  0999 V2000
   -3.0544    0.4802   -0.5159 C   0  0  0  0  0  0  0  0  0  0  0  0
   -1.8467    0.1546   -1.3843 C   0  0  0  0  0  0  0  0  0  0  0  0
   -1.2958   -1.2575   -1.1755 C   0  0  0  0  0  0  0  0  0  0  0  0
   -0.6290   -1.5558    0.4916 S   0  0  0  0  0  0  0  0  0  0  0  0
    0.9023   -0.7141    0.4170 C   0  0  0  0  0  0  0  0  0  0  0  0
    1.3898   -0.2012   -0.6907 N   0  0  0  0  0  0  0  0  0  0  0  0
    2.6131    0.4069   -0.4834 N   0  0  0  0  0  0  0  0  0  0  0  0
    3.0062    0.3270    0.7679 C   0  0  0  0  0  0  0  0  0  0  0  0
    4.1574    0.8426    1.2410 N   0  0  0  0  0  0  0  0  0  0  0  0
    1.8983   -0.4920    1.7933 S   0  0  0  0  0  0  0  0  0  0  0  0
   -2.7931    0.5151    0.5457 H   0  0  0  0  0  0  0  0  0  0  0  0
   -3.8482   -0.2609   -0.6536 H   0  0  0  0  0  0  0  0  0  0  0  0
   -3.4578    1.4608   -0.7889 H   0  0  0  0  0  0  0  0  0  0  0  0
   -2.1488    0.2481   -2.4347 H   0  0  0  0  0  0  0  0  0  0  0  0
   -1.0670    0.9070   -1.2212 H   0  0  0  0  0  0  0  0  0  0  0  0
   -2.0995   -1.9847   -1.3368 H   0  0  0  0  0  0  0  0  0  0  0  0
   -0.5264   -1.4770   -1.9237 H   0  0  0  0  0  0  0  0  0  0  0  0
    4.2019    1.0621    2.2290 H   0  0  0  0  0  0  0  0  0  0  0  0
    4.5978    1.5389    0.6484 H   0  0  0  0  0  0  0  0  0  0  0  0
  1  2  1  0
  2  3  1  0
  3  4  1  0
  4  5  1  0
  5  6  2  0
  6  7  1  0
  7  8  2  0
  8  9  1  0
  8 10  1  0
 10  5  1  0
  1 11  1  0
  1 12  1  0
  1 13  1  0
  2 14  1  0
  2 15  1  0
  3 16  1  0
  3 17  1  0
  9 18  1  0
  9 19  1  0
M  END
$$$$
