
     RDKit          3D

 64 69  0  0  0  0  0  0  0  0999 V2000
    3.4864   -1.6768   -1.1663 F   0  0  0  0  0  0  0  0  0  0  0  0
    4.7786   -1.8349   -1.5662 C   0  0  0  0  0  0  0  0  0  0  0  0
    4.9356   -3.1748   -1.7681 F   0  0  0  0  0  0  0  0  0  0  0  0
    4.8641   -1.2660   -2.8006 F   0  0  0  0  0  0  0  0  0  0  0  0
    5.7731   -1.2507   -0.5849 C   0  0  0  0  0  0  0  0  0  0  0  0
    6.8232   -2.0637   -0.1124 C   0  0  0  0  0  0  0  0  0  0  0  0
    7.7705   -1.5702    0.7850 C   0  0  0  0  0  0  0  0  0  0  0  0
    7.6877   -0.2547    1.2246 C   0  0  0  0  0  0  0  0  0  0  0  0
    6.6590    0.5675    0.7677 C   0  0  0  0  0  0  0  0  0  0  0  0
    5.6954    0.0889   -0.1397 C   0  0  0  0  0  0  0  0  0  0  0  0
    4.5985    1.0399   -0.5815 C   0  0  0  0  0  0  0  0  0  0  0  0
    3.4288    1.0807    0.4207 C   0  0  0  0  0  0  0  0  0  0  0  0
    2.4392    2.1272    0.1121 N   0  0  0  0  0  0  0  0  0  0  0  0
    1.4172    2.2445    1.1777 C   0  0  0  0  0  0  0  0  0  0  0  0
    0.1116    1.4526    0.9429 C   0  0  0  0  0  0  0  0  0  0  0  0
   -0.5235    1.7642   -0.3599 N   0  0  0  0  0  0  0  0  0  0  0  0
   -1.3744    0.7917   -0.8899 C   0  0  0  0  0  0  0  0  0  0  0  0
   -1.0786    0.2472   -2.0436 N   0  0  0  0  0  0  0  0  0  0  0  0
   -1.8871   -0.7701   -2.5869 C   0  0  0  0  0  0  0  0  0  0  0  0
   -1.5157   -1.3284   -3.8114 C   0  0  0  0  0  0  0  0  0  0  0  0
   -2.2748   -2.3492   -4.3896 C   0  0  0  0  0  0  0  0  0  0  0  0
   -3.4181   -2.8227   -3.7449 C   0  0  0  0  0  0  0  0  0  0  0  0
   -3.8078   -2.2799   -2.5200 C   0  0  0  0  0  0  0  0  0  0  0  0
   -3.0373   -1.2604   -1.9528 C   0  0  0  0  0  0  0  0  0  0  0  0
   -3.3600   -0.6524   -0.7285 N   0  0  0  0  0  0  0  0  0  0  0  0
   -4.4183   -0.8942    0.1154 C   0  0  0  0  0  0  0  0  0  0  0  0
   -4.3563    0.0002    1.1688 C   0  0  0  0  0  0  0  0  0  0  0  0
   -5.3232    0.0522    2.2579 C   0  0  0  0  0  0  0  0  0  0  0  0
   -6.6699   -0.2799    2.0531 C   0  0  0  0  0  0  0  0  0  0  0  0
   -7.5866   -0.2216    3.1067 C   0  0  0  0  0  0  0  0  0  0  0  0
   -7.1676    0.1707    4.3759 C   0  0  0  0  0  0  0  0  0  0  0  0
   -5.8333    0.5065    4.5929 C   0  0  0  0  0  0  0  0  0  0  0  0
   -4.9161    0.4487    3.5396 C   0  0  0  0  0  0  0  0  0  0  0  0
   -3.1956    0.7937    0.9516 C   0  0  0  0  0  0  0  0  0  0  0  0
   -2.5785    0.3514   -0.2043 C   0  0  0  0  0  0  0  0  0  0  0  0
    0.3726    2.4865   -1.2895 C   0  0  0  0  0  0  0  0  0  0  0  0
    1.8010    1.9155   -1.2117 C   0  0  0  0  0  0  0  0  0  0  0  0
    6.9089   -3.0978   -0.4464 H   0  0  0  0  0  0  0  0  0  0  0  0
    8.5737   -2.2127    1.1381 H   0  0  0  0  0  0  0  0  0  0  0  0
    8.4239    0.1346    1.9233 H   0  0  0  0  0  0  0  0  0  0  0  0
    6.6110    1.5957    1.1242 H   0  0  0  0  0  0  0  0  0  0  0  0
    5.0299    2.0446   -0.6882 H   0  0  0  0  0  0  0  0  0  0  0  0
    4.2488    0.7695   -1.5829 H   0  0  0  0  0  0  0  0  0  0  0  0
    3.8464    1.2840    1.4154 H   0  0  0  0  0  0  0  0  0  0  0  0
    2.9465    0.0973    0.4839 H   0  0  0  0  0  0  0  0  0  0  0  0
    1.8335    1.9785    2.1577 H   0  0  0  0  0  0  0  0  0  0  0  0
    1.1587    3.3093    1.2580 H   0  0  0  0  0  0  0  0  0  0  0  0
    0.3340    0.3797    0.9992 H   0  0  0  0  0  0  0  0  0  0  0  0
   -0.5826    1.6922    1.7535 H   0  0  0  0  0  0  0  0  0  0  0  0
   -0.6235   -0.9642   -4.3142 H   0  0  0  0  0  0  0  0  0  0  0  0
   -1.9707   -2.7745   -5.3423 H   0  0  0  0  0  0  0  0  0  0  0  0
   -4.0048   -3.6174   -4.1986 H   0  0  0  0  0  0  0  0  0  0  0  0
   -4.7008   -2.6640   -2.0387 H   0  0  0  0  0  0  0  0  0  0  0  0
   -5.1340   -1.6753   -0.0957 H   0  0  0  0  0  0  0  0  0  0  0  0
   -7.0264   -0.5725    1.0689 H   0  0  0  0  0  0  0  0  0  0  0  0
   -8.6282   -0.4791    2.9329 H   0  0  0  0  0  0  0  0  0  0  0  0
   -7.8808    0.2166    5.1946 H   0  0  0  0  0  0  0  0  0  0  0  0
   -5.5044    0.8127    5.5825 H   0  0  0  0  0  0  0  0  0  0  0  0
   -3.8788    0.7069    3.7352 H   0  0  0  0  0  0  0  0  0  0  0  0
   -2.8545    1.6139    1.5684 H   0  0  0  0  0  0  0  0  0  0  0  0
    0.3755    3.5501   -1.0199 H   0  0  0  0  0  0  0  0  0  0  0  0
    0.0050    2.4469   -2.3214 H   0  0  0  0  0  0  0  0  0  0  0  0
    2.4193    2.4002   -1.9754 H   0  0  0  0  0  0  0  0  0  0  0  0
    1.7544    0.8452   -1.4522 H   0  0  0  0  0  0  0  0  0  0  0  0
  1  2  1  0
  2  3  1  0
  2  4  1  0
  2  5  1  0
  5  6  2  0
  6  7  1  0
  7  8  2  0
  8  9  1  0
  9 10  2  0
 10 11  1  0
 11 12  1  0
 12 13  1  0
 13 14  1  0
 14 15  1  0
 15 16  1  0
 16 17  1  0
 17 18  2  0
 18 19  1  0
 19 20  2  0
 20 21  1  0
 21 22  2  0
 22 23  1  0
 23 24  2  0
 24 25  1  0
 25 26  1  0
 26 27  2  0
 27 28  1  0
 28 29  2  0
 29 30  1  0
 30 31  2  0
 31 32  1  0
 32 33  2  0
 27 34  1  0
 34 35  2  0
 16 36  1  0
 36 37  1  0
 10  5  1  0
 37 13  1  0
 35 17  1  0
 24 19  1  0
 35 25  1  0
 33 28  1  0
  6 38  1  0
  7 39  1  0
  8 40  1  0
  9 41  1  0
 11 42  1  0
 11 43  1  0
 12 44  1  0
 12 45  1  0
 14 46  1  0
 14 47  1  0
 15 48  1  0
 15 49  1  0
 20 50  1  0
 21 51  1  0
 22 52  1  0
 23 53  1  0
 26 54  1  0
 29 55  1  0
 30 56  1  0
 31 57  1  0
 32 58  1  0
 33 59  1  0
 34 60  1  0
 36 61  1  0
 36 62  1  0
 37 63  1  0
 37 64  1  0
M  END
$$$$
