
     RDKit          3D

 68 69  0  0  0  0  0  0  0  0999 V2000
    0.7303   -3.6479    3.5342 C   0  0  0  0  0  0  0  0  0  0  0  0
    0.2675   -3.3913    2.2124 O   0  0  0  0  0  0  0  0  0  0  0  0
    1.3091   -2.8602    1.3897 C   0  0  0  0  0  0  0  0  0  0  0  0
    0.7623   -2.5555   -0.0091 C   0  0  0  0  0  0  0  0  0  0  0  0
    0.0036   -1.2934   -0.0640 N   0  0  0  0  0  0  0  0  0  0  0  0
    0.5418   -0.1044   -0.5478 C   0  0  0  0  0  0  0  0  0  0  0  0
   -0.1396    0.8834   -0.8220 O   0  0  0  0  0  0  0  0  0  0  0  0
    2.0474   -0.0585   -0.7402 C   0  0  0  0  0  0  0  0  0  0  0  0
    2.5418    1.3702   -0.9447 C   0  0  0  0  0  0  0  0  0  0  0  0
    4.0507    1.4205   -1.0755 C   0  0  0  0  0  0  0  0  0  0  0  0
    4.7412    0.4058   -1.1112 O   0  0  0  0  0  0  0  0  0  0  0  0
    4.5149    2.7142   -1.1502 N   0  0  0  0  0  0  0  0  0  0  0  0
    5.8378    3.0772   -1.2719 C   0  0  0  0  0  0  0  0  0  0  0  0
    6.9882    2.2637   -1.3656 C   0  0  0  0  0  0  0  0  0  0  0  0
    8.0323    3.1500   -1.4600 C   0  0  0  0  0  0  0  0  0  0  0  0
    9.4924    3.0107   -1.5908 C   0  0  0  0  0  0  0  0  0  0  0  0
    7.5433    4.4169   -1.4241 O   0  0  0  0  0  0  0  0  0  0  0  0
    6.1667    4.3738   -1.3076 N   0  0  0  0  0  0  0  0  0  0  0  0
   -1.4559   -1.3926    0.1609 C   0  0  0  0  0  0  0  0  0  0  0  0
   -2.2443   -1.4558   -1.1842 C   0  0  0  0  0  0  0  0  0  0  0  0
   -1.6874   -1.6626   -2.2637 O   0  0  0  0  0  0  0  0  0  0  0  0
   -3.6239   -1.3905   -1.0593 N   0  0  0  0  0  0  0  0  0  0  0  0
   -4.5773   -1.4242   -2.1773 C   0  0  0  0  0  0  0  0  0  0  0  0
   -5.9950   -1.2709   -1.5956 C   0  0  0  0  0  0  0  0  0  0  0  0
   -4.3264   -0.2614   -3.1504 C   0  0  0  0  0  0  0  0  0  0  0  0
   -4.5038   -2.7660   -2.9228 C   0  0  0  0  0  0  0  0  0  0  0  0
   -1.9891   -0.4218    1.2176 C   0  0  0  0  0  0  0  0  0  0  0  0
   -1.9851   -0.8004    2.5699 C   0  0  0  0  0  0  0  0  0  0  0  0
   -2.4757    0.0588    3.5573 C   0  0  0  0  0  0  0  0  0  0  0  0
   -2.9709    1.3195    3.2234 C   0  0  0  0  0  0  0  0  0  0  0  0
   -3.4200    2.0589    4.2825 O   0  0  0  0  0  0  0  0  0  0  0  0
   -3.8292    3.3917    4.0046 C   0  0  0  0  0  0  0  0  0  0  0  0
   -2.9723    1.7136    1.8877 C   0  0  0  0  0  0  0  0  0  0  0  0
   -2.4845    0.8516    0.8971 C   0  0  0  0  0  0  0  0  0  0  0  0
   -0.0932   -4.0764    4.1104 H   0  0  0  0  0  0  0  0  0  0  0  0
    1.0450   -2.7168    4.0148 H   0  0  0  0  0  0  0  0  0  0  0  0
    1.5573   -4.3640    3.5207 H   0  0  0  0  0  0  0  0  0  0  0  0
    1.7225   -1.9570    1.8521 H   0  0  0  0  0  0  0  0  0  0  0  0
    2.0998   -3.6139    1.3071 H   0  0  0  0  0  0  0  0  0  0  0  0
    1.5976   -2.5062   -0.7115 H   0  0  0  0  0  0  0  0  0  0  0  0
    0.1124   -3.3671   -0.3566 H   0  0  0  0  0  0  0  0  0  0  0  0
    2.3054   -0.6605   -1.6191 H   0  0  0  0  0  0  0  0  0  0  0  0
    2.5397   -0.4857    0.1395 H   0  0  0  0  0  0  0  0  0  0  0  0
    2.2426    1.9957   -0.0945 H   0  0  0  0  0  0  0  0  0  0  0  0
    2.1028    1.7987   -1.8538 H   0  0  0  0  0  0  0  0  0  0  0  0
    3.8741    3.4959   -1.1126 H   0  0  0  0  0  0  0  0  0  0  0  0
    7.0528    1.1860   -1.3680 H   0  0  0  0  0  0  0  0  0  0  0  0
    9.7843    1.9566   -1.6230 H   0  0  0  0  0  0  0  0  0  0  0  0
    9.8423    3.4881   -2.5111 H   0  0  0  0  0  0  0  0  0  0  0  0
   10.0016    3.4791   -0.7436 H   0  0  0  0  0  0  0  0  0  0  0  0
   -1.6374   -2.3935    0.5810 H   0  0  0  0  0  0  0  0  0  0  0  0
   -3.9954   -1.1673   -0.1426 H   0  0  0  0  0  0  0  0  0  0  0  0
   -6.0991   -0.3221   -1.0567 H   0  0  0  0  0  0  0  0  0  0  0  0
   -6.7570   -1.2949   -2.3825 H   0  0  0  0  0  0  0  0  0  0  0  0
   -6.2191   -2.0739   -0.8846 H   0  0  0  0  0  0  0  0  0  0  0  0
   -4.3273    0.6992   -2.6229 H   0  0  0  0  0  0  0  0  0  0  0  0
   -5.0991   -0.2221   -3.9268 H   0  0  0  0  0  0  0  0  0  0  0  0
   -3.3612   -0.3527   -3.6579 H   0  0  0  0  0  0  0  0  0  0  0  0
   -4.6485   -3.6044   -2.2330 H   0  0  0  0  0  0  0  0  0  0  0  0
   -3.5370   -2.9104   -3.4150 H   0  0  0  0  0  0  0  0  0  0  0  0
   -5.2759   -2.8313   -3.6984 H   0  0  0  0  0  0  0  0  0  0  0  0
   -1.6066   -1.7752    2.8666 H   0  0  0  0  0  0  0  0  0  0  0  0
   -2.4652   -0.2555    4.5986 H   0  0  0  0  0  0  0  0  0  0  0  0
   -4.7034    3.4061    3.3458 H   0  0  0  0  0  0  0  0  0  0  0  0
   -4.1195    3.8559    4.9520 H   0  0  0  0  0  0  0  0  0  0  0  0
   -3.0061    3.9791    3.5842 H   0  0  0  0  0  0  0  0  0  0  0  0
   -3.3392    2.6861    1.5758 H   0  0  0  0  0  0  0  0  0  0  0  0
   -2.4808    1.2010   -0.1338 H   0  0  0  0  0  0  0  0  0  0  0  0
  1  2  1  0
  2  3  1  0
  3  4  1  0
  4  5  1  0
  5  6  1  0
  6  7  2  0
  6  8  1  0
  8  9  1  0
  9 10  1  0
 10 11  2  0
 10 12  1  0
 12 13  1  0
 13 14  1  0
 14 15  2  0
 15 16  1  0
 15 17  1  0
 17 18  1  0
  5 19  1  0
 19 20  1  0
 20 21  2  0
 20 22  1  0
 22 23  1  0
 23 24  1  0
 23 25  1  0
 23 26  1  0
 19 27  1  0
 27 28  2  0
 28 29  1  0
 29 30  2  0
 30 31  1  0
 31 32  1  0
 30 33  1  0
 33 34  2  0
 18 13  2  0
 34 27  1  0
  1 35  1  0
  1 36  1  0
  1 37  1  0
  3 38  1  0
  3 39  1  0
  4 40  1  0
  4 41  1  0
  8 42  1  0
  8 43  1  0
  9 44  1  0
  9 45  1  0
 12 46  1  0
 14 47  1  0
 16 48  1  0
 16 49  1  0
 16 50  1  0
 19 51  1  0
 22 52  1  0
 24 53  1  0
 24 54  1  0
 24 55  1  0
 25 56  1  0
 25 57  1  0
 25 58  1  0
 26 59  1  0
 26 60  1  0
 26 61  1  0
 28 62  1  0
 29 63  1  0
 32 64  1  0
 32 65  1  0
 32 66  1  0
 33 67  1  0
 34 68  1  0
M  END
$$$$
