
     RDKit          3D

 51 53  0  0  0  0  0  0  0  0999 V2000
    1.0893    2.8310    3.2057 N   0  0  0  0  0  0  0  0  0  0  0  0
    1.8524    2.2462    2.5531 C   0  0  0  0  0  0  0  0  0  0  0  0
    2.7773    1.4960    1.7789 C   0  0  0  0  0  0  0  0  0  0  0  0
    2.8440    1.4429    0.4366 C   0  0  0  0  0  0  0  0  0  0  0  0
    1.9116    2.0784   -0.4280 C   0  0  0  0  0  0  0  0  0  0  0  0
    2.0571    2.4043   -1.7722 C   0  0  0  0  0  0  0  0  0  0  0  0
    0.8499    3.0009   -2.2111 C   0  0  0  0  0  0  0  0  0  0  0  0
    0.0092    3.0025   -1.1206 C   0  0  0  0  0  0  0  0  0  0  0  0
   -1.3885    3.4468   -0.9005 C   0  0  0  0  0  0  0  0  0  0  0  0
   -2.2681    2.3994   -1.3551 N   0  0  0  0  0  0  0  0  0  0  0  0
   -3.3799    2.0034   -0.6554 C   0  0  0  0  0  0  0  0  0  0  0  0
   -3.7810    2.4609    0.4069 O   0  0  0  0  0  0  0  0  0  0  0  0
   -4.1546    0.8496   -1.3277 C   0  0  0  0  0  0  0  0  0  0  0  0
   -3.7652    0.4302   -2.4089 O   0  0  0  0  0  0  0  0  0  0  0  0
   -5.2216    0.4318   -0.5613 N   0  0  0  0  0  0  0  0  0  0  0  0
   -6.1392   -0.5953   -0.8437 C   0  0  0  0  0  0  0  0  0  0  0  0
   -7.1204   -0.8590    0.1203 C   0  0  0  0  0  0  0  0  0  0  0  0
   -8.0613   -1.8684   -0.0924 C   0  0  0  0  0  0  0  0  0  0  0  0
   -9.2597   -2.1791    1.1052 Cl  0  0  0  0  0  0  0  0  0  0  0  0
   -8.0423   -2.6228   -1.2602 C   0  0  0  0  0  0  0  0  0  0  0  0
   -7.0707   -2.3561   -2.2194 C   0  0  0  0  0  0  0  0  0  0  0  0
   -7.0386   -3.2821   -3.6727 Cl  0  0  0  0  0  0  0  0  0  0  0  0
   -6.1204   -1.3507   -2.0188 C   0  0  0  0  0  0  0  0  0  0  0  0
    0.6419    2.4474   -0.0525 O   0  0  0  0  0  0  0  0  0  0  0  0
    3.8198    0.7390    2.5104 C   0  0  0  0  0  0  0  0  0  0  0  0
    4.7028    1.3054    3.1425 O   0  0  0  0  0  0  0  0  0  0  0  0
    3.6991   -0.6263    2.3947 N   0  0  0  0  0  0  0  0  0  0  0  0
    4.7056   -1.5244    2.9172 C   0  0  0  0  0  0  0  0  0  0  0  0
    5.6056   -1.9950    1.8133 C   0  0  0  0  0  0  0  0  0  0  0  0
    5.3570   -3.1810    1.1110 C   0  0  0  0  0  0  0  0  0  0  0  0
    6.2023   -3.5602    0.0710 C   0  0  0  0  0  0  0  0  0  0  0  0
    7.2691   -2.7322   -0.2393 C   0  0  0  0  0  0  0  0  0  0  0  0
    7.5340   -1.5750    0.4076 N   0  0  0  0  0  0  0  0  0  0  0  0
    6.6997   -1.2320    1.4167 C   0  0  0  0  0  0  0  0  0  0  0  0
    3.6552    0.8957   -0.0410 H   0  0  0  0  0  0  0  0  0  0  0  0
    2.9446    2.2339   -2.3682 H   0  0  0  0  0  0  0  0  0  0  0  0
    0.6206    3.3743   -3.1999 H   0  0  0  0  0  0  0  0  0  0  0  0
   -1.6045    4.3423   -1.4935 H   0  0  0  0  0  0  0  0  0  0  0  0
   -1.5736    3.6786    0.1544 H   0  0  0  0  0  0  0  0  0  0  0  0
   -2.0948    1.9343   -2.2422 H   0  0  0  0  0  0  0  0  0  0  0  0
   -5.3284    0.9428    0.3141 H   0  0  0  0  0  0  0  0  0  0  0  0
   -7.1572   -0.2866    1.0443 H   0  0  0  0  0  0  0  0  0  0  0  0
   -8.7771   -3.4061   -1.4222 H   0  0  0  0  0  0  0  0  0  0  0  0
   -5.3812   -1.1752   -2.7940 H   0  0  0  0  0  0  0  0  0  0  0  0
    2.9630   -1.0255    1.8259 H   0  0  0  0  0  0  0  0  0  0  0  0
    5.2873   -1.0414    3.7113 H   0  0  0  0  0  0  0  0  0  0  0  0
    4.1804   -2.3738    3.3701 H   0  0  0  0  0  0  0  0  0  0  0  0
    4.5112   -3.8155    1.3690 H   0  0  0  0  0  0  0  0  0  0  0  0
    6.0333   -4.4781   -0.4837 H   0  0  0  0  0  0  0  0  0  0  0  0
    7.9628   -2.9856   -1.0384 H   0  0  0  0  0  0  0  0  0  0  0  0
    6.9420   -0.2906    1.9112 H   0  0  0  0  0  0  0  0  0  0  0  0
  1  2  3  0
  2  3  1  0
  3  4  2  3
  4  5  1  0
  5  6  2  0
  6  7  1  0
  7  8  2  0
  8  9  1  0
  9 10  1  0
 10 11  1  0
 11 12  2  0
 11 13  1  0
 13 14  2  0
 13 15  1  0
 15 16  1  0
 16 17  2  0
 17 18  1  0
 18 19  1  0
 18 20  2  0
 20 21  1  0
 21 22  1  0
 21 23  2  0
  8 24  1  0
  3 25  1  0
 25 26  2  0
 25 27  1  0
 27 28  1  0
 28 29  1  0
 29 30  2  0
 30 31  1  0
 31 32  2  0
 32 33  1  0
 33 34  2  0
 24  5  1  0
 34 29  1  0
 23 16  1  0
  4 35  1  0
  6 36  1  0
  7 37  1  0
  9 38  1  0
  9 39  1  0
 10 40  1  0
 15 41  1  0
 17 42  1  0
 20 43  1  0
 23 44  1  0
 27 45  1  0
 28 46  1  0
 28 47  1  0
 30 48  1  0
 31 49  1  0
 32 50  1  0
 34 51  1  0
M  END
$$$$
