
     RDKit          3D

 58 61  0  0  0  0  0  0  0  0999 V2000
   -2.4298    4.8508    2.5528 C   0  0  0  0  0  0  0  0  0  0  0  0
   -2.3376    3.4457    2.3569 O   0  0  0  0  0  0  0  0  0  0  0  0
   -3.0076    2.9254    1.2833 C   0  0  0  0  0  0  0  0  0  0  0  0
   -3.7938    3.6429    0.3815 C   0  0  0  0  0  0  0  0  0  0  0  0
   -4.4265    2.9843   -0.6759 C   0  0  0  0  0  0  0  0  0  0  0  0
   -4.2762    1.6064   -0.8361 C   0  0  0  0  0  0  0  0  0  0  0  0
   -3.4921    0.8721    0.0619 C   0  0  0  0  0  0  0  0  0  0  0  0
   -3.3144   -0.5756   -0.1056 C   0  0  0  0  0  0  0  0  0  0  0  0
   -4.6836   -1.5879    0.0662 S   0  0  0  0  0  0  0  0  0  0  0  0
   -3.7748   -3.0185   -0.2049 C   0  0  0  0  0  0  0  0  0  0  0  0
   -4.2621   -4.3396   -0.2154 C   0  0  0  0  0  0  0  0  0  0  0  0
   -3.3757   -5.3949   -0.4595 C   0  0  0  0  0  0  0  0  0  0  0  0
   -2.0298   -5.1482   -0.6923 C   0  0  0  0  0  0  0  0  0  0  0  0
   -1.0704   -6.0906   -0.9439 O   0  0  0  0  0  0  0  0  0  0  0  0
   -1.4931   -7.4478   -0.9813 C   0  0  0  0  0  0  0  0  0  0  0  0
   -1.5588   -3.8299   -0.6789 C   0  0  0  0  0  0  0  0  0  0  0  0
   -2.4275   -2.7348   -0.4286 C   0  0  0  0  0  0  0  0  0  0  0  0
   -2.1685   -1.3123   -0.3657 C   0  0  0  0  0  0  0  0  0  0  0  0
   -0.8681   -0.6750   -0.5491 C   0  0  0  0  0  0  0  0  0  0  0  0
    0.1421   -0.8613    0.4007 C   0  0  0  0  0  0  0  0  0  0  0  0
    1.3925   -0.2554    0.2334 C   0  0  0  0  0  0  0  0  0  0  0  0
    1.6424    0.5391   -0.8861 C   0  0  0  0  0  0  0  0  0  0  0  0
    2.8137    1.1862   -1.1687 O   0  0  0  0  0  0  0  0  0  0  0  0
    3.8641    1.0814   -0.2014 C   0  0  0  0  0  0  0  0  0  0  0  0
    5.0648    1.8929   -0.7151 C   0  0  0  0  0  0  0  0  0  0  0  0
    6.2670    1.8020    0.1367 N   0  0  0  0  0  0  0  0  0  0  0  0
    7.4155    2.3865   -0.5621 C   0  0  0  0  0  0  0  0  0  0  0  0
    6.0761    2.4792    1.4210 C   0  0  0  0  0  0  0  0  0  0  0  0
    0.6343    0.7174   -1.8371 C   0  0  0  0  0  0  0  0  0  0  0  0
   -0.6154    0.1146   -1.6740 C   0  0  0  0  0  0  0  0  0  0  0  0
   -2.8620    1.5445    1.1181 C   0  0  0  0  0  0  0  0  0  0  0  0
   -1.8341    5.1051    3.4348 H   0  0  0  0  0  0  0  0  0  0  0  0
   -2.0123    5.3971    1.7005 H   0  0  0  0  0  0  0  0  0  0  0  0
   -3.4631    5.1546    2.7504 H   0  0  0  0  0  0  0  0  0  0  0  0
   -3.9354    4.7145    0.4720 H   0  0  0  0  0  0  0  0  0  0  0  0
   -5.0370    3.5468   -1.3777 H   0  0  0  0  0  0  0  0  0  0  0  0
   -4.7696    1.1106   -1.6689 H   0  0  0  0  0  0  0  0  0  0  0  0
   -5.3151   -4.5398   -0.0366 H   0  0  0  0  0  0  0  0  0  0  0  0
   -3.7808   -6.4016   -0.4607 H   0  0  0  0  0  0  0  0  0  0  0  0
   -2.2210   -7.6128   -1.7825 H   0  0  0  0  0  0  0  0  0  0  0  0
   -1.8927   -7.7634   -0.0118 H   0  0  0  0  0  0  0  0  0  0  0  0
   -0.6157   -8.0653   -1.1964 H   0  0  0  0  0  0  0  0  0  0  0  0
   -0.5034   -3.6446   -0.8680 H   0  0  0  0  0  0  0  0  0  0  0  0
   -0.0384   -1.4750    1.2806 H   0  0  0  0  0  0  0  0  0  0  0  0
    2.1457   -0.4263    0.9952 H   0  0  0  0  0  0  0  0  0  0  0  0
    3.5171    1.4861    0.7557 H   0  0  0  0  0  0  0  0  0  0  0  0
    4.1605    0.0319   -0.0841 H   0  0  0  0  0  0  0  0  0  0  0  0
    5.3015    1.5093   -1.7172 H   0  0  0  0  0  0  0  0  0  0  0  0
    4.7638    2.9387   -0.8657 H   0  0  0  0  0  0  0  0  0  0  0  0
    8.3244    2.2898    0.0424 H   0  0  0  0  0  0  0  0  0  0  0  0
    7.2639    3.4476   -0.7915 H   0  0  0  0  0  0  0  0  0  0  0  0
    7.6085    1.8537   -1.4999 H   0  0  0  0  0  0  0  0  0  0  0  0
    5.8105    3.5352    1.2967 H   0  0  0  0  0  0  0  0  0  0  0  0
    5.2963    1.9912    2.0138 H   0  0  0  0  0  0  0  0  0  0  0  0
    6.9904    2.4251    2.0233 H   0  0  0  0  0  0  0  0  0  0  0  0
    0.8228    1.3330   -2.7131 H   0  0  0  0  0  0  0  0  0  0  0  0
   -1.3837    0.2673   -2.4276 H   0  0  0  0  0  0  0  0  0  0  0  0
   -2.2480    0.9918    1.8258 H   0  0  0  0  0  0  0  0  0  0  0  0
  1  2  1  0
  2  3  1  0
  3  4  2  0
  4  5  1  0
  5  6  2  0
  6  7  1  0
  7  8  1  0
  8  9  1  0
  9 10  1  0
 10 11  2  0
 11 12  1  0
 12 13  2  0
 13 14  1  0
 14 15  1  0
 13 16  1  0
 16 17  2  0
 17 18  1  0
 18 19  1  0
 19 20  2  0
 20 21  1  0
 21 22  2  0
 22 23  1  0
 23 24  1  0
 24 25  1  0
 25 26  1  0
 26 27  1  0
 26 28  1  0
 22 29  1  0
 29 30  2  0
  7 31  2  0
 31  3  1  0
 18  8  2  0
 30 19  1  0
 17 10  1  0
  1 32  1  0
  1 33  1  0
  1 34  1  0
  4 35  1  0
  5 36  1  0
  6 37  1  0
 11 38  1  0
 12 39  1  0
 15 40  1  0
 15 41  1  0
 15 42  1  0
 16 43  1  0
 20 44  1  0
 21 45  1  0
 24 46  1  0
 24 47  1  0
 25 48  1  0
 25 49  1  0
 27 50  1  0
 27 51  1  0
 27 52  1  0
 28 53  1  0
 28 54  1  0
 28 55  1  0
 29 56  1  0
 30 57  1  0
 31 58  1  0
M  END
$$$$
