
     RDKit          3D

 43 45  0  0  0  0  0  0  0  0999 V2000
   -6.2605    0.4727    0.4258 C   0  0  0  0  0  0  0  0  0  0  0  0
   -4.9847    0.8717    0.3313 C   0  0  0  0  0  0  0  0  0  0  0  0
   -4.1028    0.6251   -0.8588 C   0  0  0  0  0  0  0  0  0  0  0  0
   -2.8481   -0.0322   -0.4856 N   0  0  0  0  0  0  0  0  0  0  0  0
   -1.6440    0.6063   -0.2308 C   0  0  0  0  0  0  0  0  0  0  0  0
   -1.5177    2.0927   -0.2116 C   0  0  0  0  0  0  0  0  0  0  0  0
   -0.7032   -0.3870   -0.0062 C   0  0  0  0  0  0  0  0  0  0  0  0
    0.6875   -0.2048    0.2755 C   0  0  0  0  0  0  0  0  0  0  0  0
    1.5020    0.6491   -0.3673 C   0  0  0  0  0  0  0  0  0  0  0  0
    2.9316    0.7972   -0.0765 C   0  0  0  0  0  0  0  0  0  0  0  0
    3.7578   -0.2975    0.1738 C   0  0  0  0  0  0  0  0  0  0  0  0
    5.1126   -0.0988    0.4151 C   0  0  0  0  0  0  0  0  0  0  0  0
    5.6401    1.1454    0.3961 N   0  0  0  0  0  4  0  0  0  0  0  0
    7.0755    1.3329    0.6673 C   0  0  0  0  0  0  0  0  0  0  0  0
    4.8606    2.2214    0.1485 C   0  0  0  0  0  0  0  0  0  0  0  0
    3.5011    2.0689   -0.1004 C   0  0  0  0  0  0  0  0  0  0  0  0
   -1.3643   -1.6512   -0.0590 C   0  0  0  0  0  0  0  0  0  0  0  0
   -0.9445   -2.9900    0.1105 C   0  0  0  0  0  0  0  0  0  0  0  0
   -1.8694   -4.0314   -0.0150 C   0  0  0  0  0  0  0  0  0  0  0  0
   -3.2002   -3.7589   -0.3080 C   0  0  0  0  0  0  0  0  0  0  0  0
   -3.6406   -2.4448   -0.4864 C   0  0  0  0  0  0  0  0  0  0  0  0
   -2.7041   -1.4037   -0.3604 C   0  0  0  0  0  0  0  0  0  0  0  0
   -6.7551   -0.0704   -0.3739 H   0  0  0  0  0  0  0  0  0  0  0  0
   -6.8420    0.6808    1.3196 H   0  0  0  0  0  0  0  0  0  0  0  0
   -4.5423    1.4103    1.1666 H   0  0  0  0  0  0  0  0  0  0  0  0
   -3.8564    1.5732   -1.3474 H   0  0  0  0  0  0  0  0  0  0  0  0
   -4.5903   -0.0003   -1.6153 H   0  0  0  0  0  0  0  0  0  0  0  0
   -2.3875    2.5642    0.2559 H   0  0  0  0  0  0  0  0  0  0  0  0
   -1.4172    2.4774   -1.2313 H   0  0  0  0  0  0  0  0  0  0  0  0
   -0.6443    2.4134    0.3641 H   0  0  0  0  0  0  0  0  0  0  0  0
    1.0876   -0.8507    1.0538 H   0  0  0  0  0  0  0  0  0  0  0  0
    1.1037    1.2828   -1.1576 H   0  0  0  0  0  0  0  0  0  0  0  0
    3.3597   -1.3105    0.1730 H   0  0  0  0  0  0  0  0  0  0  0  0
    5.7820   -0.9294    0.6207 H   0  0  0  0  0  0  0  0  0  0  0  0
    7.4336    2.2032    0.1116 H   0  0  0  0  0  0  0  0  0  0  0  0
    7.1878    1.4840    1.7437 H   0  0  0  0  0  0  0  0  0  0  0  0
    7.6224    0.4451    0.3394 H   0  0  0  0  0  0  0  0  0  0  0  0
    5.3332    3.1997    0.1516 H   0  0  0  0  0  0  0  0  0  0  0  0
    2.8904    2.9476   -0.3008 H   0  0  0  0  0  0  0  0  0  0  0  0
    0.0916   -3.2181    0.3382 H   0  0  0  0  0  0  0  0  0  0  0  0
   -1.5461   -5.0606    0.1188 H   0  0  0  0  0  0  0  0  0  0  0  0
   -3.9109   -4.5775   -0.3991 H   0  0  0  0  0  0  0  0  0  0  0  0
   -4.6844   -2.2472   -0.7092 H   0  0  0  0  0  0  0  0  0  0  0  0
  1  2  2  0
  2  3  1  0
  3  4  1  0
  4  5  1  0
  5  6  1  0
  5  7  2  0
  7  8  1  0
  8  9  2  3
  9 10  1  0
 10 11  2  0
 11 12  1  0
 12 13  2  0
 13 14  1  0
 13 15  1  0
 15 16  2  0
  7 17  1  0
 17 18  2  0
 18 19  1  0
 19 20  2  0
 20 21  1  0
 21 22  2  0
 22  4  1  0
 16 10  1  0
 22 17  1  0
  1 23  1  0
  1 24  1  0
  2 25  1  0
  3 26  1  0
  3 27  1  0
  6 28  1  0
  6 29  1  0
  6 30  1  0
  8 31  1  0
  9 32  1  0
 11 33  1  0
 12 34  1  0
 14 35  1  0
 14 36  1  0
 14 37  1  0
 15 38  1  0
 16 39  1  0
 18 40  1  0
 19 41  1  0
 20 42  1  0
 21 43  1  0
M  CHG  1  13   1
M  END
$$$$
