
     RDKit          3D

 43 45  0  0  0  0  0  0  0  0999 V2000
   -2.5350    0.9632    1.7400 C   0  0  0  0  0  0  0  0  0  0  0  0
   -2.3557    0.5962    0.2545 C   0  0  0  0  0  0  0  0  0  0  0  0
   -2.2469    1.9277   -0.5133 C   0  0  0  0  0  0  0  0  0  0  0  0
   -3.4957   -0.2930   -0.3286 C   0  0  0  0  0  0  0  0  0  0  0  0
   -3.3958   -1.5904    0.5012 C   0  0  0  0  0  0  0  0  0  0  0  0
   -1.8767   -1.7550    0.6970 C   0  0  0  0  0  0  0  0  0  0  0  0
   -1.2764   -0.4952   -0.0089 C   0  0  0  0  0  0  0  0  0  0  0  0
    0.1891   -0.3381    0.3442 C   0  0  0  0  0  0  0  0  0  0  0  0
    1.0065    1.1219   -0.2859 S   0  0  0  0  0  6  0  0  0  0  0  0
    0.8928    2.1457    0.7325 O   0  0  0  0  0  0  0  0  0  0  0  0
    0.5875    1.3812   -1.6438 O   0  0  0  0  0  0  0  0  0  0  0  0
    2.6285    0.6599   -0.3412 N   0  0  0  0  0  0  0  0  0  0  0  0
    3.0296   -0.2986   -1.4134 C   0  0  0  0  0  0  0  0  0  0  0  0
    4.5586   -0.3284   -1.5245 C   0  0  0  0  0  0  0  0  0  0  0  0
    5.1620   -0.6738   -0.2663 O   0  0  0  0  0  0  0  0  0  0  0  0
    4.8220    0.3031    0.7302 C   0  0  0  0  0  0  0  0  0  0  0  0
    3.3058    0.3619    0.9497 C   0  0  0  0  0  0  0  0  0  0  0  0
   -1.5425   -0.8242   -1.4764 C   0  0  0  0  0  0  0  0  0  0  0  0
   -0.7190   -1.2746   -2.2581 O   0  0  0  0  0  0  0  0  0  0  0  0
   -3.0168   -0.6258   -1.7690 C   0  0  0  0  0  0  0  0  0  0  0  0
   -3.4289    1.5828    1.8760 H   0  0  0  0  0  0  0  0  0  0  0  0
   -1.6732    1.5359    2.1008 H   0  0  0  0  0  0  0  0  0  0  0  0
   -2.6393    0.1059    2.4085 H   0  0  0  0  0  0  0  0  0  0  0  0
   -3.2150    2.4432   -0.5110 H   0  0  0  0  0  0  0  0  0  0  0  0
   -1.9502    1.8145   -1.5583 H   0  0  0  0  0  0  0  0  0  0  0  0
   -1.5302    2.6077   -0.0449 H   0  0  0  0  0  0  0  0  0  0  0  0
   -4.4942    0.1509   -0.3059 H   0  0  0  0  0  0  0  0  0  0  0  0
   -3.9041   -1.4894    1.4658 H   0  0  0  0  0  0  0  0  0  0  0  0
   -3.8350   -2.4522   -0.0121 H   0  0  0  0  0  0  0  0  0  0  0  0
   -1.6264   -1.7915    1.7629 H   0  0  0  0  0  0  0  0  0  0  0  0
   -1.5262   -2.6909    0.2449 H   0  0  0  0  0  0  0  0  0  0  0  0
    0.7385   -1.2024   -0.0406 H   0  0  0  0  0  0  0  0  0  0  0  0
    0.3269   -0.3197    1.4312 H   0  0  0  0  0  0  0  0  0  0  0  0
    2.6103    0.0006   -2.3782 H   0  0  0  0  0  0  0  0  0  0  0  0
    2.6663   -1.2995   -1.1581 H   0  0  0  0  0  0  0  0  0  0  0  0
    4.8639   -1.0829   -2.2562 H   0  0  0  0  0  0  0  0  0  0  0  0
    4.9519    0.6399   -1.8565 H   0  0  0  0  0  0  0  0  0  0  0  0
    5.2178    1.2793    0.4255 H   0  0  0  0  0  0  0  0  0  0  0  0
    5.3213    0.0148    1.6605 H   0  0  0  0  0  0  0  0  0  0  0  0
    3.0836    1.1353    1.6907 H   0  0  0  0  0  0  0  0  0  0  0  0
    2.9503   -0.6051    1.3229 H   0  0  0  0  0  0  0  0  0  0  0  0
   -3.1629    0.2018   -2.4657 H   0  0  0  0  0  0  0  0  0  0  0  0
   -3.4668   -1.5428   -2.1567 H   0  0  0  0  0  0  0  0  0  0  0  0
  1  2  1  0
  2  3  1  0
  2  4  1  0
  4  5  1  0
  5  6  1  0
  6  7  1  0
  7  8  1  0
  8  9  1  0
  9 10  2  0
  9 11  2  0
  9 12  1  0
 12 13  1  0
 13 14  1  0
 14 15  1  0
 15 16  1  0
 16 17  1  0
  7 18  1  0
 18 19  2  0
 18 20  1  0
  7  2  1  0
 17 12  1  0
 20  4  1  0
  1 21  1  0
  1 22  1  0
  1 23  1  0
  3 24  1  0
  3 25  1  0
  3 26  1  0
  4 27  1  0
  5 28  1  0
  5 29  1  0
  6 30  1  0
  6 31  1  0
  8 32  1  0
  8 33  1  0
 13 34  1  0
 13 35  1  0
 14 36  1  0
 14 37  1  0
 16 38  1  0
 16 39  1  0
 17 40  1  0
 17 41  1  0
 20 42  1  0
 20 43  1  0
M  END
$$$$
