
     RDKit          3D

 61 67  0  0  0  0  0  0  0  0999 V2000
    2.5633    3.0024   -1.0731 O   0  0  0  0  0  0  0  0  0  0  0  0
    2.7352    1.8323   -0.7366 C   0  0  0  0  0  0  0  0  0  0  0  0
    4.0417    1.2113   -1.0521 C   0  0  0  0  0  0  0  0  0  0  0  0
    4.5611    1.3690   -2.3564 C   0  0  0  0  0  0  0  0  0  0  0  0
    5.8138    0.8440   -2.6858 C   0  0  0  0  0  0  0  0  0  0  0  0
    6.5138    0.1905   -1.6929 C   0  0  0  0  0  0  0  0  0  0  0  0
    6.0106    0.0478   -0.4183 C   0  0  0  0  0  0  0  0  0  0  0  0
    4.7790    0.5525   -0.0582 C   0  0  0  0  0  0  0  0  0  0  0  0
    6.8636   -0.6220    0.4037 O   0  0  0  0  0  0  0  0  0  0  0  0
    7.9702   -0.8653   -0.4902 C   0  0  0  0  0  0  0  0  0  0  0  0
    7.7450   -0.3698   -1.8285 O   0  0  0  0  0  0  0  0  0  0  0  0
    1.7612    1.0805   -0.0798 N   0  0  0  0  0  0  0  0  0  0  0  0
    0.5647    1.7850    0.3601 C   0  0  0  0  0  0  0  0  0  0  0  0
   -0.2239    1.0013    1.4019 C   0  0  0  0  0  0  0  0  0  0  0  0
   -0.5990   -0.4453    0.9564 C   0  0  0  0  0  0  0  0  0  0  0  0
    0.3067   -0.9053   -0.2163 C   0  0  0  0  0  0  0  0  0  0  0  0
    1.7324   -0.3819   -0.0537 C   0  0  0  0  0  0  0  0  0  0  0  0
   -0.2468   -1.2498    2.1217 O   0  0  0  0  0  0  0  0  0  0  0  0
   -0.7974   -2.4919    2.2346 C   0  0  0  0  0  0  0  0  0  0  0  0
   -0.2442   -3.3212    3.2103 C   0  0  0  0  0  0  0  0  0  0  0  0
   -0.7213   -4.6236    3.3766 C   0  0  0  0  0  0  0  0  0  0  0  0
   -1.7554   -5.0932    2.5671 C   0  0  0  0  0  0  0  0  0  0  0  0
   -2.3273   -6.7021    2.7638 Cl  0  0  0  0  0  0  0  0  0  0  0  0
   -2.3247   -4.2687    1.6011 C   0  0  0  0  0  0  0  0  0  0  0  0
   -1.8448   -2.9633    1.4499 C   0  0  0  0  0  0  0  0  0  0  0  0
   -2.4364   -2.0601    0.4520 C   0  0  0  0  0  0  0  0  0  0  0  0
   -3.1279   -2.5243   -0.4514 O   0  0  0  0  0  0  0  0  0  0  0  0
   -2.1163   -0.5819    0.6247 C   0  0  0  0  0  0  0  0  0  0  0  0
   -2.6073    0.2438   -0.5545 C   0  0  0  0  0  0  0  0  0  0  0  0
   -3.7297    0.9794    0.0875 C   0  0  0  0  0  0  0  0  0  0  0  0
   -4.5868    1.9178   -0.6777 C   0  0  0  0  0  0  0  0  0  0  0  0
   -4.3891    2.1402   -2.0457 C   0  0  0  0  0  0  0  0  0  0  0  0
   -5.2032    3.0458   -2.7323 C   0  0  0  0  0  0  0  0  0  0  0  0
   -6.2130    3.7309   -2.0588 C   0  0  0  0  0  0  0  0  0  0  0  0
   -6.4168    3.5111   -0.6974 C   0  0  0  0  0  0  0  0  0  0  0  0
   -5.6064    2.6070   -0.0076 C   0  0  0  0  0  0  0  0  0  0  0  0
   -3.8770    0.7638    1.3538 N   0  0  0  0  0  0  0  0  0  0  0  0
   -2.8948   -0.1603    1.7619 O   0  0  0  0  0  0  0  0  0  0  0  0
    3.9842    1.9071   -3.1093 H   0  0  0  0  0  0  0  0  0  0  0  0
    6.2257    0.9574   -3.6827 H   0  0  0  0  0  0  0  0  0  0  0  0
    4.4145    0.4521    0.9567 H   0  0  0  0  0  0  0  0  0  0  0  0
    8.1471   -1.9452   -0.5462 H   0  0  0  0  0  0  0  0  0  0  0  0
    8.8660   -0.3786   -0.0834 H   0  0  0  0  0  0  0  0  0  0  0  0
    0.8567    2.7572    0.7749 H   0  0  0  0  0  0  0  0  0  0  0  0
   -0.0390    1.9927   -0.5285 H   0  0  0  0  0  0  0  0  0  0  0  0
   -1.1117    1.5801    1.6780 H   0  0  0  0  0  0  0  0  0  0  0  0
    0.3862    0.9571    2.3151 H   0  0  0  0  0  0  0  0  0  0  0  0
    0.3502   -1.9989   -0.2749 H   0  0  0  0  0  0  0  0  0  0  0  0
   -0.0882   -0.5496   -1.1752 H   0  0  0  0  0  0  0  0  0  0  0  0
    2.3542   -0.7852   -0.8603 H   0  0  0  0  0  0  0  0  0  0  0  0
    2.1595   -0.7066    0.9021 H   0  0  0  0  0  0  0  0  0  0  0  0
    0.5648   -2.9577    3.8392 H   0  0  0  0  0  0  0  0  0  0  0  0
   -0.2810   -5.2656    4.1354 H   0  0  0  0  0  0  0  0  0  0  0  0
   -3.1385   -4.6303    0.9771 H   0  0  0  0  0  0  0  0  0  0  0  0
   -2.9617   -0.3453   -1.4045 H   0  0  0  0  0  0  0  0  0  0  0  0
   -1.8745    0.9651   -0.9183 H   0  0  0  0  0  0  0  0  0  0  0  0
   -3.6124    1.6238   -2.6015 H   0  0  0  0  0  0  0  0  0  0  0  0
   -5.0492    3.2185   -3.7949 H   0  0  0  0  0  0  0  0  0  0  0  0
   -6.8428    4.4364   -2.5951 H   0  0  0  0  0  0  0  0  0  0  0  0
   -7.2060    4.0428   -0.1711 H   0  0  0  0  0  0  0  0  0  0  0  0
   -5.7768    2.4465    1.0556 H   0  0  0  0  0  0  0  0  0  0  0  0
  1  2  2  0
  2  3  1  0
  3  4  2  0
  4  5  1  0
  5  6  2  0
  6  7  1  0
  7  8  2  0
  7  9  1  0
  9 10  1  0
 10 11  1  0
  2 12  1  0
 12 13  1  0
 13 14  1  0
 14 15  1  0
 15 16  1  0
 16 17  1  0
 15 18  1  0
 18 19  1  0
 19 20  2  0
 20 21  1  0
 21 22  2  0
 22 23  1  0
 22 24  1  0
 24 25  2  0
 25 26  1  0
 26 27  2  0
 26 28  1  0
 28 29  1  0
 29 30  1  0
 30 31  1  0
 31 32  2  0
 32 33  1  0
 33 34  2  0
 34 35  1  0
 35 36  2  0
 30 37  2  0
 37 38  1  0
  8  3  1  0
 17 12  1  0
 25 19  1  0
 38 28  1  0
 11  6  1  0
 28 15  1  0
 36 31  1  0
  4 39  1  0
  5 40  1  0
  8 41  1  0
 10 42  1  0
 10 43  1  0
 13 44  1  0
 13 45  1  0
 14 46  1  0
 14 47  1  0
 16 48  1  0
 16 49  1  0
 17 50  1  0
 17 51  1  0
 20 52  1  0
 21 53  1  0
 24 54  1  0
 29 55  1  0
 29 56  1  0
 32 57  1  0
 33 58  1  0
 34 59  1  0
 35 60  1  0
 36 61  1  0
M  END
$$$$
