
     RDKit          3D

 70 75  0  0  0  0  0  0  0  0999 V2000
   -5.7692   -3.2782    2.3420 C   0  0  0  0  0  0  0  0  0  0  0  0
   -4.5768   -2.7242    1.6054 C   0  0  0  0  0  0  0  0  0  0  0  0
   -3.8061   -1.7155    2.2335 C   0  0  0  0  0  0  0  0  0  0  0  0
   -2.6854   -1.1607    1.6145 C   0  0  0  0  0  0  0  0  0  0  0  0
   -2.3440   -1.6202    0.3554 C   0  0  0  0  0  0  0  0  0  0  0  0
   -3.1044   -2.6169   -0.2712 C   0  0  0  0  0  0  0  0  0  0  0  0
   -4.2364   -3.1776    0.3096 C   0  0  0  0  0  0  0  0  0  0  0  0
   -5.0219   -4.2559   -0.3785 C   0  0  0  0  0  0  0  0  0  0  0  0
   -2.5455   -2.9247   -1.5106 N   0  0  0  0  0  0  0  0  0  0  0  0
   -1.4017   -2.1661   -1.7677 C   0  0  0  0  0  0  0  0  0  0  0  0
   -0.7069   -2.2686   -2.7677 O   0  0  0  0  0  0  0  0  0  0  0  0
   -1.2132   -1.2294   -0.5470 C   0  0  1  0  0  0  0  0  0  0  0  0
   -1.3293    0.2147   -0.8947 C   0  0  0  0  0  0  0  0  0  0  0  0
   -0.0539    0.8027   -0.9098 C   0  0  0  0  0  0  0  0  0  0  0  0
   -0.1766    2.1228   -1.2469 C   0  0  0  0  0  0  0  0  0  0  0  0
    0.7682    3.0339   -1.4666 O   0  0  0  0  0  0  0  0  0  0  0  0
   -1.5567    2.3900   -1.4151 N   0  0  0  0  0  0  0  0  0  0  0  0
   -2.1408    3.6601   -1.7572 C   0  0  0  0  0  0  0  0  0  0  0  0
   -3.3940    3.7296   -2.3836 C   0  0  0  0  0  0  0  0  0  0  0  0
   -3.9613    4.9647   -2.7151 C   0  0  0  0  0  0  0  0  0  0  0  0
   -3.2863    6.1463   -2.4244 C   0  0  0  0  0  0  0  0  0  0  0  0
   -2.0423    6.0936   -1.8031 C   0  0  0  0  0  0  0  0  0  0  0  0
   -1.4718    4.8599   -1.4719 C   0  0  0  0  0  0  0  0  0  0  0  0
   -2.2575    1.1822   -1.1831 C   0  0  0  0  0  0  0  0  0  0  0  0
   -3.5866    1.1051   -1.1959 O   0  0  0  0  0  0  0  0  0  0  0  0
    0.9741   -0.2216   -0.6236 C   0  0  1  0  0  0  0  0  0  0  0  0
    2.1454    0.1336    0.2867 C   0  0  0  0  0  0  0  0  0  0  0  0
    2.9185   -1.0772    0.6291 N   0  0  0  0  0  0  0  0  0  0  0  0
    4.2405   -1.0055    1.0372 C   0  0  0  0  0  0  0  0  0  0  0  0
    4.8453   -1.9455    1.5365 O   0  0  0  0  0  0  0  0  0  0  0  0
    4.7765    0.2219    0.8145 O   0  0  0  0  0  0  0  0  0  0  0  0
    6.1541    0.5123    1.1651 C   0  0  0  0  0  0  0  0  0  0  0  0
    6.3861    0.3854    2.6748 C   0  0  0  0  0  0  0  0  0  0  0  0
    6.3535    1.9815    0.7615 C   0  0  0  0  0  0  0  0  0  0  0  0
    7.1285   -0.3525    0.3582 C   0  0  0  0  0  0  0  0  0  0  0  0
    2.1438   -2.2657    1.0250 C   0  0  0  0  0  0  0  0  0  0  0  0
    0.8670   -2.5035    0.1788 C   0  0  0  0  0  0  0  0  0  0  0  0
    0.1343   -1.2530    0.0624 N   0  0  0  0  0  0  0  0  0  0  0  0
   -6.6951   -2.9363    1.8694 H   0  0  0  0  0  0  0  0  0  0  0  0
   -5.7823   -2.9514    3.3871 H   0  0  0  0  0  0  0  0  0  0  0  0
   -5.7430   -4.3725    2.3482 H   0  0  0  0  0  0  0  0  0  0  0  0
   -4.0813   -1.3599    3.2260 H   0  0  0  0  0  0  0  0  0  0  0  0
   -2.0981   -0.3915    2.1082 H   0  0  0  0  0  0  0  0  0  0  0  0
   -6.0958   -4.1340   -0.2057 H   0  0  0  0  0  0  0  0  0  0  0  0
   -4.8850   -4.2303   -1.4638 H   0  0  0  0  0  0  0  0  0  0  0  0
   -4.7092   -5.2379   -0.0112 H   0  0  0  0  0  0  0  0  0  0  0  0
   -2.8821   -3.6216   -2.1575 H   0  0  0  0  0  0  0  0  0  0  0  0
    1.6362    2.6016   -1.3951 H   0  0  0  0  0  0  0  0  0  0  0  0
   -3.9420    2.8351   -2.6636 H   0  0  0  0  0  0  0  0  0  0  0  0
   -4.9298    4.9985   -3.2070 H   0  0  0  0  0  0  0  0  0  0  0  0
   -3.7282    7.1046   -2.6816 H   0  0  0  0  0  0  0  0  0  0  0  0
   -1.5124    7.0131   -1.5679 H   0  0  0  0  0  0  0  0  0  0  0  0
   -0.5161    4.8726   -0.9572 H   0  0  0  0  0  0  0  0  0  0  0  0
   -3.8454    0.2327   -0.8496 H   0  0  0  0  0  0  0  0  0  0  0  0
    1.3521   -0.6142   -1.5790 H   0  0  0  0  0  0  0  0  0  0  0  0
    2.7890    0.8690   -0.2079 H   0  0  0  0  0  0  0  0  0  0  0  0
    1.8062    0.5825    1.2293 H   0  0  0  0  0  0  0  0  0  0  0  0
    6.3271   -0.6533    3.0130 H   0  0  0  0  0  0  0  0  0  0  0  0
    7.3732    0.7659    2.9590 H   0  0  0  0  0  0  0  0  0  0  0  0
    5.6244    0.9413    3.2334 H   0  0  0  0  0  0  0  0  0  0  0  0
    7.3688    2.3292    0.9790 H   0  0  0  0  0  0  0  0  0  0  0  0
    5.6444    2.6301    1.2894 H   0  0  0  0  0  0  0  0  0  0  0  0
    6.1621    2.1213   -0.3088 H   0  0  0  0  0  0  0  0  0  0  0  0
    6.8862   -0.3172   -0.7101 H   0  0  0  0  0  0  0  0  0  0  0  0
    8.1631   -0.0177    0.4919 H   0  0  0  0  0  0  0  0  0  0  0  0
    7.0845   -1.4046    0.6553 H   0  0  0  0  0  0  0  0  0  0  0  0
    2.7825   -3.1551    0.9788 H   0  0  0  0  0  0  0  0  0  0  0  0
    1.8651   -2.1193    2.0766 H   0  0  0  0  0  0  0  0  0  0  0  0
    0.2587   -3.2699    0.6719 H   0  0  0  0  0  0  0  0  0  0  0  0
    1.1544   -2.8887   -0.8069 H   0  0  0  0  0  0  0  0  0  0  0  0
  1  2  1  0
  2  3  2  0
  3  4  1  0
  4  5  2  0
  5  6  1  0
  6  7  2  0
  7  8  1  0
  6  9  1  0
  9 10  1  0
 10 11  2  0
 10 12  1  0
 12 13  1  0
 13 14  1  0
 14 15  2  0
 15 16  1  0
 15 17  1  0
 17 18  1  0
 18 19  2  0
 19 20  1  0
 20 21  2  0
 21 22  1  0
 22 23  2  0
 17 24  1  0
 24 25  1  0
 14 26  1  0
 26 27  1  0
 27 28  1  0
 28 29  1  0
 29 30  2  0
 29 31  1  0
 31 32  1  0
 32 33  1  0
 32 34  1  0
 32 35  1  0
 28 36  1  0
 36 37  1  0
 37 38  1  0
  7  2  1  0
 12 38  1  1
 12  5  1  0
 24 13  2  0
 38 26  1  0
 23 18  1  0
  1 39  1  0
  1 40  1  0
  1 41  1  0
  3 42  1  0
  4 43  1  0
  8 44  1  0
  8 45  1  0
  8 46  1  0
  9 47  1  0
 16 48  1  0
 19 49  1  0
 20 50  1  0
 21 51  1  0
 22 52  1  0
 23 53  1  0
 25 54  1  0
 26 55  1  6
 27 56  1  0
 27 57  1  0
 33 58  1  0
 33 59  1  0
 33 60  1  0
 34 61  1  0
 34 62  1  0
 34 63  1  0
 35 64  1  0
 35 65  1  0
 35 66  1  0
 36 67  1  0
 36 68  1  0
 37 69  1  0
 37 70  1  0
M  END
$$$$
