
     RDKit          3D

 40 42  0  0  0  0  0  0  0  0999 V2000
   -2.3759    4.0361    3.2800 C   0  0  0  0  0  0  0  0  0  0  0  0
   -1.7116    3.2366    2.3083 O   0  0  0  0  0  0  0  0  0  0  0  0
   -1.9295    1.8854    2.3665 C   0  0  0  0  0  0  0  0  0  0  0  0
   -2.7205    1.2240    3.3007 C   0  0  0  0  0  0  0  0  0  0  0  0
   -2.8789   -0.1670    3.2564 C   0  0  0  0  0  0  0  0  0  0  0  0
   -2.2128   -0.8833    2.2498 C   0  0  0  0  0  0  0  0  0  0  0  0
   -1.3943   -0.2527    1.3065 C   0  0  0  0  0  0  0  0  0  0  0  0
   -1.2710    1.1533    1.3697 C   0  0  0  0  0  0  0  0  0  0  0  0
   -0.8748   -1.2757    0.4529 C   0  0  0  0  0  0  0  0  0  0  0  0
    0.0143   -1.1737   -0.6607 C   0  0  0  0  0  0  0  0  0  0  0  0
    1.0308   -0.3004   -0.7582 C   0  0  0  0  0  0  0  0  0  0  0  0
    1.9311   -0.2017   -1.9115 C   0  0  0  0  0  0  0  0  0  0  0  0
    2.4191   -1.3240   -2.5785 C   0  0  0  0  0  0  0  0  0  0  0  0
    3.2930   -1.1644   -3.6482 C   0  0  0  0  0  0  0  0  0  0  0  0
    3.6768    0.0688   -4.0465 N   0  0  0  0  0  4  0  0  0  0  0  0
    4.6099    0.2126   -5.1766 C   0  0  0  0  0  0  0  0  0  0  0  0
    3.2350    1.1707   -3.4006 C   0  0  0  0  0  0  0  0  0  0  0  0
    2.3620    1.0579   -2.3248 C   0  0  0  0  0  0  0  0  0  0  0  0
   -1.4112   -2.4757    0.8665 C   0  0  0  0  0  0  0  0  0  0  0  0
   -2.2017   -2.2312    1.9587 N   0  0  0  0  0  0  0  0  0  0  0  0
   -2.9295   -3.2432    2.6930 C   0  0  0  0  0  0  0  0  0  0  0  0
   -2.1095    5.0805    3.0914 H   0  0  0  0  0  0  0  0  0  0  0  0
   -3.4635    3.9480    3.1875 H   0  0  0  0  0  0  0  0  0  0  0  0
   -2.0420    3.7850    4.2921 H   0  0  0  0  0  0  0  0  0  0  0  0
   -3.2431    1.7615    4.0858 H   0  0  0  0  0  0  0  0  0  0  0  0
   -3.5084   -0.6679    3.9858 H   0  0  0  0  0  0  0  0  0  0  0  0
   -0.6729    1.6858    0.6380 H   0  0  0  0  0  0  0  0  0  0  0  0
   -0.1647   -1.8828   -1.4659 H   0  0  0  0  0  0  0  0  0  0  0  0
    1.2238    0.3980    0.0541 H   0  0  0  0  0  0  0  0  0  0  0  0
    2.1367   -2.3274   -2.2658 H   0  0  0  0  0  0  0  0  0  0  0  0
    3.6951   -2.0177   -4.1872 H   0  0  0  0  0  0  0  0  0  0  0  0
    4.4070    1.1556   -5.6907 H   0  0  0  0  0  0  0  0  0  0  0  0
    4.4610   -0.6173   -5.8723 H   0  0  0  0  0  0  0  0  0  0  0  0
    5.6232    0.2014   -4.7678 H   0  0  0  0  0  0  0  0  0  0  0  0
    3.5872    2.1375   -3.7495 H   0  0  0  0  0  0  0  0  0  0  0  0
    2.0154    1.9577   -1.8187 H   0  0  0  0  0  0  0  0  0  0  0  0
   -1.2853   -3.4814    0.4868 H   0  0  0  0  0  0  0  0  0  0  0  0
   -2.5834   -3.2337    3.7297 H   0  0  0  0  0  0  0  0  0  0  0  0
   -2.7412   -4.2243    2.2495 H   0  0  0  0  0  0  0  0  0  0  0  0
   -3.9960   -3.0106    2.6372 H   0  0  0  0  0  0  0  0  0  0  0  0
  1  2  1  0
  2  3  1  0
  3  4  2  0
  4  5  1  0
  5  6  2  0
  6  7  1  0
  7  8  2  0
  7  9  1  0
  9 10  1  0
 10 11  2  3
 11 12  1  0
 12 13  2  0
 13 14  1  0
 14 15  2  0
 15 16  1  0
 15 17  1  0
 17 18  2  0
  9 19  2  0
 19 20  1  0
 20 21  1  0
  8  3  1  0
 18 12  1  0
 20  6  1  0
  1 22  1  0
  1 23  1  0
  1 24  1  0
  4 25  1  0
  5 26  1  0
  8 27  1  0
 10 28  1  0
 11 29  1  0
 13 30  1  0
 14 31  1  0
 16 32  1  0
 16 33  1  0
 16 34  1  0
 17 35  1  0
 18 36  1  0
 19 37  1  0
 21 38  1  0
 21 39  1  0
 21 40  1  0
M  CHG  1  15   1
M  END
$$$$
