
     RDKit          3D

 44 46  0  0  0  0  0  0  0  0999 V2000
   -6.8039    1.4180    0.2776 C   0  0  0  0  0  0  0  0  0  0  0  0
   -5.4722    0.7947   -0.0184 C   0  0  0  0  0  0  0  0  0  0  0  0
   -5.3544   -0.1851   -1.0108 C   0  0  0  0  0  0  0  0  0  0  0  0
   -4.1163   -0.7805   -1.2936 C   0  0  0  0  0  0  0  0  0  0  0  0
   -4.0106   -1.7917   -2.4028 C   0  0  0  0  0  0  0  0  0  0  0  0
   -2.9872   -0.3713   -0.5664 C   0  0  0  0  0  0  0  0  0  0  0  0
   -1.7716   -0.9416   -0.8553 O   0  0  0  0  0  0  0  0  0  0  0  0
   -1.0304   -0.1186   -1.7738 C   0  0  0  0  0  0  0  0  0  0  0  0
    0.4630   -0.1148   -1.4368 C   0  0  0  0  0  0  0  0  0  0  0  0
    1.2606    0.5176   -2.1275 O   0  0  0  0  0  0  0  0  0  0  0  0
    0.7416   -0.8221   -0.2920 N   0  0  0  0  0  0  0  0  0  0  0  0
    1.9761   -0.8602    0.2898 C   0  0  0  0  0  0  0  0  0  0  0  0
    3.1073   -0.3570   -0.1270 N   0  0  0  0  0  0  0  0  0  0  0  0
    4.0851   -0.5687    0.8446 C   0  0  0  0  0  0  0  0  0  0  0  0
    5.4525   -0.0959    0.6856 C   0  0  0  0  0  0  0  0  0  0  0  0
    6.0888   -0.1832   -0.5524 C   0  0  0  0  0  0  0  0  0  0  0  0
    7.4121    0.2391   -0.6526 C   0  0  0  0  0  0  0  0  0  0  0  0
    8.0538    0.7341    0.4806 C   0  0  0  0  0  0  0  0  0  0  0  0
    7.3401    0.7948    1.6700 C   0  0  0  0  0  0  0  0  0  0  0  0
    6.0598    0.3862    1.8044 N   0  0  0  0  0  0  0  0  0  0  0  0
    3.6709   -1.2867    1.9546 C   0  0  0  0  0  0  0  0  0  0  0  0
    2.0095   -1.6834    1.7896 S   0  0  0  0  0  0  0  0  0  0  0  0
   -3.0952    0.5606    0.4784 C   0  0  0  0  0  0  0  0  0  0  0  0
   -1.9248    0.9908    1.3135 C   0  0  0  0  0  0  0  0  0  0  0  0
   -4.3429    1.1501    0.7258 C   0  0  0  0  0  0  0  0  0  0  0  0
   -6.6816    2.3820    0.7821 H   0  0  0  0  0  0  0  0  0  0  0  0
   -7.3570    1.6060   -0.6490 H   0  0  0  0  0  0  0  0  0  0  0  0
   -7.3936    0.7575    0.9212 H   0  0  0  0  0  0  0  0  0  0  0  0
   -6.2370   -0.4800   -1.5758 H   0  0  0  0  0  0  0  0  0  0  0  0
   -3.4255   -2.6626   -2.0883 H   0  0  0  0  0  0  0  0  0  0  0  0
   -4.9974   -2.1580   -2.7039 H   0  0  0  0  0  0  0  0  0  0  0  0
   -3.5358   -1.3296   -3.2768 H   0  0  0  0  0  0  0  0  0  0  0  0
   -1.3615    0.9292   -1.7591 H   0  0  0  0  0  0  0  0  0  0  0  0
   -1.1486   -0.5251   -2.7844 H   0  0  0  0  0  0  0  0  0  0  0  0
   -0.0174   -1.2972    0.1786 H   0  0  0  0  0  0  0  0  0  0  0  0
    5.5726   -0.6141   -1.4080 H   0  0  0  0  0  0  0  0  0  0  0  0
    7.9424    0.1638   -1.6028 H   0  0  0  0  0  0  0  0  0  0  0  0
    9.0867    1.0600    0.4387 H   0  0  0  0  0  0  0  0  0  0  0  0
    7.8012    1.1554    2.5884 H   0  0  0  0  0  0  0  0  0  0  0  0
    4.2604   -1.6043    2.8081 H   0  0  0  0  0  0  0  0  0  0  0  0
   -2.2502    1.1987    2.3427 H   0  0  0  0  0  0  0  0  0  0  0  0
   -1.4636    1.8984    0.8986 H   0  0  0  0  0  0  0  0  0  0  0  0
   -1.1721    0.1975    1.3870 H   0  0  0  0  0  0  0  0  0  0  0  0
   -4.4335    1.8973    1.5089 H   0  0  0  0  0  0  0  0  0  0  0  0
  1  2  1  0
  2  3  2  0
  3  4  1  0
  4  5  1  0
  4  6  2  0
  6  7  1  0
  7  8  1  0
  8  9  1  0
  9 10  2  0
  9 11  1  0
 11 12  1  0
 12 13  2  0
 13 14  1  0
 14 15  1  0
 15 16  2  0
 16 17  1  0
 17 18  2  0
 18 19  1  0
 19 20  2  0
 14 21  2  0
 21 22  1  0
  6 23  1  0
 23 24  1  0
 23 25  2  0
 25  2  1  0
 22 12  1  0
 20 15  1  0
  1 26  1  0
  1 27  1  0
  1 28  1  0
  3 29  1  0
  5 30  1  0
  5 31  1  0
  5 32  1  0
  8 33  1  0
  8 34  1  0
 11 35  1  0
 16 36  1  0
 17 37  1  0
 18 38  1  0
 19 39  1  0
 21 40  1  0
 24 41  1  0
 24 42  1  0
 24 43  1  0
 25 44  1  0
M  END
$$$$
