
     RDKit          3D

 44 45  0  0  0  0  0  0  0  0999 V2000
    7.6633    2.5807   -0.1437 C   0  0  0  0  0  0  0  0  0  0  0  0
    7.6890    1.2098    0.5065 C   0  0  0  0  0  0  0  0  0  0  0  0
    6.3501    0.7145    0.6598 O   0  0  0  0  0  0  0  0  0  0  0  0
    5.8573    0.0141   -0.3922 C   0  0  0  0  0  0  0  0  0  0  0  0
    6.4419   -0.2227   -1.4376 O   0  0  0  0  0  0  0  0  0  0  0  0
    4.4724   -0.4525   -0.1061 C   0  0  0  0  0  0  0  0  0  0  0  0
    3.7611   -0.0455    1.0329 C   0  0  0  0  0  0  0  0  0  0  0  0
    2.4597   -0.5068    1.2533 C   0  0  0  0  0  0  0  0  0  0  0  0
    1.8677   -1.3719    0.3271 C   0  0  0  0  0  0  0  0  0  0  0  0
    0.2261   -1.9802    0.6168 S   0  0  0  0  0  6  0  0  0  0  0  0
   -0.0758   -1.8311    2.0267 O   0  0  0  0  0  0  0  0  0  0  0  0
    0.0679   -3.2325   -0.0852 O   0  0  0  0  0  0  0  0  0  0  0  0
   -0.7103   -0.7917   -0.2255 N   0  0  0  0  0  0  0  0  0  0  0  0
   -1.9279   -0.4875    0.4924 N   0  0  0  0  0  0  0  0  0  0  0  0
   -3.1723   -1.6324    0.1101 S   0  0  0  0  0  6  0  0  0  0  0  0
   -3.2808   -2.5303    1.2366 O   0  0  0  0  0  0  0  0  0  0  0  0
   -2.9080   -2.1011   -1.2365 O   0  0  0  0  0  0  0  0  0  0  0  0
   -4.5958   -0.5795    0.0732 C   0  0  0  0  0  0  0  0  0  0  0  0
   -4.9117    0.1099   -1.1002 C   0  0  0  0  0  0  0  0  0  0  0  0
   -6.0463    0.9217   -1.1358 C   0  0  0  0  0  0  0  0  0  0  0  0
   -6.8756    1.0331   -0.0108 C   0  0  0  0  0  0  0  0  0  0  0  0
   -8.0795    1.9295   -0.0482 C   0  0  0  0  0  0  0  0  0  0  0  0
   -6.5444    0.3367    1.1602 C   0  0  0  0  0  0  0  0  0  0  0  0
   -5.4120   -0.4781    1.2029 C   0  0  0  0  0  0  0  0  0  0  0  0
    2.5702   -1.7967   -0.8041 C   0  0  0  0  0  0  0  0  0  0  0  0
    3.8688   -1.3294   -1.0214 C   0  0  0  0  0  0  0  0  0  0  0  0
    7.0609    3.2760    0.4509 H   0  0  0  0  0  0  0  0  0  0  0  0
    8.6752    2.9842   -0.2398 H   0  0  0  0  0  0  0  0  0  0  0  0
    7.2072    2.5362   -1.1382 H   0  0  0  0  0  0  0  0  0  0  0  0
    8.1201    1.2859    1.5111 H   0  0  0  0  0  0  0  0  0  0  0  0
    8.3137    0.5084   -0.0595 H   0  0  0  0  0  0  0  0  0  0  0  0
    4.2083    0.6318    1.7575 H   0  0  0  0  0  0  0  0  0  0  0  0
    1.9207   -0.1875    2.1435 H   0  0  0  0  0  0  0  0  0  0  0  0
   -0.9202   -1.1839   -1.1624 H   0  0  0  0  0  0  0  0  0  0  0  0
   -1.7830   -0.5396    1.5179 H   0  0  0  0  0  0  0  0  0  0  0  0
   -4.2851    0.0237   -1.9852 H   0  0  0  0  0  0  0  0  0  0  0  0
   -6.2858    1.4646   -2.0488 H   0  0  0  0  0  0  0  0  0  0  0  0
   -8.8093    1.6436    0.7165 H   0  0  0  0  0  0  0  0  0  0  0  0
   -8.5815    1.8611   -1.0189 H   0  0  0  0  0  0  0  0  0  0  0  0
   -7.7786    2.9669    0.1258 H   0  0  0  0  0  0  0  0  0  0  0  0
   -7.1737    0.4195    2.0459 H   0  0  0  0  0  0  0  0  0  0  0  0
   -5.1801   -1.0265    2.1143 H   0  0  0  0  0  0  0  0  0  0  0  0
    2.1223   -2.4871   -1.5163 H   0  0  0  0  0  0  0  0  0  0  0  0
    4.4136   -1.6574   -1.9063 H   0  0  0  0  0  0  0  0  0  0  0  0
  1  2  1  0
  2  3  1  0
  3  4  1  0
  4  5  2  0
  4  6  1  0
  6  7  2  0
  7  8  1  0
  8  9  2  0
  9 10  1  0
 10 11  2  0
 10 12  2  0
 10 13  1  0
 13 14  1  0
 14 15  1  0
 15 16  2  0
 15 17  2  0
 15 18  1  0
 18 19  2  0
 19 20  1  0
 20 21  2  0
 21 22  1  0
 21 23  1  0
 23 24  2  0
  9 25  1  0
 25 26  2  0
 26  6  1  0
 24 18  1  0
  1 27  1  0
  1 28  1  0
  1 29  1  0
  2 30  1  0
  2 31  1  0
  7 32  1  0
  8 33  1  0
 13 34  1  0
 14 35  1  0
 19 36  1  0
 20 37  1  0
 22 38  1  0
 22 39  1  0
 22 40  1  0
 23 41  1  0
 24 42  1  0
 25 43  1  0
 26 44  1  0
M  END
$$$$
