
     RDKit          3D

 55 60  0  0  0  0  0  0  0  0999 V2000
    3.5842   -2.6135    1.4515 O   0  0  0  0  0  0  0  0  0  0  0  0
    3.5911   -1.3878    1.3510 C   0  0  0  0  0  0  0  0  0  0  0  0
    4.3514   -0.5936    2.3048 C   0  0  0  0  0  0  0  0  0  0  0  0
    5.2098    0.5302    2.1232 C   0  0  0  0  0  0  0  0  0  0  0  0
    5.7034    0.8552    3.3652 C   0  0  0  0  0  0  0  0  0  0  0  0
    5.2332   -0.0072    4.3009 O   0  0  0  0  0  0  0  0  0  0  0  0
    4.4362   -0.8931    3.6517 C   0  0  0  0  0  0  0  0  0  0  0  0
    2.8738   -0.7224    0.3424 N   0  0  0  0  0  0  0  0  0  0  0  0
    2.1119   -1.5394   -0.6013 C   0  0  0  0  0  0  0  0  0  0  0  0
    0.6273   -1.2050   -0.4938 C   0  0  0  0  0  0  0  0  0  0  0  0
    0.3451    0.2488   -0.9703 C   0  0  0  0  0  0  0  0  0  0  0  0
    1.6062    1.1334   -0.7192 C   0  0  0  0  0  0  0  0  0  0  0  0
    2.4443    0.6717    0.4705 C   0  0  0  0  0  0  0  0  0  0  0  0
    0.1612    0.1181   -2.4075 O   0  0  0  0  0  0  0  0  0  0  0  0
   -0.3364    1.2114   -3.0564 C   0  0  0  0  0  0  0  0  0  0  0  0
   -0.1451    1.2452   -4.4387 C   0  0  0  0  0  0  0  0  0  0  0  0
   -0.6073    2.3342   -5.1793 C   0  0  0  0  0  0  0  0  0  0  0  0
   -1.2624    3.3776   -4.5328 C   0  0  0  0  0  0  0  0  0  0  0  0
   -1.7036    4.4201   -5.2475 F   0  0  0  0  0  0  0  0  0  0  0  0
   -1.4737    3.3499   -3.1604 C   0  0  0  0  0  0  0  0  0  0  0  0
   -1.0144    2.2533   -2.4258 C   0  0  0  0  0  0  0  0  0  0  0  0
   -1.2621    2.1701   -0.9754 C   0  0  0  0  0  0  0  0  0  0  0  0
   -1.7400    3.1361   -0.3889 O   0  0  0  0  0  0  0  0  0  0  0  0
   -0.9426    0.8294   -0.3203 C   0  0  0  0  0  0  0  0  0  0  0  0
   -2.1899   -0.0408   -0.4208 C   0  0  0  0  0  0  0  0  0  0  0  0
   -2.2919   -0.4883    0.9955 C   0  0  0  0  0  0  0  0  0  0  0  0
   -3.2508   -1.5350    1.4210 C   0  0  0  0  0  0  0  0  0  0  0  0
   -4.1897   -2.0726    0.5322 C   0  0  0  0  0  0  0  0  0  0  0  0
   -5.0783   -3.0621    0.9672 C   0  0  0  0  0  0  0  0  0  0  0  0
   -5.0292   -3.5125    2.2859 C   0  0  0  0  0  0  0  0  0  0  0  0
   -6.1230   -4.7302    2.8133 Cl  0  0  0  0  0  0  0  0  0  0  0  0
   -4.1011   -2.9802    3.1774 C   0  0  0  0  0  0  0  0  0  0  0  0
   -3.2129   -1.9912    2.7458 C   0  0  0  0  0  0  0  0  0  0  0  0
   -1.4824    0.1014    1.8144 N   0  0  0  0  0  0  0  0  0  0  0  0
   -0.7347    1.0463    1.0795 O   0  0  0  0  0  0  0  0  0  0  0  0
    5.4590    1.0301    1.1978 H   0  0  0  0  0  0  0  0  0  0  0  0
    6.3778    1.6180    3.7296 H   0  0  0  0  0  0  0  0  0  0  0  0
    4.0014   -1.6703    4.2663 H   0  0  0  0  0  0  0  0  0  0  0  0
    2.2645   -2.6085   -0.4246 H   0  0  0  0  0  0  0  0  0  0  0  0
    2.4915   -1.3269   -1.6078 H   0  0  0  0  0  0  0  0  0  0  0  0
    0.3317   -1.3489    0.5504 H   0  0  0  0  0  0  0  0  0  0  0  0
    0.0610   -1.9227   -1.0995 H   0  0  0  0  0  0  0  0  0  0  0  0
    1.3339    2.1844   -0.5704 H   0  0  0  0  0  0  0  0  0  0  0  0
    2.2430    1.1233   -1.6150 H   0  0  0  0  0  0  0  0  0  0  0  0
    1.8854    0.7703    1.4078 H   0  0  0  0  0  0  0  0  0  0  0  0
    3.3222    1.3162    0.5387 H   0  0  0  0  0  0  0  0  0  0  0  0
    0.3734    0.4307   -4.9394 H   0  0  0  0  0  0  0  0  0  0  0  0
   -0.4585    2.3779   -6.2544 H   0  0  0  0  0  0  0  0  0  0  0  0
   -1.9978    4.1720   -2.6806 H   0  0  0  0  0  0  0  0  0  0  0  0
   -3.0930    0.5230   -0.6797 H   0  0  0  0  0  0  0  0  0  0  0  0
   -2.0825   -0.8809   -1.1112 H   0  0  0  0  0  0  0  0  0  0  0  0
   -4.2587   -1.7357   -0.4977 H   0  0  0  0  0  0  0  0  0  0  0  0
   -5.8074   -3.4756    0.2745 H   0  0  0  0  0  0  0  0  0  0  0  0
   -4.0621   -3.3266    4.2075 H   0  0  0  0  0  0  0  0  0  0  0  0
   -2.4925   -1.5810    3.4522 H   0  0  0  0  0  0  0  0  0  0  0  0
  1  2  2  0
  2  3  1  0
  3  4  1  0
  4  5  2  0
  5  6  1  0
  6  7  1  0
  2  8  1  0
  8  9  1  0
  9 10  1  0
 10 11  1  0
 11 12  1  0
 12 13  1  0
 11 14  1  0
 14 15  1  0
 15 16  2  0
 16 17  1  0
 17 18  2  0
 18 19  1  0
 18 20  1  0
 20 21  2  0
 21 22  1  0
 22 23  2  0
 22 24  1  0
 24 25  1  0
 25 26  1  0
 26 27  1  0
 27 28  2  0
 28 29  1  0
 29 30  2  0
 30 31  1  0
 30 32  1  0
 32 33  2  0
 26 34  2  0
 34 35  1  0
  7  3  2  0
 13  8  1  0
 21 15  1  0
 35 24  1  0
 24 11  1  0
 33 27  1  0
  4 36  1  0
  5 37  1  0
  7 38  1  0
  9 39  1  0
  9 40  1  0
 10 41  1  0
 10 42  1  0
 12 43  1  0
 12 44  1  0
 13 45  1  0
 13 46  1  0
 16 47  1  0
 17 48  1  0
 20 49  1  0
 25 50  1  0
 25 51  1  0
 28 52  1  0
 29 53  1  0
 32 54  1  0
 33 55  1  0
M  END
$$$$
