
     RDKit          3D

 68 70  0  0  0  0  0  0  0  0999 V2000
   -6.9919   -0.3480    2.6782 C   0  0  0  0  0  0  0  0  0  0  0  0
   -6.2299    0.7743    2.2549 O   0  0  0  0  0  0  0  0  0  0  0  0
   -5.0024    0.5173    1.7102 C   0  0  0  0  0  0  0  0  0  0  0  0
   -4.2392    1.6510    1.4296 C   0  0  0  0  0  0  0  0  0  0  0  0
   -2.9623    1.5323    0.8766 C   0  0  0  0  0  0  0  0  0  0  0  0
   -2.4217    0.2691    0.5851 C   0  0  0  0  0  0  0  0  0  0  0  0
   -1.0120    0.1867    0.0048 C   0  0  0  0  0  0  0  0  0  0  0  0
   -0.7429   -1.1227   -0.7968 C   0  0  0  0  0  0  0  0  0  0  0  0
   -0.0287   -2.0316   -0.3782 O   0  0  0  0  0  0  0  0  0  0  0  0
   -1.4108   -1.1826   -2.0121 N   0  0  0  0  0  0  0  0  0  0  0  0
   -1.3853   -2.3355   -2.9284 C   0  0  0  0  0  0  0  0  0  0  0  0
   -2.2391   -1.9789   -4.1608 C   0  0  0  0  0  0  0  0  0  0  0  0
   -1.9908   -3.5795   -2.2583 C   0  0  0  0  0  0  0  0  0  0  0  0
    0.0458   -2.6335   -3.4065 C   0  0  0  0  0  0  0  0  0  0  0  0
    0.0537    0.4294    1.0020 N   0  0  0  0  0  0  0  0  0  0  0  0
    0.0369   -0.3515    2.2422 C   0  0  0  0  0  0  0  0  0  0  0  0
   -0.6975    0.3753    3.3202 C   0  0  0  0  0  0  0  0  0  0  0  0
   -1.6381   -0.0271    4.2483 C   0  0  0  0  0  0  0  0  0  0  0  0
   -1.9679    1.1198    5.0092 C   0  0  0  0  0  0  0  0  0  0  0  0
   -1.2121    2.1475    4.5003 C   0  0  0  0  0  0  0  0  0  0  0  0
   -0.4381    1.7079    3.4775 O   0  0  0  0  0  0  0  0  0  0  0  0
    1.1866    1.1981    0.7582 C   0  0  0  0  0  0  0  0  0  0  0  0
    2.1377    1.2485    1.5406 O   0  0  0  0  0  0  0  0  0  0  0  0
    1.2114    2.0288   -0.5161 C   0  0  0  0  0  0  0  0  0  0  0  0
    2.5041    2.8336   -0.6296 C   0  0  0  0  0  0  0  0  0  0  0  0
    3.6655    1.9462   -1.0418 C   0  0  0  0  0  0  0  0  0  0  0  0
    3.5210    1.0498   -1.8701 O   0  0  0  0  0  0  0  0  0  0  0  0
    4.8515    2.3103   -0.4501 N   0  0  0  0  0  0  0  0  0  0  0  0
    6.0678    1.7059   -0.6713 C   0  0  0  0  0  0  0  0  0  0  0  0
    6.3924    0.6240   -1.5174 C   0  0  0  0  0  0  0  0  0  0  0  0
    7.7426    0.4459   -1.3471 C   0  0  0  0  0  0  0  0  0  0  0  0
    8.7277   -0.4989   -1.8977 C   0  0  0  0  0  0  0  0  0  0  0  0
    8.2029    1.3605   -0.4560 O   0  0  0  0  0  0  0  0  0  0  0  0
    7.1558    2.1593   -0.0362 N   0  0  0  0  0  0  0  0  0  0  0  0
   -3.1952   -0.8666    0.8730 C   0  0  0  0  0  0  0  0  0  0  0  0
   -4.4770   -0.7425    1.4248 C   0  0  0  0  0  0  0  0  0  0  0  0
   -7.2966   -0.9595    1.8227 H   0  0  0  0  0  0  0  0  0  0  0  0
   -6.4466   -0.9440    3.4179 H   0  0  0  0  0  0  0  0  0  0  0  0
   -7.8995    0.0292    3.1592 H   0  0  0  0  0  0  0  0  0  0  0  0
   -4.6371    2.6374    1.6607 H   0  0  0  0  0  0  0  0  0  0  0  0
   -2.3803    2.4352    0.7011 H   0  0  0  0  0  0  0  0  0  0  0  0
   -0.9657    0.9768   -0.7526 H   0  0  0  0  0  0  0  0  0  0  0  0
   -2.1349   -0.4902   -2.1708 H   0  0  0  0  0  0  0  0  0  0  0  0
   -3.2794   -1.7770   -3.8750 H   0  0  0  0  0  0  0  0  0  0  0  0
   -1.8581   -1.0783   -4.6569 H   0  0  0  0  0  0  0  0  0  0  0  0
   -2.2425   -2.7912   -4.8956 H   0  0  0  0  0  0  0  0  0  0  0  0
   -2.0882   -4.4042   -2.9732 H   0  0  0  0  0  0  0  0  0  0  0  0
   -1.3719   -3.9365   -1.4266 H   0  0  0  0  0  0  0  0  0  0  0  0
   -2.9874   -3.3614   -1.8520 H   0  0  0  0  0  0  0  0  0  0  0  0
    0.0575   -3.4524   -4.1342 H   0  0  0  0  0  0  0  0  0  0  0  0
    0.7022   -2.9238   -2.5817 H   0  0  0  0  0  0  0  0  0  0  0  0
    0.4897   -1.7515   -3.8849 H   0  0  0  0  0  0  0  0  0  0  0  0
    1.0574   -0.5508    2.5866 H   0  0  0  0  0  0  0  0  0  0  0  0
   -0.4255   -1.3266    2.0586 H   0  0  0  0  0  0  0  0  0  0  0  0
   -2.0366   -1.0256    4.3563 H   0  0  0  0  0  0  0  0  0  0  0  0
   -2.6723    1.1914    5.8262 H   0  0  0  0  0  0  0  0  0  0  0  0
   -1.1107    3.1958    4.7448 H   0  0  0  0  0  0  0  0  0  0  0  0
    1.0868    1.3742   -1.3844 H   0  0  0  0  0  0  0  0  0  0  0  0
    0.3732    2.7330   -0.4729 H   0  0  0  0  0  0  0  0  0  0  0  0
    2.7226    3.3619    0.3053 H   0  0  0  0  0  0  0  0  0  0  0  0
    2.3955    3.5929   -1.4136 H   0  0  0  0  0  0  0  0  0  0  0  0
    4.8800    3.0441    0.2455 H   0  0  0  0  0  0  0  0  0  0  0  0
    5.7393    0.0473   -2.1546 H   0  0  0  0  0  0  0  0  0  0  0  0
    9.7448   -0.1015   -1.8196 H   0  0  0  0  0  0  0  0  0  0  0  0
    8.5241   -0.6983   -2.9549 H   0  0  0  0  0  0  0  0  0  0  0  0
    8.6864   -1.4484   -1.3540 H   0  0  0  0  0  0  0  0  0  0  0  0
   -2.8113   -1.8686    0.6863 H   0  0  0  0  0  0  0  0  0  0  0  0
   -5.0353   -1.6522    1.6248 H   0  0  0  0  0  0  0  0  0  0  0  0
  1  2  1  0
  2  3  1  0
  3  4  2  0
  4  5  1  0
  5  6  2  0
  6  7  1  0
  7  8  1  0
  8  9  2  0
  8 10  1  0
 10 11  1  0
 11 12  1  0
 11 13  1  0
 11 14  1  0
  7 15  1  0
 15 16  1  0
 16 17  1  0
 17 18  2  0
 18 19  1  0
 19 20  2  0
 20 21  1  0
 15 22  1  0
 22 23  2  0
 22 24  1  0
 24 25  1  0
 25 26  1  0
 26 27  2  0
 26 28  1  0
 28 29  1  0
 29 30  1  0
 30 31  2  0
 31 32  1  0
 31 33  1  0
 33 34  1  0
  6 35  1  0
 35 36  2  0
 36  3  1  0
 21 17  1  0
 34 29  2  0
  1 37  1  0
  1 38  1  0
  1 39  1  0
  4 40  1  0
  5 41  1  0
  7 42  1  0
 10 43  1  0
 12 44  1  0
 12 45  1  0
 12 46  1  0
 13 47  1  0
 13 48  1  0
 13 49  1  0
 14 50  1  0
 14 51  1  0
 14 52  1  0
 16 53  1  0
 16 54  1  0
 18 55  1  0
 19 56  1  0
 20 57  1  0
 24 58  1  0
 24 59  1  0
 25 60  1  0
 25 61  1  0
 28 62  1  0
 30 63  1  0
 32 64  1  0
 32 65  1  0
 32 66  1  0
 35 67  1  0
 36 68  1  0
M  END
$$$$
