
     RDKit          3D

 51 53  0  0  0  0  0  0  0  0999 V2000
  -10.2496    0.4601   -0.9329 C   0  0  0  0  0  0  0  0  0  0  0  0
   -8.7531    0.4418   -0.8396 C   0  0  0  0  0  0  0  0  0  0  0  0
   -8.1193    0.4058    0.4059 C   0  0  0  0  0  0  0  0  0  0  0  0
   -6.7222    0.4205    0.4989 C   0  0  0  0  0  0  0  0  0  0  0  0
   -5.9362    0.4819   -0.6513 C   0  0  0  0  0  0  0  0  0  0  0  0
   -4.5253    0.5018   -0.6477 N   0  0  0  0  0  0  0  0  0  0  0  0
   -3.6792    0.4560    0.4564 C   0  0  0  0  0  0  0  0  0  0  0  0
   -4.0286    0.3904    1.6303 O   0  0  0  0  0  0  0  0  0  0  0  0
   -2.2026    0.5092    0.0363 C   0  0  0  0  0  0  0  0  0  0  0  0
   -1.3357    0.3416    1.1472 O   0  0  0  0  0  0  0  0  0  0  0  0
    0.0070    0.3152    0.8960 C   0  0  0  0  0  0  0  0  0  0  0  0
    0.6203    0.5804   -0.3289 C   0  0  0  0  0  0  0  0  0  0  0  0
    2.0138    0.5211   -0.4420 C   0  0  0  0  0  0  0  0  0  0  0  0
    2.7991    0.2082    0.6681 C   0  0  0  0  0  0  0  0  0  0  0  0
    4.2267    0.1248    0.4864 N   0  0  0  0  0  0  0  0  0  0  0  0
    5.0174    0.9564    1.4261 C   0  0  0  0  0  0  0  0  0  0  0  0
    4.7738   -1.4994    0.3205 S   0  0  0  0  0  6  0  0  0  0  0  0
    4.9155   -2.0648    1.6476 O   0  0  0  0  0  0  0  0  0  0  0  0
    3.9978   -2.1667   -0.7045 O   0  0  0  0  0  0  0  0  0  0  0  0
    6.4080   -1.2766   -0.3534 C   0  0  0  0  0  0  0  0  0  0  0  0
    7.5346   -1.6157    0.4048 C   0  0  0  0  0  0  0  0  0  0  0  0
    8.8049   -1.4389   -0.1451 C   0  0  0  0  0  0  0  0  0  0  0  0
    8.9324   -0.9360   -1.4376 C   0  0  0  0  0  0  0  0  0  0  0  0
   10.1539   -0.7680   -1.9601 F   0  0  0  0  0  0  0  0  0  0  0  0
    7.8130   -0.6075   -2.1976 C   0  0  0  0  0  0  0  0  0  0  0  0
    6.5390   -0.7803   -1.6565 C   0  0  0  0  0  0  0  0  0  0  0  0
    2.1885   -0.0762    1.8900 C   0  0  0  0  0  0  0  0  0  0  0  0
    0.7978   -0.0111    2.0013 C   0  0  0  0  0  0  0  0  0  0  0  0
   -6.5720    0.5324   -1.8983 C   0  0  0  0  0  0  0  0  0  0  0  0
   -7.9675    0.5180   -1.9925 C   0  0  0  0  0  0  0  0  0  0  0  0
  -10.7009   -0.0785   -0.0930 H   0  0  0  0  0  0  0  0  0  0  0  0
  -10.6123    1.4925   -0.9263 H   0  0  0  0  0  0  0  0  0  0  0  0
  -10.5891   -0.0291   -1.8518 H   0  0  0  0  0  0  0  0  0  0  0  0
   -8.7060    0.3643    1.3213 H   0  0  0  0  0  0  0  0  0  0  0  0
   -6.2838    0.3849    1.4912 H   0  0  0  0  0  0  0  0  0  0  0  0
   -4.0886    0.5458   -1.5593 H   0  0  0  0  0  0  0  0  0  0  0  0
   -2.0363    1.4903   -0.4248 H   0  0  0  0  0  0  0  0  0  0  0  0
   -2.0361   -0.2934   -0.6928 H   0  0  0  0  0  0  0  0  0  0  0  0
    0.0506    0.8336   -1.2158 H   0  0  0  0  0  0  0  0  0  0  0  0
    2.4844    0.7151   -1.4020 H   0  0  0  0  0  0  0  0  0  0  0  0
    5.0707    0.5083    2.4227 H   0  0  0  0  0  0  0  0  0  0  0  0
    6.0300    1.1054    1.0418 H   0  0  0  0  0  0  0  0  0  0  0  0
    4.5678    1.9514    1.5197 H   0  0  0  0  0  0  0  0  0  0  0  0
    7.4331   -2.0182    1.4103 H   0  0  0  0  0  0  0  0  0  0  0  0
    9.6957   -1.6944    0.4208 H   0  0  0  0  0  0  0  0  0  0  0  0
    7.9417   -0.2257   -3.2059 H   0  0  0  0  0  0  0  0  0  0  0  0
    5.6584   -0.5351   -2.2463 H   0  0  0  0  0  0  0  0  0  0  0  0
    2.7764   -0.3621    2.7576 H   0  0  0  0  0  0  0  0  0  0  0  0
    0.3231   -0.2306    2.9553 H   0  0  0  0  0  0  0  0  0  0  0  0
   -5.9950    0.5863   -2.8175 H   0  0  0  0  0  0  0  0  0  0  0  0
   -8.4359    0.5653   -2.9730 H   0  0  0  0  0  0  0  0  0  0  0  0
  1  2  1  0
  2  3  2  0
  3  4  1  0
  4  5  2  0
  5  6  1  0
  6  7  1  0
  7  8  2  0
  7  9  1  0
  9 10  1  0
 10 11  1  0
 11 12  2  0
 12 13  1  0
 13 14  2  0
 14 15  1  0
 15 16  1  0
 15 17  1  0
 17 18  2  0
 17 19  2  0
 17 20  1  0
 20 21  2  0
 21 22  1  0
 22 23  2  0
 23 24  1  0
 23 25  1  0
 25 26  2  0
 14 27  1  0
 27 28  2  0
  5 29  1  0
 29 30  2  0
 30  2  1  0
 28 11  1  0
 26 20  1  0
  1 31  1  0
  1 32  1  0
  1 33  1  0
  3 34  1  0
  4 35  1  0
  6 36  1  0
  9 37  1  0
  9 38  1  0
 12 39  1  0
 13 40  1  0
 16 41  1  0
 16 42  1  0
 16 43  1  0
 21 44  1  0
 22 45  1  0
 25 46  1  0
 26 47  1  0
 27 48  1  0
 28 49  1  0
 29 50  1  0
 30 51  1  0
M  END
$$$$
