
     RDKit          3D

 72 77  0  0  0  0  0  0  0  0999 V2000
   -9.9912    0.6573   -1.8060 C   0  0  0  0  0  0  0  0  0  0  0  0
   -8.4930    0.7041   -1.8306 C   0  0  0  0  0  0  0  0  0  0  0  0
   -7.8260    1.7323   -2.4968 C   0  0  0  0  0  0  0  0  0  0  0  0
   -6.4319    1.7916   -2.4852 C   0  0  0  0  0  0  0  0  0  0  0  0
   -5.6702    0.8305   -1.8006 C   0  0  0  0  0  0  0  0  0  0  0  0
   -4.1711    0.9484   -1.8277 C   0  0  0  0  0  0  0  0  0  0  0  0
   -6.3322   -0.2118   -1.1179 C   0  0  0  0  0  0  0  0  0  0  0  0
   -5.5961   -1.2907   -0.3522 C   0  0  0  0  0  0  0  0  0  0  0  0
   -5.4386   -0.9606    1.0512 N   0  0  0  0  0  0  0  0  0  0  0  0
   -6.4939   -1.0187    1.9053 N   0  0  0  0  0  0  0  0  0  0  0  0
   -6.0536   -0.6965    3.1214 N   0  0  0  0  0  0  0  0  0  0  0  0
   -4.7144   -0.4843    3.0218 C   0  0  0  0  0  0  0  0  0  0  0  0
   -3.7435   -0.1248    4.0184 C   0  0  0  0  0  0  0  0  0  0  0  0
   -3.9695    0.0741    5.2066 O   0  0  0  0  0  0  0  0  0  0  0  0
   -2.4633   -0.0234    3.4868 N   0  0  0  0  0  0  0  0  0  0  0  0
   -2.1462   -0.2712    2.1559 C   0  0  0  0  0  0  0  0  0  0  0  0
   -0.6817   -0.1351    1.7669 C   0  0  0  0  0  0  0  0  0  0  0  0
   -0.2176    1.3203    1.8932 C   0  0  0  0  0  0  0  0  0  0  0  0
    1.2648    1.4509    1.5534 C   0  0  0  0  0  0  0  0  0  0  0  0
    2.0300    0.5466    2.4418 N   0  0  0  0  0  0  0  0  0  0  0  0
    3.6811    0.9101    2.6690 S   0  0  0  0  0  6  0  0  0  0  0  0
    4.2195   -0.0268    3.6314 O   0  0  0  0  0  0  0  0  0  0  0  0
    3.8063    2.3379    2.8634 O   0  0  0  0  0  0  0  0  0  0  0  0
    4.4031    0.5218    1.0857 C   0  0  0  0  0  0  0  0  0  0  0  0
    4.5184    1.5231    0.1133 C   0  0  0  0  0  0  0  0  0  0  0  0
    5.0943    1.2195   -1.1209 C   0  0  0  0  0  0  0  0  0  0  0  0
    5.5748   -0.0735   -1.3590 C   0  0  0  0  0  0  0  0  0  0  0  0
    6.2757   -0.4744   -2.9405 S   0  0  0  0  0  6  0  0  0  0  0  0
    5.7751    0.4833   -3.9024 O   0  0  0  0  0  0  0  0  0  0  0  0
    6.1356   -1.8988   -3.1486 O   0  0  0  0  0  0  0  0  0  0  0  0
    7.9025   -0.0813   -2.6860 N   0  0  0  0  0  0  0  0  0  0  0  0
    8.8456   -1.2035   -2.6969 C   0  0  0  0  0  0  0  0  0  0  0  0
   10.2048   -1.0436   -2.0783 C   0  0  0  0  0  0  0  0  0  0  0  0
    9.1875   -1.9387   -1.4334 C   0  0  0  0  0  0  0  0  0  0  0  0
    5.4738   -1.0698   -0.3815 C   0  0  0  0  0  0  0  0  0  0  0  0
    4.8954   -0.7679    0.8513 C   0  0  0  0  0  0  0  0  0  0  0  0
    1.6828   -0.8802    2.2478 C   0  0  0  0  0  0  0  0  0  0  0  0
    0.2084   -1.0771    2.5872 C   0  0  0  0  0  0  0  0  0  0  0  0
   -3.0214   -0.5965    1.2435 N   0  0  0  0  0  0  0  0  0  0  0  0
   -4.2862   -0.6750    1.7295 C   0  0  0  0  0  0  0  0  0  0  0  0
   -7.7419   -0.2500   -1.1346 C   0  0  0  0  0  0  0  0  0  0  0  0
  -10.4119    1.1113   -2.7089 H   0  0  0  0  0  0  0  0  0  0  0  0
  -10.3466   -0.3777   -1.7671 H   0  0  0  0  0  0  0  0  0  0  0  0
  -10.3690    1.1951   -0.9319 H   0  0  0  0  0  0  0  0  0  0  0  0
   -8.3878    2.4973   -3.0282 H   0  0  0  0  0  0  0  0  0  0  0  0
   -5.9414    2.6047   -3.0177 H   0  0  0  0  0  0  0  0  0  0  0  0
   -3.7764    1.0261   -0.8120 H   0  0  0  0  0  0  0  0  0  0  0  0
   -3.7308    0.0832   -2.3329 H   0  0  0  0  0  0  0  0  0  0  0  0
   -3.8475    1.8446   -2.3667 H   0  0  0  0  0  0  0  0  0  0  0  0
   -4.6075   -1.4860   -0.7797 H   0  0  0  0  0  0  0  0  0  0  0  0
   -6.1438   -2.2403   -0.4044 H   0  0  0  0  0  0  0  0  0  0  0  0
   -1.7551    0.2342    4.1592 H   0  0  0  0  0  0  0  0  0  0  0  0
   -0.5978   -0.4262    0.7102 H   0  0  0  0  0  0  0  0  0  0  0  0
   -0.8074    1.9593    1.2253 H   0  0  0  0  0  0  0  0  0  0  0  0
   -0.3885    1.6902    2.9117 H   0  0  0  0  0  0  0  0  0  0  0  0
    1.4412    1.1902    0.5040 H   0  0  0  0  0  0  0  0  0  0  0  0
    1.5626    2.4926    1.7032 H   0  0  0  0  0  0  0  0  0  0  0  0
    4.1634    2.5332    0.3094 H   0  0  0  0  0  0  0  0  0  0  0  0
    5.1718    1.9899   -1.8856 H   0  0  0  0  0  0  0  0  0  0  0  0
    8.1602    0.6922   -3.3020 H   0  0  0  0  0  0  0  0  0  0  0  0
    8.7942   -1.7871   -3.6150 H   0  0  0  0  0  0  0  0  0  0  0  0
   10.4402   -0.1120   -1.5779 H   0  0  0  0  0  0  0  0  0  0  0  0
   11.0480   -1.5078   -2.5738 H   0  0  0  0  0  0  0  0  0  0  0  0
    8.7423   -1.6057   -0.5035 H   0  0  0  0  0  0  0  0  0  0  0  0
    9.3340   -3.0108   -1.4986 H   0  0  0  0  0  0  0  0  0  0  0  0
    5.8476   -2.0742   -0.5728 H   0  0  0  0  0  0  0  0  0  0  0  0
    4.8291   -1.5385    1.6184 H   0  0  0  0  0  0  0  0  0  0  0  0
    2.2737   -1.5158    2.9123 H   0  0  0  0  0  0  0  0  0  0  0  0
    1.8788   -1.1835    1.2151 H   0  0  0  0  0  0  0  0  0  0  0  0
   -0.0790   -2.1195    2.4036 H   0  0  0  0  0  0  0  0  0  0  0  0
    0.0706   -0.9020    3.6614 H   0  0  0  0  0  0  0  0  0  0  0  0
   -8.2630   -1.0347   -0.5855 H   0  0  0  0  0  0  0  0  0  0  0  0
  1  2  1  0
  2  3  2  0
  3  4  1  0
  4  5  2  0
  5  6  1  0
  5  7  1  0
  7  8  1  0
  8  9  1  0
  9 10  1  0
 10 11  2  0
 11 12  1  0
 12 13  1  0
 13 14  2  0
 13 15  1  0
 15 16  1  0
 16 17  1  0
 17 18  1  0
 18 19  1  0
 19 20  1  0
 20 21  1  0
 21 22  2  0
 21 23  2  0
 21 24  1  0
 24 25  2  0
 25 26  1  0
 26 27  2  0
 27 28  1  0
 28 29  2  0
 28 30  2  0
 28 31  1  0
 31 32  1  0
 32 33  1  0
 33 34  1  0
 27 35  1  0
 35 36  2  0
 20 37  1  0
 37 38  1  0
 16 39  2  0
 39 40  1  0
  7 41  2  0
 41  2  1  0
 40  9  1  0
 40 12  2  0
 38 17  1  0
 36 24  1  0
 34 32  1  0
  1 42  1  0
  1 43  1  0
  1 44  1  0
  3 45  1  0
  4 46  1  0
  6 47  1  0
  6 48  1  0
  6 49  1  0
  8 50  1  0
  8 51  1  0
 15 52  1  0
 17 53  1  0
 18 54  1  0
 18 55  1  0
 19 56  1  0
 19 57  1  0
 25 58  1  0
 26 59  1  0
 31 60  1  0
 32 61  1  0
 33 62  1  0
 33 63  1  0
 34 64  1  0
 34 65  1  0
 35 66  1  0
 36 67  1  0
 37 68  1  0
 37 69  1  0
 38 70  1  0
 38 71  1  0
 41 72  1  0
M  END
$$$$
