
     RDKit          3D

 47 51  0  0  0  0  0  0  0  0999 V2000
   -0.7396   -1.4712   -3.6012 C   0  0  0  0  0  0  0  0  0  0  0  0
   -1.4102   -0.6273   -2.5608 C   0  0  0  0  0  0  0  0  0  0  0  0
   -2.6087   -0.9605   -2.1470 N   0  0  0  0  0  0  0  0  0  0  0  0
   -3.1950   -0.1554   -1.2088 C   0  0  0  0  0  0  0  0  0  0  0  0
   -4.7521   -0.4720   -0.5776 S   0  0  0  0  0  0  0  0  0  0  0  0
   -4.6928    0.9062    0.4318 C   0  0  0  0  0  0  0  0  0  0  0  0
   -3.5157    1.6223    0.3033 C   0  0  0  0  0  0  0  0  0  0  0  0
   -2.6781    0.9912   -0.6397 C   0  0  0  0  0  0  0  0  0  0  0  0
   -1.2827    1.3431   -1.1614 C   0  0  0  0  0  0  0  0  0  0  0  0
   -0.4997    2.3483   -0.8604 N   0  0  0  0  0  0  0  0  0  0  0  0
    0.6476    2.1860   -1.5984 N   0  0  0  0  0  0  0  0  0  0  0  0
    0.5207    1.0871   -2.3191 C   0  0  0  0  0  0  0  0  0  0  0  0
    1.7908    0.4758   -3.3224 S   0  0  0  0  0  0  0  0  0  0  0  0
    3.0745    0.2477   -2.0540 C   0  0  0  0  0  0  0  0  0  0  0  0
    2.7068   -0.8381   -1.0478 C   0  0  0  0  0  0  0  0  0  0  0  0
    1.6044   -1.3758   -0.9783 O   0  0  0  0  0  0  0  0  0  0  0  0
    3.7492   -1.1792   -0.2121 N   0  0  0  0  0  0  0  0  0  0  0  0
    3.5461   -2.0953    0.8876 C   0  0  0  0  0  0  0  0  0  0  0  0
    4.8735   -2.5654    1.3466 C   0  0  0  0  0  0  0  0  0  0  0  0
    5.5908   -3.7272    1.1440 C   0  0  0  0  0  0  0  0  0  0  0  0
    6.8157   -3.5644    1.8355 C   0  0  0  0  0  0  0  0  0  0  0  0
    6.7698   -2.3159    2.4110 C   0  0  0  0  0  0  0  0  0  0  0  0
    5.5974   -1.6980    2.1147 O   0  0  0  0  0  0  0  0  0  0  0  0
   -0.7084    0.5063   -2.0962 N   0  0  0  0  0  0  0  0  0  0  0  0
   -3.2553    2.8830    1.0641 C   0  0  0  0  0  0  0  0  0  0  0  0
   -4.2266    3.0470    2.2452 C   0  0  0  0  0  0  0  0  0  0  0  0
   -5.6722    2.7025    1.8540 C   0  0  0  0  0  0  0  0  0  0  0  0
   -5.8088    1.2512    1.3667 C   0  0  0  0  0  0  0  0  0  0  0  0
    0.1657   -1.9326   -3.2006 H   0  0  0  0  0  0  0  0  0  0  0  0
   -0.5179   -0.8774   -4.4920 H   0  0  0  0  0  0  0  0  0  0  0  0
   -1.4108   -2.2817   -3.9058 H   0  0  0  0  0  0  0  0  0  0  0  0
    3.2553    1.1866   -1.5218 H   0  0  0  0  0  0  0  0  0  0  0  0
    3.9977   -0.0455   -2.5628 H   0  0  0  0  0  0  0  0  0  0  0  0
    4.5596   -0.5721   -0.1552 H   0  0  0  0  0  0  0  0  0  0  0  0
    3.0207   -1.5557    1.6817 H   0  0  0  0  0  0  0  0  0  0  0  0
    2.9171   -2.9303    0.5642 H   0  0  0  0  0  0  0  0  0  0  0  0
    5.2674   -4.5821    0.5666 H   0  0  0  0  0  0  0  0  0  0  0  0
    7.6326   -4.2691    1.9063 H   0  0  0  0  0  0  0  0  0  0  0  0
    7.4541   -1.7496    3.0302 H   0  0  0  0  0  0  0  0  0  0  0  0
   -3.3737    3.7327    0.3805 H   0  0  0  0  0  0  0  0  0  0  0  0
   -2.2249    2.9043    1.4383 H   0  0  0  0  0  0  0  0  0  0  0  0
   -4.1775    4.0806    2.6132 H   0  0  0  0  0  0  0  0  0  0  0  0
   -3.9157    2.3972    3.0740 H   0  0  0  0  0  0  0  0  0  0  0  0
   -6.3354    2.8608    2.7119 H   0  0  0  0  0  0  0  0  0  0  0  0
   -6.0020    3.3897    1.0641 H   0  0  0  0  0  0  0  0  0  0  0  0
   -5.7692    0.5739    2.2271 H   0  0  0  0  0  0  0  0  0  0  0  0
   -6.7843    1.1183    0.8853 H   0  0  0  0  0  0  0  0  0  0  0  0
  1  2  1  0
  2  3  2  0
  3  4  1  0
  4  5  1  0
  5  6  1  0
  6  7  2  0
  7  8  1  0
  8  9  1  0
  9 10  2  0
 10 11  1  0
 11 12  2  0
 12 13  1  0
 13 14  1  0
 14 15  1  0
 15 16  2  0
 15 17  1  0
 17 18  1  0
 18 19  1  0
 19 20  2  0
 20 21  1  0
 21 22  2  0
 22 23  1  0
 12 24  1  0
  7 25  1  0
 25 26  1  0
 26 27  1  0
 27 28  1  0
 24  2  1  0
  8  4  2  0
 24  9  1  0
 28  6  1  0
 23 19  1  0
  1 29  1  0
  1 30  1  0
  1 31  1  0
 14 32  1  0
 14 33  1  0
 17 34  1  0
 18 35  1  0
 18 36  1  0
 20 37  1  0
 21 38  1  0
 22 39  1  0
 25 40  1  0
 25 41  1  0
 26 42  1  0
 26 43  1  0
 27 44  1  0
 27 45  1  0
 28 46  1  0
 28 47  1  0
M  END
$$$$
