
     RDKit          3D

 55 60  0  0  0  0  0  0  0  0999 V2000
    5.1249   -1.5049    0.3652 O   0  0  0  0  0  0  0  0  0  0  0  0
    4.3024   -0.7343    0.8575 C   0  0  0  0  0  0  0  0  0  0  0  0
    4.6751    0.1119    1.9823 C   0  0  0  0  0  0  0  0  0  0  0  0
    3.9302    0.5657    3.1114 C   0  0  0  0  0  0  0  0  0  0  0  0
    4.7932    1.3103    3.8810 C   0  0  0  0  0  0  0  0  0  0  0  0
    6.0269    1.3330    3.3188 O   0  0  0  0  0  0  0  0  0  0  0  0
    5.9557    0.5901    2.1859 C   0  0  0  0  0  0  0  0  0  0  0  0
    2.9928   -0.6582    0.3679 N   0  0  0  0  0  0  0  0  0  0  0  0
    2.5975   -1.6505   -0.6277 C   0  0  0  0  0  0  0  0  0  0  0  0
    1.0813   -1.7382   -0.7457 C   0  0  0  0  0  0  0  0  0  0  0  0
    0.4853   -0.3956   -1.2460 C   0  0  0  0  0  0  0  0  0  0  0  0
    1.3100    0.8098   -0.7133 C   0  0  0  0  0  0  0  0  0  0  0  0
    2.1159    0.4961    0.5453 C   0  0  0  0  0  0  0  0  0  0  0  0
    0.7087   -0.4622   -2.6852 O   0  0  0  0  0  0  0  0  0  0  0  0
   -0.0469    0.3354   -3.4905 C   0  0  0  0  0  0  0  0  0  0  0  0
    0.3736    0.4392   -4.8179 C   0  0  0  0  0  0  0  0  0  0  0  0
   -0.3268    1.2512   -5.7117 C   0  0  0  0  0  0  0  0  0  0  0  0
   -1.4450    1.9520   -5.2718 C   0  0  0  0  0  0  0  0  0  0  0  0
   -2.1113    2.7341   -6.1302 F   0  0  0  0  0  0  0  0  0  0  0  0
   -1.8817    1.8503   -3.9578 C   0  0  0  0  0  0  0  0  0  0  0  0
   -1.1797    1.0265   -3.0741 C   0  0  0  0  0  0  0  0  0  0  0  0
   -1.6226    0.8765   -1.6835 C   0  0  0  0  0  0  0  0  0  0  0  0
   -2.4103    1.6883   -1.2040 O   0  0  0  0  0  0  0  0  0  0  0  0
   -1.0312   -0.3012   -0.9143 C   0  0  0  0  0  0  0  0  0  0  0  0
   -1.3753   -0.2053    0.5660 C   0  0  0  0  0  0  0  0  0  0  0  0
   -2.6079   -1.0461    0.5658 C   0  0  0  0  0  0  0  0  0  0  0  0
   -3.5500   -1.0702    1.7100 C   0  0  0  0  0  0  0  0  0  0  0  0
   -4.7121   -1.8487    1.6131 C   0  0  0  0  0  0  0  0  0  0  0  0
   -5.6201   -1.8986    2.6745 C   0  0  0  0  0  0  0  0  0  0  0  0
   -5.3674   -1.1704    3.8344 C   0  0  0  0  0  0  0  0  0  0  0  0
   -6.4816   -1.2300    5.1430 Cl  0  0  0  0  0  0  0  0  0  0  0  0
   -4.2146   -0.3938    3.9416 C   0  0  0  0  0  0  0  0  0  0  0  0
   -3.3037   -0.3427    2.8806 C   0  0  0  0  0  0  0  0  0  0  0  0
   -2.7641   -1.7759   -0.4925 N   0  0  0  0  0  0  0  0  0  0  0  0
   -1.6966   -1.4903   -1.3706 O   0  0  0  0  0  0  0  0  0  0  0  0
    2.8976    0.3584    3.3502 H   0  0  0  0  0  0  0  0  0  0  0  0
    4.6958    1.8472    4.8145 H   0  0  0  0  0  0  0  0  0  0  0  0
    6.8794    0.4909    1.6309 H   0  0  0  0  0  0  0  0  0  0  0  0
    3.0050   -2.6268   -0.3410 H   0  0  0  0  0  0  0  0  0  0  0  0
    3.0564   -1.3723   -1.5840 H   0  0  0  0  0  0  0  0  0  0  0  0
    0.6785   -2.0207    0.2324 H   0  0  0  0  0  0  0  0  0  0  0  0
    0.8302   -2.5488   -1.4415 H   0  0  0  0  0  0  0  0  0  0  0  0
    0.6642    1.6722   -0.5122 H   0  0  0  0  0  0  0  0  0  0  0  0
    2.0135    1.1441   -1.4885 H   0  0  0  0  0  0  0  0  0  0  0  0
    2.7029    1.3808    0.8095 H   0  0  0  0  0  0  0  0  0  0  0  0
    1.4468    0.2722    1.3816 H   0  0  0  0  0  0  0  0  0  0  0  0
    1.2506   -0.1079   -5.1563 H   0  0  0  0  0  0  0  0  0  0  0  0
   -0.0076    1.3421   -6.7456 H   0  0  0  0  0  0  0  0  0  0  0  0
   -2.7633    2.3988   -3.6392 H   0  0  0  0  0  0  0  0  0  0  0  0
   -1.5519    0.8131    0.9190 H   0  0  0  0  0  0  0  0  0  0  0  0
   -0.6486   -0.6892    1.2221 H   0  0  0  0  0  0  0  0  0  0  0  0
   -4.9204   -2.4206    0.7102 H   0  0  0  0  0  0  0  0  0  0  0  0
   -6.5179   -2.5052    2.5866 H   0  0  0  0  0  0  0  0  0  0  0  0
   -4.0203    0.1746    4.8480 H   0  0  0  0  0  0  0  0  0  0  0  0
   -2.4151    0.2701    2.9954 H   0  0  0  0  0  0  0  0  0  0  0  0
  1  2  2  0
  2  3  1  0
  3  4  1  0
  4  5  2  0
  5  6  1  0
  6  7  1  0
  2  8  1  0
  8  9  1  0
  9 10  1  0
 10 11  1  0
 11 12  1  0
 12 13  1  0
 11 14  1  0
 14 15  1  0
 15 16  2  0
 16 17  1  0
 17 18  2  0
 18 19  1  0
 18 20  1  0
 20 21  2  0
 21 22  1  0
 22 23  2  0
 22 24  1  0
 24 25  1  0
 25 26  1  0
 26 27  1  0
 27 28  2  0
 28 29  1  0
 29 30  2  0
 30 31  1  0
 30 32  1  0
 32 33  2  0
 26 34  2  0
 34 35  1  0
  7  3  2  0
 13  8  1  0
 21 15  1  0
 35 24  1  0
 24 11  1  0
 33 27  1  0
  4 36  1  0
  5 37  1  0
  7 38  1  0
  9 39  1  0
  9 40  1  0
 10 41  1  0
 10 42  1  0
 12 43  1  0
 12 44  1  0
 13 45  1  0
 13 46  1  0
 16 47  1  0
 17 48  1  0
 20 49  1  0
 25 50  1  0
 25 51  1  0
 28 52  1  0
 29 53  1  0
 32 54  1  0
 33 55  1  0
M  END
$$$$
