
     RDKit          3D

 67 72  0  0  0  0  0  0  0  0999 V2000
   -4.2654   -4.6458    1.5960 C   0  0  0  0  0  0  0  0  0  0  0  0
   -3.3747   -3.4527    1.7721 C   0  0  0  0  0  0  0  0  0  0  0  0
   -3.1562   -2.8702    3.0344 C   0  0  0  0  0  0  0  0  0  0  0  0
   -3.8934   -3.5145    4.4617 Cl  0  0  0  0  0  0  0  0  0  0  0  0
   -2.3418   -1.7317    3.1915 C   0  0  0  0  0  0  0  0  0  0  0  0
   -1.7260   -1.1348    2.0913 C   0  0  0  0  0  0  0  0  0  0  0  0
   -1.9368   -1.6940    0.8394 C   0  0  0  0  0  0  0  0  0  0  0  0
   -2.7571   -2.8244    0.6962 C   0  0  0  0  0  0  0  0  0  0  0  0
   -2.8517   -3.1674   -0.6504 N   0  0  0  0  0  0  0  0  0  0  0  0
   -2.1363   -2.2882   -1.4664 C   0  0  0  0  0  0  0  0  0  0  0  0
   -2.0944   -2.3645   -2.6859 O   0  0  0  0  0  0  0  0  0  0  0  0
   -1.4413   -1.2701   -0.5234 C   0  0  1  0  0  0  0  0  0  0  0  0
   -1.8673    0.1302   -0.7245 C   0  0  0  0  0  0  0  0  0  0  0  0
   -0.7750    0.9540   -0.9862 C   0  0  0  0  0  0  0  0  0  0  0  0
   -1.2096    2.2440   -1.1115 C   0  0  0  0  0  0  0  0  0  0  0  0
   -0.4710    3.3440   -1.2365 O   0  0  0  0  0  0  0  0  0  0  0  0
   -2.6142    2.2153   -1.0155 N   0  0  0  0  0  0  0  0  0  0  0  0
   -3.4846    3.3401   -1.1357 C   0  0  0  0  0  0  0  0  0  0  0  0
   -4.6297    3.4343   -0.3304 C   0  0  0  0  0  0  0  0  0  0  0  0
   -5.4822    4.5331   -0.4589 C   0  0  0  0  0  0  0  0  0  0  0  0
   -5.1897    5.5277   -1.3846 C   0  0  0  0  0  0  0  0  0  0  0  0
   -6.0113    6.5776   -1.5065 F   0  0  0  0  0  0  0  0  0  0  0  0
   -4.0573    5.4486   -2.1853 C   0  0  0  0  0  0  0  0  0  0  0  0
   -3.2001    4.3527   -2.0644 C   0  0  0  0  0  0  0  0  0  0  0  0
   -3.0100    0.8835   -0.7828 C   0  0  0  0  0  0  0  0  0  0  0  0
   -4.2716    0.4622   -0.7118 O   0  0  0  0  0  0  0  0  0  0  0  0
    0.4911    0.1964   -1.0242 C   0  0  1  0  0  0  0  0  0  0  0  0
    1.5634    0.6812   -0.0339 C   0  0  0  0  0  0  0  0  0  0  0  0
    2.6939   -0.2499    0.0386 N   0  0  0  0  0  0  0  0  0  0  0  0
    3.9803    0.2381    0.1357 C   0  0  0  0  0  0  0  0  0  0  0  0
    4.2478    1.4270    0.2495 O   0  0  0  0  0  0  0  0  0  0  0  0
    4.9031   -0.7571    0.0793 O   0  0  0  0  0  0  0  0  0  0  0  0
    6.3232   -0.4605    0.1049 C   0  0  0  0  0  0  0  0  0  0  0  0
    6.7381    0.3604   -1.1204 C   0  0  0  0  0  0  0  0  0  0  0  0
    6.7341    0.2168    1.4173 C   0  0  0  0  0  0  0  0  0  0  0  0
    7.0075   -1.8338    0.0293 C   0  0  0  0  0  0  0  0  0  0  0  0
    2.3981   -1.6729   -0.1542 C   0  0  0  0  0  0  0  0  0  0  0  0
    0.9108   -2.0013    0.0803 C   0  0  0  0  0  0  0  0  0  0  0  0
    0.0321   -1.2164   -0.7813 N   0  0  0  0  0  0  0  0  0  0  0  0
   -4.0239   -5.4255    2.3261 H   0  0  0  0  0  0  0  0  0  0  0  0
   -5.3143   -4.3531    1.7111 H   0  0  0  0  0  0  0  0  0  0  0  0
   -4.1502   -5.1054    0.6104 H   0  0  0  0  0  0  0  0  0  0  0  0
   -2.1952   -1.3013    4.1799 H   0  0  0  0  0  0  0  0  0  0  0  0
   -1.1110   -0.2488    2.2154 H   0  0  0  0  0  0  0  0  0  0  0  0
   -3.4057   -3.9136   -1.0404 H   0  0  0  0  0  0  0  0  0  0  0  0
   -0.9800    4.1115   -0.9211 H   0  0  0  0  0  0  0  0  0  0  0  0
   -4.8547    2.6888    0.4302 H   0  0  0  0  0  0  0  0  0  0  0  0
   -6.3692    4.6218    0.1590 H   0  0  0  0  0  0  0  0  0  0  0  0
   -3.8580    6.2322   -2.9099 H   0  0  0  0  0  0  0  0  0  0  0  0
   -2.3483    4.2820   -2.7402 H   0  0  0  0  0  0  0  0  0  0  0  0
   -4.8422    1.0838   -1.1990 H   0  0  0  0  0  0  0  0  0  0  0  0
    0.9054    0.2257   -2.0401 H   0  0  0  0  0  0  0  0  0  0  0  0
    1.1512    0.7559    0.9810 H   0  0  0  0  0  0  0  0  0  0  0  0
    1.9097    1.6838   -0.3100 H   0  0  0  0  0  0  0  0  0  0  0  0
    6.3643   -0.1022   -2.0415 H   0  0  0  0  0  0  0  0  0  0  0  0
    7.8276    0.4484   -1.1918 H   0  0  0  0  0  0  0  0  0  0  0  0
    6.3290    1.3746   -1.0894 H   0  0  0  0  0  0  0  0  0  0  0  0
    7.8235    0.2749    1.5113 H   0  0  0  0  0  0  0  0  0  0  0  0
    6.3390   -0.3329    2.2783 H   0  0  0  0  0  0  0  0  0  0  0  0
    6.3470    1.2372    1.4933 H   0  0  0  0  0  0  0  0  0  0  0  0
    6.7260   -2.4564    0.8876 H   0  0  0  0  0  0  0  0  0  0  0  0
    8.0990   -1.7440    0.0108 H   0  0  0  0  0  0  0  0  0  0  0  0
    6.6890   -2.3822   -0.8662 H   0  0  0  0  0  0  0  0  0  0  0  0
    2.6889   -1.9300   -1.1799 H   0  0  0  0  0  0  0  0  0  0  0  0
    3.0217   -2.2650    0.5251 H   0  0  0  0  0  0  0  0  0  0  0  0
    0.7099   -1.8088    1.1384 H   0  0  0  0  0  0  0  0  0  0  0  0
    0.7463   -3.0688   -0.1020 H   0  0  0  0  0  0  0  0  0  0  0  0
  1  2  1  0
  2  3  2  0
  3  4  1  0
  3  5  1  0
  5  6  2  0
  6  7  1  0
  7  8  2  0
  8  9  1  0
  9 10  1  0
 10 11  2  0
 10 12  1  0
 12 13  1  0
 13 14  1  0
 14 15  2  0
 15 16  1  0
 15 17  1  0
 17 18  1  0
 18 19  2  0
 19 20  1  0
 20 21  2  0
 21 22  1  0
 21 23  1  0
 23 24  2  0
 17 25  1  0
 25 26  1  0
 14 27  1  0
 27 28  1  0
 28 29  1  0
 29 30  1  0
 30 31  2  0
 30 32  1  0
 32 33  1  0
 33 34  1  0
 33 35  1  0
 33 36  1  0
 29 37  1  0
 37 38  1  0
 38 39  1  0
  8  2  1  0
 12 39  1  1
 12  7  1  0
 25 13  2  0
 39 27  1  0
 24 18  1  0
  1 40  1  0
  1 41  1  0
  1 42  1  0
  5 43  1  0
  6 44  1  0
  9 45  1  0
 16 46  1  0
 19 47  1  0
 20 48  1  0
 23 49  1  0
 24 50  1  0
 26 51  1  0
 27 52  1  6
 28 53  1  0
 28 54  1  0
 34 55  1  0
 34 56  1  0
 34 57  1  0
 35 58  1  0
 35 59  1  0
 35 60  1  0
 36 61  1  0
 36 62  1  0
 36 63  1  0
 37 64  1  0
 37 65  1  0
 38 66  1  0
 38 67  1  0
M  END
$$$$
