
     RDKit          3D

 51 55  0  0  0  0  0  0  0  0999 V2000
   -4.5451   -1.1828    0.0503 O   0  0  0  0  0  0  0  0  0  0  0  0
   -3.5792   -0.4104   -0.0731 C   0  0  0  0  0  0  0  0  0  0  0  0
   -3.5229    0.9211    0.7132 C   0  0  0  0  0  0  0  0  0  0  0  0
   -4.7842    1.3245    1.5374 C   0  0  0  0  0  0  0  0  0  0  0  0
   -5.2318    2.1753    0.3380 C   0  0  0  0  0  0  0  0  0  0  0  0
   -3.7541    2.2395   -0.0831 C   0  0  0  0  0  0  0  0  0  0  0  0
   -2.5487   -0.7532   -0.9453 N   0  0  0  0  0  0  0  0  0  0  0  0
   -2.6672   -1.9969   -1.7217 C   0  0  0  0  0  0  0  0  0  0  0  0
   -1.4998   -2.0441   -2.7048 C   0  0  0  0  0  0  0  0  0  0  0  0
   -0.6544   -0.9071   -2.2261 C   0  0  0  0  0  0  0  0  0  0  0  0
    0.6037   -0.5643   -2.7051 C   0  0  0  0  0  0  0  0  0  0  0  0
    1.2308    0.5491   -2.1453 C   0  0  0  0  0  0  0  0  0  0  0  0
    2.8480    1.0230   -2.7199 S   0  0  0  0  0  6  0  0  0  0  0  0
    3.0643    2.4077   -2.3606 O   0  0  0  0  0  0  0  0  0  0  0  0
    2.9680    0.5751   -4.0917 O   0  0  0  0  0  0  0  0  0  0  0  0
    3.8767    0.0363   -1.8116 N   0  0  0  0  0  0  0  0  0  0  0  0
    3.7562    0.0266   -0.3940 C   0  0  0  0  0  0  0  0  0  0  0  0
    4.0397    1.1701    0.3549 C   0  0  0  0  0  0  0  0  0  0  0  0
    3.8632    1.1598    1.7401 C   0  0  0  0  0  0  0  0  0  0  0  0
    3.3999    0.0078    2.3712 C   0  0  0  0  0  0  0  0  0  0  0  0
    3.1469   -1.1464    1.6229 C   0  0  0  0  0  0  0  0  0  0  0  0
    3.3119   -1.1351    0.2388 C   0  0  0  0  0  0  0  0  0  0  0  0
    2.7196   -2.3245    2.1808 O   0  0  0  0  0  0  0  0  0  0  0  0
    2.9085   -2.3280    3.6013 C   0  0  0  0  0  0  0  0  0  0  0  0
    2.4338   -1.0185    4.2092 C   0  0  0  0  0  0  0  0  0  0  0  0
    3.2216    0.0771    3.7284 O   0  0  0  0  0  0  0  0  0  0  0  0
    0.5912    1.3138   -1.1578 C   0  0  0  0  0  0  0  0  0  0  0  0
   -0.6801    0.9506   -0.6919 C   0  0  0  0  0  0  0  0  0  0  0  0
   -1.3031   -0.1637   -1.2294 C   0  0  0  0  0  0  0  0  0  0  0  0
   -2.6467    0.9348    1.3733 H   0  0  0  0  0  0  0  0  0  0  0  0
   -5.4671    0.5207    1.8243 H   0  0  0  0  0  0  0  0  0  0  0  0
   -4.5497    1.9141    2.4321 H   0  0  0  0  0  0  0  0  0  0  0  0
   -5.8700    1.6368   -0.3718 H   0  0  0  0  0  0  0  0  0  0  0  0
   -5.6993    3.1325    0.5813 H   0  0  0  0  0  0  0  0  0  0  0  0
   -3.5813    2.1971   -1.1619 H   0  0  0  0  0  0  0  0  0  0  0  0
   -3.2133    3.1004    0.3274 H   0  0  0  0  0  0  0  0  0  0  0  0
   -3.6339   -2.0303   -2.2371 H   0  0  0  0  0  0  0  0  0  0  0  0
   -2.6296   -2.8400   -1.0206 H   0  0  0  0  0  0  0  0  0  0  0  0
   -1.8406   -1.8601   -3.7287 H   0  0  0  0  0  0  0  0  0  0  0  0
   -0.9733   -3.0018   -2.6569 H   0  0  0  0  0  0  0  0  0  0  0  0
    1.0765   -1.1444   -3.4923 H   0  0  0  0  0  0  0  0  0  0  0  0
    4.0651   -0.8483   -2.2803 H   0  0  0  0  0  0  0  0  0  0  0  0
    4.4000    2.0747   -0.1299 H   0  0  0  0  0  0  0  0  0  0  0  0
    4.0765    2.0523    2.3223 H   0  0  0  0  0  0  0  0  0  0  0  0
    3.0882   -2.0326   -0.3291 H   0  0  0  0  0  0  0  0  0  0  0  0
    2.3341   -3.1653    4.0098 H   0  0  0  0  0  0  0  0  0  0  0  0
    3.9704   -2.5068    3.8110 H   0  0  0  0  0  0  0  0  0  0  0  0
    1.3814   -0.8225    3.9691 H   0  0  0  0  0  0  0  0  0  0  0  0
    2.5360   -1.0475    5.2985 H   0  0  0  0  0  0  0  0  0  0  0  0
    1.0814    2.1906   -0.7373 H   0  0  0  0  0  0  0  0  0  0  0  0
   -1.1182    1.5627    0.0819 H   0  0  0  0  0  0  0  0  0  0  0  0
  1  2  2  0
  2  3  1  0
  3  4  1  0
  4  5  1  0
  5  6  1  0
  2  7  1  0
  7  8  1  0
  8  9  1  0
  9 10  1  0
 10 11  2  0
 11 12  1  0
 12 13  1  0
 13 14  2  0
 13 15  2  0
 13 16  1  0
 16 17  1  0
 17 18  2  0
 18 19  1  0
 19 20  2  0
 20 21  1  0
 21 22  2  0
 21 23  1  0
 23 24  1  0
 24 25  1  0
 25 26  1  0
 12 27  2  0
 27 28  1  0
 28 29  2  0
  6  3  1  0
 29  7  1  0
 29 10  1  0
 22 17  1  0
 26 20  1  0
  3 30  1  0
  4 31  1  0
  4 32  1  0
  5 33  1  0
  5 34  1  0
  6 35  1  0
  6 36  1  0
  8 37  1  0
  8 38  1  0
  9 39  1  0
  9 40  1  0
 11 41  1  0
 16 42  1  0
 18 43  1  0
 19 44  1  0
 22 45  1  0
 24 46  1  0
 24 47  1  0
 25 48  1  0
 25 49  1  0
 27 50  1  0
 28 51  1  0
M  END
$$$$
