
     RDKit          3D

 39 41  0  0  0  0  0  0  0  0999 V2000
   -4.8829    0.8157   -0.6923 C   0  0  0  0  0  0  0  0  0  0  0  0
   -3.5877    1.6116   -0.7765 C   0  0  0  0  0  0  0  0  0  0  0  0
   -2.4975    0.9481   -0.0660 N   0  0  0  0  0  0  0  0  0  0  0  0
   -2.3496    1.2373    1.2822 C   0  0  0  0  0  0  0  0  0  0  0  0
   -3.0833    2.0031    1.9039 O   0  0  0  0  0  0  0  0  0  0  0  0
   -1.2460    0.5694    1.9860 C   0  0  0  0  0  0  0  0  0  0  0  0
   -1.0176    0.8681    3.3395 C   0  0  0  0  0  0  0  0  0  0  0  0
    0.0200    0.2471    4.0264 C   0  0  0  0  0  0  0  0  0  0  0  0
    0.8242   -0.6705    3.3617 C   0  0  0  0  0  0  0  0  0  0  0  0
    0.5906   -0.9665    2.0132 C   0  0  0  0  0  0  0  0  0  0  0  0
   -0.4502   -0.3481    1.3015 C   0  0  0  0  0  0  0  0  0  0  0  0
   -0.7221   -0.6272   -0.0683 N   0  0  0  0  0  0  0  0  0  0  0  0
    0.0805   -1.6069   -0.8094 C   0  0  0  0  0  0  0  0  0  0  0  0
    1.4301   -1.0803   -1.2649 C   0  0  0  0  0  0  0  0  0  0  0  0
    1.5365    0.1354   -1.9610 C   0  0  0  0  0  0  0  0  0  0  0  0
    2.7786    0.6057   -2.3958 C   0  0  0  0  0  0  0  0  0  0  0  0
    3.9282   -0.1515   -2.1459 C   0  0  0  0  0  0  0  0  0  0  0  0
    5.2361    0.3374   -2.5988 N   0  0  0  0  0  4  0  0  0  0  0  0
    6.2293   -0.3625   -2.3527 O   0  0  0  0  0  0  0  0  0  0  0  0
    5.2720    1.4213   -3.1984 O   0  0  0  0  0  1  0  0  0  0  0  0
    3.8397   -1.3759   -1.4729 C   0  0  0  0  0  0  0  0  0  0  0  0
    2.5925   -1.8375   -1.0425 C   0  0  0  0  0  0  0  0  0  0  0  0
   -1.7486    0.0089   -0.7625 C   0  0  0  0  0  0  0  0  0  0  0  0
   -1.9803   -0.2457   -1.9475 O   0  0  0  0  0  0  0  0  0  0  0  0
   -5.6826    1.3340   -1.2303 H   0  0  0  0  0  0  0  0  0  0  0  0
   -5.1990    0.6851    0.3477 H   0  0  0  0  0  0  0  0  0  0  0  0
   -4.7643   -0.1799   -1.1321 H   0  0  0  0  0  0  0  0  0  0  0  0
   -3.3125    1.7514   -1.8281 H   0  0  0  0  0  0  0  0  0  0  0  0
   -3.7472    2.6108   -0.3551 H   0  0  0  0  0  0  0  0  0  0  0  0
   -1.6496    1.5869    3.8582 H   0  0  0  0  0  0  0  0  0  0  0  0
    0.1987    0.4788    5.0735 H   0  0  0  0  0  0  0  0  0  0  0  0
    1.6388   -1.1602    3.8911 H   0  0  0  0  0  0  0  0  0  0  0  0
    1.2532   -1.6905    1.5524 H   0  0  0  0  0  0  0  0  0  0  0  0
   -0.4543   -1.9481   -1.7043 H   0  0  0  0  0  0  0  0  0  0  0  0
    0.1897   -2.5067   -0.1917 H   0  0  0  0  0  0  0  0  0  0  0  0
    0.6476    0.7256   -2.1789 H   0  0  0  0  0  0  0  0  0  0  0  0
    2.8284    1.5535   -2.9283 H   0  0  0  0  0  0  0  0  0  0  0  0
    4.7241   -1.9803   -1.2814 H   0  0  0  0  0  0  0  0  0  0  0  0
    2.5366   -2.7971   -0.5312 H   0  0  0  0  0  0  0  0  0  0  0  0
  1  2  1  0
  2  3  1  0
  3  4  1  0
  4  5  2  0
  4  6  1  0
  6  7  2  0
  7  8  1  0
  8  9  2  0
  9 10  1  0
 10 11  2  0
 11 12  1  0
 12 13  1  0
 13 14  1  0
 14 15  2  0
 15 16  1  0
 16 17  2  0
 17 18  1  0
 18 19  2  0
 18 20  1  0
 17 21  1  0
 21 22  2  0
 12 23  1  0
 23 24  2  0
 23  3  1  0
 11  6  1  0
 22 14  1  0
  1 25  1  0
  1 26  1  0
  1 27  1  0
  2 28  1  0
  2 29  1  0
  7 30  1  0
  8 31  1  0
  9 32  1  0
 10 33  1  0
 13 34  1  0
 13 35  1  0
 15 36  1  0
 16 37  1  0
 21 38  1  0
 22 39  1  0
M  CHG  2  18   1  20  -1
M  END
$$$$
