
     RDKit          3D

 27 27  0  0  0  0  0  0  0  0999 V2000
   -2.2296   -0.1893    0.4682 C   0  0  0  0  0  0  0  0  0  0  0  0
   -1.3381    0.3687   -0.6509 C   0  0  0  0  0  0  0  0  0  0  0  0
   -0.8985   -0.7736   -1.5697 C   0  0  0  0  0  0  0  0  0  0  0  0
   -2.1530    1.3821   -1.4750 C   0  0  0  0  0  0  0  0  0  0  0  0
    0.0914    1.2534    0.0481 S   0  0  0  0  0  6  0  0  0  0  0  0
    1.0157    1.6501   -0.9925 O   0  0  0  0  0  0  0  0  0  0  0  0
   -0.3853    2.2226    1.0174 O   0  0  0  0  0  0  0  0  0  0  0  0
    0.9826    0.1212    1.0271 C   0  0  0  0  0  0  0  0  0  0  0  0
    0.6770   -0.0961    2.4113 C   0  0  0  0  0  0  0  0  0  0  0  0
    1.5459   -0.9823    3.0042 C   0  0  0  0  0  0  0  0  0  0  0  0
    2.7349   -1.5345    1.9118 S   0  0  0  0  0  0  0  0  0  0  0  0
    2.0973   -0.5923    0.6224 C   0  0  0  0  0  0  0  0  0  0  0  0
    2.7193   -0.6712   -0.6749 C   0  0  0  0  0  0  0  0  0  0  0  0
    2.1757   -0.8725   -1.7498 O   0  0  0  0  0  0  0  0  0  0  0  0
    4.0593   -0.5145   -0.6072 O   0  0  0  0  0  0  0  0  0  0  0  0
   -2.5369    0.5950    1.1682 H   0  0  0  0  0  0  0  0  0  0  0  0
   -3.1401   -0.6404    0.0569 H   0  0  0  0  0  0  0  0  0  0  0  0
   -1.7168   -0.9664    1.0435 H   0  0  0  0  0  0  0  0  0  0  0  0
   -1.7656   -1.2782   -2.0116 H   0  0  0  0  0  0  0  0  0  0  0  0
   -0.3270   -1.5317   -1.0257 H   0  0  0  0  0  0  0  0  0  0  0  0
   -0.2813   -0.4055   -2.3955 H   0  0  0  0  0  0  0  0  0  0  0  0
   -2.5024    2.2128   -0.8515 H   0  0  0  0  0  0  0  0  0  0  0  0
   -1.5508    1.8115   -2.2835 H   0  0  0  0  0  0  0  0  0  0  0  0
   -3.0331    0.9113   -1.9273 H   0  0  0  0  0  0  0  0  0  0  0  0
   -0.1296    0.3913    2.9486 H   0  0  0  0  0  0  0  0  0  0  0  0
    1.5501   -1.3203    4.0321 H   0  0  0  0  0  0  0  0  0  0  0  0
    4.3387   -0.5515   -1.5446 H   0  0  0  0  0  0  0  0  0  0  0  0
  1  2  1  0
  2  3  1  0
  2  4  1  0
  2  5  1  0
  5  6  2  0
  5  7  2  0
  5  8  1  0
  8  9  1  0
  9 10  2  0
 10 11  1  0
 11 12  1  0
 12 13  1  0
 13 14  2  0
 13 15  1  0
 12  8  2  0
  1 16  1  0
  1 17  1  0
  1 18  1  0
  3 19  1  0
  3 20  1  0
  3 21  1  0
  4 22  1  0
  4 23  1  0
  4 24  1  0
  9 25  1  0
 10 26  1  0
 15 27  1  0
M  END
$$$$
