
     RDKit          3D

 35 37  0  0  0  0  0  0  0  0999 V2000
    5.0775   -2.4242   -0.0220 C   0  0  0  0  0  0  0  0  0  0  0  0
    3.9570   -1.6288   -0.4115 O   0  0  0  0  0  0  0  0  0  0  0  0
    3.9707   -0.3717    0.0975 C   0  0  0  0  0  0  0  0  0  0  0  0
    4.8325    0.0951    0.8257 O   0  0  0  0  0  0  0  0  0  0  0  0
    2.7747    0.3920   -0.3520 C   0  0  0  0  0  0  0  0  0  0  0  0
    1.7944   -0.1637   -1.1834 C   0  0  0  0  0  0  0  0  0  0  0  0
    0.6886    0.5984   -1.5749 C   0  0  0  0  0  0  0  0  0  0  0  0
    0.5439    1.9188   -1.1331 C   0  0  0  0  0  0  0  0  0  0  0  0
   -0.6068    2.7401   -1.5328 C   0  0  0  0  0  0  0  0  0  0  0  0
   -1.9031    2.4993   -1.2465 C   0  0  0  0  0  0  0  0  0  0  0  0
   -2.9085    3.3993   -1.7068 C   0  0  0  0  0  0  0  0  0  0  0  0
   -3.7058    4.1570   -2.0783 N   0  0  0  0  0  0  0  0  0  0  0  0
   -2.3035    1.3592   -0.4914 C   0  0  0  0  0  0  0  0  0  0  0  0
   -2.6245    0.1782   -0.9824 N   0  0  0  0  0  0  0  0  0  0  0  0
   -2.9486   -0.7018    0.0365 C   0  0  0  0  0  0  0  0  0  0  0  0
   -3.3308   -2.0487   -0.1268 C   0  0  0  0  0  0  0  0  0  0  0  0
   -3.6301   -2.8278    0.9956 C   0  0  0  0  0  0  0  0  0  0  0  0
   -3.5534   -2.2816    2.2727 C   0  0  0  0  0  0  0  0  0  0  0  0
   -3.1778   -0.9477    2.4605 C   0  0  0  0  0  0  0  0  0  0  0  0
   -2.8795   -0.1750    1.3258 C   0  0  0  0  0  0  0  0  0  0  0  0
   -2.3969    1.4725    1.2325 S   0  0  0  0  0  0  0  0  0  0  0  0
    1.5292    2.4779   -0.3127 C   0  0  0  0  0  0  0  0  0  0  0  0
    2.6360    1.7182    0.0786 C   0  0  0  0  0  0  0  0  0  0  0  0
    5.0991   -2.5499    1.0651 H   0  0  0  0  0  0  0  0  0  0  0  0
    6.0094   -1.9753   -0.3799 H   0  0  0  0  0  0  0  0  0  0  0  0
    4.9691   -3.4102   -0.4823 H   0  0  0  0  0  0  0  0  0  0  0  0
    1.8740   -1.1893   -1.5359 H   0  0  0  0  0  0  0  0  0  0  0  0
   -0.0592    0.1448   -2.2239 H   0  0  0  0  0  0  0  0  0  0  0  0
   -0.3367    3.6321   -2.0980 H   0  0  0  0  0  0  0  0  0  0  0  0
   -3.3911   -2.4711   -1.1250 H   0  0  0  0  0  0  0  0  0  0  0  0
   -3.9255   -3.8665    0.8657 H   0  0  0  0  0  0  0  0  0  0  0  0
   -3.7896   -2.8983    3.1377 H   0  0  0  0  0  0  0  0  0  0  0  0
   -3.1197   -0.5227    3.4581 H   0  0  0  0  0  0  0  0  0  0  0  0
    1.4444    3.5047    0.0374 H   0  0  0  0  0  0  0  0  0  0  0  0
    3.3908    2.1665    0.7229 H   0  0  0  0  0  0  0  0  0  0  0  0
  1  2  1  0
  2  3  1  0
  3  4  2  0
  3  5  1  0
  5  6  2  0
  6  7  1  0
  7  8  2  0
  8  9  1  0
  9 10  2  3
 10 11  1  0
 11 12  3  0
 10 13  1  0
 13 14  2  0
 14 15  1  0
 15 16  2  0
 16 17  1  0
 17 18  2  0
 18 19  1  0
 19 20  2  0
 20 21  1  0
  8 22  1  0
 22 23  2  0
 23  5  1  0
 21 13  1  0
 20 15  1  0
  1 24  1  0
  1 25  1  0
  1 26  1  0
  6 27  1  0
  7 28  1  0
  9 29  1  0
 16 30  1  0
 17 31  1  0
 18 32  1  0
 19 33  1  0
 22 34  1  0
 23 35  1  0
M  END
$$$$
