
     RDKit          3D

 45 49  0  0  0  0  0  0  0  0999 V2000
    6.8882    2.1928    1.8954 Cl  0  0  0  0  0  0  0  0  0  0  0  0
    6.1372    1.2842    0.6393 C   0  0  0  0  0  0  0  0  0  0  0  0
    6.8976    0.8405   -0.4351 C   0  0  0  0  0  0  0  0  0  0  0  0
    6.2807    0.1092   -1.4423 C   0  0  0  0  0  0  0  0  0  0  0  0
    4.9100   -0.1682   -1.3659 C   0  0  0  0  0  0  0  0  0  0  0  0
    4.1139    0.2732   -0.2934 C   0  0  0  0  0  0  0  0  0  0  0  0
    2.7603   -0.0196   -0.2323 N   0  0  0  0  0  0  0  0  0  0  0  0
    1.9786   -0.2347   -1.4668 C   0  0  0  0  0  0  0  0  0  0  0  0
    0.5128    0.2171   -1.3065 C   0  0  0  0  0  0  0  0  0  0  0  0
   -0.1568   -0.4608   -0.1807 N   0  0  0  0  0  0  0  0  0  0  0  0
   -1.5382   -0.3494   -0.0506 C   0  0  0  0  0  0  0  0  0  0  0  0
   -2.1472    0.5811   -0.7451 N   0  0  0  0  0  0  0  0  0  0  0  0
   -3.5362    0.7772   -0.6310 C   0  0  0  0  0  0  0  0  0  0  0  0
   -4.1259    1.7957   -1.3824 C   0  0  0  0  0  0  0  0  0  0  0  0
   -5.4989    2.0420   -1.2979 C   0  0  0  0  0  0  0  0  0  0  0  0
   -6.2980    1.2677   -0.4562 C   0  0  0  0  0  0  0  0  0  0  0  0
   -5.7299    0.2445    0.3035 C   0  0  0  0  0  0  0  0  0  0  0  0
   -4.3545    0.0107    0.2086 C   0  0  0  0  0  0  0  0  0  0  0  0
   -3.7034   -1.0060    0.9253 N   0  0  0  0  0  0  0  0  0  0  0  0
   -4.2284   -1.9307    1.7967 C   0  0  0  0  0  0  0  0  0  0  0  0
   -3.2143   -2.7747    2.1912 C   0  0  0  0  0  0  0  0  0  0  0  0
   -2.0327   -2.3361    1.5497 C   0  0  0  0  0  0  0  0  0  0  0  0
   -2.3453   -1.2134    0.8019 C   0  0  0  0  0  0  0  0  0  0  0  0
    0.7029   -0.7287    0.9848 C   0  0  0  0  0  0  0  0  0  0  0  0
    1.9805    0.1399    1.0064 C   0  0  0  0  0  0  0  0  0  0  0  0
    4.7684    1.0034    0.7113 C   0  0  0  0  0  0  0  0  0  0  0  0
    7.9603    1.0568   -0.4910 H   0  0  0  0  0  0  0  0  0  0  0  0
    6.8606   -0.2546   -2.2865 H   0  0  0  0  0  0  0  0  0  0  0  0
    4.4750   -0.7678   -2.1618 H   0  0  0  0  0  0  0  0  0  0  0  0
    2.4040    0.3288   -2.3060 H   0  0  0  0  0  0  0  0  0  0  0  0
    2.0098   -1.3013   -1.7204 H   0  0  0  0  0  0  0  0  0  0  0  0
    0.4800    1.3027   -1.1485 H   0  0  0  0  0  0  0  0  0  0  0  0
   -0.0179   -0.0031   -2.2407 H   0  0  0  0  0  0  0  0  0  0  0  0
   -3.5054    2.4020   -2.0370 H   0  0  0  0  0  0  0  0  0  0  0  0
   -5.9422    2.8389   -1.8894 H   0  0  0  0  0  0  0  0  0  0  0  0
   -7.3660    1.4623   -0.3938 H   0  0  0  0  0  0  0  0  0  0  0  0
   -6.3722   -0.3458    0.9484 H   0  0  0  0  0  0  0  0  0  0  0  0
   -5.2767   -1.9380    2.0571 H   0  0  0  0  0  0  0  0  0  0  0  0
   -3.3187   -3.6213    2.8578 H   0  0  0  0  0  0  0  0  0  0  0  0
   -1.0597   -2.8002    1.6279 H   0  0  0  0  0  0  0  0  0  0  0  0
    0.1617   -0.5438    1.9196 H   0  0  0  0  0  0  0  0  0  0  0  0
    0.9906   -1.7863    0.9628 H   0  0  0  0  0  0  0  0  0  0  0  0
    1.7107    1.1955    1.1334 H   0  0  0  0  0  0  0  0  0  0  0  0
    2.5696   -0.1702    1.8778 H   0  0  0  0  0  0  0  0  0  0  0  0
    4.2150    1.3884    1.5622 H   0  0  0  0  0  0  0  0  0  0  0  0
  1  2  1  0
  2  3  2  0
  3  4  1  0
  4  5  2  0
  5  6  1  0
  6  7  1  0
  7  8  1  0
  8  9  1  0
  9 10  1  0
 10 11  1  0
 11 12  2  0
 12 13  1  0
 13 14  2  0
 14 15  1  0
 15 16  2  0
 16 17  1  0
 17 18  2  0
 18 19  1  0
 19 20  1  0
 20 21  2  0
 21 22  1  0
 22 23  2  0
 10 24  1  0
 24 25  1  0
  6 26  2  0
 26  2  1  0
 25  7  1  0
 23 11  1  0
 18 13  1  0
 23 19  1  0
  3 27  1  0
  4 28  1  0
  5 29  1  0
  8 30  1  0
  8 31  1  0
  9 32  1  0
  9 33  1  0
 14 34  1  0
 15 35  1  0
 16 36  1  0
 17 37  1  0
 20 38  1  0
 21 39  1  0
 22 40  1  0
 24 41  1  0
 24 42  1  0
 25 43  1  0
 25 44  1  0
 26 45  1  0
M  END
$$$$
