
     RDKit          3D

 46 48  0  0  0  0  0  0  0  0999 V2000
   -7.6453   -2.2675    1.3129 C   0  0  0  0  0  0  0  0  0  0  0  0
   -7.3721   -1.2275    0.3819 O   0  0  0  0  0  0  0  0  0  0  0  0
   -6.1375   -0.6408    0.4576 C   0  0  0  0  0  0  0  0  0  0  0  0
   -5.1656   -0.9051    1.4192 C   0  0  0  0  0  0  0  0  0  0  0  0
   -3.9439   -0.2273    1.3826 C   0  0  0  0  0  0  0  0  0  0  0  0
   -3.6739    0.7097    0.3764 C   0  0  0  0  0  0  0  0  0  0  0  0
   -2.3958    1.4387    0.3728 C   0  0  0  0  0  0  0  0  0  0  0  0
   -1.1648    0.9215    0.2455 C   0  0  0  0  0  0  0  0  0  0  0  0
    0.2554    1.9423    0.2359 S   0  0  0  0  0  0  0  0  0  0  0  0
    1.2922    0.5723    0.0211 C   0  0  0  0  0  0  0  0  0  0  0  0
    2.6225    0.6735   -0.0744 C   0  0  0  0  0  0  0  0  0  0  0  0
    3.4931   -0.5192   -0.2572 C   0  0  0  0  0  0  0  0  0  0  0  0
    3.0258   -1.6341   -0.4721 O   0  0  0  0  0  0  0  0  0  0  0  0
    4.9665   -0.3258   -0.2071 C   0  0  0  0  0  0  0  0  0  0  0  0
    5.5701    0.6566    0.5864 C   0  0  0  0  0  0  0  0  0  0  0  0
    6.9623    0.7885    0.5991 C   0  0  0  0  0  0  0  0  0  0  0  0
    7.7652   -0.0552   -0.1781 C   0  0  0  0  0  0  0  0  0  0  0  0
    9.2603    0.0662   -0.1343 C   0  0  0  0  0  0  0  0  0  0  0  0
    7.1592   -1.0569   -0.9446 C   0  0  0  0  0  0  0  0  0  0  0  0
    5.7690   -1.1921   -0.9592 C   0  0  0  0  0  0  0  0  0  0  0  0
    0.5841   -0.5873   -0.0325 N   0  0  0  0  0  0  0  0  0  0  0  0
   -0.7812   -0.5140    0.0734 C   0  0  0  0  0  0  0  0  0  0  0  0
   -1.5269   -1.4774    0.0362 O   0  0  0  0  0  0  0  0  0  0  0  0
   -4.6593    0.9886   -0.5899 C   0  0  0  0  0  0  0  0  0  0  0  0
   -4.3379    1.9401   -1.5274 O   0  0  0  0  0  0  0  0  0  0  0  0
   -5.2492    2.1275   -2.6024 C   0  0  0  0  0  0  0  0  0  0  0  0
   -5.8822    0.3091   -0.5380 C   0  0  0  0  0  0  0  0  0  0  0  0
   -6.9338   -3.0931    1.2054 H   0  0  0  0  0  0  0  0  0  0  0  0
   -8.6437   -2.6582    1.0937 H   0  0  0  0  0  0  0  0  0  0  0  0
   -7.6561   -1.8844    2.3386 H   0  0  0  0  0  0  0  0  0  0  0  0
   -5.3200   -1.6311    2.2099 H   0  0  0  0  0  0  0  0  0  0  0  0
   -3.1972   -0.4507    2.1413 H   0  0  0  0  0  0  0  0  0  0  0  0
   -2.5195    2.5177    0.4457 H   0  0  0  0  0  0  0  0  0  0  0  0
    3.0978    1.6460   -0.0399 H   0  0  0  0  0  0  0  0  0  0  0  0
    4.9842    1.3121    1.2242 H   0  0  0  0  0  0  0  0  0  0  0  0
    7.4192    1.5505    1.2279 H   0  0  0  0  0  0  0  0  0  0  0  0
    9.5626    1.1039    0.0421 H   0  0  0  0  0  0  0  0  0  0  0  0
    9.6633   -0.5612    0.6667 H   0  0  0  0  0  0  0  0  0  0  0  0
    9.7052   -0.2441   -1.0856 H   0  0  0  0  0  0  0  0  0  0  0  0
    7.7653   -1.7423   -1.5337 H   0  0  0  0  0  0  0  0  0  0  0  0
    5.3147   -1.9781   -1.5600 H   0  0  0  0  0  0  0  0  0  0  0  0
    1.0465   -1.4824   -0.1771 H   0  0  0  0  0  0  0  0  0  0  0  0
   -5.4041    1.1976   -3.1598 H   0  0  0  0  0  0  0  0  0  0  0  0
   -4.8089    2.8566   -3.2894 H   0  0  0  0  0  0  0  0  0  0  0  0
   -6.1983    2.5399   -2.2451 H   0  0  0  0  0  0  0  0  0  0  0  0
   -6.6673    0.4969   -1.2627 H   0  0  0  0  0  0  0  0  0  0  0  0
  1  2  1  0
  2  3  1  0
  3  4  2  0
  4  5  1  0
  5  6  2  0
  6  7  1  0
  7  8  2  3
  8  9  1  0
  9 10  1  0
 10 11  2  3
 11 12  1  0
 12 13  2  0
 12 14  1  0
 14 15  2  0
 15 16  1  0
 16 17  2  0
 17 18  1  0
 17 19  1  0
 19 20  2  0
 10 21  1  0
 21 22  1  0
 22 23  2  0
  6 24  1  0
 24 25  1  0
 25 26  1  0
 24 27  2  0
 27  3  1  0
 22  8  1  0
 20 14  1  0
  1 28  1  0
  1 29  1  0
  1 30  1  0
  4 31  1  0
  5 32  1  0
  7 33  1  0
 11 34  1  0
 15 35  1  0
 16 36  1  0
 18 37  1  0
 18 38  1  0
 18 39  1  0
 19 40  1  0
 20 41  1  0
 21 42  1  0
 26 43  1  0
 26 44  1  0
 26 45  1  0
 27 46  1  0
M  END
$$$$
