
     RDKit          3D

 39 41  0  0  0  0  0  0  0  0999 V2000
   -1.2401   -0.2673   -2.3854 C   0  0  0  0  0  0  0  0  0  0  0  0
   -1.2786   -1.1093   -1.2370 O   0  0  0  0  0  0  0  0  0  0  0  0
   -2.2608   -0.8664   -0.3119 C   0  0  0  0  0  0  0  0  0  0  0  0
   -3.2039    0.1639   -0.3856 C   0  0  0  0  0  0  0  0  0  0  0  0
   -4.1782    0.3163    0.6126 C   0  0  0  0  0  0  0  0  0  0  0  0
   -5.1741    1.4372    0.5166 C   0  0  0  0  0  0  0  0  0  0  0  0
   -4.1995   -0.5728    1.6933 C   0  0  0  0  0  0  0  0  0  0  0  0
   -3.2633   -1.6045    1.7766 C   0  0  0  0  0  0  0  0  0  0  0  0
   -2.2821   -1.7319    0.7927 C   0  0  0  0  0  0  0  0  0  0  0  0
   -1.3654   -2.7556    0.8404 O   0  0  0  0  0  0  0  0  0  0  0  0
   -0.4968   -2.6834    1.9678 C   0  0  0  0  0  0  0  0  0  0  0  0
    0.7652   -1.8266    1.7764 C   0  0  0  0  0  0  0  0  0  0  0  0
    1.4588   -1.5270    2.7470 O   0  0  0  0  0  0  0  0  0  0  0  0
    1.0119   -1.5091    0.4622 N   0  0  0  0  0  0  0  0  0  0  0  0
    2.0378   -0.7464   -0.0350 C   0  0  0  0  0  0  0  0  0  0  0  0
    2.1303   -0.4288   -1.3103 N   0  0  0  0  0  0  0  0  0  0  0  0
    3.2480    0.3419   -1.5784 N   0  0  0  0  0  0  0  0  0  0  0  0
    3.9382    0.5778   -0.4845 C   0  0  0  0  0  0  0  0  0  0  0  0
    5.2529    1.4179   -0.4944 C   0  0  0  0  0  0  0  0  0  0  0  0
    5.2123    2.8456   -0.0099 C   0  0  0  0  0  0  0  0  0  0  0  0
    5.3957    2.5564   -1.4708 C   0  0  0  0  0  0  0  0  0  0  0  0
    3.3006   -0.1304    0.9322 S   0  0  0  0  0  0  0  0  0  0  0  0
   -2.1727   -0.3290   -2.9520 H   0  0  0  0  0  0  0  0  0  0  0  0
   -1.0121    0.7643   -2.1052 H   0  0  0  0  0  0  0  0  0  0  0  0
   -0.4336   -0.6227   -3.0321 H   0  0  0  0  0  0  0  0  0  0  0  0
   -3.2025    0.8695   -1.2110 H   0  0  0  0  0  0  0  0  0  0  0  0
   -4.6615    2.4027    0.5926 H   0  0  0  0  0  0  0  0  0  0  0  0
   -5.7147    1.3877   -0.4340 H   0  0  0  0  0  0  0  0  0  0  0  0
   -5.9113    1.3870    1.3236 H   0  0  0  0  0  0  0  0  0  0  0  0
   -4.9496   -0.4711    2.4758 H   0  0  0  0  0  0  0  0  0  0  0  0
   -3.3140   -2.3058    2.6046 H   0  0  0  0  0  0  0  0  0  0  0  0
   -1.0099   -2.3453    2.8779 H   0  0  0  0  0  0  0  0  0  0  0  0
   -0.1484   -3.7066    2.1584 H   0  0  0  0  0  0  0  0  0  0  0  0
    0.3082   -1.7612   -0.2267 H   0  0  0  0  0  0  0  0  0  0  0  0
    6.1434    0.8416   -0.2693 H   0  0  0  0  0  0  0  0  0  0  0  0
    4.2616    3.2611    0.3093 H   0  0  0  0  0  0  0  0  0  0  0  0
    6.0667    3.2156    0.5457 H   0  0  0  0  0  0  0  0  0  0  0  0
    6.3720    2.7409   -1.9042 H   0  0  0  0  0  0  0  0  0  0  0  0
    4.5696    2.7740   -2.1404 H   0  0  0  0  0  0  0  0  0  0  0  0
  1  2  1  0
  2  3  1  0
  3  4  2  0
  4  5  1  0
  5  6  1  0
  5  7  2  0
  7  8  1  0
  8  9  2  0
  9 10  1  0
 10 11  1  0
 11 12  1  0
 12 13  2  0
 12 14  1  0
 14 15  1  0
 15 16  2  0
 16 17  1  0
 17 18  2  0
 18 19  1  0
 19 20  1  0
 20 21  1  0
 18 22  1  0
  9  3  1  0
 22 15  1  0
 21 19  1  0
  1 23  1  0
  1 24  1  0
  1 25  1  0
  4 26  1  0
  6 27  1  0
  6 28  1  0
  6 29  1  0
  7 30  1  0
  8 31  1  0
 11 32  1  0
 11 33  1  0
 14 34  1  0
 19 35  1  0
 20 36  1  0
 20 37  1  0
 21 38  1  0
 21 39  1  0
M  END
$$$$
