
     RDKit          3D

 51 55  0  0  0  0  0  0  0  0999 V2000
    7.7429    0.1233    1.2522 C   0  0  0  0  0  0  0  0  0  0  0  0
    6.8034    1.0795    1.6335 C   0  0  0  0  0  0  0  0  0  0  0  0
    5.6343    1.2466    0.8898 C   0  0  0  0  0  0  0  0  0  0  0  0
    5.3972    0.4599   -0.2455 C   0  0  0  0  0  0  0  0  0  0  0  0
    4.1221    0.6248   -1.0384 C   0  0  0  0  0  0  0  0  0  0  0  0
    2.9920   -0.2551   -0.4768 C   0  0  0  0  0  0  0  0  0  0  0  0
    1.7508   -0.1434   -1.2613 N   0  0  0  0  0  0  0  0  0  0  0  0
    1.0371    1.1359   -1.0388 C   0  0  0  0  0  0  0  0  0  0  0  0
   -0.2684    1.0358   -0.2198 C   0  0  0  0  0  0  0  0  0  0  0  0
   -1.2119    0.0820   -0.8273 N   0  0  0  0  0  0  0  0  0  0  0  0
   -2.5225    0.0346   -0.3606 C   0  0  0  0  0  0  0  0  0  0  0  0
   -2.7887    0.6210    0.7819 N   0  0  0  0  0  0  0  0  0  0  0  0
   -4.0827    0.5780    1.3336 C   0  0  0  0  0  0  0  0  0  0  0  0
   -4.3012    1.2067    2.5612 C   0  0  0  0  0  0  0  0  0  0  0  0
   -5.5636    1.1843    3.1603 C   0  0  0  0  0  0  0  0  0  0  0  0
   -6.6238    0.5288    2.5335 C   0  0  0  0  0  0  0  0  0  0  0  0
   -6.4281   -0.1057    1.3063 C   0  0  0  0  0  0  0  0  0  0  0  0
   -5.1591   -0.0750    0.7198 C   0  0  0  0  0  0  0  0  0  0  0  0
   -4.8774   -0.6738   -0.5185 N   0  0  0  0  0  0  0  0  0  0  0  0
   -5.7175   -1.3552   -1.3673 C   0  0  0  0  0  0  0  0  0  0  0  0
   -5.0077   -1.6891   -2.4991 C   0  0  0  0  0  0  0  0  0  0  0  0
   -3.6897   -1.2077   -2.3223 C   0  0  0  0  0  0  0  0  0  0  0  0
   -3.6152   -0.6175   -1.0718 C   0  0  0  0  0  0  0  0  0  0  0  0
   -0.5854   -1.0777   -1.4792 C   0  0  0  0  0  0  0  0  0  0  0  0
    0.8629   -1.2946   -0.9906 C   0  0  0  0  0  0  0  0  0  0  0  0
    6.3459   -0.5019   -0.6177 C   0  0  0  0  0  0  0  0  0  0  0  0
    7.5142   -0.6673    0.1276 C   0  0  0  0  0  0  0  0  0  0  0  0
    8.6533   -0.0058    1.8316 H   0  0  0  0  0  0  0  0  0  0  0  0
    6.9813    1.6956    2.5110 H   0  0  0  0  0  0  0  0  0  0  0  0
    4.9098    1.9958    1.2008 H   0  0  0  0  0  0  0  0  0  0  0  0
    4.3114    0.3663   -2.0885 H   0  0  0  0  0  0  0  0  0  0  0  0
    3.8424    1.6849   -1.0376 H   0  0  0  0  0  0  0  0  0  0  0  0
    2.8040   -0.0218    0.5798 H   0  0  0  0  0  0  0  0  0  0  0  0
    3.3415   -1.2964   -0.5060 H   0  0  0  0  0  0  0  0  0  0  0  0
    0.7852    1.5303   -2.0317 H   0  0  0  0  0  0  0  0  0  0  0  0
    1.6816    1.8893   -0.5725 H   0  0  0  0  0  0  0  0  0  0  0  0
   -0.0378    0.7309    0.8087 H   0  0  0  0  0  0  0  0  0  0  0  0
   -0.7255    2.0320   -0.1804 H   0  0  0  0  0  0  0  0  0  0  0  0
   -3.4765    1.7161    3.0524 H   0  0  0  0  0  0  0  0  0  0  0  0
   -5.7167    1.6787    4.1161 H   0  0  0  0  0  0  0  0  0  0  0  0
   -7.6046    0.5143    3.0027 H   0  0  0  0  0  0  0  0  0  0  0  0
   -7.2684   -0.6059    0.8369 H   0  0  0  0  0  0  0  0  0  0  0  0
   -6.7536   -1.5357   -1.1207 H   0  0  0  0  0  0  0  0  0  0  0  0
   -5.4008   -2.2106   -3.3623 H   0  0  0  0  0  0  0  0  0  0  0  0
   -2.8853   -1.2843   -3.0401 H   0  0  0  0  0  0  0  0  0  0  0  0
   -0.5876   -0.9228   -2.5642 H   0  0  0  0  0  0  0  0  0  0  0  0
   -1.1473   -1.9943   -1.2662 H   0  0  0  0  0  0  0  0  0  0  0  0
    1.2725   -2.1809   -1.4893 H   0  0  0  0  0  0  0  0  0  0  0  0
    0.8353   -1.5114    0.0863 H   0  0  0  0  0  0  0  0  0  0  0  0
    6.1798   -1.1279   -1.4917 H   0  0  0  0  0  0  0  0  0  0  0  0
    8.2462   -1.4137   -0.1696 H   0  0  0  0  0  0  0  0  0  0  0  0
  1  2  2  0
  2  3  1  0
  3  4  2  0
  4  5  1  0
  5  6  1  0
  6  7  1  0
  7  8  1  0
  8  9  1  0
  9 10  1  0
 10 11  1  0
 11 12  2  0
 12 13  1  0
 13 14  2  0
 14 15  1  0
 15 16  2  0
 16 17  1  0
 17 18  2  0
 18 19  1  0
 19 20  1  0
 20 21  2  0
 21 22  1  0
 22 23  2  0
 10 24  1  0
 24 25  1  0
  4 26  1  0
 26 27  2  0
 27  1  1  0
 25  7  1  0
 23 11  1  0
 18 13  1  0
 23 19  1  0
  1 28  1  0
  2 29  1  0
  3 30  1  0
  5 31  1  0
  5 32  1  0
  6 33  1  0
  6 34  1  0
  8 35  1  0
  8 36  1  0
  9 37  1  0
  9 38  1  0
 14 39  1  0
 15 40  1  0
 16 41  1  0
 17 42  1  0
 20 43  1  0
 21 44  1  0
 22 45  1  0
 24 46  1  0
 24 47  1  0
 25 48  1  0
 25 49  1  0
 26 50  1  0
 27 51  1  0
M  END
$$$$
