
     RDKit          3D

 47 50  0  0  0  0  0  0  0  0999 V2000
   -5.6486   -1.8652    2.1599 C   0  0  0  0  0  0  0  0  0  0  0  0
   -5.8447   -0.3543    2.1281 C   0  0  0  0  0  0  0  0  0  0  0  0
   -4.5738    0.3868    1.7146 C   0  0  0  0  0  0  0  0  0  0  0  0
   -4.2422    0.0172    0.3780 O   0  0  0  0  0  0  0  0  0  0  0  0
   -3.0603    0.4821   -0.1347 C   0  0  0  0  0  0  0  0  0  0  0  0
   -2.2450    1.4389    0.4743 C   0  0  0  0  0  0  0  0  0  0  0  0
   -1.0517    1.8442   -0.1357 C   0  0  0  0  0  0  0  0  0  0  0  0
   -0.6573    1.2979   -1.3621 C   0  0  0  0  0  0  0  0  0  0  0  0
    0.5705    1.7332   -2.0341 C   0  0  0  0  0  0  0  0  0  0  0  0
    1.8236    1.5780   -1.5793 C   0  0  0  0  0  0  0  0  0  0  0  0
    3.2123    2.1543   -2.5067 S   0  0  0  0  0  0  0  0  0  0  0  0
    4.2633    1.5806   -1.2818 C   0  0  0  0  0  0  0  0  0  0  0  0
    5.5514    1.5786   -1.0952 N   0  0  0  0  0  0  0  0  0  0  0  0
    5.6487    0.9388    0.1340 C   0  0  0  0  0  0  0  0  0  0  0  0
    7.0256    0.6804    0.8286 C   0  0  0  0  0  0  0  0  0  0  0  0
    8.2589    1.0414    0.3201 C   0  0  0  0  0  0  0  0  0  0  0  0
    9.2279    0.6226    1.2646 C   0  0  0  0  0  0  0  0  0  0  0  0
    8.5289    0.0315    2.2903 C   0  0  0  0  0  0  0  0  0  0  0  0
    7.1960    0.0616    2.0367 O   0  0  0  0  0  0  0  0  0  0  0  0
    4.4744    0.5628    0.6799 N   0  0  0  0  0  0  0  0  0  0  0  0
    3.6146    0.9924   -0.2584 N   0  0  0  0  0  0  0  0  0  0  0  0
    2.2381    0.9157   -0.2961 C   0  0  0  0  0  0  0  0  0  0  0  0
    1.5734    0.3990    0.5816 O   0  0  0  0  0  0  0  0  0  0  0  0
   -1.4821    0.3576   -1.9881 C   0  0  0  0  0  0  0  0  0  0  0  0
   -2.6650   -0.0606   -1.3683 C   0  0  0  0  0  0  0  0  0  0  0  0
   -3.5030   -0.9616   -1.9823 O   0  0  0  0  0  0  0  0  0  0  0  0
   -2.8528   -2.2042   -2.2711 C   0  0  0  0  0  0  0  0  0  0  0  0
   -3.9277   -3.2601   -2.4584 C   0  0  0  0  0  0  0  0  0  0  0  0
   -6.5686   -2.3582    2.4923 H   0  0  0  0  0  0  0  0  0  0  0  0
   -4.8459   -2.1428    2.8517 H   0  0  0  0  0  0  0  0  0  0  0  0
   -5.3973   -2.2550    1.1681 H   0  0  0  0  0  0  0  0  0  0  0  0
   -6.6510   -0.1237    1.4206 H   0  0  0  0  0  0  0  0  0  0  0  0
   -6.1607   -0.0094    3.1194 H   0  0  0  0  0  0  0  0  0  0  0  0
   -3.7595    0.1242    2.4019 H   0  0  0  0  0  0  0  0  0  0  0  0
   -4.7660    1.4655    1.7618 H   0  0  0  0  0  0  0  0  0  0  0  0
   -2.5090    1.8948    1.4234 H   0  0  0  0  0  0  0  0  0  0  0  0
   -0.4378    2.5906    0.3649 H   0  0  0  0  0  0  0  0  0  0  0  0
    0.3964    2.2073   -2.9996 H   0  0  0  0  0  0  0  0  0  0  0  0
    8.4287    1.5460   -0.6217 H   0  0  0  0  0  0  0  0  0  0  0  0
   10.3013    0.7354    1.2055 H   0  0  0  0  0  0  0  0  0  0  0  0
    8.8154   -0.4352    3.2230 H   0  0  0  0  0  0  0  0  0  0  0  0
   -1.2149   -0.0418   -2.9627 H   0  0  0  0  0  0  0  0  0  0  0  0
   -2.1867   -2.5072   -1.4529 H   0  0  0  0  0  0  0  0  0  0  0  0
   -2.2735   -2.1115   -3.1973 H   0  0  0  0  0  0  0  0  0  0  0  0
   -4.6208   -2.9667   -3.2558 H   0  0  0  0  0  0  0  0  0  0  0  0
   -3.4824   -4.2283   -2.7138 H   0  0  0  0  0  0  0  0  0  0  0  0
   -4.5213   -3.3733   -1.5428 H   0  0  0  0  0  0  0  0  0  0  0  0
  1  2  1  0
  2  3  1  0
  3  4  1  0
  4  5  1  0
  5  6  2  0
  6  7  1  0
  7  8  2  0
  8  9  1  0
  9 10  2  3
 10 11  1  0
 11 12  1  0
 12 13  2  0
 13 14  1  0
 14 15  1  0
 15 16  2  0
 16 17  1  0
 17 18  2  0
 18 19  1  0
 14 20  2  0
 20 21  1  0
 21 22  1  0
 22 23  2  0
  8 24  1  0
 24 25  2  0
 25 26  1  0
 26 27  1  0
 27 28  1  0
 25  5  1  0
 22 10  1  0
 21 12  1  0
 19 15  1  0
  1 29  1  0
  1 30  1  0
  1 31  1  0
  2 32  1  0
  2 33  1  0
  3 34  1  0
  3 35  1  0
  6 36  1  0
  7 37  1  0
  9 38  1  0
 16 39  1  0
 17 40  1  0
 18 41  1  0
 24 42  1  0
 27 43  1  0
 27 44  1  0
 28 45  1  0
 28 46  1  0
 28 47  1  0
M  END
$$$$
