
     RDKit          3D

 42 44  0  0  0  0  0  0  0  0999 V2000
   -8.4740   -0.6309    0.4139 C   0  0  0  0  0  0  0  0  0  0  0  0
   -7.6148    0.4730   -0.1448 C   0  0  0  0  0  0  0  0  0  0  0  0
   -8.1150    1.4973   -0.6056 O   0  0  0  0  0  0  0  0  0  0  0  0
   -6.1306    0.3107   -0.1343 C   0  0  0  0  0  0  0  0  0  0  0  0
   -5.3411    1.3406   -0.6578 C   0  0  0  0  0  0  0  0  0  0  0  0
   -3.9465    1.2295   -0.6680 C   0  0  0  0  0  0  0  0  0  0  0  0
   -3.3175    0.0878   -0.1585 C   0  0  0  0  0  0  0  0  0  0  0  0
   -1.9083    0.0547   -0.2011 N   0  0  0  0  0  0  0  0  0  0  0  0
   -1.0827   -0.9914    0.1703 C   0  0  0  0  0  0  0  0  0  0  0  0
   -1.4315   -2.1064    0.5397 O   0  0  0  0  0  0  0  0  0  0  0  0
    0.3778   -0.7136    0.0552 C   0  0  0  0  0  0  0  0  0  0  0  0
    1.2325   -1.7632   -0.2938 C   0  0  0  0  0  0  0  0  0  0  0  0
    2.6085   -1.5412   -0.4115 C   0  0  0  0  0  0  0  0  0  0  0  0
    3.1525   -0.2714   -0.1757 C   0  0  0  0  0  0  0  0  0  0  0  0
    4.5498   -0.1374   -0.3185 N   0  0  0  0  0  0  0  0  0  0  0  0
    5.3148    1.0156   -0.1856 C   0  0  0  0  0  0  0  0  0  0  0  0
    4.8473    2.1241    0.0591 O   0  0  0  0  0  0  0  0  0  0  0  0
    6.7459    0.8034   -0.3746 C   0  0  0  0  0  0  0  0  0  0  0  0
    7.5318   -0.3181   -0.5941 C   0  0  0  0  0  0  0  0  0  0  0  0
    8.8740    0.1277   -0.6955 C   0  0  0  0  0  0  0  0  0  0  0  0
    8.8359    1.4898   -0.5317 C   0  0  0  0  0  0  0  0  0  0  0  0
    7.5615    1.9071   -0.3371 O   0  0  0  0  0  0  0  0  0  0  0  0
    2.2956    0.7679    0.1942 C   0  0  0  0  0  0  0  0  0  0  0  0
    0.9163    0.5505    0.3149 C   0  0  0  0  0  0  0  0  0  0  0  0
   -4.1076   -0.9359    0.3673 C   0  0  0  0  0  0  0  0  0  0  0  0
   -5.5056   -0.8287    0.3796 C   0  0  0  0  0  0  0  0  0  0  0  0
   -8.2548   -0.7819    1.4740 H   0  0  0  0  0  0  0  0  0  0  0  0
   -8.3219   -1.5533   -0.1525 H   0  0  0  0  0  0  0  0  0  0  0  0
   -9.5272   -0.3473    0.3227 H   0  0  0  0  0  0  0  0  0  0  0  0
   -5.8074    2.2377   -1.0619 H   0  0  0  0  0  0  0  0  0  0  0  0
   -3.3665    2.0500   -1.0832 H   0  0  0  0  0  0  0  0  0  0  0  0
   -1.4651    0.8662   -0.6121 H   0  0  0  0  0  0  0  0  0  0  0  0
    0.8288   -2.7575   -0.4769 H   0  0  0  0  0  0  0  0  0  0  0  0
    3.2425   -2.3795   -0.6896 H   0  0  0  0  0  0  0  0  0  0  0  0
    5.0433   -0.9815   -0.5676 H   0  0  0  0  0  0  0  0  0  0  0  0
    7.1968   -1.3423   -0.6692 H   0  0  0  0  0  0  0  0  0  0  0  0
    9.7595   -0.4693   -0.8640 H   0  0  0  0  0  0  0  0  0  0  0  0
    9.5875    2.2674   -0.5252 H   0  0  0  0  0  0  0  0  0  0  0  0
    2.6665    1.7649    0.4135 H   0  0  0  0  0  0  0  0  0  0  0  0
    0.2898    1.3755    0.6437 H   0  0  0  0  0  0  0  0  0  0  0  0
   -3.6664   -1.8370    0.7833 H   0  0  0  0  0  0  0  0  0  0  0  0
   -6.0744   -1.6534    0.7991 H   0  0  0  0  0  0  0  0  0  0  0  0
  1  2  1  0
  2  3  2  0
  2  4  1  0
  4  5  2  0
  5  6  1  0
  6  7  2  0
  7  8  1  0
  8  9  1  0
  9 10  2  0
  9 11  1  0
 11 12  2  0
 12 13  1  0
 13 14  2  0
 14 15  1  0
 15 16  1  0
 16 17  2  0
 16 18  1  0
 18 19  2  0
 19 20  1  0
 20 21  2  0
 21 22  1  0
 14 23  1  0
 23 24  2  0
  7 25  1  0
 25 26  2  0
 26  4  1  0
 24 11  1  0
 22 18  1  0
  1 27  1  0
  1 28  1  0
  1 29  1  0
  5 30  1  0
  6 31  1  0
  8 32  1  0
 12 33  1  0
 13 34  1  0
 15 35  1  0
 19 36  1  0
 20 37  1  0
 21 38  1  0
 23 39  1  0
 24 40  1  0
 25 41  1  0
 26 42  1  0
M  END
$$$$
