
     RDKit          3D

 59 62  0  0  0  0  0  0  0  0999 V2000
    6.6762    3.1153   -1.7829 C   0  0  0  0  0  0  0  0  0  0  0  0
    6.6284    1.6969   -1.8595 O   0  0  0  0  0  0  0  0  0  0  0  0
    5.8160    1.0600   -0.9801 C   0  0  0  0  0  0  0  0  0  0  0  0
    5.7394   -0.3238   -1.1398 C   0  0  0  0  0  0  0  0  0  0  0  0
    4.9659   -1.0984   -0.2707 C   0  0  0  0  0  0  0  0  0  0  0  0
    4.2735   -0.4901    0.7793 C   0  0  0  0  0  0  0  0  0  0  0  0
    3.4694   -1.3459    1.6923 C   0  0  0  0  0  0  0  0  0  0  0  0
    2.8919   -2.3278    1.2305 O   0  0  0  0  0  0  0  0  0  0  0  0
    3.4709   -1.0222    3.1733 C   0  0  0  0  0  0  0  0  0  0  0  0
    1.8385   -1.3230    3.9145 S   0  0  0  0  0  0  0  0  0  0  0  0
    0.9019   -0.1269    3.0933 C   0  0  0  0  0  0  0  0  0  0  0  0
    1.3417    1.0482    2.7099 N   0  0  0  0  0  0  0  0  0  0  0  0
    0.3052    1.6913    2.0783 N   0  0  0  0  0  0  0  0  0  0  0  0
   -0.7512    0.8999    2.0961 C   0  0  0  0  0  0  0  0  0  0  0  0
   -2.0901    1.2034    1.4897 C   0  0  0  0  0  0  0  0  0  0  0  0
   -2.1014    1.1659    0.0295 N   0  0  0  0  0  0  0  0  0  0  0  0
   -3.3008    0.9516   -0.6605 C   0  0  0  0  0  0  0  0  0  0  0  0
   -4.5517    1.2465   -0.0958 C   0  0  0  0  0  0  0  0  0  0  0  0
   -5.7378    1.0572   -0.8038 C   0  0  0  0  0  0  0  0  0  0  0  0
   -5.7079    0.6158   -2.1263 C   0  0  0  0  0  0  0  0  0  0  0  0
   -6.9814    0.3830   -2.8808 C   0  0  0  0  0  0  0  0  0  0  0  0
   -4.4714    0.3622   -2.7219 C   0  0  0  0  0  0  0  0  0  0  0  0
   -3.2719    0.5461   -2.0143 C   0  0  0  0  0  0  0  0  0  0  0  0
   -1.9722    0.3153   -2.7424 C   0  0  0  0  0  0  0  0  0  0  0  0
   -0.4101   -0.2760    2.7386 N   0  0  0  0  0  0  0  0  0  0  0  0
   -1.2622   -1.4246    2.9774 C   0  0  0  0  0  0  0  0  0  0  0  0
   -1.3356   -2.2732    1.7682 C   0  0  0  0  0  0  0  0  0  0  0  0
   -0.5036   -3.2363    1.2271 C   0  0  0  0  0  0  0  0  0  0  0  0
   -1.1155   -3.6608    0.0241 C   0  0  0  0  0  0  0  0  0  0  0  0
   -2.2747   -2.9354   -0.0941 C   0  0  0  0  0  0  0  0  0  0  0  0
   -2.4315   -2.1055    0.9777 O   0  0  0  0  0  0  0  0  0  0  0  0
    4.3281    0.8975    0.9247 C   0  0  0  0  0  0  0  0  0  0  0  0
    5.0980    1.6692    0.0423 C   0  0  0  0  0  0  0  0  0  0  0  0
    7.3478    3.4703   -2.5719 H   0  0  0  0  0  0  0  0  0  0  0  0
    7.0858    3.4464   -0.8225 H   0  0  0  0  0  0  0  0  0  0  0  0
    5.6872    3.5515   -1.9637 H   0  0  0  0  0  0  0  0  0  0  0  0
    6.2858   -0.8033   -1.9445 H   0  0  0  0  0  0  0  0  0  0  0  0
    4.9126   -2.1727   -0.4160 H   0  0  0  0  0  0  0  0  0  0  0  0
    4.1923   -1.6948    3.6516 H   0  0  0  0  0  0  0  0  0  0  0  0
    3.7861   -0.0002    3.3887 H   0  0  0  0  0  0  0  0  0  0  0  0
   -2.8339    0.5093    1.8899 H   0  0  0  0  0  0  0  0  0  0  0  0
   -2.3879    2.2044    1.8180 H   0  0  0  0  0  0  0  0  0  0  0  0
   -1.3368    0.6215   -0.3433 H   0  0  0  0  0  0  0  0  0  0  0  0
   -4.6324    1.6306    0.9169 H   0  0  0  0  0  0  0  0  0  0  0  0
   -6.6846    1.2676   -0.3164 H   0  0  0  0  0  0  0  0  0  0  0  0
   -7.3265   -0.6450   -2.7258 H   0  0  0  0  0  0  0  0  0  0  0  0
   -6.8324    0.5487   -3.9567 H   0  0  0  0  0  0  0  0  0  0  0  0
   -7.7714    1.0751   -2.5560 H   0  0  0  0  0  0  0  0  0  0  0  0
   -4.4362    0.0246   -3.7566 H   0  0  0  0  0  0  0  0  0  0  0  0
   -1.3899   -0.4745   -2.2567 H   0  0  0  0  0  0  0  0  0  0  0  0
   -1.3858    1.2367   -2.7717 H   0  0  0  0  0  0  0  0  0  0  0  0
   -2.1340    0.0037   -3.7808 H   0  0  0  0  0  0  0  0  0  0  0  0
   -0.8773   -1.9977    3.8288 H   0  0  0  0  0  0  0  0  0  0  0  0
   -2.2468   -1.0587    3.2794 H   0  0  0  0  0  0  0  0  0  0  0  0
    0.4429   -3.5696    1.6314 H   0  0  0  0  0  0  0  0  0  0  0  0
   -0.7471   -4.3932   -0.6804 H   0  0  0  0  0  0  0  0  0  0  0  0
   -3.0614   -2.8926   -0.8321 H   0  0  0  0  0  0  0  0  0  0  0  0
    3.7607    1.4133    1.6969 H   0  0  0  0  0  0  0  0  0  0  0  0
    5.1094    2.7433    0.1875 H   0  0  0  0  0  0  0  0  0  0  0  0
  1  2  1  0
  2  3  1  0
  3  4  2  0
  4  5  1  0
  5  6  2  0
  6  7  1  0
  7  8  2  0
  7  9  1  0
  9 10  1  0
 10 11  1  0
 11 12  2  0
 12 13  1  0
 13 14  2  0
 14 15  1  0
 15 16  1  0
 16 17  1  0
 17 18  2  0
 18 19  1  0
 19 20  2  0
 20 21  1  0
 20 22  1  0
 22 23  2  0
 23 24  1  0
 14 25  1  0
 25 26  1  0
 26 27  1  0
 27 28  2  0
 28 29  1  0
 29 30  2  0
 30 31  1  0
  6 32  1  0
 32 33  2  0
 33  3  1  0
 25 11  1  0
 31 27  1  0
 23 17  1  0
  1 34  1  0
  1 35  1  0
  1 36  1  0
  4 37  1  0
  5 38  1  0
  9 39  1  0
  9 40  1  0
 15 41  1  0
 15 42  1  0
 16 43  1  0
 18 44  1  0
 19 45  1  0
 21 46  1  0
 21 47  1  0
 21 48  1  0
 22 49  1  0
 24 50  1  0
 24 51  1  0
 24 52  1  0
 26 53  1  0
 26 54  1  0
 28 55  1  0
 29 56  1  0
 30 57  1  0
 32 58  1  0
 33 59  1  0
M  END
$$$$
