
     RDKit          3D

 52 55  0  0  0  0  0  0  0  0999 V2000
    7.6598   -2.4839    3.6736 C   0  0  0  0  0  0  0  0  0  0  0  0
    7.3936   -1.8907    2.4087 O   0  0  0  0  0  0  0  0  0  0  0  0
    6.1247   -1.4268    2.2009 C   0  0  0  0  0  0  0  0  0  0  0  0
    5.0717   -1.4742    3.1122 C   0  0  0  0  0  0  0  0  0  0  0  0
    3.8127   -0.9594    2.7697 C   0  0  0  0  0  0  0  0  0  0  0  0
    3.5920   -0.3936    1.5140 C   0  0  0  0  0  0  0  0  0  0  0  0
    2.3610    0.1462    1.0961 N   0  0  0  0  0  0  0  0  0  0  0  0
    1.1586    0.1655    1.7811 C   0  0  0  0  0  0  0  0  0  0  0  0
    0.9635   -0.2837    2.9083 O   0  0  0  0  0  0  0  0  0  0  0  0
    0.0432    0.9025    1.0512 C   0  0  0  0  0  0  0  0  0  0  0  0
    0.0395    0.5547   -0.7355 S   0  0  0  0  0  0  0  0  0  0  0  0
   -1.4497    1.3963   -1.1468 C   0  0  0  0  0  0  0  0  0  0  0  0
   -1.5086    2.6430   -0.7877 N   0  0  0  0  0  0  0  0  0  0  0  0
   -2.6793    3.2912   -1.0477 C   0  0  0  0  0  0  0  0  0  0  0  0
   -3.7441    2.7492   -1.6355 C   0  0  0  0  0  0  0  0  0  0  0  0
   -3.6919    1.3417   -2.0796 C   0  0  0  0  0  0  0  0  0  0  0  0
   -4.6370    0.8361   -2.6839 O   0  0  0  0  0  0  0  0  0  0  0  0
   -2.4754    0.7068   -1.7938 N   0  0  0  0  0  0  0  0  0  0  0  0
   -2.3661   -0.6674   -2.1601 C   0  0  0  0  0  0  0  0  0  0  0  0
   -1.4756   -1.0545   -3.1720 C   0  0  0  0  0  0  0  0  0  0  0  0
   -1.3848   -2.3948   -3.5499 C   0  0  0  0  0  0  0  0  0  0  0  0
   -2.1777   -3.3533   -2.9200 C   0  0  0  0  0  0  0  0  0  0  0  0
   -3.0704   -2.9767   -1.9145 C   0  0  0  0  0  0  0  0  0  0  0  0
   -3.1807   -1.6337   -1.5445 C   0  0  0  0  0  0  0  0  0  0  0  0
   -3.9896   -1.2283   -0.5116 O   0  0  0  0  0  0  0  0  0  0  0  0
   -5.3248   -1.7202   -0.6247 C   0  0  0  0  0  0  0  0  0  0  0  0
   -5.0970    3.7881   -1.8244 S   0  0  0  0  0  0  0  0  0  0  0  0
   -4.1159    5.2508   -1.3359 C   0  0  0  0  0  0  0  0  0  0  0  0
   -2.8585    4.7224   -0.6372 C   0  0  0  0  0  0  0  0  0  0  0  0
    4.6522   -0.3463    0.6030 C   0  0  0  0  0  0  0  0  0  0  0  0
    5.9069   -0.8596    0.9455 C   0  0  0  0  0  0  0  0  0  0  0  0
    7.5284   -1.7600    4.4846 H   0  0  0  0  0  0  0  0  0  0  0  0
    7.0400   -3.3727    3.8314 H   0  0  0  0  0  0  0  0  0  0  0  0
    8.7065   -2.8032    3.6792 H   0  0  0  0  0  0  0  0  0  0  0  0
    5.1881   -1.9036    4.1017 H   0  0  0  0  0  0  0  0  0  0  0  0
    3.0251   -1.0174    3.5145 H   0  0  0  0  0  0  0  0  0  0  0  0
    2.3254    0.5076    0.1484 H   0  0  0  0  0  0  0  0  0  0  0  0
   -0.9141    0.5802    1.4738 H   0  0  0  0  0  0  0  0  0  0  0  0
    0.1733    1.9740    1.2321 H   0  0  0  0  0  0  0  0  0  0  0  0
   -0.8617   -0.3173   -3.6828 H   0  0  0  0  0  0  0  0  0  0  0  0
   -0.6947   -2.6925   -4.3357 H   0  0  0  0  0  0  0  0  0  0  0  0
   -2.0960   -4.3989   -3.2075 H   0  0  0  0  0  0  0  0  0  0  0  0
   -3.6546   -3.7432   -1.4147 H   0  0  0  0  0  0  0  0  0  0  0  0
   -5.3914   -2.7399   -0.2331 H   0  0  0  0  0  0  0  0  0  0  0  0
   -5.9674   -1.0825   -0.0101 H   0  0  0  0  0  0  0  0  0  0  0  0
   -5.6945   -1.6768   -1.6555 H   0  0  0  0  0  0  0  0  0  0  0  0
   -4.6964    5.9096   -0.6836 H   0  0  0  0  0  0  0  0  0  0  0  0
   -3.8479    5.8058   -2.2412 H   0  0  0  0  0  0  0  0  0  0  0  0
   -1.9912    5.3319   -0.9135 H   0  0  0  0  0  0  0  0  0  0  0  0
   -2.9726    4.7812    0.4519 H   0  0  0  0  0  0  0  0  0  0  0  0
    4.5221    0.0870   -0.3850 H   0  0  0  0  0  0  0  0  0  0  0  0
    6.7213   -0.8168    0.2264 H   0  0  0  0  0  0  0  0  0  0  0  0
  1  2  1  0
  2  3  1  0
  3  4  2  0
  4  5  1  0
  5  6  2  0
  6  7  1  0
  7  8  1  0
  8  9  2  0
  8 10  1  0
 10 11  1  0
 11 12  1  0
 12 13  2  0
 13 14  1  0
 14 15  2  0
 15 16  1  0
 16 17  2  0
 16 18  1  0
 18 19  1  0
 19 20  2  0
 20 21  1  0
 21 22  2  0
 22 23  1  0
 23 24  2  0
 24 25  1  0
 25 26  1  0
 15 27  1  0
 27 28  1  0
 28 29  1  0
  6 30  1  0
 30 31  2  0
 31  3  1  0
 18 12  1  0
 24 19  1  0
 29 14  1  0
  1 32  1  0
  1 33  1  0
  1 34  1  0
  4 35  1  0
  5 36  1  0
  7 37  1  0
 10 38  1  0
 10 39  1  0
 20 40  1  0
 21 41  1  0
 22 42  1  0
 23 43  1  0
 26 44  1  0
 26 45  1  0
 26 46  1  0
 28 47  1  0
 28 48  1  0
 29 49  1  0
 29 50  1  0
 30 51  1  0
 31 52  1  0
M  END
$$$$
