
     RDKit          3D

 40 41  0  0  0  0  0  0  0  0999 V2000
    6.2203    0.4613   -3.9854 C   0  0  0  0  0  0  0  0  0  0  0  0
    5.4275   -0.8041   -4.2817 C   0  0  0  0  0  0  0  0  0  0  0  0
    3.9206   -0.5565   -4.3185 C   0  0  0  0  0  0  0  0  0  0  0  0
    3.2972   -0.3450   -2.9444 C   0  0  0  0  0  0  0  0  0  0  0  0
    3.9267   -0.5070   -1.9062 O   0  0  0  0  0  0  0  0  0  0  0  0
    1.9625    0.0176   -3.0484 N   0  0  0  0  0  0  0  0  0  0  0  0
    1.0629    0.2958   -1.9993 C   0  0  0  0  0  0  0  0  0  0  0  0
    1.4049    0.2641   -0.6459 C   0  0  0  0  0  0  0  0  0  0  0  0
    0.4523    0.5542    0.3409 C   0  0  0  0  0  0  0  0  0  0  0  0
   -0.8606    0.8739   -0.0193 C   0  0  0  0  0  0  0  0  0  0  0  0
   -1.9110    1.1926    0.9868 C   0  0  0  0  0  0  0  0  0  0  0  0
   -2.9181    1.8209    0.6677 O   0  0  0  0  0  0  0  0  0  0  0  0
   -1.7069    0.7190    2.2697 N   0  0  0  0  0  0  0  0  0  0  0  0
   -2.7963    0.8082    3.1567 N   0  0  0  0  0  0  0  0  0  0  0  0
   -3.0663   -0.2826    3.9678 C   0  0  0  0  0  0  0  0  0  0  0  0
   -2.2462   -1.1972    4.0778 O   0  0  0  0  0  0  0  0  0  0  0  0
   -4.3526   -0.2778    4.6497 C   0  0  0  0  0  0  0  0  0  0  0  0
   -4.8353   -1.2512    5.5068 C   0  0  0  0  0  0  0  0  0  0  0  0
   -6.1336   -0.9483    6.0091 C   0  0  0  0  0  0  0  0  0  0  0  0
   -6.6055    0.2485    5.5202 C   0  0  0  0  0  0  0  0  0  0  0  0
   -5.4871    0.9951    4.4650 S   0  0  0  0  0  0  0  0  0  0  0  0
   -1.2035    0.9212   -1.3746 C   0  0  0  0  0  0  0  0  0  0  0  0
   -0.2492    0.6308   -2.3554 C   0  0  0  0  0  0  0  0  0  0  0  0
    6.0203    1.2330   -4.7357 H   0  0  0  0  0  0  0  0  0  0  0  0
    7.2933    0.2452   -4.0015 H   0  0  0  0  0  0  0  0  0  0  0  0
    5.9747    0.8694   -3.0006 H   0  0  0  0  0  0  0  0  0  0  0  0
    5.7441   -1.1883   -5.2586 H   0  0  0  0  0  0  0  0  0  0  0  0
    5.6747   -1.5727   -3.5405 H   0  0  0  0  0  0  0  0  0  0  0  0
    3.6968    0.3089   -4.9533 H   0  0  0  0  0  0  0  0  0  0  0  0
    3.4319   -1.4336   -4.7604 H   0  0  0  0  0  0  0  0  0  0  0  0
    1.5852    0.0864   -3.9853 H   0  0  0  0  0  0  0  0  0  0  0  0
    2.4125    0.0246   -0.3186 H   0  0  0  0  0  0  0  0  0  0  0  0
    0.7723    0.5460    1.3793 H   0  0  0  0  0  0  0  0  0  0  0  0
   -1.0696   -0.0559    2.4523 H   0  0  0  0  0  0  0  0  0  0  0  0
   -3.5513    1.4324    2.8725 H   0  0  0  0  0  0  0  0  0  0  0  0
   -4.2724   -2.1435    5.7591 H   0  0  0  0  0  0  0  0  0  0  0  0
   -6.6914   -1.5764    6.6933 H   0  0  0  0  0  0  0  0  0  0  0  0
   -7.5548    0.7221    5.7314 H   0  0  0  0  0  0  0  0  0  0  0  0
   -2.2171    1.1827   -1.6738 H   0  0  0  0  0  0  0  0  0  0  0  0
   -0.5520    0.6735   -3.3987 H   0  0  0  0  0  0  0  0  0  0  0  0
  1  2  1  0
  2  3  1  0
  3  4  1  0
  4  5  2  0
  4  6  1  0
  6  7  1  0
  7  8  2  0
  8  9  1  0
  9 10  2  0
 10 11  1  0
 11 12  2  0
 11 13  1  0
 13 14  1  0
 14 15  1  0
 15 16  2  0
 15 17  1  0
 17 18  2  0
 18 19  1  0
 19 20  2  0
 20 21  1  0
 10 22  1  0
 22 23  2  0
 23  7  1  0
 21 17  1  0
  1 24  1  0
  1 25  1  0
  1 26  1  0
  2 27  1  0
  2 28  1  0
  3 29  1  0
  3 30  1  0
  6 31  1  0
  8 32  1  0
  9 33  1  0
 13 34  1  0
 14 35  1  0
 18 36  1  0
 19 37  1  0
 20 38  1  0
 22 39  1  0
 23 40  1  0
M  END
$$$$
