
     RDKit          3D

 37 39  0  0  0  0  0  0  0  0999 V2000
    4.2482   -0.8181   -1.5618 N   0  0  0  0  0  0  0  0  0  0  0  0
    4.1650    0.4300   -0.8138 C   0  0  0  0  0  0  0  0  0  0  0  0
    3.1348    0.3541    0.3139 C   0  0  0  0  0  0  0  0  0  0  0  0
    1.6955    0.1978   -0.1849 C   0  0  0  0  0  0  0  0  0  0  0  0
    0.7076    0.1735    0.9914 C   0  0  0  0  0  0  0  0  0  0  0  0
   -0.6906    0.0207    0.5260 N   0  0  0  0  0  0  0  0  0  0  0  0
   -1.2048   -1.3075    0.4431 C   0  0  0  0  0  0  0  0  0  0  0  0
   -0.3639   -2.4448    0.4530 C   0  0  0  0  0  0  0  0  0  0  0  0
   -0.8581   -3.7519    0.3593 C   0  0  0  0  0  0  0  0  0  0  0  0
   -2.2201   -3.9703    0.2483 C   0  0  0  0  0  0  0  0  0  0  0  0
   -3.0794   -2.8785    0.2286 C   0  0  0  0  0  0  0  0  0  0  0  0
   -2.5861   -1.5610    0.3200 C   0  0  0  0  0  0  0  0  0  0  0  0
   -3.8225   -0.2855    0.3066 S   0  0  0  0  0  0  0  0  0  0  0  0
   -2.8443    1.1898    0.1635 C   0  0  0  0  0  0  0  0  0  0  0  0
   -3.5737    2.3735   -0.0707 C   0  0  0  0  0  0  0  0  0  0  0  0
   -2.9318    3.6013   -0.1823 C   0  0  0  0  0  0  0  0  0  0  0  0
   -1.5543    3.6466   -0.0597 C   0  0  0  0  0  0  0  0  0  0  0  0
   -0.7340    5.1536   -0.2034 Cl  0  0  0  0  0  0  0  0  0  0  0  0
   -0.8222    2.4781    0.1755 C   0  0  0  0  0  0  0  0  0  0  0  0
   -1.4401    1.2128    0.3007 C   0  0  0  0  0  0  0  0  0  0  0  0
    4.9892   -0.7425   -2.2587 H   0  0  0  0  0  0  0  0  0  0  0  0
    3.3890   -0.9641   -2.0911 H   0  0  0  0  0  0  0  0  0  0  0  0
    3.9252    1.2538   -1.4950 H   0  0  0  0  0  0  0  0  0  0  0  0
    5.1483    0.6414   -0.3796 H   0  0  0  0  0  0  0  0  0  0  0  0
    3.2091    1.2727    0.9092 H   0  0  0  0  0  0  0  0  0  0  0  0
    3.3850   -0.4767    0.9859 H   0  0  0  0  0  0  0  0  0  0  0  0
    1.4583    1.0188   -0.8705 H   0  0  0  0  0  0  0  0  0  0  0  0
    1.5988   -0.7203   -0.7731 H   0  0  0  0  0  0  0  0  0  0  0  0
    0.8224    1.0769    1.6044 H   0  0  0  0  0  0  0  0  0  0  0  0
    0.9774   -0.6202    1.7002 H   0  0  0  0  0  0  0  0  0  0  0  0
    0.7158   -2.3554    0.5174 H   0  0  0  0  0  0  0  0  0  0  0  0
   -0.1694   -4.5930    0.3694 H   0  0  0  0  0  0  0  0  0  0  0  0
   -2.6136   -4.9801    0.1755 H   0  0  0  0  0  0  0  0  0  0  0  0
   -4.1493   -3.0584    0.1420 H   0  0  0  0  0  0  0  0  0  0  0  0
   -4.6577    2.3400   -0.1664 H   0  0  0  0  0  0  0  0  0  0  0  0
   -3.5081    4.5035   -0.3642 H   0  0  0  0  0  0  0  0  0  0  0  0
    0.2543    2.5892    0.2411 H   0  0  0  0  0  0  0  0  0  0  0  0
  1  2  1  0
  2  3  1  0
  3  4  1  0
  4  5  1  0
  5  6  1  0
  6  7  1  0
  7  8  2  0
  8  9  1  0
  9 10  2  0
 10 11  1  0
 11 12  2  0
 12 13  1  0
 13 14  1  0
 14 15  2  0
 15 16  1  0
 16 17  2  0
 17 18  1  0
 17 19  1  0
 19 20  2  0
 20  6  1  0
 12  7  1  0
 20 14  1  0
  1 21  1  0
  1 22  1  0
  2 23  1  0
  2 24  1  0
  3 25  1  0
  3 26  1  0
  4 27  1  0
  4 28  1  0
  5 29  1  0
  5 30  1  0
  8 31  1  0
  9 32  1  0
 10 33  1  0
 11 34  1  0
 15 35  1  0
 16 36  1  0
 19 37  1  0
M  END
$$$$
