
     RDKit          3D

 49 51  0  0  0  0  0  0  0  0999 V2000
    1.9329   -2.9342   -2.1340 O   0  0  0  0  0  0  0  0  0  0  0  0
    2.1956   -1.7442   -2.2416 C   0  0  0  0  0  0  0  0  0  0  0  0
    3.4239   -1.1991   -2.5273 N   0  0  0  0  0  0  0  0  0  0  0  0
    4.6264   -1.9891   -2.5710 C   0  0  0  0  0  0  0  0  0  0  0  0
    5.3655   -1.9151   -1.2608 C   0  0  0  0  0  0  0  0  0  0  0  0
    6.3799   -0.9676   -1.0630 C   0  0  0  0  0  0  0  0  0  0  0  0
    7.0460   -0.8898    0.1614 C   0  0  0  0  0  0  0  0  0  0  0  0
    6.7002   -1.7516    1.2008 C   0  0  0  0  0  0  0  0  0  0  0  0
    5.6862   -2.6900    1.0192 C   0  0  0  0  0  0  0  0  0  0  0  0
    5.0195   -2.7699   -0.2041 C   0  0  0  0  0  0  0  0  0  0  0  0
    1.0853   -0.6878   -2.0383 C   0  0  0  0  0  0  0  0  0  0  0  0
    1.3558    0.5042   -2.0872 O   0  0  0  0  0  0  0  0  0  0  0  0
   -0.1575   -1.2359   -1.8141 N   0  0  0  0  0  0  0  0  0  0  0  0
   -1.2947   -0.4305   -1.4007 C   0  0  0  0  0  0  0  0  0  0  0  0
   -1.4169   -0.2980    0.1431 C   0  0  0  0  0  0  0  0  0  0  0  0
   -0.2041    0.2393    0.7019 O   0  0  0  0  0  0  0  0  0  0  0  0
   -0.3582    1.6610    0.6697 C   0  0  0  0  0  0  0  0  0  0  0  0
   -1.8288    1.8959    0.9520 C   0  0  0  0  0  0  0  0  0  0  0  0
   -2.4713    0.6148    0.6174 N   0  0  0  0  0  0  0  0  0  0  0  0
   -3.9396    0.6117   -0.1799 S   0  0  0  0  0  6  0  0  0  0  0  0
   -4.3810   -0.7610   -0.2923 O   0  0  0  0  0  0  0  0  0  0  0  0
   -3.8019    1.4525   -1.3493 O   0  0  0  0  0  0  0  0  0  0  0  0
   -5.0075    1.4264    0.9802 C   0  0  0  0  0  0  0  0  0  0  0  0
   -5.3369    0.7725    2.1723 C   0  0  0  0  0  0  0  0  0  0  0  0
   -6.1779    1.4016    3.0916 C   0  0  0  0  0  0  0  0  0  0  0  0
   -6.6847    2.6713    2.8096 C   0  0  0  0  0  0  0  0  0  0  0  0
   -7.8226    3.5221    4.0568 Br  0  0  0  0  0  0  0  0  0  0  0  0
   -6.3624    3.3189    1.6153 C   0  0  0  0  0  0  0  0  0  0  0  0
   -5.5214    2.6943    0.6921 C   0  0  0  0  0  0  0  0  0  0  0  0
    3.4922   -0.1887   -2.4482 H   0  0  0  0  0  0  0  0  0  0  0  0
    4.3917   -3.0311   -2.8166 H   0  0  0  0  0  0  0  0  0  0  0  0
    5.2483   -1.5960   -3.3827 H   0  0  0  0  0  0  0  0  0  0  0  0
    6.6580   -0.2837   -1.8616 H   0  0  0  0  0  0  0  0  0  0  0  0
    7.8335   -0.1548    0.3058 H   0  0  0  0  0  0  0  0  0  0  0  0
    7.2180   -1.6893    2.1543 H   0  0  0  0  0  0  0  0  0  0  0  0
    5.4109   -3.3581    1.8310 H   0  0  0  0  0  0  0  0  0  0  0  0
    4.2224   -3.5008   -0.3312 H   0  0  0  0  0  0  0  0  0  0  0  0
   -0.1882   -2.2488   -1.7245 H   0  0  0  0  0  0  0  0  0  0  0  0
   -2.1795   -0.9169   -1.8210 H   0  0  0  0  0  0  0  0  0  0  0  0
   -1.1973    0.5572   -1.8645 H   0  0  0  0  0  0  0  0  0  0  0  0
   -1.5601   -1.2888    0.5876 H   0  0  0  0  0  0  0  0  0  0  0  0
   -0.0751    2.0323   -0.3205 H   0  0  0  0  0  0  0  0  0  0  0  0
    0.2937    2.1259    1.4142 H   0  0  0  0  0  0  0  0  0  0  0  0
   -2.2070    2.7484    0.3819 H   0  0  0  0  0  0  0  0  0  0  0  0
   -1.9889    2.0926    2.0173 H   0  0  0  0  0  0  0  0  0  0  0  0
   -4.9443   -0.2198    2.3856 H   0  0  0  0  0  0  0  0  0  0  0  0
   -6.4346    0.8951    4.0190 H   0  0  0  0  0  0  0  0  0  0  0  0
   -6.7644    4.3048    1.3942 H   0  0  0  0  0  0  0  0  0  0  0  0
   -5.2789    3.1978   -0.2413 H   0  0  0  0  0  0  0  0  0  0  0  0
  1  2  2  0
  2  3  1  0
  3  4  1  0
  4  5  1  0
  5  6  2  0
  6  7  1  0
  7  8  2  0
  8  9  1  0
  9 10  2  0
  2 11  1  0
 11 12  2  0
 11 13  1  0
 13 14  1  0
 14 15  1  0
 15 16  1  0
 16 17  1  0
 17 18  1  0
 18 19  1  0
 19 20  1  0
 20 21  2  0
 20 22  2  0
 20 23  1  0
 23 24  2  0
 24 25  1  0
 25 26  2  0
 26 27  1  0
 26 28  1  0
 28 29  2  0
 10  5  1  0
 19 15  1  0
 29 23  1  0
  3 30  1  0
  4 31  1  0
  4 32  1  0
  6 33  1  0
  7 34  1  0
  8 35  1  0
  9 36  1  0
 10 37  1  0
 13 38  1  0
 14 39  1  0
 14 40  1  0
 15 41  1  0
 17 42  1  0
 17 43  1  0
 18 44  1  0
 18 45  1  0
 24 46  1  0
 25 47  1  0
 28 48  1  0
 29 49  1  0
M  END
$$$$
