
     RDKit          3D

 57 59  0  0  0  0  0  0  0  0999 V2000
    8.0038    0.4915   -2.6176 C   0  0  0  0  0  0  0  0  0  0  0  0
    8.3084    0.3436   -1.2378 O   0  0  0  0  0  0  0  0  0  0  0  0
    7.2787   -0.0022   -0.4122 C   0  0  0  0  0  0  0  0  0  0  0  0
    5.9369   -0.1029   -0.7726 C   0  0  0  0  0  0  0  0  0  0  0  0
    4.9721   -0.4608    0.1776 C   0  0  0  0  0  0  0  0  0  0  0  0
    5.3368   -0.7110    1.4994 C   0  0  0  0  0  0  0  0  0  0  0  0
    4.5013   -1.0564    2.5234 O   0  0  0  0  0  0  0  0  0  0  0  0
    3.0851   -0.9702    2.3131 C   0  0  0  0  0  0  0  0  0  0  0  0
    2.6056    0.4726    2.4650 C   0  0  0  0  0  0  0  0  0  0  0  0
    0.7974    0.6282    2.3586 S   0  0  0  0  0  0  0  0  0  0  0  0
    0.5780    0.6530    0.6444 C   0  0  0  0  0  0  0  0  0  0  0  0
    1.3392    0.0605   -0.2418 N   0  0  0  0  0  0  0  0  0  0  0  0
    0.8172    0.3201   -1.4820 N   0  0  0  0  0  0  0  0  0  0  0  0
   -0.2590    1.0687   -1.3280 C   0  0  0  0  0  0  0  0  0  0  0  0
   -1.1310    1.5493   -2.4363 C   0  0  0  0  0  0  0  0  0  0  0  0
   -2.0743    0.4526   -2.9337 C   0  0  0  0  0  0  0  0  0  0  0  0
   -3.0109   -0.0331   -1.9344 N   0  0  0  0  0  0  0  0  0  0  0  0
   -4.0455    0.7468   -1.4646 C   0  0  0  0  0  0  0  0  0  0  0  0
   -4.2121    1.9117   -1.8016 O   0  0  0  0  0  0  0  0  0  0  0  0
   -4.9370    0.1230   -0.4505 C   0  0  0  0  0  0  0  0  0  0  0  0
   -5.2070   -1.2515   -0.4448 C   0  0  0  0  0  0  0  0  0  0  0  0
   -6.0596   -1.7974    0.5245 C   0  0  0  0  0  0  0  0  0  0  0  0
   -6.6487   -0.9759    1.4868 C   0  0  0  0  0  0  0  0  0  0  0  0
   -7.4928   -1.3802    2.4830 O   0  0  0  0  0  0  0  0  0  0  0  0
   -7.8844   -2.7452    2.4861 C   0  0  0  0  0  0  0  0  0  0  0  0
   -6.3834    0.3972    1.4712 C   0  0  0  0  0  0  0  0  0  0  0  0
   -5.5395    0.9481    0.5039 C   0  0  0  0  0  0  0  0  0  0  0  0
   -0.4423    1.3125    0.0142 N   0  0  0  0  0  0  0  0  0  0  0  0
   -1.4727    2.0949    0.6461 C   0  0  0  0  0  0  0  0  0  0  0  0
    6.6824   -0.6173    1.8547 C   0  0  0  0  0  0  0  0  0  0  0  0
    7.6466   -0.2606    0.9073 C   0  0  0  0  0  0  0  0  0  0  0  0
    7.6044   -0.4356   -3.0345 H   0  0  0  0  0  0  0  0  0  0  0  0
    8.9335    0.7185   -3.1444 H   0  0  0  0  0  0  0  0  0  0  0  0
    7.3213    1.3270   -2.7835 H   0  0  0  0  0  0  0  0  0  0  0  0
    5.5986    0.0931   -1.7851 H   0  0  0  0  0  0  0  0  0  0  0  0
    3.9436   -0.5305   -0.1593 H   0  0  0  0  0  0  0  0  0  0  0  0
    2.7894   -1.4473    1.3738 H   0  0  0  0  0  0  0  0  0  0  0  0
    2.6321   -1.5783    3.1043 H   0  0  0  0  0  0  0  0  0  0  0  0
    2.9153    0.8475    3.4483 H   0  0  0  0  0  0  0  0  0  0  0  0
    3.0831    1.1355    1.7340 H   0  0  0  0  0  0  0  0  0  0  0  0
   -1.6893    2.4454   -2.1532 H   0  0  0  0  0  0  0  0  0  0  0  0
   -0.4862    1.8531   -3.2698 H   0  0  0  0  0  0  0  0  0  0  0  0
   -2.6584    0.8369   -3.7780 H   0  0  0  0  0  0  0  0  0  0  0  0
   -1.5084   -0.4161   -3.2851 H   0  0  0  0  0  0  0  0  0  0  0  0
   -2.7975   -0.9160   -1.4892 H   0  0  0  0  0  0  0  0  0  0  0  0
   -4.7903   -1.9067   -1.2037 H   0  0  0  0  0  0  0  0  0  0  0  0
   -6.2479   -2.8669    0.4953 H   0  0  0  0  0  0  0  0  0  0  0  0
   -7.0240   -3.3988    2.6462 H   0  0  0  0  0  0  0  0  0  0  0  0
   -8.4126   -3.0035    1.5622 H   0  0  0  0  0  0  0  0  0  0  0  0
   -8.5792   -2.8942    3.3207 H   0  0  0  0  0  0  0  0  0  0  0  0
   -6.8473    1.0424    2.2155 H   0  0  0  0  0  0  0  0  0  0  0  0
   -5.3579    2.0215    0.4960 H   0  0  0  0  0  0  0  0  0  0  0  0
   -1.0047    2.8331    1.3042 H   0  0  0  0  0  0  0  0  0  0  0  0
   -2.1153    1.4231    1.2195 H   0  0  0  0  0  0  0  0  0  0  0  0
   -2.0694    2.6243   -0.0939 H   0  0  0  0  0  0  0  0  0  0  0  0
    6.9858   -0.8254    2.8785 H   0  0  0  0  0  0  0  0  0  0  0  0
    8.6918   -0.1913    1.2003 H   0  0  0  0  0  0  0  0  0  0  0  0
  1  2  1  0
  2  3  1  0
  3  4  2  0
  4  5  1  0
  5  6  2  0
  6  7  1  0
  7  8  1  0
  8  9  1  0
  9 10  1  0
 10 11  1  0
 11 12  2  0
 12 13  1  0
 13 14  2  0
 14 15  1  0
 15 16  1  0
 16 17  1  0
 17 18  1  0
 18 19  2  0
 18 20  1  0
 20 21  2  0
 21 22  1  0
 22 23  2  0
 23 24  1  0
 24 25  1  0
 23 26  1  0
 26 27  2  0
 14 28  1  0
 28 29  1  0
  6 30  1  0
 30 31  2  0
 31  3  1  0
 28 11  1  0
 27 20  1  0
  1 32  1  0
  1 33  1  0
  1 34  1  0
  4 35  1  0
  5 36  1  0
  8 37  1  0
  8 38  1  0
  9 39  1  0
  9 40  1  0
 15 41  1  0
 15 42  1  0
 16 43  1  0
 16 44  1  0
 17 45  1  0
 21 46  1  0
 22 47  1  0
 25 48  1  0
 25 49  1  0
 25 50  1  0
 26 51  1  0
 27 52  1  0
 29 53  1  0
 29 54  1  0
 29 55  1  0
 30 56  1  0
 31 57  1  0
M  END
$$$$
