
     RDKit          3D

 46 48  0  0  0  0  0  0  0  0999 V2000
    0.7647    2.6337   -3.1100 C   0  0  0  0  0  0  0  0  0  0  0  0
    0.5417    1.5708   -2.0564 C   0  0  0  0  0  0  0  0  0  0  0  0
    1.0942    1.8327   -0.6923 C   0  0  0  0  0  0  0  0  0  0  0  0
    2.3898    2.0386   -0.4250 C   0  0  0  0  0  0  0  0  0  0  0  0
    3.4990    2.0658   -1.3845 C   0  0  0  0  0  0  0  0  0  0  0  0
    4.2950    3.2165   -1.4521 C   0  0  0  0  0  0  0  0  0  0  0  0
    5.3679    3.2850   -2.3431 C   0  0  0  0  0  0  0  0  0  0  0  0
    5.6597    2.1992   -3.1658 C   0  0  0  0  0  0  0  0  0  0  0  0
    4.8809    1.0431   -3.0968 C   0  0  0  0  0  0  0  0  0  0  0  0
    3.8058    0.9758   -2.2048 C   0  0  0  0  0  0  0  0  0  0  0  0
   -0.1080    0.5082   -2.4332 N   0  0  0  0  0  0  0  0  0  0  0  0
   -0.4307   -0.4282   -1.4845 N   0  0  0  0  0  0  0  0  0  0  0  0
   -1.4326   -0.1627   -0.5578 C   0  0  0  0  0  0  0  0  0  0  0  0
   -1.9004    0.9362   -0.2856 O   0  0  0  0  0  0  0  0  0  0  0  0
   -1.9885   -1.3744    0.0975 C   0  0  0  0  0  0  0  0  0  0  0  0
   -1.1494   -2.5415    0.5418 C   0  0  0  0  0  0  0  0  0  0  0  0
   -1.7471   -1.6206    1.5897 C   0  0  0  0  0  0  0  0  0  0  0  0
   -0.7841   -0.7352    2.3522 C   0  0  0  0  0  0  0  0  0  0  0  0
   -2.9369   -2.0974    2.4164 C   0  0  0  0  0  0  0  0  0  0  0  0
   -2.8915   -3.2913    3.1542 C   0  0  0  0  0  0  0  0  0  0  0  0
   -3.9739   -3.7046    3.9368 C   0  0  0  0  0  0  0  0  0  0  0  0
   -5.1332   -2.9325    3.9905 C   0  0  0  0  0  0  0  0  0  0  0  0
   -5.2064   -1.7449    3.2693 C   0  0  0  0  0  0  0  0  0  0  0  0
   -4.1156   -1.3315    2.4991 C   0  0  0  0  0  0  0  0  0  0  0  0
    1.2268    3.5295   -2.6926 H   0  0  0  0  0  0  0  0  0  0  0  0
    1.3995    2.2366   -3.8999 H   0  0  0  0  0  0  0  0  0  0  0  0
   -0.1984    2.9177   -3.5412 H   0  0  0  0  0  0  0  0  0  0  0  0
    0.3716    1.8388    0.1125 H   0  0  0  0  0  0  0  0  0  0  0  0
    2.6825    2.2353    0.6032 H   0  0  0  0  0  0  0  0  0  0  0  0
    4.0770    4.0741   -0.8178 H   0  0  0  0  0  0  0  0  0  0  0  0
    5.9746    4.1859   -2.3923 H   0  0  0  0  0  0  0  0  0  0  0  0
    6.4951    2.2495   -3.8605 H   0  0  0  0  0  0  0  0  0  0  0  0
    5.1090    0.1930   -3.7385 H   0  0  0  0  0  0  0  0  0  0  0  0
    3.2108    0.0676   -2.1609 H   0  0  0  0  0  0  0  0  0  0  0  0
   -0.4499   -1.3744   -1.8535 H   0  0  0  0  0  0  0  0  0  0  0  0
   -2.9801   -1.6180   -0.2817 H   0  0  0  0  0  0  0  0  0  0  0  0
   -1.5713   -3.5336    0.4186 H   0  0  0  0  0  0  0  0  0  0  0  0
   -0.0747   -2.5118    0.3966 H   0  0  0  0  0  0  0  0  0  0  0  0
   -1.2997    0.1529    2.7325 H   0  0  0  0  0  0  0  0  0  0  0  0
   -0.3594   -1.2785    3.2020 H   0  0  0  0  0  0  0  0  0  0  0  0
    0.0522   -0.3865    1.7400 H   0  0  0  0  0  0  0  0  0  0  0  0
   -1.9969   -3.9094    3.1222 H   0  0  0  0  0  0  0  0  0  0  0  0
   -3.9085   -4.6315    4.5015 H   0  0  0  0  0  0  0  0  0  0  0  0
   -5.9740   -3.2535    4.5993 H   0  0  0  0  0  0  0  0  0  0  0  0
   -6.1027   -1.1350    3.3123 H   0  0  0  0  0  0  0  0  0  0  0  0
   -4.1842   -0.3895    1.9519 H   0  0  0  0  0  0  0  0  0  0  0  0
  1  2  1  0
  2  3  1  0
  3  4  2  3
  4  5  1  0
  5  6  2  0
  6  7  1  0
  7  8  2  0
  8  9  1  0
  9 10  2  0
  2 11  2  3
 11 12  1  0
 12 13  1  0
 13 14  2  0
 13 15  1  0
 15 16  1  0
 16 17  1  0
 17 18  1  0
 17 19  1  0
 19 20  2  0
 20 21  1  0
 21 22  2  0
 22 23  1  0
 23 24  2  0
 10  5  1  0
 17 15  1  0
 24 19  1  0
  1 25  1  0
  1 26  1  0
  1 27  1  0
  3 28  1  0
  4 29  1  0
  6 30  1  0
  7 31  1  0
  8 32  1  0
  9 33  1  0
 10 34  1  0
 12 35  1  0
 15 36  1  0
 16 37  1  0
 16 38  1  0
 18 39  1  0
 18 40  1  0
 18 41  1  0
 20 42  1  0
 21 43  1  0
 22 44  1  0
 23 45  1  0
 24 46  1  0
M  END
$$$$
