
     RDKit          3D

 34 35  0  0  0  0  0  0  0  0999 V2000
   -4.1471    1.8600    0.2797 O   0  0  0  0  0  0  0  0  0  0  0  0
   -3.7002    0.8264   -0.2397 C   0  0  0  0  0  0  0  0  0  0  0  0
   -4.5087    0.1772   -1.3655 C   0  0  0  0  0  0  0  0  0  0  0  0
   -3.5700    0.0815   -2.8668 Cl  0  0  0  0  0  0  0  0  0  0  0  0
   -5.1796   -1.3846   -0.8666 Cl  0  0  0  0  0  0  0  0  0  0  0  0
   -2.4789    0.2990    0.1839 N   0  0  0  0  0  0  0  0  0  0  0  0
   -1.8282    0.9512    1.3275 C   0  0  0  0  0  0  0  0  0  0  0  0
   -0.3014    0.7491    1.3448 C   0  0  0  0  0  0  0  0  0  0  0  0
    0.0599   -0.6728    1.2355 N   0  0  0  0  0  0  0  0  0  0  0  0
    1.4968   -0.9314    1.4014 C   0  0  0  0  0  0  0  0  0  0  0  0
    2.4315   -0.3384    0.3683 C   0  0  0  0  0  0  0  0  0  0  0  0
    2.7769   -1.0617   -0.7834 C   0  0  0  0  0  0  0  0  0  0  0  0
    3.6391   -0.5147   -1.7354 C   0  0  0  0  0  0  0  0  0  0  0  0
    4.1697    0.7595   -1.5458 C   0  0  0  0  0  0  0  0  0  0  0  0
    3.8413    1.4867   -0.4037 C   0  0  0  0  0  0  0  0  0  0  0  0
    2.9793    0.9407    0.5490 C   0  0  0  0  0  0  0  0  0  0  0  0
   -0.5053   -1.2390    0.0022 C   0  0  0  0  0  0  0  0  0  0  0  0
   -2.0391   -1.0858   -0.0425 C   0  0  0  0  0  0  0  0  0  0  0  0
   -5.3629    0.8262   -1.5810 H   0  0  0  0  0  0  0  0  0  0  0  0
   -2.2766    0.5300    2.2363 H   0  0  0  0  0  0  0  0  0  0  0  0
   -2.0422    2.0256    1.3244 H   0  0  0  0  0  0  0  0  0  0  0  0
    0.0883    1.1664    2.2808 H   0  0  0  0  0  0  0  0  0  0  0  0
    0.1308    1.3249    0.5170 H   0  0  0  0  0  0  0  0  0  0  0  0
    1.6583   -2.0174    1.4390 H   0  0  0  0  0  0  0  0  0  0  0  0
    1.8068   -0.5846    2.3966 H   0  0  0  0  0  0  0  0  0  0  0  0
    2.3745   -2.0591   -0.9450 H   0  0  0  0  0  0  0  0  0  0  0  0
    3.8975   -1.0835   -2.6247 H   0  0  0  0  0  0  0  0  0  0  0  0
    4.8408    1.1851   -2.2872 H   0  0  0  0  0  0  0  0  0  0  0  0
    4.2573    2.4796   -0.2539 H   0  0  0  0  0  0  0  0  0  0  0  0
    2.7358    1.5203    1.4365 H   0  0  0  0  0  0  0  0  0  0  0  0
   -0.2672   -2.3071   -0.0655 H   0  0  0  0  0  0  0  0  0  0  0  0
   -0.0846   -0.7457   -0.8827 H   0  0  0  0  0  0  0  0  0  0  0  0
   -2.4982   -1.6980    0.7438 H   0  0  0  0  0  0  0  0  0  0  0  0
   -2.3948   -1.4656   -0.9994 H   0  0  0  0  0  0  0  0  0  0  0  0
  1  2  2  0
  2  3  1  0
  3  4  1  0
  3  5  1  0
  2  6  1  0
  6  7  1  0
  7  8  1  0
  8  9  1  0
  9 10  1  0
 10 11  1  0
 11 12  2  0
 12 13  1  0
 13 14  2  0
 14 15  1  0
 15 16  2  0
  9 17  1  0
 17 18  1  0
 18  6  1  0
 16 11  1  0
  3 19  1  0
  7 20  1  0
  7 21  1  0
  8 22  1  0
  8 23  1  0
 10 24  1  0
 10 25  1  0
 12 26  1  0
 13 27  1  0
 14 28  1  0
 15 29  1  0
 16 30  1  0
 17 31  1  0
 17 32  1  0
 18 33  1  0
 18 34  1  0
M  END
$$$$
