
     RDKit          3D

 39 40  0  0  0  0  0  0  0  0999 V2000
   -1.2797    1.8243    0.9663 O   0  0  0  0  0  0  0  0  0  0  0  0
   -1.3771    0.7001    0.4914 C   0  0  0  0  0  0  0  0  0  0  0  0
   -0.1695   -0.0653   -0.0315 C   0  0  0  0  0  0  0  0  0  0  0  0
    1.1291    0.7201    0.1172 C   0  0  0  0  0  0  0  0  0  0  0  0
    2.3252   -0.0709   -0.4034 C   0  0  0  0  0  0  0  0  0  0  0  0
    3.4904    0.7351   -0.2381 O   0  0  0  0  0  0  0  0  0  0  0  0
    4.6793    0.2070   -0.6602 C   0  0  0  0  0  0  0  0  0  0  0  0
    4.8676   -1.0634   -1.2064 C   0  0  0  0  0  0  0  0  0  0  0  0
    6.1454   -1.4776   -1.5965 C   0  0  0  0  0  0  0  0  0  0  0  0
    7.2379   -0.6256   -1.4432 C   0  0  0  0  0  0  0  0  0  0  0  0
    7.0554    0.6427   -0.8980 C   0  0  0  0  0  0  0  0  0  0  0  0
    5.7799    1.0547   -0.5083 C   0  0  0  0  0  0  0  0  0  0  0  0
   -2.5406   -0.0438    0.3510 N   0  0  0  0  0  0  0  0  0  0  0  0
   -3.8634    0.3194    0.7085 C   0  0  0  0  0  0  0  0  0  0  0  0
   -4.1635    1.5714    1.2627 C   0  0  0  0  0  0  0  0  0  0  0  0
   -5.4729    1.9197    1.6085 C   0  0  0  0  0  0  0  0  0  0  0  0
   -6.5107    1.0208    1.4085 C   0  0  0  0  0  0  0  0  0  0  0  0
   -6.2360   -0.2282    0.8611 C   0  0  0  0  0  0  0  0  0  0  0  0
   -4.9197   -0.5949    0.5024 C   0  0  0  0  0  0  0  0  0  0  0  0
   -4.7294   -1.9794   -0.0630 C   0  0  0  0  0  0  0  0  0  0  0  0
   -4.9434   -2.9546    0.8636 F   0  0  0  0  0  0  0  0  0  0  0  0
   -5.5791   -2.2515   -1.0928 F   0  0  0  0  0  0  0  0  0  0  0  0
   -3.4755   -2.2139   -0.5547 F   0  0  0  0  0  0  0  0  0  0  0  0
   -0.3431   -0.2967   -1.0894 H   0  0  0  0  0  0  0  0  0  0  0  0
   -0.0971   -1.0101    0.5206 H   0  0  0  0  0  0  0  0  0  0  0  0
    1.0612    1.6758   -0.4184 H   0  0  0  0  0  0  0  0  0  0  0  0
    1.2972    0.9852    1.1690 H   0  0  0  0  0  0  0  0  0  0  0  0
    2.1759   -0.3021   -1.4651 H   0  0  0  0  0  0  0  0  0  0  0  0
    2.4255   -0.9989    0.1723 H   0  0  0  0  0  0  0  0  0  0  0  0
    4.0448   -1.7565   -1.3419 H   0  0  0  0  0  0  0  0  0  0  0  0
    6.2875   -2.4682   -2.0209 H   0  0  0  0  0  0  0  0  0  0  0  0
    8.2295   -0.9498   -1.7478 H   0  0  0  0  0  0  0  0  0  0  0  0
    7.9024    1.3122   -0.7757 H   0  0  0  0  0  0  0  0  0  0  0  0
    5.6406    2.0456   -0.0831 H   0  0  0  0  0  0  0  0  0  0  0  0
   -2.4210   -0.9612   -0.0704 H   0  0  0  0  0  0  0  0  0  0  0  0
   -3.3948    2.3172    1.4425 H   0  0  0  0  0  0  0  0  0  0  0  0
   -5.6731    2.8995    2.0362 H   0  0  0  0  0  0  0  0  0  0  0  0
   -7.5282    1.2912    1.6792 H   0  0  0  0  0  0  0  0  0  0  0  0
   -7.0570   -0.9297    0.7112 H   0  0  0  0  0  0  0  0  0  0  0  0
  1  2  2  0
  2  3  1  0
  3  4  1  0
  4  5  1  0
  5  6  1  0
  6  7  1  0
  7  8  2  0
  8  9  1  0
  9 10  2  0
 10 11  1  0
 11 12  2  0
  2 13  1  0
 13 14  1  0
 14 15  2  0
 15 16  1  0
 16 17  2  0
 17 18  1  0
 18 19  2  0
 19 20  1  0
 20 21  1  0
 20 22  1  0
 20 23  1  0
 12  7  1  0
 19 14  1  0
  3 24  1  0
  3 25  1  0
  4 26  1  0
  4 27  1  0
  5 28  1  0
  5 29  1  0
  8 30  1  0
  9 31  1  0
 10 32  1  0
 11 33  1  0
 12 34  1  0
 13 35  1  0
 15 36  1  0
 16 37  1  0
 17 38  1  0
 18 39  1  0
M  END
$$$$
