
     RDKit          3D

 46 49  0  0  0  0  0  0  0  0999 V2000
    1.2871    2.5835   -0.5892 O   0  0  0  0  0  0  0  0  0  0  0  0
    1.2858    1.3854   -0.8576 C   0  0  0  0  0  0  0  0  0  0  0  0
    0.0188    0.7070   -1.3479 C   0  0  0  0  0  0  0  0  0  0  0  0
   -0.3609   -0.4108   -0.5040 N   0  0  0  0  0  0  0  0  0  0  0  0
   -0.9259   -0.3352    0.7534 C   0  0  0  0  0  0  0  0  0  0  0  0
   -1.3282    0.9367    1.4339 C   0  0  0  0  0  0  0  0  0  0  0  0
   -2.2612    1.6407    0.6108 O   0  0  0  0  0  0  0  0  0  0  0  0
   -3.5932    1.3757    0.7697 C   0  0  0  0  0  0  0  0  0  0  0  0
   -4.4477    2.3203    0.1937 C   0  0  0  0  0  0  0  0  0  0  0  0
   -5.8331    2.1679    0.2710 C   0  0  0  0  0  0  0  0  0  0  0  0
   -6.3734    1.0609    0.9201 C   0  0  0  0  0  0  0  0  0  0  0  0
   -5.5275    0.1085    1.4856 C   0  0  0  0  0  0  0  0  0  0  0  0
   -4.1397    0.2628    1.4090 C   0  0  0  0  0  0  0  0  0  0  0  0
   -1.0413   -1.5409    1.2797 N   0  0  0  0  0  0  0  0  0  0  0  0
   -0.5816   -2.4164    0.3325 C   0  0  0  0  0  0  0  0  0  0  0  0
   -0.4929   -3.8148    0.3829 C   0  0  0  0  0  0  0  0  0  0  0  0
    0.0243   -4.4984   -0.7231 C   0  0  0  0  0  0  0  0  0  0  0  0
    0.4421   -3.8027   -1.8580 C   0  0  0  0  0  0  0  0  0  0  0  0
    0.3606   -2.4069   -1.9263 C   0  0  0  0  0  0  0  0  0  0  0  0
   -0.1559   -1.7405   -0.8064 C   0  0  0  0  0  0  0  0  0  0  0  0
    2.3844    0.5455   -0.7914 N   0  0  0  0  0  0  0  0  0  0  0  0
    3.7050    0.8600   -0.3872 C   0  0  0  0  0  0  0  0  0  0  0  0
    4.1153    2.1457   -0.0225 C   0  0  0  0  0  0  0  0  0  0  0  0
    5.4395    2.3877    0.3708 C   0  0  0  0  0  0  0  0  0  0  0  0
    5.8655    4.0059    0.8056 Cl  0  0  0  0  0  0  0  0  0  0  0  0
    6.3671    1.3408    0.4012 C   0  0  0  0  0  0  0  0  0  0  0  0
    8.0123    1.5712    0.8744 Cl  0  0  0  0  0  0  0  0  0  0  0  0
    5.9723    0.0536    0.0376 C   0  0  0  0  0  0  0  0  0  0  0  0
    4.6530   -0.1815   -0.3535 C   0  0  0  0  0  0  0  0  0  0  0  0
    4.2142   -1.7956   -0.8034 Cl  0  0  0  0  0  0  0  0  0  0  0  0
    0.1734    0.3556   -2.3724 H   0  0  0  0  0  0  0  0  0  0  0  0
   -0.8067    1.4224   -1.3734 H   0  0  0  0  0  0  0  0  0  0  0  0
   -0.4474    1.5773    1.5509 H   0  0  0  0  0  0  0  0  0  0  0  0
   -1.7159    0.7624    2.4443 H   0  0  0  0  0  0  0  0  0  0  0  0
   -4.0308    3.1862   -0.3145 H   0  0  0  0  0  0  0  0  0  0  0  0
   -6.4872    2.9118   -0.1755 H   0  0  0  0  0  0  0  0  0  0  0  0
   -7.4513    0.9366    0.9813 H   0  0  0  0  0  0  0  0  0  0  0  0
   -5.9460   -0.7627    1.9835 H   0  0  0  0  0  0  0  0  0  0  0  0
   -3.5184   -0.5147    1.8437 H   0  0  0  0  0  0  0  0  0  0  0  0
   -0.8220   -4.3478    1.2680 H   0  0  0  0  0  0  0  0  0  0  0  0
    0.0967   -5.5831   -0.6955 H   0  0  0  0  0  0  0  0  0  0  0  0
    0.8362   -4.3575   -2.7077 H   0  0  0  0  0  0  0  0  0  0  0  0
    0.6825   -1.8830   -2.8197 H   0  0  0  0  0  0  0  0  0  0  0  0
    2.2369   -0.4408   -0.9991 H   0  0  0  0  0  0  0  0  0  0  0  0
    3.4260    2.9847   -0.0341 H   0  0  0  0  0  0  0  0  0  0  0  0
    6.6893   -0.7636    0.0586 H   0  0  0  0  0  0  0  0  0  0  0  0
  1  2  2  0
  2  3  1  0
  3  4  1  0
  4  5  1  0
  5  6  1  0
  6  7  1  0
  7  8  1  0
  8  9  2  0
  9 10  1  0
 10 11  2  0
 11 12  1  0
 12 13  2  0
  5 14  2  0
 14 15  1  0
 15 16  2  0
 16 17  1  0
 17 18  2  0
 18 19  1  0
 19 20  2  0
  2 21  1  0
 21 22  1  0
 22 23  2  0
 23 24  1  0
 24 25  1  0
 24 26  2  0
 26 27  1  0
 26 28  1  0
 28 29  2  0
 29 30  1  0
 20  4  1  0
 29 22  1  0
 13  8  1  0
 20 15  1  0
  3 31  1  0
  3 32  1  0
  6 33  1  0
  6 34  1  0
  9 35  1  0
 10 36  1  0
 11 37  1  0
 12 38  1  0
 13 39  1  0
 16 40  1  0
 17 41  1  0
 18 42  1  0
 19 43  1  0
 21 44  1  0
 23 45  1  0
 28 46  1  0
M  END
$$$$
