
     RDKit          3D

 27 27  0  0  0  0  0  0  0  0999 V2000
    3.5280   -1.2433    0.3972 C   0  0  0  0  0  0  0  0  0  0  0  0
    2.2913   -0.4635    0.1589 C   0  0  0  0  0  0  0  0  0  0  0  0
    2.1604    0.9096   -0.0904 C   0  0  0  0  0  0  0  0  0  0  0  0
    0.8085    1.1387   -0.2952 C   0  0  0  0  0  0  0  0  0  0  0  0
    0.2472    2.4028   -0.6639 C   0  0  0  0  0  0  0  0  0  0  0  0
    0.6858    3.5119   -0.3999 O   0  0  0  0  0  0  0  0  0  0  0  0
   -0.8237    2.2809   -1.4672 O   0  0  0  0  0  0  0  0  0  0  0  0
    0.1960   -0.0752   -0.0393 N   0  0  0  0  0  0  0  0  0  0  0  0
   -1.2347   -0.4242    0.1212 C   0  0  0  0  0  0  0  0  0  0  0  0
   -1.8744   -0.6891   -1.2527 C   0  0  0  0  0  0  0  0  0  0  0  0
   -1.3943   -1.7314    0.9525 C   0  0  0  0  0  0  0  0  0  0  0  0
   -2.0179    0.6525    0.9020 C   0  0  0  0  0  0  0  0  0  0  0  0
    1.1047   -1.0683    0.1503 N   0  0  0  0  0  0  0  0  0  0  0  0
    4.4094   -0.5940    0.4020 H   0  0  0  0  0  0  0  0  0  0  0  0
    3.6651   -1.9948   -0.3870 H   0  0  0  0  0  0  0  0  0  0  0  0
    3.4800   -1.7551    1.3637 H   0  0  0  0  0  0  0  0  0  0  0  0
    2.9482    1.6478   -0.1638 H   0  0  0  0  0  0  0  0  0  0  0  0
   -1.0370    3.2112   -1.6884 H   0  0  0  0  0  0  0  0  0  0  0  0
   -1.3431   -1.4857   -1.7870 H   0  0  0  0  0  0  0  0  0  0  0  0
   -2.9202   -1.0001   -1.1466 H   0  0  0  0  0  0  0  0  0  0  0  0
   -1.8648    0.1897   -1.9001 H   0  0  0  0  0  0  0  0  0  0  0  0
   -0.9402   -2.5939    0.4502 H   0  0  0  0  0  0  0  0  0  0  0  0
   -2.4519   -1.9763    1.1077 H   0  0  0  0  0  0  0  0  0  0  0  0
   -0.9287   -1.6335    1.9406 H   0  0  0  0  0  0  0  0  0  0  0  0
   -1.5048    0.9144    1.8347 H   0  0  0  0  0  0  0  0  0  0  0  0
   -2.1675    1.5726    0.3358 H   0  0  0  0  0  0  0  0  0  0  0  0
   -3.0214    0.2962    1.1647 H   0  0  0  0  0  0  0  0  0  0  0  0
  1  2  1  0
  2  3  1  0
  3  4  2  0
  4  5  1  0
  5  6  2  0
  5  7  1  0
  4  8  1  0
  8  9  1  0
  9 10  1  0
  9 11  1  0
  9 12  1  0
  8 13  1  0
 13  2  2  0
  1 14  1  0
  1 15  1  0
  1 16  1  0
  3 17  1  0
  7 18  1  0
 10 19  1  0
 10 20  1  0
 10 21  1  0
 11 22  1  0
 11 23  1  0
 11 24  1  0
 12 25  1  0
 12 26  1  0
 12 27  1  0
M  END
$$$$
