
     RDKit          3D

 60 65  0  0  0  0  0  0  0  0999 V2000
    2.2349   -3.0813   -2.6972 C   0  0  0  0  0  0  0  0  0  0  0  0
    3.4307   -2.2404   -2.9432 C   0  0  0  0  0  0  0  0  0  0  0  0
    4.0051   -2.2420   -4.1550 N   0  0  0  0  0  0  0  0  0  0  0  0
    5.1251   -1.4381   -4.0445 O   0  0  0  0  0  0  0  0  0  0  0  0
    5.2054   -0.9446   -2.7809 C   0  0  0  0  0  0  0  0  0  0  0  0
    6.3725   -0.0924   -2.4849 C   0  0  0  0  0  0  0  0  0  0  0  0
    4.1228   -1.3827   -2.0467 C   0  0  0  0  0  0  0  0  0  0  0  0
    3.8661   -1.0704   -0.6594 C   0  0  0  0  0  0  0  0  0  0  0  0
    4.7263   -1.2781    0.1937 O   0  0  0  0  0  0  0  0  0  0  0  0
    2.6226   -0.5219   -0.3304 N   0  0  0  0  0  0  0  0  0  0  0  0
    1.7312    0.1450   -1.2714 C   0  0  0  0  0  0  0  0  0  0  0  0
    0.2671   -0.2196   -1.0217 C   0  0  0  0  0  0  0  0  0  0  0  0
   -0.0996   -0.3576    0.4888 C   0  0  0  0  0  0  0  0  0  0  0  0
    0.9881    0.3172    1.3564 C   0  0  0  0  0  0  0  0  0  0  0  0
    2.3717   -0.2752    1.0836 C   0  0  0  0  0  0  0  0  0  0  0  0
   -0.0386   -1.7922    0.7226 O   0  0  0  0  0  0  0  0  0  0  0  0
   -0.6955   -2.2937    1.8057 C   0  0  0  0  0  0  0  0  0  0  0  0
   -0.3921   -3.6133    2.1483 C   0  0  0  0  0  0  0  0  0  0  0  0
   -1.0018   -4.2062    3.2556 C   0  0  0  0  0  0  0  0  0  0  0  0
   -1.9126   -3.4753    4.0119 C   0  0  0  0  0  0  0  0  0  0  0  0
   -2.4919   -4.0457    5.0760 F   0  0  0  0  0  0  0  0  0  0  0  0
   -2.2320   -2.1655    3.6779 C   0  0  0  0  0  0  0  0  0  0  0  0
   -1.6237   -1.5844    2.5618 C   0  0  0  0  0  0  0  0  0  0  0  0
   -1.9500   -0.2079    2.1681 C   0  0  0  0  0  0  0  0  0  0  0  0
   -2.5276    0.5319    2.9604 O   0  0  0  0  0  0  0  0  0  0  0  0
   -1.5208    0.2057    0.7663 C   0  0  0  0  0  0  0  0  0  0  0  0
   -1.6618    1.7100    0.5720 C   0  0  0  0  0  0  0  0  0  0  0  0
   -2.9891    1.7346   -0.1054 C   0  0  0  0  0  0  0  0  0  0  0  0
   -3.7432    2.9939   -0.3151 C   0  0  0  0  0  0  0  0  0  0  0  0
   -3.2042    4.2391    0.0324 C   0  0  0  0  0  0  0  0  0  0  0  0
   -3.9392    5.4086   -0.1931 C   0  0  0  0  0  0  0  0  0  0  0  0
   -5.2073    5.3349   -0.7662 C   0  0  0  0  0  0  0  0  0  0  0  0
   -6.1024    6.7763   -1.0471 Cl  0  0  0  0  0  0  0  0  0  0  0  0
   -5.7531    4.1004   -1.1120 C   0  0  0  0  0  0  0  0  0  0  0  0
   -5.0219    2.9308   -0.8867 C   0  0  0  0  0  0  0  0  0  0  0  0
   -3.4084    0.5835   -0.5244 N   0  0  0  0  0  0  0  0  0  0  0  0
   -2.4540   -0.3867   -0.1527 O   0  0  0  0  0  0  0  0  0  0  0  0
    2.0246   -3.1786   -1.6272 H   0  0  0  0  0  0  0  0  0  0  0  0
    1.3556   -2.6446   -3.1818 H   0  0  0  0  0  0  0  0  0  0  0  0
    2.3828   -4.0898   -3.0975 H   0  0  0  0  0  0  0  0  0  0  0  0
    6.1247    0.6649   -1.7339 H   0  0  0  0  0  0  0  0  0  0  0  0
    6.7174    0.4276   -3.3842 H   0  0  0  0  0  0  0  0  0  0  0  0
    7.1988   -0.7006   -2.1031 H   0  0  0  0  0  0  0  0  0  0  0  0
    1.8779    1.2242   -1.1338 H   0  0  0  0  0  0  0  0  0  0  0  0
    1.9898   -0.0558   -2.3131 H   0  0  0  0  0  0  0  0  0  0  0  0
    0.0525   -1.1657   -1.5332 H   0  0  0  0  0  0  0  0  0  0  0  0
   -0.3423    0.5358   -1.5269 H   0  0  0  0  0  0  0  0  0  0  0  0
    0.7795    0.2084    2.4270 H   0  0  0  0  0  0  0  0  0  0  0  0
    1.0147    1.3947    1.1526 H   0  0  0  0  0  0  0  0  0  0  0  0
    3.1431    0.4070    1.4608 H   0  0  0  0  0  0  0  0  0  0  0  0
    2.4957   -1.2261    1.6166 H   0  0  0  0  0  0  0  0  0  0  0  0
    0.3237   -4.1799    1.5571 H   0  0  0  0  0  0  0  0  0  0  0  0
   -0.7713   -5.2308    3.5339 H   0  0  0  0  0  0  0  0  0  0  0  0
   -2.9529   -1.6172    4.2774 H   0  0  0  0  0  0  0  0  0  0  0  0
   -0.9215    2.1346   -0.1110 H   0  0  0  0  0  0  0  0  0  0  0  0
   -1.6556    2.2836    1.5010 H   0  0  0  0  0  0  0  0  0  0  0  0
   -2.2173    4.3297    0.4755 H   0  0  0  0  0  0  0  0  0  0  0  0
   -3.5166    6.3732    0.0785 H   0  0  0  0  0  0  0  0  0  0  0  0
   -6.7430    4.0385   -1.5564 H   0  0  0  0  0  0  0  0  0  0  0  0
   -5.4588    1.9702   -1.1588 H   0  0  0  0  0  0  0  0  0  0  0  0
  1  2  1  0
  2  3  2  0
  3  4  1  0
  4  5  1  0
  5  6  1  0
  5  7  2  0
  7  8  1  0
  8  9  2  0
  8 10  1  0
 10 11  1  0
 11 12  1  0
 12 13  1  0
 13 14  1  0
 14 15  1  0
 13 16  1  0
 16 17  1  0
 17 18  2  0
 18 19  1  0
 19 20  2  0
 20 21  1  0
 20 22  1  0
 22 23  2  0
 23 24  1  0
 24 25  2  0
 24 26  1  0
 26 27  1  0
 27 28  1  0
 28 29  1  0
 29 30  2  0
 30 31  1  0
 31 32  2  0
 32 33  1  0
 32 34  1  0
 34 35  2  0
 28 36  2  0
 36 37  1  0
  7  2  1  0
 15 10  1  0
 23 17  1  0
 37 26  1  0
 26 13  1  0
 35 29  1  0
  1 38  1  0
  1 39  1  0
  1 40  1  0
  6 41  1  0
  6 42  1  0
  6 43  1  0
 11 44  1  0
 11 45  1  0
 12 46  1  0
 12 47  1  0
 14 48  1  0
 14 49  1  0
 15 50  1  0
 15 51  1  0
 18 52  1  0
 19 53  1  0
 22 54  1  0
 27 55  1  0
 27 56  1  0
 30 57  1  0
 31 58  1  0
 34 59  1  0
 35 60  1  0
M  END
$$$$
