
     RDKit          3D

 59 62  0  0  0  0  0  0  0  0999 V2000
    6.4894    2.1633    0.5789 C   0  0  0  0  0  0  0  0  0  0  0  0
    5.2994    2.2145   -0.3640 C   0  0  0  0  0  0  0  0  0  0  0  0
    4.1159    2.5846    0.3398 O   0  0  0  0  0  0  0  0  0  0  0  0
    3.3598    1.6183    0.9426 C   0  0  0  0  0  0  0  0  0  0  0  0
    3.5924    0.2429    0.9075 C   0  0  0  0  0  0  0  0  0  0  0  0
    2.7216   -0.6406    1.5584 C   0  0  0  0  0  0  0  0  0  0  0  0
    1.6218   -0.1480    2.2564 C   0  0  0  0  0  0  0  0  0  0  0  0
    0.7084   -0.9590    2.8850 O   0  0  0  0  0  0  0  0  0  0  0  0
    1.2746   -1.9150    3.7905 C   0  0  0  0  0  0  0  0  0  0  0  0
    1.6504   -1.2593    5.1093 C   0  0  0  0  0  0  0  0  0  0  0  0
    1.3645    1.2306    2.2631 C   0  0  0  0  0  0  0  0  0  0  0  0
    0.1933    1.7004    2.9420 N   0  0  0  0  0  0  0  0  0  0  0  0
   -0.9734    2.5471    2.0619 S   0  0  0  0  0  6  0  0  0  0  0  0
   -0.4112    3.7956    1.5894 O   0  0  0  0  0  0  0  0  0  0  0  0
   -2.1820    2.5267    2.8602 O   0  0  0  0  0  0  0  0  0  0  0  0
   -1.2564    1.5046    0.6458 C   0  0  0  0  0  0  0  0  0  0  0  0
   -2.1399    0.4191    0.7530 C   0  0  0  0  0  0  0  0  0  0  0  0
   -2.3811   -0.4082   -0.3529 C   0  0  0  0  0  0  0  0  0  0  0  0
   -1.7472   -0.1291   -1.5526 C   0  0  0  0  0  0  0  0  0  0  0  0
   -0.8600    0.9530   -1.6388 C   0  0  0  0  0  0  0  0  0  0  0  0
   -0.6172    1.7927   -0.5616 C   0  0  0  0  0  0  0  0  0  0  0  0
   -0.2826    1.0820   -3.0127 C   0  0  0  0  0  0  0  0  0  0  0  0
   -0.7349   -0.2306   -3.6511 C   0  0  0  0  0  0  0  0  0  0  0  0
   -1.7878   -0.7927   -2.7911 N   0  0  0  0  0  0  0  0  0  0  0  0
   -2.5551   -1.8529   -3.2617 C   0  0  0  0  0  0  0  0  0  0  0  0
   -2.2412   -2.3977   -4.3338 O   0  0  0  0  0  0  0  0  0  0  0  0
   -3.8126   -2.3031   -2.4849 C   0  0  0  0  0  0  0  0  0  0  0  0
   -4.8265   -3.2098   -3.2565 C   0  0  0  0  0  0  0  0  0  0  0  0
   -5.9518   -2.5008   -2.4854 C   0  0  0  0  0  0  0  0  0  0  0  0
   -4.9993   -1.2989   -2.3539 C   0  0  0  0  0  0  0  0  0  0  0  0
    2.2451    2.1075    1.6309 C   0  0  0  0  0  0  0  0  0  0  0  0
    6.5884    3.1077    1.1249 H   0  0  0  0  0  0  0  0  0  0  0  0
    7.4145    1.9703    0.0280 H   0  0  0  0  0  0  0  0  0  0  0  0
    6.3644    1.3762    1.3302 H   0  0  0  0  0  0  0  0  0  0  0  0
    5.4748    3.0012   -1.1102 H   0  0  0  0  0  0  0  0  0  0  0  0
    5.1798    1.2847   -0.9336 H   0  0  0  0  0  0  0  0  0  0  0  0
    4.4391   -0.1838    0.3799 H   0  0  0  0  0  0  0  0  0  0  0  0
    2.9095   -1.7079    1.4851 H   0  0  0  0  0  0  0  0  0  0  0  0
    0.4925   -2.6595    3.9833 H   0  0  0  0  0  0  0  0  0  0  0  0
    2.1207   -2.4609    3.3605 H   0  0  0  0  0  0  0  0  0  0  0  0
    0.7931   -0.7271    5.5367 H   0  0  0  0  0  0  0  0  0  0  0  0
    1.9954   -2.0098    5.8275 H   0  0  0  0  0  0  0  0  0  0  0  0
    2.4482   -0.5212    4.9685 H   0  0  0  0  0  0  0  0  0  0  0  0
   -0.2506    0.9932    3.5304 H   0  0  0  0  0  0  0  0  0  0  0  0
   -2.6387    0.2067    1.6967 H   0  0  0  0  0  0  0  0  0  0  0  0
   -3.0406   -1.2527   -0.2164 H   0  0  0  0  0  0  0  0  0  0  0  0
    0.0573    2.6394   -0.6567 H   0  0  0  0  0  0  0  0  0  0  0  0
   -0.7247    1.9414   -3.5280 H   0  0  0  0  0  0  0  0  0  0  0  0
    0.8071    1.1721   -3.0079 H   0  0  0  0  0  0  0  0  0  0  0  0
    0.0870   -0.9567   -3.6878 H   0  0  0  0  0  0  0  0  0  0  0  0
   -1.1049   -0.0836   -4.6719 H   0  0  0  0  0  0  0  0  0  0  0  0
   -3.5419   -2.7962   -1.5405 H   0  0  0  0  0  0  0  0  0  0  0  0
   -4.8636   -3.0363   -4.3389 H   0  0  0  0  0  0  0  0  0  0  0  0
   -4.7336   -4.2839   -3.0742 H   0  0  0  0  0  0  0  0  0  0  0  0
   -6.8727   -2.3201   -3.0442 H   0  0  0  0  0  0  0  0  0  0  0  0
   -6.1980   -2.9751   -1.5292 H   0  0  0  0  0  0  0  0  0  0  0  0
   -5.0798   -0.7533   -1.4108 H   0  0  0  0  0  0  0  0  0  0  0  0
   -5.0731   -0.5818   -3.1822 H   0  0  0  0  0  0  0  0  0  0  0  0
    2.0738    3.1802    1.6671 H   0  0  0  0  0  0  0  0  0  0  0  0
  1  2  1  0
  2  3  1  0
  3  4  1  0
  4  5  2  0
  5  6  1  0
  6  7  2  0
  7  8  1  0
  8  9  1  0
  9 10  1  0
  7 11  1  0
 11 12  1  0
 12 13  1  0
 13 14  2  0
 13 15  2  0
 13 16  1  0
 16 17  2  0
 17 18  1  0
 18 19  2  0
 19 20  1  0
 20 21  2  0
 20 22  1  0
 22 23  1  0
 23 24  1  0
 24 25  1  0
 25 26  2  0
 25 27  1  0
 27 28  1  0
 28 29  1  0
 29 30  1  0
 11 31  2  0
 31  4  1  0
 21 16  1  0
 30 27  1  0
 24 19  1  0
  1 32  1  0
  1 33  1  0
  1 34  1  0
  2 35  1  0
  2 36  1  0
  5 37  1  0
  6 38  1  0
  9 39  1  0
  9 40  1  0
 10 41  1  0
 10 42  1  0
 10 43  1  0
 12 44  1  0
 17 45  1  0
 18 46  1  0
 21 47  1  0
 22 48  1  0
 22 49  1  0
 23 50  1  0
 23 51  1  0
 27 52  1  0
 28 53  1  0
 28 54  1  0
 29 55  1  0
 29 56  1  0
 30 57  1  0
 30 58  1  0
 31 59  1  0
M  END
$$$$
