
     RDKit          3D

 57 59  0  0  0  0  0  0  0  0999 V2000
    8.4280   -1.6906   -2.1180 C   0  0  0  0  0  0  0  0  0  0  0  0
    7.2993   -2.2312   -2.7955 O   0  0  0  0  0  0  0  0  0  0  0  0
    6.1928   -2.4955   -2.0359 C   0  0  0  0  0  0  0  0  0  0  0  0
    5.1144   -3.0346   -2.7414 C   0  0  0  0  0  0  0  0  0  0  0  0
    3.9197   -3.3535   -2.0887 C   0  0  0  0  0  0  0  0  0  0  0  0
    3.7898   -3.1428   -0.7108 C   0  0  0  0  0  0  0  0  0  0  0  0
    2.5004   -3.4586    0.0012 C   0  0  0  0  0  0  0  0  0  0  0  0
    1.6481   -2.2995    0.0576 N   0  0  0  0  0  0  0  0  0  0  0  0
    1.6601   -1.4330    1.1246 C   0  0  0  0  0  0  0  0  0  0  0  0
    2.2457   -1.5947    2.1861 O   0  0  0  0  0  0  0  0  0  0  0  0
    0.8447   -0.1428    0.8783 C   0  0  0  0  0  0  0  0  0  0  0  0
    0.1950   -0.0072   -0.1497 O   0  0  0  0  0  0  0  0  0  0  0  0
    0.9255    0.7694    1.9030 N   0  0  0  0  0  0  0  0  0  0  0  0
    0.1968    2.0270    1.8804 C   0  0  0  0  0  0  0  0  0  0  0  0
   -1.3314    1.8524    1.9619 C   0  0  0  0  0  0  0  0  0  0  0  0
   -1.6716    1.2783    3.2431 O   0  0  0  0  0  0  0  0  0  0  0  0
   -3.0010    1.7303    3.5157 C   0  0  0  0  0  0  0  0  0  0  0  0
   -3.0080    3.1593    3.0187 C   0  0  0  0  0  0  0  0  0  0  0  0
   -2.0384    3.1406    1.9172 N   0  0  0  0  0  0  0  0  0  0  0  0
   -2.4614    3.7715    0.4219 S   0  0  0  0  0  6  0  0  0  0  0  0
   -1.2990    3.7102   -0.4365 O   0  0  0  0  0  0  0  0  0  0  0  0
   -3.1479    5.0250    0.6551 O   0  0  0  0  0  0  0  0  0  0  0  0
   -3.6609    2.6188   -0.2146 C   0  0  0  0  0  0  0  0  0  0  0  0
   -3.2440    1.5626   -1.0306 C   0  0  0  0  0  0  0  0  0  0  0  0
   -4.1863    0.6632   -1.5411 C   0  0  0  0  0  0  0  0  0  0  0  0
   -5.5431    0.8302   -1.2555 C   0  0  0  0  0  0  0  0  0  0  0  0
   -6.5608    0.0223   -1.6845 O   0  0  0  0  0  0  0  0  0  0  0  0
   -6.2083   -1.0545   -2.5448 C   0  0  0  0  0  0  0  0  0  0  0  0
   -5.9513    1.9094   -0.4640 C   0  0  0  0  0  0  0  0  0  0  0  0
   -5.0180    2.8122    0.0497 C   0  0  0  0  0  0  0  0  0  0  0  0
    4.8708   -2.5913   -0.0082 C   0  0  0  0  0  0  0  0  0  0  0  0
    6.0652   -2.2723   -0.6649 C   0  0  0  0  0  0  0  0  0  0  0  0
    8.7995   -2.3828   -1.3550 H   0  0  0  0  0  0  0  0  0  0  0  0
    8.1969   -0.7118   -1.6859 H   0  0  0  0  0  0  0  0  0  0  0  0
    9.2248   -1.5492   -2.8549 H   0  0  0  0  0  0  0  0  0  0  0  0
    5.2059   -3.2059   -3.8123 H   0  0  0  0  0  0  0  0  0  0  0  0
    3.0961   -3.7674   -2.6663 H   0  0  0  0  0  0  0  0  0  0  0  0
    2.7063   -3.8289    1.0125 H   0  0  0  0  0  0  0  0  0  0  0  0
    1.9531   -4.2458   -0.5293 H   0  0  0  0  0  0  0  0  0  0  0  0
    1.2204   -1.9536   -0.7959 H   0  0  0  0  0  0  0  0  0  0  0  0
    1.4110    0.4748    2.7469 H   0  0  0  0  0  0  0  0  0  0  0  0
    0.4825    2.5518    0.9642 H   0  0  0  0  0  0  0  0  0  0  0  0
    0.5594    2.6091    2.7351 H   0  0  0  0  0  0  0  0  0  0  0  0
   -1.6985    1.1570    1.2045 H   0  0  0  0  0  0  0  0  0  0  0  0
   -3.7056    1.1028    2.9576 H   0  0  0  0  0  0  0  0  0  0  0  0
   -3.2177    1.6495    4.5842 H   0  0  0  0  0  0  0  0  0  0  0  0
   -2.6259    3.8383    3.7889 H   0  0  0  0  0  0  0  0  0  0  0  0
   -4.0118    3.4864    2.7428 H   0  0  0  0  0  0  0  0  0  0  0  0
   -2.1904    1.4260   -1.2723 H   0  0  0  0  0  0  0  0  0  0  0  0
   -3.8271   -0.1526   -2.1605 H   0  0  0  0  0  0  0  0  0  0  0  0
   -5.5540   -1.7679   -2.0337 H   0  0  0  0  0  0  0  0  0  0  0  0
   -7.1282   -1.5814   -2.8152 H   0  0  0  0  0  0  0  0  0  0  0  0
   -5.7497   -0.6886   -3.4693 H   0  0  0  0  0  0  0  0  0  0  0  0
   -7.0101    2.0518   -0.2570 H   0  0  0  0  0  0  0  0  0  0  0  0
   -5.3594    3.6587    0.6408 H   0  0  0  0  0  0  0  0  0  0  0  0
    4.7858   -2.4015    1.0614 H   0  0  0  0  0  0  0  0  0  0  0  0
    6.8714   -1.8491   -0.0753 H   0  0  0  0  0  0  0  0  0  0  0  0
  1  2  1  0
  2  3  1  0
  3  4  2  0
  4  5  1  0
  5  6  2  0
  6  7  1  0
  7  8  1  0
  8  9  1  0
  9 10  2  0
  9 11  1  0
 11 12  2  0
 11 13  1  0
 13 14  1  0
 14 15  1  0
 15 16  1  0
 16 17  1  0
 17 18  1  0
 18 19  1  0
 19 20  1  0
 20 21  2  0
 20 22  2  0
 20 23  1  0
 23 24  2  0
 24 25  1  0
 25 26  2  0
 26 27  1  0
 27 28  1  0
 26 29  1  0
 29 30  2  0
  6 31  1  0
 31 32  2  0
 32  3  1  0
 19 15  1  0
 30 23  1  0
  1 33  1  0
  1 34  1  0
  1 35  1  0
  4 36  1  0
  5 37  1  0
  7 38  1  0
  7 39  1  0
  8 40  1  0
 13 41  1  0
 14 42  1  0
 14 43  1  0
 15 44  1  0
 17 45  1  0
 17 46  1  0
 18 47  1  0
 18 48  1  0
 24 49  1  0
 25 50  1  0
 28 51  1  0
 28 52  1  0
 28 53  1  0
 29 54  1  0
 30 55  1  0
 31 56  1  0
 32 57  1  0
M  END
$$$$
