
     RDKit          3D

 53 55  0  0  0  0  0  0  0  0999 V2000
   -5.3781   -4.6444    0.7159 C   0  0  0  0  0  0  0  0  0  0  0  0
   -5.2024   -3.3186    0.2327 O   0  0  0  0  0  0  0  0  0  0  0  0
   -5.8007   -2.3055    0.9355 C   0  0  0  0  0  0  0  0  0  0  0  0
   -6.5745   -2.4840    2.0874 C   0  0  0  0  0  0  0  0  0  0  0  0
   -7.1291   -1.3839    2.7466 C   0  0  0  0  0  0  0  0  0  0  0  0
   -6.9121   -0.0972    2.2647 C   0  0  0  0  0  0  0  0  0  0  0  0
   -6.1446    0.0918    1.1175 C   0  0  0  0  0  0  0  0  0  0  0  0
   -5.5924   -1.0062    0.4352 C   0  0  0  0  0  0  0  0  0  0  0  0
   -4.7530   -0.7592   -0.7918 C   0  0  0  0  0  0  0  0  0  0  0  0
   -3.3548   -0.6833   -0.4569 N   0  0  0  0  0  0  0  0  0  0  0  0
   -2.4310   -0.1907   -1.3447 C   0  0  0  0  0  0  0  0  0  0  0  0
   -2.6722    0.3896   -2.3945 O   0  0  0  0  0  0  0  0  0  0  0  0
   -0.9652   -0.4376   -0.9186 C   0  0  0  0  0  0  0  0  0  0  0  0
   -0.7156   -1.0494    0.1105 O   0  0  0  0  0  0  0  0  0  0  0  0
   -0.0453    0.0824   -1.8015 N   0  0  0  0  0  0  0  0  0  0  0  0
    1.3759    0.1287   -1.5016 C   0  0  0  0  0  0  0  0  0  0  0  0
    1.8031    1.4375   -0.7803 C   0  0  0  0  0  0  0  0  0  0  0  0
    1.0383    1.6243    0.4248 O   0  0  0  0  0  0  0  0  0  0  0  0
    1.7591    0.9382    1.4522 C   0  0  0  0  0  0  0  0  0  0  0  0
    3.2197    1.1435    1.1020 C   0  0  0  0  0  0  0  0  0  0  0  0
    3.2051    1.4813   -0.3305 N   0  0  0  0  0  0  0  0  0  0  0  0
    4.3802    0.8529   -1.3382 S   0  0  0  0  0  6  0  0  0  0  0  0
    4.4090   -0.5792   -1.1342 O   0  0  0  0  0  0  0  0  0  0  0  0
    4.1848    1.4180   -2.6552 O   0  0  0  0  0  0  0  0  0  0  0  0
    5.8700    1.5492   -0.6706 C   0  0  0  0  0  0  0  0  0  0  0  0
    6.8084    0.7276   -0.0389 C   0  0  0  0  0  0  0  0  0  0  0  0
    7.9764    1.2924    0.4773 C   0  0  0  0  0  0  0  0  0  0  0  0
    8.1971    2.6655    0.3532 C   0  0  0  0  0  0  0  0  0  0  0  0
    9.7797    3.4252    1.0549 Br  0  0  0  0  0  0  0  0  0  0  0  0
    7.2631    3.4830   -0.2855 C   0  0  0  0  0  0  0  0  0  0  0  0
    6.0939    2.9238   -0.8036 C   0  0  0  0  0  0  0  0  0  0  0  0
   -6.4335   -4.9351    0.6958 H   0  0  0  0  0  0  0  0  0  0  0  0
   -4.8351   -5.3182    0.0462 H   0  0  0  0  0  0  0  0  0  0  0  0
   -4.9531   -4.7589    1.7185 H   0  0  0  0  0  0  0  0  0  0  0  0
   -6.7639   -3.4680    2.5031 H   0  0  0  0  0  0  0  0  0  0  0  0
   -7.7274   -1.5336    3.6419 H   0  0  0  0  0  0  0  0  0  0  0  0
   -7.3371    0.7588    2.7824 H   0  0  0  0  0  0  0  0  0  0  0  0
   -5.9732    1.1032    0.7538 H   0  0  0  0  0  0  0  0  0  0  0  0
   -5.0550    0.1719   -1.2868 H   0  0  0  0  0  0  0  0  0  0  0  0
   -4.8885   -1.5542   -1.5342 H   0  0  0  0  0  0  0  0  0  0  0  0
   -2.9947   -1.2807    0.2821 H   0  0  0  0  0  0  0  0  0  0  0  0
   -0.4246    0.6196   -2.5776 H   0  0  0  0  0  0  0  0  0  0  0  0
    1.8922    0.0262   -2.4604 H   0  0  0  0  0  0  0  0  0  0  0  0
    1.6220   -0.7453   -0.8887 H   0  0  0  0  0  0  0  0  0  0  0  0
    1.5957    2.2982   -1.4251 H   0  0  0  0  0  0  0  0  0  0  0  0
    1.4984    1.3490    2.4314 H   0  0  0  0  0  0  0  0  0  0  0  0
    1.4879   -0.1223    1.4369 H   0  0  0  0  0  0  0  0  0  0  0  0
    3.8104    0.2569    1.3463 H   0  0  0  0  0  0  0  0  0  0  0  0
    3.6305    1.9965    1.6523 H   0  0  0  0  0  0  0  0  0  0  0  0
    6.6431   -0.3438    0.0519 H   0  0  0  0  0  0  0  0  0  0  0  0
    8.7088    0.6561    0.9686 H   0  0  0  0  0  0  0  0  0  0  0  0
    7.4385    4.5512   -0.3875 H   0  0  0  0  0  0  0  0  0  0  0  0
    5.3659    3.5564   -1.3076 H   0  0  0  0  0  0  0  0  0  0  0  0
  1  2  1  0
  2  3  1  0
  3  4  2  0
  4  5  1  0
  5  6  2  0
  6  7  1  0
  7  8  2  0
  8  9  1  0
  9 10  1  0
 10 11  1  0
 11 12  2  0
 11 13  1  0
 13 14  2  0
 13 15  1  0
 15 16  1  0
 16 17  1  0
 17 18  1  0
 18 19  1  0
 19 20  1  0
 20 21  1  0
 21 22  1  0
 22 23  2  0
 22 24  2  0
 22 25  1  0
 25 26  2  0
 26 27  1  0
 27 28  2  0
 28 29  1  0
 28 30  1  0
 30 31  2  0
  8  3  1  0
 21 17  1  0
 31 25  1  0
  1 32  1  0
  1 33  1  0
  1 34  1  0
  4 35  1  0
  5 36  1  0
  6 37  1  0
  7 38  1  0
  9 39  1  0
  9 40  1  0
 10 41  1  0
 15 42  1  0
 16 43  1  0
 16 44  1  0
 17 45  1  0
 19 46  1  0
 19 47  1  0
 20 48  1  0
 20 49  1  0
 26 50  1  0
 27 51  1  0
 30 52  1  0
 31 53  1  0
M  END
$$$$
