
     RDKit          3D

 37 39  0  0  0  0  0  0  0  0999 V2000
    5.9919    1.0515   -0.5966 C   0  0  0  0  0  0  0  0  0  0  0  0
    4.6125    1.0537   -0.9482 O   0  0  0  0  0  0  0  0  0  0  0  0
    3.7614    0.3556   -0.1345 C   0  0  0  0  0  0  0  0  0  0  0  0
    4.1227   -0.3287    1.0339 C   0  0  0  0  0  0  0  0  0  0  0  0
    3.1570   -1.0006    1.7889 C   0  0  0  0  0  0  0  0  0  0  0  0
    1.8395   -0.9764    1.3578 C   0  0  0  0  0  0  0  0  0  0  0  0
    1.4545   -0.3035    0.1817 C   0  0  0  0  0  0  0  0  0  0  0  0
    2.4240    0.3684   -0.5574 C   0  0  0  0  0  0  0  0  0  0  0  0
    0.0551   -0.3698   -0.1107 N   0  0  0  0  0  0  0  0  0  0  0  0
   -0.2104   -0.5344   -1.5439 C   0  0  0  0  0  0  0  0  0  0  0  0
   -0.6041   -1.1019    0.8898 C   0  0  0  0  0  0  0  0  0  0  0  0
   -1.9263   -1.2564    1.0856 C   0  0  0  0  0  0  0  0  0  0  0  0
   -2.9861   -0.6219    0.3038 C   0  0  0  0  0  0  0  0  0  0  0  0
   -3.8596   -1.4351   -0.4303 C   0  0  0  0  0  0  0  0  0  0  0  0
   -4.8641   -0.8635   -1.1999 C   0  0  0  0  0  0  0  0  0  0  0  0
   -4.9900    0.5157   -1.2269 C   0  0  0  0  0  0  0  0  0  0  0  0
   -4.1202    1.2947   -0.4749 C   0  0  0  0  0  0  0  0  0  0  0  0
   -3.1498    0.7316    0.2853 N   0  0  0  0  0  4  0  0  0  0  0  0
   -2.2945    1.6302    1.0924 C   0  0  0  0  0  0  0  0  0  0  0  0
    0.4612   -1.7794    2.1502 S   0  0  0  0  0  0  0  0  0  0  0  0
    6.5296    1.6337   -1.3511 H   0  0  0  0  0  0  0  0  0  0  0  0
    6.1513    1.5340    0.3732 H   0  0  0  0  0  0  0  0  0  0  0  0
    6.3998    0.0354   -0.6060 H   0  0  0  0  0  0  0  0  0  0  0  0
    5.1505   -0.3560    1.3838 H   0  0  0  0  0  0  0  0  0  0  0  0
    3.4403   -1.5326    2.6923 H   0  0  0  0  0  0  0  0  0  0  0  0
    2.1724    0.9218   -1.4559 H   0  0  0  0  0  0  0  0  0  0  0  0
    0.1028    0.3499   -2.1090 H   0  0  0  0  0  0  0  0  0  0  0  0
   -1.2770   -0.6571   -1.7471 H   0  0  0  0  0  0  0  0  0  0  0  0
    0.3014   -1.4180   -1.9435 H   0  0  0  0  0  0  0  0  0  0  0  0
   -2.2895   -1.8635    1.9140 H   0  0  0  0  0  0  0  0  0  0  0  0
   -3.7504   -2.5189   -0.4146 H   0  0  0  0  0  0  0  0  0  0  0  0
   -5.5409   -1.4916   -1.7776 H   0  0  0  0  0  0  0  0  0  0  0  0
   -5.7675    0.9839   -1.8274 H   0  0  0  0  0  0  0  0  0  0  0  0
   -4.1980    2.3789   -0.4718 H   0  0  0  0  0  0  0  0  0  0  0  0
   -1.3942    1.8479    0.5150 H   0  0  0  0  0  0  0  0  0  0  0  0
   -2.0664    1.1640    2.0530 H   0  0  0  0  0  0  0  0  0  0  0  0
   -2.8390    2.5582    1.2901 H   0  0  0  0  0  0  0  0  0  0  0  0
  1  2  1  0
  2  3  1  0
  3  4  2  0
  4  5  1  0
  5  6  2  0
  6  7  1  0
  7  8  2  0
  7  9  1  0
  9 10  1  0
  9 11  1  0
 11 12  2  3
 12 13  1  0
 13 14  2  0
 14 15  1  0
 15 16  2  0
 16 17  1  0
 17 18  2  0
 18 19  1  0
 11 20  1  0
  8  3  1  0
 18 13  1  0
 20  6  1  0
  1 21  1  0
  1 22  1  0
  1 23  1  0
  4 24  1  0
  5 25  1  0
  8 26  1  0
 10 27  1  0
 10 28  1  0
 10 29  1  0
 12 30  1  0
 14 31  1  0
 15 32  1  0
 16 33  1  0
 17 34  1  0
 19 35  1  0
 19 36  1  0
 19 37  1  0
M  CHG  1  18   1
M  END
$$$$
