
     RDKit          3D

 64 67  0  0  0  0  0  0  0  0999 V2000
    1.3877   -7.5861    1.2475 C   0  0  0  0  0  0  0  0  0  0  0  0
    1.9689   -6.4847    1.9335 O   0  0  0  0  0  0  0  0  0  0  0  0
    2.2061   -5.3559    1.1993 C   0  0  0  0  0  0  0  0  0  0  0  0
    2.7496   -4.2929    1.9211 C   0  0  0  0  0  0  0  0  0  0  0  0
    3.0385   -3.0783    1.2920 C   0  0  0  0  0  0  0  0  0  0  0  0
    2.7784   -2.9067   -0.0697 C   0  0  0  0  0  0  0  0  0  0  0  0
    3.0942   -1.6594   -0.6353 N   0  0  0  0  0  0  0  0  0  0  0  0
    2.7758   -1.1973   -1.9012 C   0  0  0  0  0  0  0  0  0  0  0  0
    2.0286   -1.7433   -2.7088 O   0  0  0  0  0  0  0  0  0  0  0  0
    3.4222    0.1583   -2.2070 C   0  0  0  0  0  0  0  0  0  0  0  0
    2.6956    1.2752   -1.6009 N   0  0  0  0  0  0  0  0  0  0  0  0
    1.7014    1.9340   -2.4379 C   0  0  0  0  0  0  0  0  0  0  0  0
    2.8993    1.5082   -0.2557 C   0  0  0  0  0  0  0  0  0  0  0  0
    3.6704    0.8274    0.4246 O   0  0  0  0  0  0  0  0  0  0  0  0
    2.2455    2.6672    0.3840 C   0  0  0  0  0  0  0  0  0  0  0  0
    0.9521    2.8319    0.6994 C   0  0  0  0  0  0  0  0  0  0  0  0
   -0.1714    1.9767    0.4892 C   0  0  0  0  0  0  0  0  0  0  0  0
   -0.1745    0.6217    0.2532 C   0  0  0  0  0  0  0  0  0  0  0  0
   -1.4874    0.2460    0.0505 N   0  0  0  0  0  0  0  0  0  0  0  0
   -1.9974   -1.0366   -0.2980 C   0  0  0  0  0  0  0  0  0  0  0  0
   -1.1439   -2.1223   -0.5325 C   0  0  0  0  0  0  0  0  0  0  0  0
   -1.6738   -3.3644   -0.8961 C   0  0  0  0  0  0  0  0  0  0  0  0
   -3.0515   -3.5320   -1.0276 C   0  0  0  0  0  0  0  0  0  0  0  0
   -3.9079   -2.4587   -0.7914 C   0  0  0  0  0  0  0  0  0  0  0  0
   -3.3859   -1.2149   -0.4258 C   0  0  0  0  0  0  0  0  0  0  0  0
   -2.3279    1.2977    0.1993 N   0  0  0  0  0  0  0  0  0  0  0  0
   -1.5476    2.3466    0.4811 C   0  0  0  0  0  0  0  0  0  0  0  0
   -2.1425    3.6620    0.6957 C   0  0  0  0  0  0  0  0  0  0  0  0
   -2.9028    4.2558   -0.3178 C   0  0  0  0  0  0  0  0  0  0  0  0
   -3.4581    5.5243   -0.1323 C   0  0  0  0  0  0  0  0  0  0  0  0
   -3.2610    6.2158    1.0689 C   0  0  0  0  0  0  0  0  0  0  0  0
   -3.8860    7.5632    1.2762 C   0  0  0  0  0  0  0  0  0  0  0  0
   -2.5285    5.6058    2.0944 C   0  0  0  0  0  0  0  0  0  0  0  0
   -1.9703    4.3375    1.9091 C   0  0  0  0  0  0  0  0  0  0  0  0
    2.2459   -3.9741   -0.7936 C   0  0  0  0  0  0  0  0  0  0  0  0
    1.9600   -5.1928   -0.1624 C   0  0  0  0  0  0  0  0  0  0  0  0
    2.0611   -7.9657    0.4726 H   0  0  0  0  0  0  0  0  0  0  0  0
    1.2270   -8.3881    1.9745 H   0  0  0  0  0  0  0  0  0  0  0  0
    0.4115   -7.3204    0.8274 H   0  0  0  0  0  0  0  0  0  0  0  0
    2.9500   -4.4120    2.9840 H   0  0  0  0  0  0  0  0  0  0  0  0
    3.4585   -2.2694    1.8847 H   0  0  0  0  0  0  0  0  0  0  0  0
    3.5439   -0.9781   -0.0180 H   0  0  0  0  0  0  0  0  0  0  0  0
    4.4550    0.1492   -1.8357 H   0  0  0  0  0  0  0  0  0  0  0  0
    3.4796    0.2923   -3.2932 H   0  0  0  0  0  0  0  0  0  0  0  0
    2.1354    2.1341   -3.4222 H   0  0  0  0  0  0  0  0  0  0  0  0
    0.8407    1.2700   -2.5510 H   0  0  0  0  0  0  0  0  0  0  0  0
    1.3744    2.8860   -2.0183 H   0  0  0  0  0  0  0  0  0  0  0  0
    2.9559    3.4394    0.6681 H   0  0  0  0  0  0  0  0  0  0  0  0
    0.7257    3.7872    1.1725 H   0  0  0  0  0  0  0  0  0  0  0  0
    0.6262   -0.0985    0.2001 H   0  0  0  0  0  0  0  0  0  0  0  0
   -0.0654   -2.0375   -0.4566 H   0  0  0  0  0  0  0  0  0  0  0  0
   -1.0054   -4.2004   -1.0820 H   0  0  0  0  0  0  0  0  0  0  0  0
   -3.4580   -4.4989   -1.3174 H   0  0  0  0  0  0  0  0  0  0  0  0
   -4.9826   -2.5853   -0.8925 H   0  0  0  0  0  0  0  0  0  0  0  0
   -4.0772   -0.3922   -0.2470 H   0  0  0  0  0  0  0  0  0  0  0  0
   -3.0666    3.7298   -1.2560 H   0  0  0  0  0  0  0  0  0  0  0  0
   -4.0481    5.9671   -0.9319 H   0  0  0  0  0  0  0  0  0  0  0  0
   -3.3234    8.1486    2.0109 H   0  0  0  0  0  0  0  0  0  0  0  0
   -4.9161    7.4487    1.6285 H   0  0  0  0  0  0  0  0  0  0  0  0
   -3.8917    8.1354    0.3420 H   0  0  0  0  0  0  0  0  0  0  0  0
   -2.3929    6.1136    3.0463 H   0  0  0  0  0  0  0  0  0  0  0  0
   -1.4153    3.8757    2.7225 H   0  0  0  0  0  0  0  0  0  0  0  0
    2.0478   -3.8931   -1.8590 H   0  0  0  0  0  0  0  0  0  0  0  0
    1.5482   -5.9928   -0.7680 H   0  0  0  0  0  0  0  0  0  0  0  0
  1  2  1  0
  2  3  1  0
  3  4  2  0
  4  5  1  0
  5  6  2  0
  6  7  1  0
  7  8  1  0
  8  9  2  0
  8 10  1  0
 10 11  1  0
 11 12  1  0
 11 13  1  0
 13 14  2  0
 13 15  1  0
 15 16  2  3
 16 17  1  0
 17 18  2  0
 18 19  1  0
 19 20  1  0
 20 21  2  0
 21 22  1  0
 22 23  2  0
 23 24  1  0
 24 25  2  0
 19 26  1  0
 26 27  2  0
 27 28  1  0
 28 29  2  0
 29 30  1  0
 30 31  2  0
 31 32  1  0
 31 33  1  0
 33 34  2  0
  6 35  1  0
 35 36  2  0
 36  3  1  0
 27 17  1  0
 34 28  1  0
 25 20  1  0
  1 37  1  0
  1 38  1  0
  1 39  1  0
  4 40  1  0
  5 41  1  0
  7 42  1  0
 10 43  1  0
 10 44  1  0
 12 45  1  0
 12 46  1  0
 12 47  1  0
 15 48  1  0
 16 49  1  0
 18 50  1  0
 21 51  1  0
 22 52  1  0
 23 53  1  0
 24 54  1  0
 25 55  1  0
 29 56  1  0
 30 57  1  0
 32 58  1  0
 32 59  1  0
 32 60  1  0
 33 61  1  0
 34 62  1  0
 35 63  1  0
 36 64  1  0
M  END
$$$$
