
     RDKit          3D

 60 63  0  0  0  0  0  0  0  0999 V2000
   10.8166   -0.0610    0.3592 C   0  0  0  0  0  0  0  0  0  0  0  0
    9.9394   -1.2301   -0.0541 C   0  0  0  0  0  0  0  0  0  0  0  0
    9.0763   -1.6161    1.0157 O   0  0  0  0  0  0  0  0  0  0  0  0
    7.8115   -1.1002    1.0503 C   0  0  0  0  0  0  0  0  0  0  0  0
    6.9418   -1.7525    1.9267 C   0  0  0  0  0  0  0  0  0  0  0  0
    5.6174   -1.3310    2.0657 C   0  0  0  0  0  0  0  0  0  0  0  0
    5.1452   -0.2341    1.3367 C   0  0  0  0  0  0  0  0  0  0  0  0
    3.7101    0.2015    1.4537 C   0  0  0  0  0  0  0  0  0  0  0  0
    2.8560   -0.6460    0.6556 N   0  0  0  0  0  0  0  0  0  0  0  0
    1.4962   -0.4097    0.5911 C   0  0  0  0  0  0  0  0  0  0  0  0
    0.9504    0.4663    1.2568 O   0  0  0  0  0  0  0  0  0  0  0  0
    0.7594   -1.3721   -0.3416 C   0  0  0  0  0  0  0  0  0  0  0  0
   -0.5542   -0.8599   -0.6917 N   0  0  0  0  0  0  0  0  0  0  0  0
   -0.6065   -0.0138   -1.8067 N   0  0  0  0  0  0  0  0  0  0  0  0
   -1.7251    0.5550   -2.1609 C   0  0  0  0  0  0  0  0  0  0  0  0
   -1.7127    1.4701   -3.3527 C   0  0  0  0  0  0  0  0  0  0  0  0
   -2.9280    0.2837   -1.4123 C   0  0  0  0  0  0  0  0  0  0  0  0
   -4.2598    0.6285   -1.5704 C   0  0  0  0  0  0  0  0  0  0  0  0
   -4.9357    1.3225   -2.6964 C   0  0  0  0  0  0  0  0  0  0  0  0
   -4.9125    0.1144   -0.4429 N   0  0  0  0  0  0  0  0  0  0  0  0
   -6.2434    0.3236    0.0353 C   0  0  0  0  0  0  0  0  0  0  0  0
   -7.0190    1.4183   -0.3636 C   0  0  0  0  0  0  0  0  0  0  0  0
   -8.3209    1.5802    0.1267 C   0  0  0  0  0  0  0  0  0  0  0  0
   -8.8653    0.6600    1.0279 C   0  0  0  0  0  0  0  0  0  0  0  0
  -10.2480    0.8540    1.5758 C   0  0  0  0  0  0  0  0  0  0  0  0
   -8.0738   -0.4033    1.4681 C   0  0  0  0  0  0  0  0  0  0  0  0
   -6.7745   -0.5697    0.9799 C   0  0  0  0  0  0  0  0  0  0  0  0
   -4.0912   -0.7162    0.2556 N   0  0  0  0  0  0  0  0  0  0  0  0
   -2.8839   -0.5486   -0.2881 C   0  0  0  0  0  0  0  0  0  0  0  0
   -1.6415   -1.1722    0.1486 C   0  0  0  0  0  0  0  0  0  0  0  0
   -1.5529   -1.9145    1.1249 O   0  0  0  0  0  0  0  0  0  0  0  0
    6.0210    0.4218    0.4625 C   0  0  0  0  0  0  0  0  0  0  0  0
    7.3475   -0.0043    0.3256 C   0  0  0  0  0  0  0  0  0  0  0  0
   10.2203    0.8250    0.5954 H   0  0  0  0  0  0  0  0  0  0  0  0
   11.5209    0.1932   -0.4390 H   0  0  0  0  0  0  0  0  0  0  0  0
   11.3846   -0.3103    1.2617 H   0  0  0  0  0  0  0  0  0  0  0  0
    9.3981   -1.0350   -0.9868 H   0  0  0  0  0  0  0  0  0  0  0  0
   10.5855   -2.0925   -0.2570 H   0  0  0  0  0  0  0  0  0  0  0  0
    7.2990   -2.6013    2.5056 H   0  0  0  0  0  0  0  0  0  0  0  0
    4.9575   -1.8638    2.7471 H   0  0  0  0  0  0  0  0  0  0  0  0
    3.5862    1.2379    1.1166 H   0  0  0  0  0  0  0  0  0  0  0  0
    3.3756    0.1618    2.4972 H   0  0  0  0  0  0  0  0  0  0  0  0
    3.2924   -1.2398   -0.0387 H   0  0  0  0  0  0  0  0  0  0  0  0
    1.3353   -1.5116   -1.2636 H   0  0  0  0  0  0  0  0  0  0  0  0
    0.6694   -2.3394    0.1652 H   0  0  0  0  0  0  0  0  0  0  0  0
   -2.1680    0.9617   -4.2068 H   0  0  0  0  0  0  0  0  0  0  0  0
   -0.6839    1.7351   -3.6148 H   0  0  0  0  0  0  0  0  0  0  0  0
   -2.2624    2.3889   -3.1327 H   0  0  0  0  0  0  0  0  0  0  0  0
   -4.4231    1.1218   -3.6412 H   0  0  0  0  0  0  0  0  0  0  0  0
   -4.9395    2.4046   -2.5392 H   0  0  0  0  0  0  0  0  0  0  0  0
   -5.9611    0.9701   -2.8408 H   0  0  0  0  0  0  0  0  0  0  0  0
   -6.6346    2.1947   -1.0144 H   0  0  0  0  0  0  0  0  0  0  0  0
   -8.9022    2.4442   -0.1889 H   0  0  0  0  0  0  0  0  0  0  0  0
  -10.8837    1.3814    0.8561 H   0  0  0  0  0  0  0  0  0  0  0  0
  -10.7227   -0.1107    1.7827 H   0  0  0  0  0  0  0  0  0  0  0  0
  -10.2058    1.4352    2.5020 H   0  0  0  0  0  0  0  0  0  0  0  0
   -8.4597   -1.1146    2.1957 H   0  0  0  0  0  0  0  0  0  0  0  0
   -6.1880   -1.4117    1.3444 H   0  0  0  0  0  0  0  0  0  0  0  0
    5.6784    1.2775   -0.1159 H   0  0  0  0  0  0  0  0  0  0  0  0
    7.9916    0.5528   -0.3448 H   0  0  0  0  0  0  0  0  0  0  0  0
  1  2  1  0
  2  3  1  0
  3  4  1  0
  4  5  2  0
  5  6  1  0
  6  7  2  0
  7  8  1  0
  8  9  1  0
  9 10  1  0
 10 11  2  0
 10 12  1  0
 12 13  1  0
 13 14  1  0
 14 15  2  0
 15 16  1  0
 15 17  1  0
 17 18  2  0
 18 19  1  0
 18 20  1  0
 20 21  1  0
 21 22  2  0
 22 23  1  0
 23 24  2  0
 24 25  1  0
 24 26  1  0
 26 27  2  0
 20 28  1  0
 28 29  2  0
 29 30  1  0
 30 31  2  0
  7 32  1  0
 32 33  2  0
 33  4  1  0
 30 13  1  0
 29 17  1  0
 27 21  1  0
  1 34  1  0
  1 35  1  0
  1 36  1  0
  2 37  1  0
  2 38  1  0
  5 39  1  0
  6 40  1  0
  8 41  1  0
  8 42  1  0
  9 43  1  0
 12 44  1  0
 12 45  1  0
 16 46  1  0
 16 47  1  0
 16 48  1  0
 19 49  1  0
 19 50  1  0
 19 51  1  0
 22 52  1  0
 23 53  1  0
 25 54  1  0
 25 55  1  0
 25 56  1  0
 26 57  1  0
 27 58  1  0
 32 59  1  0
 33 60  1  0
M  END
$$$$
