
     RDKit          3D

 51 55  0  0  0  0  0  0  0  0999 V2000
    8.9489   -1.3069   -0.4806 F   0  0  0  0  0  0  0  0  0  0  0  0
    7.7427   -1.0161    0.0241 C   0  0  0  0  0  0  0  0  0  0  0  0
    7.5226    0.2311    0.5958 C   0  0  0  0  0  0  0  0  0  0  0  0
    6.2663    0.5353    1.1212 C   0  0  0  0  0  0  0  0  0  0  0  0
    5.2319   -0.4120    1.0773 C   0  0  0  0  0  0  0  0  0  0  0  0
    3.8651   -0.0757    1.6284 C   0  0  0  0  0  0  0  0  0  0  0  0
    2.9541    0.5331    0.5479 C   0  0  0  0  0  0  0  0  0  0  0  0
    1.6410    0.9541    1.0670 N   0  0  0  0  0  0  0  0  0  0  0  0
    0.8704    1.7102    0.0550 C   0  0  0  0  0  0  0  0  0  0  0  0
   -0.1223    0.8735   -0.7824 C   0  0  0  0  0  0  0  0  0  0  0  0
   -1.0792    0.1428    0.0625 N   0  0  0  0  0  0  0  0  0  0  0  0
   -2.4300    0.0638   -0.2663 C   0  0  0  0  0  0  0  0  0  0  0  0
   -3.3043    0.1424    0.7077 N   0  0  0  0  0  0  0  0  0  0  0  0
   -4.6865    0.1102    0.4457 C   0  0  0  0  0  0  0  0  0  0  0  0
   -5.5683    0.2166    1.5231 C   0  0  0  0  0  0  0  0  0  0  0  0
   -6.9507    0.2020    1.3186 C   0  0  0  0  0  0  0  0  0  0  0  0
   -7.4656    0.0809    0.0276 C   0  0  0  0  0  0  0  0  0  0  0  0
   -6.6028   -0.0269   -1.0637 C   0  0  0  0  0  0  0  0  0  0  0  0
   -5.2220   -0.0101   -0.8429 C   0  0  0  0  0  0  0  0  0  0  0  0
   -4.2830   -0.1274   -1.8800 N   0  0  0  0  0  0  0  0  0  0  0  0
   -4.4925   -0.2859   -3.2296 C   0  0  0  0  0  0  0  0  0  0  0  0
   -3.2677   -0.4344   -3.8409 C   0  0  0  0  0  0  0  0  0  0  0  0
   -2.2831   -0.3462   -2.8294 C   0  0  0  0  0  0  0  0  0  0  0  0
   -2.9271   -0.1147   -1.6255 C   0  0  0  0  0  0  0  0  0  0  0  0
   -0.6746   -0.0036    1.4728 C   0  0  0  0  0  0  0  0  0  0  0  0
    0.8528   -0.1921    1.5795 C   0  0  0  0  0  0  0  0  0  0  0  0
    5.4725   -1.6643    0.4913 C   0  0  0  0  0  0  0  0  0  0  0  0
    6.7299   -1.9659   -0.0333 C   0  0  0  0  0  0  0  0  0  0  0  0
    8.3285    0.9570    0.6285 H   0  0  0  0  0  0  0  0  0  0  0  0
    6.0978    1.5139    1.5661 H   0  0  0  0  0  0  0  0  0  0  0  0
    3.4227   -0.9869    2.0492 H   0  0  0  0  0  0  0  0  0  0  0  0
    3.9744    0.6236    2.4675 H   0  0  0  0  0  0  0  0  0  0  0  0
    3.4682    1.4131    0.1385 H   0  0  0  0  0  0  0  0  0  0  0  0
    2.8322   -0.1711   -0.2861 H   0  0  0  0  0  0  0  0  0  0  0  0
    1.5357    2.2689   -0.6148 H   0  0  0  0  0  0  0  0  0  0  0  0
    0.2981    2.4760    0.5956 H   0  0  0  0  0  0  0  0  0  0  0  0
   -0.6466    1.5606   -1.4563 H   0  0  0  0  0  0  0  0  0  0  0  0
    0.4332    0.1543   -1.3948 H   0  0  0  0  0  0  0  0  0  0  0  0
   -5.1696    0.3139    2.5294 H   0  0  0  0  0  0  0  0  0  0  0  0
   -7.6233    0.2861    2.1683 H   0  0  0  0  0  0  0  0  0  0  0  0
   -8.5419    0.0695   -0.1271 H   0  0  0  0  0  0  0  0  0  0  0  0
   -7.0270   -0.1229   -2.0574 H   0  0  0  0  0  0  0  0  0  0  0  0
   -5.4854   -0.3020   -3.6544 H   0  0  0  0  0  0  0  0  0  0  0  0
   -3.1036   -0.6007   -4.8980 H   0  0  0  0  0  0  0  0  0  0  0  0
   -1.2170   -0.4468   -2.9740 H   0  0  0  0  0  0  0  0  0  0  0  0
   -1.1601   -0.8856    1.9076 H   0  0  0  0  0  0  0  0  0  0  0  0
   -0.9902    0.8739    2.0509 H   0  0  0  0  0  0  0  0  0  0  0  0
    1.1092   -1.1080    1.0295 H   0  0  0  0  0  0  0  0  0  0  0  0
    1.1170   -0.3567    2.6302 H   0  0  0  0  0  0  0  0  0  0  0  0
    4.6831   -2.4112    0.4430 H   0  0  0  0  0  0  0  0  0  0  0  0
    6.9260   -2.9329   -0.4848 H   0  0  0  0  0  0  0  0  0  0  0  0
  1  2  1  0
  2  3  2  0
  3  4  1  0
  4  5  2  0
  5  6  1  0
  6  7  1  0
  7  8  1  0
  8  9  1  0
  9 10  1  0
 10 11  1  0
 11 12  1  0
 12 13  2  0
 13 14  1  0
 14 15  2  0
 15 16  1  0
 16 17  2  0
 17 18  1  0
 18 19  2  0
 19 20  1  0
 20 21  1  0
 21 22  2  0
 22 23  1  0
 23 24  2  0
 11 25  1  0
 25 26  1  0
  5 27  1  0
 27 28  2  0
 28  2  1  0
 26  8  1  0
 24 12  1  0
 19 14  1  0
 24 20  1  0
  3 29  1  0
  4 30  1  0
  6 31  1  0
  6 32  1  0
  7 33  1  0
  7 34  1  0
  9 35  1  0
  9 36  1  0
 10 37  1  0
 10 38  1  0
 15 39  1  0
 16 40  1  0
 17 41  1  0
 18 42  1  0
 21 43  1  0
 22 44  1  0
 23 45  1  0
 25 46  1  0
 25 47  1  0
 26 48  1  0
 26 49  1  0
 27 50  1  0
 28 51  1  0
M  END
$$$$
