
     RDKit          3D

 35 37  0  0  0  0  0  0  0  0999 V2000
    0.4398   -1.8619   -1.2502 O   0  0  0  0  0  0  0  0  0  0  0  0
   -0.0065   -0.7235   -1.1943 C   0  0  0  0  0  0  0  0  0  0  0  0
   -1.4030   -0.4021   -0.7771 C   0  0  0  0  0  0  0  0  0  0  0  0
   -2.2552   -1.3625   -0.3925 C   0  0  0  0  0  0  0  0  0  0  0  0
   -3.6474   -1.1658    0.0223 C   0  0  0  0  0  0  0  0  0  0  0  0
   -3.9638   -0.4706    1.1978 C   0  0  0  0  0  0  0  0  0  0  0  0
   -5.2968   -0.3083    1.5803 C   0  0  0  0  0  0  0  0  0  0  0  0
   -6.3068   -0.8469    0.7919 C   0  0  0  0  0  0  0  0  0  0  0  0
   -7.5850   -0.6916    1.1603 F   0  0  0  0  0  0  0  0  0  0  0  0
   -6.0098   -1.5479   -0.3709 C   0  0  0  0  0  0  0  0  0  0  0  0
   -4.6775   -1.7113   -0.7556 C   0  0  0  0  0  0  0  0  0  0  0  0
   -1.7060    1.2934   -0.9047 S   0  0  0  0  0  0  0  0  0  0  0  0
   -0.0777    1.6445   -1.4691 C   0  0  0  0  0  0  0  0  0  0  0  0
    0.4510    3.1707   -1.8908 S   0  0  0  0  0  0  0  0  0  0  0  0
    0.6331    0.4636   -1.5215 N   0  0  0  0  0  0  0  0  0  0  0  0
    1.9978    0.4264   -1.8961 N   0  0  0  0  0  0  0  0  0  0  0  0
    2.8754    0.5563   -0.7806 C   0  0  0  0  0  0  0  0  0  0  0  0
    2.3667    0.5170    0.4791 N   0  0  0  0  0  0  0  0  0  0  0  0
    3.2272    0.5953    1.5221 C   0  0  0  0  0  0  0  0  0  0  0  0
    4.6017    0.7113    1.3879 C   0  0  0  0  0  0  0  0  0  0  0  0
    5.4714    0.8155    2.6022 C   0  0  0  0  0  0  0  0  0  0  0  0
    5.0049    0.0897    3.6545 F   0  0  0  0  0  0  0  0  0  0  0  0
    5.5801    2.0960    3.0475 F   0  0  0  0  0  0  0  0  0  0  0  0
    6.7437    0.3838    2.3849 F   0  0  0  0  0  0  0  0  0  0  0  0
    5.1194    0.7645    0.0912 C   0  0  0  0  0  0  0  0  0  0  0  0
    4.2556    0.6802   -1.0009 C   0  0  0  0  0  0  0  0  0  0  0  0
    4.9209    0.7601   -2.5917 Cl  0  0  0  0  0  0  0  0  0  0  0  0
   -1.9269   -2.4016   -0.3912 H   0  0  0  0  0  0  0  0  0  0  0  0
   -3.1784   -0.0532    1.8238 H   0  0  0  0  0  0  0  0  0  0  0  0
   -5.5523    0.2317    2.4863 H   0  0  0  0  0  0  0  0  0  0  0  0
   -6.8151   -1.9623   -0.9689 H   0  0  0  0  0  0  0  0  0  0  0  0
   -4.4515   -2.2616   -1.6663 H   0  0  0  0  0  0  0  0  0  0  0  0
    2.2254    1.1469   -2.5830 H   0  0  0  0  0  0  0  0  0  0  0  0
    2.7542    0.5569    2.5024 H   0  0  0  0  0  0  0  0  0  0  0  0
    6.1916    0.8671   -0.0669 H   0  0  0  0  0  0  0  0  0  0  0  0
  1  2  2  0
  2  3  1  0
  3  4  2  3
  4  5  1  0
  5  6  2  0
  6  7  1  0
  7  8  2  0
  8  9  1  0
  8 10  1  0
 10 11  2  0
  3 12  1  0
 12 13  1  0
 13 14  2  0
 13 15  1  0
 15 16  1  0
 16 17  1  0
 17 18  2  0
 18 19  1  0
 19 20  2  0
 20 21  1  0
 21 22  1  0
 21 23  1  0
 21 24  1  0
 20 25  1  0
 25 26  2  0
 26 27  1  0
 15  2  1  0
 26 17  1  0
 11  5  1  0
  4 28  1  0
  6 29  1  0
  7 30  1  0
 10 31  1  0
 11 32  1  0
 16 33  1  0
 19 34  1  0
 25 35  1  0
M  END
$$$$
