
     RDKit          3D

 24 25  0  0  0  0  0  0  0  0999 V2000
    4.4810   -1.1647    1.0572 C   0  0  0  0  0  0  0  0  0  0  0  0
    2.6937   -0.8940    1.0613 S   0  0  0  0  0  0  0  0  0  0  0  0
    2.4570   -0.2070   -0.5122 C   0  0  0  0  0  0  0  0  0  0  0  0
    3.4379    0.0172   -1.3603 N   0  0  0  0  0  0  0  0  0  0  0  0
    2.8864    0.6629   -2.4247 N   0  0  0  0  0  0  0  0  0  0  0  0
    1.5893    0.8453   -2.2490 N   0  0  0  0  0  0  0  0  0  0  0  0
    1.2657    0.2670   -1.0563 N   0  0  0  0  0  0  0  0  0  0  0  0
   -0.0971    0.2511   -0.6334 C   0  0  0  0  0  0  0  0  0  0  0  0
   -0.5524   -0.5002    0.4531 C   0  0  0  0  0  0  0  0  0  0  0  0
   -1.9054   -0.4760    0.8195 C   0  0  0  0  0  0  0  0  0  0  0  0
   -2.8368    0.2918    0.1089 C   0  0  0  0  0  0  0  0  0  0  0  0
   -4.2783    0.2911    0.5328 C   0  0  0  0  0  0  0  0  0  0  0  0
   -2.3850    1.0334   -0.9886 C   0  0  0  0  0  0  0  0  0  0  0  0
   -3.4647    2.0018   -1.9279 Cl  0  0  0  0  0  0  0  0  0  0  0  0
   -1.0349    1.0111   -1.3582 C   0  0  0  0  0  0  0  0  0  0  0  0
    4.7781   -1.6082    2.0114 H   0  0  0  0  0  0  0  0  0  0  0  0
    4.7662   -1.8508    0.2547 H   0  0  0  0  0  0  0  0  0  0  0  0
    5.0152   -0.2182    0.9360 H   0  0  0  0  0  0  0  0  0  0  0  0
    0.0889   -1.1489    1.0369 H   0  0  0  0  0  0  0  0  0  0  0  0
   -2.2272   -1.0754    1.6704 H   0  0  0  0  0  0  0  0  0  0  0  0
   -4.4361   -0.3371    1.4161 H   0  0  0  0  0  0  0  0  0  0  0  0
   -4.9115   -0.1039   -0.2681 H   0  0  0  0  0  0  0  0  0  0  0  0
   -4.6015    1.3046    0.7912 H   0  0  0  0  0  0  0  0  0  0  0  0
   -0.7285    1.6070   -2.2175 H   0  0  0  0  0  0  0  0  0  0  0  0
  1  2  1  0
  2  3  1  0
  3  4  2  0
  4  5  1  0
  5  6  2  0
  6  7  1  0
  7  8  1  0
  8  9  2  0
  9 10  1  0
 10 11  2  0
 11 12  1  0
 11 13  1  0
 13 14  1  0
 13 15  2  0
  7  3  1  0
 15  8  1  0
  1 16  1  0
  1 17  1  0
  1 18  1  0
  9 19  1  0
 10 20  1  0
 12 21  1  0
 12 22  1  0
 12 23  1  0
 15 24  1  0
M  END
$$$$
