
     RDKit          3D

 50 53  0  0  0  0  0  0  0  0999 V2000
    6.5314    0.8431    3.4419 C   0  0  0  0  0  0  0  0  0  0  0  0
    7.1226    0.2400    2.1796 C   0  0  0  0  0  0  0  0  0  0  0  0
    6.7699    1.0131    1.0333 O   0  0  0  0  0  0  0  0  0  0  0  0
    5.5986    0.7695    0.3771 C   0  0  0  0  0  0  0  0  0  0  0  0
    4.6387   -0.1709    0.7593 C   0  0  0  0  0  0  0  0  0  0  0  0
    3.4669   -0.3453    0.0052 C   0  0  0  0  0  0  0  0  0  0  0  0
    3.2346    0.4262   -1.1424 C   0  0  0  0  0  0  0  0  0  0  0  0
    2.0080    0.2541   -1.9695 C   0  0  0  0  0  0  0  0  0  0  0  0
    2.1110    0.4003   -3.1806 O   0  0  0  0  0  0  0  0  0  0  0  0
    0.8565   -0.0189   -1.2561 N   0  0  0  0  0  0  0  0  0  0  0  0
   -0.4234   -0.3044   -1.7779 C   0  0  0  0  0  0  0  0  0  0  0  0
   -0.6921   -0.4657   -3.1364 C   0  0  0  0  0  0  0  0  0  0  0  0
   -1.9824   -0.7806   -3.5683 C   0  0  0  0  0  0  0  0  0  0  0  0
   -3.0160   -0.9345   -2.6446 C   0  0  0  0  0  0  0  0  0  0  0  0
   -2.7742   -0.7666   -1.2743 C   0  0  0  0  0  0  0  0  0  0  0  0
   -3.8649   -0.9211   -0.2842 C   0  0  0  0  0  0  0  0  0  0  0  0
   -5.0000   -0.2213   -0.4553 C   0  0  0  0  0  0  0  0  0  0  0  0
   -6.0990   -0.3359    0.4887 C   0  0  0  0  0  0  0  0  0  0  0  0
   -7.2915    0.3741    0.3320 C   0  0  0  0  0  0  0  0  0  0  0  0
   -8.3221    0.2263    1.2660 C   0  0  0  0  0  0  0  0  0  0  0  0
   -8.1655   -0.6303    2.3579 C   0  0  0  0  0  0  0  0  0  0  0  0
   -6.9778   -1.3408    2.5198 C   0  0  0  0  0  0  0  0  0  0  0  0
   -5.9605   -1.1826    1.5816 C   0  0  0  0  0  0  0  0  0  0  0  0
   -4.7758   -1.9107    1.7803 O   0  0  0  0  0  0  0  0  0  0  0  0
   -3.6985   -1.8127    0.9047 C   0  0  0  0  0  0  0  0  0  0  0  0
   -2.6607   -2.4321    1.1201 O   0  0  0  0  0  0  0  0  0  0  0  0
   -1.4701   -0.4546   -0.8560 C   0  0  0  0  0  0  0  0  0  0  0  0
    4.1883    1.3590   -1.5509 C   0  0  0  0  0  0  0  0  0  0  0  0
    5.3441    1.5201   -0.7791 C   0  0  0  0  0  0  0  0  0  0  0  0
    6.3014    2.5151   -1.2087 N   0  0  0  0  0  4  0  0  0  0  0  0
    7.0067    2.2296   -2.1858 O   0  0  0  0  0  0  0  0  0  0  0  0
    6.3050    3.5930   -0.5986 O   0  0  0  0  0  1  0  0  0  0  0  0
    6.8702    0.2961    4.3264 H   0  0  0  0  0  0  0  0  0  0  0  0
    5.4377    0.8256    3.4203 H   0  0  0  0  0  0  0  0  0  0  0  0
    6.8295    1.8920    3.5403 H   0  0  0  0  0  0  0  0  0  0  0  0
    8.2149    0.2834    2.2560 H   0  0  0  0  0  0  0  0  0  0  0  0
    6.8725   -0.8198    2.0633 H   0  0  0  0  0  0  0  0  0  0  0  0
    4.7658   -0.7961    1.6381 H   0  0  0  0  0  0  0  0  0  0  0  0
    2.7607   -1.1146    0.3125 H   0  0  0  0  0  0  0  0  0  0  0  0
    0.9103    0.0339   -0.2471 H   0  0  0  0  0  0  0  0  0  0  0  0
    0.0853   -0.3683   -3.8880 H   0  0  0  0  0  0  0  0  0  0  0  0
   -2.1757   -0.9145   -4.6301 H   0  0  0  0  0  0  0  0  0  0  0  0
   -4.0072   -1.1972   -3.0080 H   0  0  0  0  0  0  0  0  0  0  0  0
   -5.1334    0.4534   -1.2958 H   0  0  0  0  0  0  0  0  0  0  0  0
   -7.4336    1.0453   -0.5117 H   0  0  0  0  0  0  0  0  0  0  0  0
   -9.2498    0.7803    1.1416 H   0  0  0  0  0  0  0  0  0  0  0  0
   -8.9694   -0.7427    3.0813 H   0  0  0  0  0  0  0  0  0  0  0  0
   -6.8466   -2.0086    3.3663 H   0  0  0  0  0  0  0  0  0  0  0  0
   -1.2717   -0.3331    0.2070 H   0  0  0  0  0  0  0  0  0  0  0  0
    4.0311    1.9505   -2.4511 H   0  0  0  0  0  0  0  0  0  0  0  0
  1  2  1  0
  2  3  1  0
  3  4  1  0
  4  5  2  0
  5  6  1  0
  6  7  2  0
  7  8  1  0
  8  9  2  0
  8 10  1  0
 10 11  1  0
 11 12  2  0
 12 13  1  0
 13 14  2  0
 14 15  1  0
 15 16  1  0
 16 17  2  0
 17 18  1  0
 18 19  2  0
 19 20  1  0
 20 21  2  0
 21 22  1  0
 22 23  2  0
 23 24  1  0
 24 25  1  0
 25 26  2  0
 15 27  2  0
  7 28  1  0
 28 29  2  0
 29 30  1  0
 30 31  2  0
 30 32  1  0
 29  4  1  0
 27 11  1  0
 25 16  1  0
 23 18  1  0
  1 33  1  0
  1 34  1  0
  1 35  1  0
  2 36  1  0
  2 37  1  0
  5 38  1  0
  6 39  1  0
 10 40  1  0
 12 41  1  0
 13 42  1  0
 14 43  1  0
 17 44  1  0
 19 45  1  0
 20 46  1  0
 21 47  1  0
 22 48  1  0
 27 49  1  0
 28 50  1  0
M  CHG  2  30   1  32  -1
M  END
$$$$
