
     RDKit          3D

 36 35  0  0  0  0  0  0  0  0999 V2000
    1.8869   -0.5170    0.9489 C   0  0  0  0  0  0  0  0  0  0  0  0
    2.3526   -1.5601   -0.0525 C   0  0  0  0  0  0  0  0  0  0  0  0
    2.3495   -1.0847   -1.4498 N   0  0  0  0  0  0  0  0  0  0  0  0
    3.5713   -0.3689   -1.8696 C   0  0  0  0  0  0  0  0  0  0  0  0
    3.4060    1.1440   -1.8872 C   0  0  0  0  0  0  0  0  0  0  0  0
    1.2748   -1.2930   -2.3475 C   0  0  0  0  0  0  0  0  0  0  0  0
    1.3585   -1.0457   -4.0183 S   0  0  0  0  0  0  0  0  0  0  0  0
   -0.2183   -1.9541   -1.6372 S   0  0  0  0  0  0  0  0  0  0  0  0
   -1.6782   -0.5938   -2.1675 S   0  0  0  0  0  0  0  0  0  0  0  0
   -1.4934    0.6663   -0.9338 C   0  0  0  0  0  0  0  0  0  0  0  0
   -0.5573    2.0139   -1.3355 S   0  0  0  0  0  0  0  0  0  0  0  0
   -2.1733    0.4860    0.2922 N   0  0  0  0  0  0  0  0  0  0  0  0
   -3.1381   -0.6011    0.5496 C   0  0  0  0  0  0  0  0  0  0  0  0
   -2.5575   -1.7050    1.4222 C   0  0  0  0  0  0  0  0  0  0  0  0
   -2.0460    1.4651    1.3888 C   0  0  0  0  0  0  0  0  0  0  0  0
   -3.0942    2.5673    1.3111 C   0  0  0  0  0  0  0  0  0  0  0  0
    1.8895   -0.9395    1.9588 H   0  0  0  0  0  0  0  0  0  0  0  0
    2.5465    0.3547    0.9526 H   0  0  0  0  0  0  0  0  0  0  0  0
    0.8735   -0.1741    0.7321 H   0  0  0  0  0  0  0  0  0  0  0  0
    1.7388   -2.4601    0.0436 H   0  0  0  0  0  0  0  0  0  0  0  0
    3.3691   -1.8843    0.2001 H   0  0  0  0  0  0  0  0  0  0  0  0
    3.8796   -0.7171   -2.8603 H   0  0  0  0  0  0  0  0  0  0  0  0
    4.3926   -0.6330   -1.1938 H   0  0  0  0  0  0  0  0  0  0  0  0
    2.6292    1.4605   -2.5882 H   0  0  0  0  0  0  0  0  0  0  0  0
    4.3442    1.6197   -2.1904 H   0  0  0  0  0  0  0  0  0  0  0  0
    3.1387    1.5290   -0.8996 H   0  0  0  0  0  0  0  0  0  0  0  0
   -3.5141   -1.0312   -0.3807 H   0  0  0  0  0  0  0  0  0  0  0  0
   -4.0138   -0.1681    1.0466 H   0  0  0  0  0  0  0  0  0  0  0  0
   -1.6577   -2.1393    0.9811 H   0  0  0  0  0  0  0  0  0  0  0  0
   -2.2877   -1.3308    2.4144 H   0  0  0  0  0  0  0  0  0  0  0  0
   -3.2926   -2.5049    1.5560 H   0  0  0  0  0  0  0  0  0  0  0  0
   -1.0448    1.9061    1.3890 H   0  0  0  0  0  0  0  0  0  0  0  0
   -2.1402    0.9382    2.3443 H   0  0  0  0  0  0  0  0  0  0  0  0
   -4.1064    2.1579    1.3872 H   0  0  0  0  0  0  0  0  0  0  0  0
   -2.9554    3.2777    2.1320 H   0  0  0  0  0  0  0  0  0  0  0  0
   -3.0323    3.1196    0.3689 H   0  0  0  0  0  0  0  0  0  0  0  0
  1  2  1  0
  2  3  1  0
  3  4  1  0
  4  5  1  0
  3  6  1  0
  6  7  2  0
  6  8  1  0
  8  9  1  0
  9 10  1  0
 10 11  2  0
 10 12  1  0
 12 13  1  0
 13 14  1  0
 12 15  1  0
 15 16  1  0
  1 17  1  0
  1 18  1  0
  1 19  1  0
  2 20  1  0
  2 21  1  0
  4 22  1  0
  4 23  1  0
  5 24  1  0
  5 25  1  0
  5 26  1  0
 13 27  1  0
 13 28  1  0
 14 29  1  0
 14 30  1  0
 14 31  1  0
 15 32  1  0
 15 33  1  0
 16 34  1  0
 16 35  1  0
 16 36  1  0
M  END
$$$$
