
     RDKit          3D

 52 55  0  0  0  0  0  0  0  0999 V2000
   -3.3641    4.0481    1.2537 C   0  0  0  0  0  0  0  0  0  0  0  0
   -3.5141    3.3217   -0.0757 C   0  0  0  0  0  0  0  0  0  0  0  0
   -4.3964    2.0786    0.0367 C   0  0  0  0  0  0  0  0  0  0  0  0
   -3.8848    1.1473    0.9893 O   0  0  0  0  0  0  0  0  0  0  0  0
   -2.9573    0.2287    0.5891 C   0  0  0  0  0  0  0  0  0  0  0  0
   -2.3794    0.1288   -0.6754 C   0  0  0  0  0  0  0  0  0  0  0  0
   -1.4286   -0.8639   -0.9407 C   0  0  0  0  0  0  0  0  0  0  0  0
   -1.0491   -1.7672    0.0575 C   0  0  0  0  0  0  0  0  0  0  0  0
   -0.0195   -2.7635   -0.2071 C   0  0  0  0  0  0  0  0  0  0  0  0
    1.3653   -2.6351   -0.3011 C   0  0  0  0  0  0  0  0  0  0  0  0
    2.2450   -1.4670   -0.1553 C   0  0  0  0  0  0  0  0  0  0  0  0
    3.4112   -1.5126   -0.5421 O   0  0  0  0  0  0  0  0  0  0  0  0
    1.6718   -0.3525    0.4586 N   0  0  0  0  0  0  0  0  0  0  0  0
    2.3313    0.8013    0.8116 N   0  0  0  0  0  0  0  0  0  0  0  0
    3.2786    1.2322    0.0393 C   0  0  0  0  0  0  0  0  0  0  0  0
    4.0613    2.4405    0.3737 C   0  0  0  0  0  0  0  0  0  0  0  0
    3.7943    3.1745    1.5332 C   0  0  0  0  0  0  0  0  0  0  0  0
    4.5479    4.3133    1.8217 C   0  0  0  0  0  0  0  0  0  0  0  0
    5.5648    4.7158    0.9552 C   0  0  0  0  0  0  0  0  0  0  0  0
    5.8320    3.9815   -0.2011 C   0  0  0  0  0  0  0  0  0  0  0  0
    5.0809    2.8419   -0.4947 C   0  0  0  0  0  0  0  0  0  0  0  0
    1.9011   -3.8610   -0.6061 N   0  0  0  0  0  0  0  0  0  0  0  0
    0.9244   -4.7422   -0.6983 N   0  0  0  0  0  0  0  0  0  0  0  0
   -0.2652   -4.1131   -0.4969 N   0  0  0  0  0  0  0  0  0  0  0  0
   -1.4929   -4.8184   -0.5907 C   0  0  0  0  0  0  0  0  0  0  0  0
   -2.6609   -4.2128   -0.3751 N   0  0  0  0  0  0  0  0  0  0  0  0
   -3.6055   -5.2228   -0.5450 O   0  0  0  0  0  0  0  0  0  0  0  0
   -2.9986   -6.4330   -0.8623 N   0  0  0  0  0  0  0  0  0  0  0  0
   -1.6915   -6.1777   -0.9000 C   0  0  0  0  0  0  0  0  0  0  0  0
   -0.7479   -7.0917   -1.1907 N   0  0  0  0  0  0  0  0  0  0  0  0
   -1.6247   -1.6651    1.3273 C   0  0  0  0  0  0  0  0  0  0  0  0
   -2.5730   -0.6728    1.5854 C   0  0  0  0  0  0  0  0  0  0  0  0
   -4.3399    4.3485    1.6483 H   0  0  0  0  0  0  0  0  0  0  0  0
   -2.7585    4.9506    1.1237 H   0  0  0  0  0  0  0  0  0  0  0  0
   -2.8704    3.4167    1.9990 H   0  0  0  0  0  0  0  0  0  0  0  0
   -2.5149    3.0495   -0.4317 H   0  0  0  0  0  0  0  0  0  0  0  0
   -3.9495    4.0051   -0.8131 H   0  0  0  0  0  0  0  0  0  0  0  0
   -5.3856    2.3806    0.4014 H   0  0  0  0  0  0  0  0  0  0  0  0
   -4.5745    1.6131   -0.9392 H   0  0  0  0  0  0  0  0  0  0  0  0
   -2.6364    0.8101   -1.4793 H   0  0  0  0  0  0  0  0  0  0  0  0
   -0.9883   -0.9169   -1.9346 H   0  0  0  0  0  0  0  0  0  0  0  0
    0.8193   -0.4855    0.9906 H   0  0  0  0  0  0  0  0  0  0  0  0
    3.5344    0.7500   -0.9193 H   0  0  0  0  0  0  0  0  0  0  0  0
    3.0045    2.8654    2.2133 H   0  0  0  0  0  0  0  0  0  0  0  0
    4.3427    4.8851    2.7232 H   0  0  0  0  0  0  0  0  0  0  0  0
    6.1519    5.6023    1.1830 H   0  0  0  0  0  0  0  0  0  0  0  0
    6.6275    4.2961   -0.8720 H   0  0  0  0  0  0  0  0  0  0  0  0
    5.3013    2.2747   -1.3953 H   0  0  0  0  0  0  0  0  0  0  0  0
   -0.9935   -8.0751   -1.2285 H   0  0  0  0  0  0  0  0  0  0  0  0
    0.2447   -6.9004   -1.0617 H   0  0  0  0  0  0  0  0  0  0  0  0
   -1.3500   -2.3510    2.1256 H   0  0  0  0  0  0  0  0  0  0  0  0
   -3.0210   -0.6009    2.5742 H   0  0  0  0  0  0  0  0  0  0  0  0
  1  2  1  0
  2  3  1  0
  3  4  1  0
  4  5  1  0
  5  6  2  0
  6  7  1  0
  7  8  2  0
  8  9  1  0
  9 10  2  0
 10 11  1  0
 11 12  2  0
 11 13  1  0
 13 14  1  0
 14 15  2  3
 15 16  1  0
 16 17  2  0
 17 18  1  0
 18 19  2  0
 19 20  1  0
 20 21  2  0
 10 22  1  0
 22 23  2  0
 23 24  1  0
 24 25  1  0
 25 26  2  0
 26 27  1  0
 27 28  1  0
 28 29  2  0
 29 30  1  0
  8 31  1  0
 31 32  2  0
 32  5  1  0
 24  9  1  0
 29 25  1  0
 21 16  1  0
  1 33  1  0
  1 34  1  0
  1 35  1  0
  2 36  1  0
  2 37  1  0
  3 38  1  0
  3 39  1  0
  6 40  1  0
  7 41  1  0
 13 42  1  0
 15 43  1  0
 17 44  1  0
 18 45  1  0
 19 46  1  0
 20 47  1  0
 21 48  1  0
 30 49  1  0
 30 50  1  0
 31 51  1  0
 32 52  1  0
M  END
$$$$
