
     RDKit          3D

 43 43  0  0  0  0  0  0  0  0999 V2000
   -4.1571   -1.3406    3.8985 C   0  0  0  0  0  0  0  0  0  0  0  0
   -3.8733   -0.2319    2.9304 C   0  0  0  0  0  0  0  0  0  0  0  0
   -2.9529    1.0733    3.5961 Cl  0  0  0  0  0  0  0  0  0  0  0  0
   -4.2783   -0.2346    1.6490 C   0  0  0  0  0  0  0  0  0  0  0  0
   -4.0866    0.8507    0.6346 C   0  0  0  0  0  0  0  0  0  0  0  0
   -3.0225    0.5737   -0.4405 N   0  0  0  0  0  4  0  0  0  0  0  0
   -3.3547   -0.6923   -1.2196 C   0  0  0  0  0  0  0  0  0  0  0  0
   -3.0198    1.7603   -1.4070 C   0  0  0  0  0  0  0  0  0  0  0  0
   -1.6115    0.4509    0.2466 C   0  0  0  0  0  0  0  0  0  0  0  0
   -0.4058    0.2405   -0.6676 C   0  0  0  0  0  0  0  0  0  0  0  0
   -0.4628    0.0940   -1.8801 O   0  0  0  0  0  0  0  0  0  0  0  0
    0.7351    0.2336    0.0739 O   0  0  0  0  0  0  0  0  0  0  0  0
    1.9432    0.0365   -0.6847 C   0  0  0  0  0  0  0  0  0  0  0  0
    3.1266    0.0516    0.2797 C   0  0  0  0  0  0  0  0  0  0  0  0
    4.4357   -0.1473   -0.4346 C   0  0  0  0  0  0  0  0  0  0  0  0
    5.1517    0.9530   -0.9253 C   0  0  0  0  0  0  0  0  0  0  0  0
    6.3549    0.7657   -1.6073 C   0  0  0  0  0  0  0  0  0  0  0  0
    6.8512   -0.5207   -1.8078 C   0  0  0  0  0  0  0  0  0  0  0  0
    6.1454   -1.6215   -1.3267 C   0  0  0  0  0  0  0  0  0  0  0  0
    4.9419   -1.4372   -0.6444 C   0  0  0  0  0  0  0  0  0  0  0  0
   -4.7345   -0.9680    4.7511 H   0  0  0  0  0  0  0  0  0  0  0  0
   -3.2232   -1.7736    4.2720 H   0  0  0  0  0  0  0  0  0  0  0  0
   -4.7341   -2.1477    3.4348 H   0  0  0  0  0  0  0  0  0  0  0  0
   -4.8684   -1.0850    1.3103 H   0  0  0  0  0  0  0  0  0  0  0  0
   -3.8260    1.8108    1.0932 H   0  0  0  0  0  0  0  0  0  0  0  0
   -5.0367    1.0034    0.1067 H   0  0  0  0  0  0  0  0  0  0  0  0
   -2.7109   -0.7622   -2.0984 H   0  0  0  0  0  0  0  0  0  0  0  0
   -3.2003   -1.5572   -0.5688 H   0  0  0  0  0  0  0  0  0  0  0  0
   -4.3999   -0.6337   -1.5386 H   0  0  0  0  0  0  0  0  0  0  0  0
   -2.7091    2.6529   -0.8564 H   0  0  0  0  0  0  0  0  0  0  0  0
   -4.0348    1.8866   -1.7965 H   0  0  0  0  0  0  0  0  0  0  0  0
   -2.3358    1.5619   -2.2337 H   0  0  0  0  0  0  0  0  0  0  0  0
   -1.4671    1.3809    0.8063 H   0  0  0  0  0  0  0  0  0  0  0  0
   -1.6686   -0.4061    0.9243 H   0  0  0  0  0  0  0  0  0  0  0  0
    2.0409    0.8417   -1.4231 H   0  0  0  0  0  0  0  0  0  0  0  0
    1.8880   -0.9260   -1.2077 H   0  0  0  0  0  0  0  0  0  0  0  0
    2.9933   -0.7230    1.0461 H   0  0  0  0  0  0  0  0  0  0  0  0
    3.1408    0.9966    0.8381 H   0  0  0  0  0  0  0  0  0  0  0  0
    4.7830    1.9654   -0.7772 H   0  0  0  0  0  0  0  0  0  0  0  0
    6.9088    1.6236   -1.9808 H   0  0  0  0  0  0  0  0  0  0  0  0
    7.7902   -0.6652   -2.3365 H   0  0  0  0  0  0  0  0  0  0  0  0
    6.5360   -2.6243   -1.4815 H   0  0  0  0  0  0  0  0  0  0  0  0
    4.4078   -2.3095   -0.2748 H   0  0  0  0  0  0  0  0  0  0  0  0
  1  2  1  0
  2  3  1  0
  2  4  2  3
  4  5  1  0
  5  6  1  0
  6  7  1  0
  6  8  1  0
  6  9  1  0
  9 10  1  0
 10 11  2  0
 10 12  1  0
 12 13  1  0
 13 14  1  0
 14 15  1  0
 15 16  2  0
 16 17  1  0
 17 18  2  0
 18 19  1  0
 19 20  2  0
 20 15  1  0
  1 21  1  0
  1 22  1  0
  1 23  1  0
  4 24  1  0
  5 25  1  0
  5 26  1  0
  7 27  1  0
  7 28  1  0
  7 29  1  0
  8 30  1  0
  8 31  1  0
  8 32  1  0
  9 33  1  0
  9 34  1  0
 13 35  1  0
 13 36  1  0
 14 37  1  0
 14 38  1  0
 16 39  1  0
 17 40  1  0
 18 41  1  0
 19 42  1  0
 20 43  1  0
M  CHG  1   6   1
M  END
$$$$
