
     RDKit          3D

 41 43  0  0  0  0  0  0  0  0999 V2000
   -2.4988    2.5066   -0.6319 C   0  0  0  0  0  0  0  0  0  0  0  0
   -1.3279    1.7513   -1.0089 N   0  0  0  0  0  0  0  0  0  0  0  0
   -0.1263    2.2386   -1.4401 C   0  0  0  0  0  0  0  0  0  0  0  0
    0.3326    3.9019   -1.3247 S   0  0  0  0  0  0  0  0  0  0  0  0
    1.5466    3.7804    0.0177 C   0  0  0  0  0  0  0  0  0  0  0  0
    0.9678    2.9898    1.1876 C   0  0  0  0  0  0  0  0  0  0  0  0
    0.1110    3.4611    1.9427 O   0  0  0  0  0  0  0  0  0  0  0  0
    1.4610    1.6812    1.2419 N   0  0  0  0  0  0  0  0  0  0  0  0
    0.8644    0.7827    2.0702 N   0  0  0  0  0  0  0  0  0  0  0  0
    1.1040   -0.4951    1.9125 C   0  0  0  0  0  0  0  0  0  0  0  0
    2.0217   -1.1984    1.0302 C   0  0  0  0  0  0  0  0  0  0  0  0
    1.9677   -2.5452    0.6930 C   0  0  0  0  0  0  0  0  0  0  0  0
    3.0432   -2.9417   -0.1591 C   0  0  0  0  0  0  0  0  0  0  0  0
    3.8833   -1.8822   -0.4347 C   0  0  0  0  0  0  0  0  0  0  0  0
    5.0703   -1.9088   -1.2495 N   0  0  0  0  0  4  0  0  0  0  0  0
    5.6390   -0.8391   -1.4856 O   0  0  0  0  0  0  0  0  0  0  0  0
    5.4359   -3.0259   -1.6551 O   0  0  0  0  0  1  0  0  0  0  0  0
    3.3937   -0.4478    0.3242 S   0  0  0  0  0  0  0  0  0  0  0  0
    0.6883    1.2491   -1.7225 N   0  0  0  0  0  0  0  0  0  0  0  0
    0.0221    0.0766   -1.4440 N   0  0  0  0  0  0  0  0  0  0  0  0
   -1.1651    0.3820   -0.9435 C   0  0  0  0  0  0  0  0  0  0  0  0
   -2.1218   -0.5688   -0.3838 C   0  0  0  0  0  0  0  0  0  0  0  0
   -2.5518   -1.6589   -1.1489 C   0  0  0  0  0  0  0  0  0  0  0  0
   -3.4479   -2.5847   -0.6171 C   0  0  0  0  0  0  0  0  0  0  0  0
   -3.9166   -2.4250    0.6838 C   0  0  0  0  0  0  0  0  0  0  0  0
   -5.0134   -3.5766    1.3434 Cl  0  0  0  0  0  0  0  0  0  0  0  0
   -3.4849   -1.3476    1.4659 C   0  0  0  0  0  0  0  0  0  0  0  0
   -2.5825   -0.4296    0.9345 C   0  0  0  0  0  0  0  0  0  0  0  0
   -2.4100    2.7816    0.4203 H   0  0  0  0  0  0  0  0  0  0  0  0
   -2.5712    3.3997   -1.2532 H   0  0  0  0  0  0  0  0  0  0  0  0
   -3.3851    1.8986   -0.7970 H   0  0  0  0  0  0  0  0  0  0  0  0
    1.8131    4.7866    0.3609 H   0  0  0  0  0  0  0  0  0  0  0  0
    2.4520    3.3049   -0.3638 H   0  0  0  0  0  0  0  0  0  0  0  0
    1.9037    1.3019    0.3983 H   0  0  0  0  0  0  0  0  0  0  0  0
    0.5019   -1.1555    2.5542 H   0  0  0  0  0  0  0  0  0  0  0  0
    1.1779   -3.2138    1.0275 H   0  0  0  0  0  0  0  0  0  0  0  0
    3.1850   -3.9421   -0.5429 H   0  0  0  0  0  0  0  0  0  0  0  0
   -2.1792   -1.7959   -2.1627 H   0  0  0  0  0  0  0  0  0  0  0  0
   -3.7529   -3.4435   -1.2095 H   0  0  0  0  0  0  0  0  0  0  0  0
   -3.8297   -1.2350    2.4939 H   0  0  0  0  0  0  0  0  0  0  0  0
   -2.2212    0.3865    1.5743 H   0  0  0  0  0  0  0  0  0  0  0  0
  1  2  1  0
  2  3  1  0
  3  4  1  0
  4  5  1  0
  5  6  1  0
  6  7  2  0
  6  8  1  0
  8  9  1  0
  9 10  2  3
 10 11  1  0
 11 12  2  0
 12 13  1  0
 13 14  2  0
 14 15  1  0
 15 16  2  0
 15 17  1  0
 14 18  1  0
  3 19  2  0
 19 20  1  0
 20 21  2  0
 21 22  1  0
 22 23  2  0
 23 24  1  0
 24 25  2  0
 25 26  1  0
 25 27  1  0
 27 28  2  0
 21  2  1  0
 28 22  1  0
 18 11  1  0
  1 29  1  0
  1 30  1  0
  1 31  1  0
  5 32  1  0
  5 33  1  0
  8 34  1  0
 10 35  1  0
 12 36  1  0
 13 37  1  0
 23 38  1  0
 24 39  1  0
 27 40  1  0
 28 41  1  0
M  CHG  2  15   1  17  -1
M  END
$$$$
