
     RDKit          3D

 49 52  0  0  0  0  0  0  0  0999 V2000
    3.9848    1.1061    2.3269 C   0  0  0  0  0  0  0  0  0  0  0  0
    4.2187    0.3225    1.0636 C   0  0  0  0  0  0  0  0  0  0  0  0
    5.2807    0.7204    0.2262 C   0  0  0  0  0  0  0  0  0  0  0  0
    5.5580    0.0218   -0.9508 C   0  0  0  0  0  0  0  0  0  0  0  0
    6.8783    0.5000   -1.9492 Cl  0  0  0  0  0  0  0  0  0  0  0  0
    4.7776   -1.0706   -1.3094 C   0  0  0  0  0  0  0  0  0  0  0  0
    3.7105   -1.4663   -0.4955 C   0  0  0  0  0  0  0  0  0  0  0  0
    3.4126   -0.7836    0.6921 C   0  0  0  0  0  0  0  0  0  0  0  0
    2.3496   -1.1734    1.5436 N   0  0  0  0  0  0  0  0  0  0  0  0
    1.5486   -2.3073    1.4454 C   0  0  0  0  0  0  0  0  0  0  0  0
    1.5746   -3.1408    0.5385 O   0  0  0  0  0  0  0  0  0  0  0  0
    0.5984   -2.4773    2.6245 C   0  0  0  0  0  0  0  0  0  0  0  0
   -1.1206   -2.5187    2.0529 S   0  0  0  0  0  0  0  0  0  0  0  0
   -1.2706   -0.9075    1.4419 C   0  0  0  0  0  0  0  0  0  0  0  0
   -0.6778    0.1528    1.9409 N   0  0  0  0  0  0  0  0  0  0  0  0
   -1.0686    1.2363    1.1936 N   0  0  0  0  0  0  0  0  0  0  0  0
   -1.8744    0.8135    0.2364 C   0  0  0  0  0  0  0  0  0  0  0  0
   -2.5260    1.6724   -0.7997 C   0  0  0  0  0  0  0  0  0  0  0  0
   -3.7452    2.3770   -0.2750 C   0  0  0  0  0  0  0  0  0  0  0  0
   -3.8093    3.6049    0.3587 C   0  0  0  0  0  0  0  0  0  0  0  0
   -5.1468    3.9689    0.6971 C   0  0  0  0  0  0  0  0  0  0  0  0
   -6.0583    3.0033    0.3287 C   0  0  0  0  0  0  0  0  0  0  0  0
   -5.3096    1.6768   -0.4458 S   0  0  0  0  0  0  0  0  0  0  0  0
   -1.9986   -0.5579    0.3400 N   0  0  0  0  0  0  0  0  0  0  0  0
   -2.7240   -1.4396   -0.5606 C   0  0  0  0  0  0  0  0  0  0  0  0
   -1.9769   -1.6065   -1.8342 C   0  0  0  0  0  0  0  0  0  0  0  0
   -0.7146   -2.0620   -2.1505 C   0  0  0  0  0  0  0  0  0  0  0  0
   -0.5598   -1.8741   -3.5461 C   0  0  0  0  0  0  0  0  0  0  0  0
   -1.7495   -1.3583   -3.9984 C   0  0  0  0  0  0  0  0  0  0  0  0
   -2.6198   -1.2039   -2.9694 O   0  0  0  0  0  0  0  0  0  0  0  0
    4.8447    1.7394    2.5668 H   0  0  0  0  0  0  0  0  0  0  0  0
    3.1074    1.7476    2.2140 H   0  0  0  0  0  0  0  0  0  0  0  0
    3.8474    0.4421    3.1861 H   0  0  0  0  0  0  0  0  0  0  0  0
    5.9072    1.5651    0.5049 H   0  0  0  0  0  0  0  0  0  0  0  0
    4.9985   -1.6529   -2.1997 H   0  0  0  0  0  0  0  0  0  0  0  0
    3.1108   -2.3091   -0.8403 H   0  0  0  0  0  0  0  0  0  0  0  0
    2.1240   -0.5232    2.2894 H   0  0  0  0  0  0  0  0  0  0  0  0
    0.8341   -3.4324    3.1005 H   0  0  0  0  0  0  0  0  0  0  0  0
    0.7339   -1.6954    3.3806 H   0  0  0  0  0  0  0  0  0  0  0  0
   -2.7814    1.1018   -1.6987 H   0  0  0  0  0  0  0  0  0  0  0  0
   -1.7986    2.4245   -1.1327 H   0  0  0  0  0  0  0  0  0  0  0  0
   -2.9364    4.2127    0.5750 H   0  0  0  0  0  0  0  0  0  0  0  0
   -5.4244    4.8911    1.2009 H   0  0  0  0  0  0  0  0  0  0  0  0
   -7.1294    3.0122    0.4722 H   0  0  0  0  0  0  0  0  0  0  0  0
   -3.7120   -1.0002   -0.7270 H   0  0  0  0  0  0  0  0  0  0  0  0
   -2.8867   -2.4068   -0.0821 H   0  0  0  0  0  0  0  0  0  0  0  0
    0.0216   -2.4482   -1.4571 H   0  0  0  0  0  0  0  0  0  0  0  0
    0.3117   -2.0897   -4.1469 H   0  0  0  0  0  0  0  0  0  0  0  0
   -2.1144   -1.0603   -4.9721 H   0  0  0  0  0  0  0  0  0  0  0  0
  1  2  1  0
  2  3  2  0
  3  4  1  0
  4  5  1  0
  4  6  2  0
  6  7  1  0
  7  8  2  0
  8  9  1  0
  9 10  1  0
 10 11  2  0
 10 12  1  0
 12 13  1  0
 13 14  1  0
 14 15  2  0
 15 16  1  0
 16 17  2  0
 17 18  1  0
 18 19  1  0
 19 20  2  0
 20 21  1  0
 21 22  2  0
 22 23  1  0
 17 24  1  0
 24 25  1  0
 25 26  1  0
 26 27  2  0
 27 28  1  0
 28 29  2  0
 29 30  1  0
  8  2  1  0
 24 14  1  0
 30 26  1  0
 23 19  1  0
  1 31  1  0
  1 32  1  0
  1 33  1  0
  3 34  1  0
  6 35  1  0
  7 36  1  0
  9 37  1  0
 12 38  1  0
 12 39  1  0
 18 40  1  0
 18 41  1  0
 20 42  1  0
 21 43  1  0
 22 44  1  0
 25 45  1  0
 25 46  1  0
 27 47  1  0
 28 48  1  0
 29 49  1  0
M  END
$$$$
