
     RDKit          3D

 60 66  0  0  0  0  0  0  0  0999 V2000
   -2.0261    1.2451    3.3690 O   0  0  0  0  0  0  0  0  0  0  0  0
   -1.2803    1.8346    2.6008 C   0  0  0  0  0  0  0  0  0  0  0  0
   -1.2187    3.2273    2.4776 N   0  0  0  0  0  0  0  0  0  0  0  0
   -0.2831    3.6126    1.5277 C   0  0  0  0  0  0  0  0  0  0  0  0
    0.0446    4.9011    1.1620 C   0  0  0  0  0  0  0  0  0  0  0  0
    1.0252    5.0597    0.1795 C   0  0  0  0  0  0  0  0  0  0  0  0
    1.6475    3.9414   -0.4049 C   0  0  0  0  0  0  0  0  0  0  0  0
    1.2992    2.6442   -0.0184 C   0  0  0  0  0  0  0  0  0  0  0  0
    0.3217    2.4907    0.9538 C   0  0  0  0  0  0  0  0  0  0  0  0
   -0.2530    1.2536    1.5847 C   0  0  0  0  0  0  0  0  0  0  0  0
    0.7559    0.3662    2.2539 N   0  0  0  0  0  0  0  0  0  0  0  0
    0.4316   -1.0691    1.8891 C   0  0  2  0  0  0  0  0  0  0  0  0
    1.6777   -1.9447    1.6470 C   0  0  0  0  0  0  0  0  0  0  0  0
    2.6190   -1.4554    0.5769 C   0  0  0  0  0  0  0  0  0  0  0  0
    2.5513   -1.7631   -0.7685 C   0  0  0  0  0  0  0  0  0  0  0  0
    3.5706   -1.1203   -1.4136 N   0  0  0  0  0  0  0  0  0  0  0  0
    4.3152   -0.3914   -0.5170 C   0  0  0  0  0  0  0  0  0  0  0  0
    5.4355    0.4217   -0.7267 C   0  0  0  0  0  0  0  0  0  0  0  0
    5.9997    1.0480    0.3885 C   0  0  0  0  0  0  0  0  0  0  0  0
    5.4659    0.8627    1.6614 C   0  0  0  0  0  0  0  0  0  0  0  0
    4.3477    0.0432    1.8534 C   0  0  0  0  0  0  0  0  0  0  0  0
    3.7539   -0.5955    0.7444 C   0  0  0  0  0  0  0  0  0  0  0  0
   -0.4725   -0.9196    0.7261 C   0  0  0  0  0  0  0  0  0  0  0  0
   -0.8604    0.4099    0.5447 C   0  0  0  0  0  0  0  0  0  0  0  0
   -1.6911    0.4732   -0.5434 C   0  0  0  0  0  0  0  0  0  0  0  0
   -2.3017    1.4898   -1.1391 O   0  0  0  0  0  0  0  0  0  0  0  0
   -1.8275   -0.8274   -1.0114 N   0  0  0  0  0  0  0  0  0  0  0  0
   -2.5370   -1.1861   -2.2372 C   0  0  0  0  0  0  0  0  0  0  0  0
   -3.7757   -2.0106   -1.9769 C   0  0  0  0  0  0  0  0  0  0  0  0
   -4.7592   -1.5764   -1.0750 C   0  0  0  0  0  0  0  0  0  0  0  0
   -5.9040   -2.3423   -0.8507 C   0  0  0  0  0  0  0  0  0  0  0  0
   -6.0855   -3.5432   -1.5328 C   0  0  0  0  0  0  0  0  0  0  0  0
   -5.1260   -3.9772   -2.4454 C   0  0  0  0  0  0  0  0  0  0  0  0
   -3.9797   -3.2132   -2.6716 C   0  0  0  0  0  0  0  0  0  0  0  0
   -1.0993   -1.6979   -0.2080 C   0  0  0  0  0  0  0  0  0  0  0  0
   -1.0578   -3.0139   -0.3785 O   0  0  0  0  0  0  0  0  0  0  0  0
   -1.7788    3.8433    3.0471 H   0  0  0  0  0  0  0  0  0  0  0  0
   -0.4290    5.7630    1.6177 H   0  0  0  0  0  0  0  0  0  0  0  0
    1.3181    6.0592   -0.1349 H   0  0  0  0  0  0  0  0  0  0  0  0
    2.4145    4.0878   -1.1629 H   0  0  0  0  0  0  0  0  0  0  0  0
    1.7855    1.7827   -0.4680 H   0  0  0  0  0  0  0  0  0  0  0  0
    1.6442    0.5761    1.8009 H   0  0  0  0  0  0  0  0  0  0  0  0
   -0.1384   -1.4951    2.7245 H   0  0  0  0  0  0  0  0  0  0  0  0
    1.3581   -2.9636    1.3891 H   0  0  0  0  0  0  0  0  0  0  0  0
    2.2348   -2.0338    2.5890 H   0  0  0  0  0  0  0  0  0  0  0  0
    1.8517   -2.3823   -1.3158 H   0  0  0  0  0  0  0  0  0  0  0  0
    3.7541   -1.1702   -2.4056 H   0  0  0  0  0  0  0  0  0  0  0  0
    5.8572    0.5633   -1.7163 H   0  0  0  0  0  0  0  0  0  0  0  0
    6.8711    1.6860    0.2601 H   0  0  0  0  0  0  0  0  0  0  0  0
    5.9208    1.3568    2.5166 H   0  0  0  0  0  0  0  0  0  0  0  0
    3.9405   -0.0923    2.8519 H   0  0  0  0  0  0  0  0  0  0  0  0
   -2.0202    2.3063   -0.6873 H   0  0  0  0  0  0  0  0  0  0  0  0
   -1.8152   -1.7357   -2.8541 H   0  0  0  0  0  0  0  0  0  0  0  0
   -2.8070   -0.2762   -2.7832 H   0  0  0  0  0  0  0  0  0  0  0  0
   -4.6373   -0.6380   -0.5350 H   0  0  0  0  0  0  0  0  0  0  0  0
   -6.6535   -2.0002   -0.1413 H   0  0  0  0  0  0  0  0  0  0  0  0
   -6.9782   -4.1381   -1.3567 H   0  0  0  0  0  0  0  0  0  0  0  0
   -5.2742   -4.9093   -2.9848 H   0  0  0  0  0  0  0  0  0  0  0  0
   -3.2486   -3.5652   -3.3971 H   0  0  0  0  0  0  0  0  0  0  0  0
   -1.8936   -3.3022   -0.7853 H   0  0  0  0  0  0  0  0  0  0  0  0
  1  2  2  0
  2  3  1  0
  3  4  1  0
  4  5  2  0
  5  6  1  0
  6  7  2  0
  7  8  1  0
  8  9  2  0
  9 10  1  0
 10 11  1  0
 11 12  1  0
 12 13  1  0
 13 14  1  0
 14 15  2  0
 15 16  1  0
 16 17  1  0
 17 18  2  0
 18 19  1  0
 19 20  2  0
 20 21  1  0
 21 22  2  0
 12 23  1  0
 23 24  1  0
 24 25  2  0
 25 26  1  0
 25 27  1  0
 27 28  1  0
 28 29  1  0
 29 30  2  0
 30 31  1  0
 31 32  2  0
 32 33  1  0
 33 34  2  0
 27 35  1  0
 35 36  1  0
 10  2  1  0
 22 14  1  0
 35 23  2  0
  9  4  1  0
 24 10  1  0
 34 29  1  0
 22 17  1  0
  3 37  1  0
  5 38  1  0
  6 39  1  0
  7 40  1  0
  8 41  1  0
 11 42  1  0
 12 43  1  1
 13 44  1  0
 13 45  1  0
 15 46  1  0
 16 47  1  0
 18 48  1  0
 19 49  1  0
 20 50  1  0
 21 51  1  0
 26 52  1  0
 28 53  1  0
 28 54  1  0
 30 55  1  0
 31 56  1  0
 32 57  1  0
 33 58  1  0
 34 59  1  0
 36 60  1  0
M  END
$$$$
