
     RDKit          3D

 33 33  0  0  0  0  0  0  0  0999 V2000
   -4.0288    3.2619   -0.9730 C   0  0  0  0  0  0  0  0  0  0  0  0
   -3.7780    2.3945    0.2359 C   0  0  0  0  0  0  0  0  0  0  0  0
   -4.5986    2.3463    1.1466 O   0  0  0  0  0  0  0  0  0  0  0  0
   -2.5646    1.7429    0.1796 N   0  0  0  0  0  0  0  0  0  0  0  0
   -2.0102    0.8398    1.1147 C   0  0  0  0  0  0  0  0  0  0  0  0
   -2.6669    0.4340    2.2780 C   0  0  0  0  0  0  0  0  0  0  0  0
   -2.0623   -0.4776    3.1454 C   0  0  0  0  0  0  0  0  0  0  0  0
   -0.8027   -0.9927    2.8522 C   0  0  0  0  0  0  0  0  0  0  0  0
   -0.1330   -0.5921    1.6942 C   0  0  0  0  0  0  0  0  0  0  0  0
   -0.7231    0.3324    0.8271 C   0  0  0  0  0  0  0  0  0  0  0  0
   -0.1512    0.8048   -0.3322 O   0  0  0  0  0  0  0  0  0  0  0  0
    1.2284    0.5529   -0.5462 C   0  0  0  0  0  0  0  0  0  0  0  0
    1.5572   -0.7998   -1.1919 C   0  0  0  0  0  0  0  0  0  0  0  0
    0.7158   -1.5531   -1.6706 O   0  0  0  0  0  0  0  0  0  0  0  0
    2.9061   -1.1012   -1.2015 N   0  0  0  0  0  0  0  0  0  0  0  0
    3.3684   -2.4025   -1.6976 C   0  0  0  0  0  0  0  0  0  0  0  0
    4.8726   -2.4946   -1.9367 C   0  0  0  0  0  0  0  0  0  0  0  0
    5.5509   -2.1741   -0.8085 F   0  0  0  0  0  0  0  0  0  0  0  0
    5.2723   -1.6435   -2.9063 F   0  0  0  0  0  0  0  0  0  0  0  0
    5.2393   -3.7419   -2.2983 F   0  0  0  0  0  0  0  0  0  0  0  0
   -3.4219    2.9516   -1.8284 H   0  0  0  0  0  0  0  0  0  0  0  0
   -5.0818    3.1827   -1.2587 H   0  0  0  0  0  0  0  0  0  0  0  0
   -3.7929    4.2998   -0.7232 H   0  0  0  0  0  0  0  0  0  0  0  0
   -1.9704    1.8993   -0.6282 H   0  0  0  0  0  0  0  0  0  0  0  0
   -3.6549    0.8033    2.5335 H   0  0  0  0  0  0  0  0  0  0  0  0
   -2.5850   -0.7912    4.0457 H   0  0  0  0  0  0  0  0  0  0  0  0
   -0.3447   -1.7145    3.5240 H   0  0  0  0  0  0  0  0  0  0  0  0
    0.8348   -1.0367    1.4957 H   0  0  0  0  0  0  0  0  0  0  0  0
    1.8135    0.6995    0.3702 H   0  0  0  0  0  0  0  0  0  0  0  0
    1.5740    1.3169   -1.2533 H   0  0  0  0  0  0  0  0  0  0  0  0
    3.5352   -0.5677   -0.6098 H   0  0  0  0  0  0  0  0  0  0  0  0
    2.8330   -2.6313   -2.6258 H   0  0  0  0  0  0  0  0  0  0  0  0
    3.0695   -3.1482   -0.9528 H   0  0  0  0  0  0  0  0  0  0  0  0
  1  2  1  0
  2  3  2  0
  2  4  1  0
  4  5  1  0
  5  6  2  0
  6  7  1  0
  7  8  2  0
  8  9  1  0
  9 10  2  0
 10 11  1  0
 11 12  1  0
 12 13  1  0
 13 14  2  0
 13 15  1  0
 15 16  1  0
 16 17  1  0
 17 18  1  0
 17 19  1  0
 17 20  1  0
 10  5  1  0
  1 21  1  0
  1 22  1  0
  1 23  1  0
  4 24  1  0
  6 25  1  0
  7 26  1  0
  8 27  1  0
  9 28  1  0
 12 29  1  0
 12 30  1  0
 15 31  1  0
 16 32  1  0
 16 33  1  0
M  END
$$$$
