
     RDKit          3D

 55 58  0  0  0  0  0  0  0  0999 V2000
    8.5198   -1.1369    1.7465 C   0  0  0  0  0  0  0  0  0  0  0  0
    7.9691   -0.1325    0.9032 O   0  0  0  0  0  0  0  0  0  0  0  0
    6.6110   -0.1406    0.7077 C   0  0  0  0  0  0  0  0  0  0  0  0
    5.7238   -1.0105    1.3487 C   0  0  0  0  0  0  0  0  0  0  0  0
    4.3525   -0.9335    1.0925 C   0  0  0  0  0  0  0  0  0  0  0  0
    3.8527    0.0169    0.1970 C   0  0  0  0  0  0  0  0  0  0  0  0
    2.3814    0.0585   -0.0451 C   0  0  0  0  0  0  0  0  0  0  0  0
    1.7745    1.4062   -0.2950 C   0  0  0  0  0  0  0  0  0  0  0  0
    0.4456    1.4341   -0.5162 C   0  0  0  0  0  0  0  0  0  0  0  0
   -0.3211    2.6733   -0.7776 C   0  0  0  0  0  0  0  0  0  0  0  0
   -0.9395    2.6653   -1.9855 F   0  0  0  0  0  0  0  0  0  0  0  0
   -1.2610    2.9235    0.1671 F   0  0  0  0  0  0  0  0  0  0  0  0
    0.4950    3.7665   -0.7883 F   0  0  0  0  0  0  0  0  0  0  0  0
   -0.2802    0.2492   -0.4935 N   0  0  0  0  0  0  0  0  0  0  0  0
   -1.6074    0.0754   -0.6900 N   0  0  0  0  0  0  0  0  0  0  0  0
   -1.8320   -1.2444   -0.5656 C   0  0  0  0  0  0  0  0  0  0  0  0
   -3.1606   -1.8978   -0.6639 C   0  0  0  0  0  0  0  0  0  0  0  0
   -3.2925   -3.0436   -0.2234 O   0  0  0  0  0  0  0  0  0  0  0  0
   -4.2456   -1.2261   -1.2478 N   0  0  0  0  0  0  0  0  0  0  0  0
   -4.1776    0.1066   -1.8292 C   0  0  0  0  0  0  0  0  0  0  0  0
   -5.5772   -1.7975   -1.0713 C   0  0  0  0  0  0  0  0  0  0  0  0
   -6.3424   -1.1402    0.0543 C   0  0  0  0  0  0  0  0  0  0  0  0
   -7.3336   -0.1850   -0.2145 C   0  0  0  0  0  0  0  0  0  0  0  0
   -8.0282    0.4280    0.8298 C   0  0  0  0  0  0  0  0  0  0  0  0
   -7.7380    0.0950    2.1518 C   0  0  0  0  0  0  0  0  0  0  0  0
   -6.7525   -0.8499    2.4317 C   0  0  0  0  0  0  0  0  0  0  0  0
   -6.0570   -1.4639    1.3890 C   0  0  0  0  0  0  0  0  0  0  0  0
   -0.6228   -1.9230   -0.2661 C   0  0  0  0  0  0  0  0  0  0  0  0
    0.3580   -0.9637   -0.2345 C   0  0  0  0  0  0  0  0  0  0  0  0
    1.7002   -1.0520   -0.0047 N   0  0  0  0  0  0  0  0  0  0  0  0
    4.7369    0.8787   -0.4637 C   0  0  0  0  0  0  0  0  0  0  0  0
    6.1113    0.8151   -0.2004 C   0  0  0  0  0  0  0  0  0  0  0  0
    7.0446    1.6189   -0.8103 O   0  0  0  0  0  0  0  0  0  0  0  0
    6.5782    2.8316   -1.3900 C   0  0  0  0  0  0  0  0  0  0  0  0
    8.1588   -1.0283    2.7755 H   0  0  0  0  0  0  0  0  0  0  0  0
    9.6072   -1.0042    1.7613 H   0  0  0  0  0  0  0  0  0  0  0  0
    8.3129   -2.1397    1.3546 H   0  0  0  0  0  0  0  0  0  0  0  0
    6.0647   -1.7597    2.0556 H   0  0  0  0  0  0  0  0  0  0  0  0
    3.6767   -1.6209    1.5986 H   0  0  0  0  0  0  0  0  0  0  0  0
    2.3817    2.3024   -0.2660 H   0  0  0  0  0  0  0  0  0  0  0  0
   -4.1632    0.8507   -1.0282 H   0  0  0  0  0  0  0  0  0  0  0  0
   -5.0496    0.2817   -2.4672 H   0  0  0  0  0  0  0  0  0  0  0  0
   -3.2914    0.2020   -2.4613 H   0  0  0  0  0  0  0  0  0  0  0  0
   -6.1206   -1.6971   -2.0187 H   0  0  0  0  0  0  0  0  0  0  0  0
   -5.5226   -2.8749   -0.8781 H   0  0  0  0  0  0  0  0  0  0  0  0
   -7.5702    0.0889   -1.2400 H   0  0  0  0  0  0  0  0  0  0  0  0
   -8.7953    1.1665    0.6122 H   0  0  0  0  0  0  0  0  0  0  0  0
   -8.2785    0.5730    2.9643 H   0  0  0  0  0  0  0  0  0  0  0  0
   -6.5232   -1.1092    3.4621 H   0  0  0  0  0  0  0  0  0  0  0  0
   -5.2878   -2.1993    1.6201 H   0  0  0  0  0  0  0  0  0  0  0  0
   -0.4919   -2.9827   -0.0958 H   0  0  0  0  0  0  0  0  0  0  0  0
    4.3573    1.5684   -1.2078 H   0  0  0  0  0  0  0  0  0  0  0  0
    6.0333    2.6348   -2.3196 H   0  0  0  0  0  0  0  0  0  0  0  0
    7.4520    3.4423   -1.6406 H   0  0  0  0  0  0  0  0  0  0  0  0
    5.9642    3.4034   -0.6849 H   0  0  0  0  0  0  0  0  0  0  0  0
  1  2  1  0
  2  3  1  0
  3  4  2  0
  4  5  1  0
  5  6  2  0
  6  7  1  0
  7  8  1  0
  8  9  2  0
  9 10  1  0
 10 11  1  0
 10 12  1  0
 10 13  1  0
  9 14  1  0
 14 15  1  0
 15 16  2  0
 16 17  1  0
 17 18  2  0
 17 19  1  0
 19 20  1  0
 19 21  1  0
 21 22  1  0
 22 23  2  0
 23 24  1  0
 24 25  2  0
 25 26  1  0
 26 27  2  0
 16 28  1  0
 28 29  2  0
 29 30  1  0
  6 31  1  0
 31 32  2  0
 32 33  1  0
 33 34  1  0
 32  3  1  0
 30  7  2  0
 29 14  1  0
 27 22  1  0
  1 35  1  0
  1 36  1  0
  1 37  1  0
  4 38  1  0
  5 39  1  0
  8 40  1  0
 20 41  1  0
 20 42  1  0
 20 43  1  0
 21 44  1  0
 21 45  1  0
 23 46  1  0
 24 47  1  0
 25 48  1  0
 26 49  1  0
 27 50  1  0
 28 51  1  0
 31 52  1  0
 34 53  1  0
 34 54  1  0
 34 55  1  0
M  END
$$$$
