
     RDKit          3D

 58 60  0  0  0  0  0  0  0  0999 V2000
   -1.2843    3.3165   -2.6554 C   0  0  0  0  0  0  0  0  0  0  0  0
   -2.2785    2.2439   -2.2971 C   0  0  0  0  0  0  0  0  0  0  0  0
   -3.6327    2.6047   -2.1669 C   0  0  0  0  0  0  0  0  0  0  0  0
   -4.5947    1.6604   -1.8115 C   0  0  0  0  0  0  0  0  0  0  0  0
   -4.2062    0.3396   -1.5971 C   0  0  0  0  0  0  0  0  0  0  0  0
   -5.4188   -0.8870   -1.1587 S   0  0  0  0  0  6  0  0  0  0  0  0
   -6.7230   -0.2702   -1.2966 O   0  0  0  0  0  0  0  0  0  0  0  0
   -5.0891   -2.1007   -1.8741 O   0  0  0  0  0  0  0  0  0  0  0  0
   -5.1534   -1.1422    0.4932 N   0  0  0  0  0  0  0  0  0  0  0  0
   -3.9565   -1.9237    0.9190 C   0  0  0  0  0  0  0  0  0  0  0  0
   -3.0202   -1.0671    1.7781 C   0  0  0  0  0  0  0  0  0  0  0  0
   -3.6423   -0.5505    2.9664 O   0  0  0  0  0  0  0  0  0  0  0  0
   -5.0620   -0.3800    2.8432 C   0  0  0  0  0  0  0  0  0  0  0  0
   -5.5015   -0.0298    1.4178 C   0  0  0  0  0  0  0  0  0  0  0  0
   -2.8729   -0.0430   -1.7592 C   0  0  0  0  0  0  0  0  0  0  0  0
   -1.8928    0.9068   -2.0629 C   0  0  0  0  0  0  0  0  0  0  0  0
   -0.5293    0.5498   -2.1539 N   0  0  0  0  0  0  0  0  0  0  0  0
    0.0648   -0.5847   -1.6232 C   0  0  0  0  0  0  0  0  0  0  0  0
   -0.4820   -1.4142   -0.8988 O   0  0  0  0  0  0  0  0  0  0  0  0
    1.5480   -0.7080   -1.9857 C   0  0  0  0  0  0  0  0  0  0  0  0
    2.4053   -0.0504   -1.0533 O   0  0  0  0  0  0  0  0  0  0  0  0
    2.4892    1.3020   -1.1931 C   0  0  0  0  0  0  0  0  0  0  0  0
    1.8228    1.9485   -1.9965 O   0  0  0  0  0  0  0  0  0  0  0  0
    3.4430    1.9302   -0.1779 C   0  0  0  0  0  0  0  0  0  0  0  0
    4.2146    0.9661    0.5937 N   0  0  0  0  0  0  0  0  0  0  0  0
    5.3760    0.4424    0.0593 C   0  0  0  0  0  0  0  0  0  0  0  0
    5.8480    0.8253   -1.0055 O   0  0  0  0  0  0  0  0  0  0  0  0
    6.0109   -0.6732    0.8146 C   0  0  0  0  0  0  0  0  0  0  0  0
    6.8117   -1.5823    0.1110 C   0  0  0  0  0  0  0  0  0  0  0  0
    7.4213   -2.6457    0.7795 C   0  0  0  0  0  0  0  0  0  0  0  0
    7.2401   -2.7999    2.1536 C   0  0  0  0  0  0  0  0  0  0  0  0
    6.4571   -1.8888    2.8630 C   0  0  0  0  0  0  0  0  0  0  0  0
    5.8451   -0.8231    2.1979 C   0  0  0  0  0  0  0  0  0  0  0  0
   -1.7768    4.2757   -2.8477 H   0  0  0  0  0  0  0  0  0  0  0  0
   -0.7393    3.0440   -3.5647 H   0  0  0  0  0  0  0  0  0  0  0  0
   -0.5797    3.4671   -1.8321 H   0  0  0  0  0  0  0  0  0  0  0  0
   -3.9467    3.6330   -2.3389 H   0  0  0  0  0  0  0  0  0  0  0  0
   -5.6356    1.9614   -1.7151 H   0  0  0  0  0  0  0  0  0  0  0  0
   -4.3227   -2.7749    1.5056 H   0  0  0  0  0  0  0  0  0  0  0  0
   -3.4131   -2.3386    0.0673 H   0  0  0  0  0  0  0  0  0  0  0  0
   -2.6431   -0.2112    1.2083 H   0  0  0  0  0  0  0  0  0  0  0  0
   -2.1528   -1.6559    2.0931 H   0  0  0  0  0  0  0  0  0  0  0  0
   -5.3567    0.4150    3.5357 H   0  0  0  0  0  0  0  0  0  0  0  0
   -5.5427   -1.3048    3.1819 H   0  0  0  0  0  0  0  0  0  0  0  0
   -4.9959    0.8879    1.1018 H   0  0  0  0  0  0  0  0  0  0  0  0
   -6.5842    0.1301    1.4009 H   0  0  0  0  0  0  0  0  0  0  0  0
   -2.6166   -1.0930   -1.6578 H   0  0  0  0  0  0  0  0  0  0  0  0
    0.1209    1.2765   -2.4559 H   0  0  0  0  0  0  0  0  0  0  0  0
    1.8060   -1.7729   -1.9804 H   0  0  0  0  0  0  0  0  0  0  0  0
    1.7291   -0.3539   -3.0083 H   0  0  0  0  0  0  0  0  0  0  0  0
    4.1241    2.6007   -0.7110 H   0  0  0  0  0  0  0  0  0  0  0  0
    2.8441    2.5004    0.5383 H   0  0  0  0  0  0  0  0  0  0  0  0
    3.7074    0.3970    1.2593 H   0  0  0  0  0  0  0  0  0  0  0  0
    6.9601   -1.4649   -0.9608 H   0  0  0  0  0  0  0  0  0  0  0  0
    8.0395   -3.3507    0.2286 H   0  0  0  0  0  0  0  0  0  0  0  0
    7.7182   -3.6269    2.6742 H   0  0  0  0  0  0  0  0  0  0  0  0
    6.3315   -2.0046    3.9372 H   0  0  0  0  0  0  0  0  0  0  0  0
    5.2673   -0.1083    2.7766 H   0  0  0  0  0  0  0  0  0  0  0  0
  1  2  1  0
  2  3  2  0
  3  4  1  0
  4  5  2  0
  5  6  1  0
  6  7  2  0
  6  8  2  0
  6  9  1  0
  9 10  1  0
 10 11  1  0
 11 12  1  0
 12 13  1  0
 13 14  1  0
  5 15  1  0
 15 16  2  0
 16 17  1  0
 17 18  1  0
 18 19  2  0
 18 20  1  0
 20 21  1  0
 21 22  1  0
 22 23  2  0
 22 24  1  0
 24 25  1  0
 25 26  1  0
 26 27  2  0
 26 28  1  0
 28 29  2  0
 29 30  1  0
 30 31  2  0
 31 32  1  0
 32 33  2  0
 16  2  1  0
 33 28  1  0
 14  9  1  0
  1 34  1  0
  1 35  1  0
  1 36  1  0
  3 37  1  0
  4 38  1  0
 10 39  1  0
 10 40  1  0
 11 41  1  0
 11 42  1  0
 13 43  1  0
 13 44  1  0
 14 45  1  0
 14 46  1  0
 15 47  1  0
 17 48  1  0
 20 49  1  0
 20 50  1  0
 24 51  1  0
 24 52  1  0
 25 53  1  0
 29 54  1  0
 30 55  1  0
 31 56  1  0
 32 57  1  0
 33 58  1  0
M  END
$$$$
