
     RDKit          3D

 60 65  0  0  0  0  0  0  0  0999 V2000
    6.8682    1.5746   -1.2823 C   0  0  0  0  0  0  0  0  0  0  0  0
    5.7875    2.1465   -0.5559 O   0  0  0  0  0  0  0  0  0  0  0  0
    4.5429    1.6321   -0.7972 C   0  0  0  0  0  0  0  0  0  0  0  0
    3.5116    2.2298   -0.0660 C   0  0  0  0  0  0  0  0  0  0  0  0
    2.1844    1.8148   -0.2199 C   0  0  0  0  0  0  0  0  0  0  0  0
    1.8740    0.7731   -1.0961 C   0  0  0  0  0  0  0  0  0  0  0  0
    2.9183    0.1748   -1.8108 C   0  0  0  0  0  0  0  0  0  0  0  0
    4.2392    0.6032   -1.6854 C   0  0  0  0  0  0  0  0  0  0  0  0
    2.6491   -0.8314   -2.7045 O   0  0  0  0  0  0  0  0  0  0  0  0
    1.7742   -1.8007   -2.1187 C   0  0  0  0  0  0  0  0  0  0  0  0
    0.4621   -1.2154   -1.5895 C   0  0  0  0  0  0  0  0  0  0  0  0
    0.4764    0.3023   -1.4183 C   0  0  0  0  0  0  0  0  0  0  0  0
   -0.5270    0.5687   -0.3840 N   0  0  0  0  0  0  0  0  0  0  0  0
   -1.1954    1.7758   -0.3895 C   0  0  0  0  0  0  0  0  0  0  0  0
   -0.9991    2.6098   -1.2746 O   0  0  0  0  0  0  0  0  0  0  0  0
   -2.1514    2.1317    0.6909 C   0  0  0  0  0  0  0  0  0  0  0  0
   -3.0867    3.1387    0.3625 C   0  0  0  0  0  0  0  0  0  0  0  0
   -3.9502    3.6880    1.3178 C   0  0  0  0  0  0  0  0  0  0  0  0
   -4.9298    4.7520    0.9214 C   0  0  0  0  0  0  0  0  0  0  0  0
   -3.8667    3.2343    2.6304 C   0  0  0  0  0  0  0  0  0  0  0  0
   -2.9464    2.2401    2.9697 C   0  0  0  0  0  0  0  0  0  0  0  0
   -2.1013    1.6579    2.0066 C   0  0  0  0  0  0  0  0  0  0  0  0
   -1.2713    0.6421    2.4983 N   0  0  0  0  0  0  0  0  0  0  0  0
   -0.6536   -0.3934    1.8629 C   0  0  0  0  0  0  0  0  0  0  0  0
   -0.0119   -1.1681    2.5791 O   0  0  0  0  0  0  0  0  0  0  0  0
   -0.8969   -0.6496    0.3635 C   0  0  0  0  0  0  0  0  0  0  0  0
   -2.3544   -1.0682    0.0988 C   0  0  0  0  0  0  0  0  0  0  0  0
    0.1251   -1.7216   -0.1667 C   0  0  0  0  0  0  0  0  0  0  0  0
   -0.2731   -3.1892   -0.0853 C   0  0  0  0  0  0  0  0  0  0  0  0
   -1.0249   -3.8386   -1.0773 C   0  0  0  0  0  0  0  0  0  0  0  0
   -1.3603   -5.1903   -0.9559 C   0  0  0  0  0  0  0  0  0  0  0  0
   -0.9514   -5.9165    0.1584 C   0  0  0  0  0  0  0  0  0  0  0  0
   -0.2073   -5.2910    1.1531 C   0  0  0  0  0  0  0  0  0  0  0  0
    0.1281   -3.9409    1.0316 C   0  0  0  0  0  0  0  0  0  0  0  0
    6.9888    0.5133   -1.0401 H   0  0  0  0  0  0  0  0  0  0  0  0
    6.7428    1.7233   -2.3601 H   0  0  0  0  0  0  0  0  0  0  0  0
    7.7843    2.0909   -0.9797 H   0  0  0  0  0  0  0  0  0  0  0  0
    3.7414    3.0431    0.6186 H   0  0  0  0  0  0  0  0  0  0  0  0
    1.4084    2.3326    0.3361 H   0  0  0  0  0  0  0  0  0  0  0  0
    4.9975    0.1124   -2.2838 H   0  0  0  0  0  0  0  0  0  0  0  0
    1.5480   -2.5374   -2.8982 H   0  0  0  0  0  0  0  0  0  0  0  0
    2.3326   -2.3477   -1.3478 H   0  0  0  0  0  0  0  0  0  0  0  0
   -0.3488   -1.4585   -2.2867 H   0  0  0  0  0  0  0  0  0  0  0  0
    0.1734    0.7859   -2.3563 H   0  0  0  0  0  0  0  0  0  0  0  0
   -3.1248    3.5212   -0.6586 H   0  0  0  0  0  0  0  0  0  0  0  0
   -5.4808    5.1331    1.7879 H   0  0  0  0  0  0  0  0  0  0  0  0
   -4.4061    5.5966    0.4612 H   0  0  0  0  0  0  0  0  0  0  0  0
   -5.6567    4.3471    0.2096 H   0  0  0  0  0  0  0  0  0  0  0  0
   -4.5145    3.6468    3.4012 H   0  0  0  0  0  0  0  0  0  0  0  0
   -2.9191    1.9048    4.0053 H   0  0  0  0  0  0  0  0  0  0  0  0
   -1.1712    0.5635    3.5045 H   0  0  0  0  0  0  0  0  0  0  0  0
   -2.5276   -1.2525   -0.9669 H   0  0  0  0  0  0  0  0  0  0  0  0
   -3.0854   -0.3152    0.4010 H   0  0  0  0  0  0  0  0  0  0  0  0
   -2.6153   -1.9722    0.6598 H   0  0  0  0  0  0  0  0  0  0  0  0
    1.0564   -1.6215    0.4135 H   0  0  0  0  0  0  0  0  0  0  0  0
   -1.3765   -3.3113   -1.9597 H   0  0  0  0  0  0  0  0  0  0  0  0
   -1.9447   -5.6760   -1.7336 H   0  0  0  0  0  0  0  0  0  0  0  0
   -1.2125   -6.9670    0.2522 H   0  0  0  0  0  0  0  0  0  0  0  0
    0.1148   -5.8513    2.0272 H   0  0  0  0  0  0  0  0  0  0  0  0
    0.7137   -3.4795    1.8262 H   0  0  0  0  0  0  0  0  0  0  0  0
  1  2  1  0
  2  3  1  0
  3  4  2  0
  4  5  1  0
  5  6  2  0
  6  7  1  0
  7  8  2  0
  7  9  1  0
  9 10  1  0
 10 11  1  0
 11 12  1  0
 12 13  1  0
 13 14  1  0
 14 15  2  0
 14 16  1  0
 16 17  2  0
 17 18  1  0
 18 19  1  0
 18 20  2  0
 20 21  1  0
 21 22  2  0
 22 23  1  0
 23 24  1  0
 24 25  2  0
 24 26  1  0
 26 27  1  0
 26 28  1  0
 28 29  1  0
 29 30  2  0
 30 31  1  0
 31 32  2  0
 32 33  1  0
 33 34  2  0
  8  3  1  0
 28 11  1  0
 34 29  1  0
 12  6  1  0
 26 13  1  0
 22 16  1  0
  1 35  1  0
  1 36  1  0
  1 37  1  0
  4 38  1  0
  5 39  1  0
  8 40  1  0
 10 41  1  0
 10 42  1  0
 11 43  1  0
 12 44  1  0
 17 45  1  0
 19 46  1  0
 19 47  1  0
 19 48  1  0
 20 49  1  0
 21 50  1  0
 23 51  1  0
 27 52  1  0
 27 53  1  0
 27 54  1  0
 28 55  1  0
 30 56  1  0
 31 57  1  0
 32 58  1  0
 33 59  1  0
 34 60  1  0
M  END
$$$$
