
     RDKit          3D

 57 61  0  0  0  0  0  0  0  0999 V2000
   -3.7919   -1.9336   -3.4751 C   0  0  0  0  0  0  0  0  0  0  0  0
   -3.9946   -2.3364   -2.0150 C   0  0  0  0  0  0  0  0  0  0  0  0
   -5.3310   -3.0662   -1.8605 C   0  0  0  0  0  0  0  0  0  0  0  0
   -3.9498   -1.0949   -1.1218 C   0  0  0  0  0  0  0  0  0  0  0  0
   -4.9938   -0.5494   -0.7558 O   0  0  0  0  0  0  0  0  0  0  0  0
   -2.7058   -0.5770   -0.7682 N   0  0  0  0  0  0  0  0  0  0  0  0
   -1.4111   -1.1752   -1.0797 C   0  0  0  0  0  0  0  0  0  0  0  0
   -0.3529   -0.1152   -1.3732 C   0  0  0  0  0  0  0  0  0  0  0  0
   -0.2010    0.9535   -0.2468 C   0  0  0  0  0  0  0  0  0  0  0  0
   -1.3618    0.8346    0.7718 C   0  0  0  0  0  0  0  0  0  0  0  0
   -2.6976    0.6207    0.0676 C   0  0  0  0  0  0  0  0  0  0  0  0
   -0.3581    2.2159   -0.9572 O   0  0  0  0  0  0  0  0  0  0  0  0
    0.1117    3.3501   -0.3634 C   0  0  0  0  0  0  0  0  0  0  0  0
   -0.2793    4.5554   -0.9489 C   0  0  0  0  0  0  0  0  0  0  0  0
    0.1322    5.7679   -0.3925 C   0  0  0  0  0  0  0  0  0  0  0  0
    0.9338    5.7662    0.7450 C   0  0  0  0  0  0  0  0  0  0  0  0
    1.3214    6.9316    1.2781 F   0  0  0  0  0  0  0  0  0  0  0  0
    1.3395    4.5758    1.3332 C   0  0  0  0  0  0  0  0  0  0  0  0
    0.9315    3.3682    0.7621 C   0  0  0  0  0  0  0  0  0  0  0  0
    1.3545    2.0869    1.3410 C   0  0  0  0  0  0  0  0  0  0  0  0
    1.7895    2.0469    2.4885 O   0  0  0  0  0  0  0  0  0  0  0  0
    1.1932    0.8703    0.4385 C   0  0  0  0  0  0  0  0  0  0  0  0
    1.4665   -0.4234    1.1903 C   0  0  0  0  0  0  0  0  0  0  0  0
    2.9056   -0.5948    0.8387 C   0  0  0  0  0  0  0  0  0  0  0  0
    3.7774   -1.5683    1.5375 C   0  0  0  0  0  0  0  0  0  0  0  0
    3.2779   -2.4226    2.5272 C   0  0  0  0  0  0  0  0  0  0  0  0
    4.1291   -3.3321    3.1611 C   0  0  0  0  0  0  0  0  0  0  0  0
    5.4770   -3.3932    2.8097 C   0  0  0  0  0  0  0  0  0  0  0  0
    5.9790   -2.5459    1.8240 C   0  0  0  0  0  0  0  0  0  0  0  0
    5.1323   -1.6358    1.1885 C   0  0  0  0  0  0  0  0  0  0  0  0
    3.3129    0.1418   -0.1459 N   0  0  0  0  0  0  0  0  0  0  0  0
    2.2284    0.9463   -0.5572 O   0  0  0  0  0  0  0  0  0  0  0  0
   -4.6029   -1.2809   -3.8182 H   0  0  0  0  0  0  0  0  0  0  0  0
   -2.8574   -1.3853   -3.6254 H   0  0  0  0  0  0  0  0  0  0  0  0
   -3.7719   -2.8172   -4.1216 H   0  0  0  0  0  0  0  0  0  0  0  0
   -3.2133   -3.0360   -1.7006 H   0  0  0  0  0  0  0  0  0  0  0  0
   -5.5070   -3.3349   -0.8131 H   0  0  0  0  0  0  0  0  0  0  0  0
   -5.3401   -3.9878   -2.4520 H   0  0  0  0  0  0  0  0  0  0  0  0
   -6.1718   -2.4453   -2.1893 H   0  0  0  0  0  0  0  0  0  0  0  0
   -1.1243   -1.7870   -0.2171 H   0  0  0  0  0  0  0  0  0  0  0  0
   -1.4761   -1.8520   -1.9327 H   0  0  0  0  0  0  0  0  0  0  0  0
   -0.6218    0.3758   -2.3188 H   0  0  0  0  0  0  0  0  0  0  0  0
    0.5951   -0.6277   -1.5714 H   0  0  0  0  0  0  0  0  0  0  0  0
   -1.1881   -0.0021    1.4590 H   0  0  0  0  0  0  0  0  0  0  0  0
   -1.4443    1.7388    1.3854 H   0  0  0  0  0  0  0  0  0  0  0  0
   -2.9405    1.4724   -0.5789 H   0  0  0  0  0  0  0  0  0  0  0  0
   -3.4933    0.5456    0.8179 H   0  0  0  0  0  0  0  0  0  0  0  0
   -0.9104    4.5516   -1.8346 H   0  0  0  0  0  0  0  0  0  0  0  0
   -0.1684    6.7121   -0.8367 H   0  0  0  0  0  0  0  0  0  0  0  0
    1.9724    4.5976    2.2154 H   0  0  0  0  0  0  0  0  0  0  0  0
    0.9225   -1.2812    0.7869 H   0  0  0  0  0  0  0  0  0  0  0  0
    1.2951   -0.3597    2.2669 H   0  0  0  0  0  0  0  0  0  0  0  0
    2.2344   -2.4024    2.8251 H   0  0  0  0  0  0  0  0  0  0  0  0
    3.7414   -3.9934    3.9324 H   0  0  0  0  0  0  0  0  0  0  0  0
    6.1376   -4.1002    3.3058 H   0  0  0  0  0  0  0  0  0  0  0  0
    7.0302   -2.5904    1.5497 H   0  0  0  0  0  0  0  0  0  0  0  0
    5.5388   -0.9786    0.4221 H   0  0  0  0  0  0  0  0  0  0  0  0
  1  2  1  0
  2  3  1  0
  2  4  1  0
  4  5  2  0
  4  6  1  0
  6  7  1  0
  7  8  1  0
  8  9  1  0
  9 10  1  0
 10 11  1  0
  9 12  1  0
 12 13  1  0
 13 14  2  0
 14 15  1  0
 15 16  2  0
 16 17  1  0
 16 18  1  0
 18 19  2  0
 19 20  1  0
 20 21  2  0
 20 22  1  0
 22 23  1  0
 23 24  1  0
 24 25  1  0
 25 26  2  0
 26 27  1  0
 27 28  2  0
 28 29  1  0
 29 30  2  0
 24 31  2  0
 31 32  1  0
 11  6  1  0
 19 13  1  0
 32 22  1  0
 22  9  1  0
 30 25  1  0
  1 33  1  0
  1 34  1  0
  1 35  1  0
  2 36  1  0
  3 37  1  0
  3 38  1  0
  3 39  1  0
  7 40  1  0
  7 41  1  0
  8 42  1  0
  8 43  1  0
 10 44  1  0
 10 45  1  0
 11 46  1  0
 11 47  1  0
 14 48  1  0
 15 49  1  0
 18 50  1  0
 23 51  1  0
 23 52  1  0
 26 53  1  0
 27 54  1  0
 28 55  1  0
 29 56  1  0
 30 57  1  0
M  END
$$$$
