
     RDKit          3D

 41 43  0  0  0  0  0  0  0  0999 V2000
   -3.0063   -2.2321    2.2036 C   0  0  0  0  0  0  0  0  0  0  0  0
   -2.9388   -0.9029    1.5123 C   0  0  0  0  0  0  0  0  0  0  0  0
   -3.0288    0.2832    2.2422 C   0  0  0  0  0  0  0  0  0  0  0  0
   -2.9327    1.5210    1.6013 C   0  0  0  0  0  0  0  0  0  0  0  0
   -2.7198    1.6100    0.2158 C   0  0  0  0  0  0  0  0  0  0  0  0
   -2.6454    2.9770   -0.4021 C   0  0  0  0  0  0  0  0  0  0  0  0
   -2.6153    0.4113   -0.5149 C   0  0  0  0  0  0  0  0  0  0  0  0
   -2.3326    0.3890   -2.2831 S   0  0  0  0  0  6  0  0  0  0  0  0
   -3.0225    1.5155   -2.8740 O   0  0  0  0  0  0  0  0  0  0  0  0
   -2.5742   -0.9544   -2.7662 O   0  0  0  0  0  0  0  0  0  0  0  0
   -0.6761    0.7209   -2.4083 N   0  0  0  0  0  0  0  0  0  0  0  0
    0.2383   -0.0667   -1.6538 C   0  0  0  0  0  0  0  0  0  0  0  0
    0.4200   -1.4169   -1.9456 C   0  0  0  0  0  0  0  0  0  0  0  0
    1.2771   -2.1862   -1.1604 C   0  0  0  0  0  0  0  0  0  0  0  0
    1.9496   -1.6031   -0.0879 C   0  0  0  0  0  0  0  0  0  0  0  0
    2.7725   -2.4326    0.6236 O   0  0  0  0  0  0  0  0  0  0  0  0
    1.7710   -0.2477    0.2238 C   0  0  0  0  0  0  0  0  0  0  0  0
    2.5083    0.5476    1.6431 S   0  0  0  0  0  0  0  0  0  0  0  0
    4.2026    0.4826    1.2553 C   0  0  0  0  0  0  0  0  0  0  0  0
    4.9510    1.5821    0.9478 N   0  0  0  0  0  0  0  0  0  0  0  0
    6.1466    1.0796    0.7488 C   0  0  0  0  0  0  0  0  0  0  0  0
    6.1109   -0.2658    0.9357 N   0  0  0  0  0  0  0  0  0  0  0  0
    4.8723   -0.6771    1.2641 N   0  0  0  0  0  0  0  0  0  0  0  0
    0.9056    0.5156   -0.5732 C   0  0  0  0  0  0  0  0  0  0  0  0
   -2.7265   -0.8320    0.1322 C   0  0  0  0  0  0  0  0  0  0  0  0
   -3.4394   -2.9928    1.5458 H   0  0  0  0  0  0  0  0  0  0  0  0
   -2.0025   -2.5502    2.5000 H   0  0  0  0  0  0  0  0  0  0  0  0
   -3.6385   -2.1774    3.0959 H   0  0  0  0  0  0  0  0  0  0  0  0
   -3.1799    0.2535    3.3192 H   0  0  0  0  0  0  0  0  0  0  0  0
   -3.0240    2.4240    2.2025 H   0  0  0  0  0  0  0  0  0  0  0  0
   -2.5184    3.7514    0.3628 H   0  0  0  0  0  0  0  0  0  0  0  0
   -3.5689    3.1997   -0.9441 H   0  0  0  0  0  0  0  0  0  0  0  0
   -1.7850    3.0649   -1.0709 H   0  0  0  0  0  0  0  0  0  0  0  0
   -0.4963    1.7206   -2.4846 H   0  0  0  0  0  0  0  0  0  0  0  0
   -0.1000   -1.8800   -2.7813 H   0  0  0  0  0  0  0  0  0  0  0  0
    1.4214   -3.2401   -1.3838 H   0  0  0  0  0  0  0  0  0  0  0  0
    3.4208   -1.8754    1.1068 H   0  0  0  0  0  0  0  0  0  0  0  0
    7.0430    1.6209    0.4811 H   0  0  0  0  0  0  0  0  0  0  0  0
    6.8614   -0.9444    0.8588 H   0  0  0  0  0  0  0  0  0  0  0  0
    0.7366    1.5630   -0.3350 H   0  0  0  0  0  0  0  0  0  0  0  0
   -2.6368   -1.7556   -0.4387 H   0  0  0  0  0  0  0  0  0  0  0  0
  1  2  1  0
  2  3  2  0
  3  4  1  0
  4  5  2  0
  5  6  1  0
  5  7  1  0
  7  8  1  0
  8  9  2  0
  8 10  2  0
  8 11  1  0
 11 12  1  0
 12 13  2  0
 13 14  1  0
 14 15  2  0
 15 16  1  0
 15 17  1  0
 17 18  1  0
 18 19  1  0
 19 20  1  0
 20 21  2  0
 21 22  1  0
 22 23  1  0
 17 24  2  0
  7 25  2  0
 25  2  1  0
 24 12  1  0
 23 19  2  0
  1 26  1  0
  1 27  1  0
  1 28  1  0
  3 29  1  0
  4 30  1  0
  6 31  1  0
  6 32  1  0
  6 33  1  0
 11 34  1  0
 13 35  1  0
 14 36  1  0
 16 37  1  0
 21 38  1  0
 22 39  1  0
 24 40  1  0
 25 41  1  0
M  END
$$$$
