
     RDKit          3D

 64 67  0  0  0  0  0  0  0  0999 V2000
    8.2761   -3.1531    0.4401 C   0  0  0  0  0  0  0  0  0  0  0  0
    7.6237   -2.4207   -0.5884 O   0  0  0  0  0  0  0  0  0  0  0  0
    6.5308   -1.6810   -0.2302 C   0  0  0  0  0  0  0  0  0  0  0  0
    5.8489   -1.1007   -1.3001 C   0  0  0  0  0  0  0  0  0  0  0  0
    4.7127   -0.3187   -1.0847 C   0  0  0  0  0  0  0  0  0  0  0  0
    4.2453   -0.1096    0.2112 C   0  0  0  0  0  0  0  0  0  0  0  0
    3.1031    0.6615    0.5153 N   0  0  0  0  0  0  0  0  0  0  0  0
    2.1858    1.2132   -0.3533 C   0  0  0  0  0  0  0  0  0  0  0  0
    2.2238    1.1586   -1.5804 O   0  0  0  0  0  0  0  0  0  0  0  0
    1.1028    2.0314    0.3325 C   0  0  0  0  0  0  0  0  0  0  0  0
    0.3203    1.2029    1.7479 S   0  0  0  0  0  0  0  0  0  0  0  0
   -0.3271   -0.1907    0.9641 C   0  0  0  0  0  0  0  0  0  0  0  0
    0.3822   -1.2085    0.5452 N   0  0  0  0  0  0  0  0  0  0  0  0
   -0.4772   -2.1018   -0.0355 N   0  0  0  0  0  0  0  0  0  0  0  0
   -1.6999   -1.6098    0.0376 C   0  0  0  0  0  0  0  0  0  0  0  0
   -2.9174   -2.2690   -0.5185 C   0  0  0  0  0  0  0  0  0  0  0  0
   -3.5138   -1.5427   -1.6893 C   0  0  0  0  0  0  0  0  0  0  0  0
   -4.8016   -1.0562   -1.8424 C   0  0  0  0  0  0  0  0  0  0  0  0
   -4.8925   -0.4588   -3.1196 C   0  0  0  0  0  0  0  0  0  0  0  0
   -3.6655   -0.5987   -3.7233 C   0  0  0  0  0  0  0  0  0  0  0  0
   -2.8364   -1.2722   -2.8629 N   0  0  0  0  0  0  0  0  0  0  0  0
   -1.4646   -1.6260   -3.1768 C   0  0  0  0  0  0  0  0  0  0  0  0
   -1.6521   -0.3965    0.6915 N   0  0  0  0  0  0  0  0  0  0  0  0
   -2.7715    0.4499    1.0518 C   0  0  0  0  0  0  0  0  0  0  0  0
   -2.9302    1.6676    0.1383 C   0  0  0  0  0  0  0  0  0  0  0  0
   -4.1106    2.5151    0.5428 C   0  0  0  0  0  0  0  0  0  0  0  0
   -4.0573    3.3066    1.6990 C   0  0  0  0  0  0  0  0  0  0  0  0
   -5.1560    4.0793    2.0794 C   0  0  0  0  0  0  0  0  0  0  0  0
   -6.3161    4.0700    1.3083 C   0  0  0  0  0  0  0  0  0  0  0  0
   -6.3778    3.2891    0.1559 C   0  0  0  0  0  0  0  0  0  0  0  0
   -5.2805    2.5151   -0.2260 C   0  0  0  0  0  0  0  0  0  0  0  0
    4.9333   -0.6881    1.2985 C   0  0  0  0  0  0  0  0  0  0  0  0
    4.4059   -0.4084    2.5411 O   0  0  0  0  0  0  0  0  0  0  0  0
    4.8989   -1.1699    3.6358 C   0  0  0  0  0  0  0  0  0  0  0  0
    6.0757   -1.4672    1.0726 C   0  0  0  0  0  0  0  0  0  0  0  0
    7.5886   -3.8556    0.9228 H   0  0  0  0  0  0  0  0  0  0  0  0
    8.7353   -2.4807    1.1715 H   0  0  0  0  0  0  0  0  0  0  0  0
    9.0784   -3.7371   -0.0247 H   0  0  0  0  0  0  0  0  0  0  0  0
    6.2007   -1.2614   -2.3168 H   0  0  0  0  0  0  0  0  0  0  0  0
    4.2161    0.1098   -1.9482 H   0  0  0  0  0  0  0  0  0  0  0  0
    2.8704    0.6698    1.5055 H   0  0  0  0  0  0  0  0  0  0  0  0
    1.5505    2.9690    0.6774 H   0  0  0  0  0  0  0  0  0  0  0  0
    0.3305    2.2802   -0.4021 H   0  0  0  0  0  0  0  0  0  0  0  0
   -3.6661   -2.3786    0.2766 H   0  0  0  0  0  0  0  0  0  0  0  0
   -2.6612   -3.2897   -0.8326 H   0  0  0  0  0  0  0  0  0  0  0  0
   -5.5942   -1.1249   -1.1072 H   0  0  0  0  0  0  0  0  0  0  0  0
   -5.7613    0.0173   -3.5538 H   0  0  0  0  0  0  0  0  0  0  0  0
   -3.3193   -0.2831   -4.6985 H   0  0  0  0  0  0  0  0  0  0  0  0
   -0.8028   -0.9359   -2.6497 H   0  0  0  0  0  0  0  0  0  0  0  0
   -1.2838   -2.6599   -2.8773 H   0  0  0  0  0  0  0  0  0  0  0  0
   -1.3084   -1.5289   -4.2531 H   0  0  0  0  0  0  0  0  0  0  0  0
   -3.6822   -0.1597    1.0434 H   0  0  0  0  0  0  0  0  0  0  0  0
   -2.6263    0.7507    2.0967 H   0  0  0  0  0  0  0  0  0  0  0  0
   -2.0354    2.3000    0.1588 H   0  0  0  0  0  0  0  0  0  0  0  0
   -3.0313    1.3512   -0.9063 H   0  0  0  0  0  0  0  0  0  0  0  0
   -3.1574    3.3314    2.3097 H   0  0  0  0  0  0  0  0  0  0  0  0
   -5.1065    4.6917    2.9765 H   0  0  0  0  0  0  0  0  0  0  0  0
   -7.1708    4.6741    1.6009 H   0  0  0  0  0  0  0  0  0  0  0  0
   -7.2811    3.2858   -0.4480 H   0  0  0  0  0  0  0  0  0  0  0  0
   -5.3423    1.9170   -1.1326 H   0  0  0  0  0  0  0  0  0  0  0  0
    4.2917   -0.9250    4.5126 H   0  0  0  0  0  0  0  0  0  0  0  0
    5.9339   -0.8984    3.8624 H   0  0  0  0  0  0  0  0  0  0  0  0
    4.8010   -2.2446    3.4516 H   0  0  0  0  0  0  0  0  0  0  0  0
    6.6122   -1.8963    1.9070 H   0  0  0  0  0  0  0  0  0  0  0  0
  1  2  1  0
  2  3  1  0
  3  4  2  0
  4  5  1  0
  5  6  2  0
  6  7  1  0
  7  8  1  0
  8  9  2  0
  8 10  1  0
 10 11  1  0
 11 12  1  0
 12 13  2  0
 13 14  1  0
 14 15  2  0
 15 16  1  0
 16 17  1  0
 17 18  2  0
 18 19  1  0
 19 20  2  0
 20 21  1  0
 21 22  1  0
 15 23  1  0
 23 24  1  0
 24 25  1  0
 25 26  1  0
 26 27  2  0
 27 28  1  0
 28 29  2  0
 29 30  1  0
 30 31  2  0
  6 32  1  0
 32 33  1  0
 33 34  1  0
 32 35  2  0
 35  3  1  0
 23 12  1  0
 31 26  1  0
 21 17  1  0
  1 36  1  0
  1 37  1  0
  1 38  1  0
  4 39  1  0
  5 40  1  0
  7 41  1  0
 10 42  1  0
 10 43  1  0
 16 44  1  0
 16 45  1  0
 18 46  1  0
 19 47  1  0
 20 48  1  0
 22 49  1  0
 22 50  1  0
 22 51  1  0
 24 52  1  0
 24 53  1  0
 25 54  1  0
 25 55  1  0
 27 56  1  0
 28 57  1  0
 29 58  1  0
 30 59  1  0
 31 60  1  0
 34 61  1  0
 34 62  1  0
 34 63  1  0
 35 64  1  0
M  END
$$$$
