
     RDKit          3D

 60 63  0  0  0  0  0  0  0  0999 V2000
    7.7934   -3.4788   -2.5935 C   0  0  0  0  0  0  0  0  0  0  0  0
    7.2097   -3.5597   -1.2975 O   0  0  0  0  0  0  0  0  0  0  0  0
    6.4599   -2.4909   -0.8905 C   0  0  0  0  0  0  0  0  0  0  0  0
    6.1065   -2.5057    0.4611 C   0  0  0  0  0  0  0  0  0  0  0  0
    5.3692   -1.4566    1.0174 C   0  0  0  0  0  0  0  0  0  0  0  0
    4.9542   -0.3793    0.2224 C   0  0  0  0  0  0  0  0  0  0  0  0
    4.2309    0.7843    0.8440 C   0  0  0  0  0  0  0  0  0  0  0  0
    3.0610    0.3560    1.5752 N   0  0  0  0  0  0  0  0  0  0  0  0
    2.5306    1.1488    2.5734 C   0  0  0  0  0  0  0  0  0  0  0  0
    3.0676    2.1916    2.9570 O   0  0  0  0  0  0  0  0  0  0  0  0
    1.1912    0.6369    3.1332 C   0  0  0  0  0  0  0  0  0  0  0  0
    0.8469    1.2969    4.4682 C   0  0  0  0  0  0  0  0  0  0  0  0
    0.1357    0.8853    2.1416 N   0  0  0  0  0  0  0  0  0  0  0  0
   -0.0998    2.2330    1.8290 N   0  0  0  0  0  0  0  0  0  0  0  0
   -1.1091    2.5924    1.0866 C   0  0  0  0  0  0  0  0  0  0  0  0
   -1.2867    4.0523    0.7855 C   0  0  0  0  0  0  0  0  0  0  0  0
   -2.0188    1.5825    0.5999 C   0  0  0  0  0  0  0  0  0  0  0  0
   -3.2463    1.6236   -0.0412 C   0  0  0  0  0  0  0  0  0  0  0  0
   -4.1252    2.7855   -0.3289 C   0  0  0  0  0  0  0  0  0  0  0  0
   -3.5748    0.2875   -0.3041 N   0  0  0  0  0  0  0  0  0  0  0  0
   -4.6268   -0.2679   -1.1024 C   0  0  0  0  0  0  0  0  0  0  0  0
   -4.9412   -1.6280   -0.9589 C   0  0  0  0  0  0  0  0  0  0  0  0
   -5.9456   -2.2147   -1.7346 C   0  0  0  0  0  0  0  0  0  0  0  0
   -6.6546   -1.4569   -2.6731 C   0  0  0  0  0  0  0  0  0  0  0  0
   -7.7173   -2.0970   -3.5174 C   0  0  0  0  0  0  0  0  0  0  0  0
   -6.3191   -0.1126   -2.8449 C   0  0  0  0  0  0  0  0  0  0  0  0
   -5.3132    0.4784   -2.0674 C   0  0  0  0  0  0  0  0  0  0  0  0
   -2.7211   -0.5570    0.3424 N   0  0  0  0  0  0  0  0  0  0  0  0
   -1.7622    0.2278    0.8431 C   0  0  0  0  0  0  0  0  0  0  0  0
   -0.6121   -0.1990    1.6359 C   0  0  0  0  0  0  0  0  0  0  0  0
   -0.3340   -1.3748    1.8617 O   0  0  0  0  0  0  0  0  0  0  0  0
    5.2950   -0.3786   -1.1388 C   0  0  0  0  0  0  0  0  0  0  0  0
    6.0410   -1.4289   -1.6928 C   0  0  0  0  0  0  0  0  0  0  0  0
    7.0298   -3.6005   -3.3739 H   0  0  0  0  0  0  0  0  0  0  0  0
    8.5018   -4.3070   -2.6932 H   0  0  0  0  0  0  0  0  0  0  0  0
    8.3567   -2.5437   -2.7321 H   0  0  0  0  0  0  0  0  0  0  0  0
    6.4260   -3.3296    1.0978 H   0  0  0  0  0  0  0  0  0  0  0  0
    5.1331   -1.4830    2.0819 H   0  0  0  0  0  0  0  0  0  0  0  0
    4.9158    1.3286    1.5006 H   0  0  0  0  0  0  0  0  0  0  0  0
    3.8824    1.4839    0.0767 H   0  0  0  0  0  0  0  0  0  0  0  0
    2.4967   -0.3852    1.1695 H   0  0  0  0  0  0  0  0  0  0  0  0
    1.2906   -0.4400    3.3112 H   0  0  0  0  0  0  0  0  0  0  0  0
    0.7766    2.3864    4.3701 H   0  0  0  0  0  0  0  0  0  0  0  0
    1.6190    1.0828    5.2155 H   0  0  0  0  0  0  0  0  0  0  0  0
   -0.1120    0.9235    4.8478 H   0  0  0  0  0  0  0  0  0  0  0  0
   -1.5408    4.1929   -0.2685 H   0  0  0  0  0  0  0  0  0  0  0  0
   -2.0831    4.4545    1.4129 H   0  0  0  0  0  0  0  0  0  0  0  0
   -0.3628    4.5987    0.9991 H   0  0  0  0  0  0  0  0  0  0  0  0
   -3.9538    3.5901    0.3949 H   0  0  0  0  0  0  0  0  0  0  0  0
   -3.9278    3.1860   -1.3285 H   0  0  0  0  0  0  0  0  0  0  0  0
   -5.1898    2.5350   -0.2325 H   0  0  0  0  0  0  0  0  0  0  0  0
   -4.4061   -2.2542   -0.2440 H   0  0  0  0  0  0  0  0  0  0  0  0
   -6.1558   -3.2729   -1.6123 H   0  0  0  0  0  0  0  0  0  0  0  0
   -8.4242   -2.6452   -2.8867 H   0  0  0  0  0  0  0  0  0  0  0  0
   -8.2922   -1.3448   -4.0715 H   0  0  0  0  0  0  0  0  0  0  0  0
   -7.2639   -2.7865   -4.2354 H   0  0  0  0  0  0  0  0  0  0  0  0
   -6.8196    0.4835   -3.6039 H   0  0  0  0  0  0  0  0  0  0  0  0
   -5.0635    1.5078   -2.2935 H   0  0  0  0  0  0  0  0  0  0  0  0
    4.9950    0.4467   -1.7817 H   0  0  0  0  0  0  0  0  0  0  0  0
    6.2872   -1.3844   -2.7495 H   0  0  0  0  0  0  0  0  0  0  0  0
  1  2  1  0
  2  3  1  0
  3  4  2  0
  4  5  1  0
  5  6  2  0
  6  7  1  0
  7  8  1  0
  8  9  1  0
  9 10  2  0
  9 11  1  0
 11 12  1  0
 11 13  1  0
 13 14  1  0
 14 15  2  0
 15 16  1  0
 15 17  1  0
 17 18  2  0
 18 19  1  0
 18 20  1  0
 20 21  1  0
 21 22  2  0
 22 23  1  0
 23 24  2  0
 24 25  1  0
 24 26  1  0
 26 27  2  0
 20 28  1  0
 28 29  2  0
 29 30  1  0
 30 31  2  0
  6 32  1  0
 32 33  2  0
 33  3  1  0
 30 13  1  0
 29 17  1  0
 27 21  1  0
  1 34  1  0
  1 35  1  0
  1 36  1  0
  4 37  1  0
  5 38  1  0
  7 39  1  0
  7 40  1  0
  8 41  1  0
 11 42  1  0
 12 43  1  0
 12 44  1  0
 12 45  1  0
 16 46  1  0
 16 47  1  0
 16 48  1  0
 19 49  1  0
 19 50  1  0
 19 51  1  0
 22 52  1  0
 23 53  1  0
 25 54  1  0
 25 55  1  0
 25 56  1  0
 26 57  1  0
 27 58  1  0
 32 59  1  0
 33 60  1  0
M  END
$$$$
