
     RDKit          3D

 39 42  0  0  0  0  0  0  0  0999 V2000
   -7.8308   -1.3050    1.0961 O   0  0  0  0  0  0  0  0  0  0  0  0
   -7.2601   -1.3144    0.0196 C   0  0  0  0  0  0  0  0  0  0  0  0
   -7.9315   -1.5923   -1.1142 O   0  0  0  0  0  0  0  0  0  0  0  0
   -5.8078   -1.0454   -0.2396 C   0  0  0  0  0  0  0  0  0  0  0  0
   -5.0876   -0.7202    1.0653 C   0  0  0  0  0  0  0  0  0  0  0  0
   -3.6627   -0.4522    0.8477 N   0  0  0  0  0  0  0  0  0  0  0  0
   -3.2767    0.8285    0.4932 C   0  0  0  0  0  0  0  0  0  0  0  0
   -4.0279    1.7814    0.3310 O   0  0  0  0  0  0  0  0  0  0  0  0
   -1.8024    0.8990    0.3044 C   0  0  0  0  0  0  0  0  0  0  0  0
   -1.2241    2.0637   -0.0187 C   0  0  0  0  0  0  0  0  0  0  0  0
    0.1678    2.2725   -0.2321 C   0  0  0  0  0  0  0  0  0  0  0  0
    0.8084    3.4616   -0.5525 C   0  0  0  0  0  0  0  0  0  0  0  0
    2.1934    3.1930   -0.6694 C   0  0  0  0  0  0  0  0  0  0  0  0
    2.3697    1.8441   -0.4178 C   0  0  0  0  0  0  0  0  0  0  0  0
    3.5722    1.0499   -0.4051 C   0  0  0  0  0  0  0  0  0  0  0  0
    3.5540   -0.2359   -0.1265 N   0  0  0  0  0  0  0  0  0  0  0  0
    4.8347   -0.7554   -0.1817 C   0  0  0  0  0  0  0  0  0  0  0  0
    5.1937   -2.0966    0.0610 C   0  0  0  0  0  0  0  0  0  0  0  0
    6.5341   -2.4857   -0.0299 C   0  0  0  0  0  0  0  0  0  0  0  0
    7.5163   -1.5568   -0.3591 C   0  0  0  0  0  0  0  0  0  0  0  0
    7.1860   -0.2202   -0.6049 C   0  0  0  0  0  0  0  0  0  0  0  0
    5.8365    0.1589   -0.5100 C   0  0  0  0  0  0  0  0  0  0  0  0
    5.1218    1.7057   -0.7500 S   0  0  0  0  0  0  0  0  0  0  0  0
    1.1367    1.3043   -0.1559 O   0  0  0  0  0  0  0  0  0  0  0  0
   -1.1139   -0.6517    0.5577 S   0  0  0  0  0  0  0  0  0  0  0  0
   -2.6641   -1.4019    0.9023 C   0  0  0  0  0  0  0  0  0  0  0  0
   -2.8131   -3.0311    1.2280 S   0  0  0  0  0  0  0  0  0  0  0  0
   -8.8545   -1.7491   -0.8220 H   0  0  0  0  0  0  0  0  0  0  0  0
   -5.3671   -1.9312   -0.7091 H   0  0  0  0  0  0  0  0  0  0  0  0
   -5.7278   -0.2040   -0.9364 H   0  0  0  0  0  0  0  0  0  0  0  0
   -5.2048   -1.5381    1.7843 H   0  0  0  0  0  0  0  0  0  0  0  0
   -5.5410    0.1661    1.5271 H   0  0  0  0  0  0  0  0  0  0  0  0
   -1.8588    2.9410   -0.1324 H   0  0  0  0  0  0  0  0  0  0  0  0
    0.3241    4.4197   -0.6865 H   0  0  0  0  0  0  0  0  0  0  0  0
    2.9694    3.9066   -0.9095 H   0  0  0  0  0  0  0  0  0  0  0  0
    4.4228   -2.8169    0.3174 H   0  0  0  0  0  0  0  0  0  0  0  0
    6.8061   -3.5217    0.1587 H   0  0  0  0  0  0  0  0  0  0  0  0
    8.5553   -1.8731   -0.4265 H   0  0  0  0  0  0  0  0  0  0  0  0
    7.9538    0.5032   -0.8618 H   0  0  0  0  0  0  0  0  0  0  0  0
  1  2  2  0
  2  3  1  0
  2  4  1  0
  4  5  1  0
  5  6  1  0
  6  7  1  0
  7  8  2  0
  7  9  1  0
  9 10  2  3
 10 11  1  0
 11 12  2  0
 12 13  1  0
 13 14  2  0
 14 15  1  0
 15 16  2  0
 16 17  1  0
 17 18  2  0
 18 19  1  0
 19 20  2  0
 20 21  1  0
 21 22  2  0
 22 23  1  0
 14 24  1  0
  9 25  1  0
 25 26  1  0
 26 27  2  0
 26  6  1  0
 24 11  1  0
 23 15  1  0
 22 17  1  0
  3 28  1  0
  4 29  1  0
  4 30  1  0
  5 31  1  0
  5 32  1  0
 10 33  1  0
 12 34  1  0
 13 35  1  0
 18 36  1  0
 19 37  1  0
 20 38  1  0
 21 39  1  0
M  END
$$$$
