
     RDKit          3D

 37 38  0  0  0  0  0  0  0  0999 V2000
   -5.8708   -0.9416   -0.2127 C   0  0  0  0  0  0  0  0  0  0  0  0
   -5.0018   -0.4910   -1.2994 N   0  0  0  0  0  0  0  0  0  0  0  0
   -5.6697    0.2335   -2.3801 C   0  0  0  0  0  0  0  0  0  0  0  0
   -3.6525   -0.2374   -1.0358 C   0  0  0  0  0  0  0  0  0  0  0  0
   -2.8307    0.4587   -1.9386 C   0  0  0  0  0  0  0  0  0  0  0  0
   -1.4695    0.6962   -1.6888 C   0  0  0  0  0  0  0  0  0  0  0  0
   -0.8659    0.2227   -0.5253 C   0  0  0  0  0  0  0  0  0  0  0  0
    0.5557    0.5074   -0.2866 C   0  0  0  0  0  0  0  0  0  0  0  0
    1.4076   -0.3872    0.2405 C   0  0  0  0  0  0  0  0  0  0  0  0
    2.8310   -0.1223    0.4783 C   0  0  0  0  0  0  0  0  0  0  0  0
    3.6137    0.6104   -0.4129 C   0  0  0  0  0  0  0  0  0  0  0  0
    4.9652    0.8027   -0.1486 C   0  0  0  0  0  0  0  0  0  0  0  0
    5.5325    0.2743    0.9584 N   0  0  0  0  0  4  0  0  0  0  0  0
    6.9632    0.5021    1.2231 C   0  0  0  0  0  0  0  0  0  0  0  0
    4.7964   -0.4458    1.8336 C   0  0  0  0  0  0  0  0  0  0  0  0
    3.4419   -0.6647    1.6077 C   0  0  0  0  0  0  0  0  0  0  0  0
   -1.6578   -0.4679    0.3907 C   0  0  0  0  0  0  0  0  0  0  0  0
   -3.0186   -0.6980    0.1309 C   0  0  0  0  0  0  0  0  0  0  0  0
   -5.5428   -1.9095    0.1811 H   0  0  0  0  0  0  0  0  0  0  0  0
   -5.9009   -0.2048    0.5976 H   0  0  0  0  0  0  0  0  0  0  0  0
   -6.8991   -1.0924   -0.5602 H   0  0  0  0  0  0  0  0  0  0  0  0
   -5.6533    1.3137   -2.1978 H   0  0  0  0  0  0  0  0  0  0  0  0
   -5.2064    0.0158   -3.3484 H   0  0  0  0  0  0  0  0  0  0  0  0
   -6.7184   -0.0699   -2.4750 H   0  0  0  0  0  0  0  0  0  0  0  0
   -3.2288    0.8392   -2.8746 H   0  0  0  0  0  0  0  0  0  0  0  0
   -0.8945    1.2452   -2.4306 H   0  0  0  0  0  0  0  0  0  0  0  0
    0.8786    1.5029   -0.5800 H   0  0  0  0  0  0  0  0  0  0  0  0
    1.0534   -1.3778    0.5228 H   0  0  0  0  0  0  0  0  0  0  0  0
    3.1846    1.0276   -1.3218 H   0  0  0  0  0  0  0  0  0  0  0  0
    5.6008    1.3746   -0.8190 H   0  0  0  0  0  0  0  0  0  0  0  0
    7.4941    0.5893    0.2717 H   0  0  0  0  0  0  0  0  0  0  0  0
    7.3640   -0.3462    1.7839 H   0  0  0  0  0  0  0  0  0  0  0  0
    7.0456    1.4255    1.8017 H   0  0  0  0  0  0  0  0  0  0  0  0
    5.2990   -0.8428    2.7112 H   0  0  0  0  0  0  0  0  0  0  0  0
    2.8674   -1.2506    2.3233 H   0  0  0  0  0  0  0  0  0  0  0  0
   -1.2421   -0.8355    1.3249 H   0  0  0  0  0  0  0  0  0  0  0  0
   -3.5713   -1.2560    0.8809 H   0  0  0  0  0  0  0  0  0  0  0  0
  1  2  1  0
  2  3  1  0
  2  4  1  0
  4  5  2  0
  5  6  1  0
  6  7  2  0
  7  8  1  0
  8  9  2  3
  9 10  1  0
 10 11  2  0
 11 12  1  0
 12 13  2  0
 13 14  1  0
 13 15  1  0
 15 16  2  0
  7 17  1  0
 17 18  2  0
 18  4  1  0
 16 10  1  0
  1 19  1  0
  1 20  1  0
  1 21  1  0
  3 22  1  0
  3 23  1  0
  3 24  1  0
  5 25  1  0
  6 26  1  0
  8 27  1  0
  9 28  1  0
 11 29  1  0
 12 30  1  0
 14 31  1  0
 14 32  1  0
 14 33  1  0
 15 34  1  0
 16 35  1  0
 17 36  1  0
 18 37  1  0
M  CHG  1  13   1
M  END
$$$$
