
     RDKit          3D

 58 60  0  0  0  0  0  0  0  0999 V2000
    4.7549    1.1152   -4.3415 C   0  0  0  0  0  0  0  0  0  0  0  0
    4.7383    0.1260   -3.2133 C   0  0  0  0  0  0  0  0  0  0  0  0
    3.5227   -0.3714   -2.7305 C   0  0  0  0  0  0  0  0  0  0  0  0
    3.4996   -1.2786   -1.6691 C   0  0  0  0  0  0  0  0  0  0  0  0
    4.6918   -1.6969   -1.0658 C   0  0  0  0  0  0  0  0  0  0  0  0
    4.6643   -2.6624    0.0964 C   0  0  0  0  0  0  0  0  0  0  0  0
    4.8077   -1.9585    1.4508 C   0  0  0  0  0  0  0  0  0  0  0  0
    3.7139   -1.0453    1.7342 N   0  0  0  0  0  0  0  0  0  0  0  0
    2.4913   -1.5023    2.1758 C   0  0  0  0  0  0  0  0  0  0  0  0
    2.2646   -2.6786    2.4387 O   0  0  0  0  0  0  0  0  0  0  0  0
    1.4464   -0.4111    2.2672 C   0  0  0  0  0  0  0  0  0  0  0  0
    0.1733   -0.8855    2.9571 C   0  0  0  0  0  0  0  0  0  0  0  0
   -0.5183   -1.8817    2.1201 N   0  0  0  0  0  0  0  0  0  0  0  0
   -2.1344   -2.2051    2.4503 S   0  0  0  0  0  6  0  0  0  0  0  0
   -2.4174   -1.8419    3.8191 O   0  0  0  0  0  0  0  0  0  0  0  0
   -2.4056   -3.5288    1.9355 O   0  0  0  0  0  0  0  0  0  0  0  0
   -2.9452   -1.0455    1.3767 C   0  0  0  0  0  0  0  0  0  0  0  0
   -3.2413   -1.4094    0.0636 C   0  0  0  0  0  0  0  0  0  0  0  0
   -3.9037   -0.5049   -0.7739 C   0  0  0  0  0  0  0  0  0  0  0  0
   -4.2801    0.7681   -0.3111 C   0  0  0  0  0  0  0  0  0  0  0  0
   -3.9778    1.1069    1.0082 C   0  0  0  0  0  0  0  0  0  0  0  0
   -3.3218    0.2055    1.8613 C   0  0  0  0  0  0  0  0  0  0  0  0
   -4.3508    2.4368    1.5139 C   0  0  0  0  0  0  0  0  0  0  0  0
   -4.0679    2.7311    2.6726 O   0  0  0  0  0  0  0  0  0  0  0  0
   -4.9993    3.2822    0.6285 N   0  0  0  0  0  0  0  0  0  0  0  0
   -5.3956    4.5969    1.1002 C   0  0  0  0  0  0  0  0  0  0  0  0
   -5.3379    2.9615   -0.6812 C   0  0  0  0  0  0  0  0  0  0  0  0
   -5.9445    3.7598   -1.3994 O   0  0  0  0  0  0  0  0  0  0  0  0
   -4.9574    1.7034   -1.1378 N   0  0  0  0  0  0  0  0  0  0  0  0
   -5.2906    1.3430   -2.5106 C   0  0  0  0  0  0  0  0  0  0  0  0
    5.9064   -1.1856   -1.5384 C   0  0  0  0  0  0  0  0  0  0  0  0
    5.9284   -0.2794   -2.6012 C   0  0  0  0  0  0  0  0  0  0  0  0
    4.0155    0.8438   -5.1032 H   0  0  0  0  0  0  0  0  0  0  0  0
    5.7331    1.1389   -4.8327 H   0  0  0  0  0  0  0  0  0  0  0  0
    4.5283    2.1182   -3.9651 H   0  0  0  0  0  0  0  0  0  0  0  0
    2.5846   -0.0594   -3.1850 H   0  0  0  0  0  0  0  0  0  0  0  0
    2.5434   -1.6600   -1.3169 H   0  0  0  0  0  0  0  0  0  0  0  0
    3.7369   -3.2478    0.0667 H   0  0  0  0  0  0  0  0  0  0  0  0
    5.4815   -3.3848   -0.0242 H   0  0  0  0  0  0  0  0  0  0  0  0
    4.8478   -2.7095    2.2476 H   0  0  0  0  0  0  0  0  0  0  0  0
    5.7314   -1.3717    1.4932 H   0  0  0  0  0  0  0  0  0  0  0  0
    3.7653   -0.1235    1.3159 H   0  0  0  0  0  0  0  0  0  0  0  0
    1.8720    0.4235    2.8358 H   0  0  0  0  0  0  0  0  0  0  0  0
    1.2254   -0.0610    1.2526 H   0  0  0  0  0  0  0  0  0  0  0  0
   -0.4746   -0.0178    3.1169 H   0  0  0  0  0  0  0  0  0  0  0  0
    0.4082   -1.3339    3.9284 H   0  0  0  0  0  0  0  0  0  0  0  0
    0.0104   -2.7504    1.9710 H   0  0  0  0  0  0  0  0  0  0  0  0
   -2.9651   -2.3927   -0.3145 H   0  0  0  0  0  0  0  0  0  0  0  0
   -4.1163   -0.8310   -1.7883 H   0  0  0  0  0  0  0  0  0  0  0  0
   -3.1107    0.4823    2.8928 H   0  0  0  0  0  0  0  0  0  0  0  0
   -6.4881    4.6281    1.1642 H   0  0  0  0  0  0  0  0  0  0  0  0
   -4.9751    4.8339    2.0809 H   0  0  0  0  0  0  0  0  0  0  0  0
   -5.0681    5.3572    0.3836 H   0  0  0  0  0  0  0  0  0  0  0  0
   -5.8053    2.1501   -3.0392 H   0  0  0  0  0  0  0  0  0  0  0  0
   -5.9536    0.4721   -2.5062 H   0  0  0  0  0  0  0  0  0  0  0  0
   -4.3710    1.1208   -3.0608 H   0  0  0  0  0  0  0  0  0  0  0  0
    6.8459   -1.4924   -1.0855 H   0  0  0  0  0  0  0  0  0  0  0  0
    6.8840    0.1034   -2.9523 H   0  0  0  0  0  0  0  0  0  0  0  0
  1  2  1  0
  2  3  2  0
  3  4  1  0
  4  5  2  0
  5  6  1  0
  6  7  1  0
  7  8  1  0
  8  9  1  0
  9 10  2  0
  9 11  1  0
 11 12  1  0
 12 13  1  0
 13 14  1  0
 14 15  2  0
 14 16  2  0
 14 17  1  0
 17 18  2  0
 18 19  1  0
 19 20  2  0
 20 21  1  0
 21 22  2  0
 21 23  1  0
 23 24  2  0
 23 25  1  0
 25 26  1  0
 25 27  1  0
 27 28  2  0
 27 29  1  0
 29 30  1  0
  5 31  1  0
 31 32  2  0
 32  2  1  0
 22 17  1  0
 29 20  1  0
  1 33  1  0
  1 34  1  0
  1 35  1  0
  3 36  1  0
  4 37  1  0
  6 38  1  0
  6 39  1  0
  7 40  1  0
  7 41  1  0
  8 42  1  0
 11 43  1  0
 11 44  1  0
 12 45  1  0
 12 46  1  0
 13 47  1  0
 18 48  1  0
 19 49  1  0
 22 50  1  0
 26 51  1  0
 26 52  1  0
 26 53  1  0
 30 54  1  0
 30 55  1  0
 30 56  1  0
 31 57  1  0
 32 58  1  0
M  END
$$$$
