
     RDKit          3D

 40 42  0  0  0  0  0  0  0  0999 V2000
    3.1987   -1.4206   -0.7456 O   0  0  0  0  0  0  0  0  0  0  0  0
    3.0082   -0.4861    0.0224 C   0  0  0  0  0  0  0  0  0  0  0  0
    1.8173   -0.1423    0.6369 N   0  0  0  0  0  0  0  0  0  0  0  0
    0.5565   -0.7503    0.4590 C   0  0  0  0  0  0  0  0  0  0  0  0
   -0.5002   -0.2688    1.2462 C   0  0  0  0  0  0  0  0  0  0  0  0
   -1.7836   -0.8100    1.1302 C   0  0  0  0  0  0  0  0  0  0  0  0
   -2.0155   -1.8344    0.2113 C   0  0  0  0  0  0  0  0  0  0  0  0
   -3.6386   -2.5492    0.0634 S   0  0  0  0  0  6  0  0  0  0  0  0
   -3.4620   -3.9618   -0.2006 O   0  0  0  0  0  0  0  0  0  0  0  0
   -4.4285   -2.0987    1.1911 O   0  0  0  0  0  0  0  0  0  0  0  0
   -4.2481   -1.8646   -1.3464 N   0  0  0  0  0  0  0  0  0  0  0  0
   -4.2622   -0.4603   -1.4132 C   0  0  0  0  0  0  0  0  0  0  0  0
   -5.0618    0.3315   -0.6080 C   0  0  0  0  0  0  0  0  0  0  0  0
   -4.9674    1.7113   -0.7565 C   0  0  0  0  0  0  0  0  0  0  0  0
   -4.0872    2.2352   -1.6982 C   0  0  0  0  0  0  0  0  0  0  0  0
   -3.3368    1.3516   -2.4589 C   0  0  0  0  0  0  0  0  0  0  0  0
   -3.4065    0.0079   -2.3374 N   0  0  0  0  0  0  0  0  0  0  0  0
   -0.9719   -2.3346   -0.5689 C   0  0  0  0  0  0  0  0  0  0  0  0
    0.3091   -1.7850   -0.4474 C   0  0  0  0  0  0  0  0  0  0  0  0
    4.1711    0.3718    0.3847 C   0  0  0  0  0  0  0  0  0  0  0  0
    5.4334   -0.2268    0.4955 C   0  0  0  0  0  0  0  0  0  0  0  0
    6.5485    0.5425    0.8312 C   0  0  0  0  0  0  0  0  0  0  0  0
    6.4085    1.9134    1.0472 C   0  0  0  0  0  0  0  0  0  0  0  0
    5.1546    2.5105    0.9167 C   0  0  0  0  0  0  0  0  0  0  0  0
    4.9729    4.3731    1.1886 Br  0  0  0  0  0  0  0  0  0  0  0  0
    4.0332    1.7513    0.5822 C   0  0  0  0  0  0  0  0  0  0  0  0
    1.8560    0.5808    1.3430 H   0  0  0  0  0  0  0  0  0  0  0  0
   -0.3399    0.5312    1.9647 H   0  0  0  0  0  0  0  0  0  0  0  0
   -2.5878   -0.4281    1.7550 H   0  0  0  0  0  0  0  0  0  0  0  0
   -3.7992   -2.2594   -2.1702 H   0  0  0  0  0  0  0  0  0  0  0  0
   -5.7459   -0.1054    0.1110 H   0  0  0  0  0  0  0  0  0  0  0  0
   -5.5782    2.3705   -0.1459 H   0  0  0  0  0  0  0  0  0  0  0  0
   -3.9923    3.3064   -1.8402 H   0  0  0  0  0  0  0  0  0  0  0  0
   -2.6388    1.7135   -3.2091 H   0  0  0  0  0  0  0  0  0  0  0  0
   -1.1391   -3.1482   -1.2713 H   0  0  0  0  0  0  0  0  0  0  0  0
    1.0951   -2.1918   -1.0768 H   0  0  0  0  0  0  0  0  0  0  0  0
    5.5478   -1.2955    0.3201 H   0  0  0  0  0  0  0  0  0  0  0  0
    7.5255    0.0729    0.9193 H   0  0  0  0  0  0  0  0  0  0  0  0
    7.2823    2.5069    1.3055 H   0  0  0  0  0  0  0  0  0  0  0  0
    3.0726    2.2396    0.4477 H   0  0  0  0  0  0  0  0  0  0  0  0
  1  2  2  0
  2  3  1  0
  3  4  1  0
  4  5  2  0
  5  6  1  0
  6  7  2  0
  7  8  1  0
  8  9  2  0
  8 10  2  0
  8 11  1  0
 11 12  1  0
 12 13  2  0
 13 14  1  0
 14 15  2  0
 15 16  1  0
 16 17  2  0
  7 18  1  0
 18 19  2  0
  2 20  1  0
 20 21  2  0
 21 22  1  0
 22 23  2  0
 23 24  1  0
 24 25  1  0
 24 26  2  0
 19  4  1  0
 26 20  1  0
 17 12  1  0
  3 27  1  0
  5 28  1  0
  6 29  1  0
 11 30  1  0
 13 31  1  0
 14 32  1  0
 15 33  1  0
 16 34  1  0
 18 35  1  0
 19 36  1  0
 21 37  1  0
 22 38  1  0
 23 39  1  0
 26 40  1  0
M  END
$$$$
