
     RDKit          3D

 65 69  0  0  0  0  0  0  0  0999 V2000
   -2.3968   -4.8712    2.9173 C   0  0  0  0  0  0  0  0  0  0  0  0
   -2.5567   -3.5104    2.5379 O   0  0  0  0  0  0  0  0  0  0  0  0
   -3.3242   -3.2624    1.4327 C   0  0  0  0  0  0  0  0  0  0  0  0
   -3.9975   -4.2177    0.6710 C   0  0  0  0  0  0  0  0  0  0  0  0
   -4.7507   -3.8260   -0.4387 C   0  0  0  0  0  0  0  0  0  0  0  0
   -4.8338   -2.4786   -0.7916 C   0  0  0  0  0  0  0  0  0  0  0  0
   -4.1654   -1.5076   -0.0360 C   0  0  0  0  0  0  0  0  0  0  0  0
   -4.2310   -0.0887   -0.4081 C   0  0  0  0  0  0  0  0  0  0  0  0
   -5.7468    0.7026   -0.3327 S   0  0  0  0  0  0  0  0  0  0  0  0
   -5.0895    2.2082   -0.8299 C   0  0  0  0  0  0  0  0  0  0  0  0
   -5.7884    3.4177   -1.0074 C   0  0  0  0  0  0  0  0  0  0  0  0
   -5.0910    4.5571   -1.4251 C   0  0  0  0  0  0  0  0  0  0  0  0
   -3.7252    4.5012   -1.6662 C   0  0  0  0  0  0  0  0  0  0  0  0
   -2.9372    5.5412   -2.0778 O   0  0  0  0  0  0  0  0  0  0  0  0
   -3.5807    6.7899   -2.2985 C   0  0  0  0  0  0  0  0  0  0  0  0
   -3.0428    3.2922   -1.4853 C   0  0  0  0  0  0  0  0  0  0  0  0
   -3.7162    2.1178   -1.0567 C   0  0  0  0  0  0  0  0  0  0  0  0
   -3.2251    0.7797   -0.8057 C   0  0  0  0  0  0  0  0  0  0  0  0
   -1.8390    0.3425   -0.9416 C   0  0  0  0  0  0  0  0  0  0  0  0
   -1.4706   -0.5528   -1.9493 C   0  0  0  0  0  0  0  0  0  0  0  0
   -0.1404   -0.9628   -2.0665 C   0  0  0  0  0  0  0  0  0  0  0  0
    0.8341   -0.4851   -1.1863 C   0  0  0  0  0  0  0  0  0  0  0  0
    2.0929   -0.9693   -1.4127 O   0  0  0  0  0  0  0  0  0  0  0  0
    3.1265   -0.5389   -0.5213 C   0  0  0  0  0  0  0  0  0  0  0  0
    4.4379   -1.2234   -0.9470 C   0  0  0  0  0  0  0  0  0  0  0  0
    5.6346   -0.9437   -0.1428 N   0  0  0  0  0  0  0  0  0  0  0  0
    5.6293   -1.6211    1.1591 C   0  0  0  0  0  0  0  0  0  0  0  0
    6.5669   -0.9785    2.1911 C   0  0  0  0  0  0  0  0  0  0  0  0
    7.8012   -0.3840    1.5281 C   0  0  0  0  0  0  0  0  0  0  0  0
    7.4158    0.6334    0.4508 C   0  0  0  0  0  0  0  0  0  0  0  0
    5.9761    0.4711   -0.0514 C   0  0  0  0  0  0  0  0  0  0  0  0
    0.4678    0.4144   -0.1846 C   0  0  0  0  0  0  0  0  0  0  0  0
   -0.8639    0.8278   -0.0634 C   0  0  0  0  0  0  0  0  0  0  0  0
   -3.4134   -1.9134    1.0752 C   0  0  0  0  0  0  0  0  0  0  0  0
   -1.7461   -4.8988    3.7967 H   0  0  0  0  0  0  0  0  0  0  0  0
   -1.9093   -5.4483    2.1245 H   0  0  0  0  0  0  0  0  0  0  0  0
   -3.3563   -5.3173    3.1993 H   0  0  0  0  0  0  0  0  0  0  0  0
   -3.9580   -5.2744    0.9128 H   0  0  0  0  0  0  0  0  0  0  0  0
   -5.2728   -4.5733   -1.0309 H   0  0  0  0  0  0  0  0  0  0  0  0
   -5.4178   -2.1922   -1.6634 H   0  0  0  0  0  0  0  0  0  0  0  0
   -6.8581    3.4681   -0.8230 H   0  0  0  0  0  0  0  0  0  0  0  0
   -5.6568    5.4743   -1.5523 H   0  0  0  0  0  0  0  0  0  0  0  0
   -4.3320    6.7126   -3.0914 H   0  0  0  0  0  0  0  0  0  0  0  0
   -4.0199    7.1763   -1.3728 H   0  0  0  0  0  0  0  0  0  0  0  0
   -2.8203    7.5040   -2.6292 H   0  0  0  0  0  0  0  0  0  0  0  0
   -1.9734    3.2554   -1.6823 H   0  0  0  0  0  0  0  0  0  0  0  0
   -2.2108   -0.9379   -2.6460 H   0  0  0  0  0  0  0  0  0  0  0  0
    0.1381   -1.6630   -2.8502 H   0  0  0  0  0  0  0  0  0  0  0  0
    3.2380    0.5493   -0.5908 H   0  0  0  0  0  0  0  0  0  0  0  0
    2.8694   -0.8255    0.5041 H   0  0  0  0  0  0  0  0  0  0  0  0
    4.2767   -2.3090   -0.9927 H   0  0  0  0  0  0  0  0  0  0  0  0
    4.6470   -0.9443   -1.9887 H   0  0  0  0  0  0  0  0  0  0  0  0
    4.6275   -1.6559    1.6020 H   0  0  0  0  0  0  0  0  0  0  0  0
    5.9380   -2.6612    0.9983 H   0  0  0  0  0  0  0  0  0  0  0  0
    6.0317   -0.1846    2.7277 H   0  0  0  0  0  0  0  0  0  0  0  0
    6.8613   -1.7240    2.9384 H   0  0  0  0  0  0  0  0  0  0  0  0
    8.3867   -1.1913    1.0700 H   0  0  0  0  0  0  0  0  0  0  0  0
    8.4500    0.0875    2.2746 H   0  0  0  0  0  0  0  0  0  0  0  0
    7.5362    1.6497    0.8453 H   0  0  0  0  0  0  0  0  0  0  0  0
    8.1186    0.5412   -0.3868 H   0  0  0  0  0  0  0  0  0  0  0  0
    5.9027    0.9563   -1.0324 H   0  0  0  0  0  0  0  0  0  0  0  0
    5.2854    0.9996    0.6183 H   0  0  0  0  0  0  0  0  0  0  0  0
    1.1889    0.8139    0.5202 H   0  0  0  0  0  0  0  0  0  0  0  0
   -1.1350    1.5260    0.7255 H   0  0  0  0  0  0  0  0  0  0  0  0
   -2.8865   -1.1746    1.6750 H   0  0  0  0  0  0  0  0  0  0  0  0
  1  2  1  0
  2  3  1  0
  3  4  2  0
  4  5  1  0
  5  6  2  0
  6  7  1  0
  7  8  1  0
  8  9  1  0
  9 10  1  0
 10 11  2  0
 11 12  1  0
 12 13  2  0
 13 14  1  0
 14 15  1  0
 13 16  1  0
 16 17  2  0
 17 18  1  0
 18 19  1  0
 19 20  2  0
 20 21  1  0
 21 22  2  0
 22 23  1  0
 23 24  1  0
 24 25  1  0
 25 26  1  0
 26 27  1  0
 27 28  1  0
 28 29  1  0
 29 30  1  0
 30 31  1  0
 22 32  1  0
 32 33  2  0
  7 34  2  0
 34  3  1  0
 18  8  2  0
 33 19  1  0
 17 10  1  0
 31 26  1  0
  1 35  1  0
  1 36  1  0
  1 37  1  0
  4 38  1  0
  5 39  1  0
  6 40  1  0
 11 41  1  0
 12 42  1  0
 15 43  1  0
 15 44  1  0
 15 45  1  0
 16 46  1  0
 20 47  1  0
 21 48  1  0
 24 49  1  0
 24 50  1  0
 25 51  1  0
 25 52  1  0
 27 53  1  0
 27 54  1  0
 28 55  1  0
 28 56  1  0
 29 57  1  0
 29 58  1  0
 30 59  1  0
 30 60  1  0
 31 61  1  0
 31 62  1  0
 32 63  1  0
 33 64  1  0
 34 65  1  0
M  END
$$$$
