
     RDKit          3D

 65 66  0  0  0  0  0  0  0  0999 V2000
   -5.4404    4.9013    2.8475 C   0  0  0  0  0  0  0  0  0  0  0  0
   -5.1706    4.7245    1.4621 O   0  0  0  0  0  0  0  0  0  0  0  0
   -4.4772    3.6007    1.1076 C   0  0  0  0  0  0  0  0  0  0  0  0
   -3.9278    2.6659    1.9824 C   0  0  0  0  0  0  0  0  0  0  0  0
   -3.2322    1.5599    1.4809 C   0  0  0  0  0  0  0  0  0  0  0  0
   -3.0742    1.3632    0.0966 C   0  0  0  0  0  0  0  0  0  0  0  0
   -2.2724    0.1579   -0.3791 C   0  0  0  0  0  0  0  0  0  0  0  0
   -2.6144   -0.3799   -1.8064 C   0  0  0  0  0  0  0  0  0  0  0  0
   -3.7254   -0.2811   -2.3209 O   0  0  0  0  0  0  0  0  0  0  0  0
   -1.5774   -1.0812   -2.4040 N   0  0  0  0  0  0  0  0  0  0  0  0
   -1.6624   -1.8128   -3.6753 C   0  0  0  0  0  0  0  0  0  0  0  0
   -0.2719   -2.4042   -3.9712 C   0  0  0  0  0  0  0  0  0  0  0  0
   -2.0386   -0.8734   -4.8312 C   0  0  0  0  0  0  0  0  0  0  0  0
   -2.6732   -2.9644   -3.5755 C   0  0  0  0  0  0  0  0  0  0  0  0
   -0.8028    0.3495   -0.2003 N   0  0  0  0  0  0  0  0  0  0  0  0
   -0.1537    1.4723   -0.9093 C   0  0  0  0  0  0  0  0  0  0  0  0
   -0.0770    2.7806   -0.1051 C   0  0  0  0  0  0  0  0  0  0  0  0
    0.6817    2.6191    1.0877 O   0  0  0  0  0  0  0  0  0  0  0  0
   -0.1235   -0.5425    0.6232 C   0  0  0  0  0  0  0  0  0  0  0  0
   -0.7188   -1.4153    1.2588 O   0  0  0  0  0  0  0  0  0  0  0  0
    1.3950   -0.4911    0.6358 C   0  0  0  0  0  0  0  0  0  0  0  0
    1.9778   -1.4430    1.6766 C   0  0  0  0  0  0  0  0  0  0  0  0
    3.4924   -1.4685    1.6283 C   0  0  0  0  0  0  0  0  0  0  0  0
    4.1303   -0.9417    0.7223 O   0  0  0  0  0  0  0  0  0  0  0  0
    4.0242   -2.1666    2.6889 N   0  0  0  0  0  0  0  0  0  0  0  0
    5.3670   -2.3698    2.9147 C   0  0  0  0  0  0  0  0  0  0  0  0
    6.4802   -1.9532    2.1524 C   0  0  0  0  0  0  0  0  0  0  0  0
    7.5681   -2.4278    2.8427 C   0  0  0  0  0  0  0  0  0  0  0  0
    9.0243   -2.3710    2.6355 C   0  0  0  0  0  0  0  0  0  0  0  0
    7.1394   -3.0864    3.9511 O   0  0  0  0  0  0  0  0  0  0  0  0
    5.7576   -3.0562    3.9946 N   0  0  0  0  0  0  0  0  0  0  0  0
   -3.6261    2.3140   -0.7722 C   0  0  0  0  0  0  0  0  0  0  0  0
   -4.3209    3.4180   -0.2676 C   0  0  0  0  0  0  0  0  0  0  0  0
   -6.0326    4.0705    3.2448 H   0  0  0  0  0  0  0  0  0  0  0  0
   -4.5139    5.0344    3.4154 H   0  0  0  0  0  0  0  0  0  0  0  0
   -6.0319    5.8150    2.9588 H   0  0  0  0  0  0  0  0  0  0  0  0
   -4.0172    2.7657    3.0589 H   0  0  0  0  0  0  0  0  0  0  0  0
   -2.8018    0.8445    2.1818 H   0  0  0  0  0  0  0  0  0  0  0  0
   -2.5999   -0.6768    0.2562 H   0  0  0  0  0  0  0  0  0  0  0  0
   -0.8017   -1.3012   -1.7905 H   0  0  0  0  0  0  0  0  0  0  0  0
    0.0449   -3.0879   -3.1751 H   0  0  0  0  0  0  0  0  0  0  0  0
   -0.2651   -2.9615   -4.9141 H   0  0  0  0  0  0  0  0  0  0  0  0
    0.4858   -1.6143   -4.0399 H   0  0  0  0  0  0  0  0  0  0  0  0
   -3.0474   -0.4649   -4.7198 H   0  0  0  0  0  0  0  0  0  0  0  0
   -2.0063   -1.3984   -5.7927 H   0  0  0  0  0  0  0  0  0  0  0  0
   -1.3475   -0.0242   -4.8878 H   0  0  0  0  0  0  0  0  0  0  0  0
   -2.4376   -3.6224   -2.7314 H   0  0  0  0  0  0  0  0  0  0  0  0
   -3.6941   -2.5986   -3.4280 H   0  0  0  0  0  0  0  0  0  0  0  0
   -2.6716   -3.5721   -4.4875 H   0  0  0  0  0  0  0  0  0  0  0  0
   -0.6907    1.6504   -1.8473 H   0  0  0  0  0  0  0  0  0  0  0  0
    0.8611    1.1695   -1.1832 H   0  0  0  0  0  0  0  0  0  0  0  0
   -1.0643    3.1522    0.1690 H   0  0  0  0  0  0  0  0  0  0  0  0
    0.4132    3.5496   -0.7109 H   0  0  0  0  0  0  0  0  0  0  0  0
    0.5351    3.4190    1.6223 H   0  0  0  0  0  0  0  0  0  0  0  0
    1.7492    0.5175    0.8493 H   0  0  0  0  0  0  0  0  0  0  0  0
    1.7454   -0.7761   -0.3633 H   0  0  0  0  0  0  0  0  0  0  0  0
    1.6228   -2.4661    1.5027 H   0  0  0  0  0  0  0  0  0  0  0  0
    1.6553   -1.1382    2.6799 H   0  0  0  0  0  0  0  0  0  0  0  0
    3.4231   -2.5738    3.3935 H   0  0  0  0  0  0  0  0  0  0  0  0
    6.4945   -1.3892    1.2322 H   0  0  0  0  0  0  0  0  0  0  0  0
    9.4154   -3.3655    2.3964 H   0  0  0  0  0  0  0  0  0  0  0  0
    9.2791   -1.6969    1.8109 H   0  0  0  0  0  0  0  0  0  0  0  0
    9.5273   -2.0094    3.5365 H   0  0  0  0  0  0  0  0  0  0  0  0
   -3.5343    2.2112   -1.8515 H   0  0  0  0  0  0  0  0  0  0  0  0
   -4.7514    4.1411   -0.9569 H   0  0  0  0  0  0  0  0  0  0  0  0
  1  2  1  0
  2  3  1  0
  3  4  2  0
  4  5  1  0
  5  6  2  0
  6  7  1  0
  7  8  1  0
  8  9  2  0
  8 10  1  0
 10 11  1  0
 11 12  1  0
 11 13  1  0
 11 14  1  0
  7 15  1  0
 15 16  1  0
 16 17  1  0
 17 18  1  0
 15 19  1  0
 19 20  2  0
 19 21  1  0
 21 22  1  0
 22 23  1  0
 23 24  2  0
 23 25  1  0
 25 26  1  0
 26 27  1  0
 27 28  2  0
 28 29  1  0
 28 30  1  0
 30 31  1  0
  6 32  1  0
 32 33  2  0
 33  3  1  0
 31 26  2  0
  1 34  1  0
  1 35  1  0
  1 36  1  0
  4 37  1  0
  5 38  1  0
  7 39  1  0
 10 40  1  0
 12 41  1  0
 12 42  1  0
 12 43  1  0
 13 44  1  0
 13 45  1  0
 13 46  1  0
 14 47  1  0
 14 48  1  0
 14 49  1  0
 16 50  1  0
 16 51  1  0
 17 52  1  0
 17 53  1  0
 18 54  1  0
 21 55  1  0
 21 56  1  0
 22 57  1  0
 22 58  1  0
 25 59  1  0
 27 60  1  0
 29 61  1  0
 29 62  1  0
 29 63  1  0
 32 64  1  0
 33 65  1  0
M  END
$$$$
