
     RDKit          3D

 24 26  0  0  0  0  0  0  0  0999 V2000
   -4.5691   -1.2525   -0.8564 F   0  0  0  0  0  0  0  0  0  0  0  0
   -3.3470   -0.7186   -0.7528 C   0  0  0  0  0  0  0  0  0  0  0  0
   -3.1566    0.4102    0.0357 C   0  0  0  0  0  0  0  0  0  0  0  0
   -1.8813    0.9687    0.1476 C   0  0  0  0  0  0  0  0  0  0  0  0
   -0.8003    0.3879   -0.5323 C   0  0  0  0  0  0  0  0  0  0  0  0
    0.5261    0.9503   -0.4030 C   0  0  0  0  0  0  0  0  0  0  0  0
    0.9002    2.1724   -0.9328 C   0  0  0  0  0  0  0  0  0  0  0  0
    2.5710    2.4869   -0.5873 S   0  0  0  0  0  0  0  0  0  0  0  0
    2.7063    1.0249    0.2450 C   0  0  0  0  0  0  0  0  0  0  0  0
    1.5798    0.3586    0.2525 N   0  0  0  0  0  4  0  0  0  0  0  0
    1.6206   -0.9254    0.9380 C   0  0  0  0  0  0  0  0  0  0  0  0
    2.8783   -0.9486    1.8232 C   0  0  0  0  0  0  0  0  0  0  0  0
    4.0185    0.2828    1.0839 S   0  0  0  0  0  0  0  0  0  0  0  0
   -1.0069   -0.7486   -1.3286 C   0  0  0  0  0  0  0  0  0  0  0  0
   -2.2854   -1.3007   -1.4363 C   0  0  0  0  0  0  0  0  0  0  0  0
   -4.0065    0.8478    0.5536 H   0  0  0  0  0  0  0  0  0  0  0  0
   -1.7537    1.8550    0.7676 H   0  0  0  0  0  0  0  0  0  0  0  0
    0.3125    2.8828   -1.5018 H   0  0  0  0  0  0  0  0  0  0  0  0
    0.7192   -1.0725    1.5414 H   0  0  0  0  0  0  0  0  0  0  0  0
    1.6711   -1.7164    0.1802 H   0  0  0  0  0  0  0  0  0  0  0  0
    2.6343   -0.6203    2.8385 H   0  0  0  0  0  0  0  0  0  0  0  0
    3.3316   -1.9422    1.8690 H   0  0  0  0  0  0  0  0  0  0  0  0
   -0.1945   -1.2071   -1.8897 H   0  0  0  0  0  0  0  0  0  0  0  0
   -2.4684   -2.1755   -2.0555 H   0  0  0  0  0  0  0  0  0  0  0  0
  1  2  1  0
  2  3  2  0
  3  4  1  0
  4  5  2  0
  5  6  1  0
  6  7  2  0
  7  8  1  0
  8  9  1  0
  9 10  2  0
 10 11  1  0
 11 12  1  0
 12 13  1  0
  5 14  1  0
 14 15  2  0
 15  2  1  0
 10  6  1  0
 13  9  1  0
  3 16  1  0
  4 17  1  0
  7 18  1  0
 11 19  1  0
 11 20  1  0
 12 21  1  0
 12 22  1  0
 14 23  1  0
 15 24  1  0
M  CHG  1  10   1
M  END
$$$$
