
     RDKit          3D

 40 42  0  0  0  0  0  0  0  0999 V2000
   -6.6414   -1.0508   -1.7163 C   0  0  0  0  0  0  0  0  0  0  0  0
   -6.1559   -2.2969   -1.2299 O   0  0  0  0  0  0  0  0  0  0  0  0
   -4.9186   -2.2862   -0.6382 C   0  0  0  0  0  0  0  0  0  0  0  0
   -4.0965   -1.1718   -0.4639 C   0  0  0  0  0  0  0  0  0  0  0  0
   -2.8451   -1.3092    0.1586 C   0  0  0  0  0  0  0  0  0  0  0  0
   -2.0006   -0.1243    0.3409 C   0  0  0  0  0  0  0  0  0  0  0  0
   -0.8451    0.1184   -0.2929 C   0  0  0  0  0  0  0  0  0  0  0  0
   -0.0639   -0.8567   -1.4796 S   0  0  0  0  0  0  0  0  0  0  0  0
    1.2639    0.2827   -1.6903 C   0  0  0  0  0  0  0  0  0  0  0  0
    2.4447    0.0823   -2.8509 S   0  0  0  0  0  0  0  0  0  0  0  0
    1.1164    1.3042   -0.7691 N   0  0  0  0  0  0  0  0  0  0  0  0
    1.9573    2.4394   -0.7361 N   0  0  0  0  0  0  0  0  0  0  0  0
    3.2533    2.2592   -0.2210 C   0  0  0  0  0  0  0  0  0  0  0  0
    4.2100    2.8505   -0.9804 N   0  0  0  0  0  0  0  0  0  0  0  0
    5.5033    2.7587   -0.5903 C   0  0  0  0  0  0  0  0  0  0  0  0
    5.9174    2.1102    0.5585 C   0  0  0  0  0  0  0  0  0  0  0  0
    7.3717    2.0373    0.9044 C   0  0  0  0  0  0  0  0  0  0  0  0
    7.9904    0.9824    0.3099 F   0  0  0  0  0  0  0  0  0  0  0  0
    7.5944    1.8997    2.2401 F   0  0  0  0  0  0  0  0  0  0  0  0
    8.0650    3.1445    0.5230 F   0  0  0  0  0  0  0  0  0  0  0  0
    4.9296    1.5118    1.3437 C   0  0  0  0  0  0  0  0  0  0  0  0
    3.5850    1.5887    0.9642 C   0  0  0  0  0  0  0  0  0  0  0  0
    2.4375    0.8467    2.0168 Cl  0  0  0  0  0  0  0  0  0  0  0  0
   -0.0685    1.3653   -0.0447 C   0  0  0  0  0  0  0  0  0  0  0  0
   -0.4714    2.2846    0.6558 O   0  0  0  0  0  0  0  0  0  0  0  0
   -2.4260   -2.5649    0.6178 C   0  0  0  0  0  0  0  0  0  0  0  0
   -3.2432   -3.6808    0.4467 C   0  0  0  0  0  0  0  0  0  0  0  0
   -4.4746   -3.5310   -0.1773 C   0  0  0  0  0  0  0  0  0  0  0  0
   -5.2583   -4.6421   -0.3327 O   0  0  0  0  0  0  0  0  0  0  0  0
   -5.9908   -0.6536   -2.5024 H   0  0  0  0  0  0  0  0  0  0  0  0
   -7.6274   -1.2261   -2.1572 H   0  0  0  0  0  0  0  0  0  0  0  0
   -6.7644   -0.3302   -0.9011 H   0  0  0  0  0  0  0  0  0  0  0  0
   -4.4025   -0.1883   -0.8052 H   0  0  0  0  0  0  0  0  0  0  0  0
   -2.3894    0.6029    1.0530 H   0  0  0  0  0  0  0  0  0  0  0  0
    2.0751    2.8740   -1.6526 H   0  0  0  0  0  0  0  0  0  0  0  0
    6.2135    3.2442   -1.2579 H   0  0  0  0  0  0  0  0  0  0  0  0
    5.2076    0.9895    2.2582 H   0  0  0  0  0  0  0  0  0  0  0  0
   -1.4649   -2.6842    1.1123 H   0  0  0  0  0  0  0  0  0  0  0  0
   -2.9252   -4.6582    0.7970 H   0  0  0  0  0  0  0  0  0  0  0  0
   -6.0624   -4.3220   -0.7857 H   0  0  0  0  0  0  0  0  0  0  0  0
  1  2  1  0
  2  3  1  0
  3  4  2  0
  4  5  1  0
  5  6  1  0
  6  7  2  3
  7  8  1  0
  8  9  1  0
  9 10  2  0
  9 11  1  0
 11 12  1  0
 12 13  1  0
 13 14  2  0
 14 15  1  0
 15 16  2  0
 16 17  1  0
 17 18  1  0
 17 19  1  0
 17 20  1  0
 16 21  1  0
 21 22  2  0
 22 23  1  0
 11 24  1  0
 24 25  2  0
  5 26  2  0
 26 27  1  0
 27 28  2  0
 28 29  1  0
 28  3  1  0
 24  7  1  0
 22 13  1  0
  1 30  1  0
  1 31  1  0
  1 32  1  0
  4 33  1  0
  6 34  1  0
 12 35  1  0
 15 36  1  0
 21 37  1  0
 26 38  1  0
 27 39  1  0
 29 40  1  0
M  END
$$$$
