
     RDKit          3D

 59 62  0  0  0  0  0  0  0  0999 V2000
   -8.4332    0.8139   -2.5145 C   0  0  0  0  0  0  0  0  0  0  0  0
   -7.5283    0.6956   -1.3222 C   0  0  0  0  0  0  0  0  0  0  0  0
   -6.8968   -0.5280   -1.0438 C   0  0  0  0  0  0  0  0  0  0  0  0
   -6.0339   -0.6451    0.0467 C   0  0  0  0  0  0  0  0  0  0  0  0
   -5.7949    0.4699    0.8545 C   0  0  0  0  0  0  0  0  0  0  0  0
   -4.8811    0.3393    2.0035 C   0  0  0  0  0  0  0  0  0  0  0  0
   -5.3700    0.1227    3.1091 O   0  0  0  0  0  0  0  0  0  0  0  0
   -3.5197    0.4422    1.7567 N   0  0  0  0  0  0  0  0  0  0  0  0
   -2.9321    0.8413    0.4723 C   0  0  0  0  0  0  0  0  0  0  0  0
   -1.4814    1.3432    0.6052 C   0  0  0  0  0  0  0  0  0  0  0  0
   -0.6360    0.3384    1.2667 N   0  0  0  0  0  0  0  0  0  0  0  0
    0.7409    0.3267    1.1079 C   0  0  0  0  0  0  0  0  0  0  0  0
    1.5025   -0.8055    1.4322 C   0  0  0  0  0  0  0  0  0  0  0  0
    2.8948   -0.8386    1.2687 C   0  0  0  0  0  0  0  0  0  0  0  0
    3.5809    0.2726    0.7788 C   0  0  0  0  0  0  0  0  0  0  0  0
    4.9811    0.1666    0.6598 N   0  0  0  0  0  0  0  0  0  0  0  0
    5.8679    1.1420    0.2242 C   0  0  0  0  0  0  0  0  0  0  0  0
    5.5730    2.2798   -0.1363 O   0  0  0  0  0  0  0  0  0  0  0  0
    7.3165    0.6704    0.2309 C   0  0  0  0  0  0  0  0  0  0  0  0
    7.9467    0.4528   -1.4649 S   0  0  0  0  0  0  0  0  0  0  0  0
    6.9454   -0.9224   -1.9902 C   0  0  0  0  0  0  0  0  0  0  0  0
    5.7236   -0.6980   -2.6354 C   0  0  0  0  0  0  0  0  0  0  0  0
    4.9407   -1.7797   -3.0604 C   0  0  0  0  0  0  0  0  0  0  0  0
    5.3874   -3.0834   -2.8507 C   0  0  0  0  0  0  0  0  0  0  0  0
    4.4279   -4.4173   -3.3775 Cl  0  0  0  0  0  0  0  0  0  0  0  0
    6.6094   -3.3145   -2.2171 C   0  0  0  0  0  0  0  0  0  0  0  0
    7.3901   -2.2324   -1.7896 C   0  0  0  0  0  0  0  0  0  0  0  0
    2.8459    1.4052    0.4435 C   0  0  0  0  0  0  0  0  0  0  0  0
    1.4504    1.4246    0.6017 C   0  0  0  0  0  0  0  0  0  0  0  0
   -1.2579   -0.4480    2.3519 C   0  0  0  0  0  0  0  0  0  0  0  0
   -2.5794    0.1689    2.8431 C   0  0  0  0  0  0  0  0  0  0  0  0
   -6.4176    1.6936    0.5955 C   0  0  0  0  0  0  0  0  0  0  0  0
   -7.2744    1.8067   -0.5024 C   0  0  0  0  0  0  0  0  0  0  0  0
   -9.0843    1.6953   -2.4356 H   0  0  0  0  0  0  0  0  0  0  0  0
   -7.8333    0.9018   -3.4285 H   0  0  0  0  0  0  0  0  0  0  0  0
   -9.0840   -0.0687   -2.5922 H   0  0  0  0  0  0  0  0  0  0  0  0
   -7.0793   -1.4001   -1.6762 H   0  0  0  0  0  0  0  0  0  0  0  0
   -5.5601   -1.5978    0.2702 H   0  0  0  0  0  0  0  0  0  0  0  0
   -2.9601   -0.0400   -0.1782 H   0  0  0  0  0  0  0  0  0  0  0  0
   -3.5487    1.6194    0.0125 H   0  0  0  0  0  0  0  0  0  0  0  0
   -1.1132    1.5675   -0.4013 H   0  0  0  0  0  0  0  0  0  0  0  0
   -1.4656    2.2692    1.1899 H   0  0  0  0  0  0  0  0  0  0  0  0
    1.0160   -1.7052    1.8009 H   0  0  0  0  0  0  0  0  0  0  0  0
    3.4211   -1.7513    1.5370 H   0  0  0  0  0  0  0  0  0  0  0  0
    5.3673   -0.7407    0.8923 H   0  0  0  0  0  0  0  0  0  0  0  0
    7.4381   -0.2587    0.8002 H   0  0  0  0  0  0  0  0  0  0  0  0
    7.9183    1.4389    0.7354 H   0  0  0  0  0  0  0  0  0  0  0  0
    5.3695    0.3172   -2.8113 H   0  0  0  0  0  0  0  0  0  0  0  0
    3.9902   -1.5963   -3.5578 H   0  0  0  0  0  0  0  0  0  0  0  0
    6.9635   -4.3318   -2.0622 H   0  0  0  0  0  0  0  0  0  0  0  0
    8.3499   -2.4245   -1.3127 H   0  0  0  0  0  0  0  0  0  0  0  0
    3.3182    2.3012    0.0528 H   0  0  0  0  0  0  0  0  0  0  0  0
    0.9375    2.3461    0.3371 H   0  0  0  0  0  0  0  0  0  0  0  0
   -0.5860   -0.5258    3.2157 H   0  0  0  0  0  0  0  0  0  0  0  0
   -1.4521   -1.4600    1.9793 H   0  0  0  0  0  0  0  0  0  0  0  0
   -2.3859    1.1226    3.3433 H   0  0  0  0  0  0  0  0  0  0  0  0
   -3.0410   -0.4972    3.5780 H   0  0  0  0  0  0  0  0  0  0  0  0
   -6.2349    2.5518    1.2399 H   0  0  0  0  0  0  0  0  0  0  0  0
   -7.7498    2.7635   -0.7115 H   0  0  0  0  0  0  0  0  0  0  0  0
  1  2  1  0
  2  3  2  0
  3  4  1  0
  4  5  2  0
  5  6  1  0
  6  7  2  0
  6  8  1  0
  8  9  1  0
  9 10  1  0
 10 11  1  0
 11 12  1  0
 12 13  2  0
 13 14  1  0
 14 15  2  0
 15 16  1  0
 16 17  1  0
 17 18  2  0
 17 19  1  0
 19 20  1  0
 20 21  1  0
 21 22  2  0
 22 23  1  0
 23 24  2  0
 24 25  1  0
 24 26  1  0
 26 27  2  0
 15 28  1  0
 28 29  2  0
 11 30  1  0
 30 31  1  0
  5 32  1  0
 32 33  2  0
 33  2  1  0
 31  8  1  0
 29 12  1  0
 27 21  1  0
  1 34  1  0
  1 35  1  0
  1 36  1  0
  3 37  1  0
  4 38  1  0
  9 39  1  0
  9 40  1  0
 10 41  1  0
 10 42  1  0
 13 43  1  0
 14 44  1  0
 16 45  1  0
 19 46  1  0
 19 47  1  0
 22 48  1  0
 23 49  1  0
 26 50  1  0
 27 51  1  0
 28 52  1  0
 29 53  1  0
 30 54  1  0
 30 55  1  0
 31 56  1  0
 31 57  1  0
 32 58  1  0
 33 59  1  0
M  END
$$$$
