
     RDKit          3D

 70 76  0  0  0  0  0  0  0  0999 V2000
   -6.2434   -3.7415   -1.5058 C   0  0  0  0  0  0  0  0  0  0  0  0
   -5.1781   -3.3258   -0.5338 C   0  0  0  0  0  0  0  0  0  0  0  0
   -5.1950   -3.7420    0.8096 C   0  0  0  0  0  0  0  0  0  0  0  0
   -6.4473   -4.7677    1.4201 Cl  0  0  0  0  0  0  0  0  0  0  0  0
   -4.2077   -3.3232    1.7220 C   0  0  0  0  0  0  0  0  0  0  0  0
   -3.1715   -2.4785    1.3200 C   0  0  0  0  0  0  0  0  0  0  0  0
   -3.1369   -2.0605   -0.0032 C   0  0  0  0  0  0  0  0  0  0  0  0
   -4.1441   -2.4678   -0.8938 C   0  0  0  0  0  0  0  0  0  0  0  0
   -3.9581   -1.8534   -2.1278 N   0  0  0  0  0  0  0  0  0  0  0  0
   -2.8424   -1.0191   -2.1325 C   0  0  0  0  0  0  0  0  0  0  0  0
   -2.4954   -0.3393   -3.0876 O   0  0  0  0  0  0  0  0  0  0  0  0
   -2.1798   -1.1389   -0.7187 C   0  0  1  0  0  0  0  0  0  0  0  0
   -2.1268    0.1628   -0.0203 C   0  0  0  0  0  0  0  0  0  0  0  0
   -0.8253    0.6573   -0.0440 C   0  0  0  0  0  0  0  0  0  0  0  0
   -0.8012    1.8829    0.5600 C   0  0  0  0  0  0  0  0  0  0  0  0
    0.2211    2.7343    0.6371 O   0  0  0  0  0  0  0  0  0  0  0  0
   -2.0996    2.1316    1.0510 N   0  0  0  0  0  0  0  0  0  0  0  0
   -2.4932    3.2434    1.8654 C   0  0  0  0  0  0  0  0  0  0  0  0
   -3.8003    3.7433    1.8124 C   0  0  0  0  0  0  0  0  0  0  0  0
   -4.1783    4.8218    2.6175 C   0  0  0  0  0  0  0  0  0  0  0  0
   -3.2582    5.4049    3.4853 C   0  0  0  0  0  0  0  0  0  0  0  0
   -1.9592    4.9101    3.5532 C   0  0  0  0  0  0  0  0  0  0  0  0
   -1.5761    3.8322    2.7494 C   0  0  0  0  0  0  0  0  0  0  0  0
   -2.9271    1.0689    0.6319 C   0  0  0  0  0  0  0  0  0  0  0  0
   -4.2226    1.0089    0.9314 O   0  0  0  0  0  0  0  0  0  0  0  0
    0.0979   -0.2523   -0.7621 C   0  0  1  0  0  0  0  0  0  0  0  0
    1.4624   -0.4165   -0.0538 C   0  0  0  0  0  0  0  0  0  0  0  0
    2.1135   -1.6925   -0.3775 N   0  0  0  0  0  0  0  0  0  0  0  0
    3.4703   -1.8799   -0.5998 C   0  0  0  0  0  0  0  0  0  0  0  0
    3.9454   -3.0026   -0.7781 O   0  0  0  0  0  0  0  0  0  0  0  0
    4.3410   -0.6373   -0.6249 C   0  0  0  0  0  0  0  0  0  0  0  0
    5.8068   -0.9722   -0.8949 C   0  0  0  0  0  0  0  0  0  0  0  0
    6.6313    0.2817   -1.0666 C   0  0  0  0  0  0  0  0  0  0  0  0
    7.1395    0.9620    0.0494 C   0  0  0  0  0  0  0  0  0  0  0  0
    7.8726    2.1384   -0.1157 C   0  0  0  0  0  0  0  0  0  0  0  0
    8.0998    2.6472   -1.3941 C   0  0  0  0  0  0  0  0  0  0  0  0
    7.5951    1.9804   -2.5103 C   0  0  0  0  0  0  0  0  0  0  0  0
    6.8615    0.8045   -2.3479 C   0  0  0  0  0  0  0  0  0  0  0  0
    1.2587   -2.8809   -0.3412 C   0  0  0  0  0  0  0  0  0  0  0  0
   -0.2192   -2.5750   -0.0279 C   0  0  0  0  0  0  0  0  0  0  0  0
   -0.7369   -1.5179   -0.9003 N   0  0  0  0  0  0  0  0  0  0  0  0
   -5.9510   -3.5485   -2.5432 H   0  0  0  0  0  0  0  0  0  0  0  0
   -7.1717   -3.1941   -1.3060 H   0  0  0  0  0  0  0  0  0  0  0  0
   -6.4341   -4.8191   -1.4423 H   0  0  0  0  0  0  0  0  0  0  0  0
   -4.2541   -3.6531    2.7585 H   0  0  0  0  0  0  0  0  0  0  0  0
   -2.4277   -2.1458    2.0389 H   0  0  0  0  0  0  0  0  0  0  0  0
   -4.5468   -1.9494   -2.9425 H   0  0  0  0  0  0  0  0  0  0  0  0
   -0.1424    3.6400    0.6525 H   0  0  0  0  0  0  0  0  0  0  0  0
   -4.5421    3.3339    1.1312 H   0  0  0  0  0  0  0  0  0  0  0  0
   -5.1938    5.2062    2.5639 H   0  0  0  0  0  0  0  0  0  0  0  0
   -3.5572    6.2403    4.1133 H   0  0  0  0  0  0  0  0  0  0  0  0
   -1.2469    5.3506    4.2473 H   0  0  0  0  0  0  0  0  0  0  0  0
   -0.5714    3.4367    2.8774 H   0  0  0  0  0  0  0  0  0  0  0  0
   -4.5697    0.1447    0.6455 H   0  0  0  0  0  0  0  0  0  0  0  0
    0.2668    0.1220   -1.7810 H   0  0  0  0  0  0  0  0  0  0  0  0
    2.1020    0.4320   -0.3095 H   0  0  0  0  0  0  0  0  0  0  0  0
    1.3473   -0.4021    1.0385 H   0  0  0  0  0  0  0  0  0  0  0  0
    3.9666    0.0305   -1.4071 H   0  0  0  0  0  0  0  0  0  0  0  0
    4.2527   -0.1318    0.3421 H   0  0  0  0  0  0  0  0  0  0  0  0
    6.2195   -1.5735   -0.0738 H   0  0  0  0  0  0  0  0  0  0  0  0
    5.9007   -1.5942   -1.7949 H   0  0  0  0  0  0  0  0  0  0  0  0
    6.9688    0.5774    1.0519 H   0  0  0  0  0  0  0  0  0  0  0  0
    8.2670    2.6601    0.7537 H   0  0  0  0  0  0  0  0  0  0  0  0
    8.6672    3.5642   -1.5212 H   0  0  0  0  0  0  0  0  0  0  0  0
    7.7715    2.3762   -3.5077 H   0  0  0  0  0  0  0  0  0  0  0  0
    6.4698    0.2962   -3.2284 H   0  0  0  0  0  0  0  0  0  0  0  0
    1.6594   -3.5669    0.4158 H   0  0  0  0  0  0  0  0  0  0  0  0
    1.3423   -3.3757   -1.3164 H   0  0  0  0  0  0  0  0  0  0  0  0
   -0.3023   -2.2850    1.0266 H   0  0  0  0  0  0  0  0  0  0  0  0
   -0.7835   -3.5033   -0.1695 H   0  0  0  0  0  0  0  0  0  0  0  0
  1  2  1  0
  2  3  2  0
  3  4  1  0
  3  5  1  0
  5  6  2  0
  6  7  1  0
  7  8  2  0
  8  9  1  0
  9 10  1  0
 10 11  2  0
 10 12  1  0
 12 13  1  0
 13 14  1  0
 14 15  2  0
 15 16  1  0
 15 17  1  0
 17 18  1  0
 18 19  2  0
 19 20  1  0
 20 21  2  0
 21 22  1  0
 22 23  2  0
 17 24  1  0
 24 25  1  0
 14 26  1  0
 26 27  1  0
 27 28  1  0
 28 29  1  0
 29 30  2  0
 29 31  1  0
 31 32  1  0
 32 33  1  0
 33 34  2  0
 34 35  1  0
 35 36  2  0
 36 37  1  0
 37 38  2  0
 28 39  1  0
 39 40  1  0
 40 41  1  0
  8  2  1  0
 12 41  1  6
 12  7  1  0
 24 13  2  0
 41 26  1  0
 23 18  1  0
 38 33  1  0
  1 42  1  0
  1 43  1  0
  1 44  1  0
  5 45  1  0
  6 46  1  0
  9 47  1  0
 16 48  1  0
 19 49  1  0
 20 50  1  0
 21 51  1  0
 22 52  1  0
 23 53  1  0
 25 54  1  0
 26 55  1  6
 27 56  1  0
 27 57  1  0
 31 58  1  0
 31 59  1  0
 32 60  1  0
 32 61  1  0
 34 62  1  0
 35 63  1  0
 36 64  1  0
 37 65  1  0
 38 66  1  0
 39 67  1  0
 39 68  1  0
 40 69  1  0
 40 70  1  0
M  END
$$$$
