
     RDKit          3D

 53 56  0  0  0  0  0  0  0  0999 V2000
    8.4114   -2.8171   -2.0396 C   0  0  0  0  0  0  0  0  0  0  0  0
    8.2059   -2.6485   -0.5442 C   0  0  0  0  0  0  0  0  0  0  0  0
    7.8550   -1.3020   -0.2294 O   0  0  0  0  0  0  0  0  0  0  0  0
    6.5365   -0.9449   -0.2227 C   0  0  0  0  0  0  0  0  0  0  0  0
    6.2941    0.3576    0.2261 C   0  0  0  0  0  0  0  0  0  0  0  0
    4.9938    0.8650    0.2840 C   0  0  0  0  0  0  0  0  0  0  0  0
    3.9233    0.0643   -0.1151 C   0  0  0  0  0  0  0  0  0  0  0  0
    2.5341    0.5670   -0.0708 C   0  0  0  0  0  0  0  0  0  0  0  0
    2.2580    1.7637    0.3421 N   0  0  0  0  0  0  0  0  0  0  0  0
    0.9420    2.1480    0.3976 N   0  0  0  0  0  0  0  0  0  0  0  0
   -0.1449    1.3384    0.7142 C   0  0  0  0  0  0  0  0  0  0  0  0
   -0.1119    0.1214    0.8671 O   0  0  0  0  0  0  0  0  0  0  0  0
   -1.3771    2.1084    0.8812 C   0  0  0  0  0  0  0  0  0  0  0  0
   -1.3960    3.4751    0.8045 N   0  0  0  0  0  0  0  0  0  0  0  0
   -2.6382    3.8837    0.9861 N   0  0  0  0  0  0  0  0  0  0  0  0
   -3.4458    2.7997    1.1874 N   0  0  0  0  0  0  0  0  0  0  0  0
   -4.8389    2.9538    1.4089 C   0  0  0  0  0  0  0  0  0  0  0  0
   -5.6305    1.9006    1.6128 N   0  0  0  0  0  0  0  0  0  0  0  0
   -6.9001    2.4527    1.7697 O   0  0  0  0  0  0  0  0  0  0  0  0
   -6.8629    3.8392    1.6718 N   0  0  0  0  0  0  0  0  0  0  0  0
   -5.5848    4.1476    1.4564 C   0  0  0  0  0  0  0  0  0  0  0  0
   -5.1219    5.4040    1.3154 N   0  0  0  0  0  0  0  0  0  0  0  0
   -2.6627    1.6495    1.1258 C   0  0  0  0  0  0  0  0  0  0  0  0
   -3.1823    0.2661    1.2591 C   0  0  0  0  0  0  0  0  0  0  0  0
   -3.7974   -0.0298    0.0092 O   0  0  0  0  0  0  0  0  0  0  0  0
   -4.4089   -1.2465   -0.1144 C   0  0  0  0  0  0  0  0  0  0  0  0
   -5.0777   -1.4388   -1.3291 C   0  0  0  0  0  0  0  0  0  0  0  0
   -5.7448   -2.6362   -1.5908 C   0  0  0  0  0  0  0  0  0  0  0  0
   -5.7384   -3.6412   -0.6333 C   0  0  0  0  0  0  0  0  0  0  0  0
   -6.3761   -4.7929   -0.8788 F   0  0  0  0  0  0  0  0  0  0  0  0
   -5.0770   -3.4685    0.5769 C   0  0  0  0  0  0  0  0  0  0  0  0
   -4.4088   -2.2684    0.8388 C   0  0  0  0  0  0  0  0  0  0  0  0
    4.1545   -1.2367   -0.5687 C   0  0  0  0  0  0  0  0  0  0  0  0
    5.4607   -1.7387   -0.6230 C   0  0  0  0  0  0  0  0  0  0  0  0
    8.7519   -3.8304   -2.2710 H   0  0  0  0  0  0  0  0  0  0  0  0
    7.4889   -2.6248   -2.5951 H   0  0  0  0  0  0  0  0  0  0  0  0
    9.1563   -2.1032   -2.4066 H   0  0  0  0  0  0  0  0  0  0  0  0
    9.1598   -2.8444   -0.0411 H   0  0  0  0  0  0  0  0  0  0  0  0
    7.4967   -3.3754   -0.1335 H   0  0  0  0  0  0  0  0  0  0  0  0
    7.1279    0.9836    0.5361 H   0  0  0  0  0  0  0  0  0  0  0  0
    4.8278    1.8790    0.6384 H   0  0  0  0  0  0  0  0  0  0  0  0
    1.7642   -0.1309   -0.4403 H   0  0  0  0  0  0  0  0  0  0  0  0
    0.8062    3.1518    0.5027 H   0  0  0  0  0  0  0  0  0  0  0  0
   -5.7824    6.1596    1.1653 H   0  0  0  0  0  0  0  0  0  0  0  0
   -4.1820    5.5865    0.9678 H   0  0  0  0  0  0  0  0  0  0  0  0
   -2.3683   -0.4396    1.4491 H   0  0  0  0  0  0  0  0  0  0  0  0
   -3.8896    0.1871    2.0915 H   0  0  0  0  0  0  0  0  0  0  0  0
   -5.0798   -0.6477   -2.0752 H   0  0  0  0  0  0  0  0  0  0  0  0
   -6.2658   -2.7880   -2.5302 H   0  0  0  0  0  0  0  0  0  0  0  0
   -5.0839   -4.2696    1.3094 H   0  0  0  0  0  0  0  0  0  0  0  0
   -3.8979   -2.1695    1.7907 H   0  0  0  0  0  0  0  0  0  0  0  0
    3.3287   -1.8703   -0.8828 H   0  0  0  0  0  0  0  0  0  0  0  0
    5.5994   -2.7496   -0.9905 H   0  0  0  0  0  0  0  0  0  0  0  0
  1  2  1  0
  2  3  1  0
  3  4  1  0
  4  5  2  0
  5  6  1  0
  6  7  2  0
  7  8  1  0
  8  9  2  3
  9 10  1  0
 10 11  1  0
 11 12  2  0
 11 13  1  0
 13 14  1  0
 14 15  2  0
 15 16  1  0
 16 17  1  0
 17 18  2  0
 18 19  1  0
 19 20  1  0
 20 21  2  0
 21 22  1  0
 16 23  1  0
 23 24  1  0
 24 25  1  0
 25 26  1  0
 26 27  2  0
 27 28  1  0
 28 29  2  0
 29 30  1  0
 29 31  1  0
 31 32  2  0
  7 33  1  0
 33 34  2  0
 34  4  1  0
 23 13  2  0
 32 26  1  0
 21 17  1  0
  1 35  1  0
  1 36  1  0
  1 37  1  0
  2 38  1  0
  2 39  1  0
  5 40  1  0
  6 41  1  0
  8 42  1  0
 10 43  1  0
 22 44  1  0
 22 45  1  0
 24 46  1  0
 24 47  1  0
 27 48  1  0
 28 49  1  0
 31 50  1  0
 32 51  1  0
 33 52  1  0
 34 53  1  0
M  END
$$$$
