
     RDKit          3D

 41 44  0  0  0  0  0  0  0  0999 V2000
    0.3285   -1.8960   -1.8142 O   0  0  0  0  0  0  0  0  0  0  0  0
    0.2643   -0.6865   -1.6134 C   0  0  0  0  0  0  0  0  0  0  0  0
   -1.0224    0.0909   -1.9187 C   0  0  0  0  0  0  0  0  0  0  0  0
   -1.7517    0.4535   -0.6970 N   0  0  0  0  0  0  0  0  0  0  0  0
   -1.2917    1.5480    0.0287 C   0  0  0  0  0  0  0  0  0  0  0  0
   -0.3393    2.2343   -0.3562 O   0  0  0  0  0  0  0  0  0  0  0  0
   -1.9255    1.8135    1.3738 C   0  0  0  0  0  0  0  0  0  0  0  0
   -3.1789    2.6527    1.2667 C   0  0  0  0  0  0  0  0  0  0  0  0
   -4.3797    2.1219    0.0086 S   0  0  0  0  0  0  0  0  0  0  0  0
   -4.1348    0.3475    0.0332 C   0  0  0  0  0  0  0  0  0  0  0  0
   -5.2670   -0.4312    0.3247 C   0  0  0  0  0  0  0  0  0  0  0  0
   -5.2225   -1.8205    0.2249 C   0  0  0  0  0  0  0  0  0  0  0  0
   -4.0516   -2.4449   -0.1871 C   0  0  0  0  0  0  0  0  0  0  0  0
   -2.9218   -1.6822   -0.4924 C   0  0  0  0  0  0  0  0  0  0  0  0
   -2.9370   -0.2817   -0.3749 C   0  0  0  0  0  0  0  0  0  0  0  0
    1.2701    0.1172   -1.1020 N   0  0  0  0  0  0  0  0  0  0  0  0
    2.5595   -0.2614   -0.6811 C   0  0  0  0  0  0  0  0  0  0  0  0
    3.0571   -1.5761   -0.7660 C   0  0  0  0  0  0  0  0  0  0  0  0
    4.3453   -1.8901   -0.3118 C   0  0  0  0  0  0  0  0  0  0  0  0
    5.1077   -0.8727    0.2149 C   0  0  0  0  0  0  0  0  0  0  0  0
    4.6336    0.4141    0.2923 C   0  0  0  0  0  0  0  0  0  0  0  0
    3.3695    0.7511   -0.1452 C   0  0  0  0  0  0  0  0  0  0  0  0
    5.5387    1.2698    0.8399 O   0  0  0  0  0  0  0  0  0  0  0  0
    6.6359    0.3693    1.1011 C   0  0  0  0  0  0  0  0  0  0  0  0
    6.3688   -0.9926    0.7064 O   0  0  0  0  0  0  0  0  0  0  0  0
   -0.7594    1.0021   -2.4677 H   0  0  0  0  0  0  0  0  0  0  0  0
   -1.6535   -0.5022   -2.5902 H   0  0  0  0  0  0  0  0  0  0  0  0
   -1.1894    2.3367    1.9967 H   0  0  0  0  0  0  0  0  0  0  0  0
   -2.1135    0.8678    1.8954 H   0  0  0  0  0  0  0  0  0  0  0  0
   -3.6878    2.6681    2.2376 H   0  0  0  0  0  0  0  0  0  0  0  0
   -2.9109    3.6896    1.0320 H   0  0  0  0  0  0  0  0  0  0  0  0
   -6.2039    0.0432    0.6109 H   0  0  0  0  0  0  0  0  0  0  0  0
   -6.1071   -2.4121    0.4489 H   0  0  0  0  0  0  0  0  0  0  0  0
   -4.0131   -3.5281   -0.2743 H   0  0  0  0  0  0  0  0  0  0  0  0
   -2.0210   -2.2127   -0.7929 H   0  0  0  0  0  0  0  0  0  0  0  0
    1.0176    1.0951   -0.9453 H   0  0  0  0  0  0  0  0  0  0  0  0
    2.4603   -2.3823   -1.1821 H   0  0  0  0  0  0  0  0  0  0  0  0
    4.7269   -2.9035   -0.3715 H   0  0  0  0  0  0  0  0  0  0  0  0
    3.0270    1.7781   -0.0639 H   0  0  0  0  0  0  0  0  0  0  0  0
    6.8531    0.3860    2.1754 H   0  0  0  0  0  0  0  0  0  0  0  0
    7.5193    0.7264    0.5568 H   0  0  0  0  0  0  0  0  0  0  0  0
  1  2  2  0
  2  3  1  0
  3  4  1  0
  4  5  1  0
  5  6  2  0
  5  7  1  0
  7  8  1  0
  8  9  1  0
  9 10  1  0
 10 11  2  0
 11 12  1  0
 12 13  2  0
 13 14  1  0
 14 15  2  0
  2 16  1  0
 16 17  1  0
 17 18  2  0
 18 19  1  0
 19 20  2  0
 20 21  1  0
 21 22  2  0
 21 23  1  0
 23 24  1  0
 24 25  1  0
 15  4  1  0
 22 17  1  0
 15 10  1  0
 25 20  1  0
  3 26  1  0
  3 27  1  0
  7 28  1  0
  7 29  1  0
  8 30  1  0
  8 31  1  0
 11 32  1  0
 12 33  1  0
 13 34  1  0
 14 35  1  0
 16 36  1  0
 18 37  1  0
 19 38  1  0
 22 39  1  0
 24 40  1  0
 24 41  1  0
M  END
$$$$
