
     RDKit          3D

 46 49  0  0  0  0  0  0  0  0999 V2000
    4.1394    1.2015    0.6903 O   0  0  0  0  0  0  0  0  0  0  0  0
    3.2381    0.5848    1.2505 C   0  0  0  0  0  0  0  0  0  0  0  0
    2.3607   -0.3914    0.4848 C   0  0  0  0  0  0  0  0  0  0  0  0
    0.7381    0.3691    0.1794 S   0  0  0  0  0  0  0  0  0  0  0  0
   -0.0878   -0.9743   -0.5244 C   0  0  0  0  0  0  0  0  0  0  0  0
    0.1771   -2.2359   -0.2844 N   0  0  0  0  0  0  0  0  0  0  0  0
   -0.6981   -2.9930   -1.0182 N   0  0  0  0  0  0  0  0  0  0  0  0
   -1.4855   -2.1778   -1.6946 C   0  0  0  0  0  0  0  0  0  0  0  0
   -2.5661   -2.6050   -2.6334 C   0  0  0  0  0  0  0  0  0  0  0  0
   -3.9455   -2.4325   -2.0600 C   0  0  0  0  0  0  0  0  0  0  0  0
   -4.4231   -2.8374   -0.8272 C   0  0  0  0  0  0  0  0  0  0  0  0
   -5.7945   -2.5021   -0.6384 C   0  0  0  0  0  0  0  0  0  0  0  0
   -6.3255   -1.8668   -1.7378 C   0  0  0  0  0  0  0  0  0  0  0  0
   -5.1754   -1.6775   -2.9876 S   0  0  0  0  0  0  0  0  0  0  0  0
   -1.1358   -0.8751   -1.3993 N   0  0  0  0  0  0  0  0  0  0  0  0
   -1.7740    0.3331   -1.8857 C   0  0  0  0  0  0  0  0  0  0  0  0
   -1.3047    0.6802   -3.2492 C   0  0  0  0  0  0  0  0  0  0  0  0
   -1.9328    0.7737   -4.4747 C   0  0  0  0  0  0  0  0  0  0  0  0
   -0.9376    1.1608   -5.4047 C   0  0  0  0  0  0  0  0  0  0  0  0
    0.2287    1.2881   -4.6884 C   0  0  0  0  0  0  0  0  0  0  0  0
    0.0140    1.0036   -3.3793 O   0  0  0  0  0  0  0  0  0  0  0  0
    2.9017    0.6631    2.5951 N   0  0  0  0  0  0  0  0  0  0  0  0
    3.5155    1.4464    3.5940 C   0  0  0  0  0  0  0  0  0  0  0  0
    2.9619    1.3810    4.8811 C   0  0  0  0  0  0  0  0  0  0  0  0
    3.5054    2.1226    5.9331 C   0  0  0  0  0  0  0  0  0  0  0  0
    4.6106    2.9383    5.7069 C   0  0  0  0  0  0  0  0  0  0  0  0
    5.1650    3.0053    4.4306 C   0  0  0  0  0  0  0  0  0  0  0  0
    6.5332    4.0150    4.1559 Cl  0  0  0  0  0  0  0  0  0  0  0  0
    4.6253    2.2650    3.3760 C   0  0  0  0  0  0  0  0  0  0  0  0
    2.2633   -1.3131    1.0684 H   0  0  0  0  0  0  0  0  0  0  0  0
    2.8459   -0.6369   -0.4655 H   0  0  0  0  0  0  0  0  0  0  0  0
   -2.4569   -2.0721   -3.5843 H   0  0  0  0  0  0  0  0  0  0  0  0
   -2.4271   -3.6684   -2.8679 H   0  0  0  0  0  0  0  0  0  0  0  0
   -3.8123   -3.3497   -0.0909 H   0  0  0  0  0  0  0  0  0  0  0  0
   -6.3638   -2.7232    0.2561 H   0  0  0  0  0  0  0  0  0  0  0  0
   -7.3380   -1.5099   -1.8704 H   0  0  0  0  0  0  0  0  0  0  0  0
   -2.8552    0.1740   -1.8691 H   0  0  0  0  0  0  0  0  0  0  0  0
   -1.5761    1.1554   -1.1925 H   0  0  0  0  0  0  0  0  0  0  0  0
   -2.9790    0.5862   -4.6760 H   0  0  0  0  0  0  0  0  0  0  0  0
   -1.0540    1.3310   -6.4659 H   0  0  0  0  0  0  0  0  0  0  0  0
    1.2429    1.5607   -4.9472 H   0  0  0  0  0  0  0  0  0  0  0  0
    2.0920    0.1256    2.8836 H   0  0  0  0  0  0  0  0  0  0  0  0
    2.0986    0.7516    5.0843 H   0  0  0  0  0  0  0  0  0  0  0  0
    3.0668    2.0632    6.9260 H   0  0  0  0  0  0  0  0  0  0  0  0
    5.0351    3.5163    6.5233 H   0  0  0  0  0  0  0  0  0  0  0  0
    5.0895    2.3464    2.3991 H   0  0  0  0  0  0  0  0  0  0  0  0
  1  2  2  0
  2  3  1  0
  3  4  1  0
  4  5  1  0
  5  6  2  0
  6  7  1  0
  7  8  2  0
  8  9  1  0
  9 10  1  0
 10 11  2  0
 11 12  1  0
 12 13  2  0
 13 14  1  0
  8 15  1  0
 15 16  1  0
 16 17  1  0
 17 18  2  0
 18 19  1  0
 19 20  2  0
 20 21  1  0
  2 22  1  0
 22 23  1  0
 23 24  2  0
 24 25  1  0
 25 26  2  0
 26 27  1  0
 27 28  1  0
 27 29  2  0
 15  5  1  0
 21 17  1  0
 29 23  1  0
 14 10  1  0
  3 30  1  0
  3 31  1  0
  9 32  1  0
  9 33  1  0
 11 34  1  0
 12 35  1  0
 13 36  1  0
 16 37  1  0
 16 38  1  0
 18 39  1  0
 19 40  1  0
 20 41  1  0
 22 42  1  0
 24 43  1  0
 25 44  1  0
 26 45  1  0
 29 46  1  0
M  END
$$$$
