
     RDKit          3D

 51 54  0  0  0  0  0  0  0  0999 V2000
    7.8961    1.7937   -3.0779 N   0  0  0  0  0  0  0  0  0  0  0  0
    8.3542    0.8913   -1.7377 S   0  0  0  0  0  6  0  0  0  0  0  0
    9.1323    1.7837   -0.9107 O   0  0  0  0  0  0  0  0  0  0  0  0
    8.8855   -0.3483   -2.2544 O   0  0  0  0  0  0  0  0  0  0  0  0
    6.7978    0.5730   -0.9618 C   0  0  0  0  0  0  0  0  0  0  0  0
    6.0221   -0.5042   -1.3915 C   0  0  0  0  0  0  0  0  0  0  0  0
    4.8032   -0.7698   -0.7608 C   0  0  0  0  0  0  0  0  0  0  0  0
    4.3571    0.0271    0.3036 C   0  0  0  0  0  0  0  0  0  0  0  0
    3.1200   -0.3165    0.8847 N   0  0  0  0  0  0  0  0  0  0  0  0
    2.4746    0.3098    1.9425 C   0  0  0  0  0  0  0  0  0  0  0  0
    2.8715    1.2957    2.5567 O   0  0  0  0  0  0  0  0  0  0  0  0
    1.1608   -0.3629    2.3049 C   0  0  0  0  0  0  0  0  0  0  0  0
   -0.1496    0.2596    1.2110 S   0  0  0  0  0  0  0  0  0  0  0  0
   -1.4535   -0.7920    1.6624 C   0  0  0  0  0  0  0  0  0  0  0  0
   -1.2875   -1.9248    2.3052 N   0  0  0  0  0  0  0  0  0  0  0  0
   -2.5222   -2.4429    2.5687 N   0  0  0  0  0  0  0  0  0  0  0  0
   -3.4328   -1.6239    2.0725 C   0  0  0  0  0  0  0  0  0  0  0  0
   -4.8939   -1.9387    2.0062 C   0  0  0  0  0  0  0  0  0  0  0  0
   -5.3931   -2.1680    0.6045 C   0  0  0  0  0  0  0  0  0  0  0  0
   -6.2251   -1.3648   -0.1528 C   0  0  0  0  0  0  0  0  0  0  0  0
   -6.4822   -1.9105   -1.4435 C   0  0  0  0  0  0  0  0  0  0  0  0
   -5.8495   -3.1185   -1.6276 C   0  0  0  0  0  0  0  0  0  0  0  0
   -4.9519   -3.5887   -0.2512 S   0  0  0  0  0  0  0  0  0  0  0  0
   -2.8030   -0.5142    1.5162 N   0  0  0  0  0  0  0  0  0  0  0  0
   -3.4170    0.6309    0.9468 C   0  0  0  0  0  0  0  0  0  0  0  0
   -4.4619    1.2712    1.6242 C   0  0  0  0  0  0  0  0  0  0  0  0
   -5.0752    2.3907    1.0584 C   0  0  0  0  0  0  0  0  0  0  0  0
   -4.6498    2.8728   -0.1782 C   0  0  0  0  0  0  0  0  0  0  0  0
   -3.6055    2.2408   -0.8506 C   0  0  0  0  0  0  0  0  0  0  0  0
   -2.9845    1.1224   -0.2909 C   0  0  0  0  0  0  0  0  0  0  0  0
    5.1510    1.0959    0.7285 C   0  0  0  0  0  0  0  0  0  0  0  0
    6.3720    1.3698    0.1017 C   0  0  0  0  0  0  0  0  0  0  0  0
    8.2931    2.7310   -3.0120 H   0  0  0  0  0  0  0  0  0  0  0  0
    8.1512    1.2980   -3.9324 H   0  0  0  0  0  0  0  0  0  0  0  0
    6.3561   -1.1374   -2.2103 H   0  0  0  0  0  0  0  0  0  0  0  0
    4.2116   -1.6123   -1.1119 H   0  0  0  0  0  0  0  0  0  0  0  0
    2.6377   -1.1040    0.4666 H   0  0  0  0  0  0  0  0  0  0  0  0
    0.9216   -0.1363    3.3490 H   0  0  0  0  0  0  0  0  0  0  0  0
    1.2736   -1.4481    2.2086 H   0  0  0  0  0  0  0  0  0  0  0  0
   -5.0838   -2.8447    2.5980 H   0  0  0  0  0  0  0  0  0  0  0  0
   -5.4819   -1.1561    2.4945 H   0  0  0  0  0  0  0  0  0  0  0  0
   -6.6277   -0.4208    0.1956 H   0  0  0  0  0  0  0  0  0  0  0  0
   -7.1020   -1.4405   -2.1976 H   0  0  0  0  0  0  0  0  0  0  0  0
   -5.8737   -3.7521   -2.5037 H   0  0  0  0  0  0  0  0  0  0  0  0
   -4.7861    0.9495    2.6096 H   0  0  0  0  0  0  0  0  0  0  0  0
   -5.8802    2.8961    1.5861 H   0  0  0  0  0  0  0  0  0  0  0  0
   -5.1274    3.7463   -0.6161 H   0  0  0  0  0  0  0  0  0  0  0  0
   -3.2749    2.6178   -1.8156 H   0  0  0  0  0  0  0  0  0  0  0  0
   -2.1958    0.6323   -0.8570 H   0  0  0  0  0  0  0  0  0  0  0  0
    4.8517    1.7390    1.5517 H   0  0  0  0  0  0  0  0  0  0  0  0
    6.9771    2.2027    0.4533 H   0  0  0  0  0  0  0  0  0  0  0  0
  1  2  1  0
  2  3  2  0
  2  4  2  0
  2  5  1  0
  5  6  2  0
  6  7  1  0
  7  8  2  0
  8  9  1  0
  9 10  1  0
 10 11  2  0
 10 12  1  0
 12 13  1  0
 13 14  1  0
 14 15  2  0
 15 16  1  0
 16 17  2  0
 17 18  1  0
 18 19  1  0
 19 20  2  0
 20 21  1  0
 21 22  2  0
 22 23  1  0
 17 24  1  0
 24 25  1  0
 25 26  2  0
 26 27  1  0
 27 28  2  0
 28 29  1  0
 29 30  2  0
  8 31  1  0
 31 32  2  0
 32  5  1  0
 24 14  1  0
 30 25  1  0
 23 19  1  0
  1 33  1  0
  1 34  1  0
  6 35  1  0
  7 36  1  0
  9 37  1  0
 12 38  1  0
 12 39  1  0
 18 40  1  0
 18 41  1  0
 20 42  1  0
 21 43  1  0
 22 44  1  0
 26 45  1  0
 27 46  1  0
 28 47  1  0
 29 48  1  0
 30 49  1  0
 31 50  1  0
 32 51  1  0
M  END
$$$$
