
     RDKit          3D

 61 65  0  0  0  0  0  0  0  0999 V2000
   -8.4347    1.5598   -4.1703 C   0  0  0  0  0  0  0  0  0  0  0  0
   -7.4606    0.9454   -3.2083 C   0  0  0  0  0  0  0  0  0  0  0  0
   -7.8004   -0.2159   -2.5100 C   0  0  0  0  0  0  0  0  0  0  0  0
   -6.8998   -0.7888   -1.6076 C   0  0  0  0  0  0  0  0  0  0  0  0
   -5.6344   -0.2229   -1.3680 C   0  0  0  0  0  0  0  0  0  0  0  0
   -4.6863   -0.8622   -0.4290 C   0  0  0  0  0  0  0  0  0  0  0  0
   -3.3122   -0.8130   -0.5911 C   0  0  0  0  0  0  0  0  0  0  0  0
   -2.5048   -1.4736    0.3358 C   0  0  0  0  0  0  0  0  0  0  0  0
   -1.0402   -1.3949    0.1335 C   0  0  0  0  0  0  0  0  0  0  0  0
   -0.4240   -2.4253   -0.0988 O   0  0  0  0  0  0  0  0  0  0  0  0
   -0.5450   -0.1068    0.2252 N   0  0  0  0  0  0  0  0  0  0  0  0
    0.7741    0.3233   -0.0221 C   0  0  0  0  0  0  0  0  0  0  0  0
    1.8066   -0.5233   -0.4349 C   0  0  0  0  0  0  0  0  0  0  0  0
    3.0792   -0.0097   -0.7117 C   0  0  0  0  0  0  0  0  0  0  0  0
    3.3204    1.3569   -0.5701 C   0  0  0  0  0  0  0  0  0  0  0  0
    4.8959    2.0316   -1.0273 S   0  0  0  0  0  6  0  0  0  0  0  0
    4.6675    3.3866   -1.4867 O   0  0  0  0  0  0  0  0  0  0  0  0
    5.5957    1.0836   -1.8646 O   0  0  0  0  0  0  0  0  0  0  0  0
    5.6686    2.1949    0.4607 N   0  0  0  0  0  0  0  0  0  0  0  0
    6.5547    1.0963    0.8027 C   0  0  0  0  0  0  0  0  0  0  0  0
    6.1648   -0.2029    0.9317 O   0  0  0  0  0  0  0  0  0  0  0  0
    7.2442   -0.9754    1.3198 N   0  0  0  0  0  0  0  0  0  0  0  0
    8.2816   -0.1302    1.4035 C   0  0  0  0  0  0  0  0  0  0  0  0
    9.6200   -0.6316    1.7931 C   0  0  0  0  0  0  0  0  0  0  0  0
    7.8968    1.2074    1.0988 C   0  0  0  0  0  0  0  0  0  0  0  0
    8.7433    2.4264    1.0886 C   0  0  0  0  0  0  0  0  0  0  0  0
    2.3013    2.2141   -0.1496 C   0  0  0  0  0  0  0  0  0  0  0  0
    1.0359    1.6922    0.1291 C   0  0  0  0  0  0  0  0  0  0  0  0
   -3.0603   -2.1912    1.4091 C   0  0  0  0  0  0  0  0  0  0  0  0
   -2.3132   -2.8967    2.3858 C   0  0  0  0  0  0  0  0  0  0  0  0
   -2.9522   -3.5708    3.4219 C   0  0  0  0  0  0  0  0  0  0  0  0
   -4.3379   -3.5486    3.4989 C   0  0  0  0  0  0  0  0  0  0  0  0
   -5.0749   -2.8532    2.5366 C   0  0  0  0  0  0  0  0  0  0  0  0
   -4.4636   -2.1763    1.4926 C   0  0  0  0  0  0  0  0  0  0  0  0
   -5.2437   -1.5306    0.6050 N   0  0  0  0  0  0  0  0  0  0  0  0
   -5.3224    0.9615   -2.0605 C   0  0  0  0  0  0  0  0  0  0  0  0
   -6.2212    1.5400   -2.9645 C   0  0  0  0  0  0  0  0  0  0  0  0
   -9.2062    2.1096   -3.6266 H   0  0  0  0  0  0  0  0  0  0  0  0
   -7.9376    2.2519   -4.8553 H   0  0  0  0  0  0  0  0  0  0  0  0
   -8.9093    0.7854   -4.7791 H   0  0  0  0  0  0  0  0  0  0  0  0
   -8.7670   -0.6897   -2.6674 H   0  0  0  0  0  0  0  0  0  0  0  0
   -7.1914   -1.7012   -1.0885 H   0  0  0  0  0  0  0  0  0  0  0  0
   -2.8674   -0.3112   -1.4389 H   0  0  0  0  0  0  0  0  0  0  0  0
   -1.2014    0.6133    0.5006 H   0  0  0  0  0  0  0  0  0  0  0  0
    1.6517   -1.5892   -0.5711 H   0  0  0  0  0  0  0  0  0  0  0  0
    3.8626   -0.6837   -1.0528 H   0  0  0  0  0  0  0  0  0  0  0  0
    6.0257    3.1424    0.5784 H   0  0  0  0  0  0  0  0  0  0  0  0
    9.6293   -1.7154    1.9047 H   0  0  0  0  0  0  0  0  0  0  0  0
   10.3682   -0.3602    1.0371 H   0  0  0  0  0  0  0  0  0  0  0  0
    9.9223   -0.1949    2.7496 H   0  0  0  0  0  0  0  0  0  0  0  0
    9.7773    2.2051    1.3733 H   0  0  0  0  0  0  0  0  0  0  0  0
    8.3539    3.1678    1.7914 H   0  0  0  0  0  0  0  0  0  0  0  0
    8.7587    2.8716    0.0885 H   0  0  0  0  0  0  0  0  0  0  0  0
    2.4767    3.2828   -0.0540 H   0  0  0  0  0  0  0  0  0  0  0  0
    0.2533    2.3761    0.4485 H   0  0  0  0  0  0  0  0  0  0  0  0
   -1.2250   -2.9345    2.3366 H   0  0  0  0  0  0  0  0  0  0  0  0
   -2.3677   -4.1118    4.1653 H   0  0  0  0  0  0  0  0  0  0  0  0
   -4.8511   -4.0711    4.3010 H   0  0  0  0  0  0  0  0  0  0  0  0
   -6.1609   -2.8415    2.6027 H   0  0  0  0  0  0  0  0  0  0  0  0
   -4.3733    1.4647   -1.8998 H   0  0  0  0  0  0  0  0  0  0  0  0
   -5.9403    2.4577   -3.4783 H   0  0  0  0  0  0  0  0  0  0  0  0
  1  2  1  0
  2  3  2  0
  3  4  1  0
  4  5  2  0
  5  6  1  0
  6  7  2  0
  7  8  1  0
  8  9  1  0
  9 10  2  0
  9 11  1  0
 11 12  1  0
 12 13  2  0
 13 14  1  0
 14 15  2  0
 15 16  1  0
 16 17  2  0
 16 18  2  0
 16 19  1  0
 19 20  1  0
 20 21  1  0
 21 22  1  0
 22 23  2  0
 23 24  1  0
 23 25  1  0
 25 26  1  0
 15 27  1  0
 27 28  2  0
  8 29  2  0
 29 30  1  0
 30 31  2  0
 31 32  1  0
 32 33  2  0
 33 34  1  0
 34 35  2  0
  5 36  1  0
 36 37  2  0
 37  2  1  0
 35  6  1  0
 28 12  1  0
 34 29  1  0
 25 20  2  0
  1 38  1  0
  1 39  1  0
  1 40  1  0
  3 41  1  0
  4 42  1  0
  7 43  1  0
 11 44  1  0
 13 45  1  0
 14 46  1  0
 19 47  1  0
 24 48  1  0
 24 49  1  0
 24 50  1  0
 26 51  1  0
 26 52  1  0
 26 53  1  0
 27 54  1  0
 28 55  1  0
 30 56  1  0
 31 57  1  0
 32 58  1  0
 33 59  1  0
 36 60  1  0
 37 61  1  0
M  END
$$$$
