
     RDKit          3D

 52 55  0  0  0  0  0  0  0  0999 V2000
   -1.8924   -3.2030   -1.7545 C   0  0  0  0  0  0  0  0  0  0  0  0
   -2.3119   -1.7854   -2.0945 C   0  0  0  0  0  0  0  0  0  0  0  0
   -2.7693   -1.1104   -0.9155 O   0  0  0  0  0  0  0  0  0  0  0  0
   -1.8202   -0.5117   -0.1474 C   0  0  0  0  0  0  0  0  0  0  0  0
   -0.6199   -0.5131   -0.4129 O   0  0  0  0  0  0  0  0  0  0  0  0
   -2.3546    0.1445    1.0504 C   0  0  0  0  0  0  0  0  0  0  0  0
   -3.7337    0.2278    1.4803 C   0  0  0  0  0  0  0  0  0  0  0  0
   -4.9206   -0.3206    0.8445 C   0  0  0  0  0  0  0  0  0  0  0  0
   -5.3062   -1.6411    1.1015 C   0  0  0  0  0  0  0  0  0  0  0  0
   -6.4435   -2.1676    0.4872 C   0  0  0  0  0  0  0  0  0  0  0  0
   -7.1970   -1.3779   -0.3815 C   0  0  0  0  0  0  0  0  0  0  0  0
   -6.8163   -0.0605   -0.6376 C   0  0  0  0  0  0  0  0  0  0  0  0
   -5.6794    0.4699   -0.0257 C   0  0  0  0  0  0  0  0  0  0  0  0
   -3.8676    0.9335    2.6590 C   0  0  0  0  0  0  0  0  0  0  0  0
   -2.3715    1.4873    3.2494 S   0  0  0  0  0  0  0  0  0  0  0  0
   -1.5206    0.7942    1.9568 C   0  0  0  0  0  0  0  0  0  0  0  0
   -0.1385    0.9005    1.8531 N   0  0  0  0  0  0  0  0  0  0  0  0
    0.7447    1.4916    2.7466 C   0  0  0  0  0  0  0  0  0  0  0  0
    0.4366    2.0108    3.8143 O   0  0  0  0  0  0  0  0  0  0  0  0
    2.1538    1.4351    2.3026 C   0  0  0  0  0  0  0  0  0  0  0  0
    2.6963    1.0522    1.0429 C   0  0  0  0  0  0  0  0  0  0  0  0
    4.0599    1.1849    1.1715 C   0  0  0  0  0  0  0  0  0  0  0  0
    5.2207    0.9759    0.3033 C   0  0  0  0  0  0  0  0  0  0  0  0
    6.4849    0.7625    0.8881 C   0  0  0  0  0  0  0  0  0  0  0  0
    7.6192    0.5462    0.1057 C   0  0  0  0  0  0  0  0  0  0  0  0
    7.5101    0.5379   -1.2787 C   0  0  0  0  0  0  0  0  0  0  0  0
    6.2694    0.7496   -1.8827 C   0  0  0  0  0  0  0  0  0  0  0  0
    5.1219    0.9749   -1.1069 C   0  0  0  0  0  0  0  0  0  0  0  0
    3.8786    1.1986   -1.6462 O   0  0  0  0  0  0  0  0  0  0  0  0
    3.7923    1.4028   -3.0511 C   0  0  0  0  0  0  0  0  0  0  0  0
    4.3233    1.6212    2.4356 O   0  0  0  0  0  0  0  0  0  0  0  0
    3.1488    1.7790    3.1383 N   0  0  0  0  0  0  0  0  0  0  0  0
   -1.0514   -3.2072   -1.0540 H   0  0  0  0  0  0  0  0  0  0  0  0
   -2.7135   -3.7405   -1.2688 H   0  0  0  0  0  0  0  0  0  0  0  0
   -1.5981   -3.7475   -2.6564 H   0  0  0  0  0  0  0  0  0  0  0  0
   -1.5012   -1.2314   -2.5809 H   0  0  0  0  0  0  0  0  0  0  0  0
   -3.1523   -1.8087   -2.7958 H   0  0  0  0  0  0  0  0  0  0  0  0
   -4.7257   -2.2643    1.7775 H   0  0  0  0  0  0  0  0  0  0  0  0
   -6.7427   -3.1932    0.6872 H   0  0  0  0  0  0  0  0  0  0  0  0
   -8.0834   -1.7890   -0.8579 H   0  0  0  0  0  0  0  0  0  0  0  0
   -7.4061    0.5539   -1.3130 H   0  0  0  0  0  0  0  0  0  0  0  0
   -5.3909    1.4978   -0.2318 H   0  0  0  0  0  0  0  0  0  0  0  0
   -4.7757    1.1505    3.2067 H   0  0  0  0  0  0  0  0  0  0  0  0
    0.2479    0.4447    1.0310 H   0  0  0  0  0  0  0  0  0  0  0  0
    2.1754    0.7267    0.1555 H   0  0  0  0  0  0  0  0  0  0  0  0
    6.5972    0.7552    1.9716 H   0  0  0  0  0  0  0  0  0  0  0  0
    8.5835    0.3824    0.5805 H   0  0  0  0  0  0  0  0  0  0  0  0
    8.3914    0.3664   -1.8922 H   0  0  0  0  0  0  0  0  0  0  0  0
    6.2323    0.7297   -2.9668 H   0  0  0  0  0  0  0  0  0  0  0  0
    4.4227    2.2391   -3.3719 H   0  0  0  0  0  0  0  0  0  0  0  0
    2.7549    1.6598   -3.2868 H   0  0  0  0  0  0  0  0  0  0  0  0
    4.0385    0.4859   -3.5967 H   0  0  0  0  0  0  0  0  0  0  0  0
  1  2  1  0
  2  3  1  0
  3  4  1  0
  4  5  2  0
  4  6  1  0
  6  7  1  0
  7  8  1  0
  8  9  2  0
  9 10  1  0
 10 11  2  0
 11 12  1  0
 12 13  2  0
  7 14  2  0
 14 15  1  0
 15 16  1  0
 16 17  1  0
 17 18  1  0
 18 19  2  0
 18 20  1  0
 20 21  1  0
 21 22  2  0
 22 23  1  0
 23 24  2  0
 24 25  1  0
 25 26  2  0
 26 27  1  0
 27 28  2  0
 28 29  1  0
 29 30  1  0
 22 31  1  0
 31 32  1  0
 16  6  2  0
 32 20  2  0
 13  8  1  0
 28 23  1  0
  1 33  1  0
  1 34  1  0
  1 35  1  0
  2 36  1  0
  2 37  1  0
  9 38  1  0
 10 39  1  0
 11 40  1  0
 12 41  1  0
 13 42  1  0
 14 43  1  0
 17 44  1  0
 21 45  1  0
 24 46  1  0
 25 47  1  0
 26 48  1  0
 27 49  1  0
 30 50  1  0
 30 51  1  0
 30 52  1  0
M  END
$$$$
