
     RDKit          3D

 46 48  0  0  0  0  0  0  0  0999 V2000
   -2.1456   -1.4835   -2.3134 C   0  0  0  0  0  0  0  0  0  0  0  0
   -2.0689   -1.7112   -0.8152 C   0  0  0  0  0  0  0  0  0  0  0  0
   -2.6227   -0.5279   -0.0898 N   0  0  0  0  0  4  0  0  0  0  0  0
   -1.7683    0.4502    0.3388 C   0  0  0  0  0  0  0  0  0  0  0  0
   -0.3375    0.4081    0.0088 C   0  0  0  0  0  0  0  0  0  0  0  0
    0.6065    0.2205    0.9456 C   0  0  0  0  0  0  0  0  0  0  0  0
    2.0507    0.2010    0.6625 C   0  0  0  0  0  0  0  0  0  0  0  0
    2.5787   -0.3488   -0.5101 C   0  0  0  0  0  0  0  0  0  0  0  0
    3.9605   -0.3724   -0.7274 C   0  0  0  0  0  0  0  0  0  0  0  0
    4.8368    0.1447    0.2297 C   0  0  0  0  0  0  0  0  0  0  0  0
    6.2023    0.1637    0.1030 O   0  0  0  0  0  0  0  0  0  0  0  0
    6.7682   -0.3531   -1.0928 C   0  0  0  0  0  0  0  0  0  0  0  0
    4.3182    0.6862    1.4218 C   0  0  0  0  0  0  0  0  0  0  0  0
    5.2438    1.1667    2.3138 O   0  0  0  0  0  0  0  0  0  0  0  0
    4.7754    1.7299    3.5299 C   0  0  0  0  0  0  0  0  0  0  0  0
    2.9325    0.7047    1.6302 C   0  0  0  0  0  0  0  0  0  0  0  0
   -2.2396    1.5370    1.0763 C   0  0  0  0  0  0  0  0  0  0  0  0
   -3.5829    1.6378    1.3834 C   0  0  0  0  0  0  0  0  0  0  0  0
   -4.4592    0.6564    0.9387 C   0  0  0  0  0  0  0  0  0  0  0  0
   -5.8255    0.7638    1.2384 C   0  0  0  0  0  0  0  0  0  0  0  0
   -6.7272   -0.1996    0.7965 C   0  0  0  0  0  0  0  0  0  0  0  0
   -6.2737   -1.2769    0.0482 C   0  0  0  0  0  0  0  0  0  0  0  0
   -4.9135   -1.3981   -0.2569 C   0  0  0  0  0  0  0  0  0  0  0  0
   -3.9711   -0.4456    0.1818 C   0  0  0  0  0  0  0  0  0  0  0  0
   -1.5751   -0.5989   -2.6118 H   0  0  0  0  0  0  0  0  0  0  0  0
   -3.1767   -1.3352   -2.6472 H   0  0  0  0  0  0  0  0  0  0  0  0
   -1.7373   -2.3469   -2.8475 H   0  0  0  0  0  0  0  0  0  0  0  0
   -2.6135   -2.6068   -0.5039 H   0  0  0  0  0  0  0  0  0  0  0  0
   -1.0375   -1.8879   -0.4980 H   0  0  0  0  0  0  0  0  0  0  0  0
   -0.0829    0.5674   -1.0356 H   0  0  0  0  0  0  0  0  0  0  0  0
    0.3409    0.0946    1.9952 H   0  0  0  0  0  0  0  0  0  0  0  0
    1.9353   -0.7784   -1.2726 H   0  0  0  0  0  0  0  0  0  0  0  0
    4.3242   -0.8071   -1.6530 H   0  0  0  0  0  0  0  0  0  0  0  0
    7.8548   -0.2442   -1.0234 H   0  0  0  0  0  0  0  0  0  0  0  0
    6.5472   -1.4196   -1.2045 H   0  0  0  0  0  0  0  0  0  0  0  0
    6.4320    0.2146   -1.9666 H   0  0  0  0  0  0  0  0  0  0  0  0
    4.1497    2.6087    3.3426 H   0  0  0  0  0  0  0  0  0  0  0  0
    4.2425    0.9851    4.1300 H   0  0  0  0  0  0  0  0  0  0  0  0
    5.6466    2.0585    4.1047 H   0  0  0  0  0  0  0  0  0  0  0  0
    2.5229    1.1193    2.5458 H   0  0  0  0  0  0  0  0  0  0  0  0
   -1.5579    2.3189    1.4099 H   0  0  0  0  0  0  0  0  0  0  0  0
   -3.9364    2.4920    1.9606 H   0  0  0  0  0  0  0  0  0  0  0  0
   -6.2077    1.6032    1.8197 H   0  0  0  0  0  0  0  0  0  0  0  0
   -7.7862   -0.1055    1.0336 H   0  0  0  0  0  0  0  0  0  0  0  0
   -6.9833   -2.0258   -0.3022 H   0  0  0  0  0  0  0  0  0  0  0  0
   -4.6395   -2.2600   -0.8571 H   0  0  0  0  0  0  0  0  0  0  0  0
  1  2  1  0
  2  3  1  0
  3  4  2  0
  4  5  1  0
  5  6  2  3
  6  7  1  0
  7  8  2  0
  8  9  1  0
  9 10  2  0
 10 11  1  0
 11 12  1  0
 10 13  1  0
 13 14  1  0
 14 15  1  0
 13 16  2  0
  4 17  1  0
 17 18  2  0
 18 19  1  0
 19 20  2  0
 20 21  1  0
 21 22  2  0
 22 23  1  0
 23 24  2  0
 24  3  1  0
 16  7  1  0
 24 19  1  0
  1 25  1  0
  1 26  1  0
  1 27  1  0
  2 28  1  0
  2 29  1  0
  5 30  1  0
  6 31  1  0
  8 32  1  0
  9 33  1  0
 12 34  1  0
 12 35  1  0
 12 36  1  0
 15 37  1  0
 15 38  1  0
 15 39  1  0
 16 40  1  0
 17 41  1  0
 18 42  1  0
 20 43  1  0
 21 44  1  0
 22 45  1  0
 23 46  1  0
M  CHG  1   3   1
M  END
$$$$
