
     RDKit          3D

 48 50  0  0  0  0  0  0  0  0999 V2000
    8.3096    1.2619    1.0940 C   0  0  0  0  0  0  0  0  0  0  0  0
    7.6872    0.0114    1.3643 O   0  0  0  0  0  0  0  0  0  0  0  0
    6.3778   -0.1226    0.9961 C   0  0  0  0  0  0  0  0  0  0  0  0
    5.8157   -1.3680    1.2846 C   0  0  0  0  0  0  0  0  0  0  0  0
    4.4836   -1.6519    0.9626 C   0  0  0  0  0  0  0  0  0  0  0  0
    3.6919   -0.6847    0.3414 C   0  0  0  0  0  0  0  0  0  0  0  0
    2.3832   -0.8609   -0.0192 O   0  0  0  0  0  0  0  0  0  0  0  0
    1.7757   -2.1218    0.2538 C   0  0  0  0  0  0  0  0  0  0  0  0
    0.3854   -2.0510   -0.2509 C   0  0  0  0  0  0  0  0  0  0  0  0
   -0.3866   -1.0823   -0.8459 C   0  0  0  0  0  0  0  0  0  0  0  0
   -1.6444   -1.7039   -1.0796 C   0  0  0  0  0  0  0  0  0  0  0  0
   -2.8595   -1.1499   -1.6986 C   0  0  0  0  0  0  0  0  0  0  0  0
   -3.8701   -1.8195   -1.9053 O   0  0  0  0  0  0  0  0  0  0  0  0
   -2.7900    0.1959   -2.0404 N   0  0  0  0  0  0  0  0  0  0  0  0
   -3.9961    0.9523   -2.3708 C   0  0  0  0  0  0  0  0  0  0  0  0
   -3.7623    1.7379   -3.6596 C   0  0  0  0  0  0  0  0  0  0  0  0
   -4.3913    1.9095   -1.2284 C   0  0  0  0  0  0  0  0  0  0  0  0
   -4.5036    1.2154    0.1046 C   0  0  0  0  0  0  0  0  0  0  0  0
   -5.6466    0.4949    0.4399 C   0  0  0  0  0  0  0  0  0  0  0  0
   -5.6811   -0.1755    1.6589 C   0  0  0  0  0  0  0  0  0  0  0  0
   -4.5796   -0.1128    2.5031 C   0  0  0  0  0  0  0  0  0  0  0  0
   -3.4817    0.6228    2.0918 C   0  0  0  0  0  0  0  0  0  0  0  0
   -3.4163    1.2845    0.9152 N   0  0  0  0  0  0  0  0  0  0  0  0
   -1.6123   -2.9759   -0.6410 N   0  0  0  0  0  0  0  0  0  0  0  0
   -0.3506   -3.1844   -0.1266 O   0  0  0  0  0  0  0  0  0  0  0  0
    4.2619    0.5668    0.0550 C   0  0  0  0  0  0  0  0  0  0  0  0
    3.3378    1.8140   -0.7159 Cl  0  0  0  0  0  0  0  0  0  0  0  0
    5.5945    0.8485    0.3795 C   0  0  0  0  0  0  0  0  0  0  0  0
    9.3463    1.2008    1.4389 H   0  0  0  0  0  0  0  0  0  0  0  0
    7.8214    2.0715    1.6460 H   0  0  0  0  0  0  0  0  0  0  0  0
    8.3278    1.4702    0.0190 H   0  0  0  0  0  0  0  0  0  0  0  0
    6.4249   -2.1308    1.7668 H   0  0  0  0  0  0  0  0  0  0  0  0
    4.1065   -2.6385    1.2121 H   0  0  0  0  0  0  0  0  0  0  0  0
    1.7599   -2.3106    1.3332 H   0  0  0  0  0  0  0  0  0  0  0  0
    2.3088   -2.9242   -0.2691 H   0  0  0  0  0  0  0  0  0  0  0  0
   -0.0714   -0.0766   -1.0786 H   0  0  0  0  0  0  0  0  0  0  0  0
   -2.0251    0.7322   -1.6534 H   0  0  0  0  0  0  0  0  0  0  0  0
   -4.8230    0.2529   -2.5450 H   0  0  0  0  0  0  0  0  0  0  0  0
   -3.5029    1.0639   -4.4839 H   0  0  0  0  0  0  0  0  0  0  0  0
   -4.6604    2.2944   -3.9466 H   0  0  0  0  0  0  0  0  0  0  0  0
   -2.9374    2.4517   -3.5467 H   0  0  0  0  0  0  0  0  0  0  0  0
   -5.3397    2.4090   -1.4623 H   0  0  0  0  0  0  0  0  0  0  0  0
   -3.6406    2.7057   -1.1367 H   0  0  0  0  0  0  0  0  0  0  0  0
   -6.4906    0.4357   -0.2392 H   0  0  0  0  0  0  0  0  0  0  0  0
   -6.5568   -0.7538    1.9416 H   0  0  0  0  0  0  0  0  0  0  0  0
   -4.5748   -0.6318    3.4547 H   0  0  0  0  0  0  0  0  0  0  0  0
   -2.5959    0.6986    2.7156 H   0  0  0  0  0  0  0  0  0  0  0  0
    5.9907    1.8290    0.1396 H   0  0  0  0  0  0  0  0  0  0  0  0
  1  2  1  0
  2  3  1  0
  3  4  2  0
  4  5  1  0
  5  6  2  0
  6  7  1  0
  7  8  1  0
  8  9  1  0
  9 10  2  0
 10 11  1  0
 11 12  1  0
 12 13  2  0
 12 14  1  0
 14 15  1  0
 15 16  1  0
 15 17  1  0
 17 18  1  0
 18 19  2  0
 19 20  1  0
 20 21  2  0
 21 22  1  0
 22 23  2  0
 11 24  2  0
 24 25  1  0
  6 26  1  0
 26 27  1  0
 26 28  2  0
 28  3  1  0
 25  9  1  0
 23 18  1  0
  1 29  1  0
  1 30  1  0
  1 31  1  0
  4 32  1  0
  5 33  1  0
  8 34  1  0
  8 35  1  0
 10 36  1  0
 14 37  1  0
 15 38  1  0
 16 39  1  0
 16 40  1  0
 16 41  1  0
 17 42  1  0
 17 43  1  0
 19 44  1  0
 20 45  1  0
 21 46  1  0
 22 47  1  0
 28 48  1  0
M  END
$$$$
