
     RDKit          3D

 55 60  0  0  0  0  0  0  0  0999 V2000
    3.0123   -1.1371    3.3609 O   0  0  0  0  0  0  0  0  0  0  0  0
    3.3392   -0.7602    2.2372 C   0  0  0  0  0  0  0  0  0  0  0  0
    4.7315   -0.4437    1.9554 C   0  0  0  0  0  0  0  0  0  0  0  0
    5.6988    0.0909    2.8565 C   0  0  0  0  0  0  0  0  0  0  0  0
    6.8814    0.1759    2.1615 C   0  0  0  0  0  0  0  0  0  0  0  0
    6.7218   -0.2966    0.8993 O   0  0  0  0  0  0  0  0  0  0  0  0
    5.4274   -0.6906    0.7881 C   0  0  0  0  0  0  0  0  0  0  0  0
    2.4140   -0.6689    1.1816 N   0  0  0  0  0  0  0  0  0  0  0  0
    1.0759   -1.1647    1.4698 C   0  0  0  0  0  0  0  0  0  0  0  0
    0.3163   -1.5078    0.1936 C   0  0  0  0  0  0  0  0  0  0  0  0
    0.2874   -0.3871   -0.8801 C   0  0  0  0  0  0  0  0  0  0  0  0
    1.7490    0.1210   -1.0500 C   0  0  0  0  0  0  0  0  0  0  0  0
    2.4494    0.4621    0.2589 C   0  0  0  0  0  0  0  0  0  0  0  0
   -0.0958   -1.0853   -2.1027 O   0  0  0  0  0  0  0  0  0  0  0  0
   -0.3621   -0.2998   -3.1890 C   0  0  0  0  0  0  0  0  0  0  0  0
   -0.3350   -0.9339   -4.4314 C   0  0  0  0  0  0  0  0  0  0  0  0
   -0.5798   -0.1986   -5.5924 C   0  0  0  0  0  0  0  0  0  0  0  0
   -0.8550    1.1627   -5.5010 C   0  0  0  0  0  0  0  0  0  0  0  0
   -1.0879    1.8623   -6.6182 F   0  0  0  0  0  0  0  0  0  0  0  0
   -0.9006    1.8040   -4.2700 C   0  0  0  0  0  0  0  0  0  0  0  0
   -0.6628    1.0602   -3.1120 C   0  0  0  0  0  0  0  0  0  0  0  0
   -0.7457    1.6932   -1.7826 C   0  0  0  0  0  0  0  0  0  0  0  0
   -0.8365    2.9130   -1.6977 O   0  0  0  0  0  0  0  0  0  0  0  0
   -0.7585    0.7322   -0.5957 C   0  0  0  0  0  0  0  0  0  0  0  0
   -2.2002    0.2589   -0.4197 C   0  0  0  0  0  0  0  0  0  0  0  0
   -2.3553    0.4822    1.0419 C   0  0  0  0  0  0  0  0  0  0  0  0
   -3.5309   -0.0143    1.7946 C   0  0  0  0  0  0  0  0  0  0  0  0
   -4.6103   -0.6266    1.1465 C   0  0  0  0  0  0  0  0  0  0  0  0
   -5.7021   -1.0880    1.8898 C   0  0  0  0  0  0  0  0  0  0  0  0
   -5.7159   -0.9372    3.2758 C   0  0  0  0  0  0  0  0  0  0  0  0
   -7.0607   -1.5077    4.1832 Cl  0  0  0  0  0  0  0  0  0  0  0  0
   -4.6476   -0.3265    3.9281 C   0  0  0  0  0  0  0  0  0  0  0  0
   -3.5559    0.1358    3.1881 C   0  0  0  0  0  0  0  0  0  0  0  0
   -1.3898    1.1399    1.5950 N   0  0  0  0  0  0  0  0  0  0  0  0
   -0.4518    1.4624    0.5904 O   0  0  0  0  0  0  0  0  0  0  0  0
    5.5372    0.3759    3.8873 H   0  0  0  0  0  0  0  0  0  0  0  0
    7.8760    0.5180    2.4120 H   0  0  0  0  0  0  0  0  0  0  0  0
    5.1566   -1.1261   -0.1636 H   0  0  0  0  0  0  0  0  0  0  0  0
    1.1516   -2.0715    2.0823 H   0  0  0  0  0  0  0  0  0  0  0  0
    0.5595   -0.4206    2.0804 H   0  0  0  0  0  0  0  0  0  0  0  0
    0.7979   -2.3912   -0.2521 H   0  0  0  0  0  0  0  0  0  0  0  0
   -0.6944   -1.8477    0.4435 H   0  0  0  0  0  0  0  0  0  0  0  0
    2.3295   -0.6610   -1.5608 H   0  0  0  0  0  0  0  0  0  0  0  0
    1.7992    0.9895   -1.7157 H   0  0  0  0  0  0  0  0  0  0  0  0
    3.4729    0.7730    0.0420 H   0  0  0  0  0  0  0  0  0  0  0  0
    1.9855    1.3179    0.7600 H   0  0  0  0  0  0  0  0  0  0  0  0
   -0.1115   -1.9961   -4.4990 H   0  0  0  0  0  0  0  0  0  0  0  0
   -0.5541   -0.6765   -6.5675 H   0  0  0  0  0  0  0  0  0  0  0  0
   -1.1275    2.8655   -4.2237 H   0  0  0  0  0  0  0  0  0  0  0  0
   -2.3582   -0.7856   -0.6979 H   0  0  0  0  0  0  0  0  0  0  0  0
   -2.9291    0.8836   -0.9482 H   0  0  0  0  0  0  0  0  0  0  0  0
   -4.6326   -0.7508    0.0678 H   0  0  0  0  0  0  0  0  0  0  0  0
   -6.5395   -1.5613    1.3826 H   0  0  0  0  0  0  0  0  0  0  0  0
   -4.6558   -0.2047    5.0084 H   0  0  0  0  0  0  0  0  0  0  0  0
   -2.7273    0.6140    3.7085 H   0  0  0  0  0  0  0  0  0  0  0  0
  1  2  2  0
  2  3  1  0
  3  4  1  0
  4  5  2  0
  5  6  1  0
  6  7  1  0
  2  8  1  0
  8  9  1  0
  9 10  1  0
 10 11  1  0
 11 12  1  0
 12 13  1  0
 11 14  1  0
 14 15  1  0
 15 16  2  0
 16 17  1  0
 17 18  2  0
 18 19  1  0
 18 20  1  0
 20 21  2  0
 21 22  1  0
 22 23  2  0
 22 24  1  0
 24 25  1  0
 25 26  1  0
 26 27  1  0
 27 28  2  0
 28 29  1  0
 29 30  2  0
 30 31  1  0
 30 32  1  0
 32 33  2  0
 26 34  2  0
 34 35  1  0
  7  3  2  0
 13  8  1  0
 21 15  1  0
 35 24  1  0
 24 11  1  0
 33 27  1  0
  4 36  1  0
  5 37  1  0
  7 38  1  0
  9 39  1  0
  9 40  1  0
 10 41  1  0
 10 42  1  0
 12 43  1  0
 12 44  1  0
 13 45  1  0
 13 46  1  0
 16 47  1  0
 17 48  1  0
 20 49  1  0
 25 50  1  0
 25 51  1  0
 28 52  1  0
 29 53  1  0
 32 54  1  0
 33 55  1  0
M  END
$$$$
