
     RDKit          3D

 57 60  0  0  0  0  0  0  0  0999 V2000
   -7.9694    3.4077    1.2735 C   0  0  0  0  0  0  0  0  0  0  0  0
   -7.4331    2.3087    2.1778 C   0  0  0  0  0  0  0  0  0  0  0  0
   -6.2882    1.5657    1.5395 C   0  0  0  0  0  0  0  0  0  0  0  0
   -4.9673    1.9677    1.7570 C   0  0  0  0  0  0  0  0  0  0  0  0
   -3.9054    1.2848    1.1506 C   0  0  0  0  0  0  0  0  0  0  0  0
   -4.1283    0.1818    0.3070 C   0  0  0  0  0  0  0  0  0  0  0  0
   -3.0217   -0.5570   -0.3373 C   0  0  0  0  0  0  0  0  0  0  0  0
   -1.7702   -0.6971    0.2358 C   0  0  0  0  0  0  0  0  0  0  0  0
   -0.7935   -1.4109   -0.4603 C   0  0  0  0  0  0  0  0  0  0  0  0
    0.5426   -1.4792    0.1758 C   0  0  0  0  0  0  0  0  0  0  0  0
    0.6178   -1.9296    1.3109 O   0  0  0  0  0  0  0  0  0  0  0  0
    1.5609   -0.9517   -0.5951 N   0  0  0  0  0  0  0  0  0  0  0  0
    2.9333   -0.9007   -0.2785 C   0  0  0  0  0  0  0  0  0  0  0  0
    3.4853   -1.4487    0.8827 C   0  0  0  0  0  0  0  0  0  0  0  0
    4.8611   -1.3657    1.1243 C   0  0  0  0  0  0  0  0  0  0  0  0
    5.6883   -0.7217    0.2026 C   0  0  0  0  0  0  0  0  0  0  0  0
    7.4366   -0.6470    0.4922 S   0  0  0  0  0  6  0  0  0  0  0  0
    7.7840   -1.7645    1.3465 O   0  0  0  0  0  0  0  0  0  0  0  0
    8.1204   -0.4370   -0.7634 O   0  0  0  0  0  0  0  0  0  0  0  0
    7.6088    0.7000    1.4476 N   0  0  0  0  0  0  0  0  0  0  0  0
    7.3455    2.0141    1.0479 C   0  0  0  0  0  0  0  0  0  0  0  0
    7.6603    3.0447    2.0950 C   0  0  0  0  0  0  0  0  0  0  0  0
    6.8729    2.3082   -0.0398 O   0  0  0  0  0  0  0  0  0  0  0  0
    5.1546   -0.1873   -0.9702 C   0  0  0  0  0  0  0  0  0  0  0  0
    3.7794   -0.2736   -1.2039 C   0  0  0  0  0  0  0  0  0  0  0  0
   -1.0764   -2.0249   -1.6992 C   0  0  0  0  0  0  0  0  0  0  0  0
   -0.1730   -2.8311   -2.4404 C   0  0  0  0  0  0  0  0  0  0  0  0
   -0.5426   -3.3868   -3.6635 C   0  0  0  0  0  0  0  0  0  0  0  0
   -1.8169   -3.1560   -4.1596 C   0  0  0  0  0  0  0  0  0  0  0  0
   -2.7158   -2.3818   -3.4226 C   0  0  0  0  0  0  0  0  0  0  0  0
   -2.3738   -1.8200   -2.1998 C   0  0  0  0  0  0  0  0  0  0  0  0
   -3.3051   -1.1060   -1.5455 N   0  0  0  0  0  0  0  0  0  0  0  0
   -5.4651   -0.1967    0.0876 C   0  0  0  0  0  0  0  0  0  0  0  0
   -6.5293    0.4808    0.6927 C   0  0  0  0  0  0  0  0  0  0  0  0
   -8.7968    3.9306    1.7635 H   0  0  0  0  0  0  0  0  0  0  0  0
   -8.3397    2.9991    0.3274 H   0  0  0  0  0  0  0  0  0  0  0  0
   -7.1927    4.1437    1.0399 H   0  0  0  0  0  0  0  0  0  0  0  0
   -8.2368    1.6041    2.4234 H   0  0  0  0  0  0  0  0  0  0  0  0
   -7.1079    2.7414    3.1315 H   0  0  0  0  0  0  0  0  0  0  0  0
   -4.7525    2.8200    2.3979 H   0  0  0  0  0  0  0  0  0  0  0  0
   -2.8968    1.6457    1.3378 H   0  0  0  0  0  0  0  0  0  0  0  0
   -1.5425   -0.2766    1.2102 H   0  0  0  0  0  0  0  0  0  0  0  0
    1.2943   -0.5349   -1.4800 H   0  0  0  0  0  0  0  0  0  0  0  0
    2.8715   -1.9593    1.6190 H   0  0  0  0  0  0  0  0  0  0  0  0
    5.2706   -1.8128    2.0274 H   0  0  0  0  0  0  0  0  0  0  0  0
    7.9544    0.4862    2.3773 H   0  0  0  0  0  0  0  0  0  0  0  0
    7.5303    4.0468    1.6770 H   0  0  0  0  0  0  0  0  0  0  0  0
    8.6965    2.9336    2.4267 H   0  0  0  0  0  0  0  0  0  0  0  0
    6.9847    2.9217    2.9457 H   0  0  0  0  0  0  0  0  0  0  0  0
    5.7971    0.3069   -1.6971 H   0  0  0  0  0  0  0  0  0  0  0  0
    3.3837    0.1591   -2.1197 H   0  0  0  0  0  0  0  0  0  0  0  0
    0.8228   -3.0519   -2.0600 H   0  0  0  0  0  0  0  0  0  0  0  0
    0.1588   -4.0042   -4.2196 H   0  0  0  0  0  0  0  0  0  0  0  0
   -2.1226   -3.5847   -5.1107 H   0  0  0  0  0  0  0  0  0  0  0  0
   -3.7187   -2.2174   -3.8118 H   0  0  0  0  0  0  0  0  0  0  0  0
   -5.6875   -1.0393   -0.5662 H   0  0  0  0  0  0  0  0  0  0  0  0
   -7.5468    0.1526    0.4934 H   0  0  0  0  0  0  0  0  0  0  0  0
  1  2  1  0
  2  3  1  0
  3  4  2  0
  4  5  1  0
  5  6  2  0
  6  7  1  0
  7  8  2  0
  8  9  1  0
  9 10  1  0
 10 11  2  0
 10 12  1  0
 12 13  1  0
 13 14  2  0
 14 15  1  0
 15 16  2  0
 16 17  1  0
 17 18  2  0
 17 19  2  0
 17 20  1  0
 20 21  1  0
 21 22  1  0
 21 23  2  0
 16 24  1  0
 24 25  2  0
  9 26  2  0
 26 27  1  0
 27 28  2  0
 28 29  1  0
 29 30  2  0
 30 31  1  0
 31 32  2  0
  6 33  1  0
 33 34  2  0
 34  3  1  0
 32  7  1  0
 25 13  1  0
 31 26  1  0
  1 35  1  0
  1 36  1  0
  1 37  1  0
  2 38  1  0
  2 39  1  0
  4 40  1  0
  5 41  1  0
  8 42  1  0
 12 43  1  0
 14 44  1  0
 15 45  1  0
 20 46  1  0
 22 47  1  0
 22 48  1  0
 22 49  1  0
 24 50  1  0
 25 51  1  0
 27 52  1  0
 28 53  1  0
 29 54  1  0
 30 55  1  0
 33 56  1  0
 34 57  1  0
M  END
$$$$
