
     RDKit          3D

 47 49  0  0  0  0  0  0  0  0999 V2000
    7.7467    0.3665    1.4181 C   0  0  0  0  0  0  0  0  0  0  0  0
    7.5778   -0.2690    0.0466 C   0  0  0  0  0  0  0  0  0  0  0  0
    6.1253   -0.3880   -0.3399 C   0  0  0  0  0  0  0  0  0  0  0  0
    5.4857    0.6513   -1.0276 C   0  0  0  0  0  0  0  0  0  0  0  0
    4.1369    0.5438   -1.3746 C   0  0  0  0  0  0  0  0  0  0  0  0
    3.4056   -0.5931   -1.0257 C   0  0  0  0  0  0  0  0  0  0  0  0
    2.0496   -0.6922   -1.3602 N   0  0  0  0  0  0  0  0  0  0  0  0
    1.1698   -0.2631   -0.5227 C   0  0  0  0  0  0  0  0  0  0  0  0
    1.3896    0.3008    0.6941 N   0  0  0  0  0  0  0  0  0  0  0  0
    0.2998    0.6896    1.4163 C   0  0  0  0  0  0  0  0  0  0  0  0
    0.3447    1.2069    2.5210 O   0  0  0  0  0  0  0  0  0  0  0  0
   -0.9439    0.3890    0.6554 C   0  0  0  0  0  0  0  0  0  0  0  0
   -2.1569    0.6615    1.1545 C   0  0  0  0  0  0  0  0  0  0  0  0
   -3.4481    0.3935    0.5071 C   0  0  0  0  0  0  0  0  0  0  0  0
   -4.3704   -0.4405    1.1597 C   0  0  0  0  0  0  0  0  0  0  0  0
   -5.6194   -0.7026    0.5915 C   0  0  0  0  0  0  0  0  0  0  0  0
   -6.5853   -1.5010    1.1431 O   0  0  0  0  0  0  0  0  0  0  0  0
   -6.2855   -2.1417    2.3742 C   0  0  0  0  0  0  0  0  0  0  0  0
   -5.9296   -0.1093   -0.6376 C   0  0  0  0  0  0  0  0  0  0  0  0
   -7.1524   -0.3504   -1.2187 O   0  0  0  0  0  0  0  0  0  0  0  0
   -5.0246    0.7318   -1.3015 C   0  0  0  0  0  0  0  0  0  0  0  0
   -5.4740    1.2391   -2.4954 O   0  0  0  0  0  0  0  0  0  0  0  0
   -4.5465    2.0093   -3.2518 C   0  0  0  0  0  0  0  0  0  0  0  0
   -3.7854    0.9884   -0.7176 C   0  0  0  0  0  0  0  0  0  0  0  0
   -0.5420   -0.3462   -0.8525 S   0  0  0  0  0  0  0  0  0  0  0  0
    4.0437   -1.6366   -0.3528 C   0  0  0  0  0  0  0  0  0  0  0  0
    5.3923   -1.5333   -0.0038 C   0  0  0  0  0  0  0  0  0  0  0  0
    8.8087    0.4404    1.6728 H   0  0  0  0  0  0  0  0  0  0  0  0
    7.2520   -0.2268    2.1946 H   0  0  0  0  0  0  0  0  0  0  0  0
    7.3206    1.3752    1.4438 H   0  0  0  0  0  0  0  0  0  0  0  0
    8.1125    0.3240   -0.7053 H   0  0  0  0  0  0  0  0  0  0  0  0
    8.0446   -1.2615    0.0378 H   0  0  0  0  0  0  0  0  0  0  0  0
    6.0362    1.5476   -1.3051 H   0  0  0  0  0  0  0  0  0  0  0  0
    3.6551    1.3485   -1.9234 H   0  0  0  0  0  0  0  0  0  0  0  0
    2.3164    0.4338    1.0662 H   0  0  0  0  0  0  0  0  0  0  0  0
   -2.2355    1.1042    2.1474 H   0  0  0  0  0  0  0  0  0  0  0  0
   -4.0892   -0.8786    2.1122 H   0  0  0  0  0  0  0  0  0  0  0  0
   -6.1169   -1.4084    3.1697 H   0  0  0  0  0  0  0  0  0  0  0  0
   -5.4299   -2.8172    2.2706 H   0  0  0  0  0  0  0  0  0  0  0  0
   -7.1530   -2.7455    2.6576 H   0  0  0  0  0  0  0  0  0  0  0  0
   -7.1437    0.1561   -2.0522 H   0  0  0  0  0  0  0  0  0  0  0  0
   -4.2810    2.9318   -2.7251 H   0  0  0  0  0  0  0  0  0  0  0  0
   -3.6553    1.4240   -3.5013 H   0  0  0  0  0  0  0  0  0  0  0  0
   -5.0338    2.2906   -4.1903 H   0  0  0  0  0  0  0  0  0  0  0  0
   -3.0692    1.6505   -1.1928 H   0  0  0  0  0  0  0  0  0  0  0  0
    3.4888   -2.5370   -0.1025 H   0  0  0  0  0  0  0  0  0  0  0  0
    5.8691   -2.3562    0.5244 H   0  0  0  0  0  0  0  0  0  0  0  0
  1  2  1  0
  2  3  1  0
  3  4  2  0
  4  5  1  0
  5  6  2  0
  6  7  1  0
  7  8  2  3
  8  9  1  0
  9 10  1  0
 10 11  2  0
 10 12  1  0
 12 13  2  3
 13 14  1  0
 14 15  2  0
 15 16  1  0
 16 17  1  0
 17 18  1  0
 16 19  2  0
 19 20  1  0
 19 21  1  0
 21 22  1  0
 22 23  1  0
 21 24  2  0
 12 25  1  0
  6 26  1  0
 26 27  2  0
 27  3  1  0
 25  8  1  0
 24 14  1  0
  1 28  1  0
  1 29  1  0
  1 30  1  0
  2 31  1  0
  2 32  1  0
  4 33  1  0
  5 34  1  0
  9 35  1  0
 13 36  1  0
 15 37  1  0
 18 38  1  0
 18 39  1  0
 18 40  1  0
 20 41  1  0
 23 42  1  0
 23 43  1  0
 23 44  1  0
 24 45  1  0
 26 46  1  0
 27 47  1  0
M  END
$$$$
