
     RDKit          3D

 70 75  0  0  0  0  0  0  0  0999 V2000
   -5.1949   -3.4749    2.4640 C   0  0  0  0  0  0  0  0  0  0  0  0
   -4.1267   -2.7857    1.6558 C   0  0  0  0  0  0  0  0  0  0  0  0
   -3.4990   -1.6411    2.2044 C   0  0  0  0  0  0  0  0  0  0  0  0
   -2.5043   -0.9509    1.5101 C   0  0  0  0  0  0  0  0  0  0  0  0
   -2.1433   -1.4134    0.2575 C   0  0  0  0  0  0  0  0  0  0  0  0
   -2.7606   -2.5462   -0.2895 C   0  0  0  0  0  0  0  0  0  0  0  0
   -3.7686   -3.2449    0.3664 C   0  0  0  0  0  0  0  0  0  0  0  0
   -4.4075   -4.4602   -0.2389 C   0  0  0  0  0  0  0  0  0  0  0  0
   -2.1980   -2.8346   -1.5332 N   0  0  0  0  0  0  0  0  0  0  0  0
   -1.2015   -1.9182   -1.8753 C   0  0  0  0  0  0  0  0  0  0  0  0
   -0.5331   -1.9629   -2.8983 O   0  0  0  0  0  0  0  0  0  0  0  0
   -1.1129   -0.9078   -0.7055 C   0  0  1  0  0  0  0  0  0  0  0  0
   -1.4301    0.4876   -1.1036 C   0  0  0  0  0  0  0  0  0  0  0  0
   -0.2539    1.2534   -1.1786 C   0  0  0  0  0  0  0  0  0  0  0  0
   -0.5771    2.5253   -1.5695 C   0  0  0  0  0  0  0  0  0  0  0  0
    0.2001    3.5869   -1.7655 O   0  0  0  0  0  0  0  0  0  0  0  0
   -1.9828    2.5745   -1.6863 N   0  0  0  0  0  0  0  0  0  0  0  0
   -2.7769    3.7412   -1.9301 C   0  0  0  0  0  0  0  0  0  0  0  0
   -2.2814    4.8013   -2.6986 C   0  0  0  0  0  0  0  0  0  0  0  0
   -3.0705    5.9313   -2.9322 C   0  0  0  0  0  0  0  0  0  0  0  0
   -4.3525    6.0162   -2.3935 C   0  0  0  0  0  0  0  0  0  0  0  0
   -4.8479    4.9742   -1.6137 C   0  0  0  0  0  0  0  0  0  0  0  0
   -4.0645    3.8414   -1.3787 C   0  0  0  0  0  0  0  0  0  0  0  0
   -2.4809    1.2661   -1.5040 C   0  0  0  0  0  0  0  0  0  0  0  0
   -3.7364    0.8904   -1.7450 O   0  0  0  0  0  0  0  0  0  0  0  0
    0.9137    0.3979   -0.8760 C   0  0  1  0  0  0  0  0  0  0  0  0
    2.0356    0.9472   -0.0040 C   0  0  0  0  0  0  0  0  0  0  0  0
    2.9808   -0.1223    0.3617 N   0  0  0  0  0  0  0  0  0  0  0  0
    4.2694    0.2490    0.7072 C   0  0  0  0  0  0  0  0  0  0  0  0
    4.7157    1.3751    0.5285 O   0  0  0  0  0  0  0  0  0  0  0  0
    4.9663   -0.7762    1.2593 O   0  0  0  0  0  0  0  0  0  0  0  0
    6.3392   -0.6023    1.6933 C   0  0  0  0  0  0  0  0  0  0  0  0
    6.7439   -1.9737    2.2561 C   0  0  0  0  0  0  0  0  0  0  0  0
    7.2587   -0.2674    0.5141 C   0  0  0  0  0  0  0  0  0  0  0  0
    6.4436    0.4351    2.8166 C   0  0  0  0  0  0  0  0  0  0  0  0
    2.3935   -1.3986    0.8157 C   0  0  0  0  0  0  0  0  0  0  0  0
    1.1466   -1.8458    0.0079 C   0  0  0  0  0  0  0  0  0  0  0  0
    0.2439   -0.7173   -0.1372 N   0  0  0  0  0  0  0  0  0  0  0  0
   -5.2200   -3.1044    3.4945 H   0  0  0  0  0  0  0  0  0  0  0  0
   -5.0049   -4.5518    2.5145 H   0  0  0  0  0  0  0  0  0  0  0  0
   -6.1780   -3.2964    2.0171 H   0  0  0  0  0  0  0  0  0  0  0  0
   -3.7892   -1.2813    3.1903 H   0  0  0  0  0  0  0  0  0  0  0  0
   -2.0271   -0.0757    1.9398 H   0  0  0  0  0  0  0  0  0  0  0  0
   -4.2872   -4.4879   -1.3260 H   0  0  0  0  0  0  0  0  0  0  0  0
   -3.9611   -5.3667    0.1821 H   0  0  0  0  0  0  0  0  0  0  0  0
   -5.4863   -4.4710   -0.0523 H   0  0  0  0  0  0  0  0  0  0  0  0
   -2.4578   -3.5976   -2.1375 H   0  0  0  0  0  0  0  0  0  0  0  0
    1.1235    3.3263   -1.6051 H   0  0  0  0  0  0  0  0  0  0  0  0
   -1.2968    4.7614   -3.1558 H   0  0  0  0  0  0  0  0  0  0  0  0
   -2.6805    6.7459   -3.5375 H   0  0  0  0  0  0  0  0  0  0  0  0
   -4.9604    6.8992   -2.5732 H   0  0  0  0  0  0  0  0  0  0  0  0
   -5.8393    5.0494   -1.1739 H   0  0  0  0  0  0  0  0  0  0  0  0
   -4.4606    3.0730   -0.7175 H   0  0  0  0  0  0  0  0  0  0  0  0
   -4.1449    1.5398   -2.3455 H   0  0  0  0  0  0  0  0  0  0  0  0
    1.3285    0.0264   -1.8245 H   0  0  0  0  0  0  0  0  0  0  0  0
    1.6490    1.3759    0.9298 H   0  0  0  0  0  0  0  0  0  0  0  0
    2.5648    1.7495   -0.5303 H   0  0  0  0  0  0  0  0  0  0  0  0
    6.0861   -2.2646    3.0840 H   0  0  0  0  0  0  0  0  0  0  0  0
    6.6420   -2.7540    1.4921 H   0  0  0  0  0  0  0  0  0  0  0  0
    7.7777   -1.9765    2.6184 H   0  0  0  0  0  0  0  0  0  0  0  0
    7.0609    0.7300    0.1106 H   0  0  0  0  0  0  0  0  0  0  0  0
    8.3128   -0.2968    0.8103 H   0  0  0  0  0  0  0  0  0  0  0  0
    7.1081   -0.9748   -0.3092 H   0  0  0  0  0  0  0  0  0  0  0  0
    7.4453    0.4424    3.2599 H   0  0  0  0  0  0  0  0  0  0  0  0
    6.2380    1.4484    2.4591 H   0  0  0  0  0  0  0  0  0  0  0  0
    5.7140    0.2267    3.6071 H   0  0  0  0  0  0  0  0  0  0  0  0
    3.1475   -2.1918    0.7753 H   0  0  0  0  0  0  0  0  0  0  0  0
    2.1202   -1.2573    1.8692 H   0  0  0  0  0  0  0  0  0  0  0  0
    0.6625   -2.6706    0.5426 H   0  0  0  0  0  0  0  0  0  0  0  0
    1.4674   -2.2252   -0.9697 H   0  0  0  0  0  0  0  0  0  0  0  0
  1  2  1  0
  2  3  2  0
  3  4  1  0
  4  5  2  0
  5  6  1  0
  6  7  2  0
  7  8  1  0
  6  9  1  0
  9 10  1  0
 10 11  2  0
 10 12  1  0
 12 13  1  0
 13 14  1  0
 14 15  2  0
 15 16  1  0
 15 17  1  0
 17 18  1  0
 18 19  2  0
 19 20  1  0
 20 21  2  0
 21 22  1  0
 22 23  2  0
 17 24  1  0
 24 25  1  0
 14 26  1  0
 26 27  1  0
 27 28  1  0
 28 29  1  0
 29 30  2  0
 29 31  1  0
 31 32  1  0
 32 33  1  0
 32 34  1  0
 32 35  1  0
 28 36  1  0
 36 37  1  0
 37 38  1  0
  7  2  1  0
 12 38  1  1
 12  5  1  0
 24 13  2  0
 38 26  1  0
 23 18  1  0
  1 39  1  0
  1 40  1  0
  1 41  1  0
  3 42  1  0
  4 43  1  0
  8 44  1  0
  8 45  1  0
  8 46  1  0
  9 47  1  0
 16 48  1  0
 19 49  1  0
 20 50  1  0
 21 51  1  0
 22 52  1  0
 23 53  1  0
 25 54  1  0
 26 55  1  6
 27 56  1  0
 27 57  1  0
 33 58  1  0
 33 59  1  0
 33 60  1  0
 34 61  1  0
 34 62  1  0
 34 63  1  0
 35 64  1  0
 35 65  1  0
 35 66  1  0
 36 67  1  0
 36 68  1  0
 37 69  1  0
 37 70  1  0
M  END
$$$$
