
     RDKit          3D

 39 41  0  0  0  0  0  0  0  0999 V2000
    5.9079   -0.8253   -0.4616 C   0  0  0  0  0  0  0  0  0  0  0  0
    5.3917    0.5959   -0.3272 C   0  0  0  0  0  0  0  0  0  0  0  0
    4.2305    0.6763    0.5388 N   0  0  0  0  0  0  0  0  0  0  0  0
    4.2227    1.0196    1.8578 C   0  0  0  0  0  0  0  0  0  0  0  0
    2.9091    0.9620    2.2556 C   0  0  0  0  0  0  0  0  0  0  0  0
    2.1813    0.5771    1.1003 C   0  0  0  0  0  0  0  0  0  0  0  0
    0.7261    0.3666    0.9941 C   0  0  0  0  0  0  0  0  0  0  0  0
   -0.0090    0.4474    1.9720 O   0  0  0  0  0  0  0  0  0  0  0  0
    0.3560    0.0225   -0.2883 N   0  0  0  0  0  0  0  0  0  0  0  0
   -0.9182   -0.3097   -0.6799 C   0  0  0  0  0  0  0  0  0  0  0  0
   -0.8964   -1.3157   -2.0820 S   0  0  0  0  0  0  0  0  0  0  0  0
   -2.5437   -1.5408   -1.9678 C   0  0  0  0  0  0  0  0  0  0  0  0
   -3.1282   -0.8353   -0.9548 C   0  0  0  0  0  0  0  0  0  0  0  0
   -2.2020   -0.0391   -0.2180 C   0  0  0  0  0  0  0  0  0  0  0  0
   -2.5914    0.9153    0.8118 C   0  0  0  0  0  0  0  0  0  0  0  0
   -3.5544    0.7421    1.5520 O   0  0  0  0  0  0  0  0  0  0  0  0
   -1.8561    2.0665    0.7649 O   0  0  0  0  0  0  0  0  0  0  0  0
   -2.2088    3.0159    1.7683 C   0  0  0  0  0  0  0  0  0  0  0  0
   -4.6002   -1.0408   -0.9426 C   0  0  0  0  0  0  0  0  0  0  0  0
   -4.7708   -2.2679   -1.8928 C   0  0  0  0  0  0  0  0  0  0  0  0
   -3.4927   -2.3310   -2.7843 C   0  0  0  0  0  0  0  0  0  0  0  0
    3.0070    0.3999    0.0458 N   0  0  0  0  0  0  0  0  0  0  0  0
    6.7861   -0.8507   -1.1140 H   0  0  0  0  0  0  0  0  0  0  0  0
    6.1934   -1.2346    0.5133 H   0  0  0  0  0  0  0  0  0  0  0  0
    5.1453   -1.4846   -0.8897 H   0  0  0  0  0  0  0  0  0  0  0  0
    6.1666    1.2470    0.0918 H   0  0  0  0  0  0  0  0  0  0  0  0
    5.1044    1.0008   -1.3038 H   0  0  0  0  0  0  0  0  0  0  0  0
    5.1286    1.2669    2.3937 H   0  0  0  0  0  0  0  0  0  0  0  0
    2.5099    1.1656    3.2399 H   0  0  0  0  0  0  0  0  0  0  0  0
    1.1266   -0.2116   -0.9088 H   0  0  0  0  0  0  0  0  0  0  0  0
   -2.1169    2.5784    2.7676 H   0  0  0  0  0  0  0  0  0  0  0  0
   -3.2235    3.3894    1.5996 H   0  0  0  0  0  0  0  0  0  0  0  0
   -1.5143    3.8576    1.6969 H   0  0  0  0  0  0  0  0  0  0  0  0
   -5.1127   -0.1643   -1.3526 H   0  0  0  0  0  0  0  0  0  0  0  0
   -4.9912   -1.2589    0.0548 H   0  0  0  0  0  0  0  0  0  0  0  0
   -5.6892   -2.2101   -2.4853 H   0  0  0  0  0  0  0  0  0  0  0  0
   -4.8276   -3.1818   -1.2865 H   0  0  0  0  0  0  0  0  0  0  0  0
   -3.1717   -3.3637   -2.9446 H   0  0  0  0  0  0  0  0  0  0  0  0
   -3.6739   -1.8468   -3.7494 H   0  0  0  0  0  0  0  0  0  0  0  0
  1  2  1  0
  2  3  1  0
  3  4  1  0
  4  5  2  0
  5  6  1  0
  6  7  1  0
  7  8  2  0
  7  9  1  0
  9 10  1  0
 10 11  1  0
 11 12  1  0
 12 13  2  0
 13 14  1  0
 14 15  1  0
 15 16  2  0
 15 17  1  0
 17 18  1  0
 13 19  1  0
 19 20  1  0
 20 21  1  0
  6 22  2  0
 22  3  1  0
 14 10  2  0
 21 12  1  0
  1 23  1  0
  1 24  1  0
  1 25  1  0
  2 26  1  0
  2 27  1  0
  4 28  1  0
  5 29  1  0
  9 30  1  0
 18 31  1  0
 18 32  1  0
 18 33  1  0
 19 34  1  0
 19 35  1  0
 20 36  1  0
 20 37  1  0
 21 38  1  0
 21 39  1  0
M  END
$$$$
