
     RDKit          3D

 59 64  0  0  0  0  0  0  0  0999 V2000
   -5.2033   -2.5392    0.4996 C   0  0  0  0  0  0  0  0  0  0  0  0
   -5.7450   -1.1665    0.6592 C   0  0  0  0  0  0  0  0  0  0  0  0
   -6.8979   -0.8670    1.2204 N   0  0  0  0  0  0  0  0  0  0  0  0
   -6.9974    0.4996    1.1687 C   0  0  0  0  0  0  0  0  0  0  0  0
   -8.0227    1.3368    1.6318 C   0  0  0  0  0  0  0  0  0  0  0  0
   -7.8903    2.7206    1.4673 C   0  0  0  0  0  0  0  0  0  0  0  0
   -6.7589    3.2600    0.8536 C   0  0  0  0  0  0  0  0  0  0  0  0
   -5.7261    2.4398    0.3838 C   0  0  0  0  0  0  0  0  0  0  0  0
   -5.8797    1.0586    0.5581 C   0  0  0  0  0  0  0  0  0  0  0  0
   -5.0956   -0.0257    0.2399 N   0  0  0  0  0  0  0  0  0  0  0  0
   -3.8048    0.0369   -0.4194 C   0  0  0  0  0  0  0  0  0  0  0  0
   -2.6697    0.2477    0.5732 C   0  0  0  0  0  0  0  0  0  0  0  0
   -1.3574    0.2778   -0.1155 C   0  0  0  0  0  0  0  0  0  0  0  0
   -0.8292    1.4396   -0.6212 N   0  0  0  0  0  0  0  0  0  0  0  0
    0.3251    1.0441   -1.1131 C   0  0  0  0  0  0  0  0  0  0  0  0
    1.3944    1.7572   -1.7766 C   0  0  0  0  0  0  0  0  0  0  0  0
    1.3520    3.1320   -2.0076 C   0  0  0  0  0  0  0  0  0  0  0  0
    2.4212    3.7517   -2.6534 C   0  0  0  0  0  0  0  0  0  0  0  0
    3.5236    2.9999   -3.0651 C   0  0  0  0  0  0  0  0  0  0  0  0
    3.5640    1.6228   -2.8330 C   0  0  0  0  0  0  0  0  0  0  0  0
    2.5046    0.9857   -2.1880 C   0  0  0  0  0  0  0  0  0  0  0  0
    2.5821   -0.4154   -1.9683 N   0  0  0  0  0  0  0  0  0  0  0  0
    1.5967   -1.0152   -1.3557 C   0  0  0  0  0  0  0  0  0  0  0  0
    1.7493   -2.7494   -1.0952 S   0  0  0  0  0  0  0  0  0  0  0  0
    1.9066   -2.7559    0.7148 C   0  0  0  0  0  0  0  0  0  0  0  0
    2.8854   -1.6898    1.1674 C   0  0  0  0  0  0  0  0  0  0  0  0
    2.5087   -0.6088    1.6131 O   0  0  0  0  0  0  0  0  0  0  0  0
    4.2083   -2.0104    0.9878 N   0  0  0  0  0  0  0  0  0  0  0  0
    5.2322   -1.0202    1.2269 C   0  0  0  0  0  0  0  0  0  0  0  0
    6.5397   -1.5700    0.8034 C   0  0  0  0  0  0  0  0  0  0  0  0
    7.1897   -1.6263   -0.4117 C   0  0  0  0  0  0  0  0  0  0  0  0
    8.4190   -2.2868   -0.1755 C   0  0  0  0  0  0  0  0  0  0  0  0
    8.4405   -2.5905    1.1642 C   0  0  0  0  0  0  0  0  0  0  0  0
    7.3010   -2.1652    1.7667 O   0  0  0  0  0  0  0  0  0  0  0  0
    0.4678   -0.3038   -0.9290 N   0  0  0  0  0  0  0  0  0  0  0  0
   -0.6222   -0.8252   -0.3148 N   0  0  0  0  0  0  0  0  0  0  0  0
   -5.8644   -3.2669    0.9793 H   0  0  0  0  0  0  0  0  0  0  0  0
   -4.2161   -2.6249    0.9626 H   0  0  0  0  0  0  0  0  0  0  0  0
   -5.1219   -2.8045   -0.5586 H   0  0  0  0  0  0  0  0  0  0  0  0
   -8.8965    0.9086    2.1093 H   0  0  0  0  0  0  0  0  0  0  0  0
   -8.6790    3.3789    1.8236 H   0  0  0  0  0  0  0  0  0  0  0  0
   -6.6767    4.3392    0.7394 H   0  0  0  0  0  0  0  0  0  0  0  0
   -4.8494    2.8674   -0.0900 H   0  0  0  0  0  0  0  0  0  0  0  0
   -3.8448    0.8488   -1.1561 H   0  0  0  0  0  0  0  0  0  0  0  0
   -3.6685   -0.8893   -0.9901 H   0  0  0  0  0  0  0  0  0  0  0  0
   -2.6724   -0.5457    1.3312 H   0  0  0  0  0  0  0  0  0  0  0  0
   -2.8115    1.1896    1.1178 H   0  0  0  0  0  0  0  0  0  0  0  0
    0.4947    3.7181   -1.6848 H   0  0  0  0  0  0  0  0  0  0  0  0
    2.3965    4.8230   -2.8360 H   0  0  0  0  0  0  0  0  0  0  0  0
    4.3548    3.4873   -3.5690 H   0  0  0  0  0  0  0  0  0  0  0  0
    4.4245    1.0438   -3.1571 H   0  0  0  0  0  0  0  0  0  0  0  0
    0.9358   -2.5813    1.1871 H   0  0  0  0  0  0  0  0  0  0  0  0
    2.2584   -3.7395    1.0423 H   0  0  0  0  0  0  0  0  0  0  0  0
    4.4441   -2.8123    0.4151 H   0  0  0  0  0  0  0  0  0  0  0  0
    4.9897   -0.1177    0.6555 H   0  0  0  0  0  0  0  0  0  0  0  0
    5.2261   -0.7625    2.2904 H   0  0  0  0  0  0  0  0  0  0  0  0
    6.8167   -1.2399   -1.3498 H   0  0  0  0  0  0  0  0  0  0  0  0
    9.1949   -2.5151   -0.8912 H   0  0  0  0  0  0  0  0  0  0  0  0
    9.1536   -3.0845    1.8100 H   0  0  0  0  0  0  0  0  0  0  0  0
  1  2  1  0
  2  3  2  0
  3  4  1  0
  4  5  2  0
  5  6  1  0
  6  7  2  0
  7  8  1  0
  8  9  2  0
  9 10  1  0
 10 11  1  0
 11 12  1  0
 12 13  1  0
 13 14  1  0
 14 15  2  0
 15 16  1  0
 16 17  2  0
 17 18  1  0
 18 19  2  0
 19 20  1  0
 20 21  2  0
 21 22  1  0
 22 23  2  0
 23 24  1  0
 24 25  1  0
 25 26  1  0
 26 27  2  0
 26 28  1  0
 28 29  1  0
 29 30  1  0
 30 31  2  0
 31 32  1  0
 32 33  2  0
 33 34  1  0
 23 35  1  0
 35 36  1  0
 10  2  1  0
 36 13  2  0
  9  4  1  0
 35 15  1  0
 21 16  1  0
 34 30  1  0
  1 37  1  0
  1 38  1  0
  1 39  1  0
  5 40  1  0
  6 41  1  0
  7 42  1  0
  8 43  1  0
 11 44  1  0
 11 45  1  0
 12 46  1  0
 12 47  1  0
 17 48  1  0
 18 49  1  0
 19 50  1  0
 20 51  1  0
 25 52  1  0
 25 53  1  0
 28 54  1  0
 29 55  1  0
 29 56  1  0
 31 57  1  0
 32 58  1  0
 33 59  1  0
M  END
$$$$
