
     RDKit          3D

 52 56  0  0  0  0  0  0  0  0999 V2000
    3.0580   -1.2540   -2.0952 C   0  0  0  0  0  0  0  0  0  0  0  0
    2.8844   -1.9697   -0.7683 C   0  0  0  0  0  0  0  0  0  0  0  0
    1.7326   -2.2264   -0.2119 N   0  0  0  0  0  0  0  0  0  0  0  0
    0.5943   -1.7048   -0.7690 N   0  0  0  0  0  0  0  0  0  0  0  0
    0.3388   -0.3319   -0.7433 C   0  0  0  0  0  0  0  0  0  0  0  0
    1.1815    0.5401   -0.5548 O   0  0  0  0  0  0  0  0  0  0  0  0
   -1.0694   -0.0208   -0.9830 C   0  0  0  0  0  0  0  0  0  0  0  0
   -1.9899   -0.9917   -1.2692 N   0  0  0  0  0  0  0  0  0  0  0  0
   -3.1661   -0.4137   -1.4238 N   0  0  0  0  0  0  0  0  0  0  0  0
   -3.0237    0.9410   -1.3027 N   0  0  0  0  0  0  0  0  0  0  0  0
   -4.1118    1.8102   -1.5706 C   0  0  0  0  0  0  0  0  0  0  0  0
   -3.9392    3.1279   -1.6741 N   0  0  0  0  0  0  0  0  0  0  0  0
   -5.2110    3.6166   -1.9670 O   0  0  0  0  0  0  0  0  0  0  0  0
   -6.1368    2.5848   -2.0713 N   0  0  0  0  0  0  0  0  0  0  0  0
   -5.4549    1.4679   -1.8214 C   0  0  0  0  0  0  0  0  0  0  0  0
   -5.9956    0.2338   -1.8177 N   0  0  0  0  0  0  0  0  0  0  0  0
   -1.7052    1.2133   -0.9366 C   0  0  0  0  0  0  0  0  0  0  0  0
   -1.1658    2.5425   -0.5400 C   0  0  0  0  0  0  0  0  0  0  0  0
   -1.0302    2.6864    1.2819 S   0  0  0  0  0  0  0  0  0  0  0  0
   -2.7527    2.6722    1.7335 C   0  0  0  0  0  0  0  0  0  0  0  0
   -3.3241    1.5058    2.2518 C   0  0  0  0  0  0  0  0  0  0  0  0
   -4.6815    1.4720    2.5752 C   0  0  0  0  0  0  0  0  0  0  0  0
   -5.4695    2.6073    2.3938 C   0  0  0  0  0  0  0  0  0  0  0  0
   -4.8996    3.7792    1.8988 C   0  0  0  0  0  0  0  0  0  0  0  0
   -3.5422    3.8137    1.5738 C   0  0  0  0  0  0  0  0  0  0  0  0
    4.1254   -2.4443   -0.0738 C   0  0  0  0  0  0  0  0  0  0  0  0
    4.0268   -3.4992    0.8631 C   0  0  0  0  0  0  0  0  0  0  0  0
    5.1586   -3.9709    1.5370 C   0  0  0  0  0  0  0  0  0  0  0  0
    6.3644   -3.3672    1.2590 C   0  0  0  0  0  0  0  0  0  0  0  0
    6.4649   -2.3350    0.3560 C   0  0  0  0  0  0  0  0  0  0  0  0
    5.3684   -1.8470   -0.3251 C   0  0  0  0  0  0  0  0  0  0  0  0
    7.7400   -1.8766    0.2338 O   0  0  0  0  0  0  0  0  0  0  0  0
    8.4284   -2.7335    1.1691 C   0  0  0  0  0  0  0  0  0  0  0  0
    7.5620   -3.6887    1.8157 O   0  0  0  0  0  0  0  0  0  0  0  0
    3.2564   -0.1933   -1.9222 H   0  0  0  0  0  0  0  0  0  0  0  0
    3.8924   -1.6856   -2.6564 H   0  0  0  0  0  0  0  0  0  0  0  0
    2.1703   -1.3609   -2.7237 H   0  0  0  0  0  0  0  0  0  0  0  0
   -0.2329   -2.2801   -0.6213 H   0  0  0  0  0  0  0  0  0  0  0  0
   -5.4024   -0.5941   -1.8483 H   0  0  0  0  0  0  0  0  0  0  0  0
   -6.9145    0.1039   -2.2280 H   0  0  0  0  0  0  0  0  0  0  0  0
   -1.7266    3.3932   -0.9237 H   0  0  0  0  0  0  0  0  0  0  0  0
   -0.1570    2.6636   -0.9486 H   0  0  0  0  0  0  0  0  0  0  0  0
   -2.7195    0.6143    2.4020 H   0  0  0  0  0  0  0  0  0  0  0  0
   -5.1233    0.5609    2.9707 H   0  0  0  0  0  0  0  0  0  0  0  0
   -6.5273    2.5812    2.6436 H   0  0  0  0  0  0  0  0  0  0  0  0
   -5.5128    4.6664    1.7623 H   0  0  0  0  0  0  0  0  0  0  0  0
   -3.1125    4.7342    1.1863 H   0  0  0  0  0  0  0  0  0  0  0  0
    3.0616   -3.9583    1.0692 H   0  0  0  0  0  0  0  0  0  0  0  0
    5.0887   -4.7799    2.2553 H   0  0  0  0  0  0  0  0  0  0  0  0
    5.4898   -1.0172   -1.0108 H   0  0  0  0  0  0  0  0  0  0  0  0
    8.8975   -2.1084    1.9377 H   0  0  0  0  0  0  0  0  0  0  0  0
    9.2128   -3.2791    0.6322 H   0  0  0  0  0  0  0  0  0  0  0  0
  1  2  1  0
  2  3  2  3
  3  4  1  0
  4  5  1  0
  5  6  2  0
  5  7  1  0
  7  8  1  0
  8  9  2  0
  9 10  1  0
 10 11  1  0
 11 12  2  0
 12 13  1  0
 13 14  1  0
 14 15  2  0
 15 16  1  0
 10 17  1  0
 17 18  1  0
 18 19  1  0
 19 20  1  0
 20 21  2  0
 21 22  1  0
 22 23  2  0
 23 24  1  0
 24 25  2  0
  2 26  1  0
 26 27  2  0
 27 28  1  0
 28 29  2  0
 29 30  1  0
 30 31  2  0
 30 32  1  0
 32 33  1  0
 33 34  1  0
 17  7  2  0
 25 20  1  0
 31 26  1  0
 15 11  1  0
 34 29  1  0
  1 35  1  0
  1 36  1  0
  1 37  1  0
  4 38  1  0
 16 39  1  0
 16 40  1  0
 18 41  1  0
 18 42  1  0
 21 43  1  0
 22 44  1  0
 23 45  1  0
 24 46  1  0
 25 47  1  0
 27 48  1  0
 28 49  1  0
 31 50  1  0
 33 51  1  0
 33 52  1  0
M  END
$$$$
