
     RDKit          3D

 43 45  0  0  0  0  0  0  0  0999 V2000
   -5.9050   -1.2403    2.4319 C   0  0  0  0  0  0  0  0  0  0  0  0
   -5.8663   -1.1677    0.9727 N   0  0  0  0  0  0  0  0  0  0  0  0
   -7.1667   -1.1043    0.3082 C   0  0  0  0  0  0  0  0  0  0  0  0
   -4.7581   -0.5831    0.3485 C   0  0  0  0  0  0  0  0  0  0  0  0
   -4.7522   -0.2664   -1.0205 C   0  0  0  0  0  0  0  0  0  0  0  0
   -3.6374    0.3040   -1.6566 C   0  0  0  0  0  0  0  0  0  0  0  0
   -2.4646    0.5640   -0.9486 C   0  0  0  0  0  0  0  0  0  0  0  0
   -1.3316    1.1908   -1.6463 C   0  0  0  0  0  0  0  0  0  0  0  0
   -0.0406    0.9769   -1.3425 C   0  0  0  0  0  0  0  0  0  0  0  0
    1.0441    1.6105   -2.0651 C   0  0  0  0  0  0  0  0  0  0  0  0
    2.3619    1.4998   -1.8320 C   0  0  0  0  0  0  0  0  0  0  0  0
    3.5208    2.3198   -2.8071 S   0  0  0  0  0  0  0  0  0  0  0  0
    4.8847    1.7720   -1.8354 C   0  0  0  0  0  0  0  0  0  0  0  0
    6.4056    2.4132   -2.1226 S   0  0  0  0  0  0  0  0  0  0  0  0
    4.4445    0.8873   -0.8579 N   0  0  0  0  0  0  0  0  0  0  0  0
    5.3083    0.1851    0.0495 C   0  0  0  0  0  0  0  0  0  0  0  0
    4.9542    0.0262    1.3993 C   0  0  0  0  0  0  0  0  0  0  0  0
    5.7846   -0.6619    2.2898 C   0  0  0  0  0  0  0  0  0  0  0  0
    6.9807   -1.2137    1.8440 C   0  0  0  0  0  0  0  0  0  0  0  0
    7.3419   -1.0847    0.5070 C   0  0  0  0  0  0  0  0  0  0  0  0
    6.5105   -0.3958   -0.3828 C   0  0  0  0  0  0  0  0  0  0  0  0
    3.0601    0.7094   -0.7733 C   0  0  0  0  0  0  0  0  0  0  0  0
    2.4564   -0.0055    0.0174 O   0  0  0  0  0  0  0  0  0  0  0  0
   -2.4436    0.2587    0.4116 C   0  0  0  0  0  0  0  0  0  0  0  0
   -3.5642   -0.3118    1.0383 C   0  0  0  0  0  0  0  0  0  0  0  0
   -5.8787   -0.2395    2.8768 H   0  0  0  0  0  0  0  0  0  0  0  0
   -5.0751   -1.8396    2.8217 H   0  0  0  0  0  0  0  0  0  0  0  0
   -6.8193   -1.7336    2.7806 H   0  0  0  0  0  0  0  0  0  0  0  0
   -7.9481   -1.5742    0.9161 H   0  0  0  0  0  0  0  0  0  0  0  0
   -7.1547   -1.6527   -0.6398 H   0  0  0  0  0  0  0  0  0  0  0  0
   -7.4680   -0.0661    0.1299 H   0  0  0  0  0  0  0  0  0  0  0  0
   -5.6205   -0.4607   -1.6423 H   0  0  0  0  0  0  0  0  0  0  0  0
   -3.7024    0.5263   -2.7192 H   0  0  0  0  0  0  0  0  0  0  0  0
   -1.6024    1.8520   -2.4666 H   0  0  0  0  0  0  0  0  0  0  0  0
    0.2132    0.2920   -0.5376 H   0  0  0  0  0  0  0  0  0  0  0  0
    0.7255    2.2461   -2.8924 H   0  0  0  0  0  0  0  0  0  0  0  0
    4.0347    0.4542    1.7929 H   0  0  0  0  0  0  0  0  0  0  0  0
    5.4921   -0.7651    3.3319 H   0  0  0  0  0  0  0  0  0  0  0  0
    7.6254   -1.7507    2.5350 H   0  0  0  0  0  0  0  0  0  0  0  0
    8.2677   -1.5290    0.1494 H   0  0  0  0  0  0  0  0  0  0  0  0
    6.8108   -0.3668   -1.4268 H   0  0  0  0  0  0  0  0  0  0  0  0
   -1.5621    0.4598    1.0152 H   0  0  0  0  0  0  0  0  0  0  0  0
   -3.4662   -0.5348    2.0962 H   0  0  0  0  0  0  0  0  0  0  0  0
  1  2  1  0
  2  3  1  0
  2  4  1  0
  4  5  2  0
  5  6  1  0
  6  7  2  0
  7  8  1  0
  8  9  2  3
  9 10  1  0
 10 11  2  3
 11 12  1  0
 12 13  1  0
 13 14  2  0
 13 15  1  0
 15 16  1  0
 16 17  2  0
 17 18  1  0
 18 19  2  0
 19 20  1  0
 20 21  2  0
 15 22  1  0
 22 23  2  0
  7 24  1  0
 24 25  2  0
 25  4  1  0
 22 11  1  0
 21 16  1  0
  1 26  1  0
  1 27  1  0
  1 28  1  0
  3 29  1  0
  3 30  1  0
  3 31  1  0
  5 32  1  0
  6 33  1  0
  8 34  1  0
  9 35  1  0
 10 36  1  0
 17 37  1  0
 18 38  1  0
 19 39  1  0
 20 40  1  0
 21 41  1  0
 24 42  1  0
 25 43  1  0
M  END
$$$$
