
     RDKit          3D

 63 66  0  0  0  0  0  0  0  0999 V2000
   -5.9130   -2.7056    2.2943 C   0  0  0  0  0  0  0  0  0  0  0  0
   -4.5984   -2.0009    2.0991 C   0  0  0  0  0  0  0  0  0  0  0  0
   -3.4269   -2.6920    2.4530 C   0  0  0  0  0  0  0  0  0  0  0  0
   -2.1666   -2.1015    2.3239 C   0  0  0  0  0  0  0  0  0  0  0  0
   -2.0391   -0.7975    1.8486 C   0  0  0  0  0  0  0  0  0  0  0  0
   -0.7386   -0.2635    1.7770 N   0  0  0  0  0  0  0  0  0  0  0  0
   -0.3711    0.9957    1.3412 C   0  0  0  0  0  0  0  0  0  0  0  0
   -1.0795    1.8713    0.8652 O   0  0  0  0  0  0  0  0  0  0  0  0
    1.0759    1.2705    1.4792 C   0  0  0  0  0  0  0  0  0  0  0  0
    1.4877    2.3544    2.2666 C   0  0  0  0  0  0  0  0  0  0  0  0
    2.8481    2.6155    2.4343 C   0  0  0  0  0  0  0  0  0  0  0  0
    3.7940    1.8058    1.8016 C   0  0  0  0  0  0  0  0  0  0  0  0
    3.3677    0.7420    0.9928 C   0  0  0  0  0  0  0  0  0  0  0  0
    4.5920   -0.2700    0.1887 S   0  0  0  0  0  6  0  0  0  0  0  0
    5.4889   -0.7164    1.2346 O   0  0  0  0  0  0  0  0  0  0  0  0
    3.8885   -1.2136   -0.6569 O   0  0  0  0  0  0  0  0  0  0  0  0
    5.3918    0.8634   -0.8184 N   0  0  0  0  0  0  0  0  0  0  0  0
    4.5770    1.4241   -1.9213 C   0  0  0  0  0  0  0  0  0  0  0  0
    6.7145    0.4523   -1.2134 C   0  0  0  0  0  0  0  0  0  0  0  0
    7.7858    1.2523   -0.8085 C   0  0  0  0  0  0  0  0  0  0  0  0
    9.0864    0.9195   -1.1857 C   0  0  0  0  0  0  0  0  0  0  0  0
    9.3157   -0.2029   -1.9821 C   0  0  0  0  0  0  0  0  0  0  0  0
    8.2433   -0.9912   -2.4057 C   0  0  0  0  0  0  0  0  0  0  0  0
    6.9402   -0.6639   -2.0248 C   0  0  0  0  0  0  0  0  0  0  0  0
    2.0096    0.4593    0.8276 C   0  0  0  0  0  0  0  0  0  0  0  0
   -3.1904   -0.0996    1.4878 C   0  0  0  0  0  0  0  0  0  0  0  0
   -4.4626   -0.6997    1.5794 C   0  0  0  0  0  0  0  0  0  0  0  0
   -5.8505    0.3107    1.0506 S   0  0  0  0  0  6  0  0  0  0  0  0
   -5.5070    1.6929    1.3175 O   0  0  0  0  0  0  0  0  0  0  0  0
   -7.0788   -0.2504    1.5717 O   0  0  0  0  0  0  0  0  0  0  0  0
   -5.8807    0.1028   -0.6324 N   0  0  0  0  0  0  0  0  0  0  0  0
   -4.7380    0.6581   -1.4154 C   0  0  0  0  0  0  0  0  0  0  0  0
   -5.1159    0.7009   -2.9018 C   0  0  0  0  0  0  0  0  0  0  0  0
   -5.5010   -0.5976   -3.3871 O   0  0  0  0  0  0  0  0  0  0  0  0
   -6.6138   -1.1129   -2.6391 C   0  0  0  0  0  0  0  0  0  0  0  0
   -6.2668   -1.2380   -1.1498 C   0  0  0  0  0  0  0  0  0  0  0  0
   -6.3974   -2.8825    1.3214 H   0  0  0  0  0  0  0  0  0  0  0  0
   -6.5726   -2.1472    2.9717 H   0  0  0  0  0  0  0  0  0  0  0  0
   -5.7670   -3.6968    2.7424 H   0  0  0  0  0  0  0  0  0  0  0  0
   -3.4805   -3.7077    2.8405 H   0  0  0  0  0  0  0  0  0  0  0  0
   -1.2931   -2.6790    2.6111 H   0  0  0  0  0  0  0  0  0  0  0  0
    0.0033   -0.8604    2.1277 H   0  0  0  0  0  0  0  0  0  0  0  0
    0.7501    2.9879    2.7577 H   0  0  0  0  0  0  0  0  0  0  0  0
    3.1656    3.4484    3.0615 H   0  0  0  0  0  0  0  0  0  0  0  0
    4.8558    2.0059    1.9338 H   0  0  0  0  0  0  0  0  0  0  0  0
    3.6675    1.8945   -1.5361 H   0  0  0  0  0  0  0  0  0  0  0  0
    5.1443    2.2038   -2.4414 H   0  0  0  0  0  0  0  0  0  0  0  0
    4.3104    0.6546   -2.6544 H   0  0  0  0  0  0  0  0  0  0  0  0
    7.6116    2.1284   -0.1885 H   0  0  0  0  0  0  0  0  0  0  0  0
    9.9219    1.5353   -0.8605 H   0  0  0  0  0  0  0  0  0  0  0  0
   10.3325   -0.4590   -2.2723 H   0  0  0  0  0  0  0  0  0  0  0  0
    8.4271   -1.8631   -3.0299 H   0  0  0  0  0  0  0  0  0  0  0  0
    6.1134   -1.2811   -2.3630 H   0  0  0  0  0  0  0  0  0  0  0  0
    1.6807   -0.3601    0.1896 H   0  0  0  0  0  0  0  0  0  0  0  0
   -3.1236    0.9262    1.1350 H   0  0  0  0  0  0  0  0  0  0  0  0
   -4.4778    1.6681   -1.0805 H   0  0  0  0  0  0  0  0  0  0  0  0
   -3.8672    0.0026   -1.2911 H   0  0  0  0  0  0  0  0  0  0  0  0
   -4.2531    1.0267   -3.4930 H   0  0  0  0  0  0  0  0  0  0  0  0
   -5.9328    1.4116   -3.0827 H   0  0  0  0  0  0  0  0  0  0  0  0
   -6.8514   -2.0988   -3.0491 H   0  0  0  0  0  0  0  0  0  0  0  0
   -7.4817   -0.4601   -2.7925 H   0  0  0  0  0  0  0  0  0  0  0  0
   -7.1344   -1.6363   -0.6187 H   0  0  0  0  0  0  0  0  0  0  0  0
   -5.4200   -1.9198   -1.0310 H   0  0  0  0  0  0  0  0  0  0  0  0
  1  2  1  0
  2  3  2  0
  3  4  1  0
  4  5  2  0
  5  6  1  0
  6  7  1  0
  7  8  2  0
  7  9  1  0
  9 10  2  0
 10 11  1  0
 11 12  2  0
 12 13  1  0
 13 14  1  0
 14 15  2  0
 14 16  2  0
 14 17  1  0
 17 18  1  0
 17 19  1  0
 19 20  2  0
 20 21  1  0
 21 22  2  0
 22 23  1  0
 23 24  2  0
 13 25  2  0
  5 26  1  0
 26 27  2  0
 27 28  1  0
 28 29  2  0
 28 30  2  0
 28 31  1  0
 31 32  1  0
 32 33  1  0
 33 34  1  0
 34 35  1  0
 35 36  1  0
 27  2  1  0
 36 31  1  0
 25  9  1  0
 24 19  1  0
  1 37  1  0
  1 38  1  0
  1 39  1  0
  3 40  1  0
  4 41  1  0
  6 42  1  0
 10 43  1  0
 11 44  1  0
 12 45  1  0
 18 46  1  0
 18 47  1  0
 18 48  1  0
 20 49  1  0
 21 50  1  0
 22 51  1  0
 23 52  1  0
 24 53  1  0
 25 54  1  0
 26 55  1  0
 32 56  1  0
 32 57  1  0
 33 58  1  0
 33 59  1  0
 35 60  1  0
 35 61  1  0
 36 62  1  0
 36 63  1  0
M  END
$$$$
