
     RDKit          3D

 40 42  0  0  0  0  0  0  0  0999 V2000
    2.6268    5.1750   -0.5414 C   0  0  0  0  0  0  0  0  0  0  0  0
    2.1883    3.7327   -0.3560 C   0  0  0  0  0  0  0  0  0  0  0  0
    0.6403    3.4346   -1.2707 S   0  0  0  0  0  0  0  0  0  0  0  0
    0.2993    1.7435   -0.8000 C   0  0  0  0  0  0  0  0  0  0  0  0
   -0.9123    1.1937   -1.1601 C   0  0  0  0  0  0  0  0  0  0  0  0
   -1.1622   -0.1074   -0.7744 C   0  0  0  0  0  0  0  0  0  0  0  0
   -2.3562   -0.7376   -1.1090 N   0  0  0  0  0  0  0  0  0  0  0  0
   -3.6221    0.0127   -1.0109 C   0  0  0  0  0  0  0  0  0  0  0  0
   -4.6628   -0.7713   -0.1923 C   0  0  0  0  0  0  0  0  0  0  0  0
   -4.9428   -2.0781   -0.7110 O   0  0  0  0  0  0  0  0  0  0  0  0
   -3.7972   -2.7141   -1.3016 C   0  0  0  0  0  0  0  0  0  0  0  0
   -2.4534   -2.1722   -0.7917 C   0  0  0  0  0  0  0  0  0  0  0  0
   -0.2299   -0.8044   -0.1040 N   0  0  0  0  0  0  0  0  0  0  0  0
    0.9325   -0.1977    0.2035 C   0  0  0  0  0  0  0  0  0  0  0  0
    1.9405   -0.9781    0.9519 C   0  0  0  0  0  0  0  0  0  0  0  0
    1.6744   -2.2877    1.3993 C   0  0  0  0  0  0  0  0  0  0  0  0
    2.6251   -3.0272    2.1101 C   0  0  0  0  0  0  0  0  0  0  0  0
    3.8701   -2.4732    2.3909 C   0  0  0  0  0  0  0  0  0  0  0  0
    4.1647   -1.1830    1.9611 C   0  0  0  0  0  0  0  0  0  0  0  0
    3.2109   -0.4468    1.2507 C   0  0  0  0  0  0  0  0  0  0  0  0
    1.2322    1.0701   -0.1157 N   0  0  0  0  0  0  0  0  0  0  0  0
    1.8720    5.8758   -0.1680 H   0  0  0  0  0  0  0  0  0  0  0  0
    2.8264    5.4030   -1.5942 H   0  0  0  0  0  0  0  0  0  0  0  0
    3.5509    5.3576    0.0172 H   0  0  0  0  0  0  0  0  0  0  0  0
    2.0322    3.5354    0.7101 H   0  0  0  0  0  0  0  0  0  0  0  0
    2.9702    3.0622   -0.7269 H   0  0  0  0  0  0  0  0  0  0  0  0
   -1.6269    1.7576   -1.7436 H   0  0  0  0  0  0  0  0  0  0  0  0
   -3.9998    0.1681   -2.0287 H   0  0  0  0  0  0  0  0  0  0  0  0
   -3.4926    0.9952   -0.5412 H   0  0  0  0  0  0  0  0  0  0  0  0
   -4.3253   -0.8871    0.8445 H   0  0  0  0  0  0  0  0  0  0  0  0
   -5.6083   -0.2207   -0.1656 H   0  0  0  0  0  0  0  0  0  0  0  0
   -3.8733   -2.5799   -2.3873 H   0  0  0  0  0  0  0  0  0  0  0  0
   -3.8746   -3.7871   -1.0972 H   0  0  0  0  0  0  0  0  0  0  0  0
   -2.3880   -2.3248    0.2929 H   0  0  0  0  0  0  0  0  0  0  0  0
   -1.6417   -2.7273   -1.2757 H   0  0  0  0  0  0  0  0  0  0  0  0
    0.7084   -2.7458    1.1935 H   0  0  0  0  0  0  0  0  0  0  0  0
    2.3891   -4.0347    2.4429 H   0  0  0  0  0  0  0  0  0  0  0  0
    4.6092   -3.0453    2.9445 H   0  0  0  0  0  0  0  0  0  0  0  0
    5.1360   -0.7453    2.1766 H   0  0  0  0  0  0  0  0  0  0  0  0
    3.4696    0.5596    0.9255 H   0  0  0  0  0  0  0  0  0  0  0  0
  1  2  1  0
  2  3  1  0
  3  4  1  0
  4  5  2  0
  5  6  1  0
  6  7  1  0
  7  8  1  0
  8  9  1  0
  9 10  1  0
 10 11  1  0
 11 12  1  0
  6 13  2  0
 13 14  1  0
 14 15  1  0
 15 16  2  0
 16 17  1  0
 17 18  2  0
 18 19  1  0
 19 20  2  0
 14 21  2  0
 21  4  1  0
 12  7  1  0
 20 15  1  0
  1 22  1  0
  1 23  1  0
  1 24  1  0
  2 25  1  0
  2 26  1  0
  5 27  1  0
  8 28  1  0
  8 29  1  0
  9 30  1  0
  9 31  1  0
 11 32  1  0
 11 33  1  0
 12 34  1  0
 12 35  1  0
 16 36  1  0
 17 37  1  0
 18 38  1  0
 19 39  1  0
 20 40  1  0
M  END
$$$$
