
     RDKit          3D

 35 37  0  0  0  0  0  0  0  0999 V2000
   -1.9470   -2.6025    1.3426 C   0  0  0  0  0  0  0  0  0  0  0  0
   -1.5600   -1.5089    0.3534 C   0  0  0  0  0  0  0  0  0  0  0  0
   -1.9821   -0.2324    0.8450 O   0  0  0  0  0  0  0  0  0  0  0  0
   -3.2202    0.2347    0.5070 C   0  0  0  0  0  0  0  0  0  0  0  0
   -3.4567    1.5617    0.8814 C   0  0  0  0  0  0  0  0  0  0  0  0
   -4.6789    2.1766    0.6005 C   0  0  0  0  0  0  0  0  0  0  0  0
   -5.6734    1.4573   -0.0547 C   0  0  0  0  0  0  0  0  0  0  0  0
   -7.3312    2.2786   -0.4386 Br  0  0  0  0  0  0  0  0  0  0  0  0
   -5.4540    0.1323   -0.4250 C   0  0  0  0  0  0  0  0  0  0  0  0
   -4.2274   -0.4801   -0.1421 C   0  0  0  0  0  0  0  0  0  0  0  0
   -0.0274   -1.4664    0.1708 C   0  0  0  0  0  0  0  0  0  0  0  0
    0.6697   -2.4631    0.3337 O   0  0  0  0  0  0  0  0  0  0  0  0
    0.4024   -0.2271   -0.2557 N   0  0  0  0  0  0  0  0  0  0  0  0
    1.6841    0.1565   -0.5506 C   0  0  0  0  0  0  0  0  0  0  0  0
    1.9856    1.3961   -0.8733 N   0  0  0  0  0  0  0  0  0  0  0  0
    3.3336    1.5521   -1.1369 N   0  0  0  0  0  0  0  0  0  0  0  0
    3.9828    0.4181   -0.9963 C   0  0  0  0  0  0  0  0  0  0  0  0
    5.5185    0.3020   -1.2400 C   0  0  0  0  0  0  0  0  0  0  0  0
    6.4250    1.4058   -0.7572 C   0  0  0  0  0  0  0  0  0  0  0  0
    6.4374    0.0735   -0.0666 C   0  0  0  0  0  0  0  0  0  0  0  0
    3.0100   -0.9144   -0.5557 S   0  0  0  0  0  0  0  0  0  0  0  0
   -3.0270   -2.6204    1.5169 H   0  0  0  0  0  0  0  0  0  0  0  0
   -1.6392   -3.5905    0.9858 H   0  0  0  0  0  0  0  0  0  0  0  0
   -1.4735   -2.4291    2.3159 H   0  0  0  0  0  0  0  0  0  0  0  0
   -1.9612   -1.7164   -0.6462 H   0  0  0  0  0  0  0  0  0  0  0  0
   -2.6832    2.1254    1.3988 H   0  0  0  0  0  0  0  0  0  0  0  0
   -4.8417    3.2090    0.8982 H   0  0  0  0  0  0  0  0  0  0  0  0
   -6.2316   -0.4354   -0.9302 H   0  0  0  0  0  0  0  0  0  0  0  0
   -4.1060   -1.5180   -0.4333 H   0  0  0  0  0  0  0  0  0  0  0  0
   -0.2726    0.5289   -0.2691 H   0  0  0  0  0  0  0  0  0  0  0  0
    5.7795   -0.1700   -2.1811 H   0  0  0  0  0  0  0  0  0  0  0  0
    5.9822    2.2474   -0.2353 H   0  0  0  0  0  0  0  0  0  0  0  0
    7.2738    1.6691   -1.3775 H   0  0  0  0  0  0  0  0  0  0  0  0
    6.0122    0.0189    0.9294 H   0  0  0  0  0  0  0  0  0  0  0  0
    7.2973   -0.5693   -0.2159 H   0  0  0  0  0  0  0  0  0  0  0  0
  1  2  1  0
  2  3  1  0
  3  4  1  0
  4  5  2  0
  5  6  1  0
  6  7  2  0
  7  8  1  0
  7  9  1  0
  9 10  2  0
  2 11  1  0
 11 12  2  0
 11 13  1  0
 13 14  1  0
 14 15  2  0
 15 16  1  0
 16 17  2  0
 17 18  1  0
 18 19  1  0
 19 20  1  0
 17 21  1  0
 10  4  1  0
 21 14  1  0
 20 18  1  0
  1 22  1  0
  1 23  1  0
  1 24  1  0
  2 25  1  0
  5 26  1  0
  6 27  1  0
  9 28  1  0
 10 29  1  0
 13 30  1  0
 18 31  1  0
 19 32  1  0
 19 33  1  0
 20 34  1  0
 20 35  1  0
M  END
$$$$
