
     RDKit          3D

 45 47  0  0  0  0  0  0  0  0999 V2000
   -8.2427   -0.6570   -0.1301 C   0  0  0  0  0  0  0  0  0  0  0  0
   -6.8636   -0.6623   -0.7648 C   0  0  0  0  0  0  0  0  0  0  0  0
   -5.8983   -0.6690    0.2826 O   0  0  0  0  0  0  0  0  0  0  0  0
   -4.5708   -0.6627   -0.0668 C   0  0  0  0  0  0  0  0  0  0  0  0
   -4.0991   -0.6708   -1.3831 C   0  0  0  0  0  0  0  0  0  0  0  0
   -2.7258   -0.6623   -1.6423 C   0  0  0  0  0  0  0  0  0  0  0  0
   -1.8081   -0.6401   -0.5902 C   0  0  0  0  0  0  0  0  0  0  0  0
   -0.3727   -0.6543   -0.8933 C   0  0  0  0  0  0  0  0  0  0  0  0
    0.5117    0.3026   -0.5796 C   0  0  0  0  0  0  0  0  0  0  0  0
    0.2207    1.7968    0.2336 S   0  0  0  0  0  0  0  0  0  0  0  0
    1.9116    2.2879    0.1576 C   0  0  0  0  0  0  0  0  0  0  0  0
    2.4732    3.7445    0.7449 S   0  0  0  0  0  0  0  0  0  0  0  0
    2.6251    1.2977   -0.4852 N   0  0  0  0  0  0  0  0  0  0  0  0
    4.0256    1.3461   -0.6287 N   0  0  0  0  0  0  0  0  0  0  0  0
    4.7568    0.7358    0.3777 C   0  0  0  0  0  0  0  0  0  0  0  0
    4.2655    0.3411    1.4304 O   0  0  0  0  0  0  0  0  0  0  0  0
    6.2022    0.5358    0.1033 C   0  0  0  0  0  0  0  0  0  0  0  0
    6.9178    1.3899   -0.7371 C   0  0  0  0  0  0  0  0  0  0  0  0
    8.2631    1.1282   -0.9259 C   0  0  0  0  0  0  0  0  0  0  0  0
    8.9148    0.0984   -0.3462 N   0  0  0  0  0  0  0  0  0  0  0  0
    8.2006   -0.7012    0.4751 C   0  0  0  0  0  0  0  0  0  0  0  0
    6.8551   -0.5236    0.7337 C   0  0  0  0  0  0  0  0  0  0  0  0
    1.9486    0.1838   -0.9493 C   0  0  0  0  0  0  0  0  0  0  0  0
    2.4304   -0.7378   -1.5957 O   0  0  0  0  0  0  0  0  0  0  0  0
   -2.2755   -0.6469    0.7302 C   0  0  0  0  0  0  0  0  0  0  0  0
   -3.6499   -0.6482    1.0002 C   0  0  0  0  0  0  0  0  0  0  0  0
   -4.1903   -0.6502    2.2631 O   0  0  0  0  0  0  0  0  0  0  0  0
   -3.3036   -0.4659    3.3580 C   0  0  0  0  0  0  0  0  0  0  0  0
   -8.3657    0.2158    0.5195 H   0  0  0  0  0  0  0  0  0  0  0  0
   -9.0239   -0.6414   -0.8952 H   0  0  0  0  0  0  0  0  0  0  0  0
   -8.3809   -1.5432    0.4978 H   0  0  0  0  0  0  0  0  0  0  0  0
   -6.7596   -1.5606   -1.3842 H   0  0  0  0  0  0  0  0  0  0  0  0
   -6.7511    0.2369   -1.3813 H   0  0  0  0  0  0  0  0  0  0  0  0
   -4.7741   -0.6848   -2.2320 H   0  0  0  0  0  0  0  0  0  0  0  0
   -2.3836   -0.6699   -2.6751 H   0  0  0  0  0  0  0  0  0  0  0  0
   -0.0380   -1.5361   -1.4390 H   0  0  0  0  0  0  0  0  0  0  0  0
    4.3537    1.2546   -1.5851 H   0  0  0  0  0  0  0  0  0  0  0  0
    6.4679    2.2530   -1.2126 H   0  0  0  0  0  0  0  0  0  0  0  0
    8.8756    1.7607   -1.5629 H   0  0  0  0  0  0  0  0  0  0  0  0
    8.7584   -1.5127    0.9345 H   0  0  0  0  0  0  0  0  0  0  0  0
    6.3294   -1.1945    1.4057 H   0  0  0  0  0  0  0  0  0  0  0  0
   -1.5506   -0.6597    1.5374 H   0  0  0  0  0  0  0  0  0  0  0  0
   -2.6265   -1.3198    3.4625 H   0  0  0  0  0  0  0  0  0  0  0  0
   -3.9061   -0.4076    4.2696 H   0  0  0  0  0  0  0  0  0  0  0  0
   -2.7474    0.4730    3.2671 H   0  0  0  0  0  0  0  0  0  0  0  0
  1  2  1  0
  2  3  1  0
  3  4  1  0
  4  5  2  0
  5  6  1  0
  6  7  2  0
  7  8  1  0
  8  9  2  3
  9 10  1  0
 10 11  1  0
 11 12  2  0
 11 13  1  0
 13 14  1  0
 14 15  1  0
 15 16  2  0
 15 17  1  0
 17 18  2  0
 18 19  1  0
 19 20  2  0
 20 21  1  0
 21 22  2  0
 13 23  1  0
 23 24  2  0
  7 25  1  0
 25 26  2  0
 26 27  1  0
 27 28  1  0
 26  4  1  0
 23  9  1  0
 22 17  1  0
  1 29  1  0
  1 30  1  0
  1 31  1  0
  2 32  1  0
  2 33  1  0
  5 34  1  0
  6 35  1  0
  8 36  1  0
 14 37  1  0
 18 38  1  0
 19 39  1  0
 21 40  1  0
 22 41  1  0
 25 42  1  0
 28 43  1  0
 28 44  1  0
 28 45  1  0
M  END
$$$$
