
     RDKit          3D

 37 39  0  0  0  0  0  0  0  0999 V2000
   -0.7816   -1.8946    4.3816 C   0  0  0  0  0  0  0  0  0  0  0  0
    0.6030   -2.5150    3.3894 S   0  0  0  0  0  0  0  0  0  0  0  0
    0.3515   -1.5909    1.8781 C   0  0  0  0  0  0  0  0  0  0  0  0
    1.3049   -1.6647    0.8859 C   0  0  0  0  0  0  0  0  0  0  0  0
    1.0778   -0.9352   -0.2672 C   0  0  0  0  0  0  0  0  0  0  0  0
    2.0345   -0.9660   -1.3048 N   0  0  0  0  0  0  0  0  0  0  0  0
    3.3353   -0.4005   -0.8709 C   0  0  0  0  0  0  0  0  0  0  0  0
    4.1246    0.1437   -2.0742 C   0  0  0  0  0  0  0  0  0  0  0  0
    3.4351    1.1927   -2.7752 O   0  0  0  0  0  0  0  0  0  0  0  0
    2.0031    1.0353   -2.7650 C   0  0  0  0  0  0  0  0  0  0  0  0
    1.5604   -0.4236   -2.5986 C   0  0  0  0  0  0  0  0  0  0  0  0
   -0.0396   -0.2044   -0.4111 N   0  0  0  0  0  0  0  0  0  0  0  0
   -0.9301   -0.2179    0.5954 C   0  0  0  0  0  0  0  0  0  0  0  0
   -2.1491    0.5796    0.4194 C   0  0  0  0  0  0  0  0  0  0  0  0
   -2.0435    1.9202   -0.0120 C   0  0  0  0  0  0  0  0  0  0  0  0
   -3.1741    2.7246   -0.1937 C   0  0  0  0  0  0  0  0  0  0  0  0
   -4.4406    2.2046    0.0437 C   0  0  0  0  0  0  0  0  0  0  0  0
   -4.5744    0.8821    0.4652 C   0  0  0  0  0  0  0  0  0  0  0  0
   -3.4418    0.0728    0.6478 C   0  0  0  0  0  0  0  0  0  0  0  0
   -3.7340   -1.5764    1.0954 Cl  0  0  0  0  0  0  0  0  0  0  0  0
   -0.7624   -0.8567    1.7606 N   0  0  0  0  0  0  0  0  0  0  0  0
   -0.6981   -0.8109    4.5006 H   0  0  0  0  0  0  0  0  0  0  0  0
   -1.7409   -2.1432    3.9228 H   0  0  0  0  0  0  0  0  0  0  0  0
   -0.7471   -2.3581    5.3718 H   0  0  0  0  0  0  0  0  0  0  0  0
    2.1851   -2.2851    0.9939 H   0  0  0  0  0  0  0  0  0  0  0  0
    3.9228   -1.1774   -0.3712 H   0  0  0  0  0  0  0  0  0  0  0  0
    3.1757    0.4259   -0.1651 H   0  0  0  0  0  0  0  0  0  0  0  0
    4.3379   -0.6603   -2.7894 H   0  0  0  0  0  0  0  0  0  0  0  0
    5.0853    0.5494   -1.7428 H   0  0  0  0  0  0  0  0  0  0  0  0
    1.6066    1.6628   -1.9579 H   0  0  0  0  0  0  0  0  0  0  0  0
    1.6274    1.4392   -3.7100 H   0  0  0  0  0  0  0  0  0  0  0  0
    2.0247   -1.0261   -3.3908 H   0  0  0  0  0  0  0  0  0  0  0  0
    0.4786   -0.5292   -2.7392 H   0  0  0  0  0  0  0  0  0  0  0  0
   -1.0607    2.3493   -0.2122 H   0  0  0  0  0  0  0  0  0  0  0  0
   -3.0638    3.7533   -0.5321 H   0  0  0  0  0  0  0  0  0  0  0  0
   -5.3232    2.8252   -0.1028 H   0  0  0  0  0  0  0  0  0  0  0  0
   -5.5690    0.4755    0.6345 H   0  0  0  0  0  0  0  0  0  0  0  0
  1  2  1  0
  2  3  1  0
  3  4  2  0
  4  5  1  0
  5  6  1  0
  6  7  1  0
  7  8  1  0
  8  9  1  0
  9 10  1  0
 10 11  1  0
  5 12  2  0
 12 13  1  0
 13 14  1  0
 14 15  2  0
 15 16  1  0
 16 17  2  0
 17 18  1  0
 18 19  2  0
 19 20  1  0
 13 21  2  0
 21  3  1  0
 11  6  1  0
 19 14  1  0
  1 22  1  0
  1 23  1  0
  1 24  1  0
  4 25  1  0
  7 26  1  0
  7 27  1  0
  8 28  1  0
  8 29  1  0
 10 30  1  0
 10 31  1  0
 11 32  1  0
 11 33  1  0
 15 34  1  0
 16 35  1  0
 17 36  1  0
 18 37  1  0
M  END
$$$$
