
     RDKit          3D

 28 29  0  0  0  0  0  0  0  0999 V2000
    5.9423   -0.5044   -1.8797 O   0  0  0  0  0  0  0  0  0  0  0  0
    5.5311   -0.2443   -0.7406 N   0  0  0  0  0  4  0  0  0  0  0  0
    6.2500   -0.1593    0.2649 O   0  0  0  0  0  1  0  0  0  0  0  0
    4.1029   -0.0279   -0.5684 C   0  0  0  0  0  0  0  0  0  0  0  0
    3.5634    0.2691    0.6814 C   0  0  0  0  0  0  0  0  0  0  0  0
    2.1859    0.4683    0.7827 C   0  0  0  0  0  0  0  0  0  0  0  0
    1.3917    0.3582   -0.3565 C   0  0  0  0  0  0  0  0  0  0  0  0
    0.0172    0.5692   -0.3252 N   0  0  0  0  0  0  0  0  0  0  0  0
   -0.7093   -0.3172    0.5746 C   0  0  0  0  0  0  0  0  0  0  0  0
   -2.1925   -0.1767    0.3246 C   0  0  0  0  0  0  0  0  0  0  0  0
   -2.8618    1.0048    0.6780 C   0  0  0  0  0  0  0  0  0  0  0  0
   -4.2311    1.1413    0.4458 C   0  0  0  0  0  0  0  0  0  0  0  0
   -4.9450    0.1006   -0.1449 C   0  0  0  0  0  0  0  0  0  0  0  0
   -4.2903   -1.0752   -0.5077 C   0  0  0  0  0  0  0  0  0  0  0  0
   -2.9202   -1.2137   -0.2769 C   0  0  0  0  0  0  0  0  0  0  0  0
    1.9117    0.0778   -1.5681 N   0  0  0  0  0  0  0  0  0  0  0  0
    3.2532   -0.1116   -1.6576 C   0  0  0  0  0  0  0  0  0  0  0  0
    4.1869    0.3587    1.5673 H   0  0  0  0  0  0  0  0  0  0  0  0
    1.7459    0.7309    1.7393 H   0  0  0  0  0  0  0  0  0  0  0  0
   -0.2920    0.4358   -1.2883 H   0  0  0  0  0  0  0  0  0  0  0  0
   -0.4055   -1.3613    0.4227 H   0  0  0  0  0  0  0  0  0  0  0  0
   -0.5093   -0.0677    1.6241 H   0  0  0  0  0  0  0  0  0  0  0  0
   -2.3103    1.8286    1.1271 H   0  0  0  0  0  0  0  0  0  0  0  0
   -4.7389    2.0620    0.7209 H   0  0  0  0  0  0  0  0  0  0  0  0
   -6.0109    0.2082   -0.3279 H   0  0  0  0  0  0  0  0  0  0  0  0
   -4.8471   -1.8839   -0.9742 H   0  0  0  0  0  0  0  0  0  0  0  0
   -2.4255   -2.1361   -0.5727 H   0  0  0  0  0  0  0  0  0  0  0  0
    3.6077   -0.3340   -2.6610 H   0  0  0  0  0  0  0  0  0  0  0  0
  1  2  2  0
  2  3  1  0
  2  4  1  0
  4  5  2  0
  5  6  1  0
  6  7  2  0
  7  8  1  0
  8  9  1  0
  9 10  1  0
 10 11  2  0
 11 12  1  0
 12 13  2  0
 13 14  1  0
 14 15  2  0
  7 16  1  0
 16 17  2  0
 17  4  1  0
 15 10  1  0
  5 18  1  0
  6 19  1  0
  8 20  1  0
  9 21  1  0
  9 22  1  0
 11 23  1  0
 12 24  1  0
 13 25  1  0
 14 26  1  0
 15 27  1  0
 17 28  1  0
M  CHG  2   2   1   3  -1
M  END
$$$$
