
     RDKit          3D

 61 65  0  0  0  0  0  0  0  0999 V2000
   -8.3541   -1.4450   -0.3390 C   0  0  0  0  0  0  0  0  0  0  0  0
   -7.6446   -0.7058    0.6485 O   0  0  0  0  0  0  0  0  0  0  0  0
   -6.3800   -0.2778    0.3283 C   0  0  0  0  0  0  0  0  0  0  0  0
   -5.6779   -0.6714   -0.8170 C   0  0  0  0  0  0  0  0  0  0  0  0
   -4.3937   -0.1755   -1.0636 C   0  0  0  0  0  0  0  0  0  0  0  0
   -3.7866    0.7196   -0.1732 C   0  0  0  0  0  0  0  0  0  0  0  0
   -2.4619    1.2538   -0.4802 C   0  0  0  0  0  0  0  0  0  0  0  0
   -1.7181    1.0785   -1.5552 N   0  0  0  0  0  0  0  0  0  0  0  0
   -0.5952    1.8558   -1.3323 C   0  0  0  0  0  0  0  0  0  0  0  0
    0.4541    1.9482   -2.3830 C   0  0  0  0  0  0  0  0  0  0  0  0
    1.8030    1.8476   -1.8484 N   0  0  0  0  0  0  0  0  0  0  0  0
    2.4741    0.7039   -1.4862 C   0  0  0  0  0  0  0  0  0  0  0  0
    1.7644   -0.8754   -1.5595 S   0  0  0  0  0  0  0  0  0  0  0  0
    3.2251   -1.9217   -1.8220 C   0  0  0  0  0  0  0  0  0  0  0  0
    3.7867   -2.5161   -0.5526 C   0  0  0  0  0  0  0  0  0  0  0  0
    3.2654   -3.7056   -0.0220 C   0  0  0  0  0  0  0  0  0  0  0  0
    3.8240   -4.2789    1.1274 C   0  0  0  0  0  0  0  0  0  0  0  0
    4.9116   -3.6742    1.7682 C   0  0  0  0  0  0  0  0  0  0  0  0
    5.5039   -4.2753    3.0121 C   0  0  0  0  0  0  0  0  0  0  0  0
    5.4112   -2.4699    1.2601 C   0  0  0  0  0  0  0  0  0  0  0  0
    4.8567   -1.8993    0.1098 C   0  0  0  0  0  0  0  0  0  0  0  0
    3.6967    0.9625   -1.0802 N   0  0  0  0  0  0  0  0  0  0  0  0
    3.8375    2.3212   -1.1823 C   0  0  0  0  0  0  0  0  0  0  0  0
    4.9364    3.1213   -0.8695 C   0  0  0  0  0  0  0  0  0  0  0  0
    4.7730    4.4776   -1.0911 C   0  0  0  0  0  0  0  0  0  0  0  0
    3.6504    5.0498   -1.5860 N   0  0  0  0  0  0  0  0  0  0  0  0
    2.5877    4.2712   -1.8993 C   0  0  0  0  0  0  0  0  0  0  0  0
    2.6780    2.9037   -1.6833 C   0  0  0  0  0  0  0  0  0  0  0  0
   -0.7166    2.4832   -0.1066 C   0  0  0  0  0  0  0  0  0  0  0  0
    0.0960    3.4255    0.6847 C   0  0  0  0  0  0  0  0  0  0  0  0
   -1.9089    2.1038    0.4415 O   0  0  0  0  0  0  0  0  0  0  0  0
   -4.4874    1.0966    0.9853 C   0  0  0  0  0  0  0  0  0  0  0  0
   -5.7743    0.6048    1.2446 C   0  0  0  0  0  0  0  0  0  0  0  0
   -6.5176    0.9261    2.3556 O   0  0  0  0  0  0  0  0  0  0  0  0
   -5.9558    1.8446    3.2849 C   0  0  0  0  0  0  0  0  0  0  0  0
   -9.3602   -1.6392    0.0456 H   0  0  0  0  0  0  0  0  0  0  0  0
   -8.4594   -0.8684   -1.2655 H   0  0  0  0  0  0  0  0  0  0  0  0
   -7.8805   -2.4135   -0.5311 H   0  0  0  0  0  0  0  0  0  0  0  0
   -6.0977   -1.3642   -1.5388 H   0  0  0  0  0  0  0  0  0  0  0  0
   -3.8623   -0.4943   -1.9625 H   0  0  0  0  0  0  0  0  0  0  0  0
    0.3332    1.1630   -3.1373 H   0  0  0  0  0  0  0  0  0  0  0  0
    0.3584    2.9025   -2.9118 H   0  0  0  0  0  0  0  0  0  0  0  0
    4.0044   -1.3797   -2.3735 H   0  0  0  0  0  0  0  0  0  0  0  0
    2.9236   -2.7415   -2.4878 H   0  0  0  0  0  0  0  0  0  0  0  0
    2.4236   -4.1987   -0.5061 H   0  0  0  0  0  0  0  0  0  0  0  0
    3.4055   -5.2045    1.5177 H   0  0  0  0  0  0  0  0  0  0  0  0
    5.0394   -3.8364    3.9033 H   0  0  0  0  0  0  0  0  0  0  0  0
    5.3538   -5.3609    3.0345 H   0  0  0  0  0  0  0  0  0  0  0  0
    6.5867   -4.0964    3.0460 H   0  0  0  0  0  0  0  0  0  0  0  0
    6.2390   -1.9671    1.7534 H   0  0  0  0  0  0  0  0  0  0  0  0
    5.2674   -0.9648   -0.2684 H   0  0  0  0  0  0  0  0  0  0  0  0
    5.8557    2.7057   -0.4800 H   0  0  0  0  0  0  0  0  0  0  0  0
    5.5801    5.1720   -0.8677 H   0  0  0  0  0  0  0  0  0  0  0  0
    1.7119    4.7727   -2.2924 H   0  0  0  0  0  0  0  0  0  0  0  0
   -0.4455    3.7590    1.5784 H   0  0  0  0  0  0  0  0  0  0  0  0
    0.3334    4.3158    0.0973 H   0  0  0  0  0  0  0  0  0  0  0  0
    1.0284    2.9538    1.0134 H   0  0  0  0  0  0  0  0  0  0  0  0
   -4.0084    1.7805    1.6779 H   0  0  0  0  0  0  0  0  0  0  0  0
   -5.7745    2.8187    2.8147 H   0  0  0  0  0  0  0  0  0  0  0  0
   -5.0404    1.4415    3.7293 H   0  0  0  0  0  0  0  0  0  0  0  0
   -6.6788    1.9914    4.0933 H   0  0  0  0  0  0  0  0  0  0  0  0
  1  2  1  0
  2  3  1  0
  3  4  2  0
  4  5  1  0
  5  6  2  0
  6  7  1  0
  7  8  2  0
  8  9  1  0
  9 10  1  0
 10 11  1  0
 11 12  1  0
 12 13  1  0
 13 14  1  0
 14 15  1  0
 15 16  2  0
 16 17  1  0
 17 18  2  0
 18 19  1  0
 18 20  1  0
 20 21  2  0
 12 22  2  0
 22 23  1  0
 23 24  2  0
 24 25  1  0
 25 26  2  0
 26 27  1  0
 27 28  2  0
  9 29  2  0
 29 30  1  0
 29 31  1  0
  6 32  1  0
 32 33  2  0
 33 34  1  0
 34 35  1  0
 33  3  1  0
 31  7  1  0
 28 11  1  0
 21 15  1  0
 28 23  1  0
  1 36  1  0
  1 37  1  0
  1 38  1  0
  4 39  1  0
  5 40  1  0
 10 41  1  0
 10 42  1  0
 14 43  1  0
 14 44  1  0
 16 45  1  0
 17 46  1  0
 19 47  1  0
 19 48  1  0
 19 49  1  0
 20 50  1  0
 21 51  1  0
 24 52  1  0
 25 53  1  0
 27 54  1  0
 30 55  1  0
 30 56  1  0
 30 57  1  0
 32 58  1  0
 35 59  1  0
 35 60  1  0
 35 61  1  0
M  END
$$$$
