
     RDKit          3D

 37 39  0  0  0  0  0  0  0  0999 V2000
    5.9767   -0.6184   -0.0602 O   0  0  0  0  0  0  0  0  0  0  0  0
    6.0125    0.0987    1.1699 C   0  0  0  0  0  0  0  0  0  0  0  0
    5.0666    1.2959    1.0967 C   0  0  0  0  0  0  0  0  0  0  0  0
    3.6602    0.8196    1.0088 N   0  0  0  0  0  4  0  0  0  0  0  0
    3.1562    0.4503   -0.1923 C   0  0  0  0  0  0  0  0  0  0  0  0
    1.8426    0.0102   -0.3058 C   0  0  0  0  0  0  0  0  0  0  0  0
    1.0316   -0.0442    0.8262 C   0  0  0  0  0  0  0  0  0  0  0  0
   -0.3529   -0.5255    0.7719 C   0  0  0  0  0  0  0  0  0  0  0  0
   -1.2283   -0.1670   -0.1833 C   0  0  0  0  0  0  0  0  0  0  0  0
   -2.5885   -0.6000   -0.2833 C   0  0  0  0  0  0  0  0  0  0  0  0
   -3.2133   -1.5248    0.5264 C   0  0  0  0  0  0  0  0  0  0  0  0
   -4.5079   -1.6602    0.0948 N   0  0  0  0  0  0  0  0  0  0  0  0
   -4.7397   -0.8397   -0.9844 C   0  0  0  0  0  0  0  0  0  0  0  0
   -5.9055   -0.6553   -1.7377 C   0  0  0  0  0  0  0  0  0  0  0  0
   -5.8572    0.2557   -2.7959 C   0  0  0  0  0  0  0  0  0  0  0  0
   -4.6887    0.9536   -3.0871 C   0  0  0  0  0  0  0  0  0  0  0  0
   -3.5315    0.7573   -2.3239 C   0  0  0  0  0  0  0  0  0  0  0  0
   -3.5500   -0.1579   -1.2483 C   0  0  0  0  0  0  0  0  0  0  0  0
    1.5773    0.3226    2.0547 C   0  0  0  0  0  0  0  0  0  0  0  0
    2.8958    0.7587    2.1221 C   0  0  0  0  0  0  0  0  0  0  0  0
    6.6584   -1.3184   -0.0160 H   0  0  0  0  0  0  0  0  0  0  0  0
    5.7279   -0.5827    1.9774 H   0  0  0  0  0  0  0  0  0  0  0  0
    7.0375    0.4441    1.3349 H   0  0  0  0  0  0  0  0  0  0  0  0
    5.2528    1.9076    0.2068 H   0  0  0  0  0  0  0  0  0  0  0  0
    5.1575    1.9301    1.9843 H   0  0  0  0  0  0  0  0  0  0  0  0
    3.8180    0.4992   -1.0533 H   0  0  0  0  0  0  0  0  0  0  0  0
    1.4677   -0.3009   -1.2792 H   0  0  0  0  0  0  0  0  0  0  0  0
   -0.6582   -1.1895    1.5772 H   0  0  0  0  0  0  0  0  0  0  0  0
   -0.9041    0.5260   -0.9566 H   0  0  0  0  0  0  0  0  0  0  0  0
   -2.8658   -2.1069    1.3684 H   0  0  0  0  0  0  0  0  0  0  0  0
   -5.1995   -2.2741    0.5034 H   0  0  0  0  0  0  0  0  0  0  0  0
   -6.8192   -1.1970   -1.5142 H   0  0  0  0  0  0  0  0  0  0  0  0
   -6.7471    0.4211   -3.3997 H   0  0  0  0  0  0  0  0  0  0  0  0
   -4.6749    1.6584   -3.9151 H   0  0  0  0  0  0  0  0  0  0  0  0
   -2.6308    1.3120   -2.5658 H   0  0  0  0  0  0  0  0  0  0  0  0
    0.9777    0.2820    2.9625 H   0  0  0  0  0  0  0  0  0  0  0  0
    3.3463    1.0592    3.0636 H   0  0  0  0  0  0  0  0  0  0  0  0
  1  2  1  0
  2  3  1  0
  3  4  1  0
  4  5  2  0
  5  6  1  0
  6  7  2  0
  7  8  1  0
  8  9  2  3
  9 10  1  0
 10 11  2  0
 11 12  1  0
 12 13  1  0
 13 14  2  0
 14 15  1  0
 15 16  2  0
 16 17  1  0
 17 18  2  0
  7 19  1  0
 19 20  2  0
 20  4  1  0
 18 10  1  0
 18 13  1  0
  1 21  1  0
  2 22  1  0
  2 23  1  0
  3 24  1  0
  3 25  1  0
  5 26  1  0
  6 27  1  0
  8 28  1  0
  9 29  1  0
 11 30  1  0
 12 31  1  0
 14 32  1  0
 15 33  1  0
 16 34  1  0
 17 35  1  0
 19 36  1  0
 20 37  1  0
M  CHG  1   4   1
M  END
$$$$
