
     RDKit          3D

 46 49  0  0  0  0  0  0  0  0999 V2000
    2.4312   -0.9056    1.7789 O   0  0  0  0  0  0  0  0  0  0  0  0
    1.4016   -0.7255    1.1311 C   0  0  0  0  0  0  0  0  0  0  0  0
    0.1812   -1.5900    1.4025 C   0  0  0  0  0  0  0  0  0  0  0  0
   -0.4346   -2.0996    0.1900 N   0  0  0  0  0  0  0  0  0  0  0  0
   -1.6390   -1.7090   -0.3596 C   0  0  0  0  0  0  0  0  0  0  0  0
   -2.5547   -0.6836    0.2318 C   0  0  0  0  0  0  0  0  0  0  0  0
   -1.7788    0.4975    0.4453 O   0  0  0  0  0  0  0  0  0  0  0  0
   -2.4016    1.5234    1.1039 C   0  0  0  0  0  0  0  0  0  0  0  0
   -1.5573    2.5613    1.5087 C   0  0  0  0  0  0  0  0  0  0  0  0
   -2.0666    3.6668    2.1916 C   0  0  0  0  0  0  0  0  0  0  0  0
   -3.4285    3.7431    2.4705 C   0  0  0  0  0  0  0  0  0  0  0  0
   -4.2778    2.7162    2.0630 C   0  0  0  0  0  0  0  0  0  0  0  0
   -3.7675    1.6083    1.3791 C   0  0  0  0  0  0  0  0  0  0  0  0
   -1.8743   -2.3751   -1.4745 N   0  0  0  0  0  0  0  0  0  0  0  0
   -0.8019   -3.2094   -1.6548 C   0  0  0  0  0  0  0  0  0  0  0  0
   -0.5471   -4.1257   -2.6852 C   0  0  0  0  0  0  0  0  0  0  0  0
    0.6385   -4.8691   -2.6476 C   0  0  0  0  0  0  0  0  0  0  0  0
    1.5515   -4.7026   -1.6050 C   0  0  0  0  0  0  0  0  0  0  0  0
    1.3129   -3.7935   -0.5678 C   0  0  0  0  0  0  0  0  0  0  0  0
    0.1198   -3.0620   -0.6248 C   0  0  0  0  0  0  0  0  0  0  0  0
    1.2203    0.2566    0.1738 N   0  0  0  0  0  0  0  0  0  0  0  0
    2.1720    1.1822   -0.3219 C   0  0  0  0  0  0  0  0  0  0  0  0
    3.4828    1.2696    0.1582 C   0  0  0  0  0  0  0  0  0  0  0  0
    4.3787    2.2088   -0.3725 C   0  0  0  0  0  0  0  0  0  0  0  0
    5.9784    2.2527    0.2822 Cl  0  0  0  0  0  0  0  0  0  0  0  0
    3.9696    3.0716   -1.3942 C   0  0  0  0  0  0  0  0  0  0  0  0
    5.0213    4.2520   -2.0900 Cl  0  0  0  0  0  0  0  0  0  0  0  0
    2.6671    2.9943   -1.8855 C   0  0  0  0  0  0  0  0  0  0  0  0
    1.7788    2.0572   -1.3535 C   0  0  0  0  0  0  0  0  0  0  0  0
    0.1797    1.9999   -2.0129 Cl  0  0  0  0  0  0  0  0  0  0  0  0
    0.4822   -2.4619    1.9948 H   0  0  0  0  0  0  0  0  0  0  0  0
   -0.5462   -1.0300    1.9938 H   0  0  0  0  0  0  0  0  0  0  0  0
   -2.9603   -1.0661    1.1760 H   0  0  0  0  0  0  0  0  0  0  0  0
   -3.3669   -0.4778   -0.4749 H   0  0  0  0  0  0  0  0  0  0  0  0
   -0.4931    2.5154    1.2951 H   0  0  0  0  0  0  0  0  0  0  0  0
   -1.4011    4.4679    2.5026 H   0  0  0  0  0  0  0  0  0  0  0  0
   -3.8290    4.6042    2.9996 H   0  0  0  0  0  0  0  0  0  0  0  0
   -5.3428    2.7802    2.2731 H   0  0  0  0  0  0  0  0  0  0  0  0
   -4.4687    0.8406    1.0684 H   0  0  0  0  0  0  0  0  0  0  0  0
   -1.2603   -4.2473   -3.4927 H   0  0  0  0  0  0  0  0  0  0  0  0
    0.8484   -5.5819   -3.4415 H   0  0  0  0  0  0  0  0  0  0  0  0
    2.4680   -5.2898   -1.5983 H   0  0  0  0  0  0  0  0  0  0  0  0
    2.0314   -3.6685    0.2364 H   0  0  0  0  0  0  0  0  0  0  0  0
    0.2989    0.3256   -0.2611 H   0  0  0  0  0  0  0  0  0  0  0  0
    3.8397    0.6191    0.9507 H   0  0  0  0  0  0  0  0  0  0  0  0
    2.3442    3.6597   -2.6827 H   0  0  0  0  0  0  0  0  0  0  0  0
  1  2  2  0
  2  3  1  0
  3  4  1  0
  4  5  1  0
  5  6  1  0
  6  7  1  0
  7  8  1  0
  8  9  2  0
  9 10  1  0
 10 11  2  0
 11 12  1  0
 12 13  2  0
  5 14  2  0
 14 15  1  0
 15 16  2  0
 16 17  1  0
 17 18  2  0
 18 19  1  0
 19 20  2  0
  2 21  1  0
 21 22  1  0
 22 23  2  0
 23 24  1  0
 24 25  1  0
 24 26  2  0
 26 27  1  0
 26 28  1  0
 28 29  2  0
 29 30  1  0
 20  4  1  0
 29 22  1  0
 13  8  1  0
 20 15  1  0
  3 31  1  0
  3 32  1  0
  6 33  1  0
  6 34  1  0
  9 35  1  0
 10 36  1  0
 11 37  1  0
 12 38  1  0
 13 39  1  0
 16 40  1  0
 17 41  1  0
 18 42  1  0
 19 43  1  0
 21 44  1  0
 23 45  1  0
 28 46  1  0
M  END
$$$$
