
     RDKit          3D

 60 62  0  0  0  0  0  0  0  0999 V2000
   -8.0480   -0.4746   -3.3736 C   0  0  0  0  0  0  0  0  0  0  0  0
   -7.7365    0.4828   -2.2335 C   0  0  0  0  0  0  0  0  0  0  0  0
   -6.3389    0.2889   -1.7049 C   0  0  0  0  0  0  0  0  0  0  0  0
   -5.2658    1.0010   -2.2489 C   0  0  0  0  0  0  0  0  0  0  0  0
   -3.9684    0.8039   -1.7658 C   0  0  0  0  0  0  0  0  0  0  0  0
   -3.7179   -0.1111   -0.7361 C   0  0  0  0  0  0  0  0  0  0  0  0
   -2.3807   -0.2442   -0.3124 N   0  0  0  0  0  0  0  0  0  0  0  0
   -1.8689   -1.1060    0.6475 C   0  0  0  0  0  0  0  0  0  0  0  0
   -2.5218   -1.9165    1.2966 O   0  0  0  0  0  0  0  0  0  0  0  0
   -0.3396   -0.9452    0.8252 C   0  0  0  0  0  0  0  0  0  0  0  0
    0.3360   -1.3411   -0.4298 N   0  0  0  0  0  0  0  0  0  0  0  0
    0.8718   -0.1865   -1.5030 S   0  0  0  0  0  6  0  0  0  0  0  0
    1.2370   -0.8803   -2.7152 O   0  0  0  0  0  0  0  0  0  0  0  0
   -0.1096    0.8786   -1.4953 O   0  0  0  0  0  0  0  0  0  0  0  0
    2.3601    0.3801   -0.7268 C   0  0  0  0  0  0  0  0  0  0  0  0
    2.4102    1.6580   -0.1512 C   0  0  0  0  0  0  0  0  0  0  0  0
    3.5859    2.1106    0.4652 C   0  0  0  0  0  0  0  0  0  0  0  0
    4.6968    1.2813    0.4921 C   0  0  0  0  0  0  0  0  0  0  0  0
    4.6293    0.0106   -0.0951 C   0  0  0  0  0  0  0  0  0  0  0  0
    3.4771   -0.4562   -0.7137 C   0  0  0  0  0  0  0  0  0  0  0  0
    5.9323   -0.7162    0.0059 C   0  0  0  0  0  0  0  0  0  0  0  0
    6.7557    0.2379    0.8690 C   0  0  0  0  0  0  0  0  0  0  0  0
    5.9778    1.4742    1.0417 N   0  0  0  0  0  0  0  0  0  0  0  0
    6.5587    2.5326    1.7068 C   0  0  0  0  0  0  0  0  0  0  0  0
    5.7984    3.8162    1.8774 C   0  0  0  0  0  0  0  0  0  0  0  0
    7.7032    2.4495    2.1655 O   0  0  0  0  0  0  0  0  0  0  0  0
    0.3011   -1.7287    1.9960 C   0  0  0  0  0  0  0  0  0  0  0  0
    0.1676   -3.2523    1.9038 C   0  0  0  0  0  0  0  0  0  0  0  0
   -0.2036   -1.2298    3.3532 C   0  0  0  0  0  0  0  0  0  0  0  0
   -4.7872   -0.8258   -0.1976 C   0  0  0  0  0  0  0  0  0  0  0  0
   -6.0869   -0.6294   -0.6796 C   0  0  0  0  0  0  0  0  0  0  0  0
   -9.0680   -0.3124   -3.7362 H   0  0  0  0  0  0  0  0  0  0  0  0
   -7.9646   -1.5179   -3.0506 H   0  0  0  0  0  0  0  0  0  0  0  0
   -7.3616   -0.3278   -4.2145 H   0  0  0  0  0  0  0  0  0  0  0  0
   -8.4607    0.3414   -1.4219 H   0  0  0  0  0  0  0  0  0  0  0  0
   -7.8619    1.5179   -2.5744 H   0  0  0  0  0  0  0  0  0  0  0  0
   -5.4298    1.7126   -3.0548 H   0  0  0  0  0  0  0  0  0  0  0  0
   -3.1559    1.3731   -2.2117 H   0  0  0  0  0  0  0  0  0  0  0  0
   -1.7069    0.3492   -0.7993 H   0  0  0  0  0  0  0  0  0  0  0  0
   -0.1578    0.1197    1.0225 H   0  0  0  0  0  0  0  0  0  0  0  0
    0.1273   -2.2550   -0.8337 H   0  0  0  0  0  0  0  0  0  0  0  0
    1.5402    2.3118   -0.1775 H   0  0  0  0  0  0  0  0  0  0  0  0
    3.5738    3.0997    0.9006 H   0  0  0  0  0  0  0  0  0  0  0  0
    3.4492   -1.4395   -1.1751 H   0  0  0  0  0  0  0  0  0  0  0  0
    6.3819   -0.8376   -0.9847 H   0  0  0  0  0  0  0  0  0  0  0  0
    5.8219   -1.6941    0.4836 H   0  0  0  0  0  0  0  0  0  0  0  0
    6.9475   -0.1889    1.8613 H   0  0  0  0  0  0  0  0  0  0  0  0
    7.7241    0.4675    0.4095 H   0  0  0  0  0  0  0  0  0  0  0  0
    6.4509    4.5590    2.3488 H   0  0  0  0  0  0  0  0  0  0  0  0
    5.4992    4.2161    0.9058 H   0  0  0  0  0  0  0  0  0  0  0  0
    4.9413    3.6629    2.5373 H   0  0  0  0  0  0  0  0  0  0  0  0
    1.3792   -1.5136    1.9680 H   0  0  0  0  0  0  0  0  0  0  0  0
   -0.8688   -3.5865    2.0005 H   0  0  0  0  0  0  0  0  0  0  0  0
    0.5640   -3.6345    0.9583 H   0  0  0  0  0  0  0  0  0  0  0  0
    0.7377   -3.7304    2.7087 H   0  0  0  0  0  0  0  0  0  0  0  0
    0.3582   -1.6994    4.1680 H   0  0  0  0  0  0  0  0  0  0  0  0
   -1.2622   -1.4583    3.5071 H   0  0  0  0  0  0  0  0  0  0  0  0
   -0.0721   -0.1464    3.4436 H   0  0  0  0  0  0  0  0  0  0  0  0
   -4.6492   -1.5470    0.6011 H   0  0  0  0  0  0  0  0  0  0  0  0
   -6.9017   -1.2041   -0.2443 H   0  0  0  0  0  0  0  0  0  0  0  0
  1  2  1  0
  2  3  1  0
  3  4  2  0
  4  5  1  0
  5  6  2  0
  6  7  1  0
  7  8  1  0
  8  9  2  0
  8 10  1  0
 10 11  1  0
 11 12  1  0
 12 13  2  0
 12 14  2  0
 12 15  1  0
 15 16  2  0
 16 17  1  0
 17 18  2  0
 18 19  1  0
 19 20  2  0
 19 21  1  0
 21 22  1  0
 22 23  1  0
 23 24  1  0
 24 25  1  0
 24 26  2  0
 10 27  1  0
 27 28  1  0
 27 29  1  0
  6 30  1  0
 30 31  2  0
 31  3  1  0
 20 15  1  0
 23 18  1  0
  1 32  1  0
  1 33  1  0
  1 34  1  0
  2 35  1  0
  2 36  1  0
  4 37  1  0
  5 38  1  0
  7 39  1  0
 10 40  1  0
 11 41  1  0
 16 42  1  0
 17 43  1  0
 20 44  1  0
 21 45  1  0
 21 46  1  0
 22 47  1  0
 22 48  1  0
 25 49  1  0
 25 50  1  0
 25 51  1  0
 27 52  1  0
 28 53  1  0
 28 54  1  0
 28 55  1  0
 29 56  1  0
 29 57  1  0
 29 58  1  0
 30 59  1  0
 31 60  1  0
M  END
$$$$
