
     RDKit          3D

102104  0  0  0  0  0  0  0  0999 V2000
    8.7652    0.8660   -1.3305 C   0  0  0  0  0  0  0  0  0  0  0  0
    7.3180    0.6594   -1.7466 C   0  0  0  0  0  0  0  0  0  0  0  0
    6.4349    0.3107   -0.5483 C   0  0  0  0  0  0  0  0  0  0  0  0
    4.9752    0.1264   -0.9692 C   0  0  0  0  0  0  0  0  0  0  0  0
    4.0970   -0.2425    0.2283 C   0  0  0  0  0  0  0  0  0  0  0  0
    2.6262   -0.4682   -0.1527 C   0  0  0  0  0  0  0  0  0  0  0  0
    1.8818    0.8454   -0.4340 C   0  0  0  0  0  0  0  0  0  0  0  0
    0.7288    0.6124   -1.3885 C   0  0  0  0  0  0  0  0  0  0  0  0
    0.8326   -0.0979   -2.3842 O   0  0  0  0  0  0  0  0  0  0  0  0
   -0.4228    1.3055   -1.0833 N   0  0  0  0  0  0  0  0  0  0  0  0
   -1.5888    1.2599   -1.9632 C   0  0  0  0  0  0  0  0  0  0  0  0
   -1.6463    2.4461   -2.9430 C   0  0  0  0  0  0  0  0  0  0  0  0
   -1.8113    3.8411   -2.2967 C   0  0  0  0  0  0  0  0  0  0  0  0
   -2.5359    4.7783   -3.2686 C   0  0  0  0  0  0  0  0  0  0  0  0
   -0.4682    4.4715   -1.9181 C   0  0  0  0  0  0  0  0  0  0  0  0
   -2.9319    1.0810   -1.2196 C   0  0  0  0  0  0  0  0  0  0  0  0
   -3.9873    0.9230   -1.8262 O   0  0  0  0  0  0  0  0  0  0  0  0
   -2.8432    1.0674    0.1534 N   0  0  0  0  0  0  0  0  0  0  0  0
   -3.9597    0.8364    1.0966 C   0  0  0  0  0  0  0  0  0  0  0  0
   -5.3319    1.4284    0.7381 C   0  0  0  0  0  0  0  0  0  0  0  0
   -5.3322    2.9376    0.6212 C   0  0  0  0  0  0  0  0  0  0  0  0
   -5.1705    3.7433    1.7579 C   0  0  0  0  0  0  0  0  0  0  0  0
   -5.1591    5.1346    1.6447 C   0  0  0  0  0  0  0  0  0  0  0  0
   -5.3142    5.7359    0.3963 C   0  0  0  0  0  0  0  0  0  0  0  0
   -5.4852    4.9466   -0.7374 C   0  0  0  0  0  0  0  0  0  0  0  0
   -5.4974    3.5552   -0.6252 C   0  0  0  0  0  0  0  0  0  0  0  0
   -4.0911   -0.6599    1.4579 C   0  0  0  0  0  0  0  0  0  0  0  0
   -4.5842   -1.0409    2.5170 O   0  0  0  0  0  0  0  0  0  0  0  0
   -3.6224   -1.5353    0.4952 N   0  0  0  0  0  0  0  0  0  0  0  0
   -2.8636   -2.7028    0.9334 C   0  0  0  0  0  0  0  0  0  0  0  0
   -2.9065   -3.8262   -0.1146 C   0  0  0  0  0  0  0  0  0  0  0  0
   -2.6098   -3.4447   -1.5815 C   0  0  0  0  0  0  0  0  0  0  0  0
   -1.1906   -2.9293   -1.7987 C   0  0  0  0  0  0  0  0  0  0  0  0
   -2.8495   -4.6620   -2.4814 C   0  0  0  0  0  0  0  0  0  0  0  0
   -1.4442   -2.1963    1.3290 C   0  0  0  0  0  0  0  0  0  0  0  0
   -1.1448   -0.9975    1.3037 O   0  0  0  0  0  0  0  0  0  0  0  0
   -0.5498   -3.1506    1.7656 N   0  0  0  0  0  0  0  0  0  0  0  0
    0.7962   -2.7295    2.1836 C   0  0  0  0  0  0  0  0  0  0  0  0
    1.5083   -3.8529    2.9471 C   0  0  0  0  0  0  0  0  0  0  0  0
    2.8371   -3.4269    3.5222 C   0  0  0  0  0  0  0  0  0  0  0  0
    4.0311   -3.7428    2.8598 C   0  0  0  0  0  0  0  0  0  0  0  0
    5.2585   -3.3295    3.3791 C   0  0  0  0  0  0  0  0  0  0  0  0
    5.3036   -2.5972    4.5631 C   0  0  0  0  0  0  0  0  0  0  0  0
    4.1217   -2.2738    5.2275 C   0  0  0  0  0  0  0  0  0  0  0  0
    2.8928   -2.6857    4.7101 C   0  0  0  0  0  0  0  0  0  0  0  0
    1.6034   -2.3556    0.9366 C   0  0  0  0  0  0  0  0  0  0  0  0
    1.8151   -3.1201    0.0035 O   0  0  0  0  0  0  0  0  0  0  0  0
    1.9867   -1.0514    1.0074 O   0  0  0  0  0  0  0  0  0  0  0  0
    9.3787    1.1119   -2.2026 H   0  0  0  0  0  0  0  0  0  0  0  0
    8.8528    1.6858   -0.6116 H   0  0  0  0  0  0  0  0  0  0  0  0
    9.1756   -0.0380   -0.8717 H   0  0  0  0  0  0  0  0  0  0  0  0
    7.2690   -0.1451   -2.4891 H   0  0  0  0  0  0  0  0  0  0  0  0
    6.9488    1.5706   -2.2310 H   0  0  0  0  0  0  0  0  0  0  0  0
    6.8032   -0.6087   -0.0778 H   0  0  0  0  0  0  0  0  0  0  0  0
    6.5016    1.1070    0.2028 H   0  0  0  0  0  0  0  0  0  0  0  0
    4.9091   -0.6651   -1.7256 H   0  0  0  0  0  0  0  0  0  0  0  0
    4.6191    1.0497   -1.4376 H   0  0  0  0  0  0  0  0  0  0  0  0
    4.1644    0.5317    1.0038 H   0  0  0  0  0  0  0  0  0  0  0  0
    4.4890   -1.1579    0.6903 H   0  0  0  0  0  0  0  0  0  0  0  0
    2.5786   -1.1492   -1.0095 H   0  0  0  0  0  0  0  0  0  0  0  0
    1.5117    1.2878    0.4984 H   0  0  0  0  0  0  0  0  0  0  0  0
    2.5251    1.5838   -0.9225 H   0  0  0  0  0  0  0  0  0  0  0  0
   -0.4215    1.9731   -0.3216 H   0  0  0  0  0  0  0  0  0  0  0  0
   -1.5019    0.3471   -2.5677 H   0  0  0  0  0  0  0  0  0  0  0  0
   -0.7470    2.4391   -3.5731 H   0  0  0  0  0  0  0  0  0  0  0  0
   -2.4926    2.2671   -3.6204 H   0  0  0  0  0  0  0  0  0  0  0  0
   -2.4243    3.7638   -1.3918 H   0  0  0  0  0  0  0  0  0  0  0  0
   -1.9718    4.8973   -4.2000 H   0  0  0  0  0  0  0  0  0  0  0  0
   -3.5281    4.3883   -3.5187 H   0  0  0  0  0  0  0  0  0  0  0  0
   -2.6737    5.7706   -2.8248 H   0  0  0  0  0  0  0  0  0  0  0  0
    0.1977    4.5398   -2.7862 H   0  0  0  0  0  0  0  0  0  0  0  0
   -0.6135    5.4858   -1.5288 H   0  0  0  0  0  0  0  0  0  0  0  0
    0.0472    3.9015   -1.1421 H   0  0  0  0  0  0  0  0  0  0  0  0
   -1.9347    0.7784    0.5170 H   0  0  0  0  0  0  0  0  0  0  0  0
   -3.6014    1.3079    2.0225 H   0  0  0  0  0  0  0  0  0  0  0  0
   -6.0572    1.1606    1.5203 H   0  0  0  0  0  0  0  0  0  0  0  0
   -5.7343    0.9707   -0.1735 H   0  0  0  0  0  0  0  0  0  0  0  0
   -5.0596    3.2913    2.7411 H   0  0  0  0  0  0  0  0  0  0  0  0
   -5.0334    5.7506    2.5322 H   0  0  0  0  0  0  0  0  0  0  0  0
   -5.3079    6.8182    0.3100 H   0  0  0  0  0  0  0  0  0  0  0  0
   -5.6090    5.4115   -1.7124 H   0  0  0  0  0  0  0  0  0  0  0  0
   -5.6317    2.9522   -1.5218 H   0  0  0  0  0  0  0  0  0  0  0  0
   -3.2442   -1.0716   -0.3194 H   0  0  0  0  0  0  0  0  0  0  0  0
   -3.3102   -3.0810    1.8622 H   0  0  0  0  0  0  0  0  0  0  0  0
   -2.2464   -4.6476    0.1856 H   0  0  0  0  0  0  0  0  0  0  0  0
   -3.9240   -4.2411   -0.0898 H   0  0  0  0  0  0  0  0  0  0  0  0
   -3.3115   -2.6658   -1.9016 H   0  0  0  0  0  0  0  0  0  0  0  0
   -0.4482   -3.6530   -1.4467 H   0  0  0  0  0  0  0  0  0  0  0  0
   -1.0025   -2.7466   -2.8633 H   0  0  0  0  0  0  0  0  0  0  0  0
   -1.0274   -1.9816   -1.2828 H   0  0  0  0  0  0  0  0  0  0  0  0
   -2.1645   -5.4800   -2.2338 H   0  0  0  0  0  0  0  0  0  0  0  0
   -2.7022   -4.4026   -3.5352 H   0  0  0  0  0  0  0  0  0  0  0  0
   -3.8741   -5.0327   -2.3701 H   0  0  0  0  0  0  0  0  0  0  0  0
   -0.6469   -4.0929    1.4074 H   0  0  0  0  0  0  0  0  0  0  0  0
    0.6853   -1.8451    2.8237 H   0  0  0  0  0  0  0  0  0  0  0  0
    1.6509   -4.7271    2.2976 H   0  0  0  0  0  0  0  0  0  0  0  0
    0.8691   -4.2059    3.7675 H   0  0  0  0  0  0  0  0  0  0  0  0
    4.0165   -4.3101    1.9308 H   0  0  0  0  0  0  0  0  0  0  0  0
    6.1799   -3.5810    2.8601 H   0  0  0  0  0  0  0  0  0  0  0  0
    6.2605   -2.2788    4.9688 H   0  0  0  0  0  0  0  0  0  0  0  0
    4.1581   -1.7011    6.1509 H   0  0  0  0  0  0  0  0  0  0  0  0
    1.9815   -2.4256    5.2446 H   0  0  0  0  0  0  0  0  0  0  0  0
  1  2  1  0
  2  3  1  0
  3  4  1  0
  4  5  1  0
  5  6  1  0
  6  7  1  0
  7  8  1  0
  8  9  2  0
  8 10  1  0
 10 11  1  0
 11 12  1  0
 12 13  1  0
 13 14  1  0
 13 15  1  0
 11 16  1  0
 16 17  2  0
 16 18  1  0
 18 19  1  0
 19 20  1  0
 20 21  1  0
 21 22  2  0
 22 23  1  0
 23 24  2  0
 24 25  1  0
 25 26  2  0
 19 27  1  0
 27 28  2  0
 27 29  1  0
 29 30  1  0
 30 31  1  0
 31 32  1  0
 32 33  1  0
 32 34  1  0
 30 35  1  0
 35 36  2  0
 35 37  1  0
 37 38  1  0
 38 39  1  0
 39 40  1  0
 40 41  2  0
 41 42  1  0
 42 43  2  0
 43 44  1  0
 44 45  2  0
 38 46  1  0
 46 47  2  0
 46 48  1  0
 48  6  1  0
 26 21  1  0
 45 40  1  0
  1 49  1  0
  1 50  1  0
  1 51  1  0
  2 52  1  0
  2 53  1  0
  3 54  1  0
  3 55  1  0
  4 56  1  0
  4 57  1  0
  5 58  1  0
  5 59  1  0
  6 60  1  0
  7 61  1  0
  7 62  1  0
 10 63  1  0
 11 64  1  0
 12 65  1  0
 12 66  1  0
 13 67  1  0
 14 68  1  0
 14 69  1  0
 14 70  1  0
 15 71  1  0
 15 72  1  0
 15 73  1  0
 18 74  1  0
 19 75  1  0
 20 76  1  0
 20 77  1  0
 22 78  1  0
 23 79  1  0
 24 80  1  0
 25 81  1  0
 26 82  1  0
 29 83  1  0
 30 84  1  0
 31 85  1  0
 31 86  1  0
 32 87  1  0
 33 88  1  0
 33 89  1  0
 33 90  1  0
 34 91  1  0
 34 92  1  0
 34 93  1  0
 37 94  1  0
 38 95  1  0
 39 96  1  0
 39 97  1  0
 41 98  1  0
 42 99  1  0
 43100  1  0
 44101  1  0
 45102  1  0
M  END
$$$$
