
     RDKit          3D

 43 43  0  0  0  0  0  0  0  0999 V2000
   -5.8872    1.9092    1.5321 C   0  0  0  0  0  0  0  0  0  0  0  0
   -5.8905    0.4370    1.2608 C   0  0  0  0  0  0  0  0  0  0  0  0
   -7.4546   -0.1873    0.8289 Cl  0  0  0  0  0  0  0  0  0  0  0  0
   -4.8562   -0.4202    1.3000 C   0  0  0  0  0  0  0  0  0  0  0  0
   -3.4396   -0.1224    1.6692 C   0  0  0  0  0  0  0  0  0  0  0  0
   -2.4273   -0.1488    0.5099 N   0  0  0  0  0  4  0  0  0  0  0  0
   -2.3825   -1.5307   -0.1352 C   0  0  0  0  0  0  0  0  0  0  0  0
   -2.7974    0.8936   -0.5412 C   0  0  0  0  0  0  0  0  0  0  0  0
   -1.0160    0.1945    1.1290 C   0  0  0  0  0  0  0  0  0  0  0  0
    0.1846    0.2408    0.1845 C   0  0  0  0  0  0  0  0  0  0  0  0
    0.1417    0.0349   -1.0192 O   0  0  0  0  0  0  0  0  0  0  0  0
    1.3058    0.5444    0.8939 O   0  0  0  0  0  0  0  0  0  0  0  0
    2.5248    0.6578    0.1306 C   0  0  0  0  0  0  0  0  0  0  0  0
    3.1574   -0.7174   -0.0759 C   0  0  0  0  0  0  0  0  0  0  0  0
    4.4533   -0.6291   -0.8346 C   0  0  0  0  0  0  0  0  0  0  0  0
    5.6722   -0.5227   -0.1519 C   0  0  0  0  0  0  0  0  0  0  0  0
    6.8708   -0.4193   -0.8595 C   0  0  0  0  0  0  0  0  0  0  0  0
    6.8616   -0.4174   -2.2529 C   0  0  0  0  0  0  0  0  0  0  0  0
    5.6543   -0.5184   -2.9410 C   0  0  0  0  0  0  0  0  0  0  0  0
    4.4543   -0.6220   -2.2362 C   0  0  0  0  0  0  0  0  0  0  0  0
   -6.5089    2.1376    2.4042 H   0  0  0  0  0  0  0  0  0  0  0  0
   -6.2840    2.4580    0.6712 H   0  0  0  0  0  0  0  0  0  0  0  0
   -4.8863    2.3015    1.7276 H   0  0  0  0  0  0  0  0  0  0  0  0
   -5.0664   -1.4694    1.0926 H   0  0  0  0  0  0  0  0  0  0  0  0
   -3.1009   -0.8693    2.3982 H   0  0  0  0  0  0  0  0  0  0  0  0
   -3.3400    0.8568    2.1485 H   0  0  0  0  0  0  0  0  0  0  0  0
   -2.1030   -2.2589    0.6314 H   0  0  0  0  0  0  0  0  0  0  0  0
   -3.3701   -1.7621   -0.5431 H   0  0  0  0  0  0  0  0  0  0  0  0
   -1.6556   -1.5327   -0.9486 H   0  0  0  0  0  0  0  0  0  0  0  0
   -3.7868    0.6561   -0.9412 H   0  0  0  0  0  0  0  0  0  0  0  0
   -2.8015    1.8771   -0.0630 H   0  0  0  0  0  0  0  0  0  0  0  0
   -2.0717    0.8667   -1.3553 H   0  0  0  0  0  0  0  0  0  0  0  0
   -0.8293   -0.5701    1.8911 H   0  0  0  0  0  0  0  0  0  0  0  0
   -1.1250    1.1789    1.5974 H   0  0  0  0  0  0  0  0  0  0  0  0
    3.1973    1.3027    0.7079 H   0  0  0  0  0  0  0  0  0  0  0  0
    2.3360    1.1732   -0.8195 H   0  0  0  0  0  0  0  0  0  0  0  0
    3.3188   -1.1999    0.8967 H   0  0  0  0  0  0  0  0  0  0  0  0
    2.4641   -1.3838   -0.6042 H   0  0  0  0  0  0  0  0  0  0  0  0
    5.7019   -0.5222    0.9354 H   0  0  0  0  0  0  0  0  0  0  0  0
    7.8142   -0.3413   -0.3246 H   0  0  0  0  0  0  0  0  0  0  0  0
    7.7964   -0.3385   -2.8027 H   0  0  0  0  0  0  0  0  0  0  0  0
    5.6496   -0.5176   -4.0283 H   0  0  0  0  0  0  0  0  0  0  0  0
    3.5219   -0.6995   -2.7913 H   0  0  0  0  0  0  0  0  0  0  0  0
  1  2  1  0
  2  3  1  0
  2  4  2  3
  4  5  1  0
  5  6  1  0
  6  7  1  0
  6  8  1  0
  6  9  1  0
  9 10  1  0
 10 11  2  0
 10 12  1  0
 12 13  1  0
 13 14  1  0
 14 15  1  0
 15 16  2  0
 16 17  1  0
 17 18  2  0
 18 19  1  0
 19 20  2  0
 20 15  1  0
  1 21  1  0
  1 22  1  0
  1 23  1  0
  4 24  1  0
  5 25  1  0
  5 26  1  0
  7 27  1  0
  7 28  1  0
  7 29  1  0
  8 30  1  0
  8 31  1  0
  8 32  1  0
  9 33  1  0
  9 34  1  0
 13 35  1  0
 13 36  1  0
 14 37  1  0
 14 38  1  0
 16 39  1  0
 17 40  1  0
 18 41  1  0
 19 42  1  0
 20 43  1  0
M  CHG  1   6   1
M  END
$$$$
