
     RDKit          3D

 51 55  0  0  0  0  0  0  0  0999 V2000
    6.3267    2.5017   -1.6343 C   0  0  0  0  0  0  0  0  0  0  0  0
    6.6776    1.1552   -1.5574 C   0  0  0  0  0  0  0  0  0  0  0  0
    5.9238    0.2796   -0.7745 C   0  0  0  0  0  0  0  0  0  0  0  0
    4.8135    0.7456   -0.0580 C   0  0  0  0  0  0  0  0  0  0  0  0
    3.9834   -0.2060    0.7719 C   0  0  0  0  0  0  0  0  0  0  0  0
    2.7908   -0.7569   -0.0291 C   0  0  0  0  0  0  0  0  0  0  0  0
    2.0267   -1.7855    0.7031 N   0  0  0  0  0  0  0  0  0  0  0  0
    1.0771   -2.4829   -0.1977 C   0  0  0  0  0  0  0  0  0  0  0  0
   -0.1499   -1.6510   -0.6320 C   0  0  0  0  0  0  0  0  0  0  0  0
   -0.8698   -1.1171    0.5417 N   0  0  0  0  0  0  0  0  0  0  0  0
   -2.1397   -0.5844    0.3243 C   0  0  0  0  0  0  0  0  0  0  0  0
   -2.3411    0.6925    0.5341 N   0  0  0  0  0  0  0  0  0  0  0  0
   -3.6052    1.2669    0.2925 C   0  0  0  0  0  0  0  0  0  0  0  0
   -3.7650    2.6356    0.5169 C   0  0  0  0  0  0  0  0  0  0  0  0
   -4.9943    3.2584    0.2842 C   0  0  0  0  0  0  0  0  0  0  0  0
   -6.0804    2.5138   -0.1777 C   0  0  0  0  0  0  0  0  0  0  0  0
   -5.9442    1.1445   -0.4087 C   0  0  0  0  0  0  0  0  0  0  0  0
   -4.7082    0.5357   -0.1719 C   0  0  0  0  0  0  0  0  0  0  0  0
   -4.4872   -0.8373   -0.3662 N   0  0  0  0  0  0  0  0  0  0  0  0
   -5.3583   -1.8157   -0.7837 C   0  0  0  0  0  0  0  0  0  0  0  0
   -4.6948   -3.0236   -0.7548 C   0  0  0  0  0  0  0  0  0  0  0  0
   -3.3745   -2.7660   -0.3184 C   0  0  0  0  0  0  0  0  0  0  0  0
   -3.2570   -1.4023   -0.1176 C   0  0  0  0  0  0  0  0  0  0  0  0
    0.0269   -0.3788    1.4552 C   0  0  0  0  0  0  0  0  0  0  0  0
    1.2515   -1.2372    1.8415 C   0  0  0  0  0  0  0  0  0  0  0  0
    4.4660    2.1005   -0.1456 C   0  0  0  0  0  0  0  0  0  0  0  0
    5.2212    2.9742   -0.9293 C   0  0  0  0  0  0  0  0  0  0  0  0
    6.9145    3.1828   -2.2438 H   0  0  0  0  0  0  0  0  0  0  0  0
    7.5391    0.7861   -2.1078 H   0  0  0  0  0  0  0  0  0  0  0  0
    6.2080   -0.7694   -0.7265 H   0  0  0  0  0  0  0  0  0  0  0  0
    3.6472    0.3227    1.6713 H   0  0  0  0  0  0  0  0  0  0  0  0
    4.6163   -1.0316    1.1222 H   0  0  0  0  0  0  0  0  0  0  0  0
    2.1493    0.0688   -0.3594 H   0  0  0  0  0  0  0  0  0  0  0  0
    3.1948   -1.2122   -0.9437 H   0  0  0  0  0  0  0  0  0  0  0  0
    1.6035   -2.8531   -1.0860 H   0  0  0  0  0  0  0  0  0  0  0  0
    0.7202   -3.3803    0.3256 H   0  0  0  0  0  0  0  0  0  0  0  0
   -0.7996   -2.2935   -1.2343 H   0  0  0  0  0  0  0  0  0  0  0  0
    0.1606   -0.8207   -1.2779 H   0  0  0  0  0  0  0  0  0  0  0  0
   -2.9208    3.2187    0.8752 H   0  0  0  0  0  0  0  0  0  0  0  0
   -5.1020    4.3250    0.4641 H   0  0  0  0  0  0  0  0  0  0  0  0
   -7.0350    3.0028   -0.3565 H   0  0  0  0  0  0  0  0  0  0  0  0
   -6.8031    0.5858   -0.7650 H   0  0  0  0  0  0  0  0  0  0  0  0
   -6.3806   -1.5922   -1.0517 H   0  0  0  0  0  0  0  0  0  0  0  0
   -5.1208   -3.9856   -1.0094 H   0  0  0  0  0  0  0  0  0  0  0  0
   -2.5915   -3.4964   -0.1630 H   0  0  0  0  0  0  0  0  0  0  0  0
    0.3508    0.5605    0.9910 H   0  0  0  0  0  0  0  0  0  0  0  0
   -0.5140   -0.1256    2.3754 H   0  0  0  0  0  0  0  0  0  0  0  0
    0.8975   -2.0905    2.4363 H   0  0  0  0  0  0  0  0  0  0  0  0
    1.8983   -0.6698    2.5185 H   0  0  0  0  0  0  0  0  0  0  0  0
    3.6049    2.4842    0.3970 H   0  0  0  0  0  0  0  0  0  0  0  0
    4.9467    4.0241   -0.9901 H   0  0  0  0  0  0  0  0  0  0  0  0
  1  2  2  0
  2  3  1  0
  3  4  2  0
  4  5  1  0
  5  6  1  0
  6  7  1  0
  7  8  1  0
  8  9  1  0
  9 10  1  0
 10 11  1  0
 11 12  2  0
 12 13  1  0
 13 14  2  0
 14 15  1  0
 15 16  2  0
 16 17  1  0
 17 18  2  0
 18 19  1  0
 19 20  1  0
 20 21  2  0
 21 22  1  0
 22 23  2  0
 10 24  1  0
 24 25  1  0
  4 26  1  0
 26 27  2  0
 27  1  1  0
 25  7  1  0
 23 11  1  0
 18 13  1  0
 23 19  1  0
  1 28  1  0
  2 29  1  0
  3 30  1  0
  5 31  1  0
  5 32  1  0
  6 33  1  0
  6 34  1  0
  8 35  1  0
  8 36  1  0
  9 37  1  0
  9 38  1  0
 14 39  1  0
 15 40  1  0
 16 41  1  0
 17 42  1  0
 20 43  1  0
 21 44  1  0
 22 45  1  0
 24 46  1  0
 24 47  1  0
 25 48  1  0
 25 49  1  0
 26 50  1  0
 27 51  1  0
M  END
$$$$
