
     RDKit          3D

 33 33  0  0  0  0  0  0  0  0999 V2000
   -3.7366   -1.9062    1.1168 C   0  0  0  0  0  0  0  0  0  0  0  0
   -2.9742   -1.4716   -0.1357 C   0  0  0  0  0  0  0  0  0  0  0  0
   -3.8411   -0.5863   -1.0322 C   0  0  0  0  0  0  0  0  0  0  0  0
   -1.6667   -0.8675    0.1633 N   0  0  0  0  0  0  0  0  0  0  0  0
   -1.7138    0.3626    0.9551 C   0  0  0  0  0  0  0  0  0  0  0  0
   -0.3132    0.9614    1.0827 C   0  0  0  0  0  0  0  0  0  0  0  0
    0.2298    1.4738   -0.2508 C   0  0  0  0  0  0  0  0  0  0  0  0
    1.5281    2.0434   -0.0702 O   0  0  0  0  0  0  0  0  0  0  0  0
    2.6358    1.2493   -0.1958 C   0  0  0  0  0  0  0  0  0  0  0  0
    2.6073   -0.1387   -0.3684 C   0  0  0  0  0  0  0  0  0  0  0  0
    3.7979   -0.8655   -0.4810 C   0  0  0  0  0  0  0  0  0  0  0  0
    5.0241   -0.2092   -0.4181 C   0  0  0  0  0  0  0  0  0  0  0  0
    6.4827   -1.1105   -0.5561 Cl  0  0  0  0  0  0  0  0  0  0  0  0
    5.0757    1.1689   -0.2416 C   0  0  0  0  0  0  0  0  0  0  0  0
    3.8846    1.8924   -0.1296 C   0  0  0  0  0  0  0  0  0  0  0  0
    4.0195    3.7744    0.1133 Br  0  0  0  0  0  0  0  0  0  0  0  0
   -4.6234   -2.4872    0.8404 H   0  0  0  0  0  0  0  0  0  0  0  0
   -3.1132   -2.5409    1.7559 H   0  0  0  0  0  0  0  0  0  0  0  0
   -4.0755   -1.0498    1.7089 H   0  0  0  0  0  0  0  0  0  0  0  0
   -2.7566   -2.3808   -0.7106 H   0  0  0  0  0  0  0  0  0  0  0  0
   -3.2841   -0.2582   -1.9166 H   0  0  0  0  0  0  0  0  0  0  0  0
   -4.2076    0.3017   -0.5074 H   0  0  0  0  0  0  0  0  0  0  0  0
   -4.7168   -1.1437   -1.3833 H   0  0  0  0  0  0  0  0  0  0  0  0
   -1.1013   -1.5556    0.6630 H   0  0  0  0  0  0  0  0  0  0  0  0
   -2.0913    0.1515    1.9615 H   0  0  0  0  0  0  0  0  0  0  0  0
   -2.3718    1.1089    0.4986 H   0  0  0  0  0  0  0  0  0  0  0  0
   -0.3425    1.7971    1.7936 H   0  0  0  0  0  0  0  0  0  0  0  0
    0.3747    0.2311    1.5257 H   0  0  0  0  0  0  0  0  0  0  0  0
   -0.4143    2.2898   -0.5999 H   0  0  0  0  0  0  0  0  0  0  0  0
    0.2155    0.7267   -1.0516 H   0  0  0  0  0  0  0  0  0  0  0  0
    1.6752   -0.6930   -0.4139 H   0  0  0  0  0  0  0  0  0  0  0  0
    3.7579   -1.9436   -0.6163 H   0  0  0  0  0  0  0  0  0  0  0  0
    6.0354    1.6755   -0.1913 H   0  0  0  0  0  0  0  0  0  0  0  0
  1  2  1  0
  2  3  1  0
  2  4  1  0
  4  5  1  0
  5  6  1  0
  6  7  1  0
  7  8  1  0
  8  9  1  0
  9 10  2  0
 10 11  1  0
 11 12  2  0
 12 13  1  0
 12 14  1  0
 14 15  2  0
 15 16  1  0
 15  9  1  0
  1 17  1  0
  1 18  1  0
  1 19  1  0
  2 20  1  0
  3 21  1  0
  3 22  1  0
  3 23  1  0
  4 24  1  0
  5 25  1  0
  5 26  1  0
  6 27  1  0
  6 28  1  0
  7 29  1  0
  7 30  1  0
 10 31  1  0
 11 32  1  0
 14 33  1  0
M  END
$$$$
