
     RDKit          3D

 48 51  0  0  0  0  0  0  0  0999 V2000
    1.9836   -3.2142    1.6757 C   0  0  0  0  0  0  0  0  0  0  0  0
    1.8536   -1.8319    1.1202 C   0  0  0  0  0  0  0  0  0  0  0  0
    0.8121   -0.9880    1.2165 C   0  0  0  0  0  0  0  0  0  0  0  0
   -0.4493   -1.0605    1.7404 N   0  0  0  0  0  0  0  0  0  0  0  0
   -1.1783   -2.1661    2.1141 C   0  0  0  0  0  0  0  0  0  0  0  0
   -0.8124   -3.3331    2.0066 O   0  0  0  0  0  0  0  0  0  0  0  0
   -2.5466   -1.8234    2.6834 C   0  0  0  0  0  0  0  0  0  0  0  0
   -3.8052   -1.8091    1.3672 S   0  0  0  0  0  0  0  0  0  0  0  0
   -3.6092   -0.1669    0.6575 C   0  0  0  0  0  0  0  0  0  0  0  0
   -2.6672    0.6153    1.2274 N   0  0  0  0  0  0  0  0  0  0  0  0
   -2.5465    1.8468    0.7160 C   0  0  0  0  0  0  0  0  0  0  0  0
   -3.2635    2.3581   -0.2879 N   0  0  0  0  0  0  0  0  0  0  0  0
   -4.1763    1.5632   -0.8502 C   0  0  0  0  0  0  0  0  0  0  0  0
   -4.9209    2.0682   -1.9093 C   0  0  0  0  0  0  0  0  0  0  0  0
   -5.8976    1.3093   -2.5577 C   0  0  0  0  0  0  0  0  0  0  0  0
   -6.1440    0.0089   -2.1436 C   0  0  0  0  0  0  0  0  0  0  0  0
   -5.4118   -0.5199   -1.0824 C   0  0  0  0  0  0  0  0  0  0  0  0
   -4.4143    0.2502   -0.4208 C   0  0  0  0  0  0  0  0  0  0  0  0
    1.2746    0.2950    0.5905 C   0  0  0  0  0  0  0  0  0  0  0  0
    0.5809    1.3037    0.5836 O   0  0  0  0  0  0  0  0  0  0  0  0
    2.5776    0.0751    0.1401 N   0  0  0  0  0  0  0  0  0  0  0  0
    3.5308    1.0644   -0.2096 C   0  0  0  0  0  0  0  0  0  0  0  0
    3.1200    2.3274   -0.6575 C   0  0  0  0  0  0  0  0  0  0  0  0
    4.0530    3.2995   -1.0323 C   0  0  0  0  0  0  0  0  0  0  0  0
    5.4147    3.0256   -0.9621 C   0  0  0  0  0  0  0  0  0  0  0  0
    5.8437    1.7824   -0.5094 C   0  0  0  0  0  0  0  0  0  0  0  0
    4.9092    0.8123   -0.1327 C   0  0  0  0  0  0  0  0  0  0  0  0
    2.9472   -1.2676    0.4347 N   0  0  0  0  0  0  0  0  0  0  0  0
    3.5198   -2.0101   -0.7035 C   0  0  0  0  0  0  0  0  0  0  0  0
    1.4865   -3.9413    1.0280 H   0  0  0  0  0  0  0  0  0  0  0  0
    3.0362   -3.5061    1.7595 H   0  0  0  0  0  0  0  0  0  0  0  0
    1.5744   -3.2729    2.6867 H   0  0  0  0  0  0  0  0  0  0  0  0
   -0.9835   -0.1921    1.6564 H   0  0  0  0  0  0  0  0  0  0  0  0
   -2.8113   -2.6145    3.3947 H   0  0  0  0  0  0  0  0  0  0  0  0
   -2.5252   -0.8896    3.2540 H   0  0  0  0  0  0  0  0  0  0  0  0
   -1.7879    2.4898    1.1515 H   0  0  0  0  0  0  0  0  0  0  0  0
   -4.7326    3.0872   -2.2436 H   0  0  0  0  0  0  0  0  0  0  0  0
   -6.4576    1.7379   -3.3843 H   0  0  0  0  0  0  0  0  0  0  0  0
   -6.8971   -0.5933   -2.6432 H   0  0  0  0  0  0  0  0  0  0  0  0
   -5.6185   -1.5431   -0.7770 H   0  0  0  0  0  0  0  0  0  0  0  0
    2.0661    2.5763   -0.7440 H   0  0  0  0  0  0  0  0  0  0  0  0
    3.7102    4.2681   -1.3834 H   0  0  0  0  0  0  0  0  0  0  0  0
    6.1390    3.7808   -1.2539 H   0  0  0  0  0  0  0  0  0  0  0  0
    6.9065    1.5677   -0.4380 H   0  0  0  0  0  0  0  0  0  0  0  0
    5.2797   -0.1304    0.2530 H   0  0  0  0  0  0  0  0  0  0  0  0
    4.5654   -2.2526   -0.4890 H   0  0  0  0  0  0  0  0  0  0  0  0
    2.9923   -2.9535   -0.8833 H   0  0  0  0  0  0  0  0  0  0  0  0
    3.4797   -1.4332   -1.6349 H   0  0  0  0  0  0  0  0  0  0  0  0
  1  2  1  0
  2  3  2  0
  3  4  1  0
  4  5  1  0
  5  6  2  0
  5  7  1  0
  7  8  1  0
  8  9  1  0
  9 10  2  0
 10 11  1  0
 11 12  2  0
 12 13  1  0
 13 14  2  0
 14 15  1  0
 15 16  2  0
 16 17  1  0
 17 18  2  0
  3 19  1  0
 19 20  2  0
 19 21  1  0
 21 22  1  0
 22 23  2  0
 23 24  1  0
 24 25  2  0
 25 26  1  0
 26 27  2  0
 21 28  1  0
 28 29  1  0
 28  2  1  0
 18  9  1  0
 27 22  1  0
 18 13  1  0
  1 30  1  0
  1 31  1  0
  1 32  1  0
  4 33  1  0
  7 34  1  0
  7 35  1  0
 11 36  1  0
 14 37  1  0
 15 38  1  0
 16 39  1  0
 17 40  1  0
 23 41  1  0
 24 42  1  0
 25 43  1  0
 26 44  1  0
 27 45  1  0
 29 46  1  0
 29 47  1  0
 29 48  1  0
M  END
$$$$
