
     RDKit          3D

 46 49  0  0  0  0  0  0  0  0999 V2000
    3.1359    0.7455    2.9536 O   0  0  0  0  0  0  0  0  0  0  0  0
    2.9956    0.0447    1.9558 C   0  0  0  0  0  0  0  0  0  0  0  0
    2.8430   -1.4661    2.0771 C   0  0  0  0  0  0  0  0  0  0  0  0
    1.0853   -1.9233    2.2266 S   0  0  0  0  0  0  0  0  0  0  0  0
    0.5402   -1.6428    0.6110 C   0  0  0  0  0  0  0  0  0  0  0  0
    1.3210   -1.4930   -0.4342 N   0  0  0  0  0  0  0  0  0  0  0  0
    0.5291   -1.1796   -1.5045 N   0  0  0  0  0  0  0  0  0  0  0  0
   -0.7287   -1.1718   -1.1006 C   0  0  0  0  0  0  0  0  0  0  0  0
   -1.9123   -0.8346   -1.9500 C   0  0  0  0  0  0  0  0  0  0  0  0
   -2.3472    0.5954   -1.7703 C   0  0  0  0  0  0  0  0  0  0  0  0
   -1.5678    1.7386   -1.7845 C   0  0  0  0  0  0  0  0  0  0  0  0
   -2.3280    2.9192   -1.5535 C   0  0  0  0  0  0  0  0  0  0  0  0
   -3.6671    2.6448   -1.3916 C   0  0  0  0  0  0  0  0  0  0  0  0
   -4.0018    0.9743   -1.5236 S   0  0  0  0  0  0  0  0  0  0  0  0
   -0.7670   -1.4869    0.2425 N   0  0  0  0  0  0  0  0  0  0  0  0
   -1.9391   -1.5652    1.0913 C   0  0  0  0  0  0  0  0  0  0  0  0
   -2.4067   -2.9682    1.2020 C   0  0  0  0  0  0  0  0  0  0  0  0
   -2.2857   -3.9355    2.1786 C   0  0  0  0  0  0  0  0  0  0  0  0
   -2.9541   -5.0831    1.6873 C   0  0  0  0  0  0  0  0  0  0  0  0
   -3.4422   -4.7418    0.4482 C   0  0  0  0  0  0  0  0  0  0  0  0
   -3.1142   -3.4583    0.1449 O   0  0  0  0  0  0  0  0  0  0  0  0
    2.9214    0.5019    0.6493 N   0  0  0  0  0  0  0  0  0  0  0  0
    2.9907    1.8366    0.2012 C   0  0  0  0  0  0  0  0  0  0  0  0
    2.6272    2.0758   -1.1298 C   0  0  0  0  0  0  0  0  0  0  0  0
    2.6500    3.3728   -1.6412 C   0  0  0  0  0  0  0  0  0  0  0  0
    2.1710    3.6525   -3.2706 Cl  0  0  0  0  0  0  0  0  0  0  0  0
    3.0479    4.4423   -0.8459 C   0  0  0  0  0  0  0  0  0  0  0  0
    3.4238    4.2015    0.4720 C   0  0  0  0  0  0  0  0  0  0  0  0
    3.9340    5.5163    1.4627 Cl  0  0  0  0  0  0  0  0  0  0  0  0
    3.3959    2.9092    0.9996 C   0  0  0  0  0  0  0  0  0  0  0  0
    3.3175   -1.9780    1.2332 H   0  0  0  0  0  0  0  0  0  0  0  0
    3.3680   -1.7898    2.9818 H   0  0  0  0  0  0  0  0  0  0  0  0
   -2.7292   -1.5338   -1.7427 H   0  0  0  0  0  0  0  0  0  0  0  0
   -1.6437   -0.9818   -3.0034 H   0  0  0  0  0  0  0  0  0  0  0  0
   -0.4958    1.7271   -1.9460 H   0  0  0  0  0  0  0  0  0  0  0  0
   -1.9130    3.9168   -1.5130 H   0  0  0  0  0  0  0  0  0  0  0  0
   -4.4688    3.3475   -1.2084 H   0  0  0  0  0  0  0  0  0  0  0  0
   -2.7242   -0.9282    0.6748 H   0  0  0  0  0  0  0  0  0  0  0  0
   -1.6900   -1.1483    2.0715 H   0  0  0  0  0  0  0  0  0  0  0  0
   -1.7748   -3.8292    3.1268 H   0  0  0  0  0  0  0  0  0  0  0  0
   -3.0690   -6.0415    2.1752 H   0  0  0  0  0  0  0  0  0  0  0  0
   -4.0106   -5.2704   -0.3044 H   0  0  0  0  0  0  0  0  0  0  0  0
    2.6092   -0.1804   -0.0440 H   0  0  0  0  0  0  0  0  0  0  0  0
    2.3059    1.2548   -1.7710 H   0  0  0  0  0  0  0  0  0  0  0  0
    3.0686    5.4505   -1.2477 H   0  0  0  0  0  0  0  0  0  0  0  0
    3.6999    2.7637    2.0321 H   0  0  0  0  0  0  0  0  0  0  0  0
  1  2  2  0
  2  3  1  0
  3  4  1  0
  4  5  1  0
  5  6  2  0
  6  7  1  0
  7  8  2  0
  8  9  1  0
  9 10  1  0
 10 11  2  0
 11 12  1  0
 12 13  2  0
 13 14  1  0
  8 15  1  0
 15 16  1  0
 16 17  1  0
 17 18  2  0
 18 19  1  0
 19 20  2  0
 20 21  1  0
  2 22  1  0
 22 23  1  0
 23 24  2  0
 24 25  1  0
 25 26  1  0
 25 27  2  0
 27 28  1  0
 28 29  1  0
 28 30  2  0
 15  5  1  0
 21 17  1  0
 30 23  1  0
 14 10  1  0
  3 31  1  0
  3 32  1  0
  9 33  1  0
  9 34  1  0
 11 35  1  0
 12 36  1  0
 13 37  1  0
 16 38  1  0
 16 39  1  0
 18 40  1  0
 19 41  1  0
 20 42  1  0
 22 43  1  0
 24 44  1  0
 27 45  1  0
 30 46  1  0
M  END
$$$$
