
     RDKit          3D

 38 40  0  0  0  0  0  0  0  0999 V2000
   -6.9805   -2.1494   -1.0752 C   0  0  0  0  0  0  0  0  0  0  0  0
   -6.4018   -0.7554   -1.2198 C   0  0  0  0  0  0  0  0  0  0  0  0
   -6.1998   -0.2182    0.0874 O   0  0  0  0  0  0  0  0  0  0  0  0
   -5.6664    1.1108    0.0648 C   0  0  0  0  0  0  0  0  0  0  0  0
   -4.1900    1.0538   -0.1460 C   0  0  0  0  0  0  0  0  0  0  0  0
   -3.5803    1.3383   -1.2800 N   0  0  0  0  0  0  0  0  0  0  0  0
   -2.2114    1.1931   -1.1786 N   0  0  0  0  0  0  0  0  0  0  0  0
   -1.8393    0.8136    0.0242 C   0  0  0  0  0  0  0  0  0  0  0  0
   -0.5253    0.6059    0.3485 N   0  0  0  0  0  0  0  0  0  0  0  0
   -0.0087    0.2310    1.5664 C   0  0  0  0  0  0  0  0  0  0  0  0
   -0.6338    0.0211    2.6017 O   0  0  0  0  0  0  0  0  0  0  0  0
    1.5162    0.0830    1.5434 C   0  0  0  0  0  0  0  0  0  0  0  0
    2.0445    0.3899    0.2546 O   0  0  0  0  0  0  0  0  0  0  0  0
    3.4011    0.2845    0.1019 C   0  0  0  0  0  0  0  0  0  0  0  0
    3.8646    0.5844   -1.1957 C   0  0  0  0  0  0  0  0  0  0  0  0
    5.2260    0.5224   -1.5098 C   0  0  0  0  0  0  0  0  0  0  0  0
    6.0938    0.1588   -0.5057 C   0  0  0  0  0  0  0  0  0  0  0  0
    5.6472   -0.1345    0.7607 C   0  0  0  0  0  0  0  0  0  0  0  0
    4.3091   -0.0820    1.0991 C   0  0  0  0  0  0  0  0  0  0  0  0
    6.6624   -0.4700    1.6025 O   0  0  0  0  0  0  0  0  0  0  0  0
    7.7982   -0.3525    0.7197 C   0  0  0  0  0  0  0  0  0  0  0  0
    7.4431    0.0448   -0.6210 O   0  0  0  0  0  0  0  0  0  0  0  0
   -3.1226    0.6046    1.1231 S   0  0  0  0  0  0  0  0  0  0  0  0
   -7.9255   -2.1195   -0.5229 H   0  0  0  0  0  0  0  0  0  0  0  0
   -6.2995   -2.7922   -0.5074 H   0  0  0  0  0  0  0  0  0  0  0  0
   -7.1580   -2.6016   -2.0549 H   0  0  0  0  0  0  0  0  0  0  0  0
   -5.4519   -0.8073   -1.7617 H   0  0  0  0  0  0  0  0  0  0  0  0
   -7.1001   -0.1208   -1.7763 H   0  0  0  0  0  0  0  0  0  0  0  0
   -5.8923    1.5735    1.0317 H   0  0  0  0  0  0  0  0  0  0  0  0
   -6.1588    1.7132   -0.7072 H   0  0  0  0  0  0  0  0  0  0  0  0
    0.1280    0.7585   -0.4120 H   0  0  0  0  0  0  0  0  0  0  0  0
    1.9171    0.7777    2.2905 H   0  0  0  0  0  0  0  0  0  0  0  0
    1.7409   -0.9570    1.8067 H   0  0  0  0  0  0  0  0  0  0  0  0
    3.1541    0.8694   -1.9688 H   0  0  0  0  0  0  0  0  0  0  0  0
    5.5855    0.7524   -2.5062 H   0  0  0  0  0  0  0  0  0  0  0  0
    4.0164   -0.3235    2.1127 H   0  0  0  0  0  0  0  0  0  0  0  0
    8.3090   -1.3214    0.6751 H   0  0  0  0  0  0  0  0  0  0  0  0
    8.4889    0.3907    1.1345 H   0  0  0  0  0  0  0  0  0  0  0  0
  1  2  1  0
  2  3  1  0
  3  4  1  0
  4  5  1  0
  5  6  2  0
  6  7  1  0
  7  8  2  0
  8  9  1  0
  9 10  1  0
 10 11  2  0
 10 12  1  0
 12 13  1  0
 13 14  1  0
 14 15  2  0
 15 16  1  0
 16 17  2  0
 17 18  1  0
 18 19  2  0
 18 20  1  0
 20 21  1  0
 21 22  1  0
  8 23  1  0
 23  5  1  0
 19 14  1  0
 22 17  1  0
  1 24  1  0
  1 25  1  0
  1 26  1  0
  2 27  1  0
  2 28  1  0
  4 29  1  0
  4 30  1  0
  9 31  1  0
 12 32  1  0
 12 33  1  0
 15 34  1  0
 16 35  1  0
 19 36  1  0
 21 37  1  0
 21 38  1  0
M  END
$$$$
