
     RDKit          3D

 39 40  0  0  0  0  0  0  0  0999 V2000
   -1.2089   -1.0168    2.4322 O   0  0  0  0  0  0  0  0  0  0  0  0
   -1.1427   -0.6201    1.2753 C   0  0  0  0  0  0  0  0  0  0  0  0
    0.1590   -0.6399    0.4875 C   0  0  0  0  0  0  0  0  0  0  0  0
    1.3445   -1.0980    1.3375 C   0  0  0  0  0  0  0  0  0  0  0  0
    2.6301   -1.2013    0.5214 C   0  0  0  0  0  0  0  0  0  0  0  0
    2.9326    0.0819   -0.0238 O   0  0  0  0  0  0  0  0  0  0  0  0
    4.0493    0.1787   -0.8072 C   0  0  0  0  0  0  0  0  0  0  0  0
    4.2818    1.4512   -1.3362 C   0  0  0  0  0  0  0  0  0  0  0  0
    5.3866    1.6911   -2.1550 C   0  0  0  0  0  0  0  0  0  0  0  0
    6.2691    0.6550   -2.4496 C   0  0  0  0  0  0  0  0  0  0  0  0
    6.0451   -0.6165   -1.9244 C   0  0  0  0  0  0  0  0  0  0  0  0
    4.9378   -0.8558   -1.1041 C   0  0  0  0  0  0  0  0  0  0  0  0
   -2.1863   -0.1234    0.5068 N   0  0  0  0  0  0  0  0  0  0  0  0
   -3.5438    0.0499    0.8747 C   0  0  0  0  0  0  0  0  0  0  0  0
   -4.0125   -0.2847    2.1528 C   0  0  0  0  0  0  0  0  0  0  0  0
   -5.3541   -0.1089    2.5060 C   0  0  0  0  0  0  0  0  0  0  0  0
   -6.2565    0.4060    1.5867 C   0  0  0  0  0  0  0  0  0  0  0  0
   -5.8137    0.7450    0.3122 C   0  0  0  0  0  0  0  0  0  0  0  0
   -4.4618    0.5742   -0.0613 C   0  0  0  0  0  0  0  0  0  0  0  0
   -4.0922    0.9717   -1.4680 C   0  0  0  0  0  0  0  0  0  0  0  0
   -2.7712    0.7983   -1.7709 F   0  0  0  0  0  0  0  0  0  0  0  0
   -4.7762    0.2618   -2.4084 F   0  0  0  0  0  0  0  0  0  0  0  0
   -4.3555    2.2829   -1.7280 F   0  0  0  0  0  0  0  0  0  0  0  0
    0.3406    0.3696    0.1005 H   0  0  0  0  0  0  0  0  0  0  0  0
    0.0283   -1.3176   -0.3646 H   0  0  0  0  0  0  0  0  0  0  0  0
    1.4893   -0.3814    2.1557 H   0  0  0  0  0  0  0  0  0  0  0  0
    1.1302   -2.0721    1.7929 H   0  0  0  0  0  0  0  0  0  0  0  0
    2.4910   -1.9336   -0.2832 H   0  0  0  0  0  0  0  0  0  0  0  0
    3.4411   -1.5280    1.1832 H   0  0  0  0  0  0  0  0  0  0  0  0
    3.5963    2.2632   -1.1069 H   0  0  0  0  0  0  0  0  0  0  0  0
    5.5567    2.6851   -2.5595 H   0  0  0  0  0  0  0  0  0  0  0  0
    7.1310    0.8380   -3.0859 H   0  0  0  0  0  0  0  0  0  0  0  0
    6.7349   -1.4253   -2.1521 H   0  0  0  0  0  0  0  0  0  0  0  0
    4.8016   -1.8583   -0.7134 H   0  0  0  0  0  0  0  0  0  0  0  0
   -1.9320    0.1546   -0.4380 H   0  0  0  0  0  0  0  0  0  0  0  0
   -3.3545   -0.6904    2.9155 H   0  0  0  0  0  0  0  0  0  0  0  0
   -5.6861   -0.3778    3.5062 H   0  0  0  0  0  0  0  0  0  0  0  0
   -7.2993    0.5428    1.8613 H   0  0  0  0  0  0  0  0  0  0  0  0
   -6.5293    1.1487   -0.4042 H   0  0  0  0  0  0  0  0  0  0  0  0
  1  2  2  0
  2  3  1  0
  3  4  1  0
  4  5  1  0
  5  6  1  0
  6  7  1  0
  7  8  2  0
  8  9  1  0
  9 10  2  0
 10 11  1  0
 11 12  2  0
  2 13  1  0
 13 14  1  0
 14 15  2  0
 15 16  1  0
 16 17  2  0
 17 18  1  0
 18 19  2  0
 19 20  1  0
 20 21  1  0
 20 22  1  0
 20 23  1  0
 12  7  1  0
 19 14  1  0
  3 24  1  0
  3 25  1  0
  4 26  1  0
  4 27  1  0
  5 28  1  0
  5 29  1  0
  8 30  1  0
  9 31  1  0
 10 32  1  0
 11 33  1  0
 12 34  1  0
 13 35  1  0
 15 36  1  0
 16 37  1  0
 17 38  1  0
 18 39  1  0
M  END
$$$$
