
     RDKit          3D

 60 65  0  0  0  0  0  0  0  0999 V2000
    3.7913   -2.8883    4.0367 O   0  0  0  0  0  0  0  0  0  0  0  0
    3.6211   -1.9429    3.2745 C   0  0  0  0  0  0  0  0  0  0  0  0
    2.4250   -1.2375    3.2297 N   0  0  0  0  0  0  0  0  0  0  0  0
    2.1838   -0.1470    2.3921 C   0  0  0  0  0  0  0  0  0  0  0  0
    0.7938    0.4587    2.5407 C   0  0  0  0  0  0  0  0  0  0  0  0
   -0.2886   -0.5090    2.0294 C   0  0  0  0  0  0  0  0  0  0  0  0
   -1.0345    0.0270    0.8124 C   0  0  0  0  0  0  0  0  0  0  0  0
   -1.6255    1.3645    1.0758 N   0  0  0  0  0  0  0  0  0  0  0  0
   -3.2745    1.4064    1.5289 S   0  0  0  0  0  6  0  0  0  0  0  0
   -3.6610    2.7928    1.6806 O   0  0  0  0  0  0  0  0  0  0  0  0
   -3.4400    0.4571    2.6092 O   0  0  0  0  0  0  0  0  0  0  0  0
   -4.1064    0.7877    0.0907 C   0  0  0  0  0  0  0  0  0  0  0  0
   -4.0054    1.5003   -1.1120 C   0  0  0  0  0  0  0  0  0  0  0  0
   -4.6831    1.0398   -2.2423 C   0  0  0  0  0  0  0  0  0  0  0  0
   -5.4582   -0.1178   -2.1618 C   0  0  0  0  0  0  0  0  0  0  0  0
   -5.5323   -0.8378   -0.9612 C   0  0  0  0  0  0  0  0  0  0  0  0
   -4.8704   -0.3786    0.1751 C   0  0  0  0  0  0  0  0  0  0  0  0
   -6.2504   -1.9983   -0.8260 O   0  0  0  0  0  0  0  0  0  0  0  0
   -6.6020   -2.5494   -2.0994 C   0  0  0  0  0  0  0  0  0  0  0  0
   -7.1361   -1.4664   -3.0221 C   0  0  0  0  0  0  0  0  0  0  0  0
   -6.1206   -0.4922   -3.3026 O   0  0  0  0  0  0  0  0  0  0  0  0
   -0.7754    2.2909    1.8731 C   0  0  0  0  0  0  0  0  0  0  0  0
    0.6775    1.8410    1.8861 C   0  0  0  0  0  0  0  0  0  0  0  0
    3.0527    0.3237    1.5391 N   0  0  0  0  0  0  0  0  0  0  0  0
    4.2308   -0.3493    1.5627 C   0  0  0  0  0  0  0  0  0  0  0  0
    4.5869   -1.4224    2.3456 C   0  0  0  0  0  0  0  0  0  0  0  0
    5.8683   -1.8011    2.0894 N   0  0  0  0  0  0  0  0  0  0  0  0
    6.3430   -0.9813    1.1513 N   0  0  0  0  0  0  0  0  0  0  0  0
    5.3524   -0.1147    0.8189 N   0  0  0  0  0  0  0  0  0  0  0  0
    5.5810    0.9320   -0.1556 C   0  0  0  0  0  0  0  0  0  0  0  0
    5.1093    0.5256   -1.5316 C   0  0  0  0  0  0  0  0  0  0  0  0
    5.8202   -0.4319   -2.2759 C   0  0  0  0  0  0  0  0  0  0  0  0
    5.3822   -0.8073   -3.5474 C   0  0  0  0  0  0  0  0  0  0  0  0
    4.2382   -0.2257   -4.0771 C   0  0  0  0  0  0  0  0  0  0  0  0
    3.8194   -0.5869   -5.2979 F   0  0  0  0  0  0  0  0  0  0  0  0
    3.5196    0.7220   -3.3584 C   0  0  0  0  0  0  0  0  0  0  0  0
    3.9516    1.0965   -2.0841 C   0  0  0  0  0  0  0  0  0  0  0  0
    1.7210   -1.5634    3.8775 H   0  0  0  0  0  0  0  0  0  0  0  0
    0.6348    0.5816    3.6231 H   0  0  0  0  0  0  0  0  0  0  0  0
    0.1274   -1.4926    1.7841 H   0  0  0  0  0  0  0  0  0  0  0  0
   -1.0073   -0.6785    2.8401 H   0  0  0  0  0  0  0  0  0  0  0  0
   -1.8038   -0.6904    0.5102 H   0  0  0  0  0  0  0  0  0  0  0  0
   -0.3567    0.1146   -0.0462 H   0  0  0  0  0  0  0  0  0  0  0  0
   -3.4184    2.4140   -1.1651 H   0  0  0  0  0  0  0  0  0  0  0  0
   -4.6283    1.5923   -3.1771 H   0  0  0  0  0  0  0  0  0  0  0  0
   -4.9563   -0.9292    1.1103 H   0  0  0  0  0  0  0  0  0  0  0  0
   -7.3663   -3.3161   -1.9310 H   0  0  0  0  0  0  0  0  0  0  0  0
   -5.7162   -3.0368   -2.5232 H   0  0  0  0  0  0  0  0  0  0  0  0
   -7.4476   -1.9030   -3.9744 H   0  0  0  0  0  0  0  0  0  0  0  0
   -8.0001   -0.9524   -2.5825 H   0  0  0  0  0  0  0  0  0  0  0  0
   -1.1414    2.3538    2.9055 H   0  0  0  0  0  0  0  0  0  0  0  0
   -0.8435    3.2890    1.4264 H   0  0  0  0  0  0  0  0  0  0  0  0
    1.0682    1.8286    0.8606 H   0  0  0  0  0  0  0  0  0  0  0  0
    1.2862    2.5654    2.4407 H   0  0  0  0  0  0  0  0  0  0  0  0
    6.6536    1.1612   -0.1722 H   0  0  0  0  0  0  0  0  0  0  0  0
    5.0648    1.8332    0.1942 H   0  0  0  0  0  0  0  0  0  0  0  0
    6.7149   -0.8972   -1.8651 H   0  0  0  0  0  0  0  0  0  0  0  0
    5.9247   -1.5495   -4.1251 H   0  0  0  0  0  0  0  0  0  0  0  0
    2.6293    1.1622   -3.7947 H   0  0  0  0  0  0  0  0  0  0  0  0
    3.3772    1.8334   -1.5253 H   0  0  0  0  0  0  0  0  0  0  0  0
  1  2  2  0
  2  3  1  0
  3  4  1  0
  4  5  1  0
  5  6  1  0
  6  7  1  0
  7  8  1  0
  8  9  1  0
  9 10  2  0
  9 11  2  0
  9 12  1  0
 12 13  2  0
 13 14  1  0
 14 15  2  0
 15 16  1  0
 16 17  2  0
 16 18  1  0
 18 19  1  0
 19 20  1  0
 20 21  1  0
  8 22  1  0
 22 23  1  0
  4 24  2  0
 24 25  1  0
 25 26  2  0
 26 27  1  0
 27 28  2  0
 28 29  1  0
 29 30  1  0
 30 31  1  0
 31 32  2  0
 32 33  1  0
 33 34  2  0
 34 35  1  0
 34 36  1  0
 36 37  2  0
 26  2  1  0
 37 31  1  0
 23  5  1  0
 29 25  1  0
 17 12  1  0
 21 15  1  0
  3 38  1  0
  5 39  1  0
  6 40  1  0
  6 41  1  0
  7 42  1  0
  7 43  1  0
 13 44  1  0
 14 45  1  0
 17 46  1  0
 19 47  1  0
 19 48  1  0
 20 49  1  0
 20 50  1  0
 22 51  1  0
 22 52  1  0
 23 53  1  0
 23 54  1  0
 30 55  1  0
 30 56  1  0
 32 57  1  0
 33 58  1  0
 36 59  1  0
 37 60  1  0
M  END
$$$$
