
     RDKit          3D

 43 46  0  0  0  0  0  0  0  0999 V2000
   -1.5679   -0.5132    2.4246 O   0  0  0  0  0  0  0  0  0  0  0  0
   -1.8918   -0.3340    1.2570 C   0  0  0  0  0  0  0  0  0  0  0  0
   -1.0482   -0.2344    0.1653 N   0  0  0  0  0  0  0  0  0  0  0  0
    0.3617   -0.2401    0.1714 C   0  0  0  0  0  0  0  0  0  0  0  0
    1.0089   -0.2060   -1.0678 C   0  0  0  0  0  0  0  0  0  0  0  0
    2.4081   -0.2031   -1.1514 C   0  0  0  0  0  0  0  0  0  0  0  0
    3.1856   -0.2350    0.0044 C   0  0  0  0  0  0  0  0  0  0  0  0
    4.5961   -0.2308    0.0180 N   0  0  0  0  0  0  0  0  0  0  0  0
    5.4617   -0.2602   -1.0681 C   0  0  0  0  0  0  0  0  0  0  0  0
    5.0916   -0.3435   -2.2359 O   0  0  0  0  0  0  0  0  0  0  0  0
    6.8773   -0.1998   -0.6933 C   0  0  0  0  0  0  0  0  0  0  0  0
    7.4821    0.2388    0.4742 C   0  0  0  0  0  0  0  0  0  0  0  0
    8.9040    0.1247    0.4352 C   0  0  0  0  0  0  0  0  0  0  0  0
    9.3466   -0.3881   -0.7615 C   0  0  0  0  0  0  0  0  0  0  0  0
    8.0578   -0.7204   -1.8311 S   0  0  0  0  0  0  0  0  0  0  0  0
    2.5369   -0.2629    1.2440 C   0  0  0  0  0  0  0  0  0  0  0  0
    1.1380   -0.2646    1.3275 C   0  0  0  0  0  0  0  0  0  0  0  0
   -3.3432   -0.2506    0.9324 C   0  0  0  0  0  0  0  0  0  0  0  0
   -4.2344   -1.0517    1.6508 C   0  0  0  0  0  0  0  0  0  0  0  0
   -5.6011   -1.0031    1.3698 C   0  0  0  0  0  0  0  0  0  0  0  0
   -6.0975   -0.1450    0.3761 C   0  0  0  0  0  0  0  0  0  0  0  0
   -7.4690   -0.0859    0.0827 C   0  0  0  0  0  0  0  0  0  0  0  0
   -7.9514    0.7789   -0.9007 C   0  0  0  0  0  0  0  0  0  0  0  0
   -7.0701    1.5966   -1.6015 C   0  0  0  0  0  0  0  0  0  0  0  0
   -5.7032    1.5507   -1.3225 C   0  0  0  0  0  0  0  0  0  0  0  0
   -5.2001    0.6833   -0.3391 C   0  0  0  0  0  0  0  0  0  0  0  0
   -3.8266    0.6254   -0.0489 C   0  0  0  0  0  0  0  0  0  0  0  0
   -1.4803   -0.2245   -0.7495 H   0  0  0  0  0  0  0  0  0  0  0  0
    0.4409   -0.1829   -1.9944 H   0  0  0  0  0  0  0  0  0  0  0  0
    2.8521   -0.1735   -2.1414 H   0  0  0  0  0  0  0  0  0  0  0  0
    5.0184   -0.2642    0.9341 H   0  0  0  0  0  0  0  0  0  0  0  0
    6.9473    0.6448    1.3236 H   0  0  0  0  0  0  0  0  0  0  0  0
    9.5683    0.4124    1.2414 H   0  0  0  0  0  0  0  0  0  0  0  0
   10.3671   -0.5773   -1.0661 H   0  0  0  0  0  0  0  0  0  0  0  0
    3.1027   -0.2848    2.1719 H   0  0  0  0  0  0  0  0  0  0  0  0
    0.6886   -0.2829    2.3154 H   0  0  0  0  0  0  0  0  0  0  0  0
   -3.8663   -1.7174    2.4292 H   0  0  0  0  0  0  0  0  0  0  0  0
   -6.2770   -1.6391    1.9377 H   0  0  0  0  0  0  0  0  0  0  0  0
   -8.1750   -0.7138    0.6222 H   0  0  0  0  0  0  0  0  0  0  0  0
   -9.0162    0.8151   -1.1166 H   0  0  0  0  0  0  0  0  0  0  0  0
   -7.4463    2.2726   -2.3652 H   0  0  0  0  0  0  0  0  0  0  0  0
   -5.0336    2.2009   -1.8813 H   0  0  0  0  0  0  0  0  0  0  0  0
   -3.1426    1.2887   -0.5726 H   0  0  0  0  0  0  0  0  0  0  0  0
  1  2  2  0
  2  3  1  0
  3  4  1  0
  4  5  2  0
  5  6  1  0
  6  7  2  0
  7  8  1  0
  8  9  1  0
  9 10  2  0
  9 11  1  0
 11 12  2  0
 12 13  1  0
 13 14  2  0
 14 15  1  0
  7 16  1  0
 16 17  2  0
  2 18  1  0
 18 19  2  0
 19 20  1  0
 20 21  2  0
 21 22  1  0
 22 23  2  0
 23 24  1  0
 24 25  2  0
 25 26  1  0
 26 27  2  0
 17  4  1  0
 27 18  1  0
 15 11  1  0
 26 21  1  0
  3 28  1  0
  5 29  1  0
  6 30  1  0
  8 31  1  0
 12 32  1  0
 13 33  1  0
 14 34  1  0
 16 35  1  0
 17 36  1  0
 19 37  1  0
 20 38  1  0
 22 39  1  0
 23 40  1  0
 24 41  1  0
 25 42  1  0
 27 43  1  0
M  END
$$$$
