
     RDKit          3D

 37 39  0  0  0  0  0  0  0  0999 V2000
   -6.0659    3.6291    1.8287 C   0  0  0  0  0  0  0  0  0  0  0  0
   -4.8092    3.8209    1.1910 O   0  0  0  0  0  0  0  0  0  0  0  0
   -4.1468    2.6993    0.7781 C   0  0  0  0  0  0  0  0  0  0  0  0
   -2.9281    2.9391    0.1452 C   0  0  0  0  0  0  0  0  0  0  0  0
   -2.1483    1.8782   -0.3269 C   0  0  0  0  0  0  0  0  0  0  0  0
   -2.5687    0.5472   -0.1802 C   0  0  0  0  0  0  0  0  0  0  0  0
   -1.7086   -0.5298   -0.6956 C   0  0  0  0  0  0  0  0  0  0  0  0
   -0.4809   -0.3729   -1.1599 N   0  0  0  0  0  0  0  0  0  0  0  0
    0.0199   -1.6054   -1.5562 C   0  0  0  0  0  0  0  0  0  0  0  0
    1.3000   -1.5706   -2.0430 N   0  0  0  0  0  0  0  0  0  0  0  0
    2.0368   -2.6537   -2.4522 C   0  0  0  0  0  0  0  0  0  0  0  0
    1.6364   -3.8157   -2.5031 O   0  0  0  0  0  0  0  0  0  0  0  0
    3.4324   -2.3272   -2.9716 C   0  0  0  0  0  0  0  0  0  0  0  0
    4.1083   -0.7314   -2.4213 S   0  0  0  0  0  0  0  0  0  0  0  0
    4.4988   -1.0852   -0.7547 C   0  0  0  0  0  0  0  0  0  0  0  0
    4.1852   -2.2206   -0.1748 N   0  0  0  0  0  0  0  0  0  0  0  0
    4.5873   -2.2592    1.1452 N   0  0  0  0  0  0  0  0  0  0  0  0
    5.1858   -1.1461    1.5129 C   0  0  0  0  0  0  0  0  0  0  0  0
    5.7322   -0.8809    2.8669 C   0  0  0  0  0  0  0  0  0  0  0  0
    5.3025    0.0316    0.2670 S   0  0  0  0  0  0  0  0  0  0  0  0
   -0.7548   -2.6799   -1.4451 N   0  0  0  0  0  0  0  0  0  0  0  0
   -2.1957   -2.1775   -0.7911 S   0  0  0  0  0  0  0  0  0  0  0  0
   -3.7956    0.3195    0.4630 C   0  0  0  0  0  0  0  0  0  0  0  0
   -4.5774    1.3846    0.9370 C   0  0  0  0  0  0  0  0  0  0  0  0
   -5.9539    3.0606    2.7580 H   0  0  0  0  0  0  0  0  0  0  0  0
   -6.4638    4.6150    2.0874 H   0  0  0  0  0  0  0  0  0  0  0  0
   -6.7815    3.1475    1.1542 H   0  0  0  0  0  0  0  0  0  0  0  0
   -2.5796    3.9610    0.0164 H   0  0  0  0  0  0  0  0  0  0  0  0
   -1.2022    2.1033   -0.8168 H   0  0  0  0  0  0  0  0  0  0  0  0
    1.7166   -0.6521   -2.0279 H   0  0  0  0  0  0  0  0  0  0  0  0
    3.3718   -2.3025   -4.0646 H   0  0  0  0  0  0  0  0  0  0  0  0
    4.1170   -3.1342   -2.6908 H   0  0  0  0  0  0  0  0  0  0  0  0
    5.4878   -1.7039    3.5461 H   0  0  0  0  0  0  0  0  0  0  0  0
    5.3108    0.0374    3.2877 H   0  0  0  0  0  0  0  0  0  0  0  0
    6.8220   -0.7852    2.8322 H   0  0  0  0  0  0  0  0  0  0  0  0
   -4.1744   -0.6877    0.6196 H   0  0  0  0  0  0  0  0  0  0  0  0
   -5.5159    1.1474    1.4273 H   0  0  0  0  0  0  0  0  0  0  0  0
  1  2  1  0
  2  3  1  0
  3  4  2  0
  4  5  1  0
  5  6  2  0
  6  7  1  0
  7  8  2  0
  8  9  1  0
  9 10  1  0
 10 11  1  0
 11 12  2  0
 11 13  1  0
 13 14  1  0
 14 15  1  0
 15 16  2  0
 16 17  1  0
 17 18  2  0
 18 19  1  0
 18 20  1  0
  9 21  2  0
 21 22  1  0
  6 23  1  0
 23 24  2  0
 24  3  1  0
 22  7  1  0
 20 15  1  0
  1 25  1  0
  1 26  1  0
  1 27  1  0
  4 28  1  0
  5 29  1  0
 10 30  1  0
 13 31  1  0
 13 32  1  0
 19 33  1  0
 19 34  1  0
 19 35  1  0
 23 36  1  0
 24 37  1  0
M  END
$$$$
