
     RDKit          3D

 51 55  0  0  0  0  0  0  0  0999 V2000
    5.8925   -2.5386   -1.0712 C   0  0  0  0  0  0  0  0  0  0  0  0
    5.4726   -1.2565   -0.3761 C   0  0  0  0  0  0  0  0  0  0  0  0
    4.8747   -0.3544   -1.3052 O   0  0  0  0  0  0  0  0  0  0  0  0
    3.5135   -0.3362   -1.4127 C   0  0  0  0  0  0  0  0  0  0  0  0
    2.9992    0.7890   -2.0654 C   0  0  0  0  0  0  0  0  0  0  0  0
    1.6249    0.9441   -2.2464 C   0  0  0  0  0  0  0  0  0  0  0  0
    0.7600   -0.0401   -1.7664 C   0  0  0  0  0  0  0  0  0  0  0  0
   -1.0031    0.1627   -1.9756 S   0  0  0  0  0  6  0  0  0  0  0  0
   -1.1606    0.9368   -3.1900 O   0  0  0  0  0  0  0  0  0  0  0  0
   -1.5903   -1.1550   -1.8524 O   0  0  0  0  0  0  0  0  0  0  0  0
   -1.4301    1.1034   -0.6492 N   0  0  0  0  0  0  0  0  0  0  0  0
   -2.2561    2.2581   -0.6835 C   0  0  0  0  0  0  0  0  0  0  0  0
   -2.0883    3.1784    0.1131 O   0  0  0  0  0  0  0  0  0  0  0  0
   -3.3307    2.2734   -1.6561 C   0  0  0  0  0  0  0  0  0  0  0  0
   -4.0402    3.3310   -2.1973 C   0  0  0  0  0  0  0  0  0  0  0  0
   -5.0057    2.7736   -3.0696 C   0  0  0  0  0  0  0  0  0  0  0  0
   -4.8487    1.4110   -2.9919 C   0  0  0  0  0  0  0  0  0  0  0  0
   -3.8530    1.0968   -2.1256 O   0  0  0  0  0  0  0  0  0  0  0  0
   -1.0115    0.6873    0.6647 C   0  0  0  0  0  0  0  0  0  0  0  0
    0.1623    1.2625    1.1765 C   0  0  0  0  0  0  0  0  0  0  0  0
    0.6177    0.8605    2.4155 C   0  0  0  0  0  0  0  0  0  0  0  0
    2.0610    1.3940    3.2524 S   0  0  0  0  0  0  0  0  0  0  0  0
    1.6401    0.3039    4.5764 C   0  0  0  0  0  0  0  0  0  0  0  0
    2.3408    0.1988    5.5741 O   0  0  0  0  0  0  0  0  0  0  0  0
    0.4678   -0.4272    4.4028 O   0  0  0  0  0  0  0  0  0  0  0  0
   -0.0794   -0.0826    3.1598 C   0  0  0  0  0  0  0  0  0  0  0  0
   -1.2706   -0.6591    2.6983 C   0  0  0  0  0  0  0  0  0  0  0  0
   -1.9824   -1.6054    3.4626 C   0  0  0  0  0  0  0  0  0  0  0  0
   -3.1715   -2.1588    2.9941 C   0  0  0  0  0  0  0  0  0  0  0  0
   -3.6669   -1.7756    1.7563 C   0  0  0  0  0  0  0  0  0  0  0  0
   -2.9727   -0.8418    0.9837 C   0  0  0  0  0  0  0  0  0  0  0  0
   -1.7595   -0.2651    1.4238 C   0  0  0  0  0  0  0  0  0  0  0  0
    1.2618   -1.1891   -1.1484 C   0  0  0  0  0  0  0  0  0  0  0  0
    2.6409   -1.3299   -0.9668 C   0  0  0  0  0  0  0  0  0  0  0  0
    5.0336   -3.0548   -1.5100 H   0  0  0  0  0  0  0  0  0  0  0  0
    6.5817   -2.3195   -1.8919 H   0  0  0  0  0  0  0  0  0  0  0  0
    6.3895   -3.2124   -0.3692 H   0  0  0  0  0  0  0  0  0  0  0  0
    4.8392   -1.4434    0.4970 H   0  0  0  0  0  0  0  0  0  0  0  0
    6.3723   -0.7594    0.0042 H   0  0  0  0  0  0  0  0  0  0  0  0
    3.6805    1.5519   -2.4332 H   0  0  0  0  0  0  0  0  0  0  0  0
    1.2454    1.8253   -2.7564 H   0  0  0  0  0  0  0  0  0  0  0  0
   -3.8679    4.3783   -1.9858 H   0  0  0  0  0  0  0  0  0  0  0  0
   -5.7297    3.2990   -3.6776 H   0  0  0  0  0  0  0  0  0  0  0  0
   -5.3438    0.5713   -3.4616 H   0  0  0  0  0  0  0  0  0  0  0  0
    0.7121    2.0096    0.6081 H   0  0  0  0  0  0  0  0  0  0  0  0
   -1.6147   -1.9191    4.4381 H   0  0  0  0  0  0  0  0  0  0  0  0
   -3.7087   -2.8877    3.5958 H   0  0  0  0  0  0  0  0  0  0  0  0
   -4.5944   -2.2037    1.3834 H   0  0  0  0  0  0  0  0  0  0  0  0
   -3.3980   -0.5777    0.0177 H   0  0  0  0  0  0  0  0  0  0  0  0
    0.5919   -1.9735   -0.8001 H   0  0  0  0  0  0  0  0  0  0  0  0
    3.0025   -2.2340   -0.4889 H   0  0  0  0  0  0  0  0  0  0  0  0
  1  2  1  0
  2  3  1  0
  3  4  1  0
  4  5  2  0
  5  6  1  0
  6  7  2  0
  7  8  1  0
  8  9  2  0
  8 10  2  0
  8 11  1  0
 11 12  1  0
 12 13  2  0
 12 14  1  0
 14 15  2  0
 15 16  1  0
 16 17  2  0
 17 18  1  0
 11 19  1  0
 19 20  2  0
 20 21  1  0
 21 22  1  0
 22 23  1  0
 23 24  2  0
 23 25  1  0
 25 26  1  0
 26 27  1  0
 27 28  2  0
 28 29  1  0
 29 30  2  0
 30 31  1  0
 31 32  2  0
  7 33  1  0
 33 34  2  0
 34  4  1  0
 18 14  1  0
 32 19  1  0
 26 21  2  0
 32 27  1  0
  1 35  1  0
  1 36  1  0
  1 37  1  0
  2 38  1  0
  2 39  1  0
  5 40  1  0
  6 41  1  0
 15 42  1  0
 16 43  1  0
 17 44  1  0
 20 45  1  0
 28 46  1  0
 29 47  1  0
 30 48  1  0
 31 49  1  0
 33 50  1  0
 34 51  1  0
M  END
$$$$
