
     RDKit          3D

 45 44  0  0  0  0  0  0  0  0999 V2000
    3.7736   -3.9292    3.0075 C   0  0  0  0  0  0  0  0  0  0  0  0
    3.6333   -2.8247    1.9717 C   0  0  0  0  0  0  0  0  0  0  0  0
    2.5735   -3.1726    0.9242 C   0  0  0  0  0  0  0  0  0  0  0  0
    2.4448   -2.0991   -0.1526 C   0  0  0  0  0  0  0  0  0  0  0  0
    1.9170   -0.8618    0.3717 N   0  0  0  0  0  0  0  0  0  0  0  0
    1.9601    0.2817   -0.3676 C   0  0  0  0  0  0  0  0  0  0  0  0
    2.6020    0.4477   -1.3938 O   0  0  0  0  0  0  0  0  0  0  0  0
    1.1447    1.2029    0.2023 O   0  0  0  0  0  0  0  0  0  0  0  0
    0.9442    2.3953   -0.5731 C   0  0  0  0  0  0  0  0  0  0  0  0
   -0.1141    2.1677   -1.6763 C   0  0  0  0  0  0  0  0  0  0  0  0
   -0.1636    3.3821   -2.6155 C   0  0  0  0  0  0  0  0  0  0  0  0
   -1.0748    3.1592   -3.8158 C   0  0  0  0  0  0  0  0  0  0  0  0
   -1.4301    1.9289   -1.0866 N   0  0  0  0  0  0  0  0  0  0  0  0
   -1.8271    0.7119   -0.6218 C   0  0  0  0  0  0  0  0  0  0  0  0
   -1.2324   -0.3436   -0.7718 O   0  0  0  0  0  0  0  0  0  0  0  0
   -2.9922    0.8679    0.0530 O   0  0  0  0  0  0  0  0  0  0  0  0
   -3.5546   -0.3270    0.6257 C   0  0  0  0  0  0  0  0  0  0  0  0
   -2.8989   -0.6063    1.9739 C   0  0  0  0  0  0  0  0  0  0  0  0
   -5.0494   -0.0834    0.7941 C   0  0  0  0  0  0  0  0  0  0  0  0
    4.5356   -3.6615    3.7461 H   0  0  0  0  0  0  0  0  0  0  0  0
    2.8295   -4.0922    3.5371 H   0  0  0  0  0  0  0  0  0  0  0  0
    4.0721   -4.8720    2.5381 H   0  0  0  0  0  0  0  0  0  0  0  0
    3.3702   -1.8909    2.4815 H   0  0  0  0  0  0  0  0  0  0  0  0
    4.6015   -2.6660    1.4826 H   0  0  0  0  0  0  0  0  0  0  0  0
    2.8409   -4.1208    0.4422 H   0  0  0  0  0  0  0  0  0  0  0  0
    1.6047   -3.3229    1.4165 H   0  0  0  0  0  0  0  0  0  0  0  0
    3.4126   -1.9062   -0.6294 H   0  0  0  0  0  0  0  0  0  0  0  0
    1.7554   -2.4380   -0.9344 H   0  0  0  0  0  0  0  0  0  0  0  0
    1.1035   -0.8955    0.9718 H   0  0  0  0  0  0  0  0  0  0  0  0
    1.8980    2.7412   -0.9900 H   0  0  0  0  0  0  0  0  0  0  0  0
    0.6035    3.1707    0.1229 H   0  0  0  0  0  0  0  0  0  0  0  0
    0.1507    1.2722   -2.2512 H   0  0  0  0  0  0  0  0  0  0  0  0
   -0.5043    4.2705   -2.0694 H   0  0  0  0  0  0  0  0  0  0  0  0
    0.8455    3.5991   -2.9864 H   0  0  0  0  0  0  0  0  0  0  0  0
   -2.1149    3.0142   -3.5079 H   0  0  0  0  0  0  0  0  0  0  0  0
   -0.7591    2.2820   -4.3895 H   0  0  0  0  0  0  0  0  0  0  0  0
   -1.0407    4.0286   -4.4802 H   0  0  0  0  0  0  0  0  0  0  0  0
   -1.9781    2.7059   -0.7446 H   0  0  0  0  0  0  0  0  0  0  0  0
   -3.4167   -1.1791   -0.0512 H   0  0  0  0  0  0  0  0  0  0  0  0
   -3.3434   -1.4822    2.4563 H   0  0  0  0  0  0  0  0  0  0  0  0
   -1.8252   -0.7864    1.8573 H   0  0  0  0  0  0  0  0  0  0  0  0
   -3.0009    0.2543    2.6442 H   0  0  0  0  0  0  0  0  0  0  0  0
   -5.2373    0.7846    1.4359 H   0  0  0  0  0  0  0  0  0  0  0  0
   -5.5103    0.1370   -0.1749 H   0  0  0  0  0  0  0  0  0  0  0  0
   -5.5488   -0.9554    1.2272 H   0  0  0  0  0  0  0  0  0  0  0  0
  1  2  1  0
  2  3  1  0
  3  4  1  0
  4  5  1  0
  5  6  1  0
  6  7  2  0
  6  8  1  0
  8  9  1  0
  9 10  1  0
 10 11  1  0
 11 12  1  0
 10 13  1  0
 13 14  1  0
 14 15  2  0
 14 16  1  0
 16 17  1  0
 17 18  1  0
 17 19  1  0
  1 20  1  0
  1 21  1  0
  1 22  1  0
  2 23  1  0
  2 24  1  0
  3 25  1  0
  3 26  1  0
  4 27  1  0
  4 28  1  0
  5 29  1  0
  9 30  1  0
  9 31  1  0
 10 32  1  0
 11 33  1  0
 11 34  1  0
 12 35  1  0
 12 36  1  0
 12 37  1  0
 13 38  1  0
 17 39  1  0
 18 40  1  0
 18 41  1  0
 18 42  1  0
 19 43  1  0
 19 44  1  0
 19 45  1  0
M  END
$$$$
