
     RDKit          3D

 40 41  0  0  0  0  0  0  0  0999 V2000
   -6.8507   -0.5143   -0.9479 C   0  0  0  0  0  0  0  0  0  0  0  0
   -5.3682   -0.5009   -0.7144 C   0  0  0  0  0  0  0  0  0  0  0  0
   -4.4838   -0.7217   -1.7646 C   0  0  0  0  0  0  0  0  0  0  0  0
   -3.1172   -0.7371   -1.5162 C   0  0  0  0  0  0  0  0  0  0  0  0
   -2.6372   -0.5384   -0.2167 C   0  0  0  0  0  0  0  0  0  0  0  0
   -1.1968   -0.5826    0.0504 C   0  0  0  0  0  0  0  0  0  0  0  0
   -0.3424    0.3048   -0.4837 C   0  0  0  0  0  0  0  0  0  0  0  0
    1.1095    0.2727   -0.2600 C   0  0  0  0  0  0  0  0  0  0  0  0
    1.6809   -0.0720    0.9642 C   0  0  0  0  0  0  0  0  0  0  0  0
    3.0757   -0.0657    1.1310 C   0  0  0  0  0  0  0  0  0  0  0  0
    3.9579    0.2988    0.0999 C   0  0  0  0  0  0  0  0  0  0  0  0
    5.3445    0.2769    0.2669 N   0  0  0  0  0  0  0  0  0  0  0  0
    5.9052    0.2397    1.6173 C   0  0  0  0  0  0  0  0  0  0  0  0
    6.2045    0.8722   -0.7558 C   0  0  0  0  0  0  0  0  0  0  0  0
    3.3544    0.6459   -1.1200 C   0  0  0  0  0  0  0  0  0  0  0  0
    1.9617    0.6454   -1.2983 C   0  0  0  0  0  0  0  0  0  0  0  0
   -3.5174   -0.3380    0.8017 N   0  0  0  0  0  4  0  0  0  0  0  0
   -3.0353   -0.1056    2.1782 C   0  0  0  0  0  0  0  0  0  0  0  0
   -4.8522   -0.3239    0.5684 C   0  0  0  0  0  0  0  0  0  0  0  0
   -7.3648    0.1315   -0.2283 H   0  0  0  0  0  0  0  0  0  0  0  0
   -7.0913   -0.1415   -1.9490 H   0  0  0  0  0  0  0  0  0  0  0  0
   -7.2359   -1.5336   -0.8468 H   0  0  0  0  0  0  0  0  0  0  0  0
   -4.8499   -0.8856   -2.7781 H   0  0  0  0  0  0  0  0  0  0  0  0
   -2.4267   -0.9165   -2.3392 H   0  0  0  0  0  0  0  0  0  0  0  0
   -0.8508   -1.3914    0.6885 H   0  0  0  0  0  0  0  0  0  0  0  0
   -0.6887    1.0959   -1.1481 H   0  0  0  0  0  0  0  0  0  0  0  0
    1.0685   -0.3482    1.8170 H   0  0  0  0  0  0  0  0  0  0  0  0
    3.4550   -0.3622    2.1046 H   0  0  0  0  0  0  0  0  0  0  0  0
    7.0007    0.2502    1.5967 H   0  0  0  0  0  0  0  0  0  0  0  0
    5.5784    1.1067    2.2020 H   0  0  0  0  0  0  0  0  0  0  0  0
    5.6233   -0.6822    2.1371 H   0  0  0  0  0  0  0  0  0  0  0  0
    6.0711    0.3762   -1.7233 H   0  0  0  0  0  0  0  0  0  0  0  0
    6.0051    1.9443   -0.8604 H   0  0  0  0  0  0  0  0  0  0  0  0
    7.2643    0.7553   -0.5029 H   0  0  0  0  0  0  0  0  0  0  0  0
    3.9564    0.9298   -1.9785 H   0  0  0  0  0  0  0  0  0  0  0  0
    1.5672    0.9295   -2.2715 H   0  0  0  0  0  0  0  0  0  0  0  0
   -2.3636    0.7568    2.1679 H   0  0  0  0  0  0  0  0  0  0  0  0
   -2.5263   -1.0114    2.5174 H   0  0  0  0  0  0  0  0  0  0  0  0
   -3.8784    0.1061    2.8407 H   0  0  0  0  0  0  0  0  0  0  0  0
   -5.5066   -0.1659    1.4220 H   0  0  0  0  0  0  0  0  0  0  0  0
  1  2  1  0
  2  3  2  0
  3  4  1  0
  4  5  2  0
  5  6  1  0
  6  7  2  3
  7  8  1  0
  8  9  2  0
  9 10  1  0
 10 11  2  0
 11 12  1  0
 12 13  1  0
 12 14  1  0
 11 15  1  0
 15 16  2  0
  5 17  1  0
 17 18  1  0
 17 19  2  0
 19  2  1  0
 16  8  1  0
  1 20  1  0
  1 21  1  0
  1 22  1  0
  3 23  1  0
  4 24  1  0
  6 25  1  0
  7 26  1  0
  9 27  1  0
 10 28  1  0
 13 29  1  0
 13 30  1  0
 13 31  1  0
 14 32  1  0
 14 33  1  0
 14 34  1  0
 15 35  1  0
 16 36  1  0
 18 37  1  0
 18 38  1  0
 18 39  1  0
 19 40  1  0
M  CHG  1  17   1
M  END
$$$$
