
     RDKit          3D

 46 49  0  0  0  0  0  0  0  0999 V2000
   -6.1889    1.8530    3.4529 C   0  0  0  0  0  0  0  0  0  0  0  0
   -6.1032    0.9312    2.3699 O   0  0  0  0  0  0  0  0  0  0  0  0
   -4.8465    0.5588    1.9802 C   0  0  0  0  0  0  0  0  0  0  0  0
   -3.6615    0.8573    2.6462 C   0  0  0  0  0  0  0  0  0  0  0  0
   -2.4330    0.4218    2.1331 C   0  0  0  0  0  0  0  0  0  0  0  0
   -2.3870   -0.3274    0.9517 C   0  0  0  0  0  0  0  0  0  0  0  0
   -1.1394   -0.7579    0.4186 N   0  0  0  0  0  0  0  0  0  0  0  0
    0.0425   -0.0360    0.3114 C   0  0  0  0  0  0  0  0  0  0  0  0
    0.2126    1.6774    0.5929 S   0  0  0  0  0  0  0  0  0  0  0  0
    0.5418    2.2197   -1.1165 C   0  0  0  0  0  0  0  0  0  0  0  0
    1.9979    2.1644   -1.5685 C   0  0  0  0  0  0  0  0  0  0  0  0
    2.3351    2.8063   -2.5760 O   0  0  0  0  0  0  0  0  0  0  0  0
    2.8368    1.3210   -0.8818 N   0  0  0  0  0  0  0  0  0  0  0  0
    4.2094    1.1765   -1.1276 C   0  0  0  0  0  0  0  0  0  0  0  0
    4.6176   -0.1174   -1.0508 N   0  0  0  0  0  0  0  0  0  0  0  0
    5.9246   -0.3777   -1.2983 C   0  0  0  0  0  0  0  0  0  0  0  0
    6.8618    0.5990   -1.5892 C   0  0  0  0  0  0  0  0  0  0  0  0
    8.5022    0.1867   -1.8816 Cl  0  0  0  0  0  0  0  0  0  0  0  0
    6.4484    1.9238   -1.6124 C   0  0  0  0  0  0  0  0  0  0  0  0
    5.1070    2.2322   -1.3665 C   0  0  0  0  0  0  0  0  0  0  0  0
    4.7142    3.9146   -1.2237 Cl  0  0  0  0  0  0  0  0  0  0  0  0
    1.0158   -0.7156   -0.2493 N   0  0  0  0  0  0  0  0  0  0  0  0
    0.4684   -1.9311   -0.5464 C   0  0  0  0  0  0  0  0  0  0  0  0
    1.0776   -3.0316   -1.1673 C   0  0  0  0  0  0  0  0  0  0  0  0
    0.3261   -4.1900   -1.3746 C   0  0  0  0  0  0  0  0  0  0  0  0
   -1.0014   -4.2607   -0.9516 C   0  0  0  0  0  0  0  0  0  0  0  0
   -1.6225   -3.1758   -0.3231 C   0  0  0  0  0  0  0  0  0  0  0  0
   -0.8706   -2.0011   -0.1547 C   0  0  0  0  0  0  0  0  0  0  0  0
   -3.5795   -0.6486    0.2921 C   0  0  0  0  0  0  0  0  0  0  0  0
   -4.7993   -0.2021    0.8072 C   0  0  0  0  0  0  0  0  0  0  0  0
   -5.6298    2.7706    3.2435 H   0  0  0  0  0  0  0  0  0  0  0  0
   -7.2434    2.1260    3.5728 H   0  0  0  0  0  0  0  0  0  0  0  0
   -5.8570    1.3880    4.3852 H   0  0  0  0  0  0  0  0  0  0  0  0
   -3.6556    1.4210    3.5731 H   0  0  0  0  0  0  0  0  0  0  0  0
   -1.5275    0.6519    2.7004 H   0  0  0  0  0  0  0  0  0  0  0  0
    0.2254    3.2699   -1.1734 H   0  0  0  0  0  0  0  0  0  0  0  0
   -0.0652    1.6497   -1.8300 H   0  0  0  0  0  0  0  0  0  0  0  0
    2.4019    0.4623   -0.5289 H   0  0  0  0  0  0  0  0  0  0  0  0
    6.2000   -1.4278   -1.2507 H   0  0  0  0  0  0  0  0  0  0  0  0
    7.1646    2.7172   -1.8000 H   0  0  0  0  0  0  0  0  0  0  0  0
    2.1161   -2.9715   -1.4820 H   0  0  0  0  0  0  0  0  0  0  0  0
    0.7877   -5.0457   -1.8608 H   0  0  0  0  0  0  0  0  0  0  0  0
   -1.5651   -5.1767   -1.1099 H   0  0  0  0  0  0  0  0  0  0  0  0
   -2.6470   -3.2646    0.0268 H   0  0  0  0  0  0  0  0  0  0  0  0
   -3.5875   -1.1981   -0.6464 H   0  0  0  0  0  0  0  0  0  0  0  0
   -5.7247   -0.4429    0.2841 H   0  0  0  0  0  0  0  0  0  0  0  0
  1  2  1  0
  2  3  1  0
  3  4  2  0
  4  5  1  0
  5  6  2  0
  6  7  1  0
  7  8  1  0
  8  9  1  0
  9 10  1  0
 10 11  1  0
 11 12  2  0
 11 13  1  0
 13 14  1  0
 14 15  2  0
 15 16  1  0
 16 17  2  0
 17 18  1  0
 17 19  1  0
 19 20  2  0
 20 21  1  0
  8 22  2  0
 22 23  1  0
 23 24  2  0
 24 25  1  0
 25 26  2  0
 26 27  1  0
 27 28  2  0
  6 29  1  0
 29 30  2  0
 30  3  1  0
 28  7  1  0
 20 14  1  0
 28 23  1  0
  1 31  1  0
  1 32  1  0
  1 33  1  0
  4 34  1  0
  5 35  1  0
 10 36  1  0
 10 37  1  0
 13 38  1  0
 16 39  1  0
 19 40  1  0
 24 41  1  0
 25 42  1  0
 26 43  1  0
 27 44  1  0
 29 45  1  0
 30 46  1  0
M  END
$$$$
