
     RDKit          3D

 36 37  0  0  0  0  0  0  0  0999 V2000
   -5.7615   -1.4061   -0.4861 C   0  0  0  0  0  0  0  0  0  0  0  0
   -5.0365   -0.2283   -0.8175 O   0  0  0  0  0  0  0  0  0  0  0  0
   -3.8274   -0.0532   -0.2037 C   0  0  0  0  0  0  0  0  0  0  0  0
   -3.2476   -0.9134    0.7288 C   0  0  0  0  0  0  0  0  0  0  0  0
   -1.9972   -0.6106    1.2817 C   0  0  0  0  0  0  0  0  0  0  0  0
   -1.3145    0.5543    0.9077 C   0  0  0  0  0  0  0  0  0  0  0  0
    0.0129    0.8213    1.5259 C   0  0  0  0  0  0  0  0  0  0  0  0
    0.5070    0.1082    2.3848 O   0  0  0  0  0  0  0  0  0  0  0  0
    0.5639    1.9406    0.9948 O   0  0  0  0  0  0  0  0  0  0  0  0
    1.9087    2.2454    1.4027 C   0  0  0  0  0  0  0  0  0  0  0  0
    2.8462    2.1281    0.2000 C   0  0  0  0  0  0  0  0  0  0  0  0
    2.9896    0.7085   -0.2971 C   0  0  0  0  0  0  0  0  0  0  0  0
    3.7777   -0.2160    0.4035 C   0  0  0  0  0  0  0  0  0  0  0  0
    3.8896   -1.5350   -0.0423 C   0  0  0  0  0  0  0  0  0  0  0  0
    3.2115   -1.9294   -1.1908 C   0  0  0  0  0  0  0  0  0  0  0  0
    3.2910   -3.2078   -1.6589 O   0  0  0  0  0  0  0  0  0  0  0  0
    2.4258   -1.0283   -1.8978 C   0  0  0  0  0  0  0  0  0  0  0  0
    2.3127    0.2890   -1.4515 C   0  0  0  0  0  0  0  0  0  0  0  0
   -1.8981    1.4159   -0.0279 C   0  0  0  0  0  0  0  0  0  0  0  0
   -3.1474    1.1094   -0.5765 C   0  0  0  0  0  0  0  0  0  0  0  0
   -6.6920   -1.3989   -1.0620 H   0  0  0  0  0  0  0  0  0  0  0  0
   -6.0273   -1.4199    0.5760 H   0  0  0  0  0  0  0  0  0  0  0  0
   -5.2034   -2.3055   -0.7666 H   0  0  0  0  0  0  0  0  0  0  0  0
   -3.7369   -1.8276    1.0483 H   0  0  0  0  0  0  0  0  0  0  0  0
   -1.5555   -1.2933    2.0058 H   0  0  0  0  0  0  0  0  0  0  0  0
    2.2525    1.6272    2.2394 H   0  0  0  0  0  0  0  0  0  0  0  0
    1.9022    3.2837    1.7519 H   0  0  0  0  0  0  0  0  0  0  0  0
    2.4758    2.7607   -0.6164 H   0  0  0  0  0  0  0  0  0  0  0  0
    3.8390    2.5107    0.4662 H   0  0  0  0  0  0  0  0  0  0  0  0
    4.3020    0.0835    1.3081 H   0  0  0  0  0  0  0  0  0  0  0  0
    4.5009   -2.2338    0.5192 H   0  0  0  0  0  0  0  0  0  0  0  0
    3.8442   -3.7225   -1.0490 H   0  0  0  0  0  0  0  0  0  0  0  0
    1.8985   -1.3510   -2.7906 H   0  0  0  0  0  0  0  0  0  0  0  0
    1.6862    0.9827   -2.0072 H   0  0  0  0  0  0  0  0  0  0  0  0
   -1.3973    2.3279   -0.3412 H   0  0  0  0  0  0  0  0  0  0  0  0
   -3.5953    1.7835   -1.3033 H   0  0  0  0  0  0  0  0  0  0  0  0
  1  2  1  0
  2  3  1  0
  3  4  2  0
  4  5  1  0
  5  6  2  0
  6  7  1  0
  7  8  2  0
  7  9  1  0
  9 10  1  0
 10 11  1  0
 11 12  1  0
 12 13  2  0
 13 14  1  0
 14 15  2  0
 15 16  1  0
 15 17  1  0
 17 18  2  0
  6 19  1  0
 19 20  2  0
 20  3  1  0
 18 12  1  0
  1 21  1  0
  1 22  1  0
  1 23  1  0
  4 24  1  0
  5 25  1  0
 10 26  1  0
 10 27  1  0
 11 28  1  0
 11 29  1  0
 13 30  1  0
 14 31  1  0
 16 32  1  0
 17 33  1  0
 18 34  1  0
 19 35  1  0
 20 36  1  0
M  END
$$$$
