
     RDKit          3D

 40 41  0  0  0  0  0  0  0  0999 V2000
    8.0289   -0.5160    0.7972 C   0  0  0  0  0  0  0  0  0  0  0  0
    7.0097   -1.1409    0.0270 O   0  0  0  0  0  0  0  0  0  0  0  0
    5.7726   -0.5594    0.0517 C   0  0  0  0  0  0  0  0  0  0  0  0
    5.4147    0.5818    0.7674 C   0  0  0  0  0  0  0  0  0  0  0  0
    4.1038    1.0715    0.7018 C   0  0  0  0  0  0  0  0  0  0  0  0
    3.1319    0.4221   -0.0685 C   0  0  0  0  0  0  0  0  0  0  0  0
    1.7775    0.9853   -0.1238 C   0  0  0  0  0  0  0  0  0  0  0  0
    0.6610    0.2403   -0.1208 C   0  0  0  0  0  0  0  0  0  0  0  0
   -0.6732    0.9058   -0.1573 C   0  0  0  0  0  0  0  0  0  0  0  0
   -0.7712    2.1240   -0.2088 O   0  0  0  0  0  0  0  0  0  0  0  0
   -1.7104   -0.0088   -0.1254 N   0  0  0  0  0  0  0  0  0  0  0  0
   -3.0769    0.2256   -0.1442 C   0  0  0  0  0  0  0  0  0  0  0  0
   -3.5872    1.4612   -0.1964 C   0  0  0  0  0  0  0  0  0  0  0  0
   -5.0361    1.6879   -0.2116 C   0  0  0  0  0  0  0  0  0  0  0  0
   -5.4588    2.8414   -0.1962 O   0  0  0  0  0  0  0  0  0  0  0  0
   -5.8249    0.5636   -0.2390 N   0  0  0  0  0  0  0  0  0  0  0  0
   -7.2655    0.7317   -0.2654 C   0  0  0  0  0  0  0  0  0  0  0  0
   -5.3339   -0.7274   -0.1356 C   0  0  0  0  0  0  0  0  0  0  0  0
   -6.0926   -1.6982   -0.0728 O   0  0  0  0  0  0  0  0  0  0  0  0
   -3.9415   -0.8662   -0.1014 N   0  0  0  0  0  0  0  0  0  0  0  0
   -3.4298   -2.2307   -0.0101 C   0  0  0  0  0  0  0  0  0  0  0  0
    3.5016   -0.7125   -0.7982 C   0  0  0  0  0  0  0  0  0  0  0  0
    4.8106   -1.1998   -0.7318 C   0  0  0  0  0  0  0  0  0  0  0  0
    8.2240    0.5016    0.4427 H   0  0  0  0  0  0  0  0  0  0  0  0
    7.7782   -0.5229    1.8632 H   0  0  0  0  0  0  0  0  0  0  0  0
    8.9482   -1.0954    0.6679 H   0  0  0  0  0  0  0  0  0  0  0  0
    6.1275    1.1181    1.3847 H   0  0  0  0  0  0  0  0  0  0  0  0
    3.8490    1.9656    1.2678 H   0  0  0  0  0  0  0  0  0  0  0  0
    1.7156    2.0727   -0.1405 H   0  0  0  0  0  0  0  0  0  0  0  0
    0.7036   -0.8398   -0.0750 H   0  0  0  0  0  0  0  0  0  0  0  0
   -1.4337   -0.9761   -0.0833 H   0  0  0  0  0  0  0  0  0  0  0  0
   -3.0013    2.3695   -0.2235 H   0  0  0  0  0  0  0  0  0  0  0  0
   -7.5556    1.7401   -0.5727 H   0  0  0  0  0  0  0  0  0  0  0  0
   -7.6549    0.5383    0.7395 H   0  0  0  0  0  0  0  0  0  0  0  0
   -7.7127    0.0106   -0.9572 H   0  0  0  0  0  0  0  0  0  0  0  0
   -2.8160   -2.4444   -0.8913 H   0  0  0  0  0  0  0  0  0  0  0  0
   -4.2231   -2.9820    0.0297 H   0  0  0  0  0  0  0  0  0  0  0  0
   -2.8325   -2.3316    0.9021 H   0  0  0  0  0  0  0  0  0  0  0  0
    2.7878   -1.2236   -1.4384 H   0  0  0  0  0  0  0  0  0  0  0  0
    5.0857   -2.0831   -1.3033 H   0  0  0  0  0  0  0  0  0  0  0  0
  1  2  1  0
  2  3  1  0
  3  4  2  0
  4  5  1  0
  5  6  2  0
  6  7  1  0
  7  8  2  3
  8  9  1  0
  9 10  2  0
  9 11  1  0
 11 12  1  0
 12 13  2  0
 13 14  1  0
 14 15  2  0
 14 16  1  0
 16 17  1  0
 16 18  1  0
 18 19  2  0
 18 20  1  0
 20 21  1  0
  6 22  1  0
 22 23  2  0
 23  3  1  0
 20 12  1  0
  1 24  1  0
  1 25  1  0
  1 26  1  0
  4 27  1  0
  5 28  1  0
  7 29  1  0
  8 30  1  0
 11 31  1  0
 13 32  1  0
 17 33  1  0
 17 34  1  0
 17 35  1  0
 21 36  1  0
 21 37  1  0
 21 38  1  0
 22 39  1  0
 23 40  1  0
M  END
$$$$
