
     RDKit          3D

 33 34  0  0  0  0  0  0  0  0999 V2000
   -5.0553    1.8644   -0.5608 C   0  0  0  0  0  0  0  0  0  0  0  0
   -5.0704    0.3462   -0.5977 C   0  0  0  0  0  0  0  0  0  0  0  0
   -3.9972   -0.1519   -1.3952 O   0  0  0  0  0  0  0  0  0  0  0  0
   -2.7946   -0.4069   -0.7999 C   0  0  0  0  0  0  0  0  0  0  0  0
   -1.8579   -1.0256   -1.6339 C   0  0  0  0  0  0  0  0  0  0  0  0
   -0.5791   -1.3452   -1.1668 C   0  0  0  0  0  0  0  0  0  0  0  0
   -0.2216   -1.0338    0.1485 C   0  0  0  0  0  0  0  0  0  0  0  0
    1.1244   -1.3508    0.7028 C   0  0  0  0  0  0  0  0  0  0  0  0
    1.2721   -1.5010    1.9106 O   0  0  0  0  0  0  0  0  0  0  0  0
    2.1581   -1.4240   -0.2055 N   0  0  0  0  0  0  0  0  0  0  0  0
    3.5289   -1.5562    0.2351 C   0  0  0  0  0  0  0  0  0  0  0  0
    4.1222   -0.2007    0.3341 C   0  0  0  0  0  0  0  0  0  0  0  0
    4.2231    0.7140    1.3619 C   0  0  0  0  0  0  0  0  0  0  0  0
    4.8925    1.8410    0.8289 C   0  0  0  0  0  0  0  0  0  0  0  0
    5.1528    1.5448   -0.4885 C   0  0  0  0  0  0  0  0  0  0  0  0
    4.6855    0.3083   -0.8008 O   0  0  0  0  0  0  0  0  0  0  0  0
   -1.1610   -0.4234    0.9880 C   0  0  0  0  0  0  0  0  0  0  0  0
   -2.4398   -0.1059    0.5142 C   0  0  0  0  0  0  0  0  0  0  0  0
   -5.0784    2.2722   -1.5768 H   0  0  0  0  0  0  0  0  0  0  0  0
   -4.1451    2.2449   -0.0879 H   0  0  0  0  0  0  0  0  0  0  0  0
   -5.9195    2.2460   -0.0095 H   0  0  0  0  0  0  0  0  0  0  0  0
   -5.0922   -0.0973    0.4038 H   0  0  0  0  0  0  0  0  0  0  0  0
   -5.9955    0.0225   -1.0883 H   0  0  0  0  0  0  0  0  0  0  0  0
   -2.1329   -1.2707   -2.6576 H   0  0  0  0  0  0  0  0  0  0  0  0
    0.1077   -1.8565   -1.8343 H   0  0  0  0  0  0  0  0  0  0  0  0
    2.0273   -1.0285   -1.1259 H   0  0  0  0  0  0  0  0  0  0  0  0
    3.5783   -2.0781    1.1960 H   0  0  0  0  0  0  0  0  0  0  0  0
    4.0578   -2.1558   -0.5124 H   0  0  0  0  0  0  0  0  0  0  0  0
    3.8482    0.5772    2.3676 H   0  0  0  0  0  0  0  0  0  0  0  0
    5.1499    2.7579    1.3399 H   0  0  0  0  0  0  0  0  0  0  0  0
    5.6347    2.0795   -1.2950 H   0  0  0  0  0  0  0  0  0  0  0  0
   -0.8975   -0.1869    2.0175 H   0  0  0  0  0  0  0  0  0  0  0  0
   -3.1255    0.3800    1.1997 H   0  0  0  0  0  0  0  0  0  0  0  0
  1  2  1  0
  2  3  1  0
  3  4  1  0
  4  5  2  0
  5  6  1  0
  6  7  2  0
  7  8  1  0
  8  9  2  0
  8 10  1  0
 10 11  1  0
 11 12  1  0
 12 13  2  0
 13 14  1  0
 14 15  2  0
 15 16  1  0
  7 17  1  0
 17 18  2  0
 18  4  1  0
 16 12  1  0
  1 19  1  0
  1 20  1  0
  1 21  1  0
  2 22  1  0
  2 23  1  0
  5 24  1  0
  6 25  1  0
 10 26  1  0
 11 27  1  0
 11 28  1  0
 13 29  1  0
 14 30  1  0
 15 31  1  0
 17 32  1  0
 18 33  1  0
M  END
$$$$
