
     RDKit          3D

 45 46  0  0  0  0  0  0  0  0999 V2000
    7.8827   -1.7278    0.5423 C   0  0  0  0  0  0  0  0  0  0  0  0
    6.5978   -2.3204    0.6917 O   0  0  0  0  0  0  0  0  0  0  0  0
    5.5359   -1.4697    0.8295 C   0  0  0  0  0  0  0  0  0  0  0  0
    5.5964   -0.0773    0.8349 C   0  0  0  0  0  0  0  0  0  0  0  0
    4.4246    0.6729    0.9832 C   0  0  0  0  0  0  0  0  0  0  0  0
    3.1790    0.0414    1.1174 C   0  0  0  0  0  0  0  0  0  0  0  0
    1.9933    0.9227    1.2748 C   0  0  0  0  0  0  0  0  0  0  0  0
    2.0998    1.9812    1.8888 O   0  0  0  0  0  0  0  0  0  0  0  0
    0.7235    0.5260    0.6096 C   0  0  0  0  0  0  0  0  0  0  0  0
   -0.3859    1.2547    0.8068 C   0  0  0  0  0  0  0  0  0  0  0  0
   -1.6784    0.9503    0.1782 C   0  0  0  0  0  0  0  0  0  0  0  0
   -2.1692   -0.3623    0.1002 C   0  0  0  0  0  0  0  0  0  0  0  0
   -3.4126   -0.6242   -0.4804 C   0  0  0  0  0  0  0  0  0  0  0  0
   -3.9721   -1.8698   -0.6067 O   0  0  0  0  0  0  0  0  0  0  0  0
   -3.1680   -2.9871   -0.2562 C   0  0  0  0  0  0  0  0  0  0  0  0
   -4.1765    0.4530   -0.9608 C   0  0  0  0  0  0  0  0  0  0  0  0
   -5.3857    0.2006   -1.5727 O   0  0  0  0  0  0  0  0  0  0  0  0
   -6.4344    0.2534   -0.6072 C   0  0  0  0  0  0  0  0  0  0  0  0
   -3.7004    1.7734   -0.8961 C   0  0  0  0  0  0  0  0  0  0  0  0
   -4.5230    2.7424   -1.4106 O   0  0  0  0  0  0  0  0  0  0  0  0
   -4.0045    4.0625   -1.4961 C   0  0  0  0  0  0  0  0  0  0  0  0
   -2.4549    2.0118   -0.3100 C   0  0  0  0  0  0  0  0  0  0  0  0
    3.1276   -1.3560    1.1342 C   0  0  0  0  0  0  0  0  0  0  0  0
    1.9443   -2.0145    1.3278 O   0  0  0  0  0  0  0  0  0  0  0  0
    4.2990   -2.1043    0.9829 C   0  0  0  0  0  0  0  0  0  0  0  0
    7.9339   -1.1211   -0.3677 H   0  0  0  0  0  0  0  0  0  0  0  0
    8.1511   -1.1399    1.4263 H   0  0  0  0  0  0  0  0  0  0  0  0
    8.6140   -2.5360    0.4453 H   0  0  0  0  0  0  0  0  0  0  0  0
    6.5341    0.4589    0.7301 H   0  0  0  0  0  0  0  0  0  0  0  0
    4.4857    1.7604    0.9932 H   0  0  0  0  0  0  0  0  0  0  0  0
    0.7370   -0.3367   -0.0440 H   0  0  0  0  0  0  0  0  0  0  0  0
   -0.3586    2.1376    1.4435 H   0  0  0  0  0  0  0  0  0  0  0  0
   -1.5691   -1.1663    0.5135 H   0  0  0  0  0  0  0  0  0  0  0  0
   -2.2445   -3.0133   -0.8442 H   0  0  0  0  0  0  0  0  0  0  0  0
   -3.7355   -3.8935   -0.4884 H   0  0  0  0  0  0  0  0  0  0  0  0
   -2.9546   -2.9954    0.8176 H   0  0  0  0  0  0  0  0  0  0  0  0
   -6.5122    1.2478   -0.1544 H   0  0  0  0  0  0  0  0  0  0  0  0
   -7.3756    0.0447   -1.1245 H   0  0  0  0  0  0  0  0  0  0  0  0
   -6.3014   -0.5070    0.1702 H   0  0  0  0  0  0  0  0  0  0  0  0
   -3.0908    4.0931   -2.0990 H   0  0  0  0  0  0  0  0  0  0  0  0
   -3.8363    4.4831   -0.4994 H   0  0  0  0  0  0  0  0  0  0  0  0
   -4.7535    4.6840   -1.9962 H   0  0  0  0  0  0  0  0  0  0  0  0
   -2.0607    3.0199   -0.2269 H   0  0  0  0  0  0  0  0  0  0  0  0
    2.1262   -2.9628    1.4480 H   0  0  0  0  0  0  0  0  0  0  0  0
    4.2720   -3.1908    0.9872 H   0  0  0  0  0  0  0  0  0  0  0  0
  1  2  1  0
  2  3  1  0
  3  4  2  0
  4  5  1  0
  5  6  2  0
  6  7  1  0
  7  8  2  0
  7  9  1  0
  9 10  2  0
 10 11  1  0
 11 12  2  0
 12 13  1  0
 13 14  1  0
 14 15  1  0
 13 16  2  0
 16 17  1  0
 17 18  1  0
 16 19  1  0
 19 20  1  0
 20 21  1  0
 19 22  2  0
  6 23  1  0
 23 24  1  0
 23 25  2  0
 25  3  1  0
 22 11  1  0
  1 26  1  0
  1 27  1  0
  1 28  1  0
  4 29  1  0
  5 30  1  0
  9 31  1  0
 10 32  1  0
 12 33  1  0
 15 34  1  0
 15 35  1  0
 15 36  1  0
 18 37  1  0
 18 38  1  0
 18 39  1  0
 21 40  1  0
 21 41  1  0
 21 42  1  0
 22 43  1  0
 24 44  1  0
 25 45  1  0
M  END
$$$$
