
     RDKit          3D

 44 46  0  0  0  0  0  0  0  0999 V2000
    7.9330    4.6132    1.5443 C   0  0  0  0  0  0  0  0  0  0  0  0
    6.9065    4.2393    2.4541 O   0  0  0  0  0  0  0  0  0  0  0  0
    5.8310    3.5757    1.9339 C   0  0  0  0  0  0  0  0  0  0  0  0
    5.6708    3.1818    0.6068 C   0  0  0  0  0  0  0  0  0  0  0  0
    4.5114    2.5021    0.2073 C   0  0  0  0  0  0  0  0  0  0  0  0
    3.4900    2.2086    1.1230 C   0  0  0  0  0  0  0  0  0  0  0  0
    2.2881    1.5043    0.6908 C   0  0  0  0  0  0  0  0  0  0  0  0
    1.9063    0.8485   -0.4553 C   0  0  0  0  0  0  0  0  0  0  0  0
    0.5878    0.3948   -0.1989 C   0  0  0  0  0  0  0  0  0  0  0  0
   -0.2802   -0.3779   -1.0963 C   0  0  0  0  0  0  0  0  0  0  0  0
    0.1063   -0.7161   -2.2094 O   0  0  0  0  0  0  0  0  0  0  0  0
   -1.5145   -0.6523   -0.5369 N   0  0  0  0  0  0  0  0  0  0  0  0
   -2.5842   -1.3773   -1.0909 C   0  0  0  0  0  0  0  0  0  0  0  0
   -2.5546   -1.9719   -2.3531 C   0  0  0  0  0  0  0  0  0  0  0  0
   -3.6660   -2.6766   -2.8414 C   0  0  0  0  0  0  0  0  0  0  0  0
   -4.8243   -2.8007   -2.0724 C   0  0  0  0  0  0  0  0  0  0  0  0
   -5.9644   -3.4490   -2.4643 O   0  0  0  0  0  0  0  0  0  0  0  0
   -6.0028   -3.9548   -3.7909 C   0  0  0  0  0  0  0  0  0  0  0  0
   -4.8383   -2.2227   -0.7958 C   0  0  0  0  0  0  0  0  0  0  0  0
   -5.9553   -2.2672    0.0025 O   0  0  0  0  0  0  0  0  0  0  0  0
   -6.0247   -3.5192    0.6845 C   0  0  0  0  0  0  0  0  0  0  0  0
   -3.7402   -1.5021   -0.3157 C   0  0  0  0  0  0  0  0  0  0  0  0
    0.1881    0.7651    1.0310 N   0  0  0  0  0  0  0  0  0  0  0  0
    1.2545    1.4530    1.5803 O   0  0  0  0  0  0  0  0  0  0  0  0
    3.6644    2.6091    2.4543 C   0  0  0  0  0  0  0  0  0  0  0  0
    4.8239    3.2829    2.8531 C   0  0  0  0  0  0  0  0  0  0  0  0
    8.3954    3.7344    1.0836 H   0  0  0  0  0  0  0  0  0  0  0  0
    8.7083    5.1375    2.1111 H   0  0  0  0  0  0  0  0  0  0  0  0
    7.5517    5.3035    0.7844 H   0  0  0  0  0  0  0  0  0  0  0  0
    6.4245    3.3876   -0.1449 H   0  0  0  0  0  0  0  0  0  0  0  0
    4.4201    2.2121   -0.8374 H   0  0  0  0  0  0  0  0  0  0  0  0
    2.4829    0.6970   -1.3556 H   0  0  0  0  0  0  0  0  0  0  0  0
   -1.6453   -0.2718    0.3974 H   0  0  0  0  0  0  0  0  0  0  0  0
   -1.6807   -1.9050   -2.9946 H   0  0  0  0  0  0  0  0  0  0  0  0
   -3.5876   -3.1113   -3.8323 H   0  0  0  0  0  0  0  0  0  0  0  0
   -5.8738   -3.1528   -4.5253 H   0  0  0  0  0  0  0  0  0  0  0  0
   -5.2587   -4.7452   -3.9304 H   0  0  0  0  0  0  0  0  0  0  0  0
   -6.9908   -4.3982   -3.9515 H   0  0  0  0  0  0  0  0  0  0  0  0
   -6.9359   -3.5153    1.2917 H   0  0  0  0  0  0  0  0  0  0  0  0
   -6.0869   -4.3634   -0.0088 H   0  0  0  0  0  0  0  0  0  0  0  0
   -5.1710   -3.6403    1.3617 H   0  0  0  0  0  0  0  0  0  0  0  0
   -3.8096   -1.0411    0.6654 H   0  0  0  0  0  0  0  0  0  0  0  0
    2.9054    2.3982    3.2038 H   0  0  0  0  0  0  0  0  0  0  0  0
    4.9393    3.5836    3.8928 H   0  0  0  0  0  0  0  0  0  0  0  0
  1  2  1  0
  2  3  1  0
  3  4  2  0
  4  5  1  0
  5  6  2  0
  6  7  1  0
  7  8  2  0
  8  9  1  0
  9 10  1  0
 10 11  2  0
 10 12  1  0
 12 13  1  0
 13 14  2  0
 14 15  1  0
 15 16  2  0
 16 17  1  0
 17 18  1  0
 16 19  1  0
 19 20  1  0
 20 21  1  0
 19 22  2  0
  9 23  2  0
 23 24  1  0
  6 25  1  0
 25 26  2  0
 26  3  1  0
 24  7  1  0
 22 13  1  0
  1 27  1  0
  1 28  1  0
  1 29  1  0
  4 30  1  0
  5 31  1  0
  8 32  1  0
 12 33  1  0
 14 34  1  0
 15 35  1  0
 18 36  1  0
 18 37  1  0
 18 38  1  0
 21 39  1  0
 21 40  1  0
 21 41  1  0
 22 42  1  0
 25 43  1  0
 26 44  1  0
M  END
$$$$
