
     RDKit          3D

 25 26  0  0  0  0  0  0  0  0999 V2000
   -2.9444    2.3849   -1.4337 O   0  0  0  0  0  0  0  0  0  0  0  0
   -2.5987    1.2889   -1.0274 C   0  0  0  0  0  0  0  0  0  0  0  0
   -3.4383    0.0466   -0.9870 C   0  0  0  0  0  0  0  0  0  0  0  0
   -2.5930   -0.8893   -0.1292 C   0  0  0  0  0  0  0  0  0  0  0  0
   -1.2121   -0.4278   -0.3405 N   0  0  0  0  0  0  0  0  0  0  0  0
   -0.3622   -0.7397    0.8205 C   0  0  0  0  0  0  0  0  0  0  0  0
    1.0881   -0.3612    0.5929 C   0  0  0  0  0  0  0  0  0  0  0  0
    1.8432   -1.0071   -0.3990 C   0  0  0  0  0  0  0  0  0  0  0  0
    3.1787   -0.6594   -0.6133 C   0  0  0  0  0  0  0  0  0  0  0  0
    3.7668    0.3363    0.1630 C   0  0  0  0  0  0  0  0  0  0  0  0
    5.4122    0.7654   -0.0997 Cl  0  0  0  0  0  0  0  0  0  0  0  0
    3.0309    0.9884    1.1502 C   0  0  0  0  0  0  0  0  0  0  0  0
    1.6947    0.6413    1.3647 C   0  0  0  0  0  0  0  0  0  0  0  0
   -1.3462    0.9480   -0.5613 N   0  0  0  0  0  0  0  0  0  0  0  0
   -4.4110    0.2483   -0.5323 H   0  0  0  0  0  0  0  0  0  0  0  0
   -3.5569   -0.3333   -2.0063 H   0  0  0  0  0  0  0  0  0  0  0  0
   -2.7210   -1.9358   -0.4228 H   0  0  0  0  0  0  0  0  0  0  0  0
   -2.9005   -0.7844    0.9200 H   0  0  0  0  0  0  0  0  0  0  0  0
   -0.7398   -0.2450    1.7257 H   0  0  0  0  0  0  0  0  0  0  0  0
   -0.3917   -1.8191    1.0197 H   0  0  0  0  0  0  0  0  0  0  0  0
    1.3867   -1.7797   -1.0150 H   0  0  0  0  0  0  0  0  0  0  0  0
    3.7502   -1.1657   -1.3864 H   0  0  0  0  0  0  0  0  0  0  0  0
    3.4901    1.7664    1.7543 H   0  0  0  0  0  0  0  0  0  0  0  0
    1.1308    1.1603    2.1371 H   0  0  0  0  0  0  0  0  0  0  0  0
   -0.5563    1.5728   -0.6944 H   0  0  0  0  0  0  0  0  0  0  0  0
  1  2  2  0
  2  3  1  0
  3  4  1  0
  4  5  1  0
  5  6  1  0
  6  7  1  0
  7  8  2  0
  8  9  1  0
  9 10  2  0
 10 11  1  0
 10 12  1  0
 12 13  2  0
  5 14  1  0
 14  2  1  0
 13  7  1  0
  3 15  1  0
  3 16  1  0
  4 17  1  0
  4 18  1  0
  6 19  1  0
  6 20  1  0
  8 21  1  0
  9 22  1  0
 12 23  1  0
 13 24  1  0
 14 25  1  0
M  END
$$$$
