
     RDKit          3D

 54 57  0  0  0  0  0  0  0  0999 V2000
   -1.1625    4.3731    0.8141 C   0  0  0  0  0  0  0  0  0  0  0  0
   -2.4856    4.0070    0.4513 O   0  0  0  0  0  0  0  0  0  0  0  0
   -2.6804    2.7563   -0.0763 C   0  0  0  0  0  0  0  0  0  0  0  0
   -1.7051    1.7550   -0.1425 C   0  0  0  0  0  0  0  0  0  0  0  0
   -1.9860    0.4887   -0.6957 C   0  0  0  0  0  0  0  0  0  0  0  0
   -0.9661   -0.5820   -0.7639 C   0  0  0  0  0  0  0  0  0  0  0  0
    0.0455   -0.7284    0.1692 C   0  0  0  0  0  0  0  0  0  0  0  0
    0.9479   -1.7802    0.0057 C   0  0  0  0  0  0  0  0  0  0  0  0
    2.0322   -1.9008    1.0009 C   0  0  0  0  0  0  0  0  0  0  0  0
    1.9720   -2.8089    1.8160 O   0  0  0  0  0  0  0  0  0  0  0  0
    3.0054   -0.9311    0.8622 N   0  0  0  0  0  0  0  0  0  0  0  0
    4.1529   -0.7547    1.6620 C   0  0  0  0  0  0  0  0  0  0  0  0
    4.4477   -1.5328    2.7832 C   0  0  0  0  0  0  0  0  0  0  0  0
    5.6067   -1.2899    3.5274 C   0  0  0  0  0  0  0  0  0  0  0  0
    6.4708   -0.2703    3.1518 C   0  0  0  0  0  0  0  0  0  0  0  0
    7.5874   -0.0714    3.9067 O   0  0  0  0  0  0  0  0  0  0  0  0
    6.1958    0.5161    2.0403 C   0  0  0  0  0  0  0  0  0  0  0  0
    5.0358    0.2724    1.2980 C   0  0  0  0  0  0  0  0  0  0  0  0
    0.8372   -2.6902   -1.0618 C   0  0  0  0  0  0  0  0  0  0  0  0
    1.7067   -3.7871   -1.2825 C   0  0  0  0  0  0  0  0  0  0  0  0
    1.5272   -4.6320   -2.3753 C   0  0  0  0  0  0  0  0  0  0  0  0
    0.4831   -4.3933   -3.2576 C   0  0  0  0  0  0  0  0  0  0  0  0
   -0.3757   -3.3132   -3.0387 C   0  0  0  0  0  0  0  0  0  0  0  0
   -0.2199   -2.4571   -1.9563 C   0  0  0  0  0  0  0  0  0  0  0  0
   -1.0846   -1.4363   -1.8115 N   0  0  0  0  0  0  0  0  0  0  0  0
   -3.2836    0.2642   -1.2021 C   0  0  0  0  0  0  0  0  0  0  0  0
   -4.2743    1.2489   -1.1526 C   0  0  0  0  0  0  0  0  0  0  0  0
   -5.5529    1.0982   -1.6240 O   0  0  0  0  0  0  0  0  0  0  0  0
   -5.8314   -0.0658   -2.3905 C   0  0  0  0  0  0  0  0  0  0  0  0
   -3.9672    2.4844   -0.5653 C   0  0  0  0  0  0  0  0  0  0  0  0
   -4.9199    3.4798   -0.5411 O   0  0  0  0  0  0  0  0  0  0  0  0
   -5.6884    3.3831    0.6566 C   0  0  0  0  0  0  0  0  0  0  0  0
   -0.8046    3.7686    1.6538 H   0  0  0  0  0  0  0  0  0  0  0  0
   -1.1818    5.4172    1.1412 H   0  0  0  0  0  0  0  0  0  0  0  0
   -0.4823    4.3048   -0.0413 H   0  0  0  0  0  0  0  0  0  0  0  0
   -0.7045    1.9538    0.2250 H   0  0  0  0  0  0  0  0  0  0  0  0
    0.1274   -0.0708    1.0280 H   0  0  0  0  0  0  0  0  0  0  0  0
    2.9111   -0.2977    0.0775 H   0  0  0  0  0  0  0  0  0  0  0  0
    3.7960   -2.3368    3.1104 H   0  0  0  0  0  0  0  0  0  0  0  0
    5.8293   -1.8996    4.3988 H   0  0  0  0  0  0  0  0  0  0  0  0
    8.0971    0.6621    3.5262 H   0  0  0  0  0  0  0  0  0  0  0  0
    6.8640    1.3157    1.7373 H   0  0  0  0  0  0  0  0  0  0  0  0
    4.8361    0.8959    0.4305 H   0  0  0  0  0  0  0  0  0  0  0  0
    2.5238   -3.9965   -0.5932 H   0  0  0  0  0  0  0  0  0  0  0  0
    2.1969   -5.4742   -2.5310 H   0  0  0  0  0  0  0  0  0  0  0  0
    0.3289   -5.0450   -4.1139 H   0  0  0  0  0  0  0  0  0  0  0  0
   -1.1928   -3.1351   -3.7347 H   0  0  0  0  0  0  0  0  0  0  0  0
   -3.4979   -0.7108   -1.6325 H   0  0  0  0  0  0  0  0  0  0  0  0
   -6.8547    0.0204   -2.7686 H   0  0  0  0  0  0  0  0  0  0  0  0
   -5.7826   -0.9653   -1.7682 H   0  0  0  0  0  0  0  0  0  0  0  0
   -5.1632   -0.1442   -3.2547 H   0  0  0  0  0  0  0  0  0  0  0  0
   -6.2354    2.4353    0.7063 H   0  0  0  0  0  0  0  0  0  0  0  0
   -6.4218    4.1950    0.6495 H   0  0  0  0  0  0  0  0  0  0  0  0
   -5.0598    3.5044    1.5457 H   0  0  0  0  0  0  0  0  0  0  0  0
  1  2  1  0
  2  3  1  0
  3  4  2  0
  4  5  1  0
  5  6  1  0
  6  7  2  0
  7  8  1  0
  8  9  1  0
  9 10  2  0
  9 11  1  0
 11 12  1  0
 12 13  2  0
 13 14  1  0
 14 15  2  0
 15 16  1  0
 15 17  1  0
 17 18  2  0
  8 19  2  0
 19 20  1  0
 20 21  2  0
 21 22  1  0
 22 23  2  0
 23 24  1  0
 24 25  2  0
  5 26  2  0
 26 27  1  0
 27 28  1  0
 28 29  1  0
 27 30  2  0
 30 31  1  0
 31 32  1  0
 30  3  1  0
 25  6  1  0
 18 12  1  0
 24 19  1  0
  1 33  1  0
  1 34  1  0
  1 35  1  0
  4 36  1  0
  7 37  1  0
 11 38  1  0
 13 39  1  0
 14 40  1  0
 16 41  1  0
 17 42  1  0
 18 43  1  0
 20 44  1  0
 21 45  1  0
 22 46  1  0
 23 47  1  0
 26 48  1  0
 29 49  1  0
 29 50  1  0
 29 51  1  0
 32 52  1  0
 32 53  1  0
 32 54  1  0
M  END
$$$$
