
     RDKit          3D

 71 77  0  0  0  0  0  0  0  0999 V2000
    3.4047    2.6171    3.5743 C   0  0  0  0  0  0  0  0  0  0  0  0
    3.5285    2.2623    2.2009 O   0  0  0  0  0  0  0  0  0  0  0  0
    4.3599    1.1108    2.0094 C   0  0  0  0  0  0  0  0  0  0  0  0
    3.6569   -0.2148    2.4310 C   0  0  0  0  0  0  0  0  0  0  0  0
    4.1888   -0.9329    3.2863 O   0  0  0  0  0  0  0  0  0  0  0  0
    2.4555   -0.5810    1.8259 N   0  0  0  0  0  0  0  0  0  0  0  0
    1.7685   -1.7817    2.3471 C   0  0  0  0  0  0  0  0  0  0  0  0
    0.7513   -2.4207    1.3632 C   0  0  0  0  0  0  0  0  0  0  0  0
   -0.0970   -1.3763    0.8154 N   0  0  0  0  0  0  0  0  0  0  0  0
    0.7281   -0.3791    0.0690 C   0  0  2  0  0  0  0  0  0  0  0  0
    1.6060    0.3650    1.0689 C   0  0  0  0  0  0  0  0  0  0  0  0
   -0.3326    0.3629   -0.6449 C   0  0  0  0  0  0  0  0  0  0  0  0
   -1.4944   -0.4224   -0.7108 C   0  0  0  0  0  0  0  0  0  0  0  0
   -2.4152    0.2320   -1.4822 C   0  0  0  0  0  0  0  0  0  0  0  0
   -3.5724   -0.2350   -1.9487 O   0  0  0  0  0  0  0  0  0  0  0  0
   -1.8872    1.5123   -1.7654 N   0  0  0  0  0  0  0  0  0  0  0  0
   -2.6018    2.5927   -2.3809 C   0  0  0  0  0  0  0  0  0  0  0  0
   -3.9894    2.7100   -2.2027 C   0  0  0  0  0  0  0  0  0  0  0  0
   -4.6955    3.7579   -2.7998 C   0  0  0  0  0  0  0  0  0  0  0  0
   -4.0241    4.7020   -3.5712 C   0  0  0  0  0  0  0  0  0  0  0  0
   -2.6455    4.6050   -3.7388 C   0  0  0  0  0  0  0  0  0  0  0  0
   -1.9345    3.5575   -3.1447 C   0  0  0  0  0  0  0  0  0  0  0  0
   -0.5453    1.5318   -1.3246 C   0  0  0  0  0  0  0  0  0  0  0  0
    0.2726    2.5608   -1.5295 O   0  0  0  0  0  0  0  0  0  0  0  0
   -1.2812   -1.7143   -0.0090 C   0  0  1  0  0  0  0  0  0  0  0  0
   -1.1021   -2.9149   -0.9682 C   0  0  0  0  0  0  0  0  0  0  0  0
   -0.2141   -3.1157   -1.7834 O   0  0  0  0  0  0  0  0  0  0  0  0
   -2.1607   -3.7893   -0.7123 N   0  0  0  0  0  0  0  0  0  0  0  0
   -2.9957   -3.3117    0.2988 C   0  0  0  0  0  0  0  0  0  0  0  0
   -2.5111   -2.0806    0.7674 C   0  0  0  0  0  0  0  0  0  0  0  0
   -3.1414   -1.4216    1.8094 C   0  0  0  0  0  0  0  0  0  0  0  0
   -4.2717   -2.0163    2.3704 C   0  0  0  0  0  0  0  0  0  0  0  0
   -4.7583   -3.2472    1.8854 C   0  0  0  0  0  0  0  0  0  0  0  0
   -6.1540   -3.9072    2.6690 Cl  0  0  0  0  0  0  0  0  0  0  0  0
   -4.1317   -3.9212    0.8192 C   0  0  0  0  0  0  0  0  0  0  0  0
   -4.6375   -5.2360    0.3065 C   0  0  0  0  0  0  0  0  0  0  0  0
    4.8936    1.0499    0.5766 C   0  0  0  0  0  0  0  0  0  0  0  0
    4.6918    2.1027   -0.3337 C   0  0  0  0  0  0  0  0  0  0  0  0
    5.1802    2.0239   -1.6389 C   0  0  0  0  0  0  0  0  0  0  0  0
    5.8972    0.9017   -2.0488 C   0  0  0  0  0  0  0  0  0  0  0  0
    6.1344   -0.1384   -1.1525 C   0  0  0  0  0  0  0  0  0  0  0  0
    5.6435   -0.0634    0.1522 C   0  0  0  0  0  0  0  0  0  0  0  0
    2.7554    3.4954    3.6392 H   0  0  0  0  0  0  0  0  0  0  0  0
    4.3818    2.8772    3.9945 H   0  0  0  0  0  0  0  0  0  0  0  0
    2.9480    1.8058    4.1494 H   0  0  0  0  0  0  0  0  0  0  0  0
    5.2477    1.2252    2.6495 H   0  0  0  0  0  0  0  0  0  0  0  0
    2.5092   -2.5355    2.6370 H   0  0  0  0  0  0  0  0  0  0  0  0
    1.2475   -1.4681    3.2607 H   0  0  0  0  0  0  0  0  0  0  0  0
    0.1579   -3.1635    1.9072 H   0  0  0  0  0  0  0  0  0  0  0  0
    1.2969   -2.9462    0.5704 H   0  0  0  0  0  0  0  0  0  0  0  0
    1.3587   -0.8885   -0.6751 H   0  0  0  0  0  0  0  0  0  0  0  0
    2.2100    1.0932    0.5307 H   0  0  0  0  0  0  0  0  0  0  0  0
    1.0053    0.9198    1.8010 H   0  0  0  0  0  0  0  0  0  0  0  0
   -3.8152    0.2737   -2.7437 H   0  0  0  0  0  0  0  0  0  0  0  0
   -4.5400    2.0285   -1.5583 H   0  0  0  0  0  0  0  0  0  0  0  0
   -5.7680    3.8445   -2.6486 H   0  0  0  0  0  0  0  0  0  0  0  0
   -4.5733    5.5203   -4.0309 H   0  0  0  0  0  0  0  0  0  0  0  0
   -2.1172    5.3450   -4.3343 H   0  0  0  0  0  0  0  0  0  0  0  0
   -0.8647    3.5056   -3.3202 H   0  0  0  0  0  0  0  0  0  0  0  0
    1.1503    2.3298   -1.1779 H   0  0  0  0  0  0  0  0  0  0  0  0
   -2.2711   -4.6552   -1.2160 H   0  0  0  0  0  0  0  0  0  0  0  0
   -2.7643   -0.4739    2.1811 H   0  0  0  0  0  0  0  0  0  0  0  0
   -4.7770   -1.5185    3.1955 H   0  0  0  0  0  0  0  0  0  0  0  0
   -5.7196   -5.1964    0.1379 H   0  0  0  0  0  0  0  0  0  0  0  0
   -4.4111   -6.0350    1.0202 H   0  0  0  0  0  0  0  0  0  0  0  0
   -4.1933   -5.4989   -0.6571 H   0  0  0  0  0  0  0  0  0  0  0  0
    4.1445    2.9952   -0.0323 H   0  0  0  0  0  0  0  0  0  0  0  0
    5.0079    2.8417   -2.3346 H   0  0  0  0  0  0  0  0  0  0  0  0
    6.2731    0.8402   -3.0658 H   0  0  0  0  0  0  0  0  0  0  0  0
    6.7045   -1.0096   -1.4686 H   0  0  0  0  0  0  0  0  0  0  0  0
    5.8490   -0.8887    0.8339 H   0  0  0  0  0  0  0  0  0  0  0  0
  1  2  1  0
  2  3  1  0
  3  4  1  0
  4  5  2  0
  4  6  1  0
  6  7  1  0
  7  8  1  0
  8  9  1  0
  9 10  1  0
 10 11  1  0
 10 12  1  0
 12 13  1  0
 13 14  2  0
 14 15  1  0
 14 16  1  0
 16 17  1  0
 17 18  2  0
 18 19  1  0
 19 20  2  0
 20 21  1  0
 21 22  2  0
 16 23  1  0
 23 24  1  0
 13 25  1  0
 25 26  1  0
 26 27  2  0
 26 28  1  0
 28 29  1  0
 29 30  2  0
 30 31  1  0
 31 32  2  0
 32 33  1  0
 33 34  1  0
 33 35  2  0
 35 36  1  0
  3 37  1  0
 37 38  2  0
 38 39  1  0
 39 40  2  0
 40 41  1  0
 41 42  2  0
 11  6  1  0
 23 12  2  0
 30 25  1  0
 42 37  1  0
 25  9  1  1
 35 29  1  0
 22 17  1  0
  1 43  1  0
  1 44  1  0
  1 45  1  0
  3 46  1  0
  7 47  1  0
  7 48  1  0
  8 49  1  0
  8 50  1  0
 10 51  1  6
 11 52  1  0
 11 53  1  0
 15 54  1  0
 18 55  1  0
 19 56  1  0
 20 57  1  0
 21 58  1  0
 22 59  1  0
 24 60  1  0
 28 61  1  0
 31 62  1  0
 32 63  1  0
 36 64  1  0
 36 65  1  0
 36 66  1  0
 38 67  1  0
 39 68  1  0
 40 69  1  0
 41 70  1  0
 42 71  1  0
M  END
$$$$
