
     RDKit          3D

 56 58  0  0  0  0  0  0  0  0999 V2000
    9.6080    1.5785    0.8384 C   0  0  0  0  0  0  0  0  0  0  0  0
    8.8420    0.3988    1.0455 O   0  0  0  0  0  0  0  0  0  0  0  0
    7.8541    0.1356    0.1371 C   0  0  0  0  0  0  0  0  0  0  0  0
    7.1228   -1.0266    0.3902 C   0  0  0  0  0  0  0  0  0  0  0  0
    6.0837   -1.4148   -0.4586 C   0  0  0  0  0  0  0  0  0  0  0  0
    5.7640   -0.6457   -1.5840 C   0  0  0  0  0  0  0  0  0  0  0  0
    4.6274   -1.0507   -2.4852 C   0  0  0  0  0  0  0  0  0  0  0  0
    3.3762   -0.5364   -1.9947 N   0  0  0  0  0  0  0  0  0  0  0  0
    2.5270   -1.2842   -1.2153 C   0  0  0  0  0  0  0  0  0  0  0  0
    2.6354   -2.4746   -0.9553 O   0  0  0  0  0  0  0  0  0  0  0  0
    1.3448   -0.4715   -0.6389 C   0  0  0  0  0  0  0  0  0  0  0  0
    1.2252    0.7148   -0.9127 O   0  0  0  0  0  0  0  0  0  0  0  0
    0.5127   -1.2131    0.1684 N   0  0  0  0  0  0  0  0  0  0  0  0
   -0.7541   -0.6967    0.6597 C   0  0  0  0  0  0  0  0  0  0  0  0
   -1.9413   -0.9842   -0.3013 C   0  0  0  0  0  0  0  0  0  0  0  0
   -1.6736   -0.4457   -1.6098 O   0  0  0  0  0  0  0  0  0  0  0  0
   -2.1562    0.9008   -1.5805 C   0  0  0  0  0  0  0  0  0  0  0  0
   -3.3948    0.8486   -0.7084 C   0  0  0  0  0  0  0  0  0  0  0  0
   -3.2272   -0.3795    0.0844 N   0  0  0  0  0  0  0  0  0  0  0  0
   -3.6511   -0.3796    1.7014 S   0  0  0  0  0  6  0  0  0  0  0  0
   -3.4817   -1.7262    2.2021 O   0  0  0  0  0  0  0  0  0  0  0  0
   -2.9776    0.7396    2.3247 O   0  0  0  0  0  0  0  0  0  0  0  0
   -5.3893   -0.0371    1.6440 C   0  0  0  0  0  0  0  0  0  0  0  0
   -5.8822    1.1777    2.1244 C   0  0  0  0  0  0  0  0  0  0  0  0
   -7.2540    1.4299    2.0703 C   0  0  0  0  0  0  0  0  0  0  0  0
   -8.1345    0.4687    1.5537 C   0  0  0  0  0  0  0  0  0  0  0  0
   -9.6053    0.7566    1.4706 C   0  0  0  0  0  0  0  0  0  0  0  0
   -7.6229   -0.7435    1.0699 C   0  0  0  0  0  0  0  0  0  0  0  0
   -6.2528   -1.0028    1.1210 C   0  0  0  0  0  0  0  0  0  0  0  0
    6.4929    0.5255   -1.8295 C   0  0  0  0  0  0  0  0  0  0  0  0
    7.5339    0.9118   -0.9766 C   0  0  0  0  0  0  0  0  0  0  0  0
    8.9780    2.4727    0.8898 H   0  0  0  0  0  0  0  0  0  0  0  0
   10.3451    1.6442    1.6445 H   0  0  0  0  0  0  0  0  0  0  0  0
   10.1546    1.5330   -0.1094 H   0  0  0  0  0  0  0  0  0  0  0  0
    7.3614   -1.6344    1.2596 H   0  0  0  0  0  0  0  0  0  0  0  0
    5.5214   -2.3196   -0.2337 H   0  0  0  0  0  0  0  0  0  0  0  0
    4.5837   -2.1421   -2.5754 H   0  0  0  0  0  0  0  0  0  0  0  0
    4.7772   -0.6472   -3.4927 H   0  0  0  0  0  0  0  0  0  0  0  0
    3.1997    0.4636   -2.0158 H   0  0  0  0  0  0  0  0  0  0  0  0
    0.7210   -2.2066    0.2341 H   0  0  0  0  0  0  0  0  0  0  0  0
   -0.6415    0.3812    0.8194 H   0  0  0  0  0  0  0  0  0  0  0  0
   -0.9166   -1.1689    1.6327 H   0  0  0  0  0  0  0  0  0  0  0  0
   -2.0643   -2.0659   -0.4218 H   0  0  0  0  0  0  0  0  0  0  0  0
   -1.3876    1.5498   -1.1483 H   0  0  0  0  0  0  0  0  0  0  0  0
   -2.3698    1.2446   -2.5963 H   0  0  0  0  0  0  0  0  0  0  0  0
   -3.4921    1.7580   -0.1099 H   0  0  0  0  0  0  0  0  0  0  0  0
   -4.2940    0.7405   -1.3240 H   0  0  0  0  0  0  0  0  0  0  0  0
   -5.2136    1.9279    2.5404 H   0  0  0  0  0  0  0  0  0  0  0  0
   -7.6354    2.3799    2.4401 H   0  0  0  0  0  0  0  0  0  0  0  0
  -10.1893   -0.1662    1.5517 H   0  0  0  0  0  0  0  0  0  0  0  0
   -9.8380    1.2403    0.5170 H   0  0  0  0  0  0  0  0  0  0  0  0
   -9.9214    1.4133    2.2879 H   0  0  0  0  0  0  0  0  0  0  0  0
   -8.2918   -1.4954    0.6555 H   0  0  0  0  0  0  0  0  0  0  0  0
   -5.8654   -1.9507    0.7537 H   0  0  0  0  0  0  0  0  0  0  0  0
    6.2560    1.1491   -2.6888 H   0  0  0  0  0  0  0  0  0  0  0  0
    8.0713    1.8246   -1.2102 H   0  0  0  0  0  0  0  0  0  0  0  0
  1  2  1  0
  2  3  1  0
  3  4  2  0
  4  5  1  0
  5  6  2  0
  6  7  1  0
  7  8  1  0
  8  9  1  0
  9 10  2  0
  9 11  1  0
 11 12  2  0
 11 13  1  0
 13 14  1  0
 14 15  1  0
 15 16  1  0
 16 17  1  0
 17 18  1  0
 18 19  1  0
 19 20  1  0
 20 21  2  0
 20 22  2  0
 20 23  1  0
 23 24  2  0
 24 25  1  0
 25 26  2  0
 26 27  1  0
 26 28  1  0
 28 29  2  0
  6 30  1  0
 30 31  2  0
 31  3  1  0
 19 15  1  0
 29 23  1  0
  1 32  1  0
  1 33  1  0
  1 34  1  0
  4 35  1  0
  5 36  1  0
  7 37  1  0
  7 38  1  0
  8 39  1  0
 13 40  1  0
 14 41  1  0
 14 42  1  0
 15 43  1  0
 17 44  1  0
 17 45  1  0
 18 46  1  0
 18 47  1  0
 24 48  1  0
 25 49  1  0
 27 50  1  0
 27 51  1  0
 27 52  1  0
 28 53  1  0
 29 54  1  0
 30 55  1  0
 31 56  1  0
M  END
$$$$
