
     RDKit          3D

 40 41  0  0  0  0  0  0  0  0999 V2000
    6.5791    1.2544   -0.0555 C   0  0  0  0  0  0  0  0  0  0  0  0
    6.7855    0.5675    1.6052 S   0  0  0  0  0  0  0  0  0  0  0  0
    5.7615   -0.9285    1.4445 C   0  0  0  0  0  0  0  0  0  0  0  0
    4.2934   -0.6369    1.2547 C   0  0  0  0  0  0  0  0  0  0  0  0
    3.5289   -0.1147    2.3087 C   0  0  0  0  0  0  0  0  0  0  0  0
    2.1680    0.1491    2.1371 C   0  0  0  0  0  0  0  0  0  0  0  0
    1.5531   -0.0967    0.9052 C   0  0  0  0  0  0  0  0  0  0  0  0
    0.1000    0.1986    0.7655 C   0  0  0  0  0  0  0  0  0  0  0  0
   -0.6304    0.1833    1.7489 O   0  0  0  0  0  0  0  0  0  0  0  0
   -0.3374    0.5194   -0.5064 N   0  0  0  0  0  0  0  0  0  0  0  0
   -1.6987    0.9938   -0.7109 C   0  0  0  0  0  0  0  0  0  0  0  0
   -2.1329    0.8390   -2.1671 C   0  0  0  0  0  0  0  0  0  0  0  0
   -3.7735    1.5761   -2.4864 S   0  0  0  0  0  0  0  0  0  0  0  0
   -4.8185    0.4292   -1.6084 C   0  0  0  0  0  0  0  0  0  0  0  0
   -5.5820    0.8873   -0.5297 C   0  0  0  0  0  0  0  0  0  0  0  0
   -6.4131    0.0089    0.1708 C   0  0  0  0  0  0  0  0  0  0  0  0
   -6.4876   -1.3275   -0.2159 C   0  0  0  0  0  0  0  0  0  0  0  0
   -7.6129   -2.5170    0.7279 Br  0  0  0  0  0  0  0  0  0  0  0  0
   -5.7424   -1.7919   -1.2979 C   0  0  0  0  0  0  0  0  0  0  0  0
   -4.9111   -0.9116   -1.9960 C   0  0  0  0  0  0  0  0  0  0  0  0
    2.3042   -0.6330   -0.1476 C   0  0  0  0  0  0  0  0  0  0  0  0
    3.6662   -0.8983    0.0273 C   0  0  0  0  0  0  0  0  0  0  0  0
    5.5526    1.5955   -0.2101 H   0  0  0  0  0  0  0  0  0  0  0  0
    7.2440    2.1150   -0.1691 H   0  0  0  0  0  0  0  0  0  0  0  0
    6.8431    0.5129   -0.8140 H   0  0  0  0  0  0  0  0  0  0  0  0
    6.1523   -1.5376    0.6217 H   0  0  0  0  0  0  0  0  0  0  0  0
    5.8873   -1.5276    2.3537 H   0  0  0  0  0  0  0  0  0  0  0  0
    3.9911    0.0903    3.2732 H   0  0  0  0  0  0  0  0  0  0  0  0
    1.5889    0.5499    2.9671 H   0  0  0  0  0  0  0  0  0  0  0  0
    0.3662    0.8313   -1.1630 H   0  0  0  0  0  0  0  0  0  0  0  0
   -1.7134    2.0464   -0.4051 H   0  0  0  0  0  0  0  0  0  0  0  0
   -2.3655    0.4389   -0.0419 H   0  0  0  0  0  0  0  0  0  0  0  0
   -2.1218   -0.2143   -2.4671 H   0  0  0  0  0  0  0  0  0  0  0  0
   -1.4180    1.3547   -2.8182 H   0  0  0  0  0  0  0  0  0  0  0  0
   -5.5332    1.9293   -0.2215 H   0  0  0  0  0  0  0  0  0  0  0  0
   -6.9947    0.3775    1.0116 H   0  0  0  0  0  0  0  0  0  0  0  0
   -5.8038   -2.8317   -1.6079 H   0  0  0  0  0  0  0  0  0  0  0  0
   -4.3472   -1.2827   -2.8480 H   0  0  0  0  0  0  0  0  0  0  0  0
    1.8398   -0.8779   -1.0985 H   0  0  0  0  0  0  0  0  0  0  0  0
    4.2330   -1.3207   -0.8002 H   0  0  0  0  0  0  0  0  0  0  0  0
  1  2  1  0
  2  3  1  0
  3  4  1  0
  4  5  2  0
  5  6  1  0
  6  7  2  0
  7  8  1  0
  8  9  2  0
  8 10  1  0
 10 11  1  0
 11 12  1  0
 12 13  1  0
 13 14  1  0
 14 15  2  0
 15 16  1  0
 16 17  2  0
 17 18  1  0
 17 19  1  0
 19 20  2  0
  7 21  1  0
 21 22  2  0
 22  4  1  0
 20 14  1  0
  1 23  1  0
  1 24  1  0
  1 25  1  0
  3 26  1  0
  3 27  1  0
  5 28  1  0
  6 29  1  0
 10 30  1  0
 11 31  1  0
 11 32  1  0
 12 33  1  0
 12 34  1  0
 15 35  1  0
 16 36  1  0
 19 37  1  0
 20 38  1  0
 21 39  1  0
 22 40  1  0
M  END
$$$$
