
     RDKit          3D

 48 50  0  0  0  0  0  0  0  0999 V2000
    9.0385    1.5113    1.0160 C   0  0  0  0  0  0  0  0  0  0  0  0
    7.5884    1.5963    0.7087 C   0  0  0  0  0  0  0  0  0  0  0  0
    6.8919    2.7341    0.3490 C   0  0  0  0  0  0  0  0  0  0  0  0
    5.2427    2.3498    0.0934 S   0  0  0  0  0  0  0  0  0  0  0  0
    5.5707    0.7247    0.4741 C   0  0  0  0  0  0  0  0  0  0  0  0
    4.6166   -0.2591    0.4743 N   0  0  0  0  0  0  0  0  0  0  0  0
    3.2792   -0.1258    0.1755 C   0  0  0  0  0  0  0  0  0  0  0  0
    2.6868    0.8989   -0.1412 O   0  0  0  0  0  0  0  0  0  0  0  0
    2.5514   -1.4506    0.3032 C   0  0  0  0  0  0  0  0  0  0  0  0
    1.1016   -1.3234   -0.1431 C   0  0  0  0  0  0  0  0  0  0  0  0
    0.4301   -2.6165    0.0265 N   0  0  0  0  0  0  0  0  0  0  0  0
   -0.6773   -3.1405   -1.1176 S   0  0  0  0  0  6  0  0  0  0  0  0
   -1.2988   -4.3293   -0.5812 O   0  0  0  0  0  0  0  0  0  0  0  0
   -0.0201   -3.1314   -2.4050 O   0  0  0  0  0  0  0  0  0  0  0  0
   -1.8911   -1.8461   -1.1022 C   0  0  0  0  0  0  0  0  0  0  0  0
   -2.0173   -0.9855   -2.1911 C   0  0  0  0  0  0  0  0  0  0  0  0
   -2.9827    0.0277   -2.1636 C   0  0  0  0  0  0  0  0  0  0  0  0
   -3.8317    0.1900   -1.0551 C   0  0  0  0  0  0  0  0  0  0  0  0
   -3.6890   -0.6882    0.0191 C   0  0  0  0  0  0  0  0  0  0  0  0
   -2.7294   -1.7117    0.0029 C   0  0  0  0  0  0  0  0  0  0  0  0
   -4.5556   -0.5324    1.1965 C   0  0  0  0  0  0  0  0  0  0  0  0
   -4.3575   -1.2458    2.1775 O   0  0  0  0  0  0  0  0  0  0  0  0
   -5.5407    0.4381    1.1215 N   0  0  0  0  0  0  0  0  0  0  0  0
   -6.4241    0.5961    2.2624 C   0  0  0  0  0  0  0  0  0  0  0  0
   -5.6717    1.3617    0.0909 C   0  0  0  0  0  0  0  0  0  0  0  0
   -6.5045    2.2698    0.1460 O   0  0  0  0  0  0  0  0  0  0  0  0
   -4.8137    1.2142   -0.9960 N   0  0  0  0  0  0  0  0  0  0  0  0
   -4.9401    2.1555   -2.1023 C   0  0  0  0  0  0  0  0  0  0  0  0
    6.8168    0.4467    0.7790 N   0  0  0  0  0  0  0  0  0  0  0  0
    9.2751    2.1038    1.9052 H   0  0  0  0  0  0  0  0  0  0  0  0
    9.6311    1.8894    0.1771 H   0  0  0  0  0  0  0  0  0  0  0  0
    9.3397    0.4762    1.2056 H   0  0  0  0  0  0  0  0  0  0  0  0
    7.2610    3.7423    0.2271 H   0  0  0  0  0  0  0  0  0  0  0  0
    4.9935   -1.1644    0.7194 H   0  0  0  0  0  0  0  0  0  0  0  0
    3.0666   -2.2011   -0.3084 H   0  0  0  0  0  0  0  0  0  0  0  0
    2.5996   -1.7745    1.3498 H   0  0  0  0  0  0  0  0  0  0  0  0
    0.5748   -0.5748    0.4592 H   0  0  0  0  0  0  0  0  0  0  0  0
    1.0691   -0.9972   -1.1883 H   0  0  0  0  0  0  0  0  0  0  0  0
    0.2583   -2.9714    0.9665 H   0  0  0  0  0  0  0  0  0  0  0  0
   -1.3741   -1.0915   -3.0634 H   0  0  0  0  0  0  0  0  0  0  0  0
   -3.0470    0.6778   -3.0322 H   0  0  0  0  0  0  0  0  0  0  0  0
   -2.6434   -2.3958    0.8456 H   0  0  0  0  0  0  0  0  0  0  0  0
   -6.4408   -0.2975    2.8923 H   0  0  0  0  0  0  0  0  0  0  0  0
   -6.0725    1.4457    2.8565 H   0  0  0  0  0  0  0  0  0  0  0  0
   -7.4440    0.8040    1.9232 H   0  0  0  0  0  0  0  0  0  0  0  0
   -3.9935    2.6889   -2.2357 H   0  0  0  0  0  0  0  0  0  0  0  0
   -5.2030    1.6097   -3.0141 H   0  0  0  0  0  0  0  0  0  0  0  0
   -5.7197    2.9018   -1.9260 H   0  0  0  0  0  0  0  0  0  0  0  0
  1  2  1  0
  2  3  2  0
  3  4  1  0
  4  5  1  0
  5  6  1  0
  6  7  1  0
  7  8  2  0
  7  9  1  0
  9 10  1  0
 10 11  1  0
 11 12  1  0
 12 13  2  0
 12 14  2  0
 12 15  1  0
 15 16  2  0
 16 17  1  0
 17 18  2  0
 18 19  1  0
 19 20  2  0
 19 21  1  0
 21 22  2  0
 21 23  1  0
 23 24  1  0
 23 25  1  0
 25 26  2  0
 25 27  1  0
 27 28  1  0
  5 29  2  0
 29  2  1  0
 20 15  1  0
 27 18  1  0
  1 30  1  0
  1 31  1  0
  1 32  1  0
  3 33  1  0
  6 34  1  0
  9 35  1  0
  9 36  1  0
 10 37  1  0
 10 38  1  0
 11 39  1  0
 16 40  1  0
 17 41  1  0
 20 42  1  0
 24 43  1  0
 24 44  1  0
 24 45  1  0
 28 46  1  0
 28 47  1  0
 28 48  1  0
M  END
$$$$
