
     RDKit          3D

 53 58  0  0  0  0  0  0  0  0999 V2000
   -0.6077   -0.5170   -1.7682 O   0  0  0  0  0  0  0  0  0  0  0  0
   -1.3299   -0.2838   -0.7982 C   0  0  0  0  0  0  0  0  0  0  0  0
   -0.8326   -0.5427    0.6375 C   0  0  0  0  0  0  0  0  0  0  0  0
    0.6401   -0.5796    0.7079 N   0  0  0  0  0  4  0  0  0  0  0  0
    1.4741    0.3417    1.3389 C   0  0  0  0  0  0  0  0  0  0  0  0
    2.7982   -0.0451    1.1541 C   0  0  0  0  0  0  0  0  0  0  0  0
    4.0763    0.7104    1.6764 C   0  0  0  0  0  0  0  0  0  0  0  0
    5.3575    0.2582    1.3548 C   0  0  0  0  0  0  0  0  0  0  0  0
    6.4854    0.9381    1.8295 C   0  0  0  0  0  0  0  0  0  0  0  0
    6.3439    2.0763    2.6265 C   0  0  0  0  0  0  0  0  0  0  0  0
    7.7790    2.8578    3.1789 Cl  0  0  0  0  0  0  0  0  0  0  0  0
    5.0635    2.5358    2.9454 C   0  0  0  0  0  0  0  0  0  0  0  0
    4.7959    3.9304    3.9283 Cl  0  0  0  0  0  0  0  0  0  0  0  0
    3.9328    1.8555    2.4699 C   0  0  0  0  0  0  0  0  0  0  0  0
    2.6880   -1.2143    0.4239 N   0  0  0  0  0  0  0  0  0  0  0  0
    1.4181   -1.4965    0.1372 C   0  0  0  0  0  0  0  0  0  0  0  0
    1.2612   -2.7382   -0.6580 C   0  0  0  0  0  0  0  0  0  0  0  0
    2.6573   -3.3803   -0.5306 C   0  0  0  0  0  0  0  0  0  0  0  0
    3.5979   -2.2141   -0.1230 C   0  0  0  0  0  0  0  0  0  0  0  0
   -2.6723    0.1123   -0.8546 N   0  0  0  0  0  0  0  0  0  0  0  0
   -3.0608    1.3798   -0.2849 C   0  0  0  0  0  0  0  0  0  0  0  0
   -2.0719    2.3682   -0.0665 C   0  0  0  0  0  0  0  0  0  0  0  0
   -2.3864    3.6144    0.4836 C   0  0  0  0  0  0  0  0  0  0  0  0
   -3.7001    3.9071    0.8218 C   0  0  0  0  0  0  0  0  0  0  0  0
   -4.6948    2.9596    0.5925 C   0  0  0  0  0  0  0  0  0  0  0  0
   -4.3873    1.7083    0.0298 C   0  0  0  0  0  0  0  0  0  0  0  0
   -5.7375    0.5923   -0.2154 S   0  0  0  0  0  0  0  0  0  0  0  0
   -5.0305   -0.4974   -1.4214 C   0  0  0  0  0  0  0  0  0  0  0  0
   -5.9439   -1.2801   -2.1498 C   0  0  0  0  0  0  0  0  0  0  0  0
   -5.4996   -2.2370   -3.0556 C   0  0  0  0  0  0  0  0  0  0  0  0
   -4.1369   -2.4272   -3.2294 C   0  0  0  0  0  0  0  0  0  0  0  0
   -3.2230   -1.6545   -2.5054 C   0  0  0  0  0  0  0  0  0  0  0  0
   -3.6423   -0.6585   -1.5970 C   0  0  0  0  0  0  0  0  0  0  0  0
   -1.2066   -1.5232    0.9570 H   0  0  0  0  0  0  0  0  0  0  0  0
   -1.1977    0.2076    1.3440 H   0  0  0  0  0  0  0  0  0  0  0  0
    1.0124    1.1754    1.8407 H   0  0  0  0  0  0  0  0  0  0  0  0
    5.5224   -0.6105    0.7290 H   0  0  0  0  0  0  0  0  0  0  0  0
    7.4800    0.5749    1.5716 H   0  0  0  0  0  0  0  0  0  0  0  0
    2.9536    2.2395    2.7411 H   0  0  0  0  0  0  0  0  0  0  0  0
    0.4618   -3.3407   -0.2241 H   0  0  0  0  0  0  0  0  0  0  0  0
    1.0431   -2.4415   -1.6849 H   0  0  0  0  0  0  0  0  0  0  0  0
    2.6382   -4.1248    0.2737 H   0  0  0  0  0  0  0  0  0  0  0  0
    2.9804   -3.8836   -1.4461 H   0  0  0  0  0  0  0  0  0  0  0  0
    4.1040   -1.7900   -0.9953 H   0  0  0  0  0  0  0  0  0  0  0  0
    4.3213   -2.5397    0.6282 H   0  0  0  0  0  0  0  0  0  0  0  0
   -1.0399    2.2173   -0.3767 H   0  0  0  0  0  0  0  0  0  0  0  0
   -1.6130    4.3673    0.6201 H   0  0  0  0  0  0  0  0  0  0  0  0
   -3.9588    4.8779    1.2396 H   0  0  0  0  0  0  0  0  0  0  0  0
   -5.7272    3.2115    0.8421 H   0  0  0  0  0  0  0  0  0  0  0  0
   -7.0174   -1.1539   -2.0072 H   0  0  0  0  0  0  0  0  0  0  0  0
   -6.2156   -2.8303   -3.6205 H   0  0  0  0  0  0  0  0  0  0  0  0
   -3.7781   -3.1707   -3.9386 H   0  0  0  0  0  0  0  0  0  0  0  0
   -2.1744   -1.8422   -2.7186 H   0  0  0  0  0  0  0  0  0  0  0  0
  1  2  2  0
  2  3  1  0
  3  4  1  0
  4  5  1  0
  5  6  2  0
  6  7  1  0
  7  8  2  0
  8  9  1  0
  9 10  2  0
 10 11  1  0
 10 12  1  0
 12 13  1  0
 12 14  2  0
  6 15  1  0
 15 16  1  0
 16 17  1  0
 17 18  1  0
 18 19  1  0
  2 20  1  0
 20 21  1  0
 21 22  2  0
 22 23  1  0
 23 24  2  0
 24 25  1  0
 25 26  2  0
 26 27  1  0
 27 28  1  0
 28 29  2  0
 29 30  1  0
 30 31  2  0
 31 32  1  0
 32 33  2  0
 16  4  2  0
 33 20  1  0
 14  7  1  0
 19 15  1  0
 26 21  1  0
 33 28  1  0
  3 34  1  0
  3 35  1  0
  5 36  1  0
  8 37  1  0
  9 38  1  0
 14 39  1  0
 17 40  1  0
 17 41  1  0
 18 42  1  0
 18 43  1  0
 19 44  1  0
 19 45  1  0
 22 46  1  0
 23 47  1  0
 24 48  1  0
 25 49  1  0
 29 50  1  0
 30 51  1  0
 31 52  1  0
 32 53  1  0
M  CHG  1   4   1
M  END
$$$$
