
     RDKit          3D

 47 50  0  0  0  0  0  0  0  0999 V2000
   -6.3402   -2.8945    1.9615 C   0  0  0  0  0  0  0  0  0  0  0  0
   -5.6288   -1.8370    1.3155 O   0  0  0  0  0  0  0  0  0  0  0  0
   -6.2950   -1.2852    0.2707 C   0  0  0  0  0  0  0  0  0  0  0  0
   -7.3950   -1.6244   -0.1344 O   0  0  0  0  0  0  0  0  0  0  0  0
   -5.4877   -0.1959   -0.3478 C   0  0  0  0  0  0  0  0  0  0  0  0
   -5.9860    0.4110   -1.5065 C   0  0  0  0  0  0  0  0  0  0  0  0
   -5.2784    1.4456   -2.1134 C   0  0  0  0  0  0  0  0  0  0  0  0
   -4.0642    1.8729   -1.5725 C   0  0  0  0  0  0  0  0  0  0  0  0
   -3.5356    1.2629   -0.4204 C   0  0  0  0  0  0  0  0  0  0  0  0
   -2.2912    1.7317    0.0894 N   0  0  0  0  0  0  0  0  0  0  0  0
   -1.7968    2.9313   -0.3225 N   0  0  0  0  0  0  0  0  0  0  0  0
   -0.6991    3.1516    0.3835 N   0  0  0  0  0  0  0  0  0  0  0  0
   -0.4274    2.1012    1.2107 N   0  0  0  0  0  0  0  0  0  0  0  0
   -1.3797    1.2192    1.0053 C   0  0  0  0  0  0  0  0  0  0  0  0
   -1.3318   -0.3680    1.7018 S   0  0  0  0  0  0  0  0  0  0  0  0
   -0.8560   -1.3688    0.2646 C   0  0  0  0  0  0  0  0  0  0  0  0
    0.3863   -0.8332   -0.4267 C   0  0  0  0  0  0  0  0  0  0  0  0
    0.3012   -0.4203   -1.5801 O   0  0  0  0  0  0  0  0  0  0  0  0
    1.5136   -0.9097    0.3579 N   0  0  0  0  0  0  0  0  0  0  0  0
    2.7846   -0.5208    0.0255 C   0  0  0  0  0  0  0  0  0  0  0  0
    3.7583   -0.5949    0.9065 N   0  0  0  0  0  0  0  0  0  0  0  0
    4.9261   -0.1446    0.3273 C   0  0  0  0  0  0  0  0  0  0  0  0
    4.8138    0.2542   -0.9883 C   0  0  0  0  0  0  0  0  0  0  0  0
    3.2129    0.0551   -1.5233 S   0  0  0  0  0  0  0  0  0  0  0  0
    5.9299    0.7590   -1.8360 C   0  0  0  0  0  0  0  0  0  0  0  0
    7.1270    1.1539   -0.9497 C   0  0  0  0  0  0  0  0  0  0  0  0
    7.4056    0.1117    0.1488 C   0  0  0  0  0  0  0  0  0  0  0  0
    6.2029   -0.0670    1.0932 C   0  0  0  0  0  0  0  0  0  0  0  0
   -4.2661    0.2391    0.1984 C   0  0  0  0  0  0  0  0  0  0  0  0
   -5.7332   -3.2481    2.8000 H   0  0  0  0  0  0  0  0  0  0  0  0
   -7.2956   -2.5327    2.3548 H   0  0  0  0  0  0  0  0  0  0  0  0
   -6.4951   -3.7282    1.2695 H   0  0  0  0  0  0  0  0  0  0  0  0
   -6.9323    0.0853   -1.9362 H   0  0  0  0  0  0  0  0  0  0  0  0
   -5.6708    1.9203   -3.0104 H   0  0  0  0  0  0  0  0  0  0  0  0
   -3.5345    2.6797   -2.0802 H   0  0  0  0  0  0  0  0  0  0  0  0
   -0.6688   -2.3989    0.5870 H   0  0  0  0  0  0  0  0  0  0  0  0
   -1.6815   -1.3960   -0.4545 H   0  0  0  0  0  0  0  0  0  0  0  0
    1.4343   -1.1849    1.3278 H   0  0  0  0  0  0  0  0  0  0  0  0
    5.6164    1.6223   -2.4335 H   0  0  0  0  0  0  0  0  0  0  0  0
    6.2385   -0.0325   -2.5298 H   0  0  0  0  0  0  0  0  0  0  0  0
    8.0170    1.2836   -1.5760 H   0  0  0  0  0  0  0  0  0  0  0  0
    6.9252    2.1238   -0.4761 H   0  0  0  0  0  0  0  0  0  0  0  0
    8.2859    0.4072    0.7310 H   0  0  0  0  0  0  0  0  0  0  0  0
    7.6437   -0.8492   -0.3257 H   0  0  0  0  0  0  0  0  0  0  0  0
    6.3393   -0.9685    1.7004 H   0  0  0  0  0  0  0  0  0  0  0  0
    6.1477    0.7877    1.7781 H   0  0  0  0  0  0  0  0  0  0  0  0
   -3.9394   -0.2068    1.1303 H   0  0  0  0  0  0  0  0  0  0  0  0
  1  2  1  0
  2  3  1  0
  3  4  2  0
  3  5  1  0
  5  6  2  0
  6  7  1  0
  7  8  2  0
  8  9  1  0
  9 10  1  0
 10 11  1  0
 11 12  2  0
 12 13  1  0
 13 14  2  0
 14 15  1  0
 15 16  1  0
 16 17  1  0
 17 18  2  0
 17 19  1  0
 19 20  1  0
 20 21  2  0
 21 22  1  0
 22 23  2  0
 23 24  1  0
 23 25  1  0
 25 26  1  0
 26 27  1  0
 27 28  1  0
  9 29  2  0
 29  5  1  0
 14 10  1  0
 24 20  1  0
 28 22  1  0
  1 30  1  0
  1 31  1  0
  1 32  1  0
  6 33  1  0
  7 34  1  0
  8 35  1  0
 16 36  1  0
 16 37  1  0
 19 38  1  0
 25 39  1  0
 25 40  1  0
 26 41  1  0
 26 42  1  0
 27 43  1  0
 27 44  1  0
 28 45  1  0
 28 46  1  0
 29 47  1  0
M  END
$$$$
