
     RDKit          3D

 67 72  0  0  0  0  0  0  0  0999 V2000
   -3.9788    4.8572   -1.6977 C   0  0  0  0  0  0  0  0  0  0  0  0
   -3.2464    3.5740   -1.9277 C   0  0  0  0  0  0  0  0  0  0  0  0
   -3.1784    2.9944   -3.2039 C   0  0  0  0  0  0  0  0  0  0  0  0
   -2.4879    1.7872   -3.4225 C   0  0  0  0  0  0  0  0  0  0  0  0
   -1.8519    1.1256   -2.3705 C   0  0  0  0  0  0  0  0  0  0  0  0
   -1.9243    1.6883   -1.1065 C   0  0  0  0  0  0  0  0  0  0  0  0
   -2.6060    2.8954   -0.9027 C   0  0  0  0  0  0  0  0  0  0  0  0
   -2.5161    3.2769    0.4346 N   0  0  0  0  0  0  0  0  0  0  0  0
   -1.7800    2.3546    1.1823 C   0  0  0  0  0  0  0  0  0  0  0  0
   -1.5191    2.4674    2.3719 O   0  0  0  0  0  0  0  0  0  0  0  0
   -1.3504    1.2344    0.2004 C   0  0  1  0  0  0  0  0  0  0  0  0
   -1.8963   -0.0979    0.5602 C   0  0  0  0  0  0  0  0  0  0  0  0
   -0.8817   -0.9238    1.0724 C   0  0  0  0  0  0  0  0  0  0  0  0
   -1.4265   -2.1325    1.4166 C   0  0  0  0  0  0  0  0  0  0  0  0
   -0.8505   -3.2212    1.9193 O   0  0  0  0  0  0  0  0  0  0  0  0
   -2.7938   -2.0813    1.0718 N   0  0  0  0  0  0  0  0  0  0  0  0
   -3.7257   -3.1673    1.1250 C   0  0  0  0  0  0  0  0  0  0  0  0
   -3.6013   -4.1757    2.0880 C   0  0  0  0  0  0  0  0  0  0  0  0
   -4.5213   -5.2273    2.1301 C   0  0  0  0  0  0  0  0  0  0  0  0
   -5.5633   -5.2857    1.2072 C   0  0  0  0  0  0  0  0  0  0  0  0
   -5.6856   -4.2958    0.2352 C   0  0  0  0  0  0  0  0  0  0  0  0
   -4.7703   -3.2414    0.1899 C   0  0  0  0  0  0  0  0  0  0  0  0
   -3.0856   -0.7684    0.6435 C   0  0  0  0  0  0  0  0  0  0  0  0
   -4.3119   -0.2931    0.4310 O   0  0  0  0  0  0  0  0  0  0  0  0
    0.4002   -0.1856    1.1133 C   0  0  1  0  0  0  0  0  0  0  0  0
    1.6513   -0.8886    0.5903 C   0  0  0  0  0  0  0  0  0  0  0  0
    2.7418    0.0534    0.2899 N   0  0  0  0  0  0  0  0  0  0  0  0
    3.9746   -0.4708   -0.0440 C   0  0  0  0  0  0  0  0  0  0  0  0
    4.1752   -1.6709   -0.1834 O   0  0  0  0  0  0  0  0  0  0  0  0
    4.9217    0.4910   -0.1823 O   0  0  0  0  0  0  0  0  0  0  0  0
    6.2865    0.1521   -0.5374 C   0  0  0  0  0  0  0  0  0  0  0  0
    6.3571   -0.4973   -1.9238 C   0  0  0  0  0  0  0  0  0  0  0  0
    7.0190    1.5017   -0.5904 C   0  0  0  0  0  0  0  0  0  0  0  0
    6.9451   -0.7177    0.5388 C   0  0  0  0  0  0  0  0  0  0  0  0
    2.5126    1.4831    0.5637 C   0  0  0  0  0  0  0  0  0  0  0  0
    1.0899    1.9914    0.1918 C   0  0  0  0  0  0  0  0  0  0  0  0
    0.0971    0.9366    0.1930 N   0  0  0  0  0  0  0  0  0  0  0  0
   -3.2985    5.6168   -1.2991 H   0  0  0  0  0  0  0  0  0  0  0  0
   -4.4057    5.2485   -2.6272 H   0  0  0  0  0  0  0  0  0  0  0  0
   -4.8014    4.7026   -0.9921 H   0  0  0  0  0  0  0  0  0  0  0  0
   -3.6640    3.4770   -4.0500 H   0  0  0  0  0  0  0  0  0  0  0  0
   -2.4516    1.3632   -4.4235 H   0  0  0  0  0  0  0  0  0  0  0  0
   -1.3188    0.1943   -2.5360 H   0  0  0  0  0  0  0  0  0  0  0  0
   -2.9222    4.1061    0.8383 H   0  0  0  0  0  0  0  0  0  0  0  0
    0.1011   -3.0477    2.0179 H   0  0  0  0  0  0  0  0  0  0  0  0
   -2.8167   -4.1518    2.8390 H   0  0  0  0  0  0  0  0  0  0  0  0
   -4.4210   -6.0013    2.8870 H   0  0  0  0  0  0  0  0  0  0  0  0
   -6.2730   -6.1083    1.2392 H   0  0  0  0  0  0  0  0  0  0  0  0
   -6.4844   -4.3527   -0.5000 H   0  0  0  0  0  0  0  0  0  0  0  0
   -4.8613   -2.5184   -0.6184 H   0  0  0  0  0  0  0  0  0  0  0  0
   -4.9497   -0.8567    0.9047 H   0  0  0  0  0  0  0  0  0  0  0  0
    0.5642    0.1933    2.1315 H   0  0  0  0  0  0  0  0  0  0  0  0
    1.4424   -1.4471   -0.3316 H   0  0  0  0  0  0  0  0  0  0  0  0
    2.0129   -1.6165    1.3269 H   0  0  0  0  0  0  0  0  0  0  0  0
    7.3936   -0.6019   -2.2620 H   0  0  0  0  0  0  0  0  0  0  0  0
    5.9086   -1.4953   -1.9330 H   0  0  0  0  0  0  0  0  0  0  0  0
    5.8083    0.0997   -2.6606 H   0  0  0  0  0  0  0  0  0  0  0  0
    6.5524    2.1703   -1.3232 H   0  0  0  0  0  0  0  0  0  0  0  0
    6.9602    2.0149    0.3765 H   0  0  0  0  0  0  0  0  0  0  0  0
    8.0748    1.3819   -0.8546 H   0  0  0  0  0  0  0  0  0  0  0  0
    6.5154   -1.7230    0.5723 H   0  0  0  0  0  0  0  0  0  0  0  0
    6.8012   -0.2810    1.5333 H   0  0  0  0  0  0  0  0  0  0  0  0
    8.0200   -0.8283    0.3590 H   0  0  0  0  0  0  0  0  0  0  0  0
    2.6667    1.6057    1.6432 H   0  0  0  0  0  0  0  0  0  0  0  0
    3.2605    2.1027    0.0588 H   0  0  0  0  0  0  0  0  0  0  0  0
    1.1295    2.4243   -0.8146 H   0  0  0  0  0  0  0  0  0  0  0  0
    0.8372    2.8062    0.8790 H   0  0  0  0  0  0  0  0  0  0  0  0
  1  2  1  0
  2  3  2  0
  3  4  1  0
  4  5  2  0
  5  6  1  0
  6  7  2  0
  7  8  1  0
  8  9  1  0
  9 10  2  0
  9 11  1  0
 11 12  1  0
 12 13  1  0
 13 14  2  0
 14 15  1  0
 14 16  1  0
 16 17  1  0
 17 18  2  0
 18 19  1  0
 19 20  2  0
 20 21  1  0
 21 22  2  0
 16 23  1  0
 23 24  1  0
 13 25  1  0
 25 26  1  0
 26 27  1  0
 27 28  1  0
 28 29  2  0
 28 30  1  0
 30 31  1  0
 31 32  1  0
 31 33  1  0
 31 34  1  0
 27 35  1  0
 35 36  1  0
 36 37  1  0
  7  2  1  0
 11 37  1  6
 11  6  1  0
 23 12  2  0
 37 25  1  0
 22 17  1  0
  1 38  1  0
  1 39  1  0
  1 40  1  0
  3 41  1  0
  4 42  1  0
  5 43  1  0
  8 44  1  0
 15 45  1  0
 18 46  1  0
 19 47  1  0
 20 48  1  0
 21 49  1  0
 22 50  1  0
 24 51  1  0
 25 52  1  1
 26 53  1  0
 26 54  1  0
 32 55  1  0
 32 56  1  0
 32 57  1  0
 33 58  1  0
 33 59  1  0
 33 60  1  0
 34 61  1  0
 34 62  1  0
 34 63  1  0
 35 64  1  0
 35 65  1  0
 36 66  1  0
 36 67  1  0
M  END
$$$$
