
     RDKit          3D

 60 64  0  0  0  0  0  0  0  0999 V2000
   -5.1945   -0.1870    4.4831 C   0  0  0  0  0  0  0  0  0  0  0  0
   -5.1955   -0.0675    2.9879 C   0  0  0  0  0  0  0  0  0  0  0  0
   -4.2111   -0.7036    2.2238 C   0  0  0  0  0  0  0  0  0  0  0  0
   -4.1924   -0.5640    0.8341 C   0  0  0  0  0  0  0  0  0  0  0  0
   -5.1561    0.2190    0.1838 C   0  0  0  0  0  0  0  0  0  0  0  0
   -5.1290    0.3812   -1.3152 C   0  0  0  0  0  0  0  0  0  0  0  0
   -4.4744    1.6125   -1.7040 N   0  0  0  0  0  0  0  0  0  0  0  0
   -5.1967    2.7183   -2.0156 N   0  0  0  0  0  0  0  0  0  0  0  0
   -4.3385    3.6851   -2.3424 N   0  0  0  0  0  0  0  0  0  0  0  0
   -3.0862    3.1621   -2.2482 C   0  0  0  0  0  0  0  0  0  0  0  0
   -1.7975    3.7543   -2.4793 C   0  0  0  0  0  0  0  0  0  0  0  0
   -1.5871    4.9103   -2.8294 O   0  0  0  0  0  0  0  0  0  0  0  0
   -0.7612    2.8539   -2.2597 N   0  0  0  0  0  0  0  0  0  0  0  0
   -0.9433    1.5300   -1.8744 C   0  0  0  0  0  0  0  0  0  0  0  0
    0.3162    0.6997   -1.6767 C   0  0  0  0  0  0  0  0  0  0  0  0
    1.1600    1.2637   -0.5319 C   0  0  0  0  0  0  0  0  0  0  0  0
    2.4280    0.4418   -0.3196 C   0  0  0  0  0  0  0  0  0  0  0  0
    3.0910    0.0763   -1.6043 N   0  0  0  0  0  0  0  0  0  0  0  0
    4.7983   -0.0685   -1.5315 S   0  0  0  0  0  6  0  0  0  0  0  0
    5.2611   -0.5947   -2.7980 O   0  0  0  0  0  0  0  0  0  0  0  0
    5.3069    1.1831   -1.0088 O   0  0  0  0  0  0  0  0  0  0  0  0
    5.0245   -1.3362   -0.3114 C   0  0  0  0  0  0  0  0  0  0  0  0
    5.6023   -1.0295    0.9219 C   0  0  0  0  0  0  0  0  0  0  0  0
    5.7710   -2.0410    1.8691 C   0  0  0  0  0  0  0  0  0  0  0  0
    5.3610   -3.3530    1.5903 C   0  0  0  0  0  0  0  0  0  0  0  0
    5.5814   -4.4441    2.5973 C   0  0  0  0  0  0  0  0  0  0  0  0
    4.8037   -3.6486    0.3383 C   0  0  0  0  0  0  0  0  0  0  0  0
    4.6319   -2.6428   -0.6134 C   0  0  0  0  0  0  0  0  0  0  0  0
    2.6124    0.8398   -2.7793 C   0  0  0  0  0  0  0  0  0  0  0  0
    1.1236    0.5635   -2.9766 C   0  0  0  0  0  0  0  0  0  0  0  0
   -2.1096    0.9814   -1.6714 N   0  0  0  0  0  0  0  0  0  0  0  0
   -3.1380    1.8439   -1.8642 C   0  0  0  0  0  0  0  0  0  0  0  0
   -6.1272    0.8739    0.9535 C   0  0  0  0  0  0  0  0  0  0  0  0
   -6.1442    0.7336    2.3430 C   0  0  0  0  0  0  0  0  0  0  0  0
   -4.7780   -1.1495    4.7983 H   0  0  0  0  0  0  0  0  0  0  0  0
   -4.5969    0.6179    4.9224 H   0  0  0  0  0  0  0  0  0  0  0  0
   -6.2138   -0.1293    4.8795 H   0  0  0  0  0  0  0  0  0  0  0  0
   -3.4491   -1.3109    2.7072 H   0  0  0  0  0  0  0  0  0  0  0  0
   -3.4119   -1.0635    0.2630 H   0  0  0  0  0  0  0  0  0  0  0  0
   -6.1471    0.3874   -1.7223 H   0  0  0  0  0  0  0  0  0  0  0  0
   -4.5985   -0.4491   -1.7958 H   0  0  0  0  0  0  0  0  0  0  0  0
    0.1595    3.2377   -2.4108 H   0  0  0  0  0  0  0  0  0  0  0  0
   -0.0113   -0.3079   -1.3820 H   0  0  0  0  0  0  0  0  0  0  0  0
    0.5765    1.2858    0.3971 H   0  0  0  0  0  0  0  0  0  0  0  0
    1.4368    2.3065   -0.7343 H   0  0  0  0  0  0  0  0  0  0  0  0
    2.1692   -0.4914    0.1946 H   0  0  0  0  0  0  0  0  0  0  0  0
    3.1005    1.0059    0.3349 H   0  0  0  0  0  0  0  0  0  0  0  0
    5.9285   -0.0174    1.1509 H   0  0  0  0  0  0  0  0  0  0  0  0
    6.2303   -1.8020    2.8265 H   0  0  0  0  0  0  0  0  0  0  0  0
    5.5011   -4.0549    3.6178 H   0  0  0  0  0  0  0  0  0  0  0  0
    6.5747   -4.8828    2.4622 H   0  0  0  0  0  0  0  0  0  0  0  0
    4.8290   -5.2326    2.4908 H   0  0  0  0  0  0  0  0  0  0  0  0
    4.5051   -4.6669    0.0963 H   0  0  0  0  0  0  0  0  0  0  0  0
    4.2006   -2.8797   -1.5835 H   0  0  0  0  0  0  0  0  0  0  0  0
    3.1388    0.5264   -3.6870 H   0  0  0  0  0  0  0  0  0  0  0  0
    2.7982    1.9108   -2.6384 H   0  0  0  0  0  0  0  0  0  0  0  0
    0.7393    1.2090   -3.7745 H   0  0  0  0  0  0  0  0  0  0  0  0
    1.0025   -0.4643   -3.3447 H   0  0  0  0  0  0  0  0  0  0  0  0
   -6.8723    1.5088    0.4762 H   0  0  0  0  0  0  0  0  0  0  0  0
   -6.9027    1.2588    2.9198 H   0  0  0  0  0  0  0  0  0  0  0  0
  1  2  1  0
  2  3  2  0
  3  4  1  0
  4  5  2  0
  5  6  1  0
  6  7  1  0
  7  8  1  0
  8  9  2  0
  9 10  1  0
 10 11  1  0
 11 12  2  0
 11 13  1  0
 13 14  1  0
 14 15  1  0
 15 16  1  0
 16 17  1  0
 17 18  1  0
 18 19  1  0
 19 20  2  0
 19 21  2  0
 19 22  1  0
 22 23  2  0
 23 24  1  0
 24 25  2  0
 25 26  1  0
 25 27  1  0
 27 28  2  0
 18 29  1  0
 29 30  1  0
 14 31  2  0
 31 32  1  0
  5 33  1  0
 33 34  2  0
 34  2  1  0
 32  7  1  0
 32 10  2  0
 30 15  1  0
 28 22  1  0
  1 35  1  0
  1 36  1  0
  1 37  1  0
  3 38  1  0
  4 39  1  0
  6 40  1  0
  6 41  1  0
 13 42  1  0
 15 43  1  0
 16 44  1  0
 16 45  1  0
 17 46  1  0
 17 47  1  0
 23 48  1  0
 24 49  1  0
 26 50  1  0
 26 51  1  0
 26 52  1  0
 27 53  1  0
 28 54  1  0
 29 55  1  0
 29 56  1  0
 30 57  1  0
 30 58  1  0
 33 59  1  0
 34 60  1  0
M  END
$$$$
