
     RDKit          3D

 43 46  0  0  0  0  0  0  0  0999 V2000
    6.4192    2.1055   -0.7605 C   0  0  0  0  0  0  0  0  0  0  0  0
    5.0218    1.5607   -0.6957 C   0  0  0  0  0  0  0  0  0  0  0  0
    4.6371    0.7173    0.3509 C   0  0  0  0  0  0  0  0  0  0  0  0
    3.3455    0.1826    0.3980 C   0  0  0  0  0  0  0  0  0  0  0  0
    2.4269    0.4763   -0.6101 C   0  0  0  0  0  0  0  0  0  0  0  0
    0.9720   -0.1144   -0.5683 C   0  0  0  0  0  0  0  0  0  0  0  0
   -0.0547    0.1586   -1.4650 C   0  0  0  0  0  0  0  0  0  0  0  0
   -1.2027   -0.5274   -1.0661 N   0  0  0  0  0  4  0  0  0  0  0  0
   -2.5027   -0.5161   -1.7317 C   0  0  0  0  0  0  0  0  0  0  0  0
   -3.5476    0.0031   -0.7789 C   0  0  0  0  0  0  0  0  0  0  0  0
   -3.4495    1.2955   -0.2377 C   0  0  0  0  0  0  0  0  0  0  0  0
   -4.4167    1.7699    0.6512 C   0  0  0  0  0  0  0  0  0  0  0  0
   -5.4944    0.9610    1.0088 C   0  0  0  0  0  0  0  0  0  0  0  0
   -5.6043   -0.3181    0.4714 C   0  0  0  0  0  0  0  0  0  0  0  0
   -6.9267   -1.3235    0.9133 Cl  0  0  0  0  0  0  0  0  0  0  0  0
   -4.6433   -0.7979   -0.4203 C   0  0  0  0  0  0  0  0  0  0  0  0
   -0.8901   -1.2159    0.0272 C   0  0  0  0  0  0  0  0  0  0  0  0
    0.3884   -0.9980    0.3217 N   0  0  0  0  0  0  0  0  0  0  0  0
    0.8091   -1.7450    1.4987 C   0  0  0  0  0  0  0  0  0  0  0  0
   -0.3558   -2.7470    1.7277 C   0  0  0  0  0  0  0  0  0  0  0  0
   -1.5555   -2.1458    0.9694 C   0  0  0  0  0  0  0  0  0  0  0  0
    2.8100    1.3122   -1.6653 C   0  0  0  0  0  0  0  0  0  0  0  0
    4.1023    1.8442   -1.7093 C   0  0  0  0  0  0  0  0  0  0  0  0
    7.0658    1.4118   -1.3066 H   0  0  0  0  0  0  0  0  0  0  0  0
    6.8273    2.2540    0.2447 H   0  0  0  0  0  0  0  0  0  0  0  0
    6.4362    3.0775   -1.2645 H   0  0  0  0  0  0  0  0  0  0  0  0
    5.3454    0.4748    1.1420 H   0  0  0  0  0  0  0  0  0  0  0  0
    3.0955   -0.4473    1.2414 H   0  0  0  0  0  0  0  0  0  0  0  0
   -0.1197    0.7781   -2.3435 H   0  0  0  0  0  0  0  0  0  0  0  0
   -2.4624    0.1184   -2.6238 H   0  0  0  0  0  0  0  0  0  0  0  0
   -2.7207   -1.5400   -2.0552 H   0  0  0  0  0  0  0  0  0  0  0  0
   -2.6199    1.9480   -0.5047 H   0  0  0  0  0  0  0  0  0  0  0  0
   -4.3357    2.7741    1.0635 H   0  0  0  0  0  0  0  0  0  0  0  0
   -6.2464    1.3358    1.6996 H   0  0  0  0  0  0  0  0  0  0  0  0
   -4.7598   -1.7987   -0.8323 H   0  0  0  0  0  0  0  0  0  0  0  0
    1.7479   -2.2721    1.3149 H   0  0  0  0  0  0  0  0  0  0  0  0
    0.9059   -1.0524    2.3398 H   0  0  0  0  0  0  0  0  0  0  0  0
   -0.5639   -2.9210    2.7868 H   0  0  0  0  0  0  0  0  0  0  0  0
   -0.0910   -3.7094    1.2738 H   0  0  0  0  0  0  0  0  0  0  0  0
   -2.1923   -1.5381    1.6155 H   0  0  0  0  0  0  0  0  0  0  0  0
   -2.1252   -2.8827    0.4023 H   0  0  0  0  0  0  0  0  0  0  0  0
    2.1348    1.5664   -2.4767 H   0  0  0  0  0  0  0  0  0  0  0  0
    4.3900    2.4847   -2.5419 H   0  0  0  0  0  0  0  0  0  0  0  0
  1  2  1  0
  2  3  2  0
  3  4  1  0
  4  5  2  0
  5  6  1  0
  6  7  2  0
  7  8  1  0
  8  9  1  0
  9 10  1  0
 10 11  2  0
 11 12  1  0
 12 13  2  0
 13 14  1  0
 14 15  1  0
 14 16  2  0
  8 17  2  0
 17 18  1  0
 18 19  1  0
 19 20  1  0
 20 21  1  0
  5 22  1  0
 22 23  2  0
 23  2  1  0
 18  6  1  0
 16 10  1  0
 21 17  1  0
  1 24  1  0
  1 25  1  0
  1 26  1  0
  3 27  1  0
  4 28  1  0
  7 29  1  0
  9 30  1  0
  9 31  1  0
 11 32  1  0
 12 33  1  0
 13 34  1  0
 16 35  1  0
 19 36  1  0
 19 37  1  0
 20 38  1  0
 20 39  1  0
 21 40  1  0
 21 41  1  0
 22 42  1  0
 23 43  1  0
M  CHG  1   8   1
M  END
$$$$
