
     RDKit          3D

 60 65  0  0  0  0  0  0  0  0999 V2000
    1.1203    1.7046   -3.4776 O   0  0  0  0  0  0  0  0  0  0  0  0
    1.7083    1.0210   -2.6471 C   0  0  0  0  0  0  0  0  0  0  0  0
    1.0263    0.1733   -1.7821 N   0  0  0  0  0  0  0  0  0  0  0  0
    1.6407   -0.6358   -0.8324 C   0  0  0  0  0  0  0  0  0  0  0  0
    0.7220   -1.4956    0.0246 C   0  0  0  0  0  0  0  0  0  0  0  0
   -0.0988   -2.4785   -0.8255 C   0  0  0  0  0  0  0  0  0  0  0  0
   -1.6023   -2.2497   -0.7012 C   0  0  0  0  0  0  0  0  0  0  0  0
   -1.9798   -2.2955    0.7215 N   0  0  0  0  0  0  0  0  0  0  0  0
   -3.6067   -2.6043    1.1095 S   0  0  0  0  0  6  0  0  0  0  0  0
   -4.1069   -3.6228    0.2103 O   0  0  0  0  0  0  0  0  0  0  0  0
   -3.6967   -2.7584    2.5465 O   0  0  0  0  0  0  0  0  0  0  0  0
   -4.4118   -1.0737    0.6777 C   0  0  0  0  0  0  0  0  0  0  0  0
   -4.6789   -0.1214    1.6679 C   0  0  0  0  0  0  0  0  0  0  0  0
   -5.3334    1.0633    1.3262 C   0  0  0  0  0  0  0  0  0  0  0  0
   -5.7319    1.2809    0.0085 C   0  0  0  0  0  0  0  0  0  0  0  0
   -5.4573    0.3270   -0.9788 C   0  0  0  0  0  0  0  0  0  0  0  0
   -4.8185   -0.8639   -0.6436 C   0  0  0  0  0  0  0  0  0  0  0  0
   -5.7978    0.4904   -2.2974 O   0  0  0  0  0  0  0  0  0  0  0  0
   -6.1675    1.8450   -2.5849 C   0  0  0  0  0  0  0  0  0  0  0  0
   -7.0808    2.3975   -1.5030 C   0  0  0  0  0  0  0  0  0  0  0  0
   -6.3931    2.4552   -0.2482 O   0  0  0  0  0  0  0  0  0  0  0  0
   -1.2100   -1.4372    1.6491 C   0  0  0  0  0  0  0  0  0  0  0  0
   -0.1563   -0.6139    0.9177 C   0  0  0  0  0  0  0  0  0  0  0  0
    2.9304   -0.6860   -0.6397 N   0  0  0  0  0  0  0  0  0  0  0  0
    3.6190    0.1429   -1.4629 C   0  0  0  0  0  0  0  0  0  0  0  0
    3.1292    0.9788   -2.4367 C   0  0  0  0  0  0  0  0  0  0  0  0
    4.1427    1.6445   -3.0525 N   0  0  0  0  0  0  0  0  0  0  0  0
    5.2809    1.2488   -2.4821 N   0  0  0  0  0  0  0  0  0  0  0  0
    4.9669    0.3543   -1.5132 N   0  0  0  0  0  0  0  0  0  0  0  0
    6.0013   -0.2793   -0.7254 C   0  0  0  0  0  0  0  0  0  0  0  0
    6.1910    0.4164    0.5992 C   0  0  0  0  0  0  0  0  0  0  0  0
    5.5654   -0.0686    1.7594 C   0  0  0  0  0  0  0  0  0  0  0  0
    5.7351    0.5827    2.9852 C   0  0  0  0  0  0  0  0  0  0  0  0
    6.5273    1.7272    3.0627 C   0  0  0  0  0  0  0  0  0  0  0  0
    7.1380    2.2146    1.9142 C   0  0  0  0  0  0  0  0  0  0  0  0
    7.8950    3.3181    1.9882 F   0  0  0  0  0  0  0  0  0  0  0  0
    6.9765    1.5757    0.6884 C   0  0  0  0  0  0  0  0  0  0  0  0
    0.0251    0.1827   -1.9012 H   0  0  0  0  0  0  0  0  0  0  0  0
    1.3722   -2.0938    0.6786 H   0  0  0  0  0  0  0  0  0  0  0  0
    0.1255   -3.4968   -0.4830 H   0  0  0  0  0  0  0  0  0  0  0  0
    0.1906   -2.4472   -1.8814 H   0  0  0  0  0  0  0  0  0  0  0  0
   -2.1146   -3.0371   -1.2631 H   0  0  0  0  0  0  0  0  0  0  0  0
   -1.8828   -1.2869   -1.1400 H   0  0  0  0  0  0  0  0  0  0  0  0
   -4.3961   -0.2978    2.7027 H   0  0  0  0  0  0  0  0  0  0  0  0
   -5.5533    1.8063    2.0887 H   0  0  0  0  0  0  0  0  0  0  0  0
   -4.6437   -1.6160   -1.4088 H   0  0  0  0  0  0  0  0  0  0  0  0
   -6.6797    1.8505   -3.5521 H   0  0  0  0  0  0  0  0  0  0  0  0
   -5.2512    2.4408   -2.6785 H   0  0  0  0  0  0  0  0  0  0  0  0
   -7.9783    1.7798   -1.3807 H   0  0  0  0  0  0  0  0  0  0  0  0
   -7.3977    3.4140   -1.7549 H   0  0  0  0  0  0  0  0  0  0  0  0
   -0.7254   -2.0894    2.3873 H   0  0  0  0  0  0  0  0  0  0  0  0
   -1.8655   -0.7509    2.1968 H   0  0  0  0  0  0  0  0  0  0  0  0
   -0.6551    0.1665    0.3289 H   0  0  0  0  0  0  0  0  0  0  0  0
    0.4694   -0.0838    1.6461 H   0  0  0  0  0  0  0  0  0  0  0  0
    6.9320   -0.2683   -1.3055 H   0  0  0  0  0  0  0  0  0  0  0  0
    5.7246   -1.3305   -0.5862 H   0  0  0  0  0  0  0  0  0  0  0  0
    4.9352   -0.9572    1.7142 H   0  0  0  0  0  0  0  0  0  0  0  0
    5.2484    0.1979    3.8772 H   0  0  0  0  0  0  0  0  0  0  0  0
    6.6699    2.2434    4.0069 H   0  0  0  0  0  0  0  0  0  0  0  0
    7.4626    1.9959   -0.1890 H   0  0  0  0  0  0  0  0  0  0  0  0
  1  2  2  0
  2  3  1  0
  3  4  1  0
  4  5  1  0
  5  6  1  0
  6  7  1  0
  7  8  1  0
  8  9  1  0
  9 10  2  0
  9 11  2  0
  9 12  1  0
 12 13  2  0
 13 14  1  0
 14 15  2  0
 15 16  1  0
 16 17  2  0
 16 18  1  0
 18 19  1  0
 19 20  1  0
 20 21  1  0
  8 22  1  0
 22 23  1  0
  4 24  2  0
 24 25  1  0
 25 26  2  0
 26 27  1  0
 27 28  2  0
 28 29  1  0
 29 30  1  0
 30 31  1  0
 31 32  2  0
 32 33  1  0
 33 34  2  0
 34 35  1  0
 35 36  1  0
 35 37  2  0
 26  2  1  0
 37 31  1  0
 23  5  1  0
 29 25  1  0
 17 12  1  0
 21 15  1  0
  3 38  1  0
  5 39  1  0
  6 40  1  0
  6 41  1  0
  7 42  1  0
  7 43  1  0
 13 44  1  0
 14 45  1  0
 17 46  1  0
 19 47  1  0
 19 48  1  0
 20 49  1  0
 20 50  1  0
 22 51  1  0
 22 52  1  0
 23 53  1  0
 23 54  1  0
 30 55  1  0
 30 56  1  0
 32 57  1  0
 33 58  1  0
 34 59  1  0
 37 60  1  0
M  END
$$$$
