
     RDKit          3D

 50 52  0  0  0  0  0  0  0  0999 V2000
    1.7647   -2.9042   -0.7810 C   0  0  0  0  0  0  0  0  0  0  0  0
    1.3476   -1.4498   -0.9097 C   0  0  0  0  0  0  0  0  0  0  0  0
    2.1741   -0.5676   -0.0717 N   0  0  0  0  0  4  0  0  0  0  0  0
    1.8974   -0.3133    1.2013 C   0  0  0  0  0  0  0  0  0  0  0  0
    0.8269   -0.8236    1.9727 C   0  0  0  0  0  0  0  0  0  0  0  0
   -0.4441   -0.4094    1.8536 C   0  0  0  0  0  0  0  0  0  0  0  0
   -0.9432    0.6553    1.0088 C   0  0  0  0  0  0  0  0  0  0  0  0
   -2.1685    0.7576    0.4666 C   0  0  0  0  0  0  0  0  0  0  0  0
   -3.2056   -0.1837    0.4121 N   0  0  0  0  0  0  0  0  0  0  0  0
   -2.9329   -1.5671    0.4061 C   0  0  0  0  0  0  0  0  0  0  0  0
   -3.9996   -2.4728    0.9894 C   0  0  0  0  0  0  0  0  0  0  0  0
   -1.8716   -2.0652    0.0129 O   0  0  0  0  0  0  0  0  0  0  0  0
   -4.5378    0.2896    0.1103 C   0  0  0  0  0  0  0  0  0  0  0  0
   -5.0070    1.4845    0.6818 C   0  0  0  0  0  0  0  0  0  0  0  0
   -6.2879    1.9628    0.3932 C   0  0  0  0  0  0  0  0  0  0  0  0
   -7.1139    1.2610   -0.4798 C   0  0  0  0  0  0  0  0  0  0  0  0
   -6.6591    0.0843   -1.0684 C   0  0  0  0  0  0  0  0  0  0  0  0
   -5.3789   -0.3971   -0.7786 C   0  0  0  0  0  0  0  0  0  0  0  0
    3.0808    0.7129    1.8973 S   0  0  0  0  0  0  0  0  0  0  0  0
    3.9609    0.8151    0.4217 C   0  0  0  0  0  0  0  0  0  0  0  0
    5.1447    1.5306    0.1589 C   0  0  0  0  0  0  0  0  0  0  0  0
    5.6926    1.4499   -1.1230 C   0  0  0  0  0  0  0  0  0  0  0  0
    6.8306    2.0773   -1.5448 O   0  0  0  0  0  0  0  0  0  0  0  0
    7.5254    2.8853   -0.6005 C   0  0  0  0  0  0  0  0  0  0  0  0
    5.0717    0.6742   -2.1016 C   0  0  0  0  0  0  0  0  0  0  0  0
    3.8933   -0.0362   -1.8364 C   0  0  0  0  0  0  0  0  0  0  0  0
    3.3276    0.0445   -0.5502 C   0  0  0  0  0  0  0  0  0  0  0  0
    1.1451   -3.5367   -1.4238 H   0  0  0  0  0  0  0  0  0  0  0  0
    2.8112   -3.0382   -1.0724 H   0  0  0  0  0  0  0  0  0  0  0  0
    1.6585   -3.2556    0.2499 H   0  0  0  0  0  0  0  0  0  0  0  0
    0.2969   -1.3307   -0.6547 H   0  0  0  0  0  0  0  0  0  0  0  0
    1.4173   -1.1334   -1.9557 H   0  0  0  0  0  0  0  0  0  0  0  0
    1.0539   -1.6103    2.6901 H   0  0  0  0  0  0  0  0  0  0  0  0
   -1.1938   -0.9107    2.4681 H   0  0  0  0  0  0  0  0  0  0  0  0
   -0.2841    1.5150    0.8871 H   0  0  0  0  0  0  0  0  0  0  0  0
   -2.4143    1.7100   -0.0056 H   0  0  0  0  0  0  0  0  0  0  0  0
   -4.7200   -1.9257    1.6022 H   0  0  0  0  0  0  0  0  0  0  0  0
   -4.5124   -3.0113    0.1893 H   0  0  0  0  0  0  0  0  0  0  0  0
   -3.5102   -3.2005    1.6451 H   0  0  0  0  0  0  0  0  0  0  0  0
   -4.3983    2.0436    1.3883 H   0  0  0  0  0  0  0  0  0  0  0  0
   -6.6437    2.8813    0.8548 H   0  0  0  0  0  0  0  0  0  0  0  0
   -8.1107    1.6335   -0.7055 H   0  0  0  0  0  0  0  0  0  0  0  0
   -7.2992   -0.4551   -1.7632 H   0  0  0  0  0  0  0  0  0  0  0  0
   -5.0457   -1.2918   -1.2976 H   0  0  0  0  0  0  0  0  0  0  0  0
    5.6035    2.1187    0.9472 H   0  0  0  0  0  0  0  0  0  0  0  0
    6.9008    3.7182   -0.2613 H   0  0  0  0  0  0  0  0  0  0  0  0
    7.8785    2.2859    0.2450 H   0  0  0  0  0  0  0  0  0  0  0  0
    8.4021    3.3066   -1.1016 H   0  0  0  0  0  0  0  0  0  0  0  0
    5.5175    0.6202   -3.0956 H   0  0  0  0  0  0  0  0  0  0  0  0
    3.4589   -0.6281   -2.6367 H   0  0  0  0  0  0  0  0  0  0  0  0
  1  2  1  0
  2  3  1  0
  3  4  2  0
  4  5  1  0
  5  6  2  3
  6  7  1  0
  7  8  2  3
  8  9  1  0
  9 10  1  0
 10 11  1  0
 10 12  2  0
  9 13  1  0
 13 14  2  0
 14 15  1  0
 15 16  2  0
 16 17  1  0
 17 18  2  0
  4 19  1  0
 19 20  1  0
 20 21  2  0
 21 22  1  0
 22 23  1  0
 23 24  1  0
 22 25  2  0
 25 26  1  0
 26 27  2  0
 27  3  1  0
 18 13  1  0
 27 20  1  0
  1 28  1  0
  1 29  1  0
  1 30  1  0
  2 31  1  0
  2 32  1  0
  5 33  1  0
  6 34  1  0
  7 35  1  0
  8 36  1  0
 11 37  1  0
 11 38  1  0
 11 39  1  0
 14 40  1  0
 15 41  1  0
 16 42  1  0
 17 43  1  0
 18 44  1  0
 21 45  1  0
 24 46  1  0
 24 47  1  0
 24 48  1  0
 25 49  1  0
 26 50  1  0
M  CHG  1   3   1
M  END
$$$$
