
     RDKit          3D

 36 37  0  0  0  0  0  0  0  0999 V2000
   -3.2941   -2.5555    0.2790 C   0  0  0  0  0  0  0  0  0  0  0  0
   -3.6554   -1.3852    1.1738 C   0  0  0  0  0  0  0  0  0  0  0  0
   -3.2905   -0.1530    0.5360 O   0  0  0  0  0  0  0  0  0  0  0  0
   -2.0275    0.2777    0.7651 C   0  0  0  0  0  0  0  0  0  0  0  0
   -1.1973   -0.2567    1.4885 O   0  0  0  0  0  0  0  0  0  0  0  0
   -1.7364    1.5113   -0.0108 C   0  0  0  0  0  0  0  0  0  0  0  0
   -2.7759    2.3122   -0.5094 C   0  0  0  0  0  0  0  0  0  0  0  0
   -2.4862    3.4806   -1.2175 C   0  0  0  0  0  0  0  0  0  0  0  0
   -1.1623    3.8597   -1.4277 C   0  0  0  0  0  0  0  0  0  0  0  0
   -0.1218    3.0715   -0.9350 C   0  0  0  0  0  0  0  0  0  0  0  0
   -0.3997    1.9027   -0.2194 C   0  0  0  0  0  0  0  0  0  0  0  0
    0.7142    1.0876    0.2143 N   0  0  0  0  0  0  0  0  0  0  0  0
    1.3783    0.1255   -1.0434 S   0  0  0  0  0  6  0  0  0  0  0  0
    2.0198    0.9998   -2.0019 O   0  0  0  0  0  0  0  0  0  0  0  0
    0.3368   -0.8022   -1.4270 O   0  0  0  0  0  0  0  0  0  0  0  0
    2.6590   -0.7321   -0.1917 C   0  0  0  0  0  0  0  0  0  0  0  0
    3.4873   -0.0306    0.6946 C   0  0  0  0  0  0  0  0  0  0  0  0
    4.4896   -0.7110    1.3880 C   0  0  0  0  0  0  0  0  0  0  0  0
    4.6655   -2.0817    1.1949 C   0  0  0  0  0  0  0  0  0  0  0  0
    3.8389   -2.7727    0.3071 C   0  0  0  0  0  0  0  0  0  0  0  0
    2.8380   -2.0946   -0.3860 C   0  0  0  0  0  0  0  0  0  0  0  0
    2.0761   -2.7933   -1.2339 F   0  0  0  0  0  0  0  0  0  0  0  0
   -3.6138   -3.4998    0.7292 H   0  0  0  0  0  0  0  0  0  0  0  0
   -2.2149   -2.5984    0.1048 H   0  0  0  0  0  0  0  0  0  0  0  0
   -3.7694   -2.4500   -0.7013 H   0  0  0  0  0  0  0  0  0  0  0  0
   -3.1896   -1.4807    2.1611 H   0  0  0  0  0  0  0  0  0  0  0  0
   -4.7387   -1.3577    1.3295 H   0  0  0  0  0  0  0  0  0  0  0  0
   -3.8165    2.0382   -0.3511 H   0  0  0  0  0  0  0  0  0  0  0  0
   -3.2956    4.0977   -1.6032 H   0  0  0  0  0  0  0  0  0  0  0  0
   -0.9366    4.7653   -1.9862 H   0  0  0  0  0  0  0  0  0  0  0  0
    0.9082    3.3694   -1.1198 H   0  0  0  0  0  0  0  0  0  0  0  0
    0.4064    0.4399    0.9589 H   0  0  0  0  0  0  0  0  0  0  0  0
    3.3580    1.0396    0.8463 H   0  0  0  0  0  0  0  0  0  0  0  0
    5.1322   -0.1725    2.0820 H   0  0  0  0  0  0  0  0  0  0  0  0
    5.4464   -2.6112    1.7355 H   0  0  0  0  0  0  0  0  0  0  0  0
    3.9677   -3.8395    0.1490 H   0  0  0  0  0  0  0  0  0  0  0  0
  1  2  1  0
  2  3  1  0
  3  4  1  0
  4  5  2  0
  4  6  1  0
  6  7  2  0
  7  8  1  0
  8  9  2  0
  9 10  1  0
 10 11  2  0
 11 12  1  0
 12 13  1  0
 13 14  2  0
 13 15  2  0
 13 16  1  0
 16 17  2  0
 17 18  1  0
 18 19  2  0
 19 20  1  0
 20 21  2  0
 21 22  1  0
 11  6  1  0
 21 16  1  0
  1 23  1  0
  1 24  1  0
  1 25  1  0
  2 26  1  0
  2 27  1  0
  7 28  1  0
  8 29  1  0
  9 30  1  0
 10 31  1  0
 12 32  1  0
 17 33  1  0
 18 34  1  0
 19 35  1  0
 20 36  1  0
M  END
$$$$
