
     RDKit          3D

 61 63  0  0  0  0  0  0  0  0999 V2000
   -9.6248    0.5832   -2.7116 C   0  0  0  0  0  0  0  0  0  0  0  0
   -9.3011    1.1740   -1.4586 O   0  0  0  0  0  0  0  0  0  0  0  0
   -8.4021    0.5040   -0.6746 C   0  0  0  0  0  0  0  0  0  0  0  0
   -8.1609    1.0900    0.5705 C   0  0  0  0  0  0  0  0  0  0  0  0
   -7.2661    0.5093    1.4733 C   0  0  0  0  0  0  0  0  0  0  0  0
   -6.6004   -0.6770    1.1432 C   0  0  0  0  0  0  0  0  0  0  0  0
   -5.6188   -1.3034    2.0984 C   0  0  0  0  0  0  0  0  0  0  0  0
   -4.2876   -0.8052    1.8745 N   0  0  0  0  0  0  0  0  0  0  0  0
   -3.4074   -1.4179    1.0153 C   0  0  0  0  0  0  0  0  0  0  0  0
   -3.5702   -2.4897    0.4480 O   0  0  0  0  0  0  0  0  0  0  0  0
   -2.1124   -0.6075    0.7809 C   0  0  0  0  0  0  0  0  0  0  0  0
   -1.8941    0.4085    1.4240 O   0  0  0  0  0  0  0  0  0  0  0  0
   -1.2841   -1.1493   -0.1732 N   0  0  0  0  0  0  0  0  0  0  0  0
    0.0533   -0.6323   -0.4046 C   0  0  0  0  0  0  0  0  0  0  0  0
    1.0564   -1.0004    0.7103 C   0  0  0  0  0  0  0  0  0  0  0  0
    1.0677   -2.4417    0.8638 O   0  0  0  0  0  0  0  0  0  0  0  0
    2.3495   -2.9112    0.4421 C   0  0  0  0  0  0  0  0  0  0  0  0
    3.2819   -1.7509    0.6927 C   0  0  0  0  0  0  0  0  0  0  0  0
    2.4337   -0.6073    0.3296 N   0  0  0  0  0  0  0  0  0  0  0  0
    2.8955    0.9142    0.8959 S   0  0  0  0  0  6  0  0  0  0  0  0
    3.1449    0.8031    2.3166 O   0  0  0  0  0  0  0  0  0  0  0  0
    1.9716    1.8909    0.3652 O   0  0  0  0  0  0  0  0  0  0  0  0
    4.4495    1.1575    0.0716 C   0  0  0  0  0  0  0  0  0  0  0  0
    4.4516    1.4370   -1.2951 C   0  0  0  0  0  0  0  0  0  0  0  0
    5.6659    1.6229   -1.9567 C   0  0  0  0  0  0  0  0  0  0  0  0
    6.8742    1.5375   -1.2541 C   0  0  0  0  0  0  0  0  0  0  0  0
    8.1132    1.6980   -1.8236 O   0  0  0  0  0  0  0  0  0  0  0  0
    8.1680    2.0317   -3.2035 C   0  0  0  0  0  0  0  0  0  0  0  0
    6.8614    1.2702    0.1330 C   0  0  0  0  0  0  0  0  0  0  0  0
    8.0891    1.2019    0.7441 O   0  0  0  0  0  0  0  0  0  0  0  0
    8.1173    1.0943    2.1617 C   0  0  0  0  0  0  0  0  0  0  0  0
    5.6437    1.0820    0.7934 C   0  0  0  0  0  0  0  0  0  0  0  0
   -6.8331   -1.2534   -0.1135 C   0  0  0  0  0  0  0  0  0  0  0  0
   -7.7302   -0.6696   -1.0154 C   0  0  0  0  0  0  0  0  0  0  0  0
   -8.7480    0.5421   -3.3665 H   0  0  0  0  0  0  0  0  0  0  0  0
  -10.0677   -0.4097   -2.5785 H   0  0  0  0  0  0  0  0  0  0  0  0
  -10.3722    1.2188   -3.1969 H   0  0  0  0  0  0  0  0  0  0  0  0
   -8.6752    2.0097    0.8388 H   0  0  0  0  0  0  0  0  0  0  0  0
   -7.0959    0.9909    2.4337 H   0  0  0  0  0  0  0  0  0  0  0  0
   -5.6343   -2.3950    1.9989 H   0  0  0  0  0  0  0  0  0  0  0  0
   -5.8910   -1.0677    3.1332 H   0  0  0  0  0  0  0  0  0  0  0  0
   -4.0451    0.1355    2.1721 H   0  0  0  0  0  0  0  0  0  0  0  0
   -1.5149   -2.0925   -0.4753 H   0  0  0  0  0  0  0  0  0  0  0  0
   -0.0149    0.4536   -0.5185 H   0  0  0  0  0  0  0  0  0  0  0  0
    0.3795   -1.0539   -1.3615 H   0  0  0  0  0  0  0  0  0  0  0  0
    0.7548   -0.5851    1.6776 H   0  0  0  0  0  0  0  0  0  0  0  0
    2.2898   -3.1584   -0.6237 H   0  0  0  0  0  0  0  0  0  0  0  0
    2.6262   -3.8095    1.0006 H   0  0  0  0  0  0  0  0  0  0  0  0
    3.5570   -1.7141    1.7520 H   0  0  0  0  0  0  0  0  0  0  0  0
    4.1814   -1.8169    0.0764 H   0  0  0  0  0  0  0  0  0  0  0  0
    3.5165    1.5100   -1.8466 H   0  0  0  0  0  0  0  0  0  0  0  0
    5.6365    1.8340   -3.0203 H   0  0  0  0  0  0  0  0  0  0  0  0
    7.7523    1.2285   -3.8191 H   0  0  0  0  0  0  0  0  0  0  0  0
    7.6655    2.9838   -3.4005 H   0  0  0  0  0  0  0  0  0  0  0  0
    9.2206    2.1494   -3.4789 H   0  0  0  0  0  0  0  0  0  0  0  0
    9.1636    1.1367    2.4809 H   0  0  0  0  0  0  0  0  0  0  0  0
    7.5908    1.9311    2.6353 H   0  0  0  0  0  0  0  0  0  0  0  0
    7.7098    0.1321    2.4890 H   0  0  0  0  0  0  0  0  0  0  0  0
    5.6032    0.8730    1.8568 H   0  0  0  0  0  0  0  0  0  0  0  0
   -6.3088   -2.1644   -0.4002 H   0  0  0  0  0  0  0  0  0  0  0  0
   -7.8746   -1.1556   -1.9747 H   0  0  0  0  0  0  0  0  0  0  0  0
  1  2  1  0
  2  3  1  0
  3  4  2  0
  4  5  1  0
  5  6  2  0
  6  7  1  0
  7  8  1  0
  8  9  1  0
  9 10  2  0
  9 11  1  0
 11 12  2  0
 11 13  1  0
 13 14  1  0
 14 15  1  0
 15 16  1  0
 16 17  1  0
 17 18  1  0
 18 19  1  0
 19 20  1  0
 20 21  2  0
 20 22  2  0
 20 23  1  0
 23 24  2  0
 24 25  1  0
 25 26  2  0
 26 27  1  0
 27 28  1  0
 26 29  1  0
 29 30  1  0
 30 31  1  0
 29 32  2  0
  6 33  1  0
 33 34  2  0
 34  3  1  0
 19 15  1  0
 32 23  1  0
  1 35  1  0
  1 36  1  0
  1 37  1  0
  4 38  1  0
  5 39  1  0
  7 40  1  0
  7 41  1  0
  8 42  1  0
 13 43  1  0
 14 44  1  0
 14 45  1  0
 15 46  1  0
 17 47  1  0
 17 48  1  0
 18 49  1  0
 18 50  1  0
 24 51  1  0
 25 52  1  0
 28 53  1  0
 28 54  1  0
 28 55  1  0
 31 56  1  0
 31 57  1  0
 31 58  1  0
 32 59  1  0
 33 60  1  0
 34 61  1  0
M  END
$$$$
