
     RDKit          3D

 54 57  0  0  0  0  0  0  0  0999 V2000
   -5.5918    3.5035   -1.0904 C   0  0  0  0  0  0  0  0  0  0  0  0
   -4.3294    2.7068   -1.2369 C   0  0  0  0  0  0  0  0  0  0  0  0
   -3.1396    3.1380   -0.6545 C   0  0  0  0  0  0  0  0  0  0  0  0
   -1.9506    2.4005   -0.7959 C   0  0  0  0  0  0  0  0  0  0  0  0
   -0.7159    2.9178   -0.0999 C   0  0  0  0  0  0  0  0  0  0  0  0
   -1.9476    1.2015   -1.5505 C   0  0  0  0  0  0  0  0  0  0  0  0
   -0.7174    0.5064   -1.6632 N   0  0  0  0  0  0  0  0  0  0  0  0
   -0.5455   -0.8681   -1.6984 C   0  0  0  0  0  0  0  0  0  0  0  0
   -1.4039   -1.7168   -1.4752 O   0  0  0  0  0  0  0  0  0  0  0  0
    0.9056   -1.2663   -1.9682 C   0  0  0  0  0  0  0  0  0  0  0  0
    1.6495   -1.5054   -0.7327 N   0  0  0  0  0  0  0  0  0  0  0  0
    2.2383   -0.3996   -0.1311 C   0  0  0  0  0  0  0  0  0  0  0  0
    2.0042    0.7403   -0.5485 O   0  0  0  0  0  0  0  0  0  0  0  0
    3.0966   -0.6417    0.9281 N   0  0  0  0  0  0  0  0  0  0  0  0
    3.7928    0.4915    1.5210 C   0  0  0  0  0  0  0  0  0  0  0  0
    3.0128    1.0157    2.6769 C   0  0  0  0  0  0  0  0  0  0  0  0
    1.9765    1.9187    2.7930 C   0  0  0  0  0  0  0  0  0  0  0  0
    1.6668    1.9992    4.1716 C   0  0  0  0  0  0  0  0  0  0  0  0
    2.5406    1.1513    4.8095 C   0  0  0  0  0  0  0  0  0  0  0  0
    3.3643    0.5567    3.9109 O   0  0  0  0  0  0  0  0  0  0  0  0
    3.4037   -1.9023    1.4206 C   0  0  0  0  0  0  0  0  0  0  0  0
    4.2858   -2.1287    2.2451 O   0  0  0  0  0  0  0  0  0  0  0  0
    2.6234   -3.0282    0.8859 C   0  0  0  0  0  0  0  0  0  0  0  0
    2.7798   -4.3049    1.4482 C   0  0  0  0  0  0  0  0  0  0  0  0
    2.0534   -5.3800    0.9462 C   0  0  0  0  0  0  0  0  0  0  0  0
    1.1711   -5.1774   -0.1093 C   0  0  0  0  0  0  0  0  0  0  0  0
    1.0225   -3.9034   -0.6696 C   0  0  0  0  0  0  0  0  0  0  0  0
    1.7564   -2.8102   -0.1835 C   0  0  0  0  0  0  0  0  0  0  0  0
   -3.1301    0.8045   -2.2121 C   0  0  0  0  0  0  0  0  0  0  0  0
   -3.2283   -0.3556   -3.1667 C   0  0  0  0  0  0  0  0  0  0  0  0
   -4.3105    1.5515   -2.0197 C   0  0  0  0  0  0  0  0  0  0  0  0
   -6.4601    2.8382   -1.0041 H   0  0  0  0  0  0  0  0  0  0  0  0
   -5.7263    4.1560   -1.9598 H   0  0  0  0  0  0  0  0  0  0  0  0
   -5.5661    4.1239   -0.1862 H   0  0  0  0  0  0  0  0  0  0  0  0
   -3.1384    4.0577   -0.0750 H   0  0  0  0  0  0  0  0  0  0  0  0
   -0.3104    2.1402    0.5560 H   0  0  0  0  0  0  0  0  0  0  0  0
    0.0391    3.2186   -0.8356 H   0  0  0  0  0  0  0  0  0  0  0  0
   -0.9341    3.7887    0.5306 H   0  0  0  0  0  0  0  0  0  0  0  0
    0.1166    1.0047   -1.3581 H   0  0  0  0  0  0  0  0  0  0  0  0
    0.9302   -2.1362   -2.6336 H   0  0  0  0  0  0  0  0  0  0  0  0
    1.3971   -0.4678   -2.5399 H   0  0  0  0  0  0  0  0  0  0  0  0
    4.7957    0.1926    1.8486 H   0  0  0  0  0  0  0  0  0  0  0  0
    3.9283    1.2866    0.7775 H   0  0  0  0  0  0  0  0  0  0  0  0
    1.5077    2.4526    1.9799 H   0  0  0  0  0  0  0  0  0  0  0  0
    0.9056    2.6029    4.6438 H   0  0  0  0  0  0  0  0  0  0  0  0
    2.6995    0.8752    5.8410 H   0  0  0  0  0  0  0  0  0  0  0  0
    3.4657   -4.4594    2.2789 H   0  0  0  0  0  0  0  0  0  0  0  0
    2.1675   -6.3695    1.3812 H   0  0  0  0  0  0  0  0  0  0  0  0
    0.5856   -6.0097   -0.4954 H   0  0  0  0  0  0  0  0  0  0  0  0
    0.2941   -3.8003   -1.4693 H   0  0  0  0  0  0  0  0  0  0  0  0
   -3.5372   -1.2635   -2.6389 H   0  0  0  0  0  0  0  0  0  0  0  0
   -2.2891   -0.5273   -3.7012 H   0  0  0  0  0  0  0  0  0  0  0  0
   -3.9748   -0.1537   -3.9444 H   0  0  0  0  0  0  0  0  0  0  0  0
   -5.2297    1.2343   -2.5135 H   0  0  0  0  0  0  0  0  0  0  0  0
  1  2  1  0
  2  3  2  0
  3  4  1  0
  4  5  1  0
  4  6  2  0
  6  7  1  0
  7  8  1  0
  8  9  2  0
  8 10  1  0
 10 11  1  0
 11 12  1  0
 12 13  2  0
 12 14  1  0
 14 15  1  0
 15 16  1  0
 16 17  2  0
 17 18  1  0
 18 19  2  0
 19 20  1  0
 14 21  1  0
 21 22  2  0
 21 23  1  0
 23 24  2  0
 24 25  1  0
 25 26  2  0
 26 27  1  0
 27 28  2  0
  6 29  1  0
 29 30  1  0
 29 31  2  0
 31  2  1  0
 28 11  1  0
 20 16  1  0
 28 23  1  0
  1 32  1  0
  1 33  1  0
  1 34  1  0
  3 35  1  0
  5 36  1  0
  5 37  1  0
  5 38  1  0
  7 39  1  0
 10 40  1  0
 10 41  1  0
 15 42  1  0
 15 43  1  0
 17 44  1  0
 18 45  1  0
 19 46  1  0
 24 47  1  0
 25 48  1  0
 26 49  1  0
 27 50  1  0
 30 51  1  0
 30 52  1  0
 30 53  1  0
 31 54  1  0
M  END
$$$$
