
     RDKit          3D

 44 47  0  0  0  0  0  0  0  0999 V2000
   -1.2705   -0.9595   -1.8067 O   0  0  0  0  0  0  0  0  0  0  0  0
   -2.1045   -0.6758   -0.9585 C   0  0  0  0  0  0  0  0  0  0  0  0
   -2.6874   -1.5270   -0.0399 O   0  0  0  0  0  0  0  0  0  0  0  0
   -2.1994   -2.8369   -0.1022 C   0  0  0  0  0  0  0  0  0  0  0  0
   -2.8987   -3.7559   -0.8869 C   0  0  0  0  0  0  0  0  0  0  0  0
   -2.4797   -5.0832   -0.9190 C   0  0  0  0  0  0  0  0  0  0  0  0
   -1.3788   -5.4859   -0.1604 C   0  0  0  0  0  0  0  0  0  0  0  0
   -0.6944   -4.5639    0.6381 C   0  0  0  0  0  0  0  0  0  0  0  0
   -1.1012   -3.2266    0.6795 C   0  0  0  0  0  0  0  0  0  0  0  0
   -0.3625   -2.2832    1.5209 C   0  0  0  0  0  0  0  0  0  0  0  0
    0.5500   -1.4555    0.9914 C   0  0  0  0  0  0  0  0  0  0  0  0
    1.2812   -0.4742    1.8485 C   0  0  0  0  0  0  0  0  0  0  0  0
    1.0860   -0.4754    3.0621 O   0  0  0  0  0  0  0  0  0  0  0  0
    2.1947    0.4385    1.1875 C   0  0  0  0  0  0  0  0  0  0  0  0
    2.5722    0.6218   -0.1342 C   0  0  0  0  0  0  0  0  0  0  0  0
    3.5250    1.6749   -0.1570 C   0  0  0  0  0  0  0  0  0  0  0  0
    4.2848    2.3235   -1.1459 C   0  0  0  0  0  0  0  0  0  0  0  0
    5.1452    3.3614   -0.7584 C   0  0  0  0  0  0  0  0  0  0  0  0
    5.2507    3.7497    0.5788 C   0  0  0  0  0  0  0  0  0  0  0  0
    4.5071    3.1110    1.5773 C   0  0  0  0  0  0  0  0  0  0  0  0
    3.6636    2.0841    1.1613 C   0  0  0  0  0  0  0  0  0  0  0  0
    2.8664    1.3409    1.9727 O   0  0  0  0  0  0  0  0  0  0  0  0
   -2.6382    0.7007   -0.7747 C   0  0  0  0  0  0  0  0  0  0  0  0
   -2.2855    1.6757   -1.7190 C   0  0  0  0  0  0  0  0  0  0  0  0
   -2.7470    2.9864   -1.5863 C   0  0  0  0  0  0  0  0  0  0  0  0
   -3.5616    3.3309   -0.5091 C   0  0  0  0  0  0  0  0  0  0  0  0
   -3.9146    2.3690    0.4362 C   0  0  0  0  0  0  0  0  0  0  0  0
   -3.4557    1.0562    0.3069 C   0  0  0  0  0  0  0  0  0  0  0  0
   -3.7606   -3.4407   -1.4689 H   0  0  0  0  0  0  0  0  0  0  0  0
   -3.0118   -5.8056   -1.5333 H   0  0  0  0  0  0  0  0  0  0  0  0
   -1.0533   -6.5217   -0.1877 H   0  0  0  0  0  0  0  0  0  0  0  0
    0.1563   -4.8982    1.2263 H   0  0  0  0  0  0  0  0  0  0  0  0
   -0.5958   -2.2883    2.5823 H   0  0  0  0  0  0  0  0  0  0  0  0
    0.7646   -1.4715   -0.0674 H   0  0  0  0  0  0  0  0  0  0  0  0
    2.2162    0.0658   -0.9905 H   0  0  0  0  0  0  0  0  0  0  0  0
    4.2121    2.0296   -2.1880 H   0  0  0  0  0  0  0  0  0  0  0  0
    5.7382    3.8730   -1.5130 H   0  0  0  0  0  0  0  0  0  0  0  0
    5.9241    4.5595    0.8524 H   0  0  0  0  0  0  0  0  0  0  0  0
    4.5763    3.3956    2.6202 H   0  0  0  0  0  0  0  0  0  0  0  0
   -1.6461    1.4190   -2.5615 H   0  0  0  0  0  0  0  0  0  0  0  0
   -2.4661    3.7378   -2.3199 H   0  0  0  0  0  0  0  0  0  0  0  0
   -3.9185    4.3517   -0.4032 H   0  0  0  0  0  0  0  0  0  0  0  0
   -4.5433    2.6422    1.2792 H   0  0  0  0  0  0  0  0  0  0  0  0
   -3.7396    0.3300    1.0632 H   0  0  0  0  0  0  0  0  0  0  0  0
  1  2  2  0
  2  3  1  0
  3  4  1  0
  4  5  2  0
  5  6  1  0
  6  7  2  0
  7  8  1  0
  8  9  2  0
  9 10  1  0
 10 11  2  3
 11 12  1  0
 12 13  2  0
 12 14  1  0
 14 15  2  0
 15 16  1  0
 16 17  2  0
 17 18  1  0
 18 19  2  0
 19 20  1  0
 20 21  2  0
 21 22  1  0
  2 23  1  0
 23 24  2  0
 24 25  1  0
 25 26  2  0
 26 27  1  0
 27 28  2  0
  9  4  1  0
 22 14  1  0
 28 23  1  0
 21 16  1  0
  5 29  1  0
  6 30  1  0
  7 31  1  0
  8 32  1  0
 10 33  1  0
 11 34  1  0
 15 35  1  0
 17 36  1  0
 18 37  1  0
 19 38  1  0
 20 39  1  0
 24 40  1  0
 25 41  1  0
 26 42  1  0
 27 43  1  0
 28 44  1  0
M  END
$$$$
