
     RDKit          3D

 57 60  0  0  0  0  0  0  0  0999 V2000
   -0.2632    2.7034    4.0982 C   0  0  0  0  0  0  0  0  0  0  0  0
   -0.8889    1.5822    3.4785 O   0  0  0  0  0  0  0  0  0  0  0  0
   -0.0655    0.8383    2.6803 C   0  0  0  0  0  0  0  0  0  0  0  0
    1.2151    0.4569    3.0984 C   0  0  0  0  0  0  0  0  0  0  0  0
    2.0136   -0.3570    2.2882 C   0  0  0  0  0  0  0  0  0  0  0  0
    1.5311   -0.8059    1.0541 C   0  0  0  0  0  0  0  0  0  0  0  0
    2.3394   -1.6965    0.1817 C   0  0  0  0  0  0  0  0  0  0  0  0
    1.7831   -2.5484   -0.5003 O   0  0  0  0  0  0  0  0  0  0  0  0
    3.6992   -1.4724    0.1848 N   0  0  0  0  0  0  0  0  0  0  0  0
    4.5723   -2.1659   -0.7365 C   0  0  0  0  0  0  0  0  0  0  0  0
    4.8300   -1.3292   -1.9643 C   0  0  0  0  0  0  0  0  0  0  0  0
    3.8888   -1.3177   -3.0207 C   0  0  0  0  0  0  0  0  0  0  0  0
    4.0920   -0.5338   -4.1604 C   0  0  0  0  0  0  0  0  0  0  0  0
    5.2362    0.2299   -4.2151 C   0  0  0  0  0  0  0  0  0  0  0  0
    6.1531    0.2330   -3.1911 C   0  0  0  0  0  0  0  0  0  0  0  0
    5.9806   -0.5295   -2.0545 C   0  0  0  0  0  0  0  0  0  0  0  0
    7.2059    1.0572   -3.4399 O   0  0  0  0  0  0  0  0  0  0  0  0
    6.8463    1.5700   -4.7400 C   0  0  0  0  0  0  0  0  0  0  0  0
    5.5976    1.0494   -5.2379 O   0  0  0  0  0  0  0  0  0  0  0  0
    0.2444   -0.4515    0.6392 C   0  0  0  0  0  0  0  0  0  0  0  0
   -0.5497    0.3668    1.4548 C   0  0  0  0  0  0  0  0  0  0  0  0
   -2.1630    0.8426    0.8776 S   0  0  0  0  0  6  0  0  0  0  0  0
   -2.2687    2.2799    1.0225 O   0  0  0  0  0  0  0  0  0  0  0  0
   -2.3634    0.2277   -0.4189 O   0  0  0  0  0  0  0  0  0  0  0  0
   -3.2065    0.0796    1.9749 N   0  0  0  0  0  0  0  0  0  0  0  0
   -3.2380   -1.3924    1.9361 C   0  0  0  0  0  0  0  0  0  0  0  0
   -4.5270    0.7193    2.1658 C   0  0  0  0  0  0  0  0  0  0  0  0
   -5.5826    0.3887    1.1361 C   0  0  0  0  0  0  0  0  0  0  0  0
   -5.6182    1.0638   -0.0919 C   0  0  0  0  0  0  0  0  0  0  0  0
   -6.5879    0.7516   -1.0463 C   0  0  0  0  0  0  0  0  0  0  0  0
   -7.5341   -0.2365   -0.7839 C   0  0  0  0  0  0  0  0  0  0  0  0
   -7.5116   -0.9144    0.4331 C   0  0  0  0  0  0  0  0  0  0  0  0
   -6.5411   -0.6050    1.3881 C   0  0  0  0  0  0  0  0  0  0  0  0
    0.2622    2.3937    5.0072 H   0  0  0  0  0  0  0  0  0  0  0  0
   -1.0497    3.4062    4.3895 H   0  0  0  0  0  0  0  0  0  0  0  0
    0.4169    3.2239    3.4142 H   0  0  0  0  0  0  0  0  0  0  0  0
    1.5963    0.7581    4.0702 H   0  0  0  0  0  0  0  0  0  0  0  0
    2.9911   -0.6656    2.6501 H   0  0  0  0  0  0  0  0  0  0  0  0
    4.0472   -0.6093    0.5783 H   0  0  0  0  0  0  0  0  0  0  0  0
    5.5109   -2.3635   -0.2068 H   0  0  0  0  0  0  0  0  0  0  0  0
    4.1485   -3.1364   -1.0185 H   0  0  0  0  0  0  0  0  0  0  0  0
    2.9859   -1.9245   -2.9472 H   0  0  0  0  0  0  0  0  0  0  0  0
    3.3718   -0.5247   -4.9703 H   0  0  0  0  0  0  0  0  0  0  0  0
    6.7213   -0.5036   -1.2631 H   0  0  0  0  0  0  0  0  0  0  0  0
    7.6408    1.3142   -5.4502 H   0  0  0  0  0  0  0  0  0  0  0  0
    6.7704    2.6612   -4.6765 H   0  0  0  0  0  0  0  0  0  0  0  0
   -0.1296   -0.8131   -0.3178 H   0  0  0  0  0  0  0  0  0  0  0  0
   -2.2360   -1.8043    2.0843 H   0  0  0  0  0  0  0  0  0  0  0  0
   -3.6392   -1.7604    0.9876 H   0  0  0  0  0  0  0  0  0  0  0  0
   -3.8591   -1.7768    2.7515 H   0  0  0  0  0  0  0  0  0  0  0  0
   -4.8926    0.4296    3.1609 H   0  0  0  0  0  0  0  0  0  0  0  0
   -4.4193    1.8089    2.2383 H   0  0  0  0  0  0  0  0  0  0  0  0
   -4.8851    1.8360   -0.3179 H   0  0  0  0  0  0  0  0  0  0  0  0
   -6.5989    1.2780   -1.9972 H   0  0  0  0  0  0  0  0  0  0  0  0
   -8.2864   -0.4794   -1.5298 H   0  0  0  0  0  0  0  0  0  0  0  0
   -8.2490   -1.6862    0.6369 H   0  0  0  0  0  0  0  0  0  0  0  0
   -6.5378   -1.1460    2.3316 H   0  0  0  0  0  0  0  0  0  0  0  0
  1  2  1  0
  2  3  1  0
  3  4  2  0
  4  5  1  0
  5  6  2  0
  6  7  1  0
  7  8  2  0
  7  9  1  0
  9 10  1  0
 10 11  1  0
 11 12  2  0
 12 13  1  0
 13 14  2  0
 14 15  1  0
 15 16  2  0
 15 17  1  0
 17 18  1  0
 18 19  1  0
  6 20  1  0
 20 21  2  0
 21 22  1  0
 22 23  2  0
 22 24  2  0
 22 25  1  0
 25 26  1  0
 25 27  1  0
 27 28  1  0
 28 29  2  0
 29 30  1  0
 30 31  2  0
 31 32  1  0
 32 33  2  0
 21  3  1  0
 33 28  1  0
 16 11  1  0
 19 14  1  0
  1 34  1  0
  1 35  1  0
  1 36  1  0
  4 37  1  0
  5 38  1  0
  9 39  1  0
 10 40  1  0
 10 41  1  0
 12 42  1  0
 13 43  1  0
 16 44  1  0
 18 45  1  0
 18 46  1  0
 20 47  1  0
 26 48  1  0
 26 49  1  0
 26 50  1  0
 27 51  1  0
 27 52  1  0
 29 53  1  0
 30 54  1  0
 31 55  1  0
 32 56  1  0
 33 57  1  0
M  END
$$$$
