
     RDKit          3D

 51 54  0  0  0  0  0  0  0  0999 V2000
    7.9540   -2.3199   -2.1778 C   0  0  0  0  0  0  0  0  0  0  0  0
    6.6996   -1.8115   -1.5318 C   0  0  0  0  0  0  0  0  0  0  0  0
    5.9420   -0.8056   -2.1425 C   0  0  0  0  0  0  0  0  0  0  0  0
    4.7353   -0.3315   -1.5816 C   0  0  0  0  0  0  0  0  0  0  0  0
    3.9647    0.6685   -2.4001 C   0  0  0  0  0  0  0  0  0  0  0  0
    4.3124   -0.8473   -0.3427 C   0  0  0  0  0  0  0  0  0  0  0  0
    3.1542   -0.4243    0.3619 N   0  0  0  0  0  0  0  0  0  0  0  0
    2.6713    0.8702    0.4702 C   0  0  0  0  0  0  0  0  0  0  0  0
    3.1884    1.8764   -0.0060 O   0  0  0  0  0  0  0  0  0  0  0  0
    1.3927    0.9598    1.2866 C   0  0  0  0  0  0  0  0  0  0  0  0
   -0.0320    0.8530    0.1626 S   0  0  0  0  0  0  0  0  0  0  0  0
   -1.3253    0.9204    1.3061 C   0  0  0  0  0  0  0  0  0  0  0  0
   -1.1963    0.8330    2.6069 N   0  0  0  0  0  0  0  0  0  0  0  0
   -2.4460    0.9549    3.1563 N   0  0  0  0  0  0  0  0  0  0  0  0
   -3.3261    1.0867    2.1798 C   0  0  0  0  0  0  0  0  0  0  0  0
   -4.7591    1.2798    2.3710 C   0  0  0  0  0  0  0  0  0  0  0  0
   -5.6984    0.4163    1.8081 C   0  0  0  0  0  0  0  0  0  0  0  0
   -7.0416    0.6670    2.0332 C   0  0  0  0  0  0  0  0  0  0  0  0
   -7.4986    1.6956    2.7777 N   0  0  0  0  0  0  0  0  0  0  0  0
   -6.5714    2.4991    3.3396 C   0  0  0  0  0  0  0  0  0  0  0  0
   -5.2079    2.3327    3.1704 C   0  0  0  0  0  0  0  0  0  0  0  0
   -2.6453    1.0786    0.9765 N   0  0  0  0  0  0  0  0  0  0  0  0
   -3.1998    1.3448   -0.3378 C   0  0  0  0  0  0  0  0  0  0  0  0
   -3.6260    0.0948   -1.0175 C   0  0  0  0  0  0  0  0  0  0  0  0
   -2.9970   -1.0891   -1.3488 C   0  0  0  0  0  0  0  0  0  0  0  0
   -3.9623   -1.8864   -2.0106 C   0  0  0  0  0  0  0  0  0  0  0  0
   -5.1149   -1.1395   -2.0502 C   0  0  0  0  0  0  0  0  0  0  0  0
   -4.9209    0.0625   -1.4511 O   0  0  0  0  0  0  0  0  0  0  0  0
    5.0498   -1.9075    0.2311 C   0  0  0  0  0  0  0  0  0  0  0  0
    4.5339   -2.6508    1.7131 Cl  0  0  0  0  0  0  0  0  0  0  0  0
    6.2272   -2.3822   -0.3515 C   0  0  0  0  0  0  0  0  0  0  0  0
    8.4551   -1.5236   -2.7381 H   0  0  0  0  0  0  0  0  0  0  0  0
    7.7167   -3.1396   -2.8628 H   0  0  0  0  0  0  0  0  0  0  0  0
    8.6621   -2.6812   -1.4247 H   0  0  0  0  0  0  0  0  0  0  0  0
    6.2844   -0.3905   -3.0910 H   0  0  0  0  0  0  0  0  0  0  0  0
    4.3092    1.6849   -2.1904 H   0  0  0  0  0  0  0  0  0  0  0  0
    2.8871    0.5869   -2.2318 H   0  0  0  0  0  0  0  0  0  0  0  0
    4.1103    0.4805   -3.4706 H   0  0  0  0  0  0  0  0  0  0  0  0
    2.8802   -1.0535    1.1117 H   0  0  0  0  0  0  0  0  0  0  0  0
    1.3885    1.9150    1.8221 H   0  0  0  0  0  0  0  0  0  0  0  0
    1.3598    0.1547    2.0279 H   0  0  0  0  0  0  0  0  0  0  0  0
   -5.4054   -0.4465    1.2207 H   0  0  0  0  0  0  0  0  0  0  0  0
   -7.8088    0.0233    1.6119 H   0  0  0  0  0  0  0  0  0  0  0  0
   -6.9655    3.3058    3.9513 H   0  0  0  0  0  0  0  0  0  0  0  0
   -4.5104    3.0080    3.6562 H   0  0  0  0  0  0  0  0  0  0  0  0
   -4.0401    2.0371   -0.2153 H   0  0  0  0  0  0  0  0  0  0  0  0
   -2.4539    1.8731   -0.9396 H   0  0  0  0  0  0  0  0  0  0  0  0
   -1.9681   -1.3521   -1.1431 H   0  0  0  0  0  0  0  0  0  0  0  0
   -3.8322   -2.8807   -2.4150 H   0  0  0  0  0  0  0  0  0  0  0  0
   -6.1054   -1.3103   -2.4494 H   0  0  0  0  0  0  0  0  0  0  0  0
    6.7799   -3.1900    0.1222 H   0  0  0  0  0  0  0  0  0  0  0  0
  1  2  1  0
  2  3  2  0
  3  4  1  0
  4  5  1  0
  4  6  2  0
  6  7  1  0
  7  8  1  0
  8  9  2  0
  8 10  1  0
 10 11  1  0
 11 12  1  0
 12 13  2  0
 13 14  1  0
 14 15  2  0
 15 16  1  0
 16 17  2  0
 17 18  1  0
 18 19  2  0
 19 20  1  0
 20 21  2  0
 15 22  1  0
 22 23  1  0
 23 24  1  0
 24 25  2  0
 25 26  1  0
 26 27  2  0
 27 28  1  0
  6 29  1  0
 29 30  1  0
 29 31  2  0
 31  2  1  0
 22 12  1  0
 28 24  1  0
 21 16  1  0
  1 32  1  0
  1 33  1  0
  1 34  1  0
  3 35  1  0
  5 36  1  0
  5 37  1  0
  5 38  1  0
  7 39  1  0
 10 40  1  0
 10 41  1  0
 17 42  1  0
 18 43  1  0
 20 44  1  0
 21 45  1  0
 23 46  1  0
 23 47  1  0
 25 48  1  0
 26 49  1  0
 27 50  1  0
 31 51  1  0
M  END
$$$$
