
     RDKit          3D

 58 61  0  0  0  0  0  0  0  0999 V2000
    6.7700    1.6465    0.0164 C   0  0  0  0  0  0  0  0  0  0  0  0
    6.0284    0.3458   -0.1498 C   0  0  0  0  0  0  0  0  0  0  0  0
    6.7814   -0.8203   -0.3510 C   0  0  0  0  0  0  0  0  0  0  0  0
    6.1549   -2.0493   -0.5126 C   0  0  0  0  0  0  0  0  0  0  0  0
    4.7649   -2.1345   -0.4786 C   0  0  0  0  0  0  0  0  0  0  0  0
    3.9790   -0.9946   -0.2770 C   0  0  0  0  0  0  0  0  0  0  0  0
    2.5625   -1.0592   -0.2519 N   0  0  0  0  0  0  0  0  0  0  0  0
    1.7580   -2.1837   -0.3428 C   0  0  0  0  0  0  0  0  0  0  0  0
    2.1095   -3.3539   -0.4121 O   0  0  0  0  0  0  0  0  0  0  0  0
    0.3055   -1.8581   -0.3113 C   0  0  0  0  0  0  0  0  0  0  0  0
   -0.4733   -2.4606    0.7125 C   0  0  0  0  0  0  0  0  0  0  0  0
   -1.1100   -2.9264    1.5654 N   0  0  0  0  0  0  0  0  0  0  0  0
   -0.1737   -1.0225   -1.2525 C   0  0  0  0  0  0  0  0  0  0  0  0
   -1.5121   -0.5473   -1.3666 C   0  0  0  0  0  0  0  0  0  0  0  0
   -1.8204    0.7923   -1.3784 C   0  0  0  0  0  0  0  0  0  0  0  0
   -3.1878    0.9072   -1.4315 N   0  0  0  0  0  0  0  0  0  0  0  0
   -3.8926    2.1754   -1.3073 C   0  0  0  0  0  0  0  0  0  0  0  0
   -3.7990    2.7461    0.0968 C   0  0  0  0  0  0  0  0  0  0  0  0
   -3.5357    3.9319    0.2858 O   0  0  0  0  0  0  0  0  0  0  0  0
   -4.0862    1.8634    1.1177 N   0  0  0  0  0  0  0  0  0  0  0  0
   -3.7929    2.1873    2.4975 C   0  0  0  0  0  0  0  0  0  0  0  0
   -2.5071    1.5384    2.8662 C   0  0  0  0  0  0  0  0  0  0  0  0
   -2.1360    0.2259    3.0827 C   0  0  0  0  0  0  0  0  0  0  0  0
   -0.7599    0.2482    3.4157 C   0  0  0  0  0  0  0  0  0  0  0  0
   -0.3778    1.5682    3.3762 C   0  0  0  0  0  0  0  0  0  0  0  0
   -1.4292    2.3582    3.0406 O   0  0  0  0  0  0  0  0  0  0  0  0
   -3.7689   -0.3414   -1.5359 C   0  0  0  0  0  0  0  0  0  0  0  0
   -5.1151   -0.7310   -1.6417 C   0  0  0  0  0  0  0  0  0  0  0  0
   -5.4044   -2.0960   -1.7220 C   0  0  0  0  0  0  0  0  0  0  0  0
   -4.3891   -3.0446   -1.6991 C   0  0  0  0  0  0  0  0  0  0  0  0
   -3.0519   -2.6507   -1.5917 C   0  0  0  0  0  0  0  0  0  0  0  0
   -2.7281   -1.2794   -1.4989 C   0  0  0  0  0  0  0  0  0  0  0  0
    4.6130    0.2666   -0.1056 C   0  0  0  0  0  0  0  0  0  0  0  0
    3.7860    1.5134    0.1146 C   0  0  0  0  0  0  0  0  0  0  0  0
    6.4713    2.3582   -0.7600 H   0  0  0  0  0  0  0  0  0  0  0  0
    7.8534    1.5085   -0.0715 H   0  0  0  0  0  0  0  0  0  0  0  0
    6.5755    2.0709    1.0065 H   0  0  0  0  0  0  0  0  0  0  0  0
    7.8685   -0.7786   -0.3856 H   0  0  0  0  0  0  0  0  0  0  0  0
    6.7465   -2.9484   -0.6728 H   0  0  0  0  0  0  0  0  0  0  0  0
    4.3267   -3.1176   -0.6218 H   0  0  0  0  0  0  0  0  0  0  0  0
    2.0874   -0.1770   -0.1169 H   0  0  0  0  0  0  0  0  0  0  0  0
    0.5182   -0.6188   -1.9917 H   0  0  0  0  0  0  0  0  0  0  0  0
   -1.1937    1.6732   -1.3016 H   0  0  0  0  0  0  0  0  0  0  0  0
   -3.4262    2.8691   -2.0159 H   0  0  0  0  0  0  0  0  0  0  0  0
   -4.9421    2.0496   -1.5839 H   0  0  0  0  0  0  0  0  0  0  0  0
   -4.1635    0.8767    0.8985 H   0  0  0  0  0  0  0  0  0  0  0  0
   -4.6066    1.7837    3.1083 H   0  0  0  0  0  0  0  0  0  0  0  0
   -3.7510    3.2708    2.6456 H   0  0  0  0  0  0  0  0  0  0  0  0
   -2.7775   -0.6429    3.0115 H   0  0  0  0  0  0  0  0  0  0  0  0
   -0.1315   -0.5971    3.6592 H   0  0  0  0  0  0  0  0  0  0  0  0
    0.5535    2.0870    3.5584 H   0  0  0  0  0  0  0  0  0  0  0  0
   -5.9232   -0.0066   -1.6691 H   0  0  0  0  0  0  0  0  0  0  0  0
   -6.4394   -2.4208   -1.8077 H   0  0  0  0  0  0  0  0  0  0  0  0
   -4.6332   -4.1027   -1.7642 H   0  0  0  0  0  0  0  0  0  0  0  0
   -2.2735   -3.4084   -1.5788 H   0  0  0  0  0  0  0  0  0  0  0  0
    4.3859    2.4086    0.2917 H   0  0  0  0  0  0  0  0  0  0  0  0
    3.1669    1.7106   -0.7664 H   0  0  0  0  0  0  0  0  0  0  0  0
    3.1457    1.3907    0.9944 H   0  0  0  0  0  0  0  0  0  0  0  0
  1  2  1  0
  2  3  2  0
  3  4  1  0
  4  5  2  0
  5  6  1  0
  6  7  1  0
  7  8  1  0
  8  9  2  0
  8 10  1  0
 10 11  1  0
 11 12  3  0
 10 13  2  3
 13 14  1  0
 14 15  2  0
 15 16  1  0
 16 17  1  0
 17 18  1  0
 18 19  2  0
 18 20  1  0
 20 21  1  0
 21 22  1  0
 22 23  2  0
 23 24  1  0
 24 25  2  0
 25 26  1  0
 16 27  1  0
 27 28  2  0
 28 29  1  0
 29 30  2  0
 30 31  1  0
 31 32  2  0
  6 33  2  0
 33 34  1  0
 33  2  1  0
 32 14  1  0
 26 22  1  0
 32 27  1  0
  1 35  1  0
  1 36  1  0
  1 37  1  0
  3 38  1  0
  4 39  1  0
  5 40  1  0
  7 41  1  0
 13 42  1  0
 15 43  1  0
 17 44  1  0
 17 45  1  0
 20 46  1  0
 21 47  1  0
 21 48  1  0
 23 49  1  0
 24 50  1  0
 25 51  1  0
 28 52  1  0
 29 53  1  0
 30 54  1  0
 31 55  1  0
 34 56  1  0
 34 57  1  0
 34 58  1  0
M  END
$$$$
