
     RDKit          3D

 41 43  0  0  0  0  0  0  0  0999 V2000
   -5.1684   -0.1246    2.1150 C   0  0  0  0  0  0  0  0  0  0  0  0
   -4.1906   -0.1322    0.9776 C   0  0  0  0  0  0  0  0  0  0  0  0
   -4.2117    0.8766    0.0145 C   0  0  0  0  0  0  0  0  0  0  0  0
   -3.3324    0.8394   -1.0712 C   0  0  0  0  0  0  0  0  0  0  0  0
   -2.4043   -0.2054   -1.2295 C   0  0  0  0  0  0  0  0  0  0  0  0
   -1.5198   -0.1785   -2.4431 C   0  0  0  0  0  0  0  0  0  0  0  0
   -2.3813   -1.2185   -0.2543 C   0  0  0  0  0  0  0  0  0  0  0  0
   -1.2679   -2.6217   -0.2995 S   0  0  0  0  0  6  0  0  0  0  0  0
   -0.6006   -2.6922   -1.5797 O   0  0  0  0  0  0  0  0  0  0  0  0
   -2.0027   -3.7620    0.2117 O   0  0  0  0  0  0  0  0  0  0  0  0
   -0.1315   -2.2395    0.8970 N   0  0  0  0  0  0  0  0  0  0  0  0
    0.5853   -1.0151    0.8057 C   0  0  0  0  0  0  0  0  0  0  0  0
    0.2813    0.0178    1.6913 C   0  0  0  0  0  0  0  0  0  0  0  0
    0.9459    1.2376    1.5827 C   0  0  0  0  0  0  0  0  0  0  0  0
    1.9146    1.4173    0.5962 C   0  0  0  0  0  0  0  0  0  0  0  0
    2.5174    2.6451    0.5691 O   0  0  0  0  0  0  0  0  0  0  0  0
    2.2284    0.3890   -0.3044 C   0  0  0  0  0  0  0  0  0  0  0  0
    3.3743    0.5774   -1.6617 S   0  0  0  0  0  0  0  0  0  0  0  0
    4.8897    0.8123   -0.8411 C   0  0  0  0  0  0  0  0  0  0  0  0
    5.9326   -0.0671   -0.9123 N   0  0  0  0  0  0  0  0  0  0  0  0
    6.8590    0.5128   -0.1868 C   0  0  0  0  0  0  0  0  0  0  0  0
    6.3888    1.6951    0.2898 N   0  0  0  0  0  0  0  0  0  0  0  0
    5.1269    1.9175   -0.1208 N   0  0  0  0  0  0  0  0  0  0  0  0
    1.5477   -0.8311   -0.1890 C   0  0  0  0  0  0  0  0  0  0  0  0
   -3.2834   -1.1856    0.8280 C   0  0  0  0  0  0  0  0  0  0  0  0
   -5.4936    0.8951    2.3469 H   0  0  0  0  0  0  0  0  0  0  0  0
   -4.7121   -0.5352    3.0217 H   0  0  0  0  0  0  0  0  0  0  0  0
   -6.0469   -0.7231    1.8564 H   0  0  0  0  0  0  0  0  0  0  0  0
   -4.9209    1.6984    0.0931 H   0  0  0  0  0  0  0  0  0  0  0  0
   -3.3852    1.6409   -1.8068 H   0  0  0  0  0  0  0  0  0  0  0  0
   -0.4651   -0.2038   -2.1619 H   0  0  0  0  0  0  0  0  0  0  0  0
   -1.6625    0.7412   -3.0212 H   0  0  0  0  0  0  0  0  0  0  0  0
   -1.7590   -1.0133   -3.1081 H   0  0  0  0  0  0  0  0  0  0  0  0
   -0.4435   -2.5403    1.8184 H   0  0  0  0  0  0  0  0  0  0  0  0
   -0.4783   -0.1055    2.4578 H   0  0  0  0  0  0  0  0  0  0  0  0
    0.7103    2.0521    2.2624 H   0  0  0  0  0  0  0  0  0  0  0  0
    3.3758    2.5468    0.1017 H   0  0  0  0  0  0  0  0  0  0  0  0
    7.8522    0.1381    0.0173 H   0  0  0  0  0  0  0  0  0  0  0  0
    6.8535    2.3802    0.8751 H   0  0  0  0  0  0  0  0  0  0  0  0
    1.7622   -1.6425   -0.8824 H   0  0  0  0  0  0  0  0  0  0  0  0
   -3.2840   -1.9932    1.5591 H   0  0  0  0  0  0  0  0  0  0  0  0
  1  2  1  0
  2  3  2  0
  3  4  1  0
  4  5  2  0
  5  6  1  0
  5  7  1  0
  7  8  1  0
  8  9  2  0
  8 10  2  0
  8 11  1  0
 11 12  1  0
 12 13  2  0
 13 14  1  0
 14 15  2  0
 15 16  1  0
 15 17  1  0
 17 18  1  0
 18 19  1  0
 19 20  1  0
 20 21  2  0
 21 22  1  0
 22 23  1  0
 17 24  2  0
  7 25  2  0
 25  2  1  0
 24 12  1  0
 23 19  2  0
  1 26  1  0
  1 27  1  0
  1 28  1  0
  3 29  1  0
  4 30  1  0
  6 31  1  0
  6 32  1  0
  6 33  1  0
 11 34  1  0
 13 35  1  0
 14 36  1  0
 16 37  1  0
 21 38  1  0
 22 39  1  0
 24 40  1  0
 25 41  1  0
M  END
$$$$
