
     RDKit          3D

 26 27  0  0  0  0  0  0  0  0999 V2000
    0.9613   -2.1864   -1.0110 O   0  0  0  0  0  0  0  0  0  0  0  0
    1.4287   -1.1985   -0.4507 C   0  0  0  0  0  0  0  0  0  0  0  0
    2.9136   -1.1003   -0.1599 C   0  0  0  0  0  0  0  0  0  0  0  0
    3.2669    0.1771    0.5945 C   0  0  0  0  0  0  0  0  0  0  0  0
    2.7382    1.4058   -0.1380 C   0  0  0  0  0  0  0  0  0  0  0  0
    1.2529    1.3024   -0.4236 C   0  0  0  0  0  0  0  0  0  0  0  0
    0.6475    2.2276   -0.9588 O   0  0  0  0  0  0  0  0  0  0  0  0
    0.5996   -0.0038   -0.1038 C   0  0  0  0  0  0  0  0  0  0  0  0
   -0.5744   -0.0905    0.5596 C   0  0  0  0  0  0  0  0  0  0  0  0
   -1.4395    1.3272    1.1151 S   0  0  0  0  0  0  0  0  0  0  0  0
   -2.9826    1.1223    0.1764 C   0  0  0  0  0  0  0  0  0  0  0  0
   -3.4387   -0.3211   -0.0426 C   0  0  0  0  0  0  0  0  0  0  0  0
   -3.0334   -1.2838    1.0660 C   0  0  0  0  0  0  0  0  0  0  0  0
   -1.2466   -1.6310    1.0712 S   0  0  0  0  0  0  0  0  0  0  0  0
    3.2076   -1.9713    0.4349 H   0  0  0  0  0  0  0  0  0  0  0  0
    3.4467   -1.1295   -1.1168 H   0  0  0  0  0  0  0  0  0  0  0  0
    4.3540    0.2521    0.7090 H   0  0  0  0  0  0  0  0  0  0  0  0
    2.8398    0.1384    1.6050 H   0  0  0  0  0  0  0  0  0  0  0  0
    2.9116    2.2991    0.4710 H   0  0  0  0  0  0  0  0  0  0  0  0
    3.2580    1.5242   -1.0953 H   0  0  0  0  0  0  0  0  0  0  0  0
   -3.7575    1.6625    0.7314 H   0  0  0  0  0  0  0  0  0  0  0  0
   -2.8797    1.6264   -0.7907 H   0  0  0  0  0  0  0  0  0  0  0  0
   -4.5317   -0.3231   -0.1391 H   0  0  0  0  0  0  0  0  0  0  0  0
   -3.0608   -0.6833   -1.0082 H   0  0  0  0  0  0  0  0  0  0  0  0
   -3.5468   -2.2404    0.9234 H   0  0  0  0  0  0  0  0  0  0  0  0
   -3.3345   -0.9018    2.0477 H   0  0  0  0  0  0  0  0  0  0  0  0
  1  2  2  0
  2  3  1  0
  3  4  1  0
  4  5  1  0
  5  6  1  0
  6  7  2  0
  6  8  1  0
  8  9  2  3
  9 10  1  0
 10 11  1  0
 11 12  1  0
 12 13  1  0
 13 14  1  0
  8  2  1  0
 14  9  1  0
  3 15  1  0
  3 16  1  0
  4 17  1  0
  4 18  1  0
  5 19  1  0
  5 20  1  0
 11 21  1  0
 11 22  1  0
 12 23  1  0
 12 24  1  0
 13 25  1  0
 13 26  1  0
M  END
$$$$
