
     RDKit          3D

 41 43  0  0  0  0  0  0  0  0999 V2000
    7.9426    0.1201    2.1852 C   0  0  0  0  0  0  0  0  0  0  0  0
    6.6467    0.1619    1.8396 C   0  0  0  0  0  0  0  0  0  0  0  0
    6.1314    1.2792    1.0586 C   0  0  0  0  0  0  0  0  0  0  0  0
    4.8328    1.3235    0.7110 C   0  0  0  0  0  0  0  0  0  0  0  0
    3.8928    0.2507    1.1058 C   0  0  0  0  0  0  0  0  0  0  0  0
    2.5815    0.2885    0.7594 C   0  0  0  0  0  0  0  0  0  0  0  0
    1.6573   -0.6661    1.0891 N   0  0  0  0  0  0  0  0  0  0  0  0
    0.3631   -0.4996    0.6699 C   0  0  0  0  0  0  0  0  0  0  0  0
   -0.5314   -1.2920    0.9104 O   0  0  0  0  0  0  0  0  0  0  0  0
    0.2640    0.7722   -0.0960 C   0  0  0  0  0  0  0  0  0  0  0  0
   -0.8190    1.2971   -0.6883 C   0  0  0  0  0  0  0  0  0  0  0  0
   -2.1743    0.7376   -0.7020 C   0  0  0  0  0  0  0  0  0  0  0  0
   -2.9154    0.6012    0.4730 C   0  0  0  0  0  0  0  0  0  0  0  0
   -4.2210    0.1039    0.4326 C   0  0  0  0  0  0  0  0  0  0  0  0
   -4.8045   -0.2552   -0.7864 C   0  0  0  0  0  0  0  0  0  0  0  0
   -6.0800   -0.7458   -0.9210 O   0  0  0  0  0  0  0  0  0  0  0  0
   -6.8078   -1.0149    0.2683 C   0  0  0  0  0  0  0  0  0  0  0  0
   -4.0664   -0.1098   -1.9782 C   0  0  0  0  0  0  0  0  0  0  0  0
   -4.7124   -0.4725   -3.1353 O   0  0  0  0  0  0  0  0  0  0  0  0
   -3.9583   -0.4716   -4.3383 C   0  0  0  0  0  0  0  0  0  0  0  0
   -2.7588    0.3907   -1.9269 C   0  0  0  0  0  0  0  0  0  0  0  0
    1.8167    1.5555   -0.1711 S   0  0  0  0  0  0  0  0  0  0  0  0
    4.4446   -0.8712    1.8981 C   0  0  0  0  0  0  0  0  0  0  0  0
    5.7446   -0.9098    2.2426 C   0  0  0  0  0  0  0  0  0  0  0  0
    8.6366    0.9043    1.8987 H   0  0  0  0  0  0  0  0  0  0  0  0
    8.3544   -0.6992    2.7662 H   0  0  0  0  0  0  0  0  0  0  0  0
    6.8058    2.0755    0.7599 H   0  0  0  0  0  0  0  0  0  0  0  0
    4.4818    2.1692    0.1295 H   0  0  0  0  0  0  0  0  0  0  0  0
    1.8706   -1.4940    1.6217 H   0  0  0  0  0  0  0  0  0  0  0  0
   -0.7278    2.2299   -1.2422 H   0  0  0  0  0  0  0  0  0  0  0  0
   -2.4835    0.8713    1.4340 H   0  0  0  0  0  0  0  0  0  0  0  0
   -4.7537    0.0098    1.3725 H   0  0  0  0  0  0  0  0  0  0  0  0
   -6.2879   -1.7466    0.8957 H   0  0  0  0  0  0  0  0  0  0  0  0
   -7.7700   -1.4493   -0.0196 H   0  0  0  0  0  0  0  0  0  0  0  0
   -7.0129   -0.0925    0.8214 H   0  0  0  0  0  0  0  0  0  0  0  0
   -3.0931   -1.1391   -4.2663 H   0  0  0  0  0  0  0  0  0  0  0  0
   -4.6032   -0.8496   -5.1376 H   0  0  0  0  0  0  0  0  0  0  0  0
   -3.6541    0.5442   -4.6106 H   0  0  0  0  0  0  0  0  0  0  0  0
   -2.1745    0.5187   -2.8320 H   0  0  0  0  0  0  0  0  0  0  0  0
    3.8080   -1.6868    2.2168 H   0  0  0  0  0  0  0  0  0  0  0  0
    6.1344   -1.7396    2.8238 H   0  0  0  0  0  0  0  0  0  0  0  0
  1  2  2  0
  2  3  1  0
  3  4  2  0
  4  5  1  0
  5  6  2  3
  6  7  1  0
  7  8  1  0
  8  9  2  0
  8 10  1  0
 10 11  2  3
 11 12  1  0
 12 13  2  0
 13 14  1  0
 14 15  2  0
 15 16  1  0
 16 17  1  0
 15 18  1  0
 18 19  1  0
 19 20  1  0
 18 21  2  0
 10 22  1  0
  5 23  1  0
 23 24  2  0
 24  2  1  0
 22  6  1  0
 21 12  1  0
  1 25  1  0
  1 26  1  0
  3 27  1  0
  4 28  1  0
  7 29  1  0
 11 30  1  0
 13 31  1  0
 14 32  1  0
 17 33  1  0
 17 34  1  0
 17 35  1  0
 20 36  1  0
 20 37  1  0
 20 38  1  0
 21 39  1  0
 23 40  1  0
 24 41  1  0
M  END
$$$$
