
     RDKit          3D

 53 56  0  0  0  0  0  0  0  0999 V2000
    7.0555   -1.5548   -2.4917 C   0  0  0  0  0  0  0  0  0  0  0  0
    6.0909   -0.5230   -2.6608 O   0  0  0  0  0  0  0  0  0  0  0  0
    5.3099   -0.2276   -1.5784 C   0  0  0  0  0  0  0  0  0  0  0  0
    5.3775   -0.8338   -0.3251 C   0  0  0  0  0  0  0  0  0  0  0  0
    4.5126   -0.4345    0.7042 C   0  0  0  0  0  0  0  0  0  0  0  0
    3.5720    0.5726    0.4916 C   0  0  0  0  0  0  0  0  0  0  0  0
    2.6671    1.0291    1.4684 N   0  0  0  0  0  0  0  0  0  0  0  0
    2.4536    0.5171    2.7375 C   0  0  0  0  0  0  0  0  0  0  0  0
    3.0388   -0.4385    3.2416 O   0  0  0  0  0  0  0  0  0  0  0  0
    1.3747    1.2624    3.5125 C   0  0  0  0  0  0  0  0  0  0  0  0
   -0.2721    0.5854    3.1414 S   0  0  0  0  0  0  0  0  0  0  0  0
   -0.5269    1.1944    1.5357 C   0  0  0  0  0  0  0  0  0  0  0  0
    0.1408    2.2091    1.0335 N   0  0  0  0  0  0  0  0  0  0  0  0
   -0.1551    2.2907   -0.2937 N   0  0  0  0  0  0  0  0  0  0  0  0
   -1.0345    1.3468   -0.5831 C   0  0  0  0  0  0  0  0  0  0  0  0
   -1.7474    1.2453   -1.8941 C   0  0  0  0  0  0  0  0  0  0  0  0
   -3.1609    1.7528   -1.8164 C   0  0  0  0  0  0  0  0  0  0  0  0
   -3.5927    3.0338   -1.5265 C   0  0  0  0  0  0  0  0  0  0  0  0
   -5.0122    3.1441   -1.5395 C   0  0  0  0  0  0  0  0  0  0  0  0
   -5.6189    1.9467   -1.8441 C   0  0  0  0  0  0  0  0  0  0  0  0
   -4.4807    0.7036   -2.1242 S   0  0  0  0  0  0  0  0  0  0  0  0
   -1.2908    0.5848    0.5545 N   0  0  0  0  0  0  0  0  0  0  0  0
   -2.1312   -0.5507    0.6697 C   0  0  0  0  0  0  0  0  0  0  0  0
   -2.0690   -1.5698   -0.2866 C   0  0  0  0  0  0  0  0  0  0  0  0
   -2.9064   -2.6828   -0.1761 C   0  0  0  0  0  0  0  0  0  0  0  0
   -3.8019   -2.7964    0.8929 C   0  0  0  0  0  0  0  0  0  0  0  0
   -4.7242   -3.9757    0.9900 C   0  0  0  0  0  0  0  0  0  0  0  0
   -3.8624   -1.7704    1.8425 C   0  0  0  0  0  0  0  0  0  0  0  0
   -3.0265   -0.6557    1.7396 C   0  0  0  0  0  0  0  0  0  0  0  0
    3.5097    1.1814   -0.7660 C   0  0  0  0  0  0  0  0  0  0  0  0
    4.3716    0.7822   -1.7916 C   0  0  0  0  0  0  0  0  0  0  0  0
    7.5904   -1.6700   -3.4392 H   0  0  0  0  0  0  0  0  0  0  0  0
    7.7905   -1.2872   -1.7250 H   0  0  0  0  0  0  0  0  0  0  0  0
    6.5737   -2.5118   -2.2638 H   0  0  0  0  0  0  0  0  0  0  0  0
    6.0914   -1.6205   -0.1060 H   0  0  0  0  0  0  0  0  0  0  0  0
    4.6049   -0.9329    1.6642 H   0  0  0  0  0  0  0  0  0  0  0  0
    2.0225    1.7587    1.1604 H   0  0  0  0  0  0  0  0  0  0  0  0
    1.4230    2.3380    3.3144 H   0  0  0  0  0  0  0  0  0  0  0  0
    1.5723    1.1285    4.5812 H   0  0  0  0  0  0  0  0  0  0  0  0
   -1.6978    0.2321   -2.3007 H   0  0  0  0  0  0  0  0  0  0  0  0
   -1.2109    1.8681   -2.6232 H   0  0  0  0  0  0  0  0  0  0  0  0
   -2.9173    3.8542   -1.3089 H   0  0  0  0  0  0  0  0  0  0  0  0
   -5.5605    4.0551   -1.3345 H   0  0  0  0  0  0  0  0  0  0  0  0
   -6.6782    1.7417   -1.9208 H   0  0  0  0  0  0  0  0  0  0  0  0
   -1.3493   -1.5497   -1.1003 H   0  0  0  0  0  0  0  0  0  0  0  0
   -2.8476   -3.4686   -0.9264 H   0  0  0  0  0  0  0  0  0  0  0  0
   -4.9484   -4.2105    2.0360 H   0  0  0  0  0  0  0  0  0  0  0  0
   -5.6607   -3.7618    0.4660 H   0  0  0  0  0  0  0  0  0  0  0  0
   -4.2671   -4.8673    0.5481 H   0  0  0  0  0  0  0  0  0  0  0  0
   -4.5666   -1.8309    2.6699 H   0  0  0  0  0  0  0  0  0  0  0  0
   -3.1241    0.1316    2.4834 H   0  0  0  0  0  0  0  0  0  0  0  0
    2.7882    1.9699   -0.9678 H   0  0  0  0  0  0  0  0  0  0  0  0
    4.3105    1.2647   -2.7641 H   0  0  0  0  0  0  0  0  0  0  0  0
  1  2  1  0
  2  3  1  0
  3  4  2  0
  4  5  1  0
  5  6  2  0
  6  7  1  0
  7  8  1  0
  8  9  2  0
  8 10  1  0
 10 11  1  0
 11 12  1  0
 12 13  2  0
 13 14  1  0
 14 15  2  0
 15 16  1  0
 16 17  1  0
 17 18  2  0
 18 19  1  0
 19 20  2  0
 20 21  1  0
 15 22  1  0
 22 23  1  0
 23 24  2  0
 24 25  1  0
 25 26  2  0
 26 27  1  0
 26 28  1  0
 28 29  2  0
  6 30  1  0
 30 31  2  0
 31  3  1  0
 22 12  1  0
 29 23  1  0
 21 17  1  0
  1 32  1  0
  1 33  1  0
  1 34  1  0
  4 35  1  0
  5 36  1  0
  7 37  1  0
 10 38  1  0
 10 39  1  0
 16 40  1  0
 16 41  1  0
 18 42  1  0
 19 43  1  0
 20 44  1  0
 24 45  1  0
 25 46  1  0
 27 47  1  0
 27 48  1  0
 27 49  1  0
 28 50  1  0
 29 51  1  0
 30 52  1  0
 31 53  1  0
M  END
$$$$
