
     RDKit          3D

 65 66  0  0  0  0  0  0  0  0999 V2000
   -3.5406    5.8855    1.3862 C   0  0  0  0  0  0  0  0  0  0  0  0
   -3.7963    4.7368    2.1849 O   0  0  0  0  0  0  0  0  0  0  0  0
   -3.1643    3.5799    1.8239 C   0  0  0  0  0  0  0  0  0  0  0  0
   -2.3735    3.3943    0.6920 C   0  0  0  0  0  0  0  0  0  0  0  0
   -1.7853    2.1485    0.4343 C   0  0  0  0  0  0  0  0  0  0  0  0
   -1.9769    1.0636    1.3018 C   0  0  0  0  0  0  0  0  0  0  0  0
   -1.3858   -0.3280    1.0556 C   0  0  0  0  0  0  0  0  0  0  0  0
   -2.4161   -1.4368    0.6963 C   0  0  0  0  0  0  0  0  0  0  0  0
   -2.0833   -2.6247    0.7171 O   0  0  0  0  0  0  0  0  0  0  0  0
   -3.6626   -1.0217    0.2686 N   0  0  0  0  0  0  0  0  0  0  0  0
   -4.7946   -1.9111   -0.0396 C   0  0  0  0  0  0  0  0  0  0  0  0
   -5.1974   -2.7273    1.1982 C   0  0  0  0  0  0  0  0  0  0  0  0
   -5.9891   -1.0308   -0.4527 C   0  0  0  0  0  0  0  0  0  0  0  0
   -4.4657   -2.8504   -1.2100 C   0  0  0  0  0  0  0  0  0  0  0  0
   -0.2240   -0.3332    0.1371 N   0  0  0  0  0  0  0  0  0  0  0  0
   -0.4499   -0.5057   -1.3109 C   0  0  0  0  0  0  0  0  0  0  0  0
   -0.4903   -1.9621   -1.8031 C   0  0  0  0  0  0  0  0  0  0  0  0
    0.2867   -2.8320   -0.9914 O   0  0  0  0  0  0  0  0  0  0  0  0
    1.0462   -0.2914    0.7110 C   0  0  0  0  0  0  0  0  0  0  0  0
    1.2104   -0.2403    1.9315 O   0  0  0  0  0  0  0  0  0  0  0  0
    2.2412   -0.2499   -0.2269 C   0  0  0  0  0  0  0  0  0  0  0  0
    3.5560   -0.3451    0.5405 C   0  0  0  0  0  0  0  0  0  0  0  0
    4.7552   -0.2083   -0.3757 C   0  0  0  0  0  0  0  0  0  0  0  0
    4.6477    0.0677   -1.5661 O   0  0  0  0  0  0  0  0  0  0  0  0
    5.9371   -0.4095    0.3009 N   0  0  0  0  0  0  0  0  0  0  0  0
    7.1953   -0.3408   -0.2536 C   0  0  0  0  0  0  0  0  0  0  0  0
    7.5785   -0.0596   -1.5830 C   0  0  0  0  0  0  0  0  0  0  0  0
    8.9494   -0.1210   -1.5682 C   0  0  0  0  0  0  0  0  0  0  0  0
    9.9999    0.0611   -2.5832 C   0  0  0  0  0  0  0  0  0  0  0  0
    9.3666   -0.4220   -0.3109 O   0  0  0  0  0  0  0  0  0  0  0  0
    8.2675   -0.5594    0.5160 N   0  0  0  0  0  0  0  0  0  0  0  0
   -2.7681    1.2695    2.4464 C   0  0  0  0  0  0  0  0  0  0  0  0
   -3.3579    2.5107    2.6976 C   0  0  0  0  0  0  0  0  0  0  0  0
   -3.9197    5.7486    0.3682 H   0  0  0  0  0  0  0  0  0  0  0  0
   -2.4745    6.1357    1.3814 H   0  0  0  0  0  0  0  0  0  0  0  0
   -4.0785    6.7283    1.8309 H   0  0  0  0  0  0  0  0  0  0  0  0
   -2.1864    4.1999   -0.0110 H   0  0  0  0  0  0  0  0  0  0  0  0
   -1.1624    2.0558   -0.4508 H   0  0  0  0  0  0  0  0  0  0  0  0
   -1.0213   -0.6462    2.0429 H   0  0  0  0  0  0  0  0  0  0  0  0
   -3.8780   -0.0332    0.3460 H   0  0  0  0  0  0  0  0  0  0  0  0
   -5.4108   -2.0712    2.0501 H   0  0  0  0  0  0  0  0  0  0  0  0
   -6.0932   -3.3271    1.0016 H   0  0  0  0  0  0  0  0  0  0  0  0
   -4.4046   -3.4157    1.5089 H   0  0  0  0  0  0  0  0  0  0  0  0
   -6.2662   -0.3384    0.3509 H   0  0  0  0  0  0  0  0  0  0  0  0
   -5.7455   -0.4251   -1.3335 H   0  0  0  0  0  0  0  0  0  0  0  0
   -6.8699   -1.6367   -0.6930 H   0  0  0  0  0  0  0  0  0  0  0  0
   -3.6714   -3.5599   -0.9590 H   0  0  0  0  0  0  0  0  0  0  0  0
   -4.1337   -2.2826   -2.0868 H   0  0  0  0  0  0  0  0  0  0  0  0
   -5.3429   -3.4388   -1.5027 H   0  0  0  0  0  0  0  0  0  0  0  0
   -1.3736    0.0066   -1.6022 H   0  0  0  0  0  0  0  0  0  0  0  0
    0.3497    0.0136   -1.8482 H   0  0  0  0  0  0  0  0  0  0  0  0
   -1.5162   -2.3395   -1.8308 H   0  0  0  0  0  0  0  0  0  0  0  0
   -0.1115   -2.0150   -2.8288 H   0  0  0  0  0  0  0  0  0  0  0  0
   -0.2507   -2.9923   -0.1856 H   0  0  0  0  0  0  0  0  0  0  0  0
    2.2050    0.6974   -0.7781 H   0  0  0  0  0  0  0  0  0  0  0  0
    2.1886   -1.0742   -0.9438 H   0  0  0  0  0  0  0  0  0  0  0  0
    3.6174    0.4502    1.2937 H   0  0  0  0  0  0  0  0  0  0  0  0
    3.6150   -1.3093    1.0600 H   0  0  0  0  0  0  0  0  0  0  0  0
    5.9344   -0.6307    1.2881 H   0  0  0  0  0  0  0  0  0  0  0  0
    6.9501    0.1574   -2.4334 H   0  0  0  0  0  0  0  0  0  0  0  0
   10.5501   -0.8724   -2.7362 H   0  0  0  0  0  0  0  0  0  0  0  0
    9.5706    0.3650   -3.5429 H   0  0  0  0  0  0  0  0  0  0  0  0
   10.7090    0.8329   -2.2691 H   0  0  0  0  0  0  0  0  0  0  0  0
   -2.9300    0.4617    3.1589 H   0  0  0  0  0  0  0  0  0  0  0  0
   -3.9647    2.6483    3.5897 H   0  0  0  0  0  0  0  0  0  0  0  0
  1  2  1  0
  2  3  1  0
  3  4  2  0
  4  5  1  0
  5  6  2  0
  6  7  1  0
  7  8  1  0
  8  9  2  0
  8 10  1  0
 10 11  1  0
 11 12  1  0
 11 13  1  0
 11 14  1  0
  7 15  1  0
 15 16  1  0
 16 17  1  0
 17 18  1  0
 15 19  1  0
 19 20  2  0
 19 21  1  0
 21 22  1  0
 22 23  1  0
 23 24  2  0
 23 25  1  0
 25 26  1  0
 26 27  1  0
 27 28  2  0
 28 29  1  0
 28 30  1  0
 30 31  1  0
  6 32  1  0
 32 33  2  0
 33  3  1  0
 31 26  2  0
  1 34  1  0
  1 35  1  0
  1 36  1  0
  4 37  1  0
  5 38  1  0
  7 39  1  0
 10 40  1  0
 12 41  1  0
 12 42  1  0
 12 43  1  0
 13 44  1  0
 13 45  1  0
 13 46  1  0
 14 47  1  0
 14 48  1  0
 14 49  1  0
 16 50  1  0
 16 51  1  0
 17 52  1  0
 17 53  1  0
 18 54  1  0
 21 55  1  0
 21 56  1  0
 22 57  1  0
 22 58  1  0
 25 59  1  0
 27 60  1  0
 29 61  1  0
 29 62  1  0
 29 63  1  0
 32 64  1  0
 33 65  1  0
M  END
$$$$
