
     RDKit          3D

 57 59  0  0  0  0  0  0  0  0999 V2000
   -1.3714   -3.6834    0.1078 C   0  0  0  0  0  0  0  0  0  0  0  0
   -0.9874   -2.6402    1.0446 N   0  0  0  0  0  0  0  0  0  0  0  0
   -1.4692   -1.3612    0.9107 C   0  0  0  0  0  0  0  0  0  0  0  0
   -2.2568   -0.7419    2.2541 S   0  0  0  0  0  0  0  0  0  0  0  0
   -1.1904   -0.6935   -0.2809 N   0  0  0  0  0  0  0  0  0  0  0  0
   -1.8509    0.5849   -0.6417 C   0  0  0  0  0  0  0  0  0  0  0  0
   -2.6939    0.5096   -1.9253 C   0  0  0  0  0  0  0  0  0  0  0  0
   -3.9997   -0.2212   -1.7212 C   0  0  0  0  0  0  0  0  0  0  0  0
   -4.1249   -1.5776   -2.0416 C   0  0  0  0  0  0  0  0  0  0  0  0
   -5.3276   -2.2480   -1.8060 C   0  0  0  0  0  0  0  0  0  0  0  0
   -6.4167   -1.5696   -1.2565 C   0  0  0  0  0  0  0  0  0  0  0  0
   -6.3108   -0.2140   -0.9286 C   0  0  0  0  0  0  0  0  0  0  0  0
   -7.4659    0.5311   -0.3280 C   0  0  0  0  0  0  0  0  0  0  0  0
   -5.0991    0.4497   -1.1621 C   0  0  0  0  0  0  0  0  0  0  0  0
   -0.0206   -1.0536   -1.1083 C   0  0  0  0  0  0  0  0  0  0  0  0
    1.1698   -0.2086   -0.7477 C   0  0  0  0  0  0  0  0  0  0  0  0
    1.8904   -0.3880    0.3747 C   0  0  0  0  0  0  0  0  0  0  0  0
    3.0610    0.4406    0.6616 C   0  0  0  0  0  0  0  0  0  0  0  0
    3.8039    0.2715    1.8323 C   0  0  0  0  0  0  0  0  0  0  0  0
    4.9314    1.0703    2.0703 C   0  0  0  0  0  0  0  0  0  0  0  0
    5.6922    0.9745    3.2109 O   0  0  0  0  0  0  0  0  0  0  0  0
    5.7939   -0.3237    3.7841 C   0  0  0  0  0  0  0  0  0  0  0  0
    5.3004    2.0706    1.1452 C   0  0  0  0  0  0  0  0  0  0  0  0
    6.4085    2.8139    1.4724 O   0  0  0  0  0  0  0  0  0  0  0  0
    6.7764    3.8638    0.5898 C   0  0  0  0  0  0  0  0  0  0  0  0
    4.5539    2.2318   -0.0281 C   0  0  0  0  0  0  0  0  0  0  0  0
    3.4444    1.4166   -0.2611 C   0  0  0  0  0  0  0  0  0  0  0  0
    2.6923    1.5786   -1.4308 N   0  0  0  0  0  0  0  0  0  0  0  0
    1.5756    0.8413   -1.7295 C   0  0  0  0  0  0  0  0  0  0  0  0
    0.9397    1.0480   -2.7607 O   0  0  0  0  0  0  0  0  0  0  0  0
   -2.1239   -4.3148    0.5912 H   0  0  0  0  0  0  0  0  0  0  0  0
   -1.8148   -3.2788   -0.8070 H   0  0  0  0  0  0  0  0  0  0  0  0
   -0.4899   -4.2914   -0.1235 H   0  0  0  0  0  0  0  0  0  0  0  0
   -1.1040   -2.9534    2.0022 H   0  0  0  0  0  0  0  0  0  0  0  0
   -2.4869    0.9492    0.1699 H   0  0  0  0  0  0  0  0  0  0  0  0
   -1.0698    1.3425   -0.7599 H   0  0  0  0  0  0  0  0  0  0  0  0
   -2.1368    0.0522   -2.7513 H   0  0  0  0  0  0  0  0  0  0  0  0
   -2.9233    1.5308   -2.2578 H   0  0  0  0  0  0  0  0  0  0  0  0
   -3.2863   -2.1184   -2.4703 H   0  0  0  0  0  0  0  0  0  0  0  0
   -5.4200   -3.3016   -2.0568 H   0  0  0  0  0  0  0  0  0  0  0  0
   -7.3460   -2.1080   -1.0886 H   0  0  0  0  0  0  0  0  0  0  0  0
   -7.1822    0.9567    0.6402 H   0  0  0  0  0  0  0  0  0  0  0  0
   -7.7822    1.3366   -0.9991 H   0  0  0  0  0  0  0  0  0  0  0  0
   -8.3258   -0.1270   -0.1636 H   0  0  0  0  0  0  0  0  0  0  0  0
   -5.0056    1.4978   -0.8853 H   0  0  0  0  0  0  0  0  0  0  0  0
   -0.2931   -0.9726   -2.1648 H   0  0  0  0  0  0  0  0  0  0  0  0
    0.2657   -2.0992   -0.9644 H   0  0  0  0  0  0  0  0  0  0  0  0
    1.6144   -1.1466    1.0989 H   0  0  0  0  0  0  0  0  0  0  0  0
    3.4871   -0.4637    2.5625 H   0  0  0  0  0  0  0  0  0  0  0  0
    4.8937   -0.5661    4.3584 H   0  0  0  0  0  0  0  0  0  0  0  0
    5.9937   -1.0879    3.0230 H   0  0  0  0  0  0  0  0  0  0  0  0
    6.6373   -0.3197    4.4820 H   0  0  0  0  0  0  0  0  0  0  0  0
    7.0504    3.4726   -0.3957 H   0  0  0  0  0  0  0  0  0  0  0  0
    5.9813    4.6133    0.5111 H   0  0  0  0  0  0  0  0  0  0  0  0
    7.6578    4.3584    1.0079 H   0  0  0  0  0  0  0  0  0  0  0  0
    4.8189    2.9780   -0.7676 H   0  0  0  0  0  0  0  0  0  0  0  0
    2.9414    2.2888   -2.1060 H   0  0  0  0  0  0  0  0  0  0  0  0
  1  2  1  0
  2  3  1  0
  3  4  2  0
  3  5  1  0
  5  6  1  0
  6  7  1  0
  7  8  1  0
  8  9  2  0
  9 10  1  0
 10 11  2  0
 11 12  1  0
 12 13  1  0
 12 14  2  0
  5 15  1  0
 15 16  1  0
 16 17  2  0
 17 18  1  0
 18 19  2  0
 19 20  1  0
 20 21  1  0
 21 22  1  0
 20 23  2  0
 23 24  1  0
 24 25  1  0
 23 26  1  0
 26 27  2  0
 27 28  1  0
 28 29  1  0
 29 30  2  0
 14  8  1  0
 29 16  1  0
 27 18  1  0
  1 31  1  0
  1 32  1  0
  1 33  1  0
  2 34  1  0
  6 35  1  0
  6 36  1  0
  7 37  1  0
  7 38  1  0
  9 39  1  0
 10 40  1  0
 11 41  1  0
 13 42  1  0
 13 43  1  0
 13 44  1  0
 14 45  1  0
 15 46  1  0
 15 47  1  0
 17 48  1  0
 19 49  1  0
 22 50  1  0
 22 51  1  0
 22 52  1  0
 25 53  1  0
 25 54  1  0
 25 55  1  0
 26 56  1  0
 28 57  1  0
M  END
$$$$
