
     RDKit          3D

 28 30  0  0  0  0  0  0  0  0999 V2000
    0.3072    1.7486   -1.9166 N   0  0  0  0  0  0  0  0  0  0  0  0
    0.3020    2.1568   -0.6118 C   0  0  0  0  0  0  0  0  0  0  0  0
    0.4417    3.3466   -0.3353 O   0  0  0  0  0  0  0  0  0  0  0  0
    0.1165    1.0694    0.4556 C   0  0  0  0  0  0  0  0  0  0  0  0
   -1.2305    0.3965    0.3212 C   0  0  0  0  0  0  0  0  0  0  0  0
   -2.4167    1.1107    0.5557 C   0  0  0  0  0  0  0  0  0  0  0  0
   -3.6569    0.4902    0.4009 C   0  0  0  0  0  0  0  0  0  0  0  0
   -3.7243   -0.8455    0.0099 C   0  0  0  0  0  0  0  0  0  0  0  0
   -2.5506   -1.5619   -0.2223 C   0  0  0  0  0  0  0  0  0  0  0  0
   -1.3086   -0.9444   -0.0615 C   0  0  0  0  0  0  0  0  0  0  0  0
   -0.2070   -1.7275   -0.3068 O   0  0  0  0  0  0  0  0  0  0  0  0
    1.0303   -1.2429    0.0411 C   0  0  0  0  0  0  0  0  0  0  0  0
    2.0871   -2.1537   -0.0189 C   0  0  0  0  0  0  0  0  0  0  0  0
    3.3783   -1.7518    0.3214 C   0  0  0  0  0  0  0  0  0  0  0  0
    3.6145   -0.4376    0.7197 C   0  0  0  0  0  0  0  0  0  0  0  0
    2.5608    0.4755    0.7740 C   0  0  0  0  0  0  0  0  0  0  0  0
    1.2582    0.0789    0.4304 C   0  0  0  0  0  0  0  0  0  0  0  0
    0.4278    2.4456   -2.6382 H   0  0  0  0  0  0  0  0  0  0  0  0
    0.1949    0.7783   -2.1804 H   0  0  0  0  0  0  0  0  0  0  0  0
    0.1359    1.5594    1.4394 H   0  0  0  0  0  0  0  0  0  0  0  0
   -2.3791    2.1572    0.8544 H   0  0  0  0  0  0  0  0  0  0  0  0
   -4.5707    1.0506    0.5830 H   0  0  0  0  0  0  0  0  0  0  0  0
   -4.6899   -1.3294   -0.1117 H   0  0  0  0  0  0  0  0  0  0  0  0
   -2.6036   -2.6051   -0.5225 H   0  0  0  0  0  0  0  0  0  0  0  0
    1.9026   -3.1801   -0.3249 H   0  0  0  0  0  0  0  0  0  0  0  0
    4.1986   -2.4636    0.2781 H   0  0  0  0  0  0  0  0  0  0  0  0
    4.6204   -0.1223    0.9861 H   0  0  0  0  0  0  0  0  0  0  0  0
    2.7611    1.5013    1.0798 H   0  0  0  0  0  0  0  0  0  0  0  0
  1  2  1  0
  2  3  2  0
  2  4  1  0
  4  5  1  0
  5  6  2  0
  6  7  1  0
  7  8  2  0
  8  9  1  0
  9 10  2  0
 10 11  1  0
 11 12  1  0
 12 13  2  0
 13 14  1  0
 14 15  2  0
 15 16  1  0
 16 17  2  0
 17  4  1  0
 10  5  1  0
 17 12  1  0
  1 18  1  0
  1 19  1  0
  4 20  1  0
  6 21  1  0
  7 22  1  0
  8 23  1  0
  9 24  1  0
 13 25  1  0
 14 26  1  0
 15 27  1  0
 16 28  1  0
M  END
$$$$
