
     RDKit          3D

 54 57  0  0  0  0  0  0  0  0999 V2000
   -4.4423   -1.9677    2.7497 C   0  0  0  0  0  0  0  0  0  0  0  0
   -4.4974   -0.9087    1.6893 C   0  0  0  0  0  0  0  0  0  0  0  0
   -5.6025   -0.0636    1.5871 C   0  0  0  0  0  0  0  0  0  0  0  0
   -5.6387    0.9336    0.6123 C   0  0  0  0  0  0  0  0  0  0  0  0
   -4.5612    1.1228   -0.2695 C   0  0  0  0  0  0  0  0  0  0  0  0
   -4.6628    2.2071   -1.3110 C   0  0  0  0  0  0  0  0  0  0  0  0
   -3.4275    0.2832   -0.1765 C   0  0  0  0  0  0  0  0  0  0  0  0
   -2.2627    0.4256   -1.0664 C   0  0  0  0  0  0  0  0  0  0  0  0
   -0.9945    0.6725   -0.5721 C   0  0  0  0  0  0  0  0  0  0  0  0
    0.0601    0.7806   -1.4804 C   0  0  0  0  0  0  0  0  0  0  0  0
    1.4159    1.0417   -0.9327 C   0  0  0  0  0  0  0  0  0  0  0  0
    2.0238    2.0226   -1.3376 O   0  0  0  0  0  0  0  0  0  0  0  0
    1.8129    0.1069    0.0023 N   0  0  0  0  0  0  0  0  0  0  0  0
    3.0262    0.0412    0.6733 C   0  0  0  0  0  0  0  0  0  0  0  0
    4.2629    1.1521    0.3758 S   0  0  0  0  0  0  0  0  0  0  0  0
    5.3337    0.3738    1.4472 C   0  0  0  0  0  0  0  0  0  0  0  0
    6.7175    0.9146    1.6136 C   0  0  0  0  0  0  0  0  0  0  0  0
    4.7618   -0.7427    2.0423 C   0  0  0  0  0  0  0  0  0  0  0  0
    5.5133   -1.6598    2.9585 C   0  0  0  0  0  0  0  0  0  0  0  0
    3.3690   -0.8989    1.6382 C   0  0  0  0  0  0  0  0  0  0  0  0
    2.3894   -1.8909    2.0919 C   0  0  0  0  0  0  0  0  0  0  0  0
    2.5766   -2.4189    3.3363 N   0  0  0  0  0  0  0  0  0  0  0  0
    1.3879   -2.1903    1.4444 O   0  0  0  0  0  0  0  0  0  0  0  0
   -0.1606    0.6552   -2.8695 C   0  0  0  0  0  0  0  0  0  0  0  0
    0.8448    0.7466   -3.8657 C   0  0  0  0  0  0  0  0  0  0  0  0
    0.5364    0.5993   -5.2165 C   0  0  0  0  0  0  0  0  0  0  0  0
   -0.7759    0.3561   -5.5938 C   0  0  0  0  0  0  0  0  0  0  0  0
   -1.7692    0.2620   -4.6168 C   0  0  0  0  0  0  0  0  0  0  0  0
   -1.4882    0.4052   -3.2645 C   0  0  0  0  0  0  0  0  0  0  0  0
   -2.5030    0.2912   -2.3913 N   0  0  0  0  0  0  0  0  0  0  0  0
   -3.4177   -0.7210    0.8157 C   0  0  0  0  0  0  0  0  0  0  0  0
   -3.8658   -2.8339    2.4076 H   0  0  0  0  0  0  0  0  0  0  0  0
   -3.9752   -1.5662    3.6547 H   0  0  0  0  0  0  0  0  0  0  0  0
   -5.4471   -2.3251    2.9992 H   0  0  0  0  0  0  0  0  0  0  0  0
   -6.4490   -0.1791    2.2601 H   0  0  0  0  0  0  0  0  0  0  0  0
   -6.5187    1.5698    0.5447 H   0  0  0  0  0  0  0  0  0  0  0  0
   -3.7396    2.7935   -1.3578 H   0  0  0  0  0  0  0  0  0  0  0  0
   -4.8731    1.7708   -2.2924 H   0  0  0  0  0  0  0  0  0  0  0  0
   -5.4699    2.9091   -1.0748 H   0  0  0  0  0  0  0  0  0  0  0  0
   -0.8343    0.8004    0.4938 H   0  0  0  0  0  0  0  0  0  0  0  0
    1.1847   -0.6717    0.2024 H   0  0  0  0  0  0  0  0  0  0  0  0
    6.9900    0.9461    2.6740 H   0  0  0  0  0  0  0  0  0  0  0  0
    6.8184    1.9313    1.2190 H   0  0  0  0  0  0  0  0  0  0  0  0
    7.4363    0.2749    1.0913 H   0  0  0  0  0  0  0  0  0  0  0  0
    5.3322   -1.3874    4.0026 H   0  0  0  0  0  0  0  0  0  0  0  0
    5.2175   -2.7016    2.8022 H   0  0  0  0  0  0  0  0  0  0  0  0
    6.5923   -1.6094    2.7792 H   0  0  0  0  0  0  0  0  0  0  0  0
    3.1520   -1.9369    4.0107 H   0  0  0  0  0  0  0  0  0  0  0  0
    1.8075   -2.9678    3.6970 H   0  0  0  0  0  0  0  0  0  0  0  0
    1.8809    0.9427   -3.5928 H   0  0  0  0  0  0  0  0  0  0  0  0
    1.3193    0.6782   -5.9663 H   0  0  0  0  0  0  0  0  0  0  0  0
   -1.0331    0.2398   -6.6432 H   0  0  0  0  0  0  0  0  0  0  0  0
   -2.7963    0.0691   -4.9197 H   0  0  0  0  0  0  0  0  0  0  0  0
   -2.5566   -1.3839    0.8948 H   0  0  0  0  0  0  0  0  0  0  0  0
  1  2  1  0
  2  3  2  0
  3  4  1  0
  4  5  2  0
  5  6  1  0
  5  7  1  0
  7  8  1  0
  8  9  2  0
  9 10  1  0
 10 11  1  0
 11 12  2  0
 11 13  1  0
 13 14  1  0
 14 15  1  0
 15 16  1  0
 16 17  1  0
 16 18  2  0
 18 19  1  0
 18 20  1  0
 20 21  1  0
 21 22  1  0
 21 23  2  0
 10 24  2  0
 24 25  1  0
 25 26  2  0
 26 27  1  0
 27 28  2  0
 28 29  1  0
 29 30  2  0
  7 31  2  0
 31  2  1  0
 30  8  1  0
 20 14  2  0
 29 24  1  0
  1 32  1  0
  1 33  1  0
  1 34  1  0
  3 35  1  0
  4 36  1  0
  6 37  1  0
  6 38  1  0
  6 39  1  0
  9 40  1  0
 13 41  1  0
 17 42  1  0
 17 43  1  0
 17 44  1  0
 19 45  1  0
 19 46  1  0
 19 47  1  0
 22 48  1  0
 22 49  1  0
 25 50  1  0
 26 51  1  0
 27 52  1  0
 28 53  1  0
 31 54  1  0
M  END
$$$$
