
     RDKit          3D

 45 47  0  0  0  0  0  0  0  0999 V2000
   -3.7582   -1.2800    2.8455 O   0  0  0  0  0  0  0  0  0  0  0  0
   -3.3993   -1.1646    1.6712 C   0  0  0  0  0  0  0  0  0  0  0  0
   -4.4041   -1.3480    0.5461 C   0  0  0  0  0  0  0  0  0  0  0  0
   -4.9247   -0.0433   -0.0097 C   0  0  0  0  0  0  0  0  0  0  0  0
   -5.5751    0.8767    0.8273 C   0  0  0  0  0  0  0  0  0  0  0  0
   -6.0616    2.0813    0.3147 C   0  0  0  0  0  0  0  0  0  0  0  0
   -5.9068    2.3701   -1.0386 C   0  0  0  0  0  0  0  0  0  0  0  0
   -6.5049    3.8543   -1.6708 Cl  0  0  0  0  0  0  0  0  0  0  0  0
   -5.2732    1.4628   -1.8844 C   0  0  0  0  0  0  0  0  0  0  0  0
   -4.7866    0.2574   -1.3725 C   0  0  0  0  0  0  0  0  0  0  0  0
   -2.0092   -0.8373    1.3376 C   0  0  0  0  0  0  0  0  0  0  0  0
   -1.0088   -0.6270    2.2688 C   0  0  0  0  0  0  0  0  0  0  0  0
    0.1578   -0.3485    1.6103 N   0  0  0  0  0  0  0  0  0  0  0  0
   -0.0530   -0.3532    0.2493 C   0  0  0  0  0  0  0  0  0  0  0  0
    0.9373   -0.1114   -0.7799 C   0  0  0  0  0  0  0  0  0  0  0  0
    0.7638   -0.4161   -1.9551 O   0  0  0  0  0  0  0  0  0  0  0  0
    2.0954    0.4982   -0.3412 N   0  0  0  0  0  0  0  0  0  0  0  0
    3.1100    0.9512   -1.2731 C   0  0  0  0  0  0  0  0  0  0  0  0
    3.8580   -0.1686   -2.0011 C   0  0  0  0  0  0  0  0  0  0  0  0
    4.3936   -1.2790   -1.0972 C   0  0  0  0  0  0  0  0  0  0  0  0
    5.1995   -0.8032    0.0060 N   0  0  0  0  0  0  0  0  0  0  0  0
    6.4261   -0.2083   -0.0766 C   0  0  0  0  0  0  0  0  0  0  0  0
    6.7570    0.0981    1.2232 C   0  0  0  0  0  0  0  0  0  0  0  0
    5.7692   -0.3049    2.0856 N   0  0  0  0  0  0  0  0  0  0  0  0
    4.8575   -0.8678    1.3263 C   0  0  0  0  0  0  0  0  0  0  0  0
   -1.3904   -0.6747    0.0663 C   0  0  0  0  0  0  0  0  0  0  0  0
   -5.2518   -1.9290    0.9313 H   0  0  0  0  0  0  0  0  0  0  0  0
   -3.9533   -1.9676   -0.2380 H   0  0  0  0  0  0  0  0  0  0  0  0
   -5.7072    0.6616    1.8873 H   0  0  0  0  0  0  0  0  0  0  0  0
   -6.5595    2.7858    0.9756 H   0  0  0  0  0  0  0  0  0  0  0  0
   -5.1559    1.6861   -2.9416 H   0  0  0  0  0  0  0  0  0  0  0  0
   -4.2992   -0.4417   -2.0492 H   0  0  0  0  0  0  0  0  0  0  0  0
   -1.0400   -0.6619    3.3513 H   0  0  0  0  0  0  0  0  0  0  0  0
    1.0483   -0.1921    2.0640 H   0  0  0  0  0  0  0  0  0  0  0  0
    2.0429    1.0092    0.5287 H   0  0  0  0  0  0  0  0  0  0  0  0
    2.6298    1.6094   -2.0063 H   0  0  0  0  0  0  0  0  0  0  0  0
    3.8145    1.5637   -0.6998 H   0  0  0  0  0  0  0  0  0  0  0  0
    4.6880    0.2836   -2.5586 H   0  0  0  0  0  0  0  0  0  0  0  0
    3.2044   -0.6270   -2.7523 H   0  0  0  0  0  0  0  0  0  0  0  0
    5.0204   -1.9660   -1.6776 H   0  0  0  0  0  0  0  0  0  0  0  0
    3.5684   -1.8700   -0.6834 H   0  0  0  0  0  0  0  0  0  0  0  0
    6.9430   -0.0508   -1.0128 H   0  0  0  0  0  0  0  0  0  0  0  0
    7.6535    0.5860    1.5839 H   0  0  0  0  0  0  0  0  0  0  0  0
    3.9410   -1.3241    1.6760 H   0  0  0  0  0  0  0  0  0  0  0  0
   -1.8568   -0.7695   -0.9070 H   0  0  0  0  0  0  0  0  0  0  0  0
  1  2  2  0
  2  3  1  0
  3  4  1  0
  4  5  2  0
  5  6  1  0
  6  7  2  0
  7  8  1  0
  7  9  1  0
  9 10  2  0
  2 11  1  0
 11 12  2  0
 12 13  1  0
 13 14  1  0
 14 15  1  0
 15 16  2  0
 15 17  1  0
 17 18  1  0
 18 19  1  0
 19 20  1  0
 20 21  1  0
 21 22  1  0
 22 23  2  0
 23 24  1  0
 24 25  2  0
 14 26  2  0
 10  4  1  0
 26 11  1  0
 25 21  1  0
  3 27  1  0
  3 28  1  0
  5 29  1  0
  6 30  1  0
  9 31  1  0
 10 32  1  0
 12 33  1  0
 13 34  1  0
 17 35  1  0
 18 36  1  0
 18 37  1  0
 19 38  1  0
 19 39  1  0
 20 40  1  0
 20 41  1  0
 22 42  1  0
 23 43  1  0
 25 44  1  0
 26 45  1  0
M  END
$$$$
