
     RDKit          3D

 51 54  0  0  0  0  0  0  0  0999 V2000
    7.3063   -1.8406   -1.5967 N   0  0  0  0  0  0  0  0  0  0  0  0
    6.2220   -1.0363   -2.6028 S   0  0  0  0  0  6  0  0  0  0  0  0
    5.5353   -2.0620   -3.3508 O   0  0  0  0  0  0  0  0  0  0  0  0
    6.9362    0.0431   -3.2425 O   0  0  0  0  0  0  0  0  0  0  0  0
    5.0861   -0.3542   -1.4252 C   0  0  0  0  0  0  0  0  0  0  0  0
    5.1645    0.9955   -1.0814 C   0  0  0  0  0  0  0  0  0  0  0  0
    4.2630    1.5258   -0.1556 C   0  0  0  0  0  0  0  0  0  0  0  0
    3.2870    0.7136    0.4267 C   0  0  0  0  0  0  0  0  0  0  0  0
    2.3546    1.1670    1.3732 N   0  0  0  0  0  0  0  0  0  0  0  0
    2.0864    2.4729    1.7453 C   0  0  0  0  0  0  0  0  0  0  0  0
    2.6088    3.4790    1.2763 O   0  0  0  0  0  0  0  0  0  0  0  0
    1.0436    2.5824    2.8476 C   0  0  0  0  0  0  0  0  0  0  0  0
   -0.6391    2.5207    2.1741 S   0  0  0  0  0  0  0  0  0  0  0  0
   -0.8746    0.8163    1.9593 C   0  0  0  0  0  0  0  0  0  0  0  0
    0.0405   -0.0879    2.2292 N   0  0  0  0  0  0  0  0  0  0  0  0
   -0.5103   -1.3162    2.0457 N   0  0  0  0  0  0  0  0  0  0  0  0
   -1.7591   -1.1552    1.6472 C   0  0  0  0  0  0  0  0  0  0  0  0
   -2.6488   -2.2755    1.2183 C   0  0  0  0  0  0  0  0  0  0  0  0
   -2.9620   -2.2683   -0.2507 C   0  0  0  0  0  0  0  0  0  0  0  0
   -4.1698   -2.0090   -0.8673 C   0  0  0  0  0  0  0  0  0  0  0  0
   -4.0916   -2.1164   -2.2868 C   0  0  0  0  0  0  0  0  0  0  0  0
   -2.8278   -2.4581   -2.7075 C   0  0  0  0  0  0  0  0  0  0  0  0
   -1.7460   -2.6477   -1.4001 S   0  0  0  0  0  0  0  0  0  0  0  0
   -2.0618    0.2037    1.6005 N   0  0  0  0  0  0  0  0  0  0  0  0
   -3.3032    0.8072    1.2891 C   0  0  0  0  0  0  0  0  0  0  0  0
   -4.4741    0.3451    1.9012 C   0  0  0  0  0  0  0  0  0  0  0  0
   -5.6983    0.9497    1.6074 C   0  0  0  0  0  0  0  0  0  0  0  0
   -5.7539    2.0103    0.7018 C   0  0  0  0  0  0  0  0  0  0  0  0
   -4.5878    2.4726    0.0931 C   0  0  0  0  0  0  0  0  0  0  0  0
   -3.3610    1.8764    0.3862 C   0  0  0  0  0  0  0  0  0  0  0  0
    3.2181   -0.6408    0.0702 C   0  0  0  0  0  0  0  0  0  0  0  0
    4.1077   -1.1760   -0.8611 C   0  0  0  0  0  0  0  0  0  0  0  0
    7.2048   -1.5974   -0.6152 H   0  0  0  0  0  0  0  0  0  0  0  0
    7.2354   -2.8458   -1.7598 H   0  0  0  0  0  0  0  0  0  0  0  0
    5.9165    1.6444   -1.5242 H   0  0  0  0  0  0  0  0  0  0  0  0
    4.3546    2.5773    0.0987 H   0  0  0  0  0  0  0  0  0  0  0  0
    1.7206    0.4561    1.7445 H   0  0  0  0  0  0  0  0  0  0  0  0
    1.2042    1.8152    3.6122 H   0  0  0  0  0  0  0  0  0  0  0  0
    1.1793    3.5506    3.3397 H   0  0  0  0  0  0  0  0  0  0  0  0
   -3.5726   -2.2780    1.8027 H   0  0  0  0  0  0  0  0  0  0  0  0
   -2.1567   -3.2263    1.4657 H   0  0  0  0  0  0  0  0  0  0  0  0
   -5.0769   -1.7520   -0.3297 H   0  0  0  0  0  0  0  0  0  0  0  0
   -4.9207   -1.9540   -2.9654 H   0  0  0  0  0  0  0  0  0  0  0  0
   -2.4901   -2.6113   -3.7218 H   0  0  0  0  0  0  0  0  0  0  0  0
   -4.4560   -0.4418    2.6503 H   0  0  0  0  0  0  0  0  0  0  0  0
   -6.6046    0.6084    2.1018 H   0  0  0  0  0  0  0  0  0  0  0  0
   -6.7049    2.4861    0.4796 H   0  0  0  0  0  0  0  0  0  0  0  0
   -4.6328    3.3013   -0.6111 H   0  0  0  0  0  0  0  0  0  0  0  0
   -2.4734    2.2424   -0.1226 H   0  0  0  0  0  0  0  0  0  0  0  0
    2.4571   -1.2892    0.5001 H   0  0  0  0  0  0  0  0  0  0  0  0
    4.0253   -2.2230   -1.1435 H   0  0  0  0  0  0  0  0  0  0  0  0
  1  2  1  0
  2  3  2  0
  2  4  2  0
  2  5  1  0
  5  6  2  0
  6  7  1  0
  7  8  2  0
  8  9  1  0
  9 10  1  0
 10 11  2  0
 10 12  1  0
 12 13  1  0
 13 14  1  0
 14 15  2  0
 15 16  1  0
 16 17  2  0
 17 18  1  0
 18 19  1  0
 19 20  2  0
 20 21  1  0
 21 22  2  0
 22 23  1  0
 17 24  1  0
 24 25  1  0
 25 26  2  0
 26 27  1  0
 27 28  2  0
 28 29  1  0
 29 30  2  0
  8 31  1  0
 31 32  2  0
 32  5  1  0
 24 14  1  0
 30 25  1  0
 23 19  1  0
  1 33  1  0
  1 34  1  0
  6 35  1  0
  7 36  1  0
  9 37  1  0
 12 38  1  0
 12 39  1  0
 18 40  1  0
 18 41  1  0
 20 42  1  0
 21 43  1  0
 22 44  1  0
 26 45  1  0
 27 46  1  0
 28 47  1  0
 29 48  1  0
 30 49  1  0
 31 50  1  0
 32 51  1  0
M  END
$$$$
