
     RDKit          3D

 53 58  0  0  0  0  0  0  0  0999 V2000
    1.3340    1.7554    0.6750 O   0  0  0  0  0  0  0  0  0  0  0  0
    1.7030    0.7276    0.1011 C   0  0  0  0  0  0  0  0  0  0  0  0
    1.0094    0.3219   -1.2163 C   0  0  0  0  0  0  0  0  0  0  0  0
   -0.4408    0.5682   -1.1227 N   0  0  0  0  0  4  0  0  0  0  0  0
   -1.4279   -0.3599   -0.7941 C   0  0  0  0  0  0  0  0  0  0  0  0
   -2.6599    0.2856   -0.7612 C   0  0  0  0  0  0  0  0  0  0  0  0
   -4.0578   -0.3808   -0.4794 C   0  0  0  0  0  0  0  0  0  0  0  0
   -5.2357    0.3644   -0.5921 C   0  0  0  0  0  0  0  0  0  0  0  0
   -6.4739   -0.2433   -0.3573 C   0  0  0  0  0  0  0  0  0  0  0  0
   -6.5309   -1.5866   -0.0107 C   0  0  0  0  0  0  0  0  0  0  0  0
   -7.7180   -2.1648    0.2103 F   0  0  0  0  0  0  0  0  0  0  0  0
   -5.3699   -2.3394    0.1062 C   0  0  0  0  0  0  0  0  0  0  0  0
   -4.1290   -1.7377   -0.1299 C   0  0  0  0  0  0  0  0  0  0  0  0
   -2.3358    1.6027   -1.0380 N   0  0  0  0  0  0  0  0  0  0  0  0
   -1.0298    1.7535   -1.2432 C   0  0  0  0  0  0  0  0  0  0  0  0
   -0.6457    3.1486   -1.5566 C   0  0  0  0  0  0  0  0  0  0  0  0
   -1.9164    3.9279   -1.1638 C   0  0  0  0  0  0  0  0  0  0  0  0
   -3.0510    2.8669   -1.1429 C   0  0  0  0  0  0  0  0  0  0  0  0
    2.6328   -0.2138    0.5775 N   0  0  0  0  0  0  0  0  0  0  0  0
    2.6737   -0.6018    1.9698 C   0  0  0  0  0  0  0  0  0  0  0  0
    2.1497    0.2348    2.9767 C   0  0  0  0  0  0  0  0  0  0  0  0
    2.1654   -0.1309    4.3285 C   0  0  0  0  0  0  0  0  0  0  0  0
    2.7028   -1.3495    4.7133 C   0  0  0  0  0  0  0  0  0  0  0  0
    3.2055   -2.2077    3.7411 C   0  0  0  0  0  0  0  0  0  0  0  0
    3.1884   -1.8473    2.3816 C   0  0  0  0  0  0  0  0  0  0  0  0
    3.7210   -3.0938    1.2351 S   0  0  0  0  0  0  0  0  0  0  0  0
    4.1568   -2.0655   -0.1333 C   0  0  0  0  0  0  0  0  0  0  0  0
    5.0668   -2.5852   -1.0674 C   0  0  0  0  0  0  0  0  0  0  0  0
    5.4670   -1.8361   -2.1702 C   0  0  0  0  0  0  0  0  0  0  0  0
    4.9693   -0.5534   -2.3420 C   0  0  0  0  0  0  0  0  0  0  0  0
    4.0517   -0.0355   -1.4253 C   0  0  0  0  0  0  0  0  0  0  0  0
    3.6028   -0.7923   -0.3198 C   0  0  0  0  0  0  0  0  0  0  0  0
    1.4043    0.9259   -2.0381 H   0  0  0  0  0  0  0  0  0  0  0  0
    1.1517   -0.7393   -1.4430 H   0  0  0  0  0  0  0  0  0  0  0  0
   -1.1269   -1.3836   -0.6374 H   0  0  0  0  0  0  0  0  0  0  0  0
   -5.2328    1.4087   -0.8792 H   0  0  0  0  0  0  0  0  0  0  0  0
   -7.3978    0.3219   -0.4551 H   0  0  0  0  0  0  0  0  0  0  0  0
   -5.4411   -3.3908    0.3739 H   0  0  0  0  0  0  0  0  0  0  0  0
   -3.2419   -2.3542   -0.0285 H   0  0  0  0  0  0  0  0  0  0  0  0
   -0.4504    3.1787   -2.6296 H   0  0  0  0  0  0  0  0  0  0  0  0
    0.2311    3.4315   -0.9758 H   0  0  0  0  0  0  0  0  0  0  0  0
   -1.7889    4.3325   -0.1516 H   0  0  0  0  0  0  0  0  0  0  0  0
   -2.1280    4.7674   -1.8340 H   0  0  0  0  0  0  0  0  0  0  0  0
   -3.7136    3.0141   -0.2867 H   0  0  0  0  0  0  0  0  0  0  0  0
   -3.6148    2.8713   -2.0782 H   0  0  0  0  0  0  0  0  0  0  0  0
    1.7452    1.2186    2.7625 H   0  0  0  0  0  0  0  0  0  0  0  0
    1.7631    0.5461    5.0794 H   0  0  0  0  0  0  0  0  0  0  0  0
    2.7198   -1.6360    5.7621 H   0  0  0  0  0  0  0  0  0  0  0  0
    3.5986   -3.1745    4.0516 H   0  0  0  0  0  0  0  0  0  0  0  0
    5.4845   -3.5822   -0.9326 H   0  0  0  0  0  0  0  0  0  0  0  0
    6.1874   -2.2456   -2.8752 H   0  0  0  0  0  0  0  0  0  0  0  0
    5.3181    0.0556   -3.1738 H   0  0  0  0  0  0  0  0  0  0  0  0
    3.7552    1.0018   -1.5608 H   0  0  0  0  0  0  0  0  0  0  0  0
  1  2  2  0
  2  3  1  0
  3  4  1  0
  4  5  1  0
  5  6  2  0
  6  7  1  0
  7  8  2  0
  8  9  1  0
  9 10  2  0
 10 11  1  0
 10 12  1  0
 12 13  2  0
  6 14  1  0
 14 15  1  0
 15 16  1  0
 16 17  1  0
 17 18  1  0
  2 19  1  0
 19 20  1  0
 20 21  2  0
 21 22  1  0
 22 23  2  0
 23 24  1  0
 24 25  2  0
 25 26  1  0
 26 27  1  0
 27 28  2  0
 28 29  1  0
 29 30  2  0
 30 31  1  0
 31 32  2  0
 15  4  2  0
 32 19  1  0
 13  7  1  0
 18 14  1  0
 25 20  1  0
 32 27  1  0
  3 33  1  0
  3 34  1  0
  5 35  1  0
  8 36  1  0
  9 37  1  0
 12 38  1  0
 13 39  1  0
 16 40  1  0
 16 41  1  0
 17 42  1  0
 17 43  1  0
 18 44  1  0
 18 45  1  0
 21 46  1  0
 22 47  1  0
 23 48  1  0
 24 49  1  0
 28 50  1  0
 29 51  1  0
 30 52  1  0
 31 53  1  0
M  CHG  1   4   1
M  END
$$$$
