
     RDKit          3D

 60 65  0  0  0  0  0  0  0  0999 V2000
    1.4635   -3.5356    2.1024 O   0  0  0  0  0  0  0  0  0  0  0  0
    1.9284   -2.8419    1.2064 C   0  0  0  0  0  0  0  0  0  0  0  0
    1.1417   -2.0127    0.4157 N   0  0  0  0  0  0  0  0  0  0  0  0
    1.6230   -1.2332   -0.6289 C   0  0  0  0  0  0  0  0  0  0  0  0
    0.6027   -0.3861   -1.3869 C   0  0  0  0  0  0  0  0  0  0  0  0
    0.1535    0.8152   -0.5491 C   0  0  0  0  0  0  0  0  0  0  0  0
   -0.7855    0.4535    0.6045 C   0  0  0  0  0  0  0  0  0  0  0  0
   -1.5282   -0.8039    0.3174 N   0  0  0  0  0  0  0  0  0  0  0  0
   -2.7431   -1.2269    1.4514 S   0  0  0  0  0  6  0  0  0  0  0  0
   -3.2638   -2.5203    1.0673 O   0  0  0  0  0  0  0  0  0  0  0  0
   -2.1906   -0.9976    2.7684 O   0  0  0  0  0  0  0  0  0  0  0  0
   -4.0200   -0.0212    1.1752 C   0  0  0  0  0  0  0  0  0  0  0  0
   -4.0900    1.1169    1.9873 C   0  0  0  0  0  0  0  0  0  0  0  0
   -5.1041    2.0525    1.7762 C   0  0  0  0  0  0  0  0  0  0  0  0
   -6.0460    1.8415    0.7698 C   0  0  0  0  0  0  0  0  0  0  0  0
   -6.0001    0.6758   -0.0038 C   0  0  0  0  0  0  0  0  0  0  0  0
   -4.9855   -0.2575    0.1921 C   0  0  0  0  0  0  0  0  0  0  0  0
   -6.9186    0.3876   -0.9802 O   0  0  0  0  0  0  0  0  0  0  0  0
   -8.0919    1.1992   -0.8446 C   0  0  0  0  0  0  0  0  0  0  0  0
   -7.7111    2.6542   -0.6256 C   0  0  0  0  0  0  0  0  0  0  0  0
   -6.9986    2.8139    0.6069 O   0  0  0  0  0  0  0  0  0  0  0  0
   -1.8713   -0.9690   -1.1120 C   0  0  0  0  0  0  0  0  0  0  0  0
   -0.5834   -1.2218   -1.8940 C   0  0  0  0  0  0  0  0  0  0  0  0
    2.8801   -1.1725   -0.9772 N   0  0  0  0  0  0  0  0  0  0  0  0
    3.6750   -1.9584   -0.2096 C   0  0  0  0  0  0  0  0  0  0  0  0
    3.3158   -2.7774    0.8335 C   0  0  0  0  0  0  0  0  0  0  0  0
    4.4073   -3.4114    1.3431 N   0  0  0  0  0  0  0  0  0  0  0  0
    5.4656   -3.0048    0.6416 N   0  0  0  0  0  0  0  0  0  0  0  0
    5.0292   -2.1150   -0.2841 N   0  0  0  0  0  0  0  0  0  0  0  0
    5.9503   -1.5038   -1.2181 C   0  0  0  0  0  0  0  0  0  0  0  0
    6.3869   -0.1368   -0.7488 C   0  0  0  0  0  0  0  0  0  0  0  0
    5.7611    1.0193   -1.2440 C   0  0  0  0  0  0  0  0  0  0  0  0
    6.1573    2.2812   -0.7990 C   0  0  0  0  0  0  0  0  0  0  0  0
    7.1726    2.3890    0.1436 C   0  0  0  0  0  0  0  0  0  0  0  0
    7.5496    3.6015    0.5702 F   0  0  0  0  0  0  0  0  0  0  0  0
    7.7985    1.2582    0.6532 C   0  0  0  0  0  0  0  0  0  0  0  0
    7.4056   -0.0054    0.2098 C   0  0  0  0  0  0  0  0  0  0  0  0
    0.1516   -2.0166    0.6405 H   0  0  0  0  0  0  0  0  0  0  0  0
    1.1321    0.0014   -2.2689 H   0  0  0  0  0  0  0  0  0  0  0  0
   -0.3702    1.5162   -1.2132 H   0  0  0  0  0  0  0  0  0  0  0  0
    1.0182    1.3626   -0.1544 H   0  0  0  0  0  0  0  0  0  0  0  0
   -1.4696    1.2884    0.7806 H   0  0  0  0  0  0  0  0  0  0  0  0
   -0.1920    0.3050    1.5137 H   0  0  0  0  0  0  0  0  0  0  0  0
   -3.3659    1.2812    2.7829 H   0  0  0  0  0  0  0  0  0  0  0  0
   -5.1614    2.9451    2.3942 H   0  0  0  0  0  0  0  0  0  0  0  0
   -4.9670   -1.1652   -0.4058 H   0  0  0  0  0  0  0  0  0  0  0  0
   -8.6753    1.0947   -1.7647 H   0  0  0  0  0  0  0  0  0  0  0  0
   -8.6920    0.8102   -0.0126 H   0  0  0  0  0  0  0  0  0  0  0  0
   -8.6096    3.2769   -0.5723 H   0  0  0  0  0  0  0  0  0  0  0  0
   -7.0816    3.0307   -1.4413 H   0  0  0  0  0  0  0  0  0  0  0  0
   -2.3724   -0.0668   -1.4819 H   0  0  0  0  0  0  0  0  0  0  0  0
   -2.5467   -1.8145   -1.2733 H   0  0  0  0  0  0  0  0  0  0  0  0
   -0.7742   -0.9859   -2.9485 H   0  0  0  0  0  0  0  0  0  0  0  0
   -0.3409   -2.2916   -1.8676 H   0  0  0  0  0  0  0  0  0  0  0  0
    6.8156   -2.1670   -1.3349 H   0  0  0  0  0  0  0  0  0  0  0  0
    5.4556   -1.4495   -2.1947 H   0  0  0  0  0  0  0  0  0  0  0  0
    4.9560    0.9418   -1.9726 H   0  0  0  0  0  0  0  0  0  0  0  0
    5.6793    3.1791   -1.1770 H   0  0  0  0  0  0  0  0  0  0  0  0
    8.5832    1.3659    1.3954 H   0  0  0  0  0  0  0  0  0  0  0  0
    7.8912   -0.8884    0.6235 H   0  0  0  0  0  0  0  0  0  0  0  0
  1  2  2  0
  2  3  1  0
  3  4  1  0
  4  5  1  0
  5  6  1  0
  6  7  1  0
  7  8  1  0
  8  9  1  0
  9 10  2  0
  9 11  2  0
  9 12  1  0
 12 13  2  0
 13 14  1  0
 14 15  2  0
 15 16  1  0
 16 17  2  0
 16 18  1  0
 18 19  1  0
 19 20  1  0
 20 21  1  0
  8 22  1  0
 22 23  1  0
  4 24  2  0
 24 25  1  0
 25 26  2  0
 26 27  1  0
 27 28  2  0
 28 29  1  0
 29 30  1  0
 30 31  1  0
 31 32  2  0
 32 33  1  0
 33 34  2  0
 34 35  1  0
 34 36  1  0
 36 37  2  0
 26  2  1  0
 37 31  1  0
 23  5  1  0
 29 25  1  0
 17 12  1  0
 21 15  1  0
  3 38  1  0
  5 39  1  0
  6 40  1  0
  6 41  1  0
  7 42  1  0
  7 43  1  0
 13 44  1  0
 14 45  1  0
 17 46  1  0
 19 47  1  0
 19 48  1  0
 20 49  1  0
 20 50  1  0
 22 51  1  0
 22 52  1  0
 23 53  1  0
 23 54  1  0
 30 55  1  0
 30 56  1  0
 32 57  1  0
 33 58  1  0
 36 59  1  0
 37 60  1  0
M  END
$$$$
