
     RDKit          3D

 40 41  0  0  0  0  0  0  0  0999 V2000
   -4.9525   -4.0289   -1.5216 C   0  0  0  0  0  0  0  0  0  0  0  0
   -3.8836   -3.5568   -2.4911 C   0  0  0  0  0  0  0  0  0  0  0  0
   -3.1900   -2.4683   -1.8816 O   0  0  0  0  0  0  0  0  0  0  0  0
   -2.2304   -1.8922   -2.6863 C   0  0  0  0  0  0  0  0  0  0  0  0
   -1.9240   -2.5015   -3.8612 N   0  0  0  0  0  0  0  0  0  0  0  0
   -0.9429   -1.9506   -4.6086 C   0  0  0  0  0  0  0  0  0  0  0  0
   -0.2392   -0.8172   -4.2399 C   0  0  0  0  0  0  0  0  0  0  0  0
   -0.5629   -0.2074   -3.0315 C   0  0  0  0  0  0  0  0  0  0  0  0
   -1.5777   -0.7509   -2.2329 C   0  0  0  0  0  0  0  0  0  0  0  0
   -1.9589   -0.1105   -0.9587 C   0  0  0  0  0  0  0  0  0  0  0  0
   -3.0942   -0.0040   -0.5304 O   0  0  0  0  0  0  0  0  0  0  0  0
   -0.8351    0.3446   -0.3493 O   0  0  0  0  0  0  0  0  0  0  0  0
   -1.0828    0.9754    0.9092 C   0  0  0  0  0  0  0  0  0  0  0  0
    0.2413    1.4569    1.4460 C   0  0  0  0  0  0  0  0  0  0  0  0
    1.1135    0.5628    2.0831 C   0  0  0  0  0  0  0  0  0  0  0  0
    2.3521    0.9976    2.5646 C   0  0  0  0  0  0  0  0  0  0  0  0
    2.7386    2.3347    2.4081 C   0  0  0  0  0  0  0  0  0  0  0  0
    4.0452    2.8526    2.8981 C   0  0  0  0  0  0  0  0  0  0  0  0
    4.4082    4.0098    2.7552 O   0  0  0  0  0  0  0  0  0  0  0  0
    4.7518    1.8703    3.5117 O   0  0  0  0  0  0  0  0  0  0  0  0
    6.0202    2.2951    4.0122 C   0  0  0  0  0  0  0  0  0  0  0  0
    1.8735    3.2276    1.7625 C   0  0  0  0  0  0  0  0  0  0  0  0
    0.6358    2.7912    1.2819 C   0  0  0  0  0  0  0  0  0  0  0  0
   -5.5163   -4.8670   -1.9406 H   0  0  0  0  0  0  0  0  0  0  0  0
   -4.5020   -4.3437   -0.5744 H   0  0  0  0  0  0  0  0  0  0  0  0
   -5.6480   -3.2156   -1.2889 H   0  0  0  0  0  0  0  0  0  0  0  0
   -3.1931   -4.3847   -2.6919 H   0  0  0  0  0  0  0  0  0  0  0  0
   -4.3638   -3.2340   -3.4228 H   0  0  0  0  0  0  0  0  0  0  0  0
   -0.7289   -2.4636   -5.5424 H   0  0  0  0  0  0  0  0  0  0  0  0
    0.5412   -0.4170   -4.8782 H   0  0  0  0  0  0  0  0  0  0  0  0
   -0.0300    0.6878   -2.7208 H   0  0  0  0  0  0  0  0  0  0  0  0
   -1.5299    0.2609    1.6115 H   0  0  0  0  0  0  0  0  0  0  0  0
   -1.7703    1.8208    0.7823 H   0  0  0  0  0  0  0  0  0  0  0  0
    0.8326   -0.4820    2.2037 H   0  0  0  0  0  0  0  0  0  0  0  0
    3.0049    0.2802    3.0557 H   0  0  0  0  0  0  0  0  0  0  0  0
    5.8923    3.0780    4.7664 H   0  0  0  0  0  0  0  0  0  0  0  0
    6.6580    2.6442    3.1940 H   0  0  0  0  0  0  0  0  0  0  0  0
    6.5030    1.4352    4.4846 H   0  0  0  0  0  0  0  0  0  0  0  0
    2.1612    4.2691    1.6286 H   0  0  0  0  0  0  0  0  0  0  0  0
   -0.0168    3.5010    0.7772 H   0  0  0  0  0  0  0  0  0  0  0  0
  1  2  1  0
  2  3  1  0
  3  4  1  0
  4  5  2  0
  5  6  1  0
  6  7  2  0
  7  8  1  0
  8  9  2  0
  9 10  1  0
 10 11  2  0
 10 12  1  0
 12 13  1  0
 13 14  1  0
 14 15  2  0
 15 16  1  0
 16 17  2  0
 17 18  1  0
 18 19  2  0
 18 20  1  0
 20 21  1  0
 17 22  1  0
 22 23  2  0
  9  4  1  0
 23 14  1  0
  1 24  1  0
  1 25  1  0
  1 26  1  0
  2 27  1  0
  2 28  1  0
  6 29  1  0
  7 30  1  0
  8 31  1  0
 13 32  1  0
 13 33  1  0
 15 34  1  0
 16 35  1  0
 21 36  1  0
 21 37  1  0
 21 38  1  0
 22 39  1  0
 23 40  1  0
M  END
$$$$
