
     RDKit          3D

 32 34  0  0  0  0  0  0  0  0999 V2000
    0.1656    2.8404    0.0125 O   0  0  0  0  0  0  0  0  0  0  0  0
   -0.4696    2.0109   -0.6313 C   0  0  0  0  0  0  0  0  0  0  0  0
   -1.8892    2.3302   -1.1152 C   0  0  0  0  0  0  0  0  0  0  0  0
   -2.6597    1.1964   -1.4919 O   0  0  0  0  0  0  0  0  0  0  0  0
   -3.3368    0.5247   -0.5111 C   0  0  0  0  0  0  0  0  0  0  0  0
   -3.1679    0.6897    0.8646 C   0  0  0  0  0  0  0  0  0  0  0  0
   -3.9191   -0.0784    1.7607 C   0  0  0  0  0  0  0  0  0  0  0  0
   -4.8329   -1.0150    1.2807 C   0  0  0  0  0  0  0  0  0  0  0  0
   -5.8456   -2.0482    2.4956 Br  0  0  0  0  0  0  0  0  0  0  0  0
   -5.0021   -1.1916   -0.0897 C   0  0  0  0  0  0  0  0  0  0  0  0
   -4.2504   -0.4238   -0.9810 C   0  0  0  0  0  0  0  0  0  0  0  0
   -0.0427    0.7656   -1.0310 N   0  0  0  0  0  0  0  0  0  0  0  0
    1.1722    0.1822   -0.7811 C   0  0  0  0  0  0  0  0  0  0  0  0
    1.4587   -1.0370   -1.1793 N   0  0  0  0  0  0  0  0  0  0  0  0
    2.7366   -1.4165   -0.8137 N   0  0  0  0  0  0  0  0  0  0  0  0
    3.3597   -0.4544   -0.1728 C   0  0  0  0  0  0  0  0  0  0  0  0
    4.8251   -0.5940    0.3518 C   0  0  0  0  0  0  0  0  0  0  0  0
    5.9458   -0.6565   -0.6548 C   0  0  0  0  0  0  0  0  0  0  0  0
    5.5846   -1.8780    0.1401 C   0  0  0  0  0  0  0  0  0  0  0  0
    2.4392    0.9687    0.0435 S   0  0  0  0  0  0  0  0  0  0  0  0
   -2.4096    2.9482   -0.3747 H   0  0  0  0  0  0  0  0  0  0  0  0
   -1.7772    2.9480   -2.0141 H   0  0  0  0  0  0  0  0  0  0  0  0
   -2.4604    1.3996    1.2804 H   0  0  0  0  0  0  0  0  0  0  0  0
   -3.7822    0.0589    2.8299 H   0  0  0  0  0  0  0  0  0  0  0  0
   -5.7080   -1.9214   -0.4739 H   0  0  0  0  0  0  0  0  0  0  0  0
   -4.3811   -0.5624   -2.0526 H   0  0  0  0  0  0  0  0  0  0  0  0
   -0.6967    0.1706   -1.5285 H   0  0  0  0  0  0  0  0  0  0  0  0
    5.0196   -0.0641    1.2784 H   0  0  0  0  0  0  0  0  0  0  0  0
    6.8709   -0.1468   -0.4137 H   0  0  0  0  0  0  0  0  0  0  0  0
    5.6959   -0.6512   -1.7108 H   0  0  0  0  0  0  0  0  0  0  0  0
    5.0936   -2.6972   -0.3741 H   0  0  0  0  0  0  0  0  0  0  0  0
    6.2636   -2.1974    0.9220 H   0  0  0  0  0  0  0  0  0  0  0  0
  1  2  2  0
  2  3  1  0
  3  4  1  0
  4  5  1  0
  5  6  2  0
  6  7  1  0
  7  8  2  0
  8  9  1  0
  8 10  1  0
 10 11  2  0
  2 12  1  0
 12 13  1  0
 13 14  2  0
 14 15  1  0
 15 16  2  0
 16 17  1  0
 17 18  1  0
 18 19  1  0
 16 20  1  0
 11  5  1  0
 20 13  1  0
 19 17  1  0
  3 21  1  0
  3 22  1  0
  6 23  1  0
  7 24  1  0
 10 25  1  0
 11 26  1  0
 12 27  1  0
 17 28  1  0
 18 29  1  0
 18 30  1  0
 19 31  1  0
 19 32  1  0
M  END
$$$$
