
     RDKit          3D

 46 48  0  0  0  0  0  0  0  0999 V2000
   -3.3980    2.0564    2.3440 C   0  0  0  0  0  0  0  0  0  0  0  0
   -2.0982    1.2904    2.1847 C   0  0  0  0  0  0  0  0  0  0  0  0
   -2.0297    0.6918    0.8192 N   0  0  0  0  0  4  0  0  0  0  0  0
   -1.3849    1.3723   -0.1740 C   0  0  0  0  0  0  0  0  0  0  0  0
   -0.7800    2.6927    0.0682 C   0  0  0  0  0  0  0  0  0  0  0  0
    0.5428    2.9231    0.1524 C   0  0  0  0  0  0  0  0  0  0  0  0
    1.5730    1.8847    0.0542 C   0  0  0  0  0  0  0  0  0  0  0  0
    2.3977    1.8247   -1.0699 C   0  0  0  0  0  0  0  0  0  0  0  0
    3.3520    0.8065   -1.1931 C   0  0  0  0  0  0  0  0  0  0  0  0
    3.4953   -0.1640   -0.1934 C   0  0  0  0  0  0  0  0  0  0  0  0
    4.4103   -1.1810   -0.2538 O   0  0  0  0  0  0  0  0  0  0  0  0
    5.5882   -0.9298   -1.0149 C   0  0  0  0  0  0  0  0  0  0  0  0
    2.6520   -0.1095    0.9263 C   0  0  0  0  0  0  0  0  0  0  0  0
    2.6915   -0.9758    1.9891 O   0  0  0  0  0  0  0  0  0  0  0  0
    2.6230   -2.3552    1.6211 C   0  0  0  0  0  0  0  0  0  0  0  0
    1.7241    0.9288    1.0625 C   0  0  0  0  0  0  0  0  0  0  0  0
   -1.2811    0.8323   -1.4570 C   0  0  0  0  0  0  0  0  0  0  0  0
   -1.8253   -0.4061   -1.7382 C   0  0  0  0  0  0  0  0  0  0  0  0
   -2.4800   -1.1037   -0.7356 C   0  0  0  0  0  0  0  0  0  0  0  0
   -3.0333   -2.3613   -1.0203 C   0  0  0  0  0  0  0  0  0  0  0  0
   -3.6913   -3.0863   -0.0328 C   0  0  0  0  0  0  0  0  0  0  0  0
   -3.8082   -2.5589    1.2467 C   0  0  0  0  0  0  0  0  0  0  0  0
   -3.2656   -1.3033    1.5431 C   0  0  0  0  0  0  0  0  0  0  0  0
   -2.5856   -0.5449    0.5696 C   0  0  0  0  0  0  0  0  0  0  0  0
   -3.4678    2.8712    1.6186 H   0  0  0  0  0  0  0  0  0  0  0  0
   -3.4625    2.4878    3.3474 H   0  0  0  0  0  0  0  0  0  0  0  0
   -4.2680    1.4092    2.1983 H   0  0  0  0  0  0  0  0  0  0  0  0
   -1.2397    1.9474    2.3481 H   0  0  0  0  0  0  0  0  0  0  0  0
   -1.9891    0.4969    2.9295 H   0  0  0  0  0  0  0  0  0  0  0  0
   -1.4754    3.5258    0.1475 H   0  0  0  0  0  0  0  0  0  0  0  0
    0.9157    3.9375    0.2908 H   0  0  0  0  0  0  0  0  0  0  0  0
    2.3084    2.5625   -1.8661 H   0  0  0  0  0  0  0  0  0  0  0  0
    3.9671    0.7897   -2.0885 H   0  0  0  0  0  0  0  0  0  0  0  0
    6.0316    0.0406   -0.7642 H   0  0  0  0  0  0  0  0  0  0  0  0
    6.3196   -1.7054   -0.7641 H   0  0  0  0  0  0  0  0  0  0  0  0
    5.3807   -1.0021   -2.0877 H   0  0  0  0  0  0  0  0  0  0  0  0
    2.1704   -2.8826    2.4646 H   0  0  0  0  0  0  0  0  0  0  0  0
    1.9762   -2.5231    0.7520 H   0  0  0  0  0  0  0  0  0  0  0  0
    3.6225   -2.7712    1.4601 H   0  0  0  0  0  0  0  0  0  0  0  0
    1.1252    0.9707    1.9669 H   0  0  0  0  0  0  0  0  0  0  0  0
   -0.7613    1.3757   -2.2445 H   0  0  0  0  0  0  0  0  0  0  0  0
   -1.7289   -0.8169   -2.7439 H   0  0  0  0  0  0  0  0  0  0  0  0
   -2.9589   -2.7949   -2.0161 H   0  0  0  0  0  0  0  0  0  0  0  0
   -4.1150   -4.0632   -0.2633 H   0  0  0  0  0  0  0  0  0  0  0  0
   -4.3279   -3.1259    2.0161 H   0  0  0  0  0  0  0  0  0  0  0  0
   -3.4118   -0.9538    2.5608 H   0  0  0  0  0  0  0  0  0  0  0  0
  1  2  1  0
  2  3  1  0
  3  4  2  0
  4  5  1  0
  5  6  2  3
  6  7  1  0
  7  8  2  0
  8  9  1  0
  9 10  2  0
 10 11  1  0
 11 12  1  0
 10 13  1  0
 13 14  1  0
 14 15  1  0
 13 16  2  0
  4 17  1  0
 17 18  2  0
 18 19  1  0
 19 20  2  0
 20 21  1  0
 21 22  2  0
 22 23  1  0
 23 24  2  0
 24  3  1  0
 16  7  1  0
 24 19  1  0
  1 25  1  0
  1 26  1  0
  1 27  1  0
  2 28  1  0
  2 29  1  0
  5 30  1  0
  6 31  1  0
  8 32  1  0
  9 33  1  0
 12 34  1  0
 12 35  1  0
 12 36  1  0
 15 37  1  0
 15 38  1  0
 15 39  1  0
 16 40  1  0
 17 41  1  0
 18 42  1  0
 20 43  1  0
 21 44  1  0
 22 45  1  0
 23 46  1  0
M  CHG  1   3   1
M  END
$$$$
