
     RDKit          3D

 27 27  0  0  0  0  0  0  0  0999 V2000
    3.0042   -1.5438   -1.5489 C   0  0  0  0  0  0  0  0  0  0  0  0
    2.0050   -0.6958   -0.8587 C   0  0  0  0  0  0  0  0  0  0  0  0
    2.1914    0.5527   -0.2514 C   0  0  0  0  0  0  0  0  0  0  0  0
    0.9554    0.9346    0.2533 C   0  0  0  0  0  0  0  0  0  0  0  0
    0.6552    2.1475    0.9620 C   0  0  0  0  0  0  0  0  0  0  0  0
   -0.4025    2.5380    1.4273 O   0  0  0  0  0  0  0  0  0  0  0  0
    1.7562    2.9214    1.0954 O   0  0  0  0  0  0  0  0  0  0  0  0
    0.1002   -0.1050   -0.0797 N   0  0  0  0  0  0  0  0  0  0  0  0
   -1.3468   -0.2830    0.1842 C   0  0  0  0  0  0  0  0  0  0  0  0
   -1.6277   -0.3398    1.6976 C   0  0  0  0  0  0  0  0  0  0  0  0
   -1.8675   -1.6331   -0.3938 C   0  0  0  0  0  0  0  0  0  0  0  0
   -2.1726    0.8159   -0.5110 C   0  0  0  0  0  0  0  0  0  0  0  0
    0.7399   -1.0946   -0.7553 N   0  0  0  0  0  0  0  0  0  0  0  0
    3.0918   -2.5158   -1.0528 H   0  0  0  0  0  0  0  0  0  0  0  0
    2.7124   -1.7111   -2.5908 H   0  0  0  0  0  0  0  0  0  0  0  0
    3.9921   -1.0722   -1.5459 H   0  0  0  0  0  0  0  0  0  0  0  0
    3.1106    1.1190   -0.1819 H   0  0  0  0  0  0  0  0  0  0  0  0
    1.4222    3.7001    1.5852 H   0  0  0  0  0  0  0  0  0  0  0  0
   -1.3942    0.5901    2.2162 H   0  0  0  0  0  0  0  0  0  0  0  0
   -1.0363   -1.1302    2.1752 H   0  0  0  0  0  0  0  0  0  0  0  0
   -2.6855   -0.5517    1.8936 H   0  0  0  0  0  0  0  0  0  0  0  0
   -2.9387   -1.7608   -0.1963 H   0  0  0  0  0  0  0  0  0  0  0  0
   -1.7297   -1.6869   -1.4804 H   0  0  0  0  0  0  0  0  0  0  0  0
   -1.3510   -2.4902    0.0548 H   0  0  0  0  0  0  0  0  0  0  0  0
   -1.9646    0.8386   -1.5874 H   0  0  0  0  0  0  0  0  0  0  0  0
   -3.2473    0.6399   -0.3838 H   0  0  0  0  0  0  0  0  0  0  0  0
   -1.9722    1.8160   -0.1267 H   0  0  0  0  0  0  0  0  0  0  0  0
  1  2  1  0
  2  3  1  0
  3  4  2  0
  4  5  1  0
  5  6  2  0
  5  7  1  0
  4  8  1  0
  8  9  1  0
  9 10  1  0
  9 11  1  0
  9 12  1  0
  8 13  1  0
 13  2  2  0
  1 14  1  0
  1 15  1  0
  1 16  1  0
  3 17  1  0
  7 18  1  0
 10 19  1  0
 10 20  1  0
 10 21  1  0
 11 22  1  0
 11 23  1  0
 11 24  1  0
 12 25  1  0
 12 26  1  0
 12 27  1  0
M  END
$$$$
