
     RDKit          3D

 37 37  0  0  0  0  0  0  0  0999 V2000
   -0.8234   -4.3340    1.1991 C   0  0  0  0  0  0  0  0  0  0  0  0
   -0.8558   -2.9586    0.8035 O   0  0  0  0  0  0  0  0  0  0  0  0
   -1.8412   -2.2333    1.4060 C   0  0  0  0  0  0  0  0  0  0  0  0
   -2.6875   -2.7039    2.1577 O   0  0  0  0  0  0  0  0  0  0  0  0
   -1.8334   -0.7646    0.9359 C   0  0  0  0  0  0  0  0  0  0  0  0
   -3.0696   -0.5501    0.0498 C   0  0  0  0  0  0  0  0  0  0  0  0
   -3.2601    0.8854   -0.4387 C   0  0  0  0  0  0  0  0  0  0  0  0
   -3.6908    2.0296    0.9131 S   0  0  0  0  0  0  0  0  0  0  0  0
   -3.5995    3.5872   -0.0109 C   0  0  0  0  0  0  0  0  0  0  0  0
   -0.6153   -0.4201    0.1920 N   0  0  0  0  0  0  0  0  0  0  0  0
    0.5190   -0.0805    0.8838 C   0  0  0  0  0  0  0  0  0  0  0  0
    0.6014   -0.0336    2.1030 O   0  0  0  0  0  0  0  0  0  0  0  0
    1.5455    0.2052    0.0216 N   0  0  0  0  0  0  0  0  0  0  0  0
    2.7796    0.7203    0.5702 C   0  0  0  0  0  0  0  0  0  0  0  0
    3.7370    0.9477   -0.5592 C   0  0  0  0  0  0  0  0  0  0  0  0
    4.5194    0.0223   -1.2261 C   0  0  0  0  0  0  0  0  0  0  0  0
    5.3036    0.6173   -2.2587 C   0  0  0  0  0  0  0  0  0  0  0  0
    5.0922    1.9777   -2.3474 C   0  0  0  0  0  0  0  0  0  0  0  0
    3.9563    2.5292   -1.1927 S   0  0  0  0  0  0  0  0  0  0  0  0
   -0.6352   -4.4219    2.2751 H   0  0  0  0  0  0  0  0  0  0  0  0
   -1.7582   -4.8359    0.9261 H   0  0  0  0  0  0  0  0  0  0  0  0
    0.0002   -4.8194    0.6601 H   0  0  0  0  0  0  0  0  0  0  0  0
   -1.8750   -0.1462    1.8435 H   0  0  0  0  0  0  0  0  0  0  0  0
   -3.9725   -0.8830    0.5734 H   0  0  0  0  0  0  0  0  0  0  0  0
   -2.9873   -1.1977   -0.8332 H   0  0  0  0  0  0  0  0  0  0  0  0
   -4.0771    0.9044   -1.1669 H   0  0  0  0  0  0  0  0  0  0  0  0
   -2.3572    1.2461   -0.9452 H   0  0  0  0  0  0  0  0  0  0  0  0
   -3.8396    4.4202    0.6622 H   0  0  0  0  0  0  0  0  0  0  0  0
   -4.3207    3.5882   -0.8389 H   0  0  0  0  0  0  0  0  0  0  0  0
   -2.5855    3.7268   -0.4060 H   0  0  0  0  0  0  0  0  0  0  0  0
   -0.4075   -1.0142   -0.6006 H   0  0  0  0  0  0  0  0  0  0  0  0
    1.2375    0.6343   -0.8400 H   0  0  0  0  0  0  0  0  0  0  0  0
    3.1820   -0.0100    1.2821 H   0  0  0  0  0  0  0  0  0  0  0  0
    2.5583    1.6460    1.1208 H   0  0  0  0  0  0  0  0  0  0  0  0
    4.5267   -1.0353   -0.9804 H   0  0  0  0  0  0  0  0  0  0  0  0
    5.9882    0.0739   -2.9044 H   0  0  0  0  0  0  0  0  0  0  0  0
    5.5457    2.6807   -3.0295 H   0  0  0  0  0  0  0  0  0  0  0  0
  1  2  1  0
  2  3  1  0
  3  4  2  0
  3  5  1  0
  5  6  1  0
  6  7  1  0
  7  8  1  0
  8  9  1  0
  5 10  1  0
 10 11  1  0
 11 12  2  0
 11 13  1  0
 13 14  1  0
 14 15  1  0
 15 16  2  0
 16 17  1  0
 17 18  2  0
 18 19  1  0
 19 15  1  0
  1 20  1  0
  1 21  1  0
  1 22  1  0
  5 23  1  0
  6 24  1  0
  6 25  1  0
  7 26  1  0
  7 27  1  0
  9 28  1  0
  9 29  1  0
  9 30  1  0
 10 31  1  0
 13 32  1  0
 14 33  1  0
 14 34  1  0
 16 35  1  0
 17 36  1  0
 18 37  1  0
M  END
$$$$
