
     RDKit          3D

 40 41  0  0  0  0  0  0  0  0999 V2000
   -6.9333   -0.1256   -0.1142 C   0  0  0  0  0  0  0  0  0  0  0  0
   -5.4377   -0.1980   -0.0121 C   0  0  0  0  0  0  0  0  0  0  0  0
   -4.7821    0.3831    1.0682 C   0  0  0  0  0  0  0  0  0  0  0  0
   -3.3972    0.3139    1.1459 C   0  0  0  0  0  0  0  0  0  0  0  0
   -2.6687   -0.3312    0.1401 C   0  0  0  0  0  0  0  0  0  0  0  0
   -1.2100   -0.4336    0.2359 C   0  0  0  0  0  0  0  0  0  0  0  0
   -0.4131    0.6465    0.2615 C   0  0  0  0  0  0  0  0  0  0  0  0
    1.0508    0.5607    0.3355 C   0  0  0  0  0  0  0  0  0  0  0  0
    1.8232    1.4559   -0.4024 C   0  0  0  0  0  0  0  0  0  0  0  0
    3.2250    1.4172   -0.3356 C   0  0  0  0  0  0  0  0  0  0  0  0
    3.9162    0.4939    0.4666 C   0  0  0  0  0  0  0  0  0  0  0  0
    5.3096    0.4726    0.5463 N   0  0  0  0  0  0  0  0  0  0  0  0
    5.9813   -0.6807    1.1439 C   0  0  0  0  0  0  0  0  0  0  0  0
    6.1044    1.2472   -0.4055 C   0  0  0  0  0  0  0  0  0  0  0  0
    3.1115   -0.3756    1.2224 C   0  0  0  0  0  0  0  0  0  0  0  0
    1.7087   -0.3475    1.1638 C   0  0  0  0  0  0  0  0  0  0  0  0
   -3.3262   -0.8897   -0.9129 N   0  0  0  0  0  4  0  0  0  0  0  0
   -2.5785   -1.5469   -2.0050 C   0  0  0  0  0  0  0  0  0  0  0  0
   -4.6775   -0.8283   -0.9953 C   0  0  0  0  0  0  0  0  0  0  0  0
   -7.3047   -0.7026   -0.9676 H   0  0  0  0  0  0  0  0  0  0  0  0
   -7.2516    0.9141   -0.2423 H   0  0  0  0  0  0  0  0  0  0  0  0
   -7.3946   -0.5352    0.7905 H   0  0  0  0  0  0  0  0  0  0  0  0
   -5.3436    0.8868    1.8553 H   0  0  0  0  0  0  0  0  0  0  0  0
   -2.8875    0.7586    1.9996 H   0  0  0  0  0  0  0  0  0  0  0  0
   -0.7979   -1.4389    0.2708 H   0  0  0  0  0  0  0  0  0  0  0  0
   -0.8158    1.6567    0.2003 H   0  0  0  0  0  0  0  0  0  0  0  0
    1.3575    2.2013   -1.0432 H   0  0  0  0  0  0  0  0  0  0  0  0
    3.7636    2.1466   -0.9340 H   0  0  0  0  0  0  0  0  0  0  0  0
    7.0711   -0.5686    1.1180 H   0  0  0  0  0  0  0  0  0  0  0  0
    5.7326   -1.6017    0.6055 H   0  0  0  0  0  0  0  0  0  0  0  0
    5.7147   -0.7886    2.2008 H   0  0  0  0  0  0  0  0  0  0  0  0
    5.9325    0.9027   -1.4311 H   0  0  0  0  0  0  0  0  0  0  0  0
    7.1768    1.1539   -0.2004 H   0  0  0  0  0  0  0  0  0  0  0  0
    5.8772    2.3162   -0.3334 H   0  0  0  0  0  0  0  0  0  0  0  0
    3.5595   -1.0966    1.9007 H   0  0  0  0  0  0  0  0  0  0  0  0
    1.1559   -1.0355    1.7980 H   0  0  0  0  0  0  0  0  0  0  0  0
   -3.2655   -1.8574   -2.7962 H   0  0  0  0  0  0  0  0  0  0  0  0
   -2.0787   -2.4275   -1.5931 H   0  0  0  0  0  0  0  0  0  0  0  0
   -1.8630   -0.8293   -2.4151 H   0  0  0  0  0  0  0  0  0  0  0  0
   -5.1450   -1.2893   -1.8619 H   0  0  0  0  0  0  0  0  0  0  0  0
  1  2  1  0
  2  3  2  0
  3  4  1  0
  4  5  2  0
  5  6  1  0
  6  7  2  3
  7  8  1  0
  8  9  2  0
  9 10  1  0
 10 11  2  0
 11 12  1  0
 12 13  1  0
 12 14  1  0
 11 15  1  0
 15 16  2  0
  5 17  1  0
 17 18  1  0
 17 19  2  0
 19  2  1  0
 16  8  1  0
  1 20  1  0
  1 21  1  0
  1 22  1  0
  3 23  1  0
  4 24  1  0
  6 25  1  0
  7 26  1  0
  9 27  1  0
 10 28  1  0
 13 29  1  0
 13 30  1  0
 13 31  1  0
 14 32  1  0
 14 33  1  0
 14 34  1  0
 15 35  1  0
 16 36  1  0
 18 37  1  0
 18 38  1  0
 18 39  1  0
 19 40  1  0
M  CHG  1  17   1
M  END
$$$$
