
     RDKit          3D

 60 63  0  0  0  0  0  0  0  0999 V2000
   -4.7618    5.3579    1.7170 C   0  0  0  0  0  0  0  0  0  0  0  0
   -5.2967    5.1037    0.5140 C   0  0  0  0  0  0  0  0  0  0  0  0
   -5.7051    3.7790   -0.0763 C   0  0  0  0  0  0  0  0  0  0  0  0
   -5.3469    2.6434    0.7635 N   0  0  0  0  0  0  0  0  0  0  0  0
   -6.2728    2.1458    1.6712 C   0  0  0  0  0  0  0  0  0  0  0  0
   -7.4045    2.6053    1.8014 O   0  0  0  0  0  0  0  0  0  0  0  0
   -5.8611    0.9960    2.5279 C   0  0  0  0  0  0  0  0  0  0  0  0
   -6.7750    0.5138    3.4773 C   0  0  0  0  0  0  0  0  0  0  0  0
   -6.4341   -0.5558    4.3001 C   0  0  0  0  0  0  0  0  0  0  0  0
   -5.1799   -1.1446    4.1794 C   0  0  0  0  0  0  0  0  0  0  0  0
   -4.2605   -0.6717    3.2375 C   0  0  0  0  0  0  0  0  0  0  0  0
   -4.5957    0.3987    2.4024 C   0  0  0  0  0  0  0  0  0  0  0  0
   -3.7331    0.9415    1.4233 N   0  0  0  0  0  0  0  0  0  0  0  0
   -2.4633    0.6399    0.9635 C   0  0  0  0  0  0  0  0  0  0  0  0
   -1.4548   -0.6776    1.4546 S   0  0  0  0  0  0  0  0  0  0  0  0
   -0.0378   -0.4455    0.3473 C   0  0  0  0  0  0  0  0  0  0  0  0
    0.9820   -1.5771    0.4462 C   0  0  0  0  0  0  0  0  0  0  0  0
    0.8173   -2.5683    1.1466 O   0  0  0  0  0  0  0  0  0  0  0  0
    2.0759   -1.3069   -0.3736 N   0  0  0  0  0  0  0  0  0  0  0  0
    3.1842   -2.1071   -0.6189 C   0  0  0  0  0  0  0  0  0  0  0  0
    3.3232   -3.6323    0.1012 S   0  0  0  0  0  0  0  0  0  0  0  0
    4.8089   -3.9578   -0.6557 C   0  0  0  0  0  0  0  0  0  0  0  0
    5.4926   -5.2620   -0.3979 C   0  0  0  0  0  0  0  0  0  0  0  0
    5.2200   -2.9128   -1.4702 C   0  0  0  0  0  0  0  0  0  0  0  0
    6.5031   -2.9381   -2.2673 C   0  0  0  0  0  0  0  0  0  0  0  0
    7.6453   -2.2367   -1.5478 C   0  0  0  0  0  0  0  0  0  0  0  0
    4.2625   -1.8065   -1.4470 C   0  0  0  0  0  0  0  0  0  0  0  0
    4.4082   -0.5473   -2.1995 C   0  0  0  0  0  0  0  0  0  0  0  0
    5.3230   -0.3258   -2.9833 O   0  0  0  0  0  0  0  0  0  0  0  0
    3.4091    0.3543   -1.9435 O   0  0  0  0  0  0  0  0  0  0  0  0
    3.4865    1.6014   -2.6552 C   0  0  0  0  0  0  0  0  0  0  0  0
    2.6435    1.5149   -3.9134 C   0  0  0  0  0  0  0  0  0  0  0  0
   -2.1044    1.4994    0.0344 N   0  0  0  0  0  0  0  0  0  0  0  0
   -3.1370    2.3693   -0.1602 N   0  0  0  0  0  0  0  0  0  0  0  0
   -4.1096    2.0316    0.6568 C   0  0  0  0  0  0  0  0  0  0  0  0
   -4.5210    6.3748    2.0073 H   0  0  0  0  0  0  0  0  0  0  0  0
   -4.5572    4.5794    2.4427 H   0  0  0  0  0  0  0  0  0  0  0  0
   -5.4741    5.9523   -0.1448 H   0  0  0  0  0  0  0  0  0  0  0  0
   -5.2353    3.6570   -1.0593 H   0  0  0  0  0  0  0  0  0  0  0  0
   -6.7885    3.7883   -0.2429 H   0  0  0  0  0  0  0  0  0  0  0  0
   -7.7576    0.9715    3.5788 H   0  0  0  0  0  0  0  0  0  0  0  0
   -7.1442   -0.9281    5.0337 H   0  0  0  0  0  0  0  0  0  0  0  0
   -4.9099   -1.9795    4.8234 H   0  0  0  0  0  0  0  0  0  0  0  0
   -3.3036   -1.1763    3.2097 H   0  0  0  0  0  0  0  0  0  0  0  0
    0.4604    0.4967    0.6016 H   0  0  0  0  0  0  0  0  0  0  0  0
   -0.3874   -0.4028   -0.6908 H   0  0  0  0  0  0  0  0  0  0  0  0
    2.0837   -0.4179   -0.8656 H   0  0  0  0  0  0  0  0  0  0  0  0
    4.9849   -5.8597    0.3666 H   0  0  0  0  0  0  0  0  0  0  0  0
    6.5194   -5.0926   -0.0585 H   0  0  0  0  0  0  0  0  0  0  0  0
    5.5267   -5.8550   -1.3181 H   0  0  0  0  0  0  0  0  0  0  0  0
    6.3467   -2.4919   -3.2551 H   0  0  0  0  0  0  0  0  0  0  0  0
    6.7980   -3.9759   -2.4669 H   0  0  0  0  0  0  0  0  0  0  0  0
    7.8588   -2.7157   -0.5865 H   0  0  0  0  0  0  0  0  0  0  0  0
    7.4123   -1.1858   -1.3509 H   0  0  0  0  0  0  0  0  0  0  0  0
    8.5553   -2.2750   -2.1535 H   0  0  0  0  0  0  0  0  0  0  0  0
    3.0887    2.3777   -1.9912 H   0  0  0  0  0  0  0  0  0  0  0  0
    4.5218    1.8792   -2.8878 H   0  0  0  0  0  0  0  0  0  0  0  0
    1.6044    1.2796   -3.6598 H   0  0  0  0  0  0  0  0  0  0  0  0
    3.0009    0.7156   -4.5714 H   0  0  0  0  0  0  0  0  0  0  0  0
    2.6658    2.4619   -4.4618 H   0  0  0  0  0  0  0  0  0  0  0  0
  1  2  2  0
  2  3  1  0
  3  4  1  0
  4  5  1  0
  5  6  2  0
  5  7  1  0
  7  8  2  0
  8  9  1  0
  9 10  2  0
 10 11  1  0
 11 12  2  0
 12 13  1  0
 13 14  1  0
 14 15  1  0
 15 16  1  0
 16 17  1  0
 17 18  2  0
 17 19  1  0
 19 20  1  0
 20 21  1  0
 21 22  1  0
 22 23  1  0
 22 24  2  0
 24 25  1  0
 25 26  1  0
 24 27  1  0
 27 28  1  0
 28 29  2  0
 28 30  1  0
 30 31  1  0
 31 32  1  0
 14 33  2  0
 33 34  1  0
 34 35  2  0
 35  4  1  0
 12  7  1  0
 35 13  1  0
 27 20  2  0
  1 36  1  0
  1 37  1  0
  2 38  1  0
  3 39  1  0
  3 40  1  0
  8 41  1  0
  9 42  1  0
 10 43  1  0
 11 44  1  0
 16 45  1  0
 16 46  1  0
 19 47  1  0
 23 48  1  0
 23 49  1  0
 23 50  1  0
 25 51  1  0
 25 52  1  0
 26 53  1  0
 26 54  1  0
 26 55  1  0
 31 56  1  0
 31 57  1  0
 32 58  1  0
 32 59  1  0
 32 60  1  0
M  END
$$$$
