
     RDKit          3D

 61 63  0  0  0  0  0  0  0  0999 V2000
   -9.0772    1.6096   -0.3494 C   0  0  0  0  0  0  0  0  0  0  0  0
   -7.8058    1.9025    0.2166 O   0  0  0  0  0  0  0  0  0  0  0  0
   -7.0840    0.8443    0.6959 C   0  0  0  0  0  0  0  0  0  0  0  0
   -7.4910   -0.4898    0.7108 C   0  0  0  0  0  0  0  0  0  0  0  0
   -6.6482   -1.4784    1.2342 C   0  0  0  0  0  0  0  0  0  0  0  0
   -5.3908   -1.1444    1.7569 C   0  0  0  0  0  0  0  0  0  0  0  0
   -4.4676   -2.2091    2.2911 C   0  0  0  0  0  0  0  0  0  0  0  0
   -3.5417   -2.6343    1.2741 N   0  0  0  0  0  0  0  0  0  0  0  0
   -2.2989   -2.0613    1.1395 C   0  0  0  0  0  0  0  0  0  0  0  0
   -1.7634   -1.3095    1.9384 O   0  0  0  0  0  0  0  0  0  0  0  0
   -1.5995   -2.4292   -0.1886 C   0  0  0  0  0  0  0  0  0  0  0  0
   -2.0896   -3.2804   -0.9178 O   0  0  0  0  0  0  0  0  0  0  0  0
   -0.4594   -1.7057   -0.4509 N   0  0  0  0  0  0  0  0  0  0  0  0
    0.1587   -1.7487   -1.7626 C   0  0  0  0  0  0  0  0  0  0  0  0
    1.5550   -1.1073   -1.8254 C   0  0  0  0  0  0  0  0  0  0  0  0
    2.1952   -1.5004   -3.0542 O   0  0  0  0  0  0  0  0  0  0  0  0
    3.0196   -0.3977   -3.4398 C   0  0  0  0  0  0  0  0  0  0  0  0
    2.2027    0.8154   -3.0580 C   0  0  0  0  0  0  0  0  0  0  0  0
    1.4788    0.3642   -1.8651 N   0  0  0  0  0  0  0  0  0  0  0  0
    1.5934    1.2264   -0.4361 S   0  0  0  0  0  6  0  0  0  0  0  0
    1.4595    2.6323   -0.7511 O   0  0  0  0  0  0  0  0  0  0  0  0
    0.7186    0.5892    0.5259 O   0  0  0  0  0  0  0  0  0  0  0  0
    3.2684    0.9595    0.1004 C   0  0  0  0  0  0  0  0  0  0  0  0
    3.5529   -0.0623    1.0076 C   0  0  0  0  0  0  0  0  0  0  0  0
    4.8710   -0.2703    1.4240 C   0  0  0  0  0  0  0  0  0  0  0  0
    5.9003    0.5518    0.9513 C   0  0  0  0  0  0  0  0  0  0  0  0
    7.2222    0.4187    1.2943 O   0  0  0  0  0  0  0  0  0  0  0  0
    7.5936   -0.7223    2.0518 C   0  0  0  0  0  0  0  0  0  0  0  0
    5.5919    1.6189    0.0846 C   0  0  0  0  0  0  0  0  0  0  0  0
    6.6410    2.3963   -0.3435 O   0  0  0  0  0  0  0  0  0  0  0  0
    6.3387    3.7710   -0.5577 C   0  0  0  0  0  0  0  0  0  0  0  0
    4.2771    1.8183   -0.3441 C   0  0  0  0  0  0  0  0  0  0  0  0
   -4.9860    0.1953    1.7316 C   0  0  0  0  0  0  0  0  0  0  0  0
   -5.8278    1.1787    1.2071 C   0  0  0  0  0  0  0  0  0  0  0  0
   -9.5235    2.5533   -0.6774 H   0  0  0  0  0  0  0  0  0  0  0  0
   -8.9782    0.9652   -1.2300 H   0  0  0  0  0  0  0  0  0  0  0  0
   -9.7491    1.1651    0.3934 H   0  0  0  0  0  0  0  0  0  0  0  0
   -8.4570   -0.7961    0.3221 H   0  0  0  0  0  0  0  0  0  0  0  0
   -6.9827   -2.5128    1.2301 H   0  0  0  0  0  0  0  0  0  0  0  0
   -5.0381   -3.0892    2.6069 H   0  0  0  0  0  0  0  0  0  0  0  0
   -3.9281   -1.8370    3.1697 H   0  0  0  0  0  0  0  0  0  0  0  0
   -3.8869   -3.1383    0.4631 H   0  0  0  0  0  0  0  0  0  0  0  0
   -0.3032   -0.8927    0.1557 H   0  0  0  0  0  0  0  0  0  0  0  0
   -0.5227   -1.2548   -2.4669 H   0  0  0  0  0  0  0  0  0  0  0  0
    0.2186   -2.7983   -2.0768 H   0  0  0  0  0  0  0  0  0  0  0  0
    2.1841   -1.4685   -1.0076 H   0  0  0  0  0  0  0  0  0  0  0  0
    3.9580   -0.4520   -2.8764 H   0  0  0  0  0  0  0  0  0  0  0  0
    3.2400   -0.4448   -4.5095 H   0  0  0  0  0  0  0  0  0  0  0  0
    2.8238    1.7004   -2.9137 H   0  0  0  0  0  0  0  0  0  0  0  0
    1.4608    1.0417   -3.8325 H   0  0  0  0  0  0  0  0  0  0  0  0
    2.7618   -0.7001    1.3988 H   0  0  0  0  0  0  0  0  0  0  0  0
    5.0616   -1.0750    2.1281 H   0  0  0  0  0  0  0  0  0  0  0  0
    8.6853   -0.7260    2.1353 H   0  0  0  0  0  0  0  0  0  0  0  0
    7.2962   -1.6493    1.5508 H   0  0  0  0  0  0  0  0  0  0  0  0
    7.1812   -0.6702    3.0644 H   0  0  0  0  0  0  0  0  0  0  0  0
    7.2849    4.3217   -0.5734 H   0  0  0  0  0  0  0  0  0  0  0  0
    5.7240    4.1837    0.2496 H   0  0  0  0  0  0  0  0  0  0  0  0
    5.8540    3.9116   -1.5287 H   0  0  0  0  0  0  0  0  0  0  0  0
    4.0311    2.6256   -1.0253 H   0  0  0  0  0  0  0  0  0  0  0  0
   -4.0058    0.4816    2.1142 H   0  0  0  0  0  0  0  0  0  0  0  0
   -5.4979    2.2140    1.1921 H   0  0  0  0  0  0  0  0  0  0  0  0
  1  2  1  0
  2  3  1  0
  3  4  2  0
  4  5  1  0
  5  6  2  0
  6  7  1  0
  7  8  1  0
  8  9  1  0
  9 10  2  0
  9 11  1  0
 11 12  2  0
 11 13  1  0
 13 14  1  0
 14 15  1  0
 15 16  1  0
 16 17  1  0
 17 18  1  0
 18 19  1  0
 19 20  1  0
 20 21  2  0
 20 22  2  0
 20 23  1  0
 23 24  2  0
 24 25  1  0
 25 26  2  0
 26 27  1  0
 27 28  1  0
 26 29  1  0
 29 30  1  0
 30 31  1  0
 29 32  2  0
  6 33  1  0
 33 34  2  0
 34  3  1  0
 19 15  1  0
 32 23  1  0
  1 35  1  0
  1 36  1  0
  1 37  1  0
  4 38  1  0
  5 39  1  0
  7 40  1  0
  7 41  1  0
  8 42  1  0
 13 43  1  0
 14 44  1  0
 14 45  1  0
 15 46  1  0
 17 47  1  0
 17 48  1  0
 18 49  1  0
 18 50  1  0
 24 51  1  0
 25 52  1  0
 28 53  1  0
 28 54  1  0
 28 55  1  0
 31 56  1  0
 31 57  1  0
 31 58  1  0
 32 59  1  0
 33 60  1  0
 34 61  1  0
M  END
$$$$
