
     RDKit          3D

 51 55  0  0  0  0  0  0  0  0999 V2000
    9.0064   -1.8847    0.3238 Cl  0  0  0  0  0  0  0  0  0  0  0  0
    7.4968   -1.0545    0.4532 C   0  0  0  0  0  0  0  0  0  0  0  0
    6.5042   -1.6305    1.2511 C   0  0  0  0  0  0  0  0  0  0  0  0
    5.2627   -1.0056    1.3925 C   0  0  0  0  0  0  0  0  0  0  0  0
    5.0014    0.2057    0.7403 C   0  0  0  0  0  0  0  0  0  0  0  0
    3.6526    0.8756    0.8754 C   0  0  0  0  0  0  0  0  0  0  0  0
    2.6647    0.3812   -0.1962 C   0  0  0  0  0  0  0  0  0  0  0  0
    1.3834    1.1073   -0.1694 N   0  0  0  0  0  0  0  0  0  0  0  0
    0.5362    0.7703    1.0001 C   0  0  0  0  0  0  0  0  0  0  0  0
   -0.1016   -0.6402    0.9706 C   0  0  0  0  0  0  0  0  0  0  0  0
   -0.8638   -0.8517   -0.2755 N   0  0  0  0  0  0  0  0  0  0  0  0
   -2.2120   -0.4926   -0.2925 C   0  0  0  0  0  0  0  0  0  0  0  0
   -2.6222    0.4191   -1.1374 N   0  0  0  0  0  0  0  0  0  0  0  0
   -3.9700    0.8288   -1.1546 C   0  0  0  0  0  0  0  0  0  0  0  0
   -4.3499    1.8199   -2.0615 C   0  0  0  0  0  0  0  0  0  0  0  0
   -5.6718    2.2705   -2.1138 C   0  0  0  0  0  0  0  0  0  0  0  0
   -6.6301    1.7312   -1.2547 C   0  0  0  0  0  0  0  0  0  0  0  0
   -6.2732    0.7397   -0.3401 C   0  0  0  0  0  0  0  0  0  0  0  0
   -4.9469    0.2999   -0.2990 C   0  0  0  0  0  0  0  0  0  0  0  0
   -4.5039   -0.7001    0.5812 N   0  0  0  0  0  0  0  0  0  0  0  0
   -5.2099   -1.4240    1.5129 C   0  0  0  0  0  0  0  0  0  0  0  0
   -4.3534   -2.3390    2.0864 C   0  0  0  0  0  0  0  0  0  0  0  0
   -3.0836   -2.1534    1.4926 C   0  0  0  0  0  0  0  0  0  0  0  0
   -3.1894   -1.1096    0.5904 C   0  0  0  0  0  0  0  0  0  0  0  0
   -0.0452   -0.5631   -1.4717 C   0  0  0  0  0  0  0  0  0  0  0  0
    0.5903    0.8444   -1.3996 C   0  0  0  0  0  0  0  0  0  0  0  0
    5.9995    0.7767   -0.0632 C   0  0  0  0  0  0  0  0  0  0  0  0
    7.2438    0.1522   -0.2065 C   0  0  0  0  0  0  0  0  0  0  0  0
    8.4180    0.9218   -1.2138 Cl  0  0  0  0  0  0  0  0  0  0  0  0
    6.6919   -2.5692    1.7673 H   0  0  0  0  0  0  0  0  0  0  0  0
    4.5029   -1.4707    2.0179 H   0  0  0  0  0  0  0  0  0  0  0  0
    3.2696    0.6852    1.8847 H   0  0  0  0  0  0  0  0  0  0  0  0
    3.7800    1.9632    0.7988 H   0  0  0  0  0  0  0  0  0  0  0  0
    3.1375    0.5443   -1.1743 H   0  0  0  0  0  0  0  0  0  0  0  0
    2.5236   -0.7023   -0.1049 H   0  0  0  0  0  0  0  0  0  0  0  0
    1.0938    0.8977    1.9336 H   0  0  0  0  0  0  0  0  0  0  0  0
   -0.2712    1.5138    1.0466 H   0  0  0  0  0  0  0  0  0  0  0  0
   -0.7339   -0.7534    1.8567 H   0  0  0  0  0  0  0  0  0  0  0  0
    0.6744   -1.4106    1.0456 H   0  0  0  0  0  0  0  0  0  0  0  0
   -3.6055    2.2437   -2.7304 H   0  0  0  0  0  0  0  0  0  0  0  0
   -5.9511    3.0430   -2.8257 H   0  0  0  0  0  0  0  0  0  0  0  0
   -7.6574    2.0847   -1.2999 H   0  0  0  0  0  0  0  0  0  0  0  0
   -7.0359    0.3339    0.3159 H   0  0  0  0  0  0  0  0  0  0  0  0
   -6.2621   -1.2540    1.6884 H   0  0  0  0  0  0  0  0  0  0  0  0
   -4.6198   -3.0678    2.8413 H   0  0  0  0  0  0  0  0  0  0  0  0
   -2.1859   -2.7215    1.6976 H   0  0  0  0  0  0  0  0  0  0  0  0
    0.7418   -1.3234   -1.5440 H   0  0  0  0  0  0  0  0  0  0  0  0
   -0.6410   -0.6616   -2.3871 H   0  0  0  0  0  0  0  0  0  0  0  0
    1.2105    1.0119   -2.2887 H   0  0  0  0  0  0  0  0  0  0  0  0
   -0.2007    1.6030   -1.4516 H   0  0  0  0  0  0  0  0  0  0  0  0
    5.8058    1.7149   -0.5806 H   0  0  0  0  0  0  0  0  0  0  0  0
  1  2  1  0
  2  3  2  0
  3  4  1  0
  4  5  2  0
  5  6  1  0
  6  7  1  0
  7  8  1  0
  8  9  1  0
  9 10  1  0
 10 11  1  0
 11 12  1  0
 12 13  2  0
 13 14  1  0
 14 15  2  0
 15 16  1  0
 16 17  2  0
 17 18  1  0
 18 19  2  0
 19 20  1  0
 20 21  1  0
 21 22  2  0
 22 23  1  0
 23 24  2  0
 11 25  1  0
 25 26  1  0
  5 27  1  0
 27 28  2  0
 28 29  1  0
 28  2  1  0
 26  8  1  0
 24 12  1  0
 19 14  1  0
 24 20  1  0
  3 30  1  0
  4 31  1  0
  6 32  1  0
  6 33  1  0
  7 34  1  0
  7 35  1  0
  9 36  1  0
  9 37  1  0
 10 38  1  0
 10 39  1  0
 15 40  1  0
 16 41  1  0
 17 42  1  0
 18 43  1  0
 21 44  1  0
 22 45  1  0
 23 46  1  0
 25 47  1  0
 25 48  1  0
 26 49  1  0
 26 50  1  0
 27 51  1  0
M  END
$$$$
