
     RDKit          3D

 62 67  0  0  0  0  0  0  0  0999 V2000
   -2.0924   -3.5954    1.0641 C   0  0  0  0  0  0  0  0  0  0  0  0
   -2.8724   -2.4396    1.3401 O   0  0  0  0  0  0  0  0  0  0  0  0
   -2.9296   -2.0320    2.6499 C   0  0  0  0  0  0  0  0  0  0  0  0
   -2.6567   -2.8698    3.7384 C   0  0  0  0  0  0  0  0  0  0  0  0
   -2.7600   -2.3901    5.0469 C   0  0  0  0  0  0  0  0  0  0  0  0
   -3.1427   -1.0732    5.2818 C   0  0  0  0  0  0  0  0  0  0  0  0
   -3.4259   -0.2322    4.2067 C   0  0  0  0  0  0  0  0  0  0  0  0
   -3.3271   -0.7000    2.8848 C   0  0  0  0  0  0  0  0  0  0  0  0
   -3.6089    0.2275    1.7784 C   0  0  0  0  0  0  0  0  0  0  0  0
   -5.2341    0.6698    1.4868 S   0  0  0  0  0  0  0  0  0  0  0  0
   -4.8203    1.6680    0.1497 C   0  0  0  0  0  0  0  0  0  0  0  0
   -5.7187    2.4116   -0.6474 C   0  0  0  0  0  0  0  0  0  0  0  0
   -5.1679    3.1520   -1.6727 C   0  0  0  0  0  0  0  0  0  0  0  0
   -3.8222    3.1754   -1.9159 C   0  0  0  0  0  0  0  0  0  0  0  0
   -2.9260    2.4567   -1.1493 C   0  0  0  0  0  0  0  0  0  0  0  0
   -3.4349    1.6695   -0.0784 C   0  0  0  0  0  0  0  0  0  0  0  0
   -2.7449    0.8275    0.8763 C   0  0  0  0  0  0  0  0  0  0  0  0
   -1.3052    0.5922    0.9200 C   0  0  0  0  0  0  0  0  0  0  0  0
   -0.6891   -0.1546   -0.0896 C   0  0  0  0  0  0  0  0  0  0  0  0
    0.6915   -0.3833   -0.0619 C   0  0  0  0  0  0  0  0  0  0  0  0
    1.4669    0.1340    0.9759 C   0  0  0  0  0  0  0  0  0  0  0  0
    2.8184   -0.0043    1.1262 O   0  0  0  0  0  0  0  0  0  0  0  0
    3.5286   -0.8469    0.2141 C   0  0  0  0  0  0  0  0  0  0  0  0
    3.9871   -0.0513   -1.0212 C   0  0  0  0  0  0  0  0  0  0  0  0
    4.6659   -0.8702   -2.0414 N   0  0  0  0  0  0  0  0  0  0  0  0
    4.9355   -0.0919   -3.2724 C   0  0  0  0  0  0  0  0  0  0  0  0
    6.3798    0.4241   -3.3686 C   0  0  0  0  0  0  0  0  0  0  0  0
    7.3565   -0.6258   -3.3488 O   0  0  0  0  0  0  0  0  0  0  0  0
    6.9086   -1.7974   -2.6537 C   0  0  0  0  0  0  0  0  0  0  0  0
    5.9175   -1.4712   -1.5260 C   0  0  0  0  0  0  0  0  0  0  0  0
    0.8490    0.8870    1.9788 C   0  0  0  0  0  0  0  0  0  0  0  0
   -0.5287    1.1179    1.9549 C   0  0  0  0  0  0  0  0  0  0  0  0
   -3.4963    3.9701   -2.9712 O   0  0  0  0  0  0  0  0  0  0  0  0
   -4.7997    4.4451   -3.3650 C   0  0  0  0  0  0  0  0  0  0  0  0
   -5.8673    3.9300   -2.5436 O   0  0  0  0  0  0  0  0  0  0  0  0
   -1.0906   -3.5194    1.5006 H   0  0  0  0  0  0  0  0  0  0  0  0
   -1.9765   -3.6678   -0.0216 H   0  0  0  0  0  0  0  0  0  0  0  0
   -2.6048   -4.5008    1.4042 H   0  0  0  0  0  0  0  0  0  0  0  0
   -2.3738   -3.9078    3.5996 H   0  0  0  0  0  0  0  0  0  0  0  0
   -2.5459   -3.0502    5.8839 H   0  0  0  0  0  0  0  0  0  0  0  0
   -3.2236   -0.7012    6.2997 H   0  0  0  0  0  0  0  0  0  0  0  0
   -3.7218    0.7964    4.4013 H   0  0  0  0  0  0  0  0  0  0  0  0
   -6.7864    2.4011   -0.4625 H   0  0  0  0  0  0  0  0  0  0  0  0
   -1.8626    2.4967   -1.3609 H   0  0  0  0  0  0  0  0  0  0  0  0
   -1.2839   -0.5720   -0.8995 H   0  0  0  0  0  0  0  0  0  0  0  0
    1.1219   -0.9639   -0.8707 H   0  0  0  0  0  0  0  0  0  0  0  0
    4.4084   -1.2017    0.7630 H   0  0  0  0  0  0  0  0  0  0  0  0
    2.9589   -1.7461   -0.0482 H   0  0  0  0  0  0  0  0  0  0  0  0
    3.1012    0.4132   -1.4708 H   0  0  0  0  0  0  0  0  0  0  0  0
    4.6224    0.7846   -0.6985 H   0  0  0  0  0  0  0  0  0  0  0  0
    4.7548   -0.7666   -4.1189 H   0  0  0  0  0  0  0  0  0  0  0  0
    4.2303    0.7391   -3.3906 H   0  0  0  0  0  0  0  0  0  0  0  0
    6.5184    0.9804   -4.3012 H   0  0  0  0  0  0  0  0  0  0  0  0
    6.6018    1.1116   -2.5442 H   0  0  0  0  0  0  0  0  0  0  0  0
    6.4618   -2.4827   -3.3836 H   0  0  0  0  0  0  0  0  0  0  0  0
    7.7947   -2.2928   -2.2439 H   0  0  0  0  0  0  0  0  0  0  0  0
    6.4135   -0.7812   -0.8307 H   0  0  0  0  0  0  0  0  0  0  0  0
    5.6765   -2.3895   -0.9799 H   0  0  0  0  0  0  0  0  0  0  0  0
    1.4463    1.2969    2.7897 H   0  0  0  0  0  0  0  0  0  0  0  0
   -0.9858    1.7063    2.7462 H   0  0  0  0  0  0  0  0  0  0  0  0
   -4.8073    5.5395   -3.3050 H   0  0  0  0  0  0  0  0  0  0  0  0
   -4.9820    4.1486   -4.4044 H   0  0  0  0  0  0  0  0  0  0  0  0
  1  2  1  0
  2  3  1  0
  3  4  2  0
  4  5  1  0
  5  6  2  0
  6  7  1  0
  7  8  2  0
  8  9  1  0
  9 10  1  0
 10 11  1  0
 11 12  2  0
 12 13  1  0
 13 14  2  0
 14 15  1  0
 15 16  2  0
 16 17  1  0
 17 18  1  0
 18 19  2  0
 19 20  1  0
 20 21  2  0
 21 22  1  0
 22 23  1  0
 23 24  1  0
 24 25  1  0
 25 26  1  0
 26 27  1  0
 27 28  1  0
 28 29  1  0
 29 30  1  0
 21 31  1  0
 31 32  2  0
 14 33  1  0
 33 34  1  0
 34 35  1  0
  8  3  1  0
 17  9  2  0
 32 18  1  0
 16 11  1  0
 30 25  1  0
 35 13  1  0
  1 36  1  0
  1 37  1  0
  1 38  1  0
  4 39  1  0
  5 40  1  0
  6 41  1  0
  7 42  1  0
 12 43  1  0
 15 44  1  0
 19 45  1  0
 20 46  1  0
 23 47  1  0
 23 48  1  0
 24 49  1  0
 24 50  1  0
 26 51  1  0
 26 52  1  0
 27 53  1  0
 27 54  1  0
 29 55  1  0
 29 56  1  0
 30 57  1  0
 30 58  1  0
 31 59  1  0
 32 60  1  0
 34 61  1  0
 34 62  1  0
M  END
$$$$
