
     RDKit          3D

 57 59  0  0  0  0  0  0  0  0999 V2000
   -4.7878   -0.9122   -3.2838 C   0  0  0  0  0  0  0  0  0  0  0  0
   -5.2473   -0.7761   -1.8365 C   0  0  0  0  0  0  0  0  0  0  0  0
   -4.4083   -1.4331   -0.8196 N   0  0  0  0  0  0  0  0  0  0  0  0
   -4.4712   -2.9001   -0.9365 C   0  0  0  0  0  0  0  0  0  0  0  0
   -3.9773   -3.6248    0.3121 C   0  0  0  0  0  0  0  0  0  0  0  0
   -3.0213   -0.9350   -0.7604 C   0  0  0  0  0  0  0  0  0  0  0  0
   -2.8868    0.5841   -0.5504 C   0  0  0  0  0  0  0  0  0  0  0  0
   -1.5232    0.8739   -0.2147 O   0  0  0  0  0  0  0  0  0  0  0  0
   -1.2366    2.1548    0.1872 C   0  0  0  0  0  0  0  0  0  0  0  0
   -1.9912    3.2562   -0.0381 C   0  0  0  0  0  0  0  0  0  0  0  0
   -1.5096    4.5687    0.5116 C   0  0  2  0  0  0  0  0  0  0  0  0
   -2.0158    5.7154   -0.1575 O   0  0  0  0  0  0  0  0  0  0  0  0
   -1.2123    6.7644    0.2336 C   0  0  0  0  0  0  0  0  0  0  0  0
   -1.4774    7.9342    0.0102 O   0  0  0  0  0  0  0  0  0  0  0  0
    0.2957    6.2708    1.0410 S   0  0  0  0  0  0  0  0  0  0  0  0
    0.0184    4.6341    0.3943 C   0  0  1  0  0  0  0  0  0  0  0  0
    0.6493    3.4670    1.0719 C   0  0  0  0  0  0  0  0  0  0  0  0
    0.0254    2.2729    0.9399 C   0  0  0  0  0  0  0  0  0  0  0  0
    0.6033    1.0853    1.6337 C   0  0  0  0  0  0  0  0  0  0  0  0
    0.0254    0.5470    2.5701 O   0  0  0  0  0  0  0  0  0  0  0  0
    1.9266    0.6328    1.1258 C   0  0  0  0  0  0  0  0  0  0  0  0
    2.5434   -0.3997    1.7203 C   0  0  0  0  0  0  0  0  0  0  0  0
    3.8451   -0.9366    1.3037 C   0  0  0  0  0  0  0  0  0  0  0  0
    4.8922   -0.1186    0.8642 C   0  0  0  0  0  0  0  0  0  0  0  0
    6.1240   -0.6766    0.5109 C   0  0  0  0  0  0  0  0  0  0  0  0
    6.3389   -2.0528    0.6062 C   0  0  0  0  0  0  0  0  0  0  0  0
    7.5898   -2.4649    0.2358 O   0  0  0  0  0  0  0  0  0  0  0  0
    7.8961   -3.8405    0.4363 C   0  0  0  0  0  0  0  0  0  0  0  0
    5.3026   -2.8725    1.0534 C   0  0  0  0  0  0  0  0  0  0  0  0
    4.0668   -2.3156    1.4035 C   0  0  0  0  0  0  0  0  0  0  0  0
   -5.5186   -0.4429   -3.9500 H   0  0  0  0  0  0  0  0  0  0  0  0
   -4.6960   -1.9581   -3.5805 H   0  0  0  0  0  0  0  0  0  0  0  0
   -3.8276   -0.4158   -3.4582 H   0  0  0  0  0  0  0  0  0  0  0  0
   -6.2700   -1.1661   -1.7554 H   0  0  0  0  0  0  0  0  0  0  0  0
   -5.3455    0.2891   -1.5938 H   0  0  0  0  0  0  0  0  0  0  0  0
   -3.9101   -3.2567   -1.8079 H   0  0  0  0  0  0  0  0  0  0  0  0
   -5.5156   -3.2075   -1.0803 H   0  0  0  0  0  0  0  0  0  0  0  0
   -4.2145   -4.6923    0.2408 H   0  0  0  0  0  0  0  0  0  0  0  0
   -4.4601   -3.2339    1.2140 H   0  0  0  0  0  0  0  0  0  0  0  0
   -2.8930   -3.5391    0.4286 H   0  0  0  0  0  0  0  0  0  0  0  0
   -2.4555   -1.2252   -1.6559 H   0  0  0  0  0  0  0  0  0  0  0  0
   -2.4984   -1.4085    0.0793 H   0  0  0  0  0  0  0  0  0  0  0  0
   -3.5417    0.8990    0.2722 H   0  0  0  0  0  0  0  0  0  0  0  0
   -3.1555    1.1147   -1.4703 H   0  0  0  0  0  0  0  0  0  0  0  0
   -2.9386    3.2347   -0.5619 H   0  0  0  0  0  0  0  0  0  0  0  0
   -1.8674    4.6110    1.5546 H   0  0  0  0  0  0  0  0  0  0  0  0
    0.3419    4.6554   -0.6557 H   0  0  0  0  0  0  0  0  0  0  0  0
    1.5693    3.5862    1.6346 H   0  0  0  0  0  0  0  0  0  0  0  0
    2.3451    1.1503    0.2726 H   0  0  0  0  0  0  0  0  0  0  0  0
    2.0721   -0.9059    2.5601 H   0  0  0  0  0  0  0  0  0  0  0  0
    4.7740    0.9599    0.8031 H   0  0  0  0  0  0  0  0  0  0  0  0
    6.9275   -0.0308    0.1681 H   0  0  0  0  0  0  0  0  0  0  0  0
    7.8233   -4.1088    1.4975 H   0  0  0  0  0  0  0  0  0  0  0  0
    7.2554   -4.4836   -0.1780 H   0  0  0  0  0  0  0  0  0  0  0  0
    8.9314   -4.0032    0.1201 H   0  0  0  0  0  0  0  0  0  0  0  0
    5.4173   -3.9477    1.1413 H   0  0  0  0  0  0  0  0  0  0  0  0
    3.2737   -2.9769    1.7481 H   0  0  0  0  0  0  0  0  0  0  0  0
  1  2  1  0
  2  3  1  0
  3  4  1  0
  4  5  1  0
  3  6  1  0
  6  7  1  0
  7  8  1  0
  8  9  1  0
  9 10  2  0
 10 11  1  0
 11 12  1  0
 12 13  1  0
 13 14  2  0
 13 15  1  0
 15 16  1  0
 16 17  1  0
 17 18  2  0
 18 19  1  0
 19 20  2  0
 19 21  1  0
 21 22  2  0
 22 23  1  0
 23 24  2  0
 24 25  1  0
 25 26  2  0
 26 27  1  0
 27 28  1  0
 26 29  1  0
 29 30  2  0
 18  9  1  0
 30 23  1  0
 16 11  1  0
  1 31  1  0
  1 32  1  0
  1 33  1  0
  2 34  1  0
  2 35  1  0
  4 36  1  0
  4 37  1  0
  5 38  1  0
  5 39  1  0
  5 40  1  0
  6 41  1  0
  6 42  1  0
  7 43  1  0
  7 44  1  0
 10 45  1  0
 11 46  1  1
 16 47  1  6
 17 48  1  0
 21 49  1  0
 22 50  1  0
 24 51  1  0
 25 52  1  0
 28 53  1  0
 28 54  1  0
 28 55  1  0
 29 56  1  0
 30 57  1  0
M  END
$$$$
