
     RDKit          3D

 44 46  0  0  0  0  0  0  0  0999 V2000
    3.6983   -2.5928   -1.4233 C   0  0  0  0  0  0  0  0  0  0  0  0
    4.8710   -1.7930   -1.5214 O   0  0  0  0  0  0  0  0  0  0  0  0
    4.9109   -0.6710   -0.7345 C   0  0  0  0  0  0  0  0  0  0  0  0
    3.9748   -0.3115    0.2355 C   0  0  0  0  0  0  0  0  0  0  0  0
    4.1241    0.8831    0.9582 C   0  0  0  0  0  0  0  0  0  0  0  0
    3.1650    1.2773    1.9979 C   0  0  0  0  0  0  0  0  0  0  0  0
    1.8424    1.4483    1.8531 C   0  0  0  0  0  0  0  0  0  0  0  0
    0.8188    1.8825    3.1887 S   0  0  0  0  0  0  0  0  0  0  0  0
   -0.6546    1.8079    2.2283 C   0  0  0  0  0  0  0  0  0  0  0  0
   -2.1744    2.0828    2.8499 S   0  0  0  0  0  0  0  0  0  0  0  0
   -0.3107    1.5149    0.9280 N   0  0  0  0  0  0  0  0  0  0  0  0
   -1.3475    1.2344   -0.1531 N   0  0  0  0  0  0  0  0  0  0  0  0
   -1.6880   -0.4380   -0.3147 S   0  0  0  0  0  6  0  0  0  0  0  0
   -1.1981   -1.1138    0.8690 O   0  0  0  0  0  0  0  0  0  0  0  0
   -1.2584   -0.8241   -1.6406 O   0  0  0  0  0  0  0  0  0  0  0  0
   -3.4578   -0.4384   -0.2856 C   0  0  0  0  0  0  0  0  0  0  0  0
   -4.1343   -0.7718    0.8889 C   0  0  0  0  0  0  0  0  0  0  0  0
   -5.5293   -0.7919    0.8974 C   0  0  0  0  0  0  0  0  0  0  0  0
   -6.2513   -0.4799   -0.2616 C   0  0  0  0  0  0  0  0  0  0  0  0
   -7.7513   -0.5329   -0.2533 C   0  0  0  0  0  0  0  0  0  0  0  0
   -5.5590   -0.1768   -1.4418 C   0  0  0  0  0  0  0  0  0  0  0  0
   -4.1633   -0.1562   -1.4576 C   0  0  0  0  0  0  0  0  0  0  0  0
    1.0213    1.3106    0.6133 C   0  0  0  0  0  0  0  0  0  0  0  0
    1.4343    1.0732   -0.5137 O   0  0  0  0  0  0  0  0  0  0  0  0
    5.2449    1.6930    0.7333 C   0  0  0  0  0  0  0  0  0  0  0  0
    6.1901    1.3329   -0.2261 C   0  0  0  0  0  0  0  0  0  0  0  0
    6.0127    0.1615   -0.9487 C   0  0  0  0  0  0  0  0  0  0  0  0
    6.9520   -0.1681   -1.8873 O   0  0  0  0  0  0  0  0  0  0  0  0
    2.8074   -2.0257   -1.7106 H   0  0  0  0  0  0  0  0  0  0  0  0
    3.5926   -3.0159   -0.4170 H   0  0  0  0  0  0  0  0  0  0  0  0
    3.8041   -3.4276   -2.1241 H   0  0  0  0  0  0  0  0  0  0  0  0
    3.1148   -0.9421    0.4374 H   0  0  0  0  0  0  0  0  0  0  0  0
    3.6241    1.4410    2.9736 H   0  0  0  0  0  0  0  0  0  0  0  0
   -1.0045    1.5495   -1.0706 H   0  0  0  0  0  0  0  0  0  0  0  0
   -3.5913   -1.0163    1.7995 H   0  0  0  0  0  0  0  0  0  0  0  0
   -6.0511   -1.0546    1.8169 H   0  0  0  0  0  0  0  0  0  0  0  0
   -8.1458   -0.2661    0.7325 H   0  0  0  0  0  0  0  0  0  0  0  0
   -8.1704    0.1764   -0.9719 H   0  0  0  0  0  0  0  0  0  0  0  0
   -8.0921   -1.5386   -0.5102 H   0  0  0  0  0  0  0  0  0  0  0  0
   -6.1061    0.0395   -2.3573 H   0  0  0  0  0  0  0  0  0  0  0  0
   -3.6403    0.0718   -2.3830 H   0  0  0  0  0  0  0  0  0  0  0  0
    5.3885    2.6117    1.2947 H   0  0  0  0  0  0  0  0  0  0  0  0
    7.0567    1.9593   -0.4107 H   0  0  0  0  0  0  0  0  0  0  0  0
    6.6309   -1.0044   -2.2775 H   0  0  0  0  0  0  0  0  0  0  0  0
  1  2  1  0
  2  3  1  0
  3  4  2  0
  4  5  1  0
  5  6  1  0
  6  7  2  3
  7  8  1  0
  8  9  1  0
  9 10  2  0
  9 11  1  0
 11 12  1  0
 12 13  1  0
 13 14  2  0
 13 15  2  0
 13 16  1  0
 16 17  2  0
 17 18  1  0
 18 19  2  0
 19 20  1  0
 19 21  1  0
 21 22  2  0
 11 23  1  0
 23 24  2  0
  5 25  2  0
 25 26  1  0
 26 27  2  0
 27 28  1  0
 27  3  1  0
 23  7  1  0
 22 16  1  0
  1 29  1  0
  1 30  1  0
  1 31  1  0
  4 32  1  0
  6 33  1  0
 12 34  1  0
 17 35  1  0
 18 36  1  0
 20 37  1  0
 20 38  1  0
 20 39  1  0
 21 40  1  0
 22 41  1  0
 25 42  1  0
 26 43  1  0
 28 44  1  0
M  END
$$$$
