
     RDKit          3D

 32 34  0  0  0  0  0  0  0  0999 V2000
   -3.3514    1.4674   -2.8807 C   0  0  0  0  0  0  0  0  0  0  0  0
   -2.4449    0.5550   -2.0721 C   0  0  0  0  0  0  0  0  0  0  0  0
   -2.9757   -0.7651   -2.1477 O   0  0  0  0  0  0  0  0  0  0  0  0
   -2.2490   -1.7633   -1.5055 C   0  0  0  0  0  0  0  0  0  0  0  0
   -2.7918   -3.0455   -1.6890 C   0  0  0  0  0  0  0  0  0  0  0  0
   -2.1990   -4.1659   -1.1192 C   0  0  0  0  0  0  0  0  0  0  0  0
   -1.0463   -4.0407   -0.3448 C   0  0  0  0  0  0  0  0  0  0  0  0
   -0.5046   -2.7580   -0.1560 C   0  0  0  0  0  0  0  0  0  0  0  0
    0.8916   -2.3153    0.7481 S   0  0  0  0  0  0  0  0  0  0  0  0
    0.6459   -0.6887    0.3442 C   0  0  0  0  0  0  0  0  0  0  0  0
    1.4552    0.3327    0.7705 N   0  0  0  0  0  0  0  0  0  0  0  0
    2.5980    0.2385    1.5375 C   0  0  0  0  0  0  0  0  0  0  0  0
    3.0813   -0.8167    1.9337 O   0  0  0  0  0  0  0  0  0  0  0  0
    3.2113    1.5372    1.8365 C   0  0  0  0  0  0  0  0  0  0  0  0
    2.7240    2.8287    1.6902 C   0  0  0  0  0  0  0  0  0  0  0  0
    3.6625    3.8238    2.1052 C   0  0  0  0  0  0  0  0  0  0  0  0
    4.8223    3.2526    2.5574 C   0  0  0  0  0  0  0  0  0  0  0  0
    6.3123    4.2613    3.2007 Br  0  0  0  0  0  0  0  0  0  0  0  0
    4.8043    1.5645    2.4969 S   0  0  0  0  0  0  0  0  0  0  0  0
   -0.3926   -0.4322   -0.4112 N   0  0  0  0  0  0  0  0  0  0  0  0
   -1.0756   -1.6094   -0.7165 C   0  0  0  0  0  0  0  0  0  0  0  0
   -2.9886    2.4984   -2.8559 H   0  0  0  0  0  0  0  0  0  0  0  0
   -4.3735    1.4414   -2.4891 H   0  0  0  0  0  0  0  0  0  0  0  0
   -3.4006    1.1359   -3.9231 H   0  0  0  0  0  0  0  0  0  0  0  0
   -1.4389    0.5891   -2.5033 H   0  0  0  0  0  0  0  0  0  0  0  0
   -2.4368    0.9020   -1.0334 H   0  0  0  0  0  0  0  0  0  0  0  0
   -3.6914   -3.1611   -2.2903 H   0  0  0  0  0  0  0  0  0  0  0  0
   -2.6381   -5.1483   -1.2783 H   0  0  0  0  0  0  0  0  0  0  0  0
   -0.5807   -4.9141    0.1025 H   0  0  0  0  0  0  0  0  0  0  0  0
    1.1513    1.2278    0.4246 H   0  0  0  0  0  0  0  0  0  0  0  0
    1.7380    3.0761    1.3172 H   0  0  0  0  0  0  0  0  0  0  0  0
    3.4813    4.8920    2.0752 H   0  0  0  0  0  0  0  0  0  0  0  0
  1  2  1  0
  2  3  1  0
  3  4  1  0
  4  5  2  0
  5  6  1  0
  6  7  2  0
  7  8  1  0
  8  9  1  0
  9 10  1  0
 10 11  1  0
 11 12  1  0
 12 13  2  0
 12 14  1  0
 14 15  2  0
 15 16  1  0
 16 17  2  0
 17 18  1  0
 17 19  1  0
 10 20  2  0
 20 21  1  0
 21  4  1  0
 21  8  2  0
 19 14  1  0
  1 22  1  0
  1 23  1  0
  1 24  1  0
  2 25  1  0
  2 26  1  0
  5 27  1  0
  6 28  1  0
  7 29  1  0
 11 30  1  0
 15 31  1  0
 16 32  1  0
M  END
$$$$
