
     RDKit          3D

 37 38  0  0  0  0  0  0  0  0999 V2000
    0.5370    0.8348   -0.0682 O   0  0  0  0  0  0  0  0  0  0  0  0
    0.5663    0.1460   -1.0799 C   0  0  0  0  0  0  0  0  0  0  0  0
   -0.6964   -0.4048   -1.7289 C   0  0  0  0  0  0  0  0  0  0  0  0
   -1.9698   -0.1149   -0.9356 C   0  0  0  0  0  0  0  0  0  0  0  0
   -2.0759   -0.9714    0.3306 C   0  0  0  0  0  0  0  0  0  0  0  0
   -3.3482   -0.6821    1.0875 C   0  0  0  0  0  0  0  0  0  0  0  0
   -3.4021    0.3873    1.9915 C   0  0  0  0  0  0  0  0  0  0  0  0
   -4.5811    0.6705    2.6823 C   0  0  0  0  0  0  0  0  0  0  0  0
   -5.7169   -0.1093    2.4730 C   0  0  0  0  0  0  0  0  0  0  0  0
   -5.6753   -1.1717    1.5717 C   0  0  0  0  0  0  0  0  0  0  0  0
   -4.4970   -1.4565    0.8795 C   0  0  0  0  0  0  0  0  0  0  0  0
    1.7003   -0.2224   -1.7873 N   0  0  0  0  0  0  0  0  0  0  0  0
    3.0424    0.0933   -1.4877 C   0  0  0  0  0  0  0  0  0  0  0  0
    4.0172   -0.3789   -2.3800 C   0  0  0  0  0  0  0  0  0  0  0  0
    5.3740   -0.1177   -2.1705 C   0  0  0  0  0  0  0  0  0  0  0  0
    5.7758    0.6209   -1.0610 C   0  0  0  0  0  0  0  0  0  0  0  0
    4.8082    1.0929   -0.1648 C   0  0  0  0  0  0  0  0  0  0  0  0
    5.2328    1.8696    1.0074 N   0  0  0  0  0  4  0  0  0  0  0  0
    4.3740    2.1770    1.8446 O   0  0  0  0  0  0  0  0  0  0  0  0
    6.4327    2.1707    1.0918 O   0  0  0  0  0  1  0  0  0  0  0  0
    3.4443    0.8327   -0.3726 C   0  0  0  0  0  0  0  0  0  0  0  0
   -0.7839    0.0650   -2.7162 H   0  0  0  0  0  0  0  0  0  0  0  0
   -0.5819   -1.4848   -1.8782 H   0  0  0  0  0  0  0  0  0  0  0  0
   -2.0199    0.9508   -0.6792 H   0  0  0  0  0  0  0  0  0  0  0  0
   -2.8340   -0.3203   -1.5804 H   0  0  0  0  0  0  0  0  0  0  0  0
   -1.2203   -0.8016    0.9948 H   0  0  0  0  0  0  0  0  0  0  0  0
   -2.0424   -2.0360    0.0663 H   0  0  0  0  0  0  0  0  0  0  0  0
   -2.5223    1.0057    2.1600 H   0  0  0  0  0  0  0  0  0  0  0  0
   -4.6118    1.5008    3.3829 H   0  0  0  0  0  0  0  0  0  0  0  0
   -6.6344    0.1121    3.0114 H   0  0  0  0  0  0  0  0  0  0  0  0
   -6.5617   -1.7785    1.4072 H   0  0  0  0  0  0  0  0  0  0  0  0
   -4.4811   -2.2864    0.1775 H   0  0  0  0  0  0  0  0  0  0  0  0
    1.5488   -0.7723   -2.6242 H   0  0  0  0  0  0  0  0  0  0  0  0
    3.7343   -0.9584   -3.2563 H   0  0  0  0  0  0  0  0  0  0  0  0
    6.1155   -0.4908   -2.8737 H   0  0  0  0  0  0  0  0  0  0  0  0
    6.8351    0.8176   -0.9075 H   0  0  0  0  0  0  0  0  0  0  0  0
    2.7175    1.2112    0.3400 H   0  0  0  0  0  0  0  0  0  0  0  0
  1  2  2  0
  2  3  1  0
  3  4  1  0
  4  5  1  0
  5  6  1  0
  6  7  2  0
  7  8  1  0
  8  9  2  0
  9 10  1  0
 10 11  2  0
  2 12  1  0
 12 13  1  0
 13 14  2  0
 14 15  1  0
 15 16  2  0
 16 17  1  0
 17 18  1  0
 18 19  2  0
 18 20  1  0
 17 21  2  0
 11  6  1  0
 21 13  1  0
  3 22  1  0
  3 23  1  0
  4 24  1  0
  4 25  1  0
  5 26  1  0
  5 27  1  0
  7 28  1  0
  8 29  1  0
  9 30  1  0
 10 31  1  0
 11 32  1  0
 12 33  1  0
 14 34  1  0
 15 35  1  0
 16 36  1  0
 21 37  1  0
M  CHG  2  18   1  20  -1
M  END
$$$$
