
     RDKit          3D

 35 37  0  0  0  0  0  0  0  0999 V2000
    7.5023   -0.4295    0.8213 C   0  0  0  0  0  0  0  0  0  0  0  0
    6.3089   -0.4482    1.5950 O   0  0  0  0  0  0  0  0  0  0  0  0
    5.1295   -0.3279    0.9147 C   0  0  0  0  0  0  0  0  0  0  0  0
    3.9875   -0.3496    1.7176 C   0  0  0  0  0  0  0  0  0  0  0  0
    2.7125   -0.2359    1.1530 C   0  0  0  0  0  0  0  0  0  0  0  0
    2.5568   -0.0978   -0.2324 C   0  0  0  0  0  0  0  0  0  0  0  0
    1.2456    0.0230   -0.8562 C   0  0  0  0  0  0  0  0  0  0  0  0
    0.9221    0.1609   -2.1254 N   0  0  0  0  0  0  0  0  0  0  0  0
   -0.4565    0.2284   -2.1714 N   0  0  0  0  0  0  0  0  0  0  0  0
   -0.8777    0.1285   -0.9323 C   0  0  0  0  0  0  0  0  0  0  0  0
   -2.1264    0.1268   -0.3854 N   0  0  0  0  0  0  0  0  0  0  0  0
   -3.2491    0.3125   -1.1540 C   0  0  0  0  0  0  0  0  0  0  0  0
   -3.2836    0.5356   -2.3570 O   0  0  0  0  0  0  0  0  0  0  0  0
   -4.5383    0.2708   -0.4053 C   0  0  0  0  0  0  0  0  0  0  0  0
   -4.7285   -0.5706    0.7019 C   0  0  0  0  0  0  0  0  0  0  0  0
   -5.9565   -0.5745    1.3690 C   0  0  0  0  0  0  0  0  0  0  0  0
   -6.9856    0.2500    0.9251 C   0  0  0  0  0  0  0  0  0  0  0  0
   -8.1596    0.2408    1.5688 F   0  0  0  0  0  0  0  0  0  0  0  0
   -6.8164    1.0756   -0.1802 C   0  0  0  0  0  0  0  0  0  0  0  0
   -5.5922    1.0830   -0.8513 C   0  0  0  0  0  0  0  0  0  0  0  0
    0.1462   -0.0078   -0.0356 O   0  0  0  0  0  0  0  0  0  0  0  0
    3.7098   -0.0769   -1.0312 C   0  0  0  0  0  0  0  0  0  0  0  0
    4.9863   -0.1909   -0.4645 C   0  0  0  0  0  0  0  0  0  0  0  0
    7.6166    0.5240    0.2950 H   0  0  0  0  0  0  0  0  0  0  0  0
    7.5338   -1.2732    0.1240 H   0  0  0  0  0  0  0  0  0  0  0  0
    8.3476   -0.5338    1.5084 H   0  0  0  0  0  0  0  0  0  0  0  0
    4.0917   -0.4561    2.7951 H   0  0  0  0  0  0  0  0  0  0  0  0
    1.8482   -0.2567    1.8126 H   0  0  0  0  0  0  0  0  0  0  0  0
   -2.1687    0.0573    0.6180 H   0  0  0  0  0  0  0  0  0  0  0  0
   -3.9506   -1.2504    1.0378 H   0  0  0  0  0  0  0  0  0  0  0  0
   -6.1239   -1.2231    2.2238 H   0  0  0  0  0  0  0  0  0  0  0  0
   -7.6366    1.7026   -0.5163 H   0  0  0  0  0  0  0  0  0  0  0  0
   -5.4596    1.7220   -1.7232 H   0  0  0  0  0  0  0  0  0  0  0  0
    3.6223    0.0296   -2.1124 H   0  0  0  0  0  0  0  0  0  0  0  0
    5.8423   -0.1684   -1.1311 H   0  0  0  0  0  0  0  0  0  0  0  0
  1  2  1  0
  2  3  1  0
  3  4  2  0
  4  5  1  0
  5  6  2  0
  6  7  1  0
  7  8  2  0
  8  9  1  0
  9 10  2  0
 10 11  1  0
 11 12  1  0
 12 13  2  0
 12 14  1  0
 14 15  2  0
 15 16  1  0
 16 17  2  0
 17 18  1  0
 17 19  1  0
 19 20  2  0
 10 21  1  0
  6 22  1  0
 22 23  2  0
 23  3  1  0
 21  7  1  0
 20 14  1  0
  1 24  1  0
  1 25  1  0
  1 26  1  0
  4 27  1  0
  5 28  1  0
 11 29  1  0
 15 30  1  0
 16 31  1  0
 19 32  1  0
 20 33  1  0
 22 34  1  0
 23 35  1  0
M  END
$$$$
