
     RDKit          3D

 67 72  0  0  0  0  0  0  0  0999 V2000
   -4.2013   -4.8715    0.7110 C   0  0  0  0  0  0  0  0  0  0  0  0
   -3.3313   -3.7047    1.0713 C   0  0  0  0  0  0  0  0  0  0  0  0
   -3.0943   -3.3481    2.4121 C   0  0  0  0  0  0  0  0  0  0  0  0
   -3.7855   -4.2512    3.7169 Cl  0  0  0  0  0  0  0  0  0  0  0  0
   -2.2935   -2.2401    2.7513 C   0  0  0  0  0  0  0  0  0  0  0  0
   -1.7050   -1.4529    1.7613 C   0  0  0  0  0  0  0  0  0  0  0  0
   -1.9267   -1.7941    0.4348 C   0  0  0  0  0  0  0  0  0  0  0  0
   -2.7361   -2.8950    0.1103 C   0  0  0  0  0  0  0  0  0  0  0  0
   -2.8424   -3.0070   -1.2741 N   0  0  0  0  0  0  0  0  0  0  0  0
   -2.1458   -1.9939   -1.9363 C   0  0  0  0  0  0  0  0  0  0  0  0
   -2.1107   -1.8633   -3.1515 O   0  0  0  0  0  0  0  0  0  0  0  0
   -1.4496   -1.1427   -0.8416 C   0  0  1  0  0  0  0  0  0  0  0  0
   -1.8820    0.2689   -0.8011 C   0  0  0  0  0  0  0  0  0  0  0  0
   -0.7991    1.1382   -0.9287 C   0  0  0  0  0  0  0  0  0  0  0  0
   -1.2634    2.4279   -0.9151 C   0  0  0  0  0  0  0  0  0  0  0  0
   -0.5988    3.5773   -0.9948 O   0  0  0  0  0  0  0  0  0  0  0  0
   -2.6583    2.3644   -0.7207 N   0  0  0  0  0  0  0  0  0  0  0  0
   -3.5393    3.4738   -0.5077 C   0  0  0  0  0  0  0  0  0  0  0  0
   -4.6736    3.3240    0.3094 C   0  0  0  0  0  0  0  0  0  0  0  0
   -5.5347    4.4032    0.5235 C   0  0  0  0  0  0  0  0  0  0  0  0
   -5.2622    5.6282   -0.0714 C   0  0  0  0  0  0  0  0  0  0  0  0
   -6.0892    6.6609    0.1356 F   0  0  0  0  0  0  0  0  0  0  0  0
   -4.1409    5.7976   -0.8729 C   0  0  0  0  0  0  0  0  0  0  0  0
   -3.2741    4.7225   -1.0887 C   0  0  0  0  0  0  0  0  0  0  0  0
   -3.0337    1.0059   -0.7443 C   0  0  0  0  0  0  0  0  0  0  0  0
   -4.2896    0.5621   -0.7640 O   0  0  0  0  0  0  0  0  0  0  0  0
    0.4710    0.3974   -1.0811 C   0  0  1  0  0  0  0  0  0  0  0  0
    1.5183    0.6882    0.0070 C   0  0  0  0  0  0  0  0  0  0  0  0
    2.6626   -0.2198   -0.0932 N   0  0  0  0  0  0  0  0  0  0  0  0
    3.9334    0.2438    0.1739 C   0  0  0  0  0  0  0  0  0  0  0  0
    4.1684    1.3848    0.5491 O   0  0  0  0  0  0  0  0  0  0  0  0
    4.8741   -0.7112   -0.0364 O   0  0  0  0  0  0  0  0  0  0  0  0
    6.2819   -0.4373    0.1803 C   0  0  0  0  0  0  0  0  0  0  0  0
    6.5645   -0.0956    1.6472 C   0  0  0  0  0  0  0  0  0  0  0  0
    6.7913    0.6502   -0.7719 C   0  0  0  0  0  0  0  0  0  0  0  0
    6.9904   -1.7575   -0.1601 C   0  0  0  0  0  0  0  0  0  0  0  0
    2.3929   -1.5818   -0.5683 C   0  0  0  0  0  0  0  0  0  0  0  0
    0.9083   -1.9696   -0.4182 C   0  0  0  0  0  0  0  0  0  0  0  0
    0.0200   -1.0343   -1.1040 N   0  0  0  0  0  0  0  0  0  0  0  0
   -5.2379   -4.6733    1.0018 H   0  0  0  0  0  0  0  0  0  0  0  0
   -4.1941   -5.0832   -0.3615 H   0  0  0  0  0  0  0  0  0  0  0  0
   -3.8509   -5.7807    1.2106 H   0  0  0  0  0  0  0  0  0  0  0  0
   -2.1349   -1.9847    3.7971 H   0  0  0  0  0  0  0  0  0  0  0  0
   -1.1001   -0.5919    2.0281 H   0  0  0  0  0  0  0  0  0  0  0  0
   -3.3934   -3.6833   -1.7791 H   0  0  0  0  0  0  0  0  0  0  0  0
    0.3438    3.3810   -1.1368 H   0  0  0  0  0  0  0  0  0  0  0  0
   -4.8793    2.3930    0.8340 H   0  0  0  0  0  0  0  0  0  0  0  0
   -6.4062    4.3002    1.1626 H   0  0  0  0  0  0  0  0  0  0  0  0
   -3.9464    6.7642   -1.3270 H   0  0  0  0  0  0  0  0  0  0  0  0
   -2.4181    4.8781   -1.7399 H   0  0  0  0  0  0  0  0  0  0  0  0
   -4.8587    1.2600   -1.1370 H   0  0  0  0  0  0  0  0  0  0  0  0
    0.9063    0.6160   -2.0646 H   0  0  0  0  0  0  0  0  0  0  0  0
    1.8511    1.7304   -0.0558 H   0  0  0  0  0  0  0  0  0  0  0  0
    1.0918    0.5519    1.0091 H   0  0  0  0  0  0  0  0  0  0  0  0
    6.1127   -0.8388    2.3137 H   0  0  0  0  0  0  0  0  0  0  0  0
    6.1455    0.8747    1.9299 H   0  0  0  0  0  0  0  0  0  0  0  0
    7.6408   -0.0573    1.8464 H   0  0  0  0  0  0  0  0  0  0  0  0
    7.8819    0.7413   -0.7266 H   0  0  0  0  0  0  0  0  0  0  0  0
    6.3715    1.6318   -0.5330 H   0  0  0  0  0  0  0  0  0  0  0  0
    6.5035    0.4285   -1.8058 H   0  0  0  0  0  0  0  0  0  0  0  0
    6.6243   -2.5719    0.4759 H   0  0  0  0  0  0  0  0  0  0  0  0
    8.0753   -1.6813   -0.0342 H   0  0  0  0  0  0  0  0  0  0  0  0
    6.7815   -2.0557   -1.1940 H   0  0  0  0  0  0  0  0  0  0  0  0
    3.0183   -2.2898   -0.0134 H   0  0  0  0  0  0  0  0  0  0  0  0
    2.6953   -1.6248   -1.6216 H   0  0  0  0  0  0  0  0  0  0  0  0
    0.7576   -2.9795   -0.8152 H   0  0  0  0  0  0  0  0  0  0  0  0
    0.7029   -2.0023    0.6565 H   0  0  0  0  0  0  0  0  0  0  0  0
  1  2  1  0
  2  3  2  0
  3  4  1  0
  3  5  1  0
  5  6  2  0
  6  7  1  0
  7  8  2  0
  8  9  1  0
  9 10  1  0
 10 11  2  0
 10 12  1  0
 12 13  1  0
 13 14  1  0
 14 15  2  0
 15 16  1  0
 15 17  1  0
 17 18  1  0
 18 19  2  0
 19 20  1  0
 20 21  2  0
 21 22  1  0
 21 23  1  0
 23 24  2  0
 17 25  1  0
 25 26  1  0
 14 27  1  0
 27 28  1  0
 28 29  1  0
 29 30  1  0
 30 31  2  0
 30 32  1  0
 32 33  1  0
 33 34  1  0
 33 35  1  0
 33 36  1  0
 29 37  1  0
 37 38  1  0
 38 39  1  0
  8  2  1  0
 12 39  1  6
 12  7  1  0
 25 13  2  0
 39 27  1  0
 24 18  1  0
  1 40  1  0
  1 41  1  0
  1 42  1  0
  5 43  1  0
  6 44  1  0
  9 45  1  0
 16 46  1  0
 19 47  1  0
 20 48  1  0
 23 49  1  0
 24 50  1  0
 26 51  1  0
 27 52  1  6
 28 53  1  0
 28 54  1  0
 34 55  1  0
 34 56  1  0
 34 57  1  0
 35 58  1  0
 35 59  1  0
 35 60  1  0
 36 61  1  0
 36 62  1  0
 36 63  1  0
 37 64  1  0
 37 65  1  0
 38 66  1  0
 38 67  1  0
M  END
$$$$
