
     RDKit          3D

 57 60  0  0  0  0  0  0  0  0999 V2000
   -6.4697   -2.9900    2.1672 C   0  0  0  0  0  0  0  0  0  0  0  0
   -6.5278   -1.6495    1.6951 O   0  0  0  0  0  0  0  0  0  0  0  0
   -5.3349   -1.0338    1.4299 C   0  0  0  0  0  0  0  0  0  0  0  0
   -4.0701   -1.5931    1.5999 C   0  0  0  0  0  0  0  0  0  0  0  0
   -2.9230   -0.8539    1.2886 C   0  0  0  0  0  0  0  0  0  0  0  0
   -3.0328    0.4498    0.8054 C   0  0  0  0  0  0  0  0  0  0  0  0
   -1.9258    1.2594    0.4634 N   0  0  0  0  0  0  0  0  0  0  0  0
   -0.5778    0.9577    0.5621 C   0  0  0  0  0  0  0  0  0  0  0  0
   -0.1101   -0.0818    1.0188 O   0  0  0  0  0  0  0  0  0  0  0  0
    0.3068    2.0881    0.0609 C   0  0  0  0  0  0  0  0  0  0  0  0
    1.4169    1.6106   -0.7508 N   0  0  0  0  0  0  0  0  0  0  0  0
    2.7308    1.6739   -0.3734 C   0  0  0  0  0  0  0  0  0  0  0  0
    3.4871    1.1222   -1.3873 C   0  0  0  0  0  0  0  0  0  0  0  0
    5.1943    0.8548   -1.3336 S   0  0  0  0  0  6  0  0  0  0  0  0
    5.6449    1.0716   -2.6961 O   0  0  0  0  0  0  0  0  0  0  0  0
    5.6821    1.6870   -0.2497 O   0  0  0  0  0  0  0  0  0  0  0  0
    5.3786   -0.8778   -0.9363 C   0  0  0  0  0  0  0  0  0  0  0  0
    4.7497   -1.2048    0.3923 C   0  0  0  0  0  0  0  0  0  0  0  0
    3.4443   -1.7142    0.4583 C   0  0  0  0  0  0  0  0  0  0  0  0
    2.8477   -1.9769    1.6921 C   0  0  0  0  0  0  0  0  0  0  0  0
    3.5532   -1.7522    2.8718 C   0  0  0  0  0  0  0  0  0  0  0  0
    4.8551   -1.2593    2.8195 C   0  0  0  0  0  0  0  0  0  0  0  0
    5.4505   -0.9844    1.5874 C   0  0  0  0  0  0  0  0  0  0  0  0
    2.6058    0.7478   -2.4425 C   0  0  0  0  0  0  0  0  0  0  0  0
    2.7696    0.1557   -3.7143 C   0  0  0  0  0  0  0  0  0  0  0  0
    1.6517   -0.0947   -4.5160 C   0  0  0  0  0  0  0  0  0  0  0  0
    0.3760    0.2314   -4.0712 C   0  0  0  0  0  0  0  0  0  0  0  0
    0.1808    0.8173   -2.8178 C   0  0  0  0  0  0  0  0  0  0  0  0
    1.3086    1.0677   -2.0179 C   0  0  0  0  0  0  0  0  0  0  0  0
   -4.3110    1.0190    0.6304 C   0  0  0  0  0  0  0  0  0  0  0  0
   -4.3193    2.3083    0.1457 O   0  0  0  0  0  0  0  0  0  0  0  0
   -5.5928    2.9194   -0.0320 C   0  0  0  0  0  0  0  0  0  0  0  0
   -5.4503    0.2731    0.9456 C   0  0  0  0  0  0  0  0  0  0  0  0
   -5.9960   -3.6485    1.4318 H   0  0  0  0  0  0  0  0  0  0  0  0
   -7.4969   -3.3376    2.3110 H   0  0  0  0  0  0  0  0  0  0  0  0
   -5.9606   -3.0456    3.1346 H   0  0  0  0  0  0  0  0  0  0  0  0
   -3.9343   -2.6026    1.9736 H   0  0  0  0  0  0  0  0  0  0  0  0
   -1.9588   -1.3294    1.4348 H   0  0  0  0  0  0  0  0  0  0  0  0
   -2.2011    2.1771    0.1246 H   0  0  0  0  0  0  0  0  0  0  0  0
    0.7089    2.6261    0.9265 H   0  0  0  0  0  0  0  0  0  0  0  0
   -0.2510    2.8018   -0.5550 H   0  0  0  0  0  0  0  0  0  0  0  0
    3.0309    2.0603    0.5935 H   0  0  0  0  0  0  0  0  0  0  0  0
    6.4521   -1.0944   -0.9197 H   0  0  0  0  0  0  0  0  0  0  0  0
    4.9361   -1.4640   -1.7486 H   0  0  0  0  0  0  0  0  0  0  0  0
    2.8642   -1.8880   -0.4466 H   0  0  0  0  0  0  0  0  0  0  0  0
    1.8229   -2.3400    1.7304 H   0  0  0  0  0  0  0  0  0  0  0  0
    3.0834   -1.9518    3.8310 H   0  0  0  0  0  0  0  0  0  0  0  0
    5.4036   -1.0758    3.7397 H   0  0  0  0  0  0  0  0  0  0  0  0
    6.4605   -0.5780    1.5699 H   0  0  0  0  0  0  0  0  0  0  0  0
    3.7596   -0.0952   -4.0880 H   0  0  0  0  0  0  0  0  0  0  0  0
    1.7847   -0.5445   -5.4968 H   0  0  0  0  0  0  0  0  0  0  0  0
   -0.4831    0.0278   -4.7066 H   0  0  0  0  0  0  0  0  0  0  0  0
   -0.8234    1.0586   -2.4839 H   0  0  0  0  0  0  0  0  0  0  0  0
   -5.4255    3.9294   -0.4182 H   0  0  0  0  0  0  0  0  0  0  0  0
   -6.1226    3.0120    0.9220 H   0  0  0  0  0  0  0  0  0  0  0  0
   -6.1928    2.3765   -0.7702 H   0  0  0  0  0  0  0  0  0  0  0  0
   -6.4499    0.6774    0.8261 H   0  0  0  0  0  0  0  0  0  0  0  0
  1  2  1  0
  2  3  1  0
  3  4  2  0
  4  5  1  0
  5  6  2  0
  6  7  1  0
  7  8  1  0
  8  9  2  0
  8 10  1  0
 10 11  1  0
 11 12  1  0
 12 13  2  0
 13 14  1  0
 14 15  2  0
 14 16  2  0
 14 17  1  0
 17 18  1  0
 18 19  2  0
 19 20  1  0
 20 21  2  0
 21 22  1  0
 22 23  2  0
 13 24  1  0
 24 25  2  0
 25 26  1  0
 26 27  2  0
 27 28  1  0
 28 29  2  0
  6 30  1  0
 30 31  1  0
 31 32  1  0
 30 33  2  0
 33  3  1  0
 29 11  1  0
 23 18  1  0
 29 24  1  0
  1 34  1  0
  1 35  1  0
  1 36  1  0
  4 37  1  0
  5 38  1  0
  7 39  1  0
 10 40  1  0
 10 41  1  0
 12 42  1  0
 17 43  1  0
 17 44  1  0
 19 45  1  0
 20 46  1  0
 21 47  1  0
 22 48  1  0
 23 49  1  0
 25 50  1  0
 26 51  1  0
 27 52  1  0
 28 53  1  0
 32 54  1  0
 32 55  1  0
 32 56  1  0
 33 57  1  0
M  END
$$$$
