
     RDKit          3D

 64 69  0  0  0  0  0  0  0  0999 V2000
    6.5167    1.6740    1.9996 F   0  0  0  0  0  0  0  0  0  0  0  0
    7.2732    1.5020    0.8776 C   0  0  0  0  0  0  0  0  0  0  0  0
    8.0847    0.4384    1.1351 F   0  0  0  0  0  0  0  0  0  0  0  0
    8.0984    2.5879    0.8276 F   0  0  0  0  0  0  0  0  0  0  0  0
    6.4420    1.3117   -0.3723 C   0  0  0  0  0  0  0  0  0  0  0  0
    6.7100    2.1183   -1.4963 C   0  0  0  0  0  0  0  0  0  0  0  0
    5.9759    1.9802   -2.6744 C   0  0  0  0  0  0  0  0  0  0  0  0
    4.9606    1.0337   -2.7497 C   0  0  0  0  0  0  0  0  0  0  0  0
    4.6829    0.2214   -1.6510 C   0  0  0  0  0  0  0  0  0  0  0  0
    5.4169    0.3395   -0.4567 C   0  0  0  0  0  0  0  0  0  0  0  0
    5.0644   -0.5807    0.6979 C   0  0  0  0  0  0  0  0  0  0  0  0
    3.9199   -0.0548    1.5878 C   0  0  0  0  0  0  0  0  0  0  0  0
    2.5902   -0.1373    0.9650 N   0  0  0  0  0  0  0  0  0  0  0  0
    1.6208    0.7257    1.6667 C   0  0  0  0  0  0  0  0  0  0  0  0
    0.1725    0.5378    1.1639 C   0  0  0  0  0  0  0  0  0  0  0  0
   -0.2867   -0.8678    1.2440 N   0  0  0  0  0  0  0  0  0  0  0  0
   -1.2511   -1.2778    0.3223 C   0  0  0  0  0  0  0  0  0  0  0  0
   -0.9806   -2.2761   -0.4811 N   0  0  0  0  0  0  0  0  0  0  0  0
   -1.9152   -2.6924   -1.4494 C   0  0  0  0  0  0  0  0  0  0  0  0
   -1.5677   -3.7473   -2.2952 C   0  0  0  0  0  0  0  0  0  0  0  0
   -2.4553   -4.1975   -3.2767 C   0  0  0  0  0  0  0  0  0  0  0  0
   -3.7048   -3.5931   -3.4218 C   0  0  0  0  0  0  0  0  0  0  0  0
   -4.0724   -2.5356   -2.5895 C   0  0  0  0  0  0  0  0  0  0  0  0
   -3.1729   -2.0946   -1.6135 C   0  0  0  0  0  0  0  0  0  0  0  0
   -3.4631   -1.0415   -0.7308 N   0  0  0  0  0  0  0  0  0  0  0  0
   -4.6016   -0.2771   -0.6265 C   0  0  0  0  0  0  0  0  0  0  0  0
   -4.4475    0.6041    0.4281 C   0  0  0  0  0  0  0  0  0  0  0  0
   -5.4649    1.5548    0.8592 C   0  0  0  0  0  0  0  0  0  0  0  0
   -6.3645    2.1223   -0.0543 C   0  0  0  0  0  0  0  0  0  0  0  0
   -7.3281    3.0414    0.3707 C   0  0  0  0  0  0  0  0  0  0  0  0
   -7.4010    3.4066    1.7132 C   0  0  0  0  0  0  0  0  0  0  0  0
   -6.5128    2.8519    2.6318 C   0  0  0  0  0  0  0  0  0  0  0  0
   -5.5500    1.9316    2.2071 C   0  0  0  0  0  0  0  0  0  0  0  0
   -3.1587    0.3498    0.9742 C   0  0  0  0  0  0  0  0  0  0  0  0
   -2.5546   -0.6398    0.2206 C   0  0  0  0  0  0  0  0  0  0  0  0
    0.7803   -1.8161    1.6115 C   0  0  0  0  0  0  0  0  0  0  0  0
    2.0851   -1.5260    0.8407 C   0  0  0  0  0  0  0  0  0  0  0  0
    7.5004    2.8674   -1.4573 H   0  0  0  0  0  0  0  0  0  0  0  0
    6.1940    2.6126   -3.5314 H   0  0  0  0  0  0  0  0  0  0  0  0
    4.3793    0.9269   -3.6626 H   0  0  0  0  0  0  0  0  0  0  0  0
    3.8765   -0.5073   -1.7266 H   0  0  0  0  0  0  0  0  0  0  0  0
    4.8329   -1.5775    0.3023 H   0  0  0  0  0  0  0  0  0  0  0  0
    5.9492   -0.7388    1.3251 H   0  0  0  0  0  0  0  0  0  0  0  0
    4.1383    0.9907    1.8403 H   0  0  0  0  0  0  0  0  0  0  0  0
    3.9181   -0.6096    2.5349 H   0  0  0  0  0  0  0  0  0  0  0  0
    1.6507    0.5335    2.7477 H   0  0  0  0  0  0  0  0  0  0  0  0
    1.9012    1.7760    1.5208 H   0  0  0  0  0  0  0  0  0  0  0  0
   -0.4850    1.1707    1.7677 H   0  0  0  0  0  0  0  0  0  0  0  0
    0.1145    0.8879    0.1248 H   0  0  0  0  0  0  0  0  0  0  0  0
   -0.5947   -4.2192   -2.1858 H   0  0  0  0  0  0  0  0  0  0  0  0
   -2.1693   -5.0201   -3.9268 H   0  0  0  0  0  0  0  0  0  0  0  0
   -4.3933   -3.9487   -4.1850 H   0  0  0  0  0  0  0  0  0  0  0  0
   -5.0497   -2.0830   -2.7200 H   0  0  0  0  0  0  0  0  0  0  0  0
   -5.4407   -0.4324   -1.2886 H   0  0  0  0  0  0  0  0  0  0  0  0
   -6.3183    1.8679   -1.1100 H   0  0  0  0  0  0  0  0  0  0  0  0
   -8.0174    3.4746   -0.3494 H   0  0  0  0  0  0  0  0  0  0  0  0
   -8.1489    4.1229    2.0433 H   0  0  0  0  0  0  0  0  0  0  0  0
   -6.5680    3.1344    3.6805 H   0  0  0  0  0  0  0  0  0  0  0  0
   -4.8754    1.5045    2.9449 H   0  0  0  0  0  0  0  0  0  0  0  0
   -2.7170    0.8440    1.8283 H   0  0  0  0  0  0  0  0  0  0  0  0
    0.9627   -1.7304    2.6903 H   0  0  0  0  0  0  0  0  0  0  0  0
    0.4722   -2.8560    1.4508 H   0  0  0  0  0  0  0  0  0  0  0  0
    2.8334   -2.2591    1.1629 H   0  0  0  0  0  0  0  0  0  0  0  0
    1.9135   -1.7097   -0.2265 H   0  0  0  0  0  0  0  0  0  0  0  0
  1  2  1  0
  2  3  1  0
  2  4  1  0
  2  5  1  0
  5  6  2  0
  6  7  1  0
  7  8  2  0
  8  9  1  0
  9 10  2  0
 10 11  1  0
 11 12  1  0
 12 13  1  0
 13 14  1  0
 14 15  1  0
 15 16  1  0
 16 17  1  0
 17 18  2  0
 18 19  1  0
 19 20  2  0
 20 21  1  0
 21 22  2  0
 22 23  1  0
 23 24  2  0
 24 25  1  0
 25 26  1  0
 26 27  2  0
 27 28  1  0
 28 29  2  0
 29 30  1  0
 30 31  2  0
 31 32  1  0
 32 33  2  0
 27 34  1  0
 34 35  2  0
 16 36  1  0
 36 37  1  0
 10  5  1  0
 37 13  1  0
 35 17  1  0
 24 19  1  0
 35 25  1  0
 33 28  1  0
  6 38  1  0
  7 39  1  0
  8 40  1  0
  9 41  1  0
 11 42  1  0
 11 43  1  0
 12 44  1  0
 12 45  1  0
 14 46  1  0
 14 47  1  0
 15 48  1  0
 15 49  1  0
 20 50  1  0
 21 51  1  0
 22 52  1  0
 23 53  1  0
 26 54  1  0
 29 55  1  0
 30 56  1  0
 31 57  1  0
 32 58  1  0
 33 59  1  0
 34 60  1  0
 36 61  1  0
 36 62  1  0
 37 63  1  0
 37 64  1  0
M  END
$$$$
