
     RDKit          3D

 33 34  0  0  0  0  0  0  0  0999 V2000
   -2.7658   -0.6178    1.4806 C   0  0  0  0  0  0  0  0  0  0  0  0
   -1.8695    0.6097    1.3754 C   0  0  0  0  0  0  0  0  0  0  0  0
   -1.3555    0.7880    0.0077 N   0  0  0  0  0  0  0  0  0  0  0  0
   -2.2568    1.5042   -0.9084 C   0  0  0  0  0  0  0  0  0  0  0  0
   -2.0509    3.0111   -0.8242 C   0  0  0  0  0  0  0  0  0  0  0  0
   -0.0897    0.3076   -0.3926 C   0  0  0  0  0  0  0  0  0  0  0  0
    0.4568    0.7911   -1.6074 C   0  0  0  0  0  0  0  0  0  0  0  0
    1.6981    0.3953   -2.0837 C   0  0  0  0  0  0  0  0  0  0  0  0
    2.4335   -0.5119   -1.3360 C   0  0  0  0  0  0  0  0  0  0  0  0
    3.7310   -0.8829   -1.8690 N   0  0  0  0  0  4  0  0  0  0  0  0
    4.7298   -0.5551   -1.2149 O   0  0  0  0  0  0  0  0  0  0  0  0
    3.7424   -1.4820   -2.9524 O   0  0  0  0  0  1  0  0  0  0  0  0
    1.9626   -1.0588   -0.1239 C   0  0  0  0  0  0  0  0  0  0  0  0
    2.6935   -2.0144    0.6302 C   0  0  0  0  0  0  0  0  0  0  0  0
    2.1898   -2.5357    1.8090 C   0  0  0  0  0  0  0  0  0  0  0  0
    0.9581   -2.0919    2.2086 C   0  0  0  0  0  0  0  0  0  0  0  0
    0.2341   -1.1886    1.5159 N   0  0  0  0  0  0  0  0  0  0  0  0
    0.6888   -0.6468    0.3578 C   0  0  0  0  0  0  0  0  0  0  0  0
   -3.0775   -0.7681    2.5190 H   0  0  0  0  0  0  0  0  0  0  0  0
   -3.6708   -0.4946    0.8766 H   0  0  0  0  0  0  0  0  0  0  0  0
   -2.2705   -1.5291    1.1350 H   0  0  0  0  0  0  0  0  0  0  0  0
   -1.0746    0.6115    2.1270 H   0  0  0  0  0  0  0  0  0  0  0  0
   -2.4770    1.4838    1.6451 H   0  0  0  0  0  0  0  0  0  0  0  0
   -3.2995    1.2884   -0.6434 H   0  0  0  0  0  0  0  0  0  0  0  0
   -2.1572    1.1496   -1.9405 H   0  0  0  0  0  0  0  0  0  0  0  0
   -1.0258    3.3003   -1.0729 H   0  0  0  0  0  0  0  0  0  0  0  0
   -2.2612    3.3827    0.1839 H   0  0  0  0  0  0  0  0  0  0  0  0
   -2.7256    3.5223   -1.5181 H   0  0  0  0  0  0  0  0  0  0  0  0
   -0.0751    1.5188   -2.2125 H   0  0  0  0  0  0  0  0  0  0  0  0
    2.0761    0.8005   -3.0194 H   0  0  0  0  0  0  0  0  0  0  0  0
    3.6710   -2.3683    0.3069 H   0  0  0  0  0  0  0  0  0  0  0  0
    2.7429   -3.2636    2.3905 H   0  0  0  0  0  0  0  0  0  0  0  0
    0.4944   -2.4549    3.1210 H   0  0  0  0  0  0  0  0  0  0  0  0
  1  2  1  0
  2  3  1  0
  3  4  1  0
  4  5  1  0
  3  6  1  0
  6  7  2  0
  7  8  1  0
  8  9  2  0
  9 10  1  0
 10 11  2  0
 10 12  1  0
  9 13  1  0
 13 14  2  0
 14 15  1  0
 15 16  2  0
 16 17  1  0
 17 18  2  0
 18  6  1  0
 18 13  1  0
  1 19  1  0
  1 20  1  0
  1 21  1  0
  2 22  1  0
  2 23  1  0
  4 24  1  0
  4 25  1  0
  5 26  1  0
  5 27  1  0
  5 28  1  0
  7 29  1  0
  8 30  1  0
 14 31  1  0
 15 32  1  0
 16 33  1  0
M  CHG  2  10   1  12  -1
M  END
$$$$
