
     RDKit          3D

 98102  0  0  0  0  0  0  0  0999 V2000
    8.9080   -0.7012   -0.9227 C   0  0  0  0  0  0  0  0  0  0  0  0
    8.1049   -1.6369   -1.7863 C   0  0  0  0  0  0  0  0  0  0  0  0
    8.7005   -1.8799   -3.1489 C   0  0  0  0  0  0  0  0  0  0  0  0
    6.9607   -2.2549   -1.4297 C   0  0  0  0  0  0  0  0  0  0  0  0
    6.1884   -2.1375   -0.1720 C   0  0  0  0  0  0  0  0  0  0  0  0
    5.4776   -3.0469    0.2300 O   0  0  0  0  0  0  0  0  0  0  0  0
    6.3294   -0.9180    0.3854 O   0  0  0  0  0  0  0  0  0  0  0  0
    5.6176   -0.6952    1.6062 C   0  0  0  0  0  0  0  0  0  0  0  0
    4.3969    0.1494    1.3355 C   0  0  0  0  0  0  0  0  0  0  0  0
    3.1879   -0.4166    1.1650 C   0  0  0  0  0  0  0  0  0  0  0  0
    1.9555    0.3983    0.9017 C   0  0  0  0  0  0  0  0  0  0  0  0
    0.7011   -0.3007    1.4036 C   0  0  0  0  0  0  0  0  0  0  0  0
    0.3423   -0.3146    2.5755 O   0  0  0  0  0  0  0  0  0  0  0  0
    0.0241   -0.8570    0.3637 O   0  0  0  0  0  0  0  0  0  0  0  0
   -1.3071   -1.3483    0.6328 C   0  0  1  0  0  0  0  0  0  0  0  0
   -2.2752   -0.1657    0.6624 C   0  0  0  0  0  0  0  0  0  0  0  0
   -3.7287   -0.6357    0.6297 C   0  0  1  0  0  0  0  0  0  0  0  0
   -4.7427    0.5295    0.5463 C   0  0  0  0  0  0  0  0  0  0  0  0
   -4.4365    1.5261   -0.5467 C   0  0  0  0  0  0  0  0  0  0  0  0
   -4.4594    2.8728   -0.4577 C   0  0  0  0  0  0  0  0  0  0  0  0
   -4.9658    3.6154    0.7475 C   0  0  0  0  0  0  0  0  0  0  0  0
   -3.9742    3.7213   -1.6271 C   0  0  0  0  0  0  0  0  0  0  0  0
   -2.6776    4.5517   -1.4029 C   0  0  1  0  0  0  0  0  0  0  0  0
   -2.9814    5.9160   -0.7690 C   0  0  0  0  0  0  0  0  0  0  0  0
   -1.5977    3.7419   -0.7061 C   0  0  0  0  0  0  0  0  0  0  0  0
   -1.0805    3.9795    0.5102 C   0  0  0  0  0  0  0  0  0  0  0  0
   -0.1535    3.1032    1.1838 C   0  0  0  0  0  0  0  0  0  0  0  0
    1.0540    2.7189    0.7415 C   0  0  0  0  0  0  0  0  0  0  0  0
    1.7671    3.1750   -0.5035 C   0  0  0  0  0  0  0  0  0  0  0  0
    3.1582    2.7836   -0.3363 O   0  0  0  0  0  0  0  0  0  0  0  0
    3.3410    2.5354    1.0903 C   0  0  2  0  0  0  0  0  0  0  0  0
    3.5875    3.9077    1.7670 C   0  0  0  0  0  0  0  0  0  0  0  0
    4.5929    1.6483    1.3622 C   0  0  2  0  0  0  0  0  0  0  0  0
    5.6249    1.9976    0.4380 O   0  0  0  0  0  0  0  0  0  0  0  0
    2.0264    1.8402    1.4906 C   0  0  2  0  0  0  0  0  0  0  0  0
    1.8510    1.9142    2.9030 O   0  0  0  0  0  0  0  0  0  0  0  0
   -3.9522   -1.5075   -0.4860 O   0  0  0  0  0  0  0  0  0  0  0  0
   -3.1462   -2.6905   -0.4624 C   0  0  2  0  0  0  0  0  0  0  0  0
   -3.5249   -3.5139   -1.7134 C   0  0  0  0  0  0  0  0  0  0  0  0
   -3.3850   -5.0076   -1.4571 C   0  0  0  0  0  0  0  0  0  0  0  0
   -4.2640   -5.4424   -0.2703 C   0  0  2  0  0  0  0  0  0  0  0  0
   -5.5868   -6.0408   -0.7547 C   0  0  0  0  0  0  0  0  0  0  0  0
   -4.5143   -4.2667    0.6979 C   0  0  1  0  0  0  0  0  0  0  0  0
   -4.7845   -4.7472    2.1198 C   0  0  0  0  0  0  0  0  0  0  0  0
   -3.3510   -3.4394    0.7419 O   0  0  0  0  0  0  0  0  0  0  0  0
   -1.6676   -2.2959   -0.5106 C   0  0  0  0  0  0  0  0  0  0  0  0
    8.7334    0.3362   -1.2243 H   0  0  0  0  0  0  0  0  0  0  0  0
    8.6921   -0.8026    0.1431 H   0  0  0  0  0  0  0  0  0  0  0  0
    9.9774   -0.9123   -1.0327 H   0  0  0  0  0  0  0  0  0  0  0  0
    8.7952   -0.9343   -3.6934 H   0  0  0  0  0  0  0  0  0  0  0  0
    8.0853   -2.5514   -3.7577 H   0  0  0  0  0  0  0  0  0  0  0  0
    9.6939   -2.3319   -3.0556 H   0  0  0  0  0  0  0  0  0  0  0  0
    6.5009   -2.9671   -2.1104 H   0  0  0  0  0  0  0  0  0  0  0  0
    5.3543   -1.6329    2.1115 H   0  0  0  0  0  0  0  0  0  0  0  0
    6.2942   -0.1731    2.2931 H   0  0  0  0  0  0  0  0  0  0  0  0
    3.0934   -1.5024    1.1537 H   0  0  0  0  0  0  0  0  0  0  0  0
    1.8687    0.4494   -0.1937 H   0  0  0  0  0  0  0  0  0  0  0  0
   -1.3222   -1.8937    1.5847 H   0  0  0  0  0  0  0  0  0  0  0  0
   -2.0931    0.4600    1.5436 H   0  0  0  0  0  0  0  0  0  0  0  0
   -2.0496    0.4620   -0.2085 H   0  0  0  0  0  0  0  0  0  0  0  0
   -3.9557   -1.1885    1.5500 H   0  0  0  0  0  0  0  0  0  0  0  0
   -5.7416    0.1185    0.3559 H   0  0  0  0  0  0  0  0  0  0  0  0
   -4.7626    1.0235    1.5228 H   0  0  0  0  0  0  0  0  0  0  0  0
   -4.1162    1.0706   -1.4842 H   0  0  0  0  0  0  0  0  0  0  0  0
   -5.5284    4.5041    0.4397 H   0  0  0  0  0  0  0  0  0  0  0  0
   -5.6555    3.0153    1.3495 H   0  0  0  0  0  0  0  0  0  0  0  0
   -4.1370    3.9285    1.3880 H   0  0  0  0  0  0  0  0  0  0  0  0
   -3.7906    3.0648   -2.4901 H   0  0  0  0  0  0  0  0  0  0  0  0
   -4.7906    4.3824   -1.9459 H   0  0  0  0  0  0  0  0  0  0  0  0
   -2.2823    4.7808   -2.4029 H   0  0  0  0  0  0  0  0  0  0  0  0
   -3.3855    5.8315    0.2428 H   0  0  0  0  0  0  0  0  0  0  0  0
   -2.0743    6.5302   -0.7170 H   0  0  0  0  0  0  0  0  0  0  0  0
   -3.7113    6.4655   -1.3736 H   0  0  0  0  0  0  0  0  0  0  0  0
   -1.2742    2.8575   -1.2525 H   0  0  0  0  0  0  0  0  0  0  0  0
   -1.4319    4.8144    1.1112 H   0  0  0  0  0  0  0  0  0  0  0  0
   -0.4903    2.7722    2.1666 H   0  0  0  0  0  0  0  0  0  0  0  0
    1.7304    4.2606   -0.6333 H   0  0  0  0  0  0  0  0  0  0  0  0
    1.3908    2.6774   -1.4017 H   0  0  0  0  0  0  0  0  0  0  0  0
    4.4764    4.3865    1.3386 H   0  0  0  0  0  0  0  0  0  0  0  0
    3.7379    3.8057    2.8472 H   0  0  0  0  0  0  0  0  0  0  0  0
    2.7639    4.6116    1.6074 H   0  0  0  0  0  0  0  0  0  0  0  0
    4.9715    1.8772    2.3667 H   0  0  0  0  0  0  0  0  0  0  0  0
    5.1605    2.2055   -0.3966 H   0  0  0  0  0  0  0  0  0  0  0  0
    1.2353    1.2041    3.1821 H   0  0  0  0  0  0  0  0  0  0  0  0
   -2.9219   -3.2128   -2.5783 H   0  0  0  0  0  0  0  0  0  0  0  0
   -4.5635   -3.3008   -2.0002 H   0  0  0  0  0  0  0  0  0  0  0  0
   -3.6294   -5.5747   -2.3633 H   0  0  0  0  0  0  0  0  0  0  0  0
   -2.3355   -5.2314   -1.2260 H   0  0  0  0  0  0  0  0  0  0  0  0
   -3.7175   -6.2391    0.2531 H   0  0  0  0  0  0  0  0  0  0  0  0
   -6.1985   -6.3881    0.0846 H   0  0  0  0  0  0  0  0  0  0  0  0
   -6.1700   -5.3048   -1.3198 H   0  0  0  0  0  0  0  0  0  0  0  0
   -5.4051   -6.9007   -1.4092 H   0  0  0  0  0  0  0  0  0  0  0  0
   -5.3714   -3.6601    0.3756 H   0  0  0  0  0  0  0  0  0  0  0  0
   -4.9207   -3.8899    2.7890 H   0  0  0  0  0  0  0  0  0  0  0  0
   -5.6797   -5.3723    2.1736 H   0  0  0  0  0  0  0  0  0  0  0  0
   -3.9327   -5.3142    2.5111 H   0  0  0  0  0  0  0  0  0  0  0  0
   -1.4355   -1.7997   -1.4624 H   0  0  0  0  0  0  0  0  0  0  0  0
   -1.0225   -3.1820   -0.4547 H   0  0  0  0  0  0  0  0  0  0  0  0
  1  2  1  0
  2  3  1  0
  2  4  2  3
  4  5  1  0
  5  6  2  0
  5  7  1  0
  7  8  1  0
  8  9  1  0
  9 10  2  0
 10 11  1  0
 11 12  1  0
 12 13  2  0
 12 14  1  0
 14 15  1  0
 15 16  1  0
 16 17  1  0
 17 18  1  0
 18 19  1  0
 19 20  2  0
 20 21  1  0
 20 22  1  0
 22 23  1  0
 23 24  1  0
 23 25  1  0
 25 26  2  0
 26 27  1  0
 27 28  2  0
 28 29  1  0
 29 30  1  0
 30 31  1  0
 31 32  1  1
 31 33  1  0
 33 34  1  0
 31 35  1  0
 35 36  1  1
 17 37  1  0
 38 37  1  1
 38 39  1  0
 39 40  1  0
 40 41  1  0
 41 42  1  0
 41 43  1  0
 43 44  1  0
 43 45  1  0
 38 46  1  0
 33  9  1  0
 45 38  1  0
 35 11  1  0
 46 15  1  0
 35 28  1  0
  1 47  1  0
  1 48  1  0
  1 49  1  0
  3 50  1  0
  3 51  1  0
  3 52  1  0
  4 53  1  0
  8 54  1  0
  8 55  1  0
 10 56  1  0
 11 57  1  0
 15 58  1  1
 16 59  1  0
 16 60  1  0
 17 61  1  1
 18 62  1  0
 18 63  1  0
 19 64  1  0
 21 65  1  0
 21 66  1  0
 21 67  1  0
 22 68  1  0
 22 69  1  0
 23 70  1  6
 24 71  1  0
 24 72  1  0
 24 73  1  0
 25 74  1  0
 26 75  1  0
 27 76  1  0
 29 77  1  0
 29 78  1  0
 32 79  1  0
 32 80  1  0
 32 81  1  0
 33 82  1  1
 34 83  1  0
 36 84  1  0
 39 85  1  0
 39 86  1  0
 40 87  1  0
 40 88  1  0
 41 89  1  1
 42 90  1  0
 42 91  1  0
 42 92  1  0
 43 93  1  6
 44 94  1  0
 44 95  1  0
 44 96  1  0
 46 97  1  0
 46 98  1  0
M  END
$$$$
