
     RDKit          3D

 38 40  0  0  0  0  0  0  0  0999 V2000
   -3.0069   -1.6258    1.7509 C   0  0  0  0  0  0  0  0  0  0  0  0
   -3.1476   -1.2052    0.3150 C   0  0  0  0  0  0  0  0  0  0  0  0
   -3.5612   -2.1682   -0.6227 C   0  0  0  0  0  0  0  0  0  0  0  0
   -3.7219   -1.8307   -1.9635 C   0  0  0  0  0  0  0  0  0  0  0  0
   -4.1236   -2.7653   -2.8344 F   0  0  0  0  0  0  0  0  0  0  0  0
   -3.4779   -0.5404   -2.4102 C   0  0  0  0  0  0  0  0  0  0  0  0
   -3.0546    0.4291   -1.5023 C   0  0  0  0  0  0  0  0  0  0  0  0
   -2.8751    0.0994   -0.1461 C   0  0  0  0  0  0  0  0  0  0  0  0
   -2.2789    1.3839    0.9486 S   0  0  0  0  0  6  0  0  0  0  0  0
   -1.4864    0.7964    2.0058 O   0  0  0  0  0  0  0  0  0  0  0  0
   -3.4184    2.2285    1.2370 O   0  0  0  0  0  0  0  0  0  0  0  0
   -1.2568    2.3037   -0.0136 N   0  0  0  0  0  0  0  0  0  0  0  0
    0.0769    1.9346   -0.3571 C   0  0  0  0  0  0  0  0  0  0  0  0
    0.9013    2.9479   -0.8544 C   0  0  0  0  0  0  0  0  0  0  0  0
    2.1985    2.6618   -1.2801 C   0  0  0  0  0  0  0  0  0  0  0  0
    2.6753    1.3559   -1.2233 C   0  0  0  0  0  0  0  0  0  0  0  0
    3.9615    1.1703   -1.6476 O   0  0  0  0  0  0  0  0  0  0  0  0
    1.8589    0.3155   -0.7635 C   0  0  0  0  0  0  0  0  0  0  0  0
    2.3395   -1.4069   -0.7792 S   0  0  0  0  0  0  0  0  0  0  0  0
    3.6412   -1.4383    0.3732 C   0  0  0  0  0  0  0  0  0  0  0  0
    4.7606   -0.6560    0.2373 N   0  0  0  0  0  0  0  0  0  0  0  0
    5.4815   -0.9966    1.2808 C   0  0  0  0  0  0  0  0  0  0  0  0
    4.8261   -1.9500    1.9951 N   0  0  0  0  0  0  0  0  0  0  0  0
    3.6523   -2.2608    1.4244 N   0  0  0  0  0  0  0  0  0  0  0  0
    0.5528    0.6197   -0.3421 C   0  0  0  0  0  0  0  0  0  0  0  0
   -1.9515   -1.7540    2.0087 H   0  0  0  0  0  0  0  0  0  0  0  0
   -3.4751   -0.8972    2.4198 H   0  0  0  0  0  0  0  0  0  0  0  0
   -3.5107   -2.5816    1.9341 H   0  0  0  0  0  0  0  0  0  0  0  0
   -3.7694   -3.1914   -0.3195 H   0  0  0  0  0  0  0  0  0  0  0  0
   -3.6160   -0.2992   -3.4596 H   0  0  0  0  0  0  0  0  0  0  0  0
   -2.8680    1.4383   -1.8619 H   0  0  0  0  0  0  0  0  0  0  0  0
   -1.5143    3.2892   -0.0211 H   0  0  0  0  0  0  0  0  0  0  0  0
    0.5494    3.9744   -0.9137 H   0  0  0  0  0  0  0  0  0  0  0  0
    2.8396    3.4555   -1.6548 H   0  0  0  0  0  0  0  0  0  0  0  0
    4.3194    0.3860   -1.1793 H   0  0  0  0  0  0  0  0  0  0  0  0
    6.4492   -0.6043    1.5601 H   0  0  0  0  0  0  0  0  0  0  0  0
    5.1071   -2.4223    2.8476 H   0  0  0  0  0  0  0  0  0  0  0  0
   -0.0766   -0.1959   -0.0003 H   0  0  0  0  0  0  0  0  0  0  0  0
  1  2  1  0
  2  3  2  0
  3  4  1  0
  4  5  1  0
  4  6  2  0
  6  7  1  0
  7  8  2  0
  8  9  1  0
  9 10  2  0
  9 11  2  0
  9 12  1  0
 12 13  1  0
 13 14  2  0
 14 15  1  0
 15 16  2  0
 16 17  1  0
 16 18  1  0
 18 19  1  0
 19 20  1  0
 20 21  1  0
 21 22  2  0
 22 23  1  0
 23 24  1  0
 18 25  2  0
  8  2  1  0
 25 13  1  0
 24 20  2  0
  1 26  1  0
  1 27  1  0
  1 28  1  0
  3 29  1  0
  6 30  1  0
  7 31  1  0
 12 32  1  0
 14 33  1  0
 15 34  1  0
 17 35  1  0
 22 36  1  0
 23 37  1  0
 25 38  1  0
M  END
$$$$
