
     RDKit          3D

 48 51  0  0  0  0  0  0  0  0999 V2000
    3.2599    1.5594   -2.3253 C   0  0  0  0  0  0  0  0  0  0  0  0
    3.5336    1.5718   -0.8289 C   0  0  0  0  0  0  0  0  0  0  0  0
    2.9817    0.3804   -0.1903 N   0  0  0  0  0  0  0  0  0  0  0  0
    1.7050    0.2183    0.3578 C   0  0  0  0  0  0  0  0  0  0  0  0
    0.7169    1.1344    0.3549 C   0  0  0  0  0  0  0  0  0  0  0  0
   -0.6289    0.9747    0.9322 C   0  0  0  0  0  0  0  0  0  0  0  0
   -0.7277    1.0504    2.3173 C   0  0  0  0  0  0  0  0  0  0  0  0
   -1.9525    0.9138    2.9250 C   0  0  0  0  0  0  0  0  0  0  0  0
   -3.0877    0.7818    2.1423 C   0  0  0  0  0  0  0  0  0  0  0  0
   -4.3062    0.6615    2.8178 C   0  0  0  0  0  0  0  0  0  0  0  0
   -5.4933    0.5624    2.1167 C   0  0  0  0  0  0  0  0  0  0  0  0
   -5.4701    0.6281    0.7332 C   0  0  0  0  0  0  0  0  0  0  0  0
   -4.2606    0.7674    0.0076 C   0  0  0  0  0  0  0  0  0  0  0  0
   -4.4738    0.9696   -1.4720 C   0  0  0  0  0  0  0  0  0  0  0  0
   -3.0129    0.7814    0.7037 C   0  0  0  0  0  0  0  0  0  0  0  0
   -1.7387    0.7971    0.1415 N   0  0  0  0  0  4  0  0  0  0  0  0
   -1.5051    0.4721   -1.2984 C   0  0  0  0  0  0  0  0  0  0  0  0
   -1.6512   -1.0216   -1.5294 C   0  0  0  0  0  0  0  0  0  0  0  0
    1.4297   -1.3973    1.0694 S   0  0  0  0  0  0  0  0  0  0  0  0
    3.0776   -1.8617    0.5593 C   0  0  0  0  0  0  0  0  0  0  0  0
    3.6644   -3.1045    0.7542 C   0  0  0  0  0  0  0  0  0  0  0  0
    4.9600   -3.3053    0.2834 C   0  0  0  0  0  0  0  0  0  0  0  0
    5.6409   -2.2715   -0.3703 C   0  0  0  0  0  0  0  0  0  0  0  0
    5.0378   -1.0210   -0.5606 C   0  0  0  0  0  0  0  0  0  0  0  0
    3.7462   -0.8018   -0.0932 C   0  0  0  0  0  0  0  0  0  0  0  0
    3.6614    2.4647   -2.7911 H   0  0  0  0  0  0  0  0  0  0  0  0
    2.1849    1.5199   -2.5303 H   0  0  0  0  0  0  0  0  0  0  0  0
    3.7238    0.6941   -2.8093 H   0  0  0  0  0  0  0  0  0  0  0  0
    3.0907    2.4745   -0.3916 H   0  0  0  0  0  0  0  0  0  0  0  0
    4.6086    1.6708   -0.6407 H   0  0  0  0  0  0  0  0  0  0  0  0
    0.8824    2.1079   -0.0971 H   0  0  0  0  0  0  0  0  0  0  0  0
    0.1603    1.1855    2.9341 H   0  0  0  0  0  0  0  0  0  0  0  0
   -2.0076    0.9341    4.0134 H   0  0  0  0  0  0  0  0  0  0  0  0
   -4.3503    0.6432    3.9072 H   0  0  0  0  0  0  0  0  0  0  0  0
   -6.4391    0.4644    2.6468 H   0  0  0  0  0  0  0  0  0  0  0  0
   -6.4295    0.5927    0.2132 H   0  0  0  0  0  0  0  0  0  0  0  0
   -4.0123    1.9069   -1.7969 H   0  0  0  0  0  0  0  0  0  0  0  0
   -5.5372    1.0719   -1.7211 H   0  0  0  0  0  0  0  0  0  0  0  0
   -4.1133    0.1185   -2.0523 H   0  0  0  0  0  0  0  0  0  0  0  0
   -0.5052    0.7812   -1.6094 H   0  0  0  0  0  0  0  0  0  0  0  0
   -2.1516    1.0820   -1.9198 H   0  0  0  0  0  0  0  0  0  0  0  0
   -0.8910   -1.5796   -0.9767 H   0  0  0  0  0  0  0  0  0  0  0  0
   -1.5295   -1.2518   -2.5923 H   0  0  0  0  0  0  0  0  0  0  0  0
   -2.6244   -1.4012   -1.2077 H   0  0  0  0  0  0  0  0  0  0  0  0
    3.1335   -3.9041    1.2605 H   0  0  0  0  0  0  0  0  0  0  0  0
    5.4461   -4.2687    0.4233 H   0  0  0  0  0  0  0  0  0  0  0  0
    6.6526   -2.4424   -0.7341 H   0  0  0  0  0  0  0  0  0  0  0  0
    5.6016   -0.2512   -1.0758 H   0  0  0  0  0  0  0  0  0  0  0  0
  1  2  1  0
  2  3  1  0
  3  4  1  0
  4  5  2  3
  5  6  1  0
  6  7  2  0
  7  8  1  0
  8  9  2  0
  9 10  1  0
 10 11  2  0
 11 12  1  0
 12 13  2  0
 13 14  1  0
 13 15  1  0
 15 16  2  0
 16 17  1  0
 17 18  1  0
  4 19  1  0
 19 20  1  0
 20 21  2  0
 21 22  1  0
 22 23  2  0
 23 24  1  0
 24 25  2  0
 25  3  1  0
 16  6  1  0
 25 20  1  0
 15  9  1  0
  1 26  1  0
  1 27  1  0
  1 28  1  0
  2 29  1  0
  2 30  1  0
  5 31  1  0
  7 32  1  0
  8 33  1  0
 10 34  1  0
 11 35  1  0
 12 36  1  0
 14 37  1  0
 14 38  1  0
 14 39  1  0
 17 40  1  0
 17 41  1  0
 18 42  1  0
 18 43  1  0
 18 44  1  0
 21 45  1  0
 22 46  1  0
 23 47  1  0
 24 48  1  0
M  CHG  1  16   1
M  END
$$$$
