
     RDKit          3D

 67 72  0  0  0  0  0  0  0  0999 V2000
   -4.9429    3.4531    2.5934 C   0  0  0  0  0  0  0  0  0  0  0  0
   -3.9903    3.0167    1.5197 C   0  0  0  0  0  0  0  0  0  0  0  0
   -3.8776    3.7141    0.3027 C   0  0  0  0  0  0  0  0  0  0  0  0
   -4.8292    5.1251   -0.0157 Cl  0  0  0  0  0  0  0  0  0  0  0  0
   -2.9978    3.2890   -0.7122 C   0  0  0  0  0  0  0  0  0  0  0  0
   -2.2023    2.1549   -0.5425 C   0  0  0  0  0  0  0  0  0  0  0  0
   -2.2987    1.4581    0.6534 C   0  0  0  0  0  0  0  0  0  0  0  0
   -3.1955    1.8823    1.6485 C   0  0  0  0  0  0  0  0  0  0  0  0
   -3.1672    0.9912    2.7184 N   0  0  0  0  0  0  0  0  0  0  0  0
   -2.2882   -0.0685    2.4907 C   0  0  0  0  0  0  0  0  0  0  0  0
   -2.1210   -1.0040    3.2609 O   0  0  0  0  0  0  0  0  0  0  0  0
   -1.5923    0.2105    1.1273 C   0  0  1  0  0  0  0  0  0  0  0  0
   -1.7985   -0.8553    0.1271 C   0  0  0  0  0  0  0  0  0  0  0  0
   -0.5953   -1.4742   -0.2105 C   0  0  0  0  0  0  0  0  0  0  0  0
   -0.8532   -2.4816   -1.1034 C   0  0  0  0  0  0  0  0  0  0  0  0
   -0.0219   -3.3285   -1.7031 O   0  0  0  0  0  0  0  0  0  0  0  0
   -2.2334   -2.4481   -1.3807 N   0  0  0  0  0  0  0  0  0  0  0  0
   -2.9168   -3.2268   -2.3673 C   0  0  0  0  0  0  0  0  0  0  0  0
   -2.4763   -4.5138   -2.6990 C   0  0  0  0  0  0  0  0  0  0  0  0
   -3.1537   -5.2493   -3.6706 C   0  0  0  0  0  0  0  0  0  0  0  0
   -2.7363   -6.4871   -3.9693 F   0  0  0  0  0  0  0  0  0  0  0  0
   -4.2539   -4.7282   -4.3339 C   0  0  0  0  0  0  0  0  0  0  0  0
   -4.6742   -3.4470   -4.0160 C   0  0  0  0  0  0  0  0  0  0  0  0
   -5.7130   -2.9134   -4.6742 F   0  0  0  0  0  0  0  0  0  0  0  0
   -4.0239   -2.6907   -3.0430 C   0  0  0  0  0  0  0  0  0  0  0  0
   -2.8192   -1.4870   -0.5321 C   0  0  0  0  0  0  0  0  0  0  0  0
   -4.1305   -1.2935   -0.3854 O   0  0  0  0  0  0  0  0  0  0  0  0
    0.5447   -0.8742    0.5166 C   0  0  1  0  0  0  0  0  0  0  0  0
    1.6866   -0.3909   -0.3977 C   0  0  0  0  0  0  0  0  0  0  0  0
    2.6488    0.4371    0.3276 N   0  0  0  0  0  0  0  0  0  0  0  0
    4.0024    0.2580    0.1384 C   0  0  0  0  0  0  0  0  0  0  0  0
    4.4725   -0.5735   -0.6276 O   0  0  0  0  0  0  0  0  0  0  0  0
    4.7338    1.1033    0.9082 O   0  0  0  0  0  0  0  0  0  0  0  0
    6.1837    1.0678    0.8938 C   0  0  0  0  0  0  0  0  0  0  0  0
    6.6070    2.1814    1.8666 C   0  0  0  0  0  0  0  0  0  0  0  0
    6.7068   -0.2722    1.4241 C   0  0  0  0  0  0  0  0  0  0  0  0
    6.7451    1.3946   -0.4949 C   0  0  0  0  0  0  0  0  0  0  0  0
    2.1073    1.3606    1.3277 C   0  0  0  0  0  0  0  0  0  0  0  0
    0.5780    1.5129    1.2274 C   0  0  0  0  0  0  0  0  0  0  0  0
   -0.1047    0.2249    1.3155 N   0  0  0  0  0  0  0  0  0  0  0  0
   -4.8060    4.5152    2.8217 H   0  0  0  0  0  0  0  0  0  0  0  0
   -5.9769    3.2781    2.2769 H   0  0  0  0  0  0  0  0  0  0  0  0
   -4.7831    2.9151    3.5326 H   0  0  0  0  0  0  0  0  0  0  0  0
   -2.9395    3.8429   -1.6472 H   0  0  0  0  0  0  0  0  0  0  0  0
   -1.5371    1.8249   -1.3356 H   0  0  0  0  0  0  0  0  0  0  0  0
   -3.7476    1.0275    3.5416 H   0  0  0  0  0  0  0  0  0  0  0  0
    0.8634   -3.2270   -1.3087 H   0  0  0  0  0  0  0  0  0  0  0  0
   -1.6320   -4.9839   -2.2059 H   0  0  0  0  0  0  0  0  0  0  0  0
   -4.7649   -5.3079   -5.0934 H   0  0  0  0  0  0  0  0  0  0  0  0
   -4.3670   -1.6726   -2.8783 H   0  0  0  0  0  0  0  0  0  0  0  0
   -4.6021   -2.0970   -0.6656 H   0  0  0  0  0  0  0  0  0  0  0  0
    0.9439   -1.6002    1.2362 H   0  0  0  0  0  0  0  0  0  0  0  0
    1.2955    0.2248   -1.2187 H   0  0  0  0  0  0  0  0  0  0  0  0
    2.1884   -1.2487   -0.8595 H   0  0  0  0  0  0  0  0  0  0  0  0
    6.2192    3.1523    1.5371 H   0  0  0  0  0  0  0  0  0  0  0  0
    7.6960    2.2554    1.9515 H   0  0  0  0  0  0  0  0  0  0  0  0
    6.1933    2.0048    2.8666 H   0  0  0  0  0  0  0  0  0  0  0  0
    7.7923   -0.2453    1.5781 H   0  0  0  0  0  0  0  0  0  0  0  0
    6.4932   -1.0957    0.7355 H   0  0  0  0  0  0  0  0  0  0  0  0
    6.2253   -0.5257    2.3765 H   0  0  0  0  0  0  0  0  0  0  0  0
    6.5235    0.6103   -1.2239 H   0  0  0  0  0  0  0  0  0  0  0  0
    6.3034    2.3188   -0.8846 H   0  0  0  0  0  0  0  0  0  0  0  0
    7.8338    1.5138   -0.4663 H   0  0  0  0  0  0  0  0  0  0  0  0
    2.5875    2.3370    1.2042 H   0  0  0  0  0  0  0  0  0  0  0  0
    2.3853    0.9742    2.3156 H   0  0  0  0  0  0  0  0  0  0  0  0
    0.3670    2.0061    0.2734 H   0  0  0  0  0  0  0  0  0  0  0  0
    0.2364    2.1750    2.0312 H   0  0  0  0  0  0  0  0  0  0  0  0
  1  2  1  0
  2  3  2  0
  3  4  1  0
  3  5  1  0
  5  6  2  0
  6  7  1  0
  7  8  2  0
  8  9  1  0
  9 10  1  0
 10 11  2  0
 10 12  1  0
 12 13  1  0
 13 14  1  0
 14 15  2  0
 15 16  1  0
 15 17  1  0
 17 18  1  0
 18 19  2  0
 19 20  1  0
 20 21  1  0
 20 22  2  0
 22 23  1  0
 23 24  1  0
 23 25  2  0
 17 26  1  0
 26 27  1  0
 14 28  1  0
 28 29  1  0
 29 30  1  0
 30 31  1  0
 31 32  2  0
 31 33  1  0
 33 34  1  0
 34 35  1  0
 34 36  1  0
 34 37  1  0
 30 38  1  0
 38 39  1  0
 39 40  1  0
  8  2  1  0
 12 40  1  1
 12  7  1  0
 26 13  2  0
 40 28  1  0
 25 18  1  0
  1 41  1  0
  1 42  1  0
  1 43  1  0
  5 44  1  0
  6 45  1  0
  9 46  1  0
 16 47  1  0
 19 48  1  0
 22 49  1  0
 25 50  1  0
 27 51  1  0
 28 52  1  1
 29 53  1  0
 29 54  1  0
 35 55  1  0
 35 56  1  0
 35 57  1  0
 36 58  1  0
 36 59  1  0
 36 60  1  0
 37 61  1  0
 37 62  1  0
 37 63  1  0
 38 64  1  0
 38 65  1  0
 39 66  1  0
 39 67  1  0
M  END
$$$$
