
     RDKit          3D

 57 59  0  0  0  0  0  0  0  0999 V2000
    9.7811    1.0047    0.5284 C   0  0  0  0  0  0  0  0  0  0  0  0
    8.2934    0.7944    0.5936 C   0  0  0  0  0  0  0  0  0  0  0  0
    7.7248    0.2624    1.7608 C   0  0  0  0  0  0  0  0  0  0  0  0
    6.3470    0.0417    1.8569 C   0  0  0  0  0  0  0  0  0  0  0  0
    5.5156    0.3462    0.7815 C   0  0  0  0  0  0  0  0  0  0  0  0
    4.1594    0.1716    0.7338 O   0  0  0  0  0  0  0  0  0  0  0  0
    3.5350   -0.3526    1.9038 C   0  0  0  0  0  0  0  0  0  0  0  0
    2.0931   -0.5120    1.5999 C   0  0  0  0  0  0  0  0  0  0  0  0
    1.3453   -0.6029    0.4517 C   0  0  0  0  0  0  0  0  0  0  0  0
    0.0144   -0.7897    0.9008 C   0  0  0  0  0  0  0  0  0  0  0  0
   -1.1863   -0.9643    0.0805 C   0  0  0  0  0  0  0  0  0  0  0  0
   -1.1708   -0.8604   -1.1419 O   0  0  0  0  0  0  0  0  0  0  0  0
   -2.3217   -1.2605    0.8064 N   0  0  0  0  0  0  0  0  0  0  0  0
   -3.6147   -1.5154    0.1988 C   0  0  0  0  0  0  0  0  0  0  0  0
   -4.6001   -0.2913    0.1818 C   0  0  0  0  0  0  0  0  0  0  0  0
   -4.7825    0.1790    1.6478 C   0  0  0  0  0  0  0  0  0  0  0  0
   -3.9979    0.8830   -0.6187 C   0  0  0  0  0  0  0  0  0  0  0  0
   -5.9031   -0.7501   -0.3836 N   0  0  0  0  0  0  0  0  0  0  0  0
   -7.0819    0.0827   -0.0718 C   0  0  0  0  0  0  0  0  0  0  0  0
   -8.3011   -0.3189   -0.9168 C   0  0  0  0  0  0  0  0  0  0  0  0
   -8.1021   -0.1153   -2.3196 O   0  0  0  0  0  0  0  0  0  0  0  0
   -6.7272   -0.2080   -2.7114 C   0  0  0  0  0  0  0  0  0  0  0  0
   -5.8951   -1.1383   -1.8123 C   0  0  0  0  0  0  0  0  0  0  0  0
   -0.0359   -0.8028    2.2467 N   0  0  0  0  0  0  0  0  0  0  0  0
    1.2667   -0.6269    2.6749 O   0  0  0  0  0  0  0  0  0  0  0  0
    6.0750    0.8784   -0.3839 C   0  0  0  0  0  0  0  0  0  0  0  0
    7.4562    1.1125   -0.4929 C   0  0  0  0  0  0  0  0  0  0  0  0
    8.0058    1.6769   -1.7735 C   0  0  0  0  0  0  0  0  0  0  0  0
   10.2156    0.3901   -0.2662 H   0  0  0  0  0  0  0  0  0  0  0  0
   10.2689    0.7240    1.4681 H   0  0  0  0  0  0  0  0  0  0  0  0
   10.0092    2.0586    0.3438 H   0  0  0  0  0  0  0  0  0  0  0  0
    8.3560    0.0107    2.6119 H   0  0  0  0  0  0  0  0  0  0  0  0
    5.9655   -0.3716    2.7854 H   0  0  0  0  0  0  0  0  0  0  0  0
    3.6612    0.3435    2.7420 H   0  0  0  0  0  0  0  0  0  0  0  0
    3.9504   -1.3356    2.1572 H   0  0  0  0  0  0  0  0  0  0  0  0
    1.7006   -0.5591   -0.5678 H   0  0  0  0  0  0  0  0  0  0  0  0
   -2.2191   -1.3068    1.8158 H   0  0  0  0  0  0  0  0  0  0  0  0
   -3.4369   -1.8907   -0.8135 H   0  0  0  0  0  0  0  0  0  0  0  0
   -4.0592   -2.3385    0.7713 H   0  0  0  0  0  0  0  0  0  0  0  0
   -5.4148    1.0696    1.7171 H   0  0  0  0  0  0  0  0  0  0  0  0
   -3.8260    0.4497    2.1086 H   0  0  0  0  0  0  0  0  0  0  0  0
   -5.2310   -0.6075    2.2632 H   0  0  0  0  0  0  0  0  0  0  0  0
   -4.7021    1.7165   -0.7040 H   0  0  0  0  0  0  0  0  0  0  0  0
   -3.7076    0.5872   -1.6308 H   0  0  0  0  0  0  0  0  0  0  0  0
   -3.1006    1.2792   -0.1291 H   0  0  0  0  0  0  0  0  0  0  0  0
   -7.3509   -0.0387    0.9834 H   0  0  0  0  0  0  0  0  0  0  0  0
   -6.8670    1.1426   -0.2557 H   0  0  0  0  0  0  0  0  0  0  0  0
   -8.5548   -1.3740   -0.7554 H   0  0  0  0  0  0  0  0  0  0  0  0
   -9.1736    0.2710   -0.6205 H   0  0  0  0  0  0  0  0  0  0  0  0
   -6.7043   -0.5713   -3.7457 H   0  0  0  0  0  0  0  0  0  0  0  0
   -6.3068    0.8049   -2.7166 H   0  0  0  0  0  0  0  0  0  0  0  0
   -6.3268   -2.1454   -1.8641 H   0  0  0  0  0  0  0  0  0  0  0  0
   -4.8884   -1.2205   -2.2309 H   0  0  0  0  0  0  0  0  0  0  0  0
    5.4172    1.1132   -1.2199 H   0  0  0  0  0  0  0  0  0  0  0  0
    8.6349    0.9350   -2.2760 H   0  0  0  0  0  0  0  0  0  0  0  0
    7.2039    1.9609   -2.4647 H   0  0  0  0  0  0  0  0  0  0  0  0
    8.5938    2.5789   -1.5733 H   0  0  0  0  0  0  0  0  0  0  0  0
  1  2  1  0
  2  3  2  0
  3  4  1  0
  4  5  2  0
  5  6  1  0
  6  7  1  0
  7  8  1  0
  8  9  2  0
  9 10  1  0
 10 11  1  0
 11 12  2  0
 11 13  1  0
 13 14  1  0
 14 15  1  0
 15 16  1  0
 15 17  1  0
 15 18  1  0
 18 19  1  0
 19 20  1  0
 20 21  1  0
 21 22  1  0
 22 23  1  0
 10 24  2  0
 24 25  1  0
  5 26  1  0
 26 27  2  0
 27 28  1  0
 27  2  1  0
 25  8  1  0
 23 18  1  0
  1 29  1  0
  1 30  1  0
  1 31  1  0
  3 32  1  0
  4 33  1  0
  7 34  1  0
  7 35  1  0
  9 36  1  0
 13 37  1  0
 14 38  1  0
 14 39  1  0
 16 40  1  0
 16 41  1  0
 16 42  1  0
 17 43  1  0
 17 44  1  0
 17 45  1  0
 19 46  1  0
 19 47  1  0
 20 48  1  0
 20 49  1  0
 22 50  1  0
 22 51  1  0
 23 52  1  0
 23 53  1  0
 26 54  1  0
 28 55  1  0
 28 56  1  0
 28 57  1  0
M  END
$$$$
