
     RDKit          3D

 61 65  0  0  0  0  0  0  0  0999 V2000
    6.3336   -4.1618    2.5070 C   0  0  0  0  0  0  0  0  0  0  0  0
    5.1362   -3.4004    2.0184 C   0  0  0  0  0  0  0  0  0  0  0  0
    5.2412   -2.5400    0.9224 C   0  0  0  0  0  0  0  0  0  0  0  0
    4.1329   -1.8066    0.4867 C   0  0  0  0  0  0  0  0  0  0  0  0
    2.8945   -1.9071    1.1410 C   0  0  0  0  0  0  0  0  0  0  0  0
    1.7290   -1.1379    0.6817 C   0  0  0  0  0  0  0  0  0  0  0  0
    1.7957    0.2401    0.4923 C   0  0  0  0  0  0  0  0  0  0  0  0
    0.6818    0.9688    0.0509 C   0  0  0  0  0  0  0  0  0  0  0  0
    0.7837    2.4145   -0.1735 C   0  0  0  0  0  0  0  0  0  0  0  0
    0.9588    2.9348   -1.4661 C   0  0  0  0  0  0  0  0  0  0  0  0
    1.0553    4.3131   -1.6740 C   0  0  0  0  0  0  0  0  0  0  0  0
    0.9817    5.2000   -0.5957 C   0  0  0  0  0  0  0  0  0  0  0  0
    1.1201    6.6789   -0.8161 C   0  0  0  0  0  0  0  0  0  0  0  0
    0.8445    4.6878    0.6979 C   0  0  0  0  0  0  0  0  0  0  0  0
    0.7475    3.3099    0.9080 C   0  0  0  0  0  0  0  0  0  0  0  0
   -0.5051    0.3339   -0.1985 N   0  0  0  0  0  4  0  0  0  0  0  0
   -1.6512    1.0887   -0.6484 C   0  0  0  0  0  0  0  0  0  0  0  0
   -2.0041    1.0389   -1.9985 C   0  0  0  0  0  0  0  0  0  0  0  0
   -3.1137    1.7660   -2.4235 C   0  0  0  0  0  0  0  0  0  0  0  0
   -3.8459    2.5250   -1.5055 C   0  0  0  0  0  0  0  0  0  0  0  0
   -3.4768    2.5637   -0.1577 C   0  0  0  0  0  0  0  0  0  0  0  0
   -2.3707    1.8406    0.2828 C   0  0  0  0  0  0  0  0  0  0  0  0
   -0.6009   -1.0198   -0.0187 C   0  0  0  0  0  0  0  0  0  0  0  0
   -1.8830   -1.6884   -0.2635 C   0  0  0  0  0  0  0  0  0  0  0  0
   -2.0910   -2.4247   -1.4413 C   0  0  0  0  0  0  0  0  0  0  0  0
   -3.3100   -3.0650   -1.6777 C   0  0  0  0  0  0  0  0  0  0  0  0
   -4.3460   -2.9847   -0.7426 C   0  0  0  0  0  0  0  0  0  0  0  0
   -5.6433   -3.7021   -0.9818 C   0  0  0  0  0  0  0  0  0  0  0  0
   -4.1345   -2.2833    0.4479 C   0  0  0  0  0  0  0  0  0  0  0  0
   -2.9158   -1.6430    0.6868 C   0  0  0  0  0  0  0  0  0  0  0  0
    0.5100   -1.7565    0.4165 C   0  0  0  0  0  0  0  0  0  0  0  0
    2.8053   -2.7636    2.2502 C   0  0  0  0  0  0  0  0  0  0  0  0
    3.9133   -3.4968    2.6872 C   0  0  0  0  0  0  0  0  0  0  0  0
    6.0327   -5.1091    2.9666 H   0  0  0  0  0  0  0  0  0  0  0  0
    6.8790   -3.5670    3.2460 H   0  0  0  0  0  0  0  0  0  0  0  0
    7.0079   -4.4030    1.6787 H   0  0  0  0  0  0  0  0  0  0  0  0
    6.1890   -2.4380    0.3967 H   0  0  0  0  0  0  0  0  0  0  0  0
    4.2541   -1.1619   -0.3814 H   0  0  0  0  0  0  0  0  0  0  0  0
    2.7296    0.7685    0.6911 H   0  0  0  0  0  0  0  0  0  0  0  0
    1.0306    2.2774   -2.3311 H   0  0  0  0  0  0  0  0  0  0  0  0
    1.1942    4.6944   -2.6849 H   0  0  0  0  0  0  0  0  0  0  0  0
    0.7378    6.9644   -1.8018 H   0  0  0  0  0  0  0  0  0  0  0  0
    2.1725    6.9706   -0.7465 H   0  0  0  0  0  0  0  0  0  0  0  0
    0.5459    7.2389   -0.0707 H   0  0  0  0  0  0  0  0  0  0  0  0
    0.8172    5.3637    1.5518 H   0  0  0  0  0  0  0  0  0  0  0  0
    0.6458    2.9498    1.9309 H   0  0  0  0  0  0  0  0  0  0  0  0
   -1.4368    0.4553   -2.7165 H   0  0  0  0  0  0  0  0  0  0  0  0
   -3.4164    1.7470   -3.4691 H   0  0  0  0  0  0  0  0  0  0  0  0
   -4.7129    3.0919   -1.8439 H   0  0  0  0  0  0  0  0  0  0  0  0
   -4.0588    3.1606    0.5428 H   0  0  0  0  0  0  0  0  0  0  0  0
   -2.0928    1.8694    1.3313 H   0  0  0  0  0  0  0  0  0  0  0  0
   -1.3071   -2.5145   -2.1919 H   0  0  0  0  0  0  0  0  0  0  0  0
   -3.4475   -3.6338   -2.5963 H   0  0  0  0  0  0  0  0  0  0  0  0
   -5.5867   -4.7196   -0.5832 H   0  0  0  0  0  0  0  0  0  0  0  0
   -5.8700   -3.7523   -2.0519 H   0  0  0  0  0  0  0  0  0  0  0  0
   -6.4738   -3.1775   -0.4983 H   0  0  0  0  0  0  0  0  0  0  0  0
   -4.9206   -2.2374    1.2003 H   0  0  0  0  0  0  0  0  0  0  0  0
   -2.7877   -1.1160    1.6307 H   0  0  0  0  0  0  0  0  0  0  0  0
    0.4121   -2.8357    0.5464 H   0  0  0  0  0  0  0  0  0  0  0  0
    1.8736   -2.8643    2.8032 H   0  0  0  0  0  0  0  0  0  0  0  0
    3.8156   -4.1447    3.5566 H   0  0  0  0  0  0  0  0  0  0  0  0
  1  2  1  0
  2  3  2  0
  3  4  1  0
  4  5  2  0
  5  6  1  0
  6  7  2  0
  7  8  1  0
  8  9  1  0
  9 10  2  0
 10 11  1  0
 11 12  2  0
 12 13  1  0
 12 14  1  0
 14 15  2  0
  8 16  2  0
 16 17  1  0
 17 18  2  0
 18 19  1  0
 19 20  2  0
 20 21  1  0
 21 22  2  0
 16 23  1  0
 23 24  1  0
 24 25  2  0
 25 26  1  0
 26 27  2  0
 27 28  1  0
 27 29  1  0
 29 30  2  0
 23 31  2  0
  5 32  1  0
 32 33  2  0
 33  2  1  0
 31  6  1  0
 15  9  1  0
 22 17  1  0
 30 24  1  0
  1 34  1  0
  1 35  1  0
  1 36  1  0
  3 37  1  0
  4 38  1  0
  7 39  1  0
 10 40  1  0
 11 41  1  0
 13 42  1  0
 13 43  1  0
 13 44  1  0
 14 45  1  0
 15 46  1  0
 18 47  1  0
 19 48  1  0
 20 49  1  0
 21 50  1  0
 22 51  1  0
 25 52  1  0
 26 53  1  0
 28 54  1  0
 28 55  1  0
 28 56  1  0
 29 57  1  0
 30 58  1  0
 31 59  1  0
 32 60  1  0
 33 61  1  0
M  CHG  1  16   1
M  END
$$$$
