
     RDKit          3D

 52 54  0  0  0  0  0  0  0  0999 V2000
    1.6506   -3.8842    0.7755 C   0  0  0  0  0  0  0  0  0  0  0  0
    2.2907   -2.7291    0.0649 C   0  0  0  0  0  0  0  0  0  0  0  0
    2.2726   -2.6474   -1.3327 C   0  0  0  0  0  0  0  0  0  0  0  0
    2.8292   -1.5433   -1.9874 C   0  0  0  0  0  0  0  0  0  0  0  0
    3.4175   -0.5023   -1.2571 C   0  0  0  0  0  0  0  0  0  0  0  0
    3.9777    0.7127   -1.9593 C   0  0  0  0  0  0  0  0  0  0  0  0
    3.1244    1.8547   -1.7581 N   0  0  0  0  0  0  0  0  0  0  0  0
    1.9892    2.0405   -2.5121 C   0  0  0  0  0  0  0  0  0  0  0  0
    1.7107    1.4773   -3.5613 O   0  0  0  0  0  0  0  0  0  0  0  0
    0.9639    2.9767   -1.8354 C   0  0  0  0  0  0  0  0  0  0  0  0
    1.2923    3.6381   -0.8616 O   0  0  0  0  0  0  0  0  0  0  0  0
   -0.2999    2.8808   -2.3770 N   0  0  0  0  0  0  0  0  0  0  0  0
   -1.4723    3.1141   -1.5436 C   0  0  0  0  0  0  0  0  0  0  0  0
   -1.9197    1.8381   -0.7886 C   0  0  0  0  0  0  0  0  0  0  0  0
   -2.2211    0.8102   -1.7605 O   0  0  0  0  0  0  0  0  0  0  0  0
   -1.7609   -0.4255   -1.2014 C   0  0  0  0  0  0  0  0  0  0  0  0
   -0.5275   -0.0471   -0.4153 C   0  0  0  0  0  0  0  0  0  0  0  0
   -0.8480    1.2983    0.0610 N   0  0  0  0  0  0  0  0  0  0  0  0
   -0.8852    1.6324    1.6991 S   0  0  0  0  0  6  0  0  0  0  0  0
    0.3405    1.1377    2.2901 O   0  0  0  0  0  0  0  0  0  0  0  0
   -1.3138    3.0029    1.8739 O   0  0  0  0  0  0  0  0  0  0  0  0
   -2.2103    0.5972    2.3042 C   0  0  0  0  0  0  0  0  0  0  0  0
   -3.5129    1.1042    2.3703 C   0  0  0  0  0  0  0  0  0  0  0  0
   -4.5459    0.2951    2.8488 C   0  0  0  0  0  0  0  0  0  0  0  0
   -4.2673   -1.0033    3.2763 C   0  0  0  0  0  0  0  0  0  0  0  0
   -5.6693   -2.0956    3.9186 Br  0  0  0  0  0  0  0  0  0  0  0  0
   -2.9624   -1.4981    3.2452 C   0  0  0  0  0  0  0  0  0  0  0  0
   -1.9262   -0.6938    2.7658 C   0  0  0  0  0  0  0  0  0  0  0  0
    3.4229   -0.5830    0.1444 C   0  0  0  0  0  0  0  0  0  0  0  0
    2.8620   -1.6835    0.7979 C   0  0  0  0  0  0  0  0  0  0  0  0
    1.5867   -4.7647    0.1270 H   0  0  0  0  0  0  0  0  0  0  0  0
    2.2358   -4.1697    1.6566 H   0  0  0  0  0  0  0  0  0  0  0  0
    0.6405   -3.6088    1.0932 H   0  0  0  0  0  0  0  0  0  0  0  0
    1.8224   -3.4409   -1.9244 H   0  0  0  0  0  0  0  0  0  0  0  0
    2.7934   -1.4944   -3.0766 H   0  0  0  0  0  0  0  0  0  0  0  0
    4.9677    0.9538   -1.5539 H   0  0  0  0  0  0  0  0  0  0  0  0
    4.0927    0.5229   -3.0327 H   0  0  0  0  0  0  0  0  0  0  0  0
    3.1044    2.2974   -0.8428 H   0  0  0  0  0  0  0  0  0  0  0  0
   -0.3933    2.1855   -3.1158 H   0  0  0  0  0  0  0  0  0  0  0  0
   -2.2688    3.4340   -2.2235 H   0  0  0  0  0  0  0  0  0  0  0  0
   -1.2595    3.9245   -0.8388 H   0  0  0  0  0  0  0  0  0  0  0  0
   -2.8418    2.0382   -0.2349 H   0  0  0  0  0  0  0  0  0  0  0  0
   -2.5504   -0.8232   -0.5532 H   0  0  0  0  0  0  0  0  0  0  0  0
   -1.5524   -1.1496   -1.9952 H   0  0  0  0  0  0  0  0  0  0  0  0
   -0.2977   -0.7692    0.3676 H   0  0  0  0  0  0  0  0  0  0  0  0
    0.3370    0.0267   -1.0779 H   0  0  0  0  0  0  0  0  0  0  0  0
   -3.7337    2.1247    2.0656 H   0  0  0  0  0  0  0  0  0  0  0  0
   -5.5590    0.6893    2.8896 H   0  0  0  0  0  0  0  0  0  0  0  0
   -2.7413   -2.5037    3.5975 H   0  0  0  0  0  0  0  0  0  0  0  0
   -0.9056   -1.0771    2.7658 H   0  0  0  0  0  0  0  0  0  0  0  0
    3.8523    0.2211    0.7378 H   0  0  0  0  0  0  0  0  0  0  0  0
    2.8691   -1.7091    1.8844 H   0  0  0  0  0  0  0  0  0  0  0  0
  1  2  1  0
  2  3  2  0
  3  4  1  0
  4  5  2  0
  5  6  1  0
  6  7  1  0
  7  8  1  0
  8  9  2  0
  8 10  1  0
 10 11  2  0
 10 12  1  0
 12 13  1  0
 13 14  1  0
 14 15  1  0
 15 16  1  0
 16 17  1  0
 17 18  1  0
 18 19  1  0
 19 20  2  0
 19 21  2  0
 19 22  1  0
 22 23  2  0
 23 24  1  0
 24 25  2  0
 25 26  1  0
 25 27  1  0
 27 28  2  0
  5 29  1  0
 29 30  2  0
 30  2  1  0
 18 14  1  0
 28 22  1  0
  1 31  1  0
  1 32  1  0
  1 33  1  0
  3 34  1  0
  4 35  1  0
  6 36  1  0
  6 37  1  0
  7 38  1  0
 12 39  1  0
 13 40  1  0
 13 41  1  0
 14 42  1  0
 16 43  1  0
 16 44  1  0
 17 45  1  0
 17 46  1  0
 23 47  1  0
 24 48  1  0
 27 49  1  0
 28 50  1  0
 29 51  1  0
 30 52  1  0
M  END
$$$$
