
     RDKit          3D

 48 50  0  0  0  0  0  0  0  0999 V2000
   -3.7957   -0.0244    2.3823 C   0  0  0  0  0  0  0  0  0  0  0  0
   -4.3500    0.3665    1.1342 O   0  0  0  0  0  0  0  0  0  0  0  0
   -3.5162    0.3948    0.0456 C   0  0  0  0  0  0  0  0  0  0  0  0
   -2.1377    0.1607    0.0891 C   0  0  0  0  0  0  0  0  0  0  0  0
   -1.3691    0.2292   -1.0813 C   0  0  0  0  0  0  0  0  0  0  0  0
    0.0770   -0.0099   -1.0179 C   0  0  0  0  0  0  0  0  0  0  0  0
    1.0180    0.9443   -1.1552 C   0  0  0  0  0  0  0  0  0  0  0  0
    0.7390    2.3181   -1.3956 C   0  0  0  0  0  0  0  0  0  0  0  0
    0.4879    3.4410   -1.5479 N   0  0  0  0  0  0  0  0  0  0  0  0
    2.4501    0.5338   -1.1123 C   0  0  0  0  0  0  0  0  0  0  0  0
    3.1792    0.8028   -2.0573 O   0  0  0  0  0  0  0  0  0  0  0  0
    2.7954   -0.1124    0.0631 N   0  0  0  0  0  0  0  0  0  0  0  0
    4.0641   -0.6438    0.4276 C   0  0  0  0  0  0  0  0  0  0  0  0
    5.1457   -0.6174   -0.4592 C   0  0  0  0  0  0  0  0  0  0  0  0
    6.3791   -1.1421   -0.0896 C   0  0  0  0  0  0  0  0  0  0  0  0
    6.5427   -1.7023    1.1727 C   0  0  0  0  0  0  0  0  0  0  0  0
    5.5037   -1.7557    2.0844 C   0  0  0  0  0  0  0  0  0  0  0  0
    5.7659   -2.3155    3.2782 N   0  0  0  0  0  0  0  0  0  0  0  0
    4.7773   -2.3797    4.1899 C   0  0  0  0  0  0  0  0  0  0  0  0
    3.5067   -1.9006    3.9652 C   0  0  0  0  0  0  0  0  0  0  0  0
    3.2382   -1.3202    2.7287 C   0  0  0  0  0  0  0  0  0  0  0  0
    4.2389   -1.2247    1.7282 C   0  0  0  0  0  0  0  0  0  0  0  0
   -1.9874    0.5076   -2.3042 C   0  0  0  0  0  0  0  0  0  0  0  0
   -3.3661    0.7166   -2.3674 C   0  0  0  0  0  0  0  0  0  0  0  0
   -3.8563    0.9825   -3.6192 O   0  0  0  0  0  0  0  0  0  0  0  0
   -5.0393    0.2555   -3.9467 C   0  0  0  0  0  0  0  0  0  0  0  0
   -4.1212    0.7034   -1.1874 C   0  0  0  0  0  0  0  0  0  0  0  0
   -5.4712    0.9624   -1.2213 O   0  0  0  0  0  0  0  0  0  0  0  0
   -5.6936    2.3628   -1.0441 C   0  0  0  0  0  0  0  0  0  0  0  0
   -3.0512    0.7015    2.7253 H   0  0  0  0  0  0  0  0  0  0  0  0
   -3.3707   -1.0319    2.3296 H   0  0  0  0  0  0  0  0  0  0  0  0
   -4.6058   -0.0416    3.1180 H   0  0  0  0  0  0  0  0  0  0  0  0
   -1.6416   -0.0637    1.0272 H   0  0  0  0  0  0  0  0  0  0  0  0
    0.3533   -1.0533   -0.8743 H   0  0  0  0  0  0  0  0  0  0  0  0
    2.0706   -0.1839    0.7606 H   0  0  0  0  0  0  0  0  0  0  0  0
    5.0695   -0.1946   -1.4558 H   0  0  0  0  0  0  0  0  0  0  0  0
    7.2144   -1.1130   -0.7851 H   0  0  0  0  0  0  0  0  0  0  0  0
    7.5138   -2.1049    1.4549 H   0  0  0  0  0  0  0  0  0  0  0  0
    5.0476   -2.8425    5.1349 H   0  0  0  0  0  0  0  0  0  0  0  0
    2.7441   -1.9728    4.7326 H   0  0  0  0  0  0  0  0  0  0  0  0
    2.2344   -0.9426    2.5725 H   0  0  0  0  0  0  0  0  0  0  0  0
   -1.4080    0.5540   -3.2241 H   0  0  0  0  0  0  0  0  0  0  0  0
   -5.0467    0.1091   -5.0314 H   0  0  0  0  0  0  0  0  0  0  0  0
   -5.9283    0.8379   -3.6875 H   0  0  0  0  0  0  0  0  0  0  0  0
   -5.0686   -0.7359   -3.4800 H   0  0  0  0  0  0  0  0  0  0  0  0
   -6.7746    2.5320   -1.0513 H   0  0  0  0  0  0  0  0  0  0  0  0
   -5.3028    2.7146   -0.0828 H   0  0  0  0  0  0  0  0  0  0  0  0
   -5.2551    2.9400   -1.8662 H   0  0  0  0  0  0  0  0  0  0  0  0
  1  2  1  0
  2  3  1  0
  3  4  2  0
  4  5  1  0
  5  6  1  0
  6  7  2  3
  7  8  1  0
  8  9  3  0
  7 10  1  0
 10 11  2  0
 10 12  1  0
 12 13  1  0
 13 14  2  0
 14 15  1  0
 15 16  2  0
 16 17  1  0
 17 18  2  0
 18 19  1  0
 19 20  2  0
 20 21  1  0
 21 22  2  0
  5 23  2  0
 23 24  1  0
 24 25  1  0
 25 26  1  0
 24 27  2  0
 27 28  1  0
 28 29  1  0
 27  3  1  0
 22 13  1  0
 22 17  1  0
  1 30  1  0
  1 31  1  0
  1 32  1  0
  4 33  1  0
  6 34  1  0
 12 35  1  0
 14 36  1  0
 15 37  1  0
 16 38  1  0
 19 39  1  0
 20 40  1  0
 21 41  1  0
 23 42  1  0
 26 43  1  0
 26 44  1  0
 26 45  1  0
 29 46  1  0
 29 47  1  0
 29 48  1  0
M  END
$$$$
