
     RDKit          3D

 40 42  0  0  0  0  0  0  0  0999 V2000
   -7.0937    0.5479   -1.0600 C   0  0  0  0  0  0  0  0  0  0  0  0
   -6.4284   -1.0333   -0.5870 S   0  0  0  0  0  6  0  0  0  0  0  0
   -5.5492   -1.5159   -1.6274 O   0  0  0  0  0  0  0  0  0  0  0  0
   -7.5243   -1.8428   -0.0966 O   0  0  0  0  0  0  0  0  0  0  0  0
   -5.5309   -0.6235    0.7914 N   0  0  0  0  0  0  0  0  0  0  0  0
   -4.1438   -0.3591    0.6054 C   0  0  0  0  0  0  0  0  0  0  0  0
   -3.7236    0.9490    0.3736 C   0  0  0  0  0  0  0  0  0  0  0  0
   -2.3702    1.2140    0.1512 C   0  0  0  0  0  0  0  0  0  0  0  0
   -1.4352    0.1699    0.1566 C   0  0  0  0  0  0  0  0  0  0  0  0
   -0.0016    0.5010   -0.0929 C   0  0  0  0  0  0  0  0  0  0  0  0
    0.2515    1.4536   -0.8198 O   0  0  0  0  0  0  0  0  0  0  0  0
    0.9084   -0.2979    0.5760 N   0  0  0  0  0  0  0  0  0  0  0  0
    2.3169   -0.2417    0.4969 C   0  0  0  0  0  0  0  0  0  0  0  0
    3.0357   -1.1010    1.3415 C   0  0  0  0  0  0  0  0  0  0  0  0
    4.4332   -1.1212    1.3205 C   0  0  0  0  0  0  0  0  0  0  0  0
    5.1231   -0.2856    0.4492 C   0  0  0  0  0  0  0  0  0  0  0  0
    4.4169    0.5900   -0.3795 C   0  0  0  0  0  0  0  0  0  0  0  0
    3.0195    0.6010   -0.3675 C   0  0  0  0  0  0  0  0  0  0  0  0
    5.0327    1.4629   -1.2419 O   0  0  0  0  0  0  0  0  0  0  0  0
    6.4204    1.6170   -0.9268 C   0  0  0  0  0  0  0  0  0  0  0  0
    7.0663    0.2635   -0.6831 C   0  0  0  0  0  0  0  0  0  0  0  0
    6.4912   -0.3727    0.4644 O   0  0  0  0  0  0  0  0  0  0  0  0
   -1.8701   -1.1474    0.3580 C   0  0  0  0  0  0  0  0  0  0  0  0
   -3.2248   -1.4093    0.5857 C   0  0  0  0  0  0  0  0  0  0  0  0
   -7.7747    0.3869   -1.8987 H   0  0  0  0  0  0  0  0  0  0  0  0
   -7.6410    0.9703   -0.2154 H   0  0  0  0  0  0  0  0  0  0  0  0
   -6.2779    1.2026   -1.3695 H   0  0  0  0  0  0  0  0  0  0  0  0
   -5.7493   -1.2971    1.5287 H   0  0  0  0  0  0  0  0  0  0  0  0
   -4.4358    1.7689    0.3730 H   0  0  0  0  0  0  0  0  0  0  0  0
   -2.0438    2.2369   -0.0296 H   0  0  0  0  0  0  0  0  0  0  0  0
    0.5369   -0.9550    1.2484 H   0  0  0  0  0  0  0  0  0  0  0  0
    2.5209   -1.7689    2.0270 H   0  0  0  0  0  0  0  0  0  0  0  0
    4.9803   -1.7948    1.9739 H   0  0  0  0  0  0  0  0  0  0  0  0
    2.5107    1.2825   -1.0412 H   0  0  0  0  0  0  0  0  0  0  0  0
    6.5093    2.2690   -0.0490 H   0  0  0  0  0  0  0  0  0  0  0  0
    6.8994    2.1180   -1.7739 H   0  0  0  0  0  0  0  0  0  0  0  0
    6.9448   -0.4012   -1.5474 H   0  0  0  0  0  0  0  0  0  0  0  0
    8.1374    0.3838   -0.4931 H   0  0  0  0  0  0  0  0  0  0  0  0
   -1.1793   -1.9841    0.2981 H   0  0  0  0  0  0  0  0  0  0  0  0
   -3.5577   -2.4364    0.7120 H   0  0  0  0  0  0  0  0  0  0  0  0
  1  2  1  0
  2  3  2  0
  2  4  2  0
  2  5  1  0
  5  6  1  0
  6  7  2  0
  7  8  1  0
  8  9  2  0
  9 10  1  0
 10 11  2  0
 10 12  1  0
 12 13  1  0
 13 14  2  0
 14 15  1  0
 15 16  2  0
 16 17  1  0
 17 18  2  0
 17 19  1  0
 19 20  1  0
 20 21  1  0
 21 22  1  0
  9 23  1  0
 23 24  2  0
 24  6  1  0
 18 13  1  0
 22 16  1  0
  1 25  1  0
  1 26  1  0
  1 27  1  0
  5 28  1  0
  7 29  1  0
  8 30  1  0
 12 31  1  0
 14 32  1  0
 15 33  1  0
 18 34  1  0
 20 35  1  0
 20 36  1  0
 21 37  1  0
 21 38  1  0
 23 39  1  0
 24 40  1  0
M  END
$$$$
