
     RDKit          3D

 57 61  0  0  0  0  0  0  0  0999 V2000
   -6.6890   -0.4317   -2.7894 C   0  0  0  0  0  0  0  0  0  0  0  0
   -5.7299   -0.9467   -1.7558 C   0  0  0  0  0  0  0  0  0  0  0  0
   -6.1969   -1.4404   -0.5324 C   0  0  0  0  0  0  0  0  0  0  0  0
   -5.2997   -1.8810    0.4436 C   0  0  0  0  0  0  0  0  0  0  0  0
   -3.9165   -1.8272    0.2156 C   0  0  0  0  0  0  0  0  0  0  0  0
   -2.9462   -2.2725    1.2812 C   0  0  0  0  0  0  0  0  0  0  0  0
   -2.7803   -1.2541    2.2989 N   0  0  0  0  0  0  0  0  0  0  0  0
   -3.4526   -1.3289    3.4758 N   0  0  0  0  0  0  0  0  0  0  0  0
   -3.1258   -0.2571    4.1996 N   0  0  0  0  0  0  0  0  0  0  0  0
   -2.2314    0.4643    3.4701 C   0  0  0  0  0  0  0  0  0  0  0  0
   -1.5700    1.7078    3.7546 C   0  0  0  0  0  0  0  0  0  0  0  0
   -1.6957    2.3732    4.7758 O   0  0  0  0  0  0  0  0  0  0  0  0
   -0.7363    2.1034    2.7156 N   0  0  0  0  0  0  0  0  0  0  0  0
   -0.5494    1.3809    1.5361 C   0  0  0  0  0  0  0  0  0  0  0  0
    0.4436    2.0117    0.5684 C   0  0  0  0  0  0  0  0  0  0  0  0
    1.8770    1.8145    1.0917 C   0  0  0  0  0  0  0  0  0  0  0  0
    2.5784    0.6666    0.3748 C   0  0  0  0  0  0  0  0  0  0  0  0
    2.6954    0.9359   -1.0876 N   0  0  0  0  0  0  0  0  0  0  0  0
    4.2345    1.4528   -1.6412 S   0  0  0  0  0  6  0  0  0  0  0  0
    4.1320    1.6515   -3.0735 O   0  0  0  0  0  0  0  0  0  0  0  0
    4.6599    2.5342   -0.7795 O   0  0  0  0  0  0  0  0  0  0  0  0
    5.2419    0.0265   -1.3892 C   0  0  0  0  0  0  0  0  0  0  0  0
    5.2135   -1.0024   -2.3395 C   0  0  0  0  0  0  0  0  0  0  0  0
    6.0274   -2.1229   -2.1723 C   0  0  0  0  0  0  0  0  0  0  0  0
    6.8654   -2.2159   -1.0628 C   0  0  0  0  0  0  0  0  0  0  0  0
    6.8976   -1.1841   -0.1234 C   0  0  0  0  0  0  0  0  0  0  0  0
    6.0888   -0.0638   -0.2939 C   0  0  0  0  0  0  0  0  0  0  0  0
    6.1342    0.8918    0.6434 F   0  0  0  0  0  0  0  0  0  0  0  0
    1.5701    1.7276   -1.6634 C   0  0  0  0  0  0  0  0  0  0  0  0
    0.2890    1.4989   -0.8721 C   0  0  0  0  0  0  0  0  0  0  0  0
   -1.1288    0.2404    1.2828 N   0  0  0  0  0  0  0  0  0  0  0  0
   -1.9686   -0.1557    2.2717 C   0  0  0  0  0  0  0  0  0  0  0  0
   -3.4507   -1.3157   -1.0041 C   0  0  0  0  0  0  0  0  0  0  0  0
   -4.3501   -0.8797   -1.9798 C   0  0  0  0  0  0  0  0  0  0  0  0
   -6.3448   -0.6851   -3.7974 H   0  0  0  0  0  0  0  0  0  0  0  0
   -7.6808   -0.8741   -2.6637 H   0  0  0  0  0  0  0  0  0  0  0  0
   -6.7783    0.6545   -2.7061 H   0  0  0  0  0  0  0  0  0  0  0  0
   -7.2645   -1.4776   -0.3264 H   0  0  0  0  0  0  0  0  0  0  0  0
   -5.6893   -2.2515    1.3910 H   0  0  0  0  0  0  0  0  0  0  0  0
   -1.9556   -2.4884    0.8581 H   0  0  0  0  0  0  0  0  0  0  0  0
   -3.2976   -3.1941    1.7657 H   0  0  0  0  0  0  0  0  0  0  0  0
   -0.2623    2.9821    2.8697 H   0  0  0  0  0  0  0  0  0  0  0  0
    0.2385    3.0915    0.5723 H   0  0  0  0  0  0  0  0  0  0  0  0
    2.4410    2.7405    0.9208 H   0  0  0  0  0  0  0  0  0  0  0  0
    1.8947    1.6356    2.1725 H   0  0  0  0  0  0  0  0  0  0  0  0
    3.5589    0.5027    0.8301 H   0  0  0  0  0  0  0  0  0  0  0  0
    2.0242   -0.2725    0.5026 H   0  0  0  0  0  0  0  0  0  0  0  0
    4.5550   -0.9384   -3.2044 H   0  0  0  0  0  0  0  0  0  0  0  0
    6.0049   -2.9259   -2.9075 H   0  0  0  0  0  0  0  0  0  0  0  0
    7.4995   -3.0878   -0.9316 H   0  0  0  0  0  0  0  0  0  0  0  0
    7.5499   -1.2455    0.7418 H   0  0  0  0  0  0  0  0  0  0  0  0
    1.8152    2.7965   -1.6683 H   0  0  0  0  0  0  0  0  0  0  0  0
    1.4143    1.4056   -2.6987 H   0  0  0  0  0  0  0  0  0  0  0  0
   -0.5489    2.0187   -1.3539 H   0  0  0  0  0  0  0  0  0  0  0  0
    0.0434    0.4291   -0.8993 H   0  0  0  0  0  0  0  0  0  0  0  0
   -2.3819   -1.2405   -1.1995 H   0  0  0  0  0  0  0  0  0  0  0  0
   -3.9668   -0.4777   -2.9157 H   0  0  0  0  0  0  0  0  0  0  0  0
  1  2  1  0
  2  3  2  0
  3  4  1  0
  4  5  2  0
  5  6  1  0
  6  7  1  0
  7  8  1  0
  8  9  2  0
  9 10  1  0
 10 11  1  0
 11 12  2  0
 11 13  1  0
 13 14  1  0
 14 15  1  0
 15 16  1  0
 16 17  1  0
 17 18  1  0
 18 19  1  0
 19 20  2  0
 19 21  2  0
 19 22  1  0
 22 23  2  0
 23 24  1  0
 24 25  2  0
 25 26  1  0
 26 27  2  0
 27 28  1  0
 18 29  1  0
 29 30  1  0
 14 31  2  0
 31 32  1  0
  5 33  1  0
 33 34  2  0
 34  2  1  0
 32  7  1  0
 32 10  2  0
 30 15  1  0
 27 22  1  0
  1 35  1  0
  1 36  1  0
  1 37  1  0
  3 38  1  0
  4 39  1  0
  6 40  1  0
  6 41  1  0
 13 42  1  0
 15 43  1  0
 16 44  1  0
 16 45  1  0
 17 46  1  0
 17 47  1  0
 23 48  1  0
 24 49  1  0
 25 50  1  0
 26 51  1  0
 29 52  1  0
 29 53  1  0
 30 54  1  0
 30 55  1  0
 33 56  1  0
 34 57  1  0
M  END
$$$$
