
     RDKit          3D

 80 86  0  0  0  0  0  0  0  0999 V2000
    6.0328   -3.4280    2.5958 C   0  0  0  0  0  0  0  0  0  0  0  0
    6.0976   -2.1708    1.7141 C   0  0  0  0  0  0  0  0  0  0  0  0
    7.0515   -1.1617    2.3670 C   0  0  0  0  0  0  0  0  0  0  0  0
    6.5657   -2.5795    0.3120 C   0  0  0  0  0  0  0  0  0  0  0  0
    4.7338   -1.6790    1.6796 O   0  0  0  0  0  0  0  0  0  0  0  0
    4.4136   -0.5476    1.0015 C   0  0  0  0  0  0  0  0  0  0  0  0
    5.2181    0.1658    0.4163 O   0  0  0  0  0  0  0  0  0  0  0  0
    3.0602   -0.2923    1.0459 N   0  0  0  0  0  0  0  0  0  0  0  0
    2.1160   -1.1762    1.7264 C   0  0  0  0  0  0  0  0  0  0  0  0
    0.6626   -0.6655    1.6753 C   0  0  0  0  0  0  0  0  0  0  0  0
    0.2550   -0.3620    0.3036 N   0  0  0  0  0  0  0  0  0  0  0  0
    1.2106    0.6017   -0.3768 C   0  0  2  0  0  0  0  0  0  0  0  0
    2.5087    0.8990    0.4074 C   0  0  0  0  0  0  0  0  0  0  0  0
    0.3710    1.8068   -0.5854 C   0  0  0  0  0  0  0  0  0  0  0  0
   -0.9759    1.5478   -0.2928 C   0  0  0  0  0  0  0  0  0  0  0  0
   -1.6855    2.7110   -0.4546 C   0  0  0  0  0  0  0  0  0  0  0  0
   -2.9645    3.0115   -0.2721 O   0  0  0  0  0  0  0  0  0  0  0  0
   -0.7752    3.6707   -0.8743 N   0  0  0  0  0  0  0  0  0  0  0  0
   -1.0879    5.0790   -1.0866 C   0  0  0  0  0  0  0  0  0  0  0  0
   -1.6190    5.3499   -2.4722 C   0  0  0  0  0  0  0  0  0  0  0  0
   -0.7420    5.5114   -3.5541 C   0  0  0  0  0  0  0  0  0  0  0  0
   -1.2355    5.7833   -4.8314 C   0  0  0  0  0  0  0  0  0  0  0  0
   -2.6088    5.8920   -5.0412 C   0  0  0  0  0  0  0  0  0  0  0  0
   -3.4911    5.7208   -3.9767 C   0  0  0  0  0  0  0  0  0  0  0  0
   -2.9998    5.4494   -2.6994 C   0  0  0  0  0  0  0  0  0  0  0  0
    0.4933    3.1170   -0.9677 C   0  0  0  0  0  0  0  0  0  0  0  0
    1.5342    3.8417   -1.3589 O   0  0  0  0  0  0  0  0  0  0  0  0
   -1.1503    0.1361    0.1088 C   0  0  1  0  0  0  0  0  0  0  0  0
   -1.8195   -0.7331   -1.0051 C   0  0  0  0  0  0  0  0  0  0  0  0
   -1.4075   -0.9421   -2.1397 O   0  0  0  0  0  0  0  0  0  0  0  0
   -2.9921   -1.2668   -0.4489 N   0  0  0  0  0  0  0  0  0  0  0  0
   -3.8325   -2.2158   -1.1431 C   0  0  0  0  0  0  0  0  0  0  0  0
   -3.5612   -3.6463   -0.7333 C   0  0  0  0  0  0  0  0  0  0  0  0
   -4.5572   -4.4188   -0.1186 C   0  0  0  0  0  0  0  0  0  0  0  0
   -4.3013   -5.7418    0.2503 C   0  0  0  0  0  0  0  0  0  0  0  0
   -3.0521   -6.3078    0.0026 C   0  0  0  0  0  0  0  0  0  0  0  0
   -2.0559   -5.5528   -0.6127 C   0  0  0  0  0  0  0  0  0  0  0  0
   -2.3089   -4.2305   -0.9801 C   0  0  0  0  0  0  0  0  0  0  0  0
   -3.1904   -0.8078    0.8600 C   0  0  0  0  0  0  0  0  0  0  0  0
   -4.2449   -1.0838    1.7130 C   0  0  0  0  0  0  0  0  0  0  0  0
   -4.2628   -0.4600    2.9617 C   0  0  0  0  0  0  0  0  0  0  0  0
   -3.2436    0.4278    3.3326 C   0  0  0  0  0  0  0  0  0  0  0  0
   -2.1822    0.6955    2.4658 C   0  0  0  0  0  0  0  0  0  0  0  0
   -2.1515    0.0562    1.2309 C   0  0  0  0  0  0  0  0  0  0  0  0
    5.3259   -4.1569    2.1834 H   0  0  0  0  0  0  0  0  0  0  0  0
    5.6695   -3.1810    3.6003 H   0  0  0  0  0  0  0  0  0  0  0  0
    7.0115   -3.9096    2.6904 H   0  0  0  0  0  0  0  0  0  0  0  0
    8.0310   -1.6095    2.5625 H   0  0  0  0  0  0  0  0  0  0  0  0
    6.6415   -0.7942    3.3146 H   0  0  0  0  0  0  0  0  0  0  0  0
    7.2180   -0.2875    1.7321 H   0  0  0  0  0  0  0  0  0  0  0  0
    7.5271   -3.1050    0.3484 H   0  0  0  0  0  0  0  0  0  0  0  0
    6.6909   -1.7111   -0.3416 H   0  0  0  0  0  0  0  0  0  0  0  0
    5.8283   -3.2315   -0.1682 H   0  0  0  0  0  0  0  0  0  0  0  0
    2.1860   -2.1656    1.2549 H   0  0  0  0  0  0  0  0  0  0  0  0
    2.4331   -1.2843    2.7708 H   0  0  0  0  0  0  0  0  0  0  0  0
    0.0216   -1.4463    2.0996 H   0  0  0  0  0  0  0  0  0  0  0  0
    0.5885    0.2221    2.3132 H   0  0  0  0  0  0  0  0  0  0  0  0
    1.4698    0.1570   -1.3456 H   0  0  0  0  0  0  0  0  0  0  0  0
    3.2464    1.3547   -0.2637 H   0  0  0  0  0  0  0  0  0  0  0  0
    2.3275    1.6260    1.2111 H   0  0  0  0  0  0  0  0  0  0  0  0
   -3.4293    2.1912   -0.0259 H   0  0  0  0  0  0  0  0  0  0  0  0
   -1.8131    5.3791   -0.3199 H   0  0  0  0  0  0  0  0  0  0  0  0
   -0.1834    5.6700   -0.8994 H   0  0  0  0  0  0  0  0  0  0  0  0
    0.3327    5.4240   -3.4035 H   0  0  0  0  0  0  0  0  0  0  0  0
   -0.5460    5.9066   -5.6619 H   0  0  0  0  0  0  0  0  0  0  0  0
   -2.9914    6.1041   -6.0361 H   0  0  0  0  0  0  0  0  0  0  0  0
   -4.5621    5.7987   -4.1411 H   0  0  0  0  0  0  0  0  0  0  0  0
   -3.6994    5.3131   -1.8771 H   0  0  0  0  0  0  0  0  0  0  0  0
    2.2887    3.2401   -1.4879 H   0  0  0  0  0  0  0  0  0  0  0  0
   -4.8818   -1.9468   -0.9764 H   0  0  0  0  0  0  0  0  0  0  0  0
   -3.6613   -2.1303   -2.2234 H   0  0  0  0  0  0  0  0  0  0  0  0
   -5.5428   -4.0013    0.0718 H   0  0  0  0  0  0  0  0  0  0  0  0
   -5.0797   -6.3340    0.7264 H   0  0  0  0  0  0  0  0  0  0  0  0
   -2.8564   -7.3400    0.2838 H   0  0  0  0  0  0  0  0  0  0  0  0
   -1.0824   -5.9938   -0.8139 H   0  0  0  0  0  0  0  0  0  0  0  0
   -1.5220   -3.6578   -1.4685 H   0  0  0  0  0  0  0  0  0  0  0  0
   -5.0470   -1.7565    1.4345 H   0  0  0  0  0  0  0  0  0  0  0  0
   -5.0798   -0.6587    3.6533 H   0  0  0  0  0  0  0  0  0  0  0  0
   -3.2799    0.9119    4.3059 H   0  0  0  0  0  0  0  0  0  0  0  0
   -1.4058    1.3982    2.7521 H   0  0  0  0  0  0  0  0  0  0  0  0
  1  2  1  0
  2  3  1  0
  2  4  1  0
  2  5  1  0
  5  6  1  0
  6  7  2  0
  6  8  1  0
  8  9  1  0
  9 10  1  0
 10 11  1  0
 11 12  1  0
 12 13  1  0
 12 14  1  0
 14 15  1  0
 15 16  2  0
 16 17  1  0
 16 18  1  0
 18 19  1  0
 19 20  1  0
 20 21  2  0
 21 22  1  0
 22 23  2  0
 23 24  1  0
 24 25  2  0
 18 26  1  0
 26 27  1  0
 15 28  1  0
 28 29  1  0
 29 30  2  0
 29 31  1  0
 31 32  1  0
 32 33  1  0
 33 34  2  0
 34 35  1  0
 35 36  2  0
 36 37  1  0
 37 38  2  0
 31 39  1  0
 39 40  2  0
 40 41  1  0
 41 42  2  0
 42 43  1  0
 43 44  2  0
 13  8  1  0
 26 14  2  0
 44 28  1  0
 28 11  1  1
 38 33  1  0
 44 39  1  0
 25 20  1  0
  1 45  1  0
  1 46  1  0
  1 47  1  0
  3 48  1  0
  3 49  1  0
  3 50  1  0
  4 51  1  0
  4 52  1  0
  4 53  1  0
  9 54  1  0
  9 55  1  0
 10 56  1  0
 10 57  1  0
 12 58  1  6
 13 59  1  0
 13 60  1  0
 17 61  1  0
 19 62  1  0
 19 63  1  0
 21 64  1  0
 22 65  1  0
 23 66  1  0
 24 67  1  0
 25 68  1  0
 27 69  1  0
 32 70  1  0
 32 71  1  0
 34 72  1  0
 35 73  1  0
 36 74  1  0
 37 75  1  0
 38 76  1  0
 40 77  1  0
 41 78  1  0
 42 79  1  0
 43 80  1  0
M  END
$$$$
