
     RDKit          3D

 35 36  0  0  0  0  0  0  0  0999 V2000
    3.3181    3.2365    0.9319 C   0  0  0  0  0  0  0  0  0  0  0  0
    2.8034    2.1287    1.6730 O   0  0  0  0  0  0  0  0  0  0  0  0
    3.3245    0.9526    1.2022 C   0  0  0  0  0  0  0  0  0  0  0  0
    4.6021    0.5719    1.6236 C   0  0  0  0  0  0  0  0  0  0  0  0
    5.1352   -0.6532    1.2205 C   0  0  0  0  0  0  0  0  0  0  0  0
    4.3882   -1.5076    0.4101 C   0  0  0  0  0  0  0  0  0  0  0  0
    3.1032   -1.1400    0.0049 C   0  0  0  0  0  0  0  0  0  0  0  0
    2.5611    0.0909    0.4066 C   0  0  0  0  0  0  0  0  0  0  0  0
    1.2066    0.4817   -0.0462 C   0  0  0  0  0  0  0  0  0  0  0  0
    0.8931    1.5943   -0.4338 O   0  0  0  0  0  0  0  0  0  0  0  0
    0.3873   -0.5984    0.0383 O   0  0  0  0  0  0  0  0  0  0  0  0
   -0.9691   -0.3363   -0.3525 C   0  0  0  0  0  0  0  0  0  0  0  0
   -1.7714   -1.6224   -0.1754 C   0  0  0  0  0  0  0  0  0  0  0  0
   -3.2151   -1.4537   -0.5690 C   0  0  0  0  0  0  0  0  0  0  0  0
   -3.6267   -1.7017   -1.8852 C   0  0  0  0  0  0  0  0  0  0  0  0
   -4.9615   -1.5258   -2.2531 C   0  0  0  0  0  0  0  0  0  0  0  0
   -5.8949   -1.0970   -1.3113 C   0  0  0  0  0  0  0  0  0  0  0  0
   -5.4945   -0.8423   -0.0011 C   0  0  0  0  0  0  0  0  0  0  0  0
   -4.1602   -1.0176    0.3691 C   0  0  0  0  0  0  0  0  0  0  0  0
    4.3611    3.4307    1.2032 H   0  0  0  0  0  0  0  0  0  0  0  0
    3.2310    3.0813   -0.1494 H   0  0  0  0  0  0  0  0  0  0  0  0
    2.7288    4.1194    1.1970 H   0  0  0  0  0  0  0  0  0  0  0  0
    5.1769    1.2227    2.2772 H   0  0  0  0  0  0  0  0  0  0  0  0
    6.1304   -0.9454    1.5474 H   0  0  0  0  0  0  0  0  0  0  0  0
    4.8041   -2.4629    0.0985 H   0  0  0  0  0  0  0  0  0  0  0  0
    2.5302   -1.8148   -0.6269 H   0  0  0  0  0  0  0  0  0  0  0  0
   -0.9894   -0.0150   -1.4011 H   0  0  0  0  0  0  0  0  0  0  0  0
   -1.3836    0.4614    0.2763 H   0  0  0  0  0  0  0  0  0  0  0  0
   -1.7039   -1.9633    0.8661 H   0  0  0  0  0  0  0  0  0  0  0  0
   -1.3140   -2.4302   -0.7616 H   0  0  0  0  0  0  0  0  0  0  0  0
   -2.9099   -2.0333   -2.6331 H   0  0  0  0  0  0  0  0  0  0  0  0
   -5.2730   -1.7217   -3.2758 H   0  0  0  0  0  0  0  0  0  0  0  0
   -6.9338   -0.9592   -1.5988 H   0  0  0  0  0  0  0  0  0  0  0  0
   -6.2213   -0.5049    0.7332 H   0  0  0  0  0  0  0  0  0  0  0  0
   -3.8628   -0.8108    1.3949 H   0  0  0  0  0  0  0  0  0  0  0  0
  1  2  1  0
  2  3  1  0
  3  4  2  0
  4  5  1  0
  5  6  2  0
  6  7  1  0
  7  8  2  0
  8  9  1  0
  9 10  2  0
  9 11  1  0
 11 12  1  0
 12 13  1  0
 13 14  1  0
 14 15  2  0
 15 16  1  0
 16 17  2  0
 17 18  1  0
 18 19  2  0
  8  3  1  0
 19 14  1  0
  1 20  1  0
  1 21  1  0
  1 22  1  0
  4 23  1  0
  5 24  1  0
  6 25  1  0
  7 26  1  0
 12 27  1  0
 12 28  1  0
 13 29  1  0
 13 30  1  0
 15 31  1  0
 16 32  1  0
 17 33  1  0
 18 34  1  0
 19 35  1  0
M  END
$$$$
