
     RDKit          3D

 31 32  0  0  0  0  0  0  0  0999 V2000
    2.7604    1.0895    3.3173 C   0  0  0  0  0  0  0  0  0  0  0  0
    3.9578    0.0870    2.3922 S   0  0  0  0  0  0  0  0  0  0  0  0
    2.9049   -0.5913    1.1197 C   0  0  0  0  0  0  0  0  0  0  0  0
    3.3613   -0.5782   -0.2032 C   0  0  0  0  0  0  0  0  0  0  0  0
    2.5691   -1.0919   -1.2322 C   0  0  0  0  0  0  0  0  0  0  0  0
    1.3158   -1.6299   -0.9441 C   0  0  0  0  0  0  0  0  0  0  0  0
    0.8646   -1.6657    0.3748 C   0  0  0  0  0  0  0  0  0  0  0  0
   -0.4323   -2.1931    0.6706 N   0  0  0  0  0  0  0  0  0  0  0  0
   -1.6440   -1.0420    1.0116 S   0  0  0  0  0  6  0  0  0  0  0  0
   -1.1392   -0.0127    1.8966 O   0  0  0  0  0  0  0  0  0  0  0  0
   -2.8606   -1.7714    1.3019 O   0  0  0  0  0  0  0  0  0  0  0  0
   -2.0148   -0.2131   -0.4799 C   0  0  0  0  0  0  0  0  0  0  0  0
   -2.5433    1.0559   -0.6060 C   0  0  0  0  0  0  0  0  0  0  0  0
   -2.6614    1.2523   -1.9517 N   0  0  0  0  0  0  0  0  0  0  0  0
   -3.1719    2.4407   -2.5873 C   0  0  0  0  0  0  0  0  0  0  0  0
   -2.2154    0.1277   -2.5865 C   0  0  0  0  0  0  0  0  0  0  0  0
   -1.8132   -0.7857   -1.7297 N   0  0  0  0  0  0  0  0  0  0  0  0
    1.6575   -1.1540    1.4037 C   0  0  0  0  0  0  0  0  0  0  0  0
    2.0612    0.4550    3.8676 H   0  0  0  0  0  0  0  0  0  0  0  0
    2.2070    1.7493    2.6433 H   0  0  0  0  0  0  0  0  0  0  0  0
    3.3002    1.7074    4.0400 H   0  0  0  0  0  0  0  0  0  0  0  0
    4.3365   -0.1598   -0.4433 H   0  0  0  0  0  0  0  0  0  0  0  0
    2.9287   -1.0675   -2.2577 H   0  0  0  0  0  0  0  0  0  0  0  0
    0.7010   -2.0115   -1.7551 H   0  0  0  0  0  0  0  0  0  0  0  0
   -0.8003   -2.8073   -0.0587 H   0  0  0  0  0  0  0  0  0  0  0  0
   -2.8279    1.7938    0.1319 H   0  0  0  0  0  0  0  0  0  0  0  0
   -4.1313    2.6958   -2.1303 H   0  0  0  0  0  0  0  0  0  0  0  0
   -2.4495    3.2468   -2.4366 H   0  0  0  0  0  0  0  0  0  0  0  0
   -3.3090    2.2543   -3.6553 H   0  0  0  0  0  0  0  0  0  0  0  0
   -2.2060    0.0263   -3.6647 H   0  0  0  0  0  0  0  0  0  0  0  0
    1.2941   -1.2067    2.4260 H   0  0  0  0  0  0  0  0  0  0  0  0
  1  2  1  0
  2  3  1  0
  3  4  2  0
  4  5  1  0
  5  6  2  0
  6  7  1  0
  7  8  1  0
  8  9  1  0
  9 10  2  0
  9 11  2  0
  9 12  1  0
 12 13  2  0
 13 14  1  0
 14 15  1  0
 14 16  1  0
 16 17  2  0
  7 18  2  0
 18  3  1  0
 17 12  1  0
  1 19  1  0
  1 20  1  0
  1 21  1  0
  4 22  1  0
  5 23  1  0
  6 24  1  0
  8 25  1  0
 13 26  1  0
 15 27  1  0
 15 28  1  0
 15 29  1  0
 16 30  1  0
 18 31  1  0
M  END
$$$$
