
     RDKit          3D

 50 53  0  0  0  0  0  0  0  0999 V2000
    7.5515    1.4340   -0.4839 C   0  0  0  0  0  0  0  0  0  0  0  0
    6.2402    0.8769   -0.0138 C   0  0  0  0  0  0  0  0  0  0  0  0
    5.8158    1.0678    1.2982 C   0  0  0  0  0  0  0  0  0  0  0  0
    4.5728    0.5834    1.7108 C   0  0  0  0  0  0  0  0  0  0  0  0
    3.7118   -0.0793    0.8183 C   0  0  0  0  0  0  0  0  0  0  0  0
    2.4699   -0.4827    1.3683 N   0  0  0  0  0  0  0  0  0  0  0  0
    1.2533   -0.5355    0.7069 C   0  0  0  0  0  0  0  0  0  0  0  0
    1.0331   -0.1654   -0.4437 O   0  0  0  0  0  0  0  0  0  0  0  0
    0.1243   -1.1213    1.5692 C   0  0  0  0  0  0  0  0  0  0  0  0
   -1.1975   -0.8439    0.9900 N   0  0  0  0  0  4  0  0  0  0  0  0
   -2.1398    0.0771    1.4455 C   0  0  0  0  0  0  0  0  0  0  0  0
   -3.2225    0.0872    0.5734 C   0  0  0  0  0  0  0  0  0  0  0  0
   -4.5280    0.9497    0.7175 C   0  0  0  0  0  0  0  0  0  0  0  0
   -5.5829    0.8029   -0.1855 C   0  0  0  0  0  0  0  0  0  0  0  0
   -6.7401    1.5739   -0.0449 C   0  0  0  0  0  0  0  0  0  0  0  0
   -6.8491    2.4914    0.9971 C   0  0  0  0  0  0  0  0  0  0  0  0
   -5.8025    2.6390    1.9032 C   0  0  0  0  0  0  0  0  0  0  0  0
   -4.6439    1.8700    1.7673 C   0  0  0  0  0  0  0  0  0  0  0  0
   -2.8526   -0.8213   -0.4014 N   0  0  0  0  0  0  0  0  0  0  0  0
   -1.6621   -1.3572   -0.1461 C   0  0  0  0  0  0  0  0  0  0  0  0
   -1.2365   -2.3426   -1.1679 C   0  0  0  0  0  0  0  0  0  0  0  0
   -2.2194   -2.0542   -2.3190 C   0  0  0  0  0  0  0  0  0  0  0  0
   -3.4096   -1.3097   -1.6548 C   0  0  0  0  0  0  0  0  0  0  0  0
    4.1526   -0.3281   -0.4929 C   0  0  0  0  0  0  0  0  0  0  0  0
    3.4160   -1.1562   -1.5087 C   0  0  0  0  0  0  0  0  0  0  0  0
    5.4016    0.1906   -0.8986 C   0  0  0  0  0  0  0  0  0  0  0  0
    8.2690    1.4972    0.3410 H   0  0  0  0  0  0  0  0  0  0  0  0
    7.4044    2.4348   -0.9012 H   0  0  0  0  0  0  0  0  0  0  0  0
    7.9956    0.7909   -1.2511 H   0  0  0  0  0  0  0  0  0  0  0  0
    6.4452    1.6021    2.0070 H   0  0  0  0  0  0  0  0  0  0  0  0
    4.2788    0.7699    2.7410 H   0  0  0  0  0  0  0  0  0  0  0  0
    2.4324   -0.4366    2.3806 H   0  0  0  0  0  0  0  0  0  0  0  0
    0.1646   -0.6956    2.5770 H   0  0  0  0  0  0  0  0  0  0  0  0
    0.2513   -2.2068    1.6313 H   0  0  0  0  0  0  0  0  0  0  0  0
   -1.9223    0.6143    2.3527 H   0  0  0  0  0  0  0  0  0  0  0  0
   -5.5492    0.0929   -1.0012 H   0  0  0  0  0  0  0  0  0  0  0  0
   -7.5625    1.4585   -0.7483 H   0  0  0  0  0  0  0  0  0  0  0  0
   -7.7510    3.0908    1.1034 H   0  0  0  0  0  0  0  0  0  0  0  0
   -5.8910    3.3571    2.7161 H   0  0  0  0  0  0  0  0  0  0  0  0
   -3.8512    2.0215    2.4935 H   0  0  0  0  0  0  0  0  0  0  0  0
   -1.3897   -3.3299   -0.7263 H   0  0  0  0  0  0  0  0  0  0  0  0
   -0.1946   -2.1787   -1.4386 H   0  0  0  0  0  0  0  0  0  0  0  0
   -1.7389   -1.3824   -3.0403 H   0  0  0  0  0  0  0  0  0  0  0  0
   -2.5280   -2.9566   -2.8534 H   0  0  0  0  0  0  0  0  0  0  0  0
   -3.7526   -0.4829   -2.2809 H   0  0  0  0  0  0  0  0  0  0  0  0
   -4.2299   -1.9978   -1.4309 H   0  0  0  0  0  0  0  0  0  0  0  0
    2.8140   -1.9366   -1.0343 H   0  0  0  0  0  0  0  0  0  0  0  0
    4.1223   -1.6843   -2.1604 H   0  0  0  0  0  0  0  0  0  0  0  0
    2.7889   -0.5215   -2.1411 H   0  0  0  0  0  0  0  0  0  0  0  0
    5.7379    0.0329   -1.9238 H   0  0  0  0  0  0  0  0  0  0  0  0
  1  2  1  0
  2  3  2  0
  3  4  1  0
  4  5  2  0
  5  6  1  0
  6  7  1  0
  7  8  2  0
  7  9  1  0
  9 10  1  0
 10 11  1  0
 11 12  2  0
 12 13  1  0
 13 14  2  0
 14 15  1  0
 15 16  2  0
 16 17  1  0
 17 18  2  0
 12 19  1  0
 19 20  1  0
 20 21  1  0
 21 22  1  0
 22 23  1  0
  5 24  1  0
 24 25  1  0
 24 26  2  0
 26  2  1  0
 20 10  2  0
 18 13  1  0
 23 19  1  0
  1 27  1  0
  1 28  1  0
  1 29  1  0
  3 30  1  0
  4 31  1  0
  6 32  1  0
  9 33  1  0
  9 34  1  0
 11 35  1  0
 14 36  1  0
 15 37  1  0
 16 38  1  0
 17 39  1  0
 18 40  1  0
 21 41  1  0
 21 42  1  0
 22 43  1  0
 22 44  1  0
 23 45  1  0
 23 46  1  0
 25 47  1  0
 25 48  1  0
 25 49  1  0
 26 50  1  0
M  CHG  1  10   1
M  END
$$$$
