
     RDKit          3D

 40 42  0  0  0  0  0  0  0  0999 V2000
    4.1927    1.0400   -0.2854 N   0  0  0  0  0  0  0  0  0  0  0  0
    3.9660   -0.1785    0.4797 C   0  0  0  0  0  0  0  0  0  0  0  0
    3.0154   -1.1346   -0.2431 C   0  0  0  0  0  0  0  0  0  0  0  0
    1.6602   -0.5379   -0.6438 C   0  0  0  0  0  0  0  0  0  0  0  0
    0.8808    0.0493    0.5424 C   0  0  0  0  0  0  0  0  0  0  0  0
   -0.4934    0.4452    0.1504 N   0  0  0  0  0  0  0  0  0  0  0  0
   -0.6823    1.7985   -0.2603 C   0  0  0  0  0  0  0  0  0  0  0  0
    0.3979    2.6338   -0.6282 C   0  0  0  0  0  0  0  0  0  0  0  0
    0.2210    3.9590   -1.0455 C   0  0  0  0  0  0  0  0  0  0  0  0
   -1.0513    4.4994   -1.1133 C   0  0  0  0  0  0  0  0  0  0  0  0
   -2.1397    3.7089   -0.7648 C   0  0  0  0  0  0  0  0  0  0  0  0
   -1.9666    2.3739   -0.3463 C   0  0  0  0  0  0  0  0  0  0  0  0
   -3.4595    1.5153    0.0914 S   0  0  0  0  0  0  0  0  0  0  0  0
   -2.8903   -0.1550    0.2927 C   0  0  0  0  0  0  0  0  0  0  0  0
   -3.9031   -1.1209    0.4525 C   0  0  0  0  0  0  0  0  0  0  0  0
   -3.5949   -2.4645    0.6378 C   0  0  0  0  0  0  0  0  0  0  0  0
   -2.2621   -2.8657    0.6709 C   0  0  0  0  0  0  0  0  0  0  0  0
   -1.8954   -4.3193    0.8374 C   0  0  0  0  0  0  0  0  0  0  0  0
   -0.7340   -4.4977    1.5281 F   0  0  0  0  0  0  0  0  0  0  0  0
   -2.8382   -5.0395    1.5065 F   0  0  0  0  0  0  0  0  0  0  0  0
   -1.7192   -4.9492   -0.3563 F   0  0  0  0  0  0  0  0  0  0  0  0
   -1.2552   -1.8935    0.5037 C   0  0  0  0  0  0  0  0  0  0  0  0
   -1.5294   -0.5174    0.3224 C   0  0  0  0  0  0  0  0  0  0  0  0
    4.8869    1.6147    0.1931 H   0  0  0  0  0  0  0  0  0  0  0  0
    4.6017    0.8048   -1.1903 H   0  0  0  0  0  0  0  0  0  0  0  0
    3.5676    0.0824    1.4654 H   0  0  0  0  0  0  0  0  0  0  0  0
    4.9239   -0.6834    0.6469 H   0  0  0  0  0  0  0  0  0  0  0  0
    2.8441   -2.0066    0.4003 H   0  0  0  0  0  0  0  0  0  0  0  0
    3.5056   -1.5127   -1.1495 H   0  0  0  0  0  0  0  0  0  0  0  0
    1.0748   -1.3278   -1.1291 H   0  0  0  0  0  0  0  0  0  0  0  0
    1.8087    0.2206   -1.4200 H   0  0  0  0  0  0  0  0  0  0  0  0
    0.8576   -0.6686    1.3726 H   0  0  0  0  0  0  0  0  0  0  0  0
    1.4172    0.8969    0.9853 H   0  0  0  0  0  0  0  0  0  0  0  0
    1.4238    2.2778   -0.6182 H   0  0  0  0  0  0  0  0  0  0  0  0
    1.0855    4.5583   -1.3193 H   0  0  0  0  0  0  0  0  0  0  0  0
   -1.1988    5.5260   -1.4356 H   0  0  0  0  0  0  0  0  0  0  0  0
   -3.1370    4.1411   -0.8189 H   0  0  0  0  0  0  0  0  0  0  0  0
   -4.9505   -0.8233    0.4319 H   0  0  0  0  0  0  0  0  0  0  0  0
   -4.3985   -3.1895    0.7535 H   0  0  0  0  0  0  0  0  0  0  0  0
   -0.2319   -2.2602    0.5029 H   0  0  0  0  0  0  0  0  0  0  0  0
  1  2  1  0
  2  3  1  0
  3  4  1  0
  4  5  1  0
  5  6  1  0
  6  7  1  0
  7  8  2  0
  8  9  1  0
  9 10  2  0
 10 11  1  0
 11 12  2  0
 12 13  1  0
 13 14  1  0
 14 15  2  0
 15 16  1  0
 16 17  2  0
 17 18  1  0
 18 19  1  0
 18 20  1  0
 18 21  1  0
 17 22  1  0
 22 23  2  0
 23  6  1  0
 12  7  1  0
 23 14  1  0
  1 24  1  0
  1 25  1  0
  2 26  1  0
  2 27  1  0
  3 28  1  0
  3 29  1  0
  4 30  1  0
  4 31  1  0
  5 32  1  0
  5 33  1  0
  8 34  1  0
  9 35  1  0
 10 36  1  0
 11 37  1  0
 15 38  1  0
 16 39  1  0
 22 40  1  0
M  END
$$$$
