
     RDKit          3D

 47 48  0  0  0  0  0  0  0  0999 V2000
   -3.1030    1.1012    3.8610 C   0  0  0  0  0  0  0  0  0  0  0  0
   -3.7750    1.6689    2.6179 C   0  0  0  0  0  0  0  0  0  0  0  0
   -3.5211    0.8303    1.4349 N   0  0  0  0  0  0  0  0  0  0  0  0
   -4.6872    0.1262    0.8805 C   0  0  0  0  0  0  0  0  0  0  0  0
   -4.9187   -1.1982    1.5921 C   0  0  0  0  0  0  0  0  0  0  0  0
   -2.2752    0.7745    0.8178 C   0  0  0  0  0  0  0  0  0  0  0  0
   -1.2781    1.7314    1.0645 C   0  0  0  0  0  0  0  0  0  0  0  0
   -0.0200    1.6793    0.4520 C   0  0  0  0  0  0  0  0  0  0  0  0
    0.2880    0.6515   -0.4381 C   0  0  0  0  0  0  0  0  0  0  0  0
    1.6039    0.6021   -1.0868 C   0  0  0  0  0  0  0  0  0  0  0  0
    2.7372    0.4727   -0.3817 C   0  0  0  0  0  0  0  0  0  0  0  0
    4.0309    0.3046   -1.0396 C   0  0  0  0  0  0  0  0  0  0  0  0
    4.9290    1.3759   -1.0743 C   0  0  0  0  0  0  0  0  0  0  0  0
    6.1541    1.2337   -1.7125 C   0  0  0  0  0  0  0  0  0  0  0  0
    6.4672    0.0234   -2.3109 C   0  0  0  0  0  0  0  0  0  0  0  0
    5.5537   -1.0221   -2.2554 C   0  0  0  0  0  0  0  0  0  0  0  0
    4.3641   -0.8798   -1.6236 N   0  0  0  0  0  4  0  0  0  0  0  0
    3.4393   -2.0339   -1.5855 C   0  0  0  0  0  0  0  0  0  0  0  0
   -0.6822   -0.3218   -0.7208 C   0  0  0  0  0  0  0  0  0  0  0  0
   -0.3043   -1.3165   -1.5954 O   0  0  0  0  0  0  0  0  0  0  0  0
   -1.3395   -2.1644   -2.0852 C   0  0  0  0  0  0  0  0  0  0  0  0
   -1.9347   -0.2510   -0.0873 C   0  0  0  0  0  0  0  0  0  0  0  0
   -3.4351    0.0766    4.0561 H   0  0  0  0  0  0  0  0  0  0  0  0
   -3.3533    1.7108    4.7350 H   0  0  0  0  0  0  0  0  0  0  0  0
   -2.0133    1.0843    3.7665 H   0  0  0  0  0  0  0  0  0  0  0  0
   -3.4689    2.7061    2.4435 H   0  0  0  0  0  0  0  0  0  0  0  0
   -4.8525    1.7208    2.8191 H   0  0  0  0  0  0  0  0  0  0  0  0
   -4.5929   -0.0310   -0.2003 H   0  0  0  0  0  0  0  0  0  0  0  0
   -5.5834    0.7496    0.9915 H   0  0  0  0  0  0  0  0  0  0  0  0
   -5.1446   -1.0416    2.6516 H   0  0  0  0  0  0  0  0  0  0  0  0
   -5.7667   -1.7246    1.1430 H   0  0  0  0  0  0  0  0  0  0  0  0
   -4.0415   -1.8494    1.5309 H   0  0  0  0  0  0  0  0  0  0  0  0
   -1.4610    2.5650    1.7364 H   0  0  0  0  0  0  0  0  0  0  0  0
    0.7008    2.4620    0.6753 H   0  0  0  0  0  0  0  0  0  0  0  0
    1.5821    0.6037   -2.1747 H   0  0  0  0  0  0  0  0  0  0  0  0
    2.7395    0.4596    0.7058 H   0  0  0  0  0  0  0  0  0  0  0  0
    4.6719    2.3273   -0.6110 H   0  0  0  0  0  0  0  0  0  0  0  0
    6.8569    2.0650   -1.7464 H   0  0  0  0  0  0  0  0  0  0  0  0
    7.4201   -0.1060   -2.8201 H   0  0  0  0  0  0  0  0  0  0  0  0
    5.7703   -1.9817   -2.7169 H   0  0  0  0  0  0  0  0  0  0  0  0
    3.9752   -2.9425   -1.8734 H   0  0  0  0  0  0  0  0  0  0  0  0
    3.0661   -2.1607   -0.5663 H   0  0  0  0  0  0  0  0  0  0  0  0
    2.6327   -1.8431   -2.2970 H   0  0  0  0  0  0  0  0  0  0  0  0
   -1.7143   -2.8198   -1.2926 H   0  0  0  0  0  0  0  0  0  0  0  0
   -0.9063   -2.8004   -2.8633 H   0  0  0  0  0  0  0  0  0  0  0  0
   -2.1492   -1.5854   -2.5419 H   0  0  0  0  0  0  0  0  0  0  0  0
   -2.6611   -1.0320   -0.2744 H   0  0  0  0  0  0  0  0  0  0  0  0
  1  2  1  0
  2  3  1  0
  3  4  1  0
  4  5  1  0
  3  6  1  0
  6  7  2  0
  7  8  1  0
  8  9  2  0
  9 10  1  0
 10 11  2  3
 11 12  1  0
 12 13  2  0
 13 14  1  0
 14 15  2  0
 15 16  1  0
 16 17  2  0
 17 18  1  0
  9 19  1  0
 19 20  1  0
 20 21  1  0
 19 22  2  0
 22  6  1  0
 17 12  1  0
  1 23  1  0
  1 24  1  0
  1 25  1  0
  2 26  1  0
  2 27  1  0
  4 28  1  0
  4 29  1  0
  5 30  1  0
  5 31  1  0
  5 32  1  0
  7 33  1  0
  8 34  1  0
 10 35  1  0
 11 36  1  0
 13 37  1  0
 14 38  1  0
 15 39  1  0
 16 40  1  0
 18 41  1  0
 18 42  1  0
 18 43  1  0
 21 44  1  0
 21 45  1  0
 21 46  1  0
 22 47  1  0
M  CHG  1  17   1
M  END
$$$$
