
     RDKit          3D

 65 68  0  0  0  0  0  0  0  0999 V2000
    8.4317    0.1612    3.6828 C   0  0  0  0  0  0  0  0  0  0  0  0
    7.0250    0.2322    4.1101 C   0  0  0  0  0  0  0  0  0  0  0  0
    5.8441   -0.2408    3.5925 C   0  0  0  0  0  0  0  0  0  0  0  0
    4.8585    0.1756    4.5137 C   0  0  0  0  0  0  0  0  0  0  0  0
    3.4995   -0.0476    4.5011 N   0  0  0  0  0  0  0  0  0  0  0  0
    2.8228   -0.7722    3.5449 C   0  0  0  0  0  0  0  0  0  0  0  0
    3.3286   -1.3059    2.5615 O   0  0  0  0  0  0  0  0  0  0  0  0
    1.3455   -0.9134    3.8770 C   0  0  0  0  0  0  0  0  0  0  0  0
    0.5651   -1.5458    2.7256 C   0  0  0  0  0  0  0  0  0  0  0  0
    0.3203   -0.5499    1.6017 C   0  0  0  0  0  0  0  0  0  0  0  0
    0.6509    0.6313    1.7408 O   0  0  0  0  0  0  0  0  0  0  0  0
   -0.2693   -1.0111    0.4271 N   0  0  0  0  0  0  0  0  0  0  0  0
   -0.7361   -2.3908    0.2268 C   0  0  0  0  0  0  0  0  0  0  0  0
   -2.2275   -2.5374    0.2925 C   0  0  0  0  0  0  0  0  0  0  0  0
   -3.0955   -2.8646   -0.7329 C   0  0  0  0  0  0  0  0  0  0  0  0
   -4.4515   -2.9369   -0.3028 C   0  0  0  0  0  0  0  0  0  0  0  0
   -4.5741   -2.7020    1.0475 C   0  0  0  0  0  0  0  0  0  0  0  0
   -3.0625   -2.4142    1.7868 S   0  0  0  0  0  0  0  0  0  0  0  0
   -0.4771    0.0094   -0.6274 C   0  0  0  0  0  0  0  0  0  0  0  0
   -1.7551    0.8783   -0.4066 C   0  0  0  0  0  0  0  0  0  0  0  0
   -2.6243    0.6339    0.4266 O   0  0  0  0  0  0  0  0  0  0  0  0
   -1.8325    1.9915   -1.2336 N   0  0  0  0  0  0  0  0  0  0  0  0
   -2.9787    2.8843   -1.2004 C   0  0  0  0  0  0  0  0  0  0  0  0
   -2.6963    4.1802   -1.9550 C   0  0  0  0  0  0  0  0  0  0  0  0
   -2.9747    3.8551   -3.4225 C   0  0  0  0  0  0  0  0  0  0  0  0
   -3.8699    2.6156   -3.4262 C   0  0  0  0  0  0  0  0  0  0  0  0
   -4.1739    2.3144   -1.9621 C   0  0  0  0  0  0  0  0  0  0  0  0
   -0.3084   -0.5198   -2.0537 C   0  0  0  0  0  0  0  0  0  0  0  0
    0.9882   -0.8059   -2.5205 C   0  0  0  0  0  0  0  0  0  0  0  0
    1.1921   -1.2794   -3.8173 C   0  0  0  0  0  0  0  0  0  0  0  0
    0.1053   -1.4792   -4.6652 C   0  0  0  0  0  0  0  0  0  0  0  0
   -1.1859   -1.2095   -4.2161 C   0  0  0  0  0  0  0  0  0  0  0  0
   -1.3927   -0.7365   -2.9192 C   0  0  0  0  0  0  0  0  0  0  0  0
    5.4120    0.8520    5.5296 N   0  0  0  0  0  0  0  0  0  0  0  0
    6.7711    0.8830    5.2759 O   0  0  0  0  0  0  0  0  0  0  0  0
    8.6467   -0.8084    3.2244 H   0  0  0  0  0  0  0  0  0  0  0  0
    9.1107    0.2894    4.5314 H   0  0  0  0  0  0  0  0  0  0  0  0
    8.6486    0.9441    2.9501 H   0  0  0  0  0  0  0  0  0  0  0  0
    5.7230   -0.8168    2.6874 H   0  0  0  0  0  0  0  0  0  0  0  0
    3.0079    0.3547    5.2876 H   0  0  0  0  0  0  0  0  0  0  0  0
    0.9347    0.0639    4.1531 H   0  0  0  0  0  0  0  0  0  0  0  0
    1.2744   -1.5681    4.7538 H   0  0  0  0  0  0  0  0  0  0  0  0
    1.1098   -2.4132    2.3422 H   0  0  0  0  0  0  0  0  0  0  0  0
   -0.4063   -1.8736    3.1051 H   0  0  0  0  0  0  0  0  0  0  0  0
   -0.3595   -2.7541   -0.7358 H   0  0  0  0  0  0  0  0  0  0  0  0
   -0.2960   -3.0641    0.9666 H   0  0  0  0  0  0  0  0  0  0  0  0
   -2.7745   -3.0363   -1.7543 H   0  0  0  0  0  0  0  0  0  0  0  0
   -5.2949   -3.1527   -0.9482 H   0  0  0  0  0  0  0  0  0  0  0  0
   -5.4792   -2.6915    1.6384 H   0  0  0  0  0  0  0  0  0  0  0  0
    0.3333    0.7468   -0.5174 H   0  0  0  0  0  0  0  0  0  0  0  0
   -1.1706    2.0701   -1.9973 H   0  0  0  0  0  0  0  0  0  0  0  0
   -3.2304    3.0776   -0.1519 H   0  0  0  0  0  0  0  0  0  0  0  0
   -3.3941    4.9591   -1.6226 H   0  0  0  0  0  0  0  0  0  0  0  0
   -1.6792    4.5570   -1.8064 H   0  0  0  0  0  0  0  0  0  0  0  0
   -3.4547    4.7018   -3.9250 H   0  0  0  0  0  0  0  0  0  0  0  0
   -2.0427    3.6450   -3.9581 H   0  0  0  0  0  0  0  0  0  0  0  0
   -4.7867    2.7727   -4.0041 H   0  0  0  0  0  0  0  0  0  0  0  0
   -3.3351    1.7751   -3.8836 H   0  0  0  0  0  0  0  0  0  0  0  0
   -4.3382    1.2466   -1.7910 H   0  0  0  0  0  0  0  0  0  0  0  0
   -5.0859    2.8458   -1.6672 H   0  0  0  0  0  0  0  0  0  0  0  0
    1.8491   -0.6586   -1.8680 H   0  0  0  0  0  0  0  0  0  0  0  0
    2.2004   -1.4925   -4.1645 H   0  0  0  0  0  0  0  0  0  0  0  0
    0.2633   -1.8451   -5.6763 H   0  0  0  0  0  0  0  0  0  0  0  0
   -2.0345   -1.3701   -4.8773 H   0  0  0  0  0  0  0  0  0  0  0  0
   -2.4140   -0.5398   -2.5965 H   0  0  0  0  0  0  0  0  0  0  0  0
  1  2  1  0
  2  3  2  0
  3  4  1  0
  4  5  1  0
  5  6  1  0
  6  7  2  0
  6  8  1  0
  8  9  1  0
  9 10  1  0
 10 11  2  0
 10 12  1  0
 12 13  1  0
 13 14  1  0
 14 15  2  0
 15 16  1  0
 16 17  2  0
 17 18  1  0
 12 19  1  0
 19 20  1  0
 20 21  2  0
 20 22  1  0
 22 23  1  0
 23 24  1  0
 24 25  1  0
 25 26  1  0
 26 27  1  0
 19 28  1  0
 28 29  2  0
 29 30  1  0
 30 31  2  0
 31 32  1  0
 32 33  2  0
  4 34  2  0
 34 35  1  0
 35  2  1  0
 18 14  1  0
 27 23  1  0
 33 28  1  0
  1 36  1  0
  1 37  1  0
  1 38  1  0
  3 39  1  0
  5 40  1  0
  8 41  1  0
  8 42  1  0
  9 43  1  0
  9 44  1  0
 13 45  1  0
 13 46  1  0
 15 47  1  0
 16 48  1  0
 17 49  1  0
 19 50  1  0
 22 51  1  0
 23 52  1  0
 24 53  1  0
 24 54  1  0
 25 55  1  0
 25 56  1  0
 26 57  1  0
 26 58  1  0
 27 59  1  0
 27 60  1  0
 29 61  1  0
 30 62  1  0
 31 63  1  0
 32 64  1  0
 33 65  1  0
M  END
$$$$
