
     RDKit          3D

 50 53  0  0  0  0  0  0  0  0999 V2000
    7.8588   -0.9973    2.3235 C   0  0  0  0  0  0  0  0  0  0  0  0
    7.3951   -1.2912    0.9083 C   0  0  0  0  0  0  0  0  0  0  0  0
    6.7772   -0.1361    0.3389 O   0  0  0  0  0  0  0  0  0  0  0  0
    5.4145   -0.0560    0.3320 C   0  0  0  0  0  0  0  0  0  0  0  0
    4.5680   -0.7743    1.1776 C   0  0  0  0  0  0  0  0  0  0  0  0
    3.1765   -0.6176    1.0907 C   0  0  0  0  0  0  0  0  0  0  0  0
    2.6047    0.2717    0.1685 C   0  0  0  0  0  0  0  0  0  0  0  0
    1.1183    0.3626    0.0981 C   0  0  0  0  0  0  0  0  0  0  0  0
    0.4722   -0.6415    0.3699 O   0  0  0  0  0  0  0  0  0  0  0  0
    0.6159    1.6031   -0.2481 N   0  0  0  0  0  0  0  0  0  0  0  0
   -0.7346    1.9362   -0.4950 C   0  0  0  0  0  0  0  0  0  0  0  0
   -1.0263    3.2820   -0.7480 C   0  0  0  0  0  0  0  0  0  0  0  0
   -2.3334    3.6872   -1.0248 C   0  0  0  0  0  0  0  0  0  0  0  0
   -3.3648    2.7496   -1.0486 C   0  0  0  0  0  0  0  0  0  0  0  0
   -3.0974    1.3985   -0.7972 C   0  0  0  0  0  0  0  0  0  0  0  0
   -4.1889    0.4011   -0.8187 C   0  0  0  0  0  0  0  0  0  0  0  0
   -4.4066   -0.3370    0.2837 C   0  0  0  0  0  0  0  0  0  0  0  0
   -5.4627   -1.3342    0.3138 C   0  0  0  0  0  0  0  0  0  0  0  0
   -5.7147   -2.1148    1.4448 C   0  0  0  0  0  0  0  0  0  0  0  0
   -6.7368   -3.0693    1.4208 C   0  0  0  0  0  0  0  0  0  0  0  0
   -7.5065   -3.2501    0.2680 C   0  0  0  0  0  0  0  0  0  0  0  0
   -7.2610   -2.4727   -0.8623 C   0  0  0  0  0  0  0  0  0  0  0  0
   -6.2425   -1.5231   -0.8220 C   0  0  0  0  0  0  0  0  0  0  0  0
   -6.0308   -0.7508   -1.9773 O   0  0  0  0  0  0  0  0  0  0  0  0
   -5.0429    0.2290   -2.0326 C   0  0  0  0  0  0  0  0  0  0  0  0
   -4.8963    0.9110   -3.0416 O   0  0  0  0  0  0  0  0  0  0  0  0
   -1.7746    1.0029   -0.5253 C   0  0  0  0  0  0  0  0  0  0  0  0
    3.4340    1.0024   -0.6837 C   0  0  0  0  0  0  0  0  0  0  0  0
    4.8213    0.8312   -0.5745 C   0  0  0  0  0  0  0  0  0  0  0  0
    5.6584    1.6022   -1.4633 N   0  0  0  0  0  4  0  0  0  0  0  0
    6.0875    2.6817   -1.0315 O   0  0  0  0  0  0  0  0  0  0  0  0
    5.8214    1.1558   -2.6072 O   0  0  0  0  0  1  0  0  0  0  0  0
    8.5638   -0.1583    2.3289 H   0  0  0  0  0  0  0  0  0  0  0  0
    8.3527   -1.8708    2.7577 H   0  0  0  0  0  0  0  0  0  0  0  0
    7.0216   -0.7100    2.9668 H   0  0  0  0  0  0  0  0  0  0  0  0
    6.7590   -2.1828    0.8590 H   0  0  0  0  0  0  0  0  0  0  0  0
    8.2731   -1.5120    0.2909 H   0  0  0  0  0  0  0  0  0  0  0  0
    4.9517   -1.4635    1.9244 H   0  0  0  0  0  0  0  0  0  0  0  0
    2.5339   -1.1992    1.7520 H   0  0  0  0  0  0  0  0  0  0  0  0
    1.2648    2.3781   -0.2891 H   0  0  0  0  0  0  0  0  0  0  0  0
   -0.2429    4.0356   -0.7405 H   0  0  0  0  0  0  0  0  0  0  0  0
   -2.5485    4.7326   -1.2309 H   0  0  0  0  0  0  0  0  0  0  0  0
   -4.3764    3.0811   -1.2768 H   0  0  0  0  0  0  0  0  0  0  0  0
   -3.8019   -0.2166    1.1803 H   0  0  0  0  0  0  0  0  0  0  0  0
   -5.1209   -1.9936    2.3506 H   0  0  0  0  0  0  0  0  0  0  0  0
   -6.9305   -3.6755    2.3020 H   0  0  0  0  0  0  0  0  0  0  0  0
   -8.2976   -3.9959    0.2525 H   0  0  0  0  0  0  0  0  0  0  0  0
   -7.8551   -2.6048   -1.7626 H   0  0  0  0  0  0  0  0  0  0  0  0
   -1.5773   -0.0514   -0.3581 H   0  0  0  0  0  0  0  0  0  0  0  0
    3.0279    1.6643   -1.4438 H   0  0  0  0  0  0  0  0  0  0  0  0
  1  2  1  0
  2  3  1  0
  3  4  1  0
  4  5  2  0
  5  6  1  0
  6  7  2  0
  7  8  1  0
  8  9  2  0
  8 10  1  0
 10 11  1  0
 11 12  2  0
 12 13  1  0
 13 14  2  0
 14 15  1  0
 15 16  1  0
 16 17  2  0
 17 18  1  0
 18 19  2  0
 19 20  1  0
 20 21  2  0
 21 22  1  0
 22 23  2  0
 23 24  1  0
 24 25  1  0
 25 26  2  0
 15 27  2  0
  7 28  1  0
 28 29  2  0
 29 30  1  0
 30 31  2  0
 30 32  1  0
 29  4  1  0
 27 11  1  0
 25 16  1  0
 23 18  1  0
  1 33  1  0
  1 34  1  0
  1 35  1  0
  2 36  1  0
  2 37  1  0
  5 38  1  0
  6 39  1  0
 10 40  1  0
 12 41  1  0
 13 42  1  0
 14 43  1  0
 17 44  1  0
 19 45  1  0
 20 46  1  0
 21 47  1  0
 22 48  1  0
 27 49  1  0
 28 50  1  0
M  CHG  2  30   1  32  -1
M  END
$$$$
