
     RDKit          3D

 36 37  0  0  0  0  0  0  0  0999 V2000
    0.0795   -0.6341    2.1395 O   0  0  0  0  0  0  0  0  0  0  0  0
    0.7434   -1.2827    1.3354 C   0  0  0  0  0  0  0  0  0  0  0  0
    0.1167   -2.1073    0.2055 C   0  0  0  0  0  0  0  0  0  0  0  0
   -1.2504   -1.7719   -0.0242 O   0  0  0  0  0  0  0  0  0  0  0  0
   -1.4399   -0.6400   -0.7381 C   0  0  0  0  0  0  0  0  0  0  0  0
   -0.5953    0.0568   -1.2792 O   0  0  0  0  0  0  0  0  0  0  0  0
   -2.8646   -0.2954   -0.6876 C   0  0  0  0  0  0  0  0  0  0  0  0
   -3.2210    0.8558    0.0267 C   0  0  0  0  0  0  0  0  0  0  0  0
   -4.5613    1.2249    0.0980 C   0  0  0  0  0  0  0  0  0  0  0  0
   -5.0150    2.6325    0.9747 Cl  0  0  0  0  0  0  0  0  0  0  0  0
   -5.5406    0.4618   -0.5388 C   0  0  0  0  0  0  0  0  0  0  0  0
   -5.1776   -0.6806   -1.2590 C   0  0  0  0  0  0  0  0  0  0  0  0
   -3.8354   -1.0621   -1.3389 C   0  0  0  0  0  0  0  0  0  0  0  0
   -3.4404   -2.4548   -2.2780 Cl  0  0  0  0  0  0  0  0  0  0  0  0
    2.1221   -1.3504    1.3720 N   0  0  0  0  0  0  0  0  0  0  0  0
    2.8996   -0.5216    2.2818 C   0  0  0  0  0  0  0  0  0  0  0  0
    2.9476    0.9647    1.8847 C   0  0  0  0  0  0  0  0  0  0  0  0
    3.3208    1.1597    0.4907 N   0  0  0  0  0  0  0  0  0  0  0  0
    2.4104    1.4217   -0.5029 C   0  0  0  0  0  0  0  0  0  0  0  0
    1.1115    1.6329   -0.1638 O   0  0  0  0  0  0  0  0  0  0  0  0
    2.9171    1.4251   -1.7398 C   0  0  0  0  0  0  0  0  0  0  0  0
    4.6250    1.1023   -1.7167 S   0  0  0  0  0  0  0  0  0  0  0  0
    4.6122    0.9312    0.0502 C   0  0  0  0  0  0  0  0  0  0  0  0
    5.5890    0.6182    0.7103 O   0  0  0  0  0  0  0  0  0  0  0  0
    0.1487   -3.1595    0.5072 H   0  0  0  0  0  0  0  0  0  0  0  0
    0.7025   -2.0074   -0.7160 H   0  0  0  0  0  0  0  0  0  0  0  0
   -2.4580    1.4473    0.5293 H   0  0  0  0  0  0  0  0  0  0  0  0
   -6.5873    0.7525   -0.4815 H   0  0  0  0  0  0  0  0  0  0  0  0
   -5.9477   -1.2641   -1.7591 H   0  0  0  0  0  0  0  0  0  0  0  0
    2.6099   -1.7246    0.5682 H   0  0  0  0  0  0  0  0  0  0  0  0
    2.4811   -0.6176    3.2897 H   0  0  0  0  0  0  0  0  0  0  0  0
    3.9097   -0.9444    2.2957 H   0  0  0  0  0  0  0  0  0  0  0  0
    3.6960    1.4678    2.5088 H   0  0  0  0  0  0  0  0  0  0  0  0
    1.9862    1.4488    2.0873 H   0  0  0  0  0  0  0  0  0  0  0  0
    0.5403    1.3037   -0.8912 H   0  0  0  0  0  0  0  0  0  0  0  0
    2.3653    1.6104   -2.6499 H   0  0  0  0  0  0  0  0  0  0  0  0
  1  2  2  0
  2  3  1  0
  3  4  1  0
  4  5  1  0
  5  6  2  0
  5  7  1  0
  7  8  2  0
  8  9  1  0
  9 10  1  0
  9 11  2  0
 11 12  1  0
 12 13  2  0
 13 14  1  0
  2 15  1  0
 15 16  1  0
 16 17  1  0
 17 18  1  0
 18 19  1  0
 19 20  1  0
 19 21  2  0
 21 22  1  0
 22 23  1  0
 23 24  2  0
 13  7  1  0
 23 18  1  0
  3 25  1  0
  3 26  1  0
  8 27  1  0
 11 28  1  0
 12 29  1  0
 15 30  1  0
 16 31  1  0
 16 32  1  0
 17 33  1  0
 17 34  1  0
 20 35  1  0
 21 36  1  0
M  END
$$$$
