
     RDKit          3D

 97 99  0  0  0  0  0  0  0  0999 V2000
    0.1317   -1.0805    2.0250 C   0  0  0  0  0  0  0  0  0  0  0  0
   -0.3548   -0.2393    1.0847 C   0  0  0  0  0  0  0  0  0  0  0  0
   -1.2820   -0.8196    0.0121 C   0  0  1  0  0  0  0  0  0  0  0  0
   -2.5008   -1.1987    0.7015 O   0  0  0  0  0  0  0  0  0  0  0  0
   -2.9295   -2.4793    0.5275 C   0  0  0  0  0  0  0  0  0  0  0  0
   -2.3389   -3.3331   -0.1224 O   0  0  0  0  0  0  0  0  0  0  0  0
   -4.2410   -2.6856    1.2669 C   0  0  0  0  0  0  0  0  0  0  0  0
   -4.8808   -4.0185    0.8825 C   0  0  0  0  0  0  0  0  0  0  0  0
   -4.0100   -2.6127    2.7742 C   0  0  0  0  0  0  0  0  0  0  0  0
   -1.6644    0.0208   -1.2348 C   0  0  0  0  0  0  0  0  0  0  0  0
   -2.9045    0.7347   -1.0394 O   0  0  0  0  0  0  0  0  0  0  0  0
   -3.1498    1.6900   -1.9780 C   0  0  0  0  0  0  0  0  0  0  0  0
   -4.5518    2.2027   -1.8586 C   0  0  0  0  0  0  0  0  0  0  0  0
   -2.3494    2.0583   -2.8282 O   0  0  0  0  0  0  0  0  0  0  0  0
   -1.8233   -0.9280   -2.4321 C   0  0  0  0  0  0  0  0  0  0  0  0
   -2.9409   -1.3551   -2.7490 O   0  0  0  0  0  0  0  0  0  0  0  0
   -0.5697   -1.2808   -3.2767 C   0  0  0  0  0  0  0  0  0  0  0  0
   -0.6076   -2.7985   -3.5577 C   0  0  0  0  0  0  0  0  0  0  0  0
   -0.7013   -0.5335   -4.6183 C   0  0  0  0  0  0  0  0  0  0  0  0
    0.7458   -0.9817   -2.5612 C   0  0  0  0  0  0  0  0  0  0  0  0
    1.5089    0.1214   -2.6717 C   0  0  0  0  0  0  0  0  0  0  0  0
    2.8740    0.3415   -2.0413 C   0  0  2  0  0  0  0  0  0  0  0  0
    3.8756   -0.5904   -2.7495 C   0  0  0  0  0  0  0  0  0  0  0  0
    3.0387    0.2145   -0.4902 C   0  0  2  0  0  0  0  0  0  0  0  0
    2.6055   -1.0998   -0.0596 O   0  0  0  0  0  0  0  0  0  0  0  0
    3.3565   -1.6703    0.9235 C   0  0  0  0  0  0  0  0  0  0  0  0
    4.2654   -1.1160    1.5269 O   0  0  0  0  0  0  0  0  0  0  0  0
    2.9335   -3.0658    1.2053 C   0  0  0  0  0  0  0  0  0  0  0  0
    3.3127   -3.6374    2.4284 C   0  0  0  0  0  0  0  0  0  0  0  0
    2.9565   -4.9558    2.7282 C   0  0  0  0  0  0  0  0  0  0  0  0
    2.2244   -5.7056    1.8092 C   0  0  0  0  0  0  0  0  0  0  0  0
    1.8494   -5.1440    0.5868 C   0  0  0  0  0  0  0  0  0  0  0  0
    2.2074   -3.8278    0.2825 C   0  0  0  0  0  0  0  0  0  0  0  0
    2.4833    1.3836    0.4091 C   0  0  1  0  0  0  0  0  0  0  0  0
    2.6957    1.0637    1.7943 O   0  0  0  0  0  0  0  0  0  0  0  0
    3.3159    2.6756    0.1491 C   0  0  0  0  0  0  0  0  0  0  0  0
    2.3368    3.7135   -0.3948 C   0  0  2  0  0  0  0  0  0  0  0  0
    2.8352    5.1382   -0.2009 C   0  0  0  0  0  0  0  0  0  0  0  0
    1.0455    3.3760    0.3467 C   0  0  2  0  0  0  0  0  0  0  0  0
    1.1558    3.7852    1.7186 O   0  0  0  0  0  0  0  0  0  0  0  0
    0.2590    4.6996    2.1761 C   0  0  0  0  0  0  0  0  0  0  0  0
    0.5160    4.9915    3.6226 C   0  0  0  0  0  0  0  0  0  0  0  0
   -0.6290    5.2243    1.5199 O   0  0  0  0  0  0  0  0  0  0  0  0
    0.9957    1.8269    0.2334 C   0  0  2  0  0  0  0  0  0  0  0  0
   -0.0605    1.2449    1.2108 C   0  0  1  0  0  0  0  0  0  0  0  0
   -1.3153    1.9367    1.0132 O   0  0  0  0  0  0  0  0  0  0  0  0
   -1.9943    2.2970    2.1399 C   0  0  0  0  0  0  0  0  0  0  0  0
   -3.3092    2.9125    1.7753 C   0  0  0  0  0  0  0  0  0  0  0  0
   -1.6144    2.1395    3.2919 O   0  0  0  0  0  0  0  0  0  0  0  0
   -0.0905   -2.1454    2.0150 H   0  0  0  0  0  0  0  0  0  0  0  0
    0.7566   -0.7268    2.8427 H   0  0  0  0  0  0  0  0  0  0  0  0
   -0.7555   -1.7171   -0.3375 H   0  0  0  0  0  0  0  0  0  0  0  0
   -4.9234   -1.8814    0.9589 H   0  0  0  0  0  0  0  0  0  0  0  0
   -5.8581   -4.1335    1.3638 H   0  0  0  0  0  0  0  0  0  0  0  0
   -5.0313   -4.0804   -0.2018 H   0  0  0  0  0  0  0  0  0  0  0  0
   -4.2499   -4.8660    1.1770 H   0  0  0  0  0  0  0  0  0  0  0  0
   -3.2892   -3.3689    3.1073 H   0  0  0  0  0  0  0  0  0  0  0  0
   -3.6127   -1.6333    3.0665 H   0  0  0  0  0  0  0  0  0  0  0  0
   -4.9454   -2.7647    3.3233 H   0  0  0  0  0  0  0  0  0  0  0  0
   -0.8931    0.7415   -1.4860 H   0  0  0  0  0  0  0  0  0  0  0  0
   -5.2503    1.4568   -2.2519 H   0  0  0  0  0  0  0  0  0  0  0  0
   -4.7887    2.4316   -0.8174 H   0  0  0  0  0  0  0  0  0  0  0  0
   -4.6455    3.1286   -2.4385 H   0  0  0  0  0  0  0  0  0  0  0  0
    0.2659   -3.1202   -4.1381 H   0  0  0  0  0  0  0  0  0  0  0  0
   -0.6267   -3.3722   -2.6208 H   0  0  0  0  0  0  0  0  0  0  0  0
   -1.5025   -3.0852   -4.1209 H   0  0  0  0  0  0  0  0  0  0  0  0
   -1.6074   -0.8360   -5.1577 H   0  0  0  0  0  0  0  0  0  0  0  0
   -0.7734    0.5512   -4.4732 H   0  0  0  0  0  0  0  0  0  0  0  0
    0.1588   -0.7302   -5.2731 H   0  0  0  0  0  0  0  0  0  0  0  0
    1.1072   -1.7852   -1.9234 H   0  0  0  0  0  0  0  0  0  0  0  0
    1.1807    0.9309   -3.3243 H   0  0  0  0  0  0  0  0  0  0  0  0
    3.1667    1.3623   -2.3139 H   0  0  0  0  0  0  0  0  0  0  0  0
    3.8185   -0.4743   -3.8401 H   0  0  0  0  0  0  0  0  0  0  0  0
    4.9028   -0.3527   -2.4498 H   0  0  0  0  0  0  0  0  0  0  0  0
    3.6910   -1.6452   -2.5087 H   0  0  0  0  0  0  0  0  0  0  0  0
    4.1275    0.2436   -0.3371 H   0  0  0  0  0  0  0  0  0  0  0  0
    3.8817   -3.0577    3.1548 H   0  0  0  0  0  0  0  0  0  0  0  0
    3.2577   -5.3951    3.6773 H   0  0  0  0  0  0  0  0  0  0  0  0
    1.9478   -6.7319    2.0431 H   0  0  0  0  0  0  0  0  0  0  0  0
    1.2880   -5.7351   -0.1339 H   0  0  0  0  0  0  0  0  0  0  0  0
    1.9220   -3.4216   -0.6821 H   0  0  0  0  0  0  0  0  0  0  0  0
    3.5771    0.6409    1.8848 H   0  0  0  0  0  0  0  0  0  0  0  0
    4.1434    2.5266   -0.5531 H   0  0  0  0  0  0  0  0  0  0  0  0
    3.7707    3.0293    1.0832 H   0  0  0  0  0  0  0  0  0  0  0  0
    2.1871    3.5385   -1.4670 H   0  0  0  0  0  0  0  0  0  0  0  0
    3.7428    5.3081   -0.7928 H   0  0  0  0  0  0  0  0  0  0  0  0
    2.0779    5.8604   -0.5237 H   0  0  0  0  0  0  0  0  0  0  0  0
    3.0794    5.3496    0.8460 H   0  0  0  0  0  0  0  0  0  0  0  0
    0.1832    3.8282   -0.1536 H   0  0  0  0  0  0  0  0  0  0  0  0
   -0.3236    5.5598    4.0305 H   0  0  0  0  0  0  0  0  0  0  0  0
    1.4306    5.5807    3.7256 H   0  0  0  0  0  0  0  0  0  0  0  0
    0.5937    4.0566    4.1863 H   0  0  0  0  0  0  0  0  0  0  0  0
    0.6956    1.6472   -0.7953 H   0  0  0  0  0  0  0  0  0  0  0  0
    0.3010    1.4452    2.2292 H   0  0  0  0  0  0  0  0  0  0  0  0
   -3.7382    3.3925    2.6645 H   0  0  0  0  0  0  0  0  0  0  0  0
   -3.1648    3.6827    1.0144 H   0  0  0  0  0  0  0  0  0  0  0  0
   -3.9867    2.1320    1.4198 H   0  0  0  0  0  0  0  0  0  0  0  0
  1  2  2  0
  2  3  1  0
  3  4  1  0
  4  5  1  0
  5  6  2  0
  5  7  1  0
  7  8  1  0
  7  9  1  0
  3 10  1  0
 10 11  1  0
 11 12  1  0
 12 13  1  0
 12 14  2  0
 10 15  1  0
 15 16  2  0
 15 17  1  0
 17 18  1  0
 17 19  1  0
 17 20  1  0
 20 21  2  0
 21 22  1  0
 22 23  1  0
 22 24  1  0
 24 25  1  0
 25 26  1  0
 26 27  2  0
 26 28  1  0
 28 29  2  0
 29 30  1  0
 30 31  2  0
 31 32  1  0
 32 33  2  0
 24 34  1  0
 34 35  1  1
 34 36  1  0
 36 37  1  0
 37 38  1  0
 37 39  1  0
 39 40  1  0
 40 41  1  0
 41 42  1  0
 41 43  2  0
 39 44  1  0
 44 45  1  0
 45 46  1  0
 46 47  1  0
 47 48  1  0
 47 49  2  0
 45  2  1  0
 33 28  1  0
 44 34  1  0
  1 50  1  0
  1 51  1  0
  3 52  1  6
  7 53  1  0
  8 54  1  0
  8 55  1  0
  8 56  1  0
  9 57  1  0
  9 58  1  0
  9 59  1  0
 10 60  1  0
 13 61  1  0
 13 62  1  0
 13 63  1  0
 18 64  1  0
 18 65  1  0
 18 66  1  0
 19 67  1  0
 19 68  1  0
 19 69  1  0
 20 70  1  0
 21 71  1  0
 22 72  1  6
 23 73  1  0
 23 74  1  0
 23 75  1  0
 24 76  1  6
 29 77  1  0
 30 78  1  0
 31 79  1  0
 32 80  1  0
 33 81  1  0
 35 82  1  0
 36 83  1  0
 36 84  1  0
 37 85  1  6
 38 86  1  0
 38 87  1  0
 38 88  1  0
 39 89  1  6
 42 90  1  0
 42 91  1  0
 42 92  1  0
 44 93  1  6
 45 94  1  1
 48 95  1  0
 48 96  1  0
 48 97  1  0
M  END
$$$$
