
     RDKit          3D

 58 63  0  0  0  0  0  0  0  0999 V2000
    8.3654   -0.7748   -0.4398 C   0  0  0  0  0  0  0  0  0  0  0  0
    6.9627   -0.2726   -0.4173 C   0  0  0  0  0  0  0  0  0  0  0  0
    6.1595    0.0815   -1.4808 C   0  0  0  0  0  0  0  0  0  0  0  0
    4.8734    0.5268   -1.0581 C   0  0  0  0  0  0  0  0  0  0  0  0
    4.7244    0.4801    0.3159 C   0  0  0  0  0  0  0  0  0  0  0  0
    3.5802    0.8600    1.1330 C   0  0  0  0  0  0  0  0  0  0  0  0
    3.7019    1.5019    2.1775 O   0  0  0  0  0  0  0  0  0  0  0  0
    2.2994    0.5050    0.6545 N   0  0  0  0  0  0  0  0  0  0  0  0
    2.0768   -0.8110    0.0609 C   0  0  0  0  0  0  0  0  0  0  0  0
    0.8045   -0.8422   -0.7807 C   0  0  0  0  0  0  0  0  0  0  0  0
   -0.4447   -0.3862    0.0245 C   0  0  0  0  0  0  0  0  0  0  0  0
   -0.1185    1.0200    0.5891 C   0  0  0  0  0  0  0  0  0  0  0  0
    1.1703    1.0321    1.4089 C   0  0  0  0  0  0  0  0  0  0  0  0
   -0.6327   -1.2358    1.1823 O   0  0  0  0  0  0  0  0  0  0  0  0
   -1.1475   -2.4778    0.9411 C   0  0  0  0  0  0  0  0  0  0  0  0
   -0.9796   -3.4192    1.9559 C   0  0  0  0  0  0  0  0  0  0  0  0
   -1.4579   -4.7208    1.7873 C   0  0  0  0  0  0  0  0  0  0  0  0
   -2.1080   -5.0753    0.6048 C   0  0  0  0  0  0  0  0  0  0  0  0
   -2.6926   -6.6796    0.4025 Cl  0  0  0  0  0  0  0  0  0  0  0  0
   -2.2933   -4.1378   -0.4080 C   0  0  0  0  0  0  0  0  0  0  0  0
   -1.8182   -2.8348   -0.2279 C   0  0  0  0  0  0  0  0  0  0  0  0
   -2.0371   -1.8093   -1.2657 C   0  0  0  0  0  0  0  0  0  0  0  0
   -2.4835   -2.1403   -2.3589 O   0  0  0  0  0  0  0  0  0  0  0  0
   -1.7315   -0.3749   -0.8488 C   0  0  0  0  0  0  0  0  0  0  0  0
   -2.9844    0.1852   -0.1843 C   0  0  0  0  0  0  0  0  0  0  0  0
   -3.0354    1.5154   -0.8511 C   0  0  0  0  0  0  0  0  0  0  0  0
   -3.9443    2.5917   -0.3924 C   0  0  0  0  0  0  0  0  0  0  0  0
   -4.8845    2.3737    0.6219 C   0  0  0  0  0  0  0  0  0  0  0  0
   -5.7246    3.4143    1.0325 C   0  0  0  0  0  0  0  0  0  0  0  0
   -5.6270    4.6682    0.4305 C   0  0  0  0  0  0  0  0  0  0  0  0
   -6.6625    5.9430    0.9403 Cl  0  0  0  0  0  0  0  0  0  0  0  0
   -4.6972    4.8926   -0.5819 C   0  0  0  0  0  0  0  0  0  0  0  0
   -3.8570    3.8547   -0.9941 C   0  0  0  0  0  0  0  0  0  0  0  0
   -2.2295    1.6506   -1.8541 N   0  0  0  0  0  0  0  0  0  0  0  0
   -1.5403    0.4277   -2.0181 O   0  0  0  0  0  0  0  0  0  0  0  0
    6.1593   -0.0583    1.0783 S   0  0  0  0  0  0  0  0  0  0  0  0
    8.4268   -1.7739    0.0042 H   0  0  0  0  0  0  0  0  0  0  0  0
    8.7404   -0.8412   -1.4665 H   0  0  0  0  0  0  0  0  0  0  0  0
    9.0284   -0.1033    0.1158 H   0  0  0  0  0  0  0  0  0  0  0  0
    6.4808    0.0354   -2.5148 H   0  0  0  0  0  0  0  0  0  0  0  0
    4.0954    0.8715   -1.7291 H   0  0  0  0  0  0  0  0  0  0  0  0
    2.9202   -1.1223   -0.5581 H   0  0  0  0  0  0  0  0  0  0  0  0
    2.0201   -1.5353    0.8832 H   0  0  0  0  0  0  0  0  0  0  0  0
    0.9427   -0.1896   -1.6522 H   0  0  0  0  0  0  0  0  0  0  0  0
    0.6848   -1.8621   -1.1618 H   0  0  0  0  0  0  0  0  0  0  0  0
   -0.0141    1.7408   -0.2307 H   0  0  0  0  0  0  0  0  0  0  0  0
   -0.9233    1.3733    1.2434 H   0  0  0  0  0  0  0  0  0  0  0  0
    1.0649    0.4378    2.3248 H   0  0  0  0  0  0  0  0  0  0  0  0
    1.3843    2.0629    1.7154 H   0  0  0  0  0  0  0  0  0  0  0  0
   -0.4664   -3.1466    2.8757 H   0  0  0  0  0  0  0  0  0  0  0  0
   -1.3177   -5.4534    2.5790 H   0  0  0  0  0  0  0  0  0  0  0  0
   -2.8089   -4.4139   -1.3255 H   0  0  0  0  0  0  0  0  0  0  0  0
   -2.9081    0.2605    0.9027 H   0  0  0  0  0  0  0  0  0  0  0  0
   -3.8939   -0.3686   -0.4431 H   0  0  0  0  0  0  0  0  0  0  0  0
   -4.9911    1.4058    1.1028 H   0  0  0  0  0  0  0  0  0  0  0  0
   -6.4549    3.2405    1.8192 H   0  0  0  0  0  0  0  0  0  0  0  0
   -4.6206    5.8679   -1.0559 H   0  0  0  0  0  0  0  0  0  0  0  0
   -3.1358    4.0401   -1.7887 H   0  0  0  0  0  0  0  0  0  0  0  0
  1  2  1  0
  2  3  2  0
  3  4  1  0
  4  5  2  0
  5  6  1  0
  6  7  2  0
  6  8  1  0
  8  9  1  0
  9 10  1  0
 10 11  1  0
 11 12  1  0
 12 13  1  0
 11 14  1  0
 14 15  1  0
 15 16  2  0
 16 17  1  0
 17 18  2  0
 18 19  1  0
 18 20  1  0
 20 21  2  0
 21 22  1  0
 22 23  2  0
 22 24  1  0
 24 25  1  0
 25 26  1  0
 26 27  1  0
 27 28  2  0
 28 29  1  0
 29 30  2  0
 30 31  1  0
 30 32  1  0
 32 33  2  0
 26 34  2  0
 34 35  1  0
  5 36  1  0
 36  2  1  0
 13  8  1  0
 21 15  1  0
 35 24  1  0
 24 11  1  0
 33 27  1  0
  1 37  1  0
  1 38  1  0
  1 39  1  0
  3 40  1  0
  4 41  1  0
  9 42  1  0
  9 43  1  0
 10 44  1  0
 10 45  1  0
 12 46  1  0
 12 47  1  0
 13 48  1  0
 13 49  1  0
 16 50  1  0
 17 51  1  0
 20 52  1  0
 25 53  1  0
 25 54  1  0
 28 55  1  0
 29 56  1  0
 32 57  1  0
 33 58  1  0
M  END
$$$$
