
     RDKit          3D

 41 44  0  0  0  0  0  0  0  0999 V2000
   -1.7047    2.2453   -3.5890 O   0  0  0  0  0  0  0  0  0  0  0  0
   -0.8691    1.9958   -2.4324 S   0  0  0  0  0  6  0  0  0  0  0  0
    0.0561    2.9976   -1.9493 O   0  0  0  0  0  0  0  0  0  0  0  0
   -0.0252    0.5746   -2.7729 N   0  0  0  0  0  0  0  0  0  0  0  0
    0.6600   -0.1092   -1.7203 C   0  0  0  0  0  0  0  0  0  0  0  0
    1.7955    0.4985   -1.1757 C   0  0  0  0  0  0  0  0  0  0  0  0
    2.4863   -0.0954   -0.1188 C   0  0  0  0  0  0  0  0  0  0  0  0
    3.9630    0.7229    0.4688 S   0  0  0  0  0  0  0  0  0  0  0  0
    3.5004    1.1757    2.0837 C   0  0  0  0  0  0  0  0  0  0  0  0
    3.2785    2.4630    2.4788 N   0  0  0  0  0  0  0  0  0  0  0  0
    2.9801    2.3355    3.7499 C   0  0  0  0  0  0  0  0  0  0  0  0
    3.0262    1.0228    4.0975 N   0  0  0  0  0  0  0  0  0  0  0  0
    3.3570    0.2531    3.0447 N   0  0  0  0  0  0  0  0  0  0  0  0
    2.0237   -1.3215    0.3825 C   0  0  0  0  0  0  0  0  0  0  0  0
    2.6722   -1.9481    1.4236 O   0  0  0  0  0  0  0  0  0  0  0  0
    0.8835   -1.9621   -0.1557 C   0  0  0  0  0  0  0  0  0  0  0  0
    0.4193   -3.1965    0.3483 C   0  0  0  0  0  0  0  0  0  0  0  0
   -0.7138   -3.8205   -0.1707 C   0  0  0  0  0  0  0  0  0  0  0  0
   -1.4111   -3.2219   -1.2082 C   0  0  0  0  0  0  0  0  0  0  0  0
   -0.9705   -2.0033   -1.7272 C   0  0  0  0  0  0  0  0  0  0  0  0
    0.1801   -1.3480   -1.2217 C   0  0  0  0  0  0  0  0  0  0  0  0
   -1.9369    1.5363   -1.0873 C   0  0  0  0  0  0  0  0  0  0  0  0
   -3.2043    1.0123   -1.3603 C   0  0  0  0  0  0  0  0  0  0  0  0
   -4.0410    0.6569   -0.3026 C   0  0  0  0  0  0  0  0  0  0  0  0
   -3.6165    0.8368    1.0152 C   0  0  0  0  0  0  0  0  0  0  0  0
   -2.3590    1.3812    1.2823 C   0  0  0  0  0  0  0  0  0  0  0  0
   -1.5169    1.7412    0.2310 C   0  0  0  0  0  0  0  0  0  0  0  0
   -0.4600    0.0238   -3.5092 H   0  0  0  0  0  0  0  0  0  0  0  0
    2.1475    1.4421   -1.5905 H   0  0  0  0  0  0  0  0  0  0  0  0
    2.7343    3.1288    4.4416 H   0  0  0  0  0  0  0  0  0  0  0  0
    2.8525    0.5921    4.9994 H   0  0  0  0  0  0  0  0  0  0  0  0
    3.1777   -1.2698    1.9208 H   0  0  0  0  0  0  0  0  0  0  0  0
    0.9520   -3.6833    1.1643 H   0  0  0  0  0  0  0  0  0  0  0  0
   -1.0463   -4.7704    0.2393 H   0  0  0  0  0  0  0  0  0  0  0  0
   -2.2980   -3.6999   -1.6158 H   0  0  0  0  0  0  0  0  0  0  0  0
   -1.5516   -1.5688   -2.5356 H   0  0  0  0  0  0  0  0  0  0  0  0
   -3.5453    0.8804   -2.3843 H   0  0  0  0  0  0  0  0  0  0  0  0
   -5.0267    0.2440   -0.5030 H   0  0  0  0  0  0  0  0  0  0  0  0
   -4.2714    0.5585    1.8376 H   0  0  0  0  0  0  0  0  0  0  0  0
   -2.0372    1.5275    2.3102 H   0  0  0  0  0  0  0  0  0  0  0  0
   -0.5408    2.1721    0.4448 H   0  0  0  0  0  0  0  0  0  0  0  0
  1  2  2  0
  2  3  2  0
  2  4  1  0
  4  5  1  0
  5  6  2  0
  6  7  1  0
  7  8  1  0
  8  9  1  0
  9 10  1  0
 10 11  2  0
 11 12  1  0
 12 13  1  0
  7 14  2  0
 14 15  1  0
 14 16  1  0
 16 17  2  0
 17 18  1  0
 18 19  2  0
 19 20  1  0
 20 21  2  0
  2 22  1  0
 22 23  2  0
 23 24  1  0
 24 25  2  0
 25 26  1  0
 26 27  2  0
 21  5  1  0
 27 22  1  0
 13  9  2  0
 21 16  1  0
  4 28  1  0
  6 29  1  0
 11 30  1  0
 12 31  1  0
 15 32  1  0
 17 33  1  0
 18 34  1  0
 19 35  1  0
 20 36  1  0
 23 37  1  0
 24 38  1  0
 25 39  1  0
 26 40  1  0
 27 41  1  0
M  END
$$$$
