
     RDKit          3D

 54 59  0  0  0  0  0  0  0  0999 V2000
    7.0273   -2.5994    0.5530 C   0  0  0  0  0  0  0  0  0  0  0  0
    5.9874   -1.6040    0.1319 C   0  0  0  0  0  0  0  0  0  0  0  0
    4.8063   -2.0300   -0.4834 C   0  0  0  0  0  0  0  0  0  0  0  0
    3.8228   -1.1071   -0.8487 C   0  0  0  0  0  0  0  0  0  0  0  0
    3.9908    0.2595   -0.5859 C   0  0  0  0  0  0  0  0  0  0  0  0
    2.9365    1.2687   -0.9906 C   0  0  0  0  0  0  0  0  0  0  0  0
    1.6162    0.9936   -0.4210 N   0  0  0  0  0  0  0  0  0  0  0  0
    1.2757    1.3376    0.8924 C   0  0  0  0  0  0  0  0  0  0  0  0
    2.3113    2.0159    1.7606 C   0  0  0  0  0  0  0  0  0  0  0  0
    0.1131    1.1146    1.4403 N   0  0  0  0  0  0  0  0  0  0  0  0
   -0.7781    0.5050    0.6310 C   0  0  0  0  0  0  0  0  0  0  0  0
   -0.5830    0.1139   -0.6731 C   0  0  0  0  0  0  0  0  0  0  0  0
    0.6946    0.3642   -1.2834 C   0  0  0  0  0  0  0  0  0  0  0  0
    0.9483    0.0534   -2.4433 O   0  0  0  0  0  0  0  0  0  0  0  0
   -1.7726   -0.4889   -1.1223 C   0  0  0  0  0  0  0  0  0  0  0  0
   -2.1067   -1.0457   -2.3122 N   0  0  0  0  0  0  0  0  0  0  0  0
   -3.3544   -1.5382   -2.3684 C   0  0  0  0  0  0  0  0  0  0  0  0
   -3.7771   -2.1218   -3.5558 C   0  0  0  0  0  0  0  0  0  0  0  0
   -5.0586   -2.6573   -3.6927 C   0  0  0  0  0  0  0  0  0  0  0  0
   -5.9375   -2.6089   -2.6200 C   0  0  0  0  0  0  0  0  0  0  0  0
   -5.5267   -2.0257   -1.4204 C   0  0  0  0  0  0  0  0  0  0  0  0
   -4.2545   -1.4889   -1.2693 C   0  0  0  0  0  0  0  0  0  0  0  0
   -3.9301   -0.9447   -0.0840 N   0  0  0  0  0  0  0  0  0  0  0  0
   -2.6764   -0.4501   -0.0626 C   0  0  0  0  0  0  0  0  0  0  0  0
   -2.0610    0.1752    0.9941 N   0  0  0  0  0  0  0  0  0  0  0  0
   -2.6638    0.4023    2.2966 C   0  0  0  0  0  0  0  0  0  0  0  0
   -3.2811    1.7509    2.3710 C   0  0  0  0  0  0  0  0  0  0  0  0
   -2.7724    3.0345    2.3401 C   0  0  0  0  0  0  0  0  0  0  0  0
   -3.8785    3.9081    2.4650 C   0  0  0  0  0  0  0  0  0  0  0  0
   -4.9894    3.1056    2.5724 C   0  0  0  0  0  0  0  0  0  0  0  0
   -4.6369    1.7959    2.5244 O   0  0  0  0  0  0  0  0  0  0  0  0
    5.1791    0.6823    0.0278 C   0  0  0  0  0  0  0  0  0  0  0  0
    6.1619   -0.2415    0.3931 C   0  0  0  0  0  0  0  0  0  0  0  0
    6.8295   -2.9372    1.5749 H   0  0  0  0  0  0  0  0  0  0  0  0
    8.0288   -2.1583    0.5131 H   0  0  0  0  0  0  0  0  0  0  0  0
    7.0290   -3.4686   -0.1130 H   0  0  0  0  0  0  0  0  0  0  0  0
    4.6442   -3.0857   -0.6907 H   0  0  0  0  0  0  0  0  0  0  0  0
    2.9270   -1.4709   -1.3487 H   0  0  0  0  0  0  0  0  0  0  0  0
    3.2421    2.2759   -0.6891 H   0  0  0  0  0  0  0  0  0  0  0  0
    2.8939    1.2938   -2.0861 H   0  0  0  0  0  0  0  0  0  0  0  0
    3.1329    1.3278    1.9684 H   0  0  0  0  0  0  0  0  0  0  0  0
    2.6894    2.9212    1.2809 H   0  0  0  0  0  0  0  0  0  0  0  0
    1.8658    2.3062    2.7178 H   0  0  0  0  0  0  0  0  0  0  0  0
   -3.0878   -2.1593   -4.3968 H   0  0  0  0  0  0  0  0  0  0  0  0
   -5.3628   -3.1076   -4.6341 H   0  0  0  0  0  0  0  0  0  0  0  0
   -6.9394   -3.0206   -2.7107 H   0  0  0  0  0  0  0  0  0  0  0  0
   -6.2167   -1.9866   -0.5804 H   0  0  0  0  0  0  0  0  0  0  0  0
   -1.8825    0.2926    3.0566 H   0  0  0  0  0  0  0  0  0  0  0  0
   -3.4014   -0.3877    2.4749 H   0  0  0  0  0  0  0  0  0  0  0  0
   -1.7292    3.2998    2.2339 H   0  0  0  0  0  0  0  0  0  0  0  0
   -3.8692    4.9887    2.4749 H   0  0  0  0  0  0  0  0  0  0  0  0
   -6.0469    3.3001    2.6838 H   0  0  0  0  0  0  0  0  0  0  0  0
    5.3518    1.7366    0.2337 H   0  0  0  0  0  0  0  0  0  0  0  0
    7.0689    0.1106    0.8800 H   0  0  0  0  0  0  0  0  0  0  0  0
  1  2  1  0
  2  3  2  0
  3  4  1  0
  4  5  2  0
  5  6  1  0
  6  7  1  0
  7  8  1  0
  8  9  1  0
  8 10  2  0
 10 11  1  0
 11 12  2  0
 12 13  1  0
 13 14  2  0
 12 15  1  0
 15 16  2  0
 16 17  1  0
 17 18  2  0
 18 19  1  0
 19 20  2  0
 20 21  1  0
 21 22  2  0
 22 23  1  0
 23 24  2  0
 24 25  1  0
 25 26  1  0
 26 27  1  0
 27 28  2  0
 28 29  1  0
 29 30  2  0
 30 31  1  0
  5 32  1  0
 32 33  2  0
 33  2  1  0
 13  7  1  0
 24 15  1  0
 31 27  1  0
 25 11  1  0
 22 17  1  0
  1 34  1  0
  1 35  1  0
  1 36  1  0
  3 37  1  0
  4 38  1  0
  6 39  1  0
  6 40  1  0
  9 41  1  0
  9 42  1  0
  9 43  1  0
 18 44  1  0
 19 45  1  0
 20 46  1  0
 21 47  1  0
 26 48  1  0
 26 49  1  0
 28 50  1  0
 29 51  1  0
 30 52  1  0
 32 53  1  0
 33 54  1  0
M  END
$$$$
