
     RDKit          3D

 63 65  0  0  0  0  0  0  0  0999 V2000
    3.5909    3.4604   -1.5762 C   0  0  0  0  0  0  0  0  0  0  0  0
    2.6875    4.4613   -1.1215 O   0  0  0  0  0  0  0  0  0  0  0  0
    1.5494    4.0156   -0.5082 C   0  0  0  0  0  0  0  0  0  0  0  0
    0.5352    4.9665   -0.3864 C   0  0  0  0  0  0  0  0  0  0  0  0
   -0.6799    4.6332    0.2084 C   0  0  0  0  0  0  0  0  0  0  0  0
   -0.8879    3.3417    0.6898 C   0  0  0  0  0  0  0  0  0  0  0  0
    0.1214    2.3744    0.5857 C   0  0  0  0  0  0  0  0  0  0  0  0
   -0.0895    0.9755    1.1186 C   0  0  0  0  0  0  0  0  0  0  0  0
   -1.2523    0.3074    0.5249 N   0  0  0  0  0  0  0  0  0  0  0  0
   -2.3196   -0.0817    1.4457 C   0  0  0  0  0  0  0  0  0  0  0  0
   -1.9263   -1.2901    2.3098 C   0  0  0  0  0  0  0  0  0  0  0  0
   -0.7609   -1.6409    2.4815 O   0  0  0  0  0  0  0  0  0  0  0  0
   -3.0049   -1.9090    2.9136 N   0  0  0  0  0  0  0  0  0  0  0  0
   -2.8232   -2.9072    3.9542 C   0  0  0  0  0  0  0  0  0  0  0  0
   -3.0912   -2.3280    5.3498 C   0  0  0  0  0  0  0  0  0  0  0  0
   -2.8502   -3.3345    6.4638 C   0  0  0  0  0  0  0  0  0  0  0  0
   -2.4954   -2.4371    7.6239 C   0  0  0  0  0  0  0  0  0  0  0  0
   -1.6841   -1.3572    6.9428 C   0  0  0  0  0  0  0  0  0  0  0  0
   -2.2331   -1.2018    5.6274 O   0  0  0  0  0  0  0  0  0  0  0  0
   -1.2443   -0.3024   -0.7243 C   0  0  0  0  0  0  0  0  0  0  0  0
   -2.1714   -1.0236   -1.0997 O   0  0  0  0  0  0  0  0  0  0  0  0
   -0.0592   -0.0298   -1.6315 C   0  0  0  0  0  0  0  0  0  0  0  0
   -0.1607   -0.7993   -2.9435 C   0  0  0  0  0  0  0  0  0  0  0  0
    1.0526   -0.5640   -3.8213 C   0  0  0  0  0  0  0  0  0  0  0  0
    2.0043    0.1213   -3.4619 O   0  0  0  0  0  0  0  0  0  0  0  0
    0.9395   -1.2131   -5.0295 N   0  0  0  0  0  0  0  0  0  0  0  0
    1.8791   -1.1943   -6.0365 C   0  0  0  0  0  0  0  0  0  0  0  0
    3.1322   -0.5463   -6.0835 C   0  0  0  0  0  0  0  0  0  0  0  0
    3.6422   -0.8691   -7.3170 C   0  0  0  0  0  0  0  0  0  0  0  0
    4.8902   -0.5501   -8.0316 C   0  0  0  0  0  0  0  0  0  0  0  0
    2.7544   -1.6619   -7.9719 O   0  0  0  0  0  0  0  0  0  0  0  0
    1.6467   -1.8675   -7.1697 N   0  0  0  0  0  0  0  0  0  0  0  0
    1.3475    2.7296   -0.0038 C   0  0  0  0  0  0  0  0  0  0  0  0
    4.3571    3.9533   -2.1830 H   0  0  0  0  0  0  0  0  0  0  0  0
    3.0868    2.7229   -2.2106 H   0  0  0  0  0  0  0  0  0  0  0  0
    4.0947    2.9783   -0.7323 H   0  0  0  0  0  0  0  0  0  0  0  0
    0.6928    5.9726   -0.7673 H   0  0  0  0  0  0  0  0  0  0  0  0
   -1.4646    5.3793    0.2921 H   0  0  0  0  0  0  0  0  0  0  0  0
   -1.8431    3.0939    1.1461 H   0  0  0  0  0  0  0  0  0  0  0  0
   -0.2177    1.0486    2.2056 H   0  0  0  0  0  0  0  0  0  0  0  0
    0.7945    0.3508    0.9528 H   0  0  0  0  0  0  0  0  0  0  0  0
   -2.5429    0.7635    2.1058 H   0  0  0  0  0  0  0  0  0  0  0  0
   -3.2315   -0.3218    0.8884 H   0  0  0  0  0  0  0  0  0  0  0  0
   -3.9288   -1.5192    2.7824 H   0  0  0  0  0  0  0  0  0  0  0  0
   -3.5235   -3.7228    3.7450 H   0  0  0  0  0  0  0  0  0  0  0  0
   -1.8048   -3.3048    3.8967 H   0  0  0  0  0  0  0  0  0  0  0  0
   -4.1211   -1.9505    5.4003 H   0  0  0  0  0  0  0  0  0  0  0  0
   -1.9988   -3.9861    6.2291 H   0  0  0  0  0  0  0  0  0  0  0  0
   -3.7206   -3.9683    6.6569 H   0  0  0  0  0  0  0  0  0  0  0  0
   -3.4077   -2.0075    8.0524 H   0  0  0  0  0  0  0  0  0  0  0  0
   -1.9479   -2.9453    8.4203 H   0  0  0  0  0  0  0  0  0  0  0  0
   -0.6354   -1.6554    6.8347 H   0  0  0  0  0  0  0  0  0  0  0  0
   -1.7226   -0.4025    7.4747 H   0  0  0  0  0  0  0  0  0  0  0  0
   -0.0261    1.0405   -1.8539 H   0  0  0  0  0  0  0  0  0  0  0  0
    0.8627   -0.3200   -1.1183 H   0  0  0  0  0  0  0  0  0  0  0  0
   -0.2385   -1.8756   -2.7473 H   0  0  0  0  0  0  0  0  0  0  0  0
   -1.0570   -0.4885   -3.4936 H   0  0  0  0  0  0  0  0  0  0  0  0
    0.1175   -1.7608   -5.2444 H   0  0  0  0  0  0  0  0  0  0  0  0
    3.6019    0.0677   -5.3287 H   0  0  0  0  0  0  0  0  0  0  0  0
    5.5261   -1.4388   -8.1065 H   0  0  0  0  0  0  0  0  0  0  0  0
    4.6760   -0.1917   -9.0440 H   0  0  0  0  0  0  0  0  0  0  0  0
    5.4521    0.2290   -7.5083 H   0  0  0  0  0  0  0  0  0  0  0  0
    2.1313    1.9812   -0.0667 H   0  0  0  0  0  0  0  0  0  0  0  0
  1  2  1  0
  2  3  1  0
  3  4  2  0
  4  5  1  0
  5  6  2  0
  6  7  1  0
  7  8  1  0
  8  9  1  0
  9 10  1  0
 10 11  1  0
 11 12  2  0
 11 13  1  0
 13 14  1  0
 14 15  1  0
 15 16  1  0
 16 17  1  0
 17 18  1  0
 18 19  1  0
  9 20  1  0
 20 21  2  0
 20 22  1  0
 22 23  1  0
 23 24  1  0
 24 25  2  0
 24 26  1  0
 26 27  1  0
 27 28  1  0
 28 29  2  0
 29 30  1  0
 29 31  1  0
 31 32  1  0
  7 33  2  0
 33  3  1  0
 19 15  1  0
 32 27  2  0
  1 34  1  0
  1 35  1  0
  1 36  1  0
  4 37  1  0
  5 38  1  0
  6 39  1  0
  8 40  1  0
  8 41  1  0
 10 42  1  0
 10 43  1  0
 13 44  1  0
 14 45  1  0
 14 46  1  0
 15 47  1  0
 16 48  1  0
 16 49  1  0
 17 50  1  0
 17 51  1  0
 18 52  1  0
 18 53  1  0
 22 54  1  0
 22 55  1  0
 23 56  1  0
 23 57  1  0
 26 58  1  0
 28 59  1  0
 30 60  1  0
 30 61  1  0
 30 62  1  0
 33 63  1  0
M  END
$$$$
