
     RDKit          3D

 35 36  0  0  0  0  0  0  0  0999 V2000
   -5.2300    1.1562   -2.3700 C   0  0  0  0  0  0  0  0  0  0  0  0
   -5.1617    0.6474   -0.9540 C   0  0  0  0  0  0  0  0  0  0  0  0
   -6.1646    0.2310   -0.3781 O   0  0  0  0  0  0  0  0  0  0  0  0
   -3.8492    0.6625   -0.2420 C   0  0  0  0  0  0  0  0  0  0  0  0
   -3.7633    0.0419    1.0123 C   0  0  0  0  0  0  0  0  0  0  0  0
   -2.5560    0.0294    1.7159 C   0  0  0  0  0  0  0  0  0  0  0  0
   -1.4328    0.6521    1.1744 C   0  0  0  0  0  0  0  0  0  0  0  0
   -0.1903    0.5988    1.8729 N   0  0  0  0  0  0  0  0  0  0  0  0
    0.9019   -0.6241    1.4019 S   0  0  0  0  0  6  0  0  0  0  0  0
    0.2655   -1.4933    0.4363 O   0  0  0  0  0  0  0  0  0  0  0  0
    1.4313   -1.1284    2.6530 O   0  0  0  0  0  0  0  0  0  0  0  0
    2.1654    0.3663    0.5946 C   0  0  0  0  0  0  0  0  0  0  0  0
    3.2953   -0.5292    0.1543 C   0  0  0  0  0  0  0  0  0  0  0  0
    4.3960   -0.7527    0.9954 C   0  0  0  0  0  0  0  0  0  0  0  0
    5.4408   -1.5859    0.5886 C   0  0  0  0  0  0  0  0  0  0  0  0
    5.3901   -2.2026   -0.6591 C   0  0  0  0  0  0  0  0  0  0  0  0
    6.6782   -3.2273   -1.1599 Cl  0  0  0  0  0  0  0  0  0  0  0  0
    4.3013   -1.9962   -1.5026 C   0  0  0  0  0  0  0  0  0  0  0  0
    3.2561   -1.1630   -1.0972 C   0  0  0  0  0  0  0  0  0  0  0  0
   -1.5041    1.2633   -0.0769 C   0  0  0  0  0  0  0  0  0  0  0  0
   -2.7118    1.2744   -0.7839 C   0  0  0  0  0  0  0  0  0  0  0  0
   -4.4975    0.6413   -2.9971 H   0  0  0  0  0  0  0  0  0  0  0  0
   -5.0694    2.2371   -2.3894 H   0  0  0  0  0  0  0  0  0  0  0  0
   -6.2236    0.9472   -2.7788 H   0  0  0  0  0  0  0  0  0  0  0  0
   -4.6362   -0.4466    1.4432 H   0  0  0  0  0  0  0  0  0  0  0  0
   -2.5063   -0.4790    2.6749 H   0  0  0  0  0  0  0  0  0  0  0  0
   -0.2781    0.5597    2.8918 H   0  0  0  0  0  0  0  0  0  0  0  0
    1.7128    0.8703   -0.2642 H   0  0  0  0  0  0  0  0  0  0  0  0
    2.5156    1.1198    1.3070 H   0  0  0  0  0  0  0  0  0  0  0  0
    4.4453   -0.2894    1.9795 H   0  0  0  0  0  0  0  0  0  0  0  0
    6.2858   -1.7539    1.2512 H   0  0  0  0  0  0  0  0  0  0  0  0
    4.2562   -2.4852   -2.4722 H   0  0  0  0  0  0  0  0  0  0  0  0
    2.4052   -1.0246   -1.7626 H   0  0  0  0  0  0  0  0  0  0  0  0
   -0.6303    1.7419   -0.5082 H   0  0  0  0  0  0  0  0  0  0  0  0
   -2.7374    1.7672   -1.7513 H   0  0  0  0  0  0  0  0  0  0  0  0
  1  2  1  0
  2  3  2  0
  2  4  1  0
  4  5  2  0
  5  6  1  0
  6  7  2  0
  7  8  1  0
  8  9  1  0
  9 10  2  0
  9 11  2  0
  9 12  1  0
 12 13  1  0
 13 14  2  0
 14 15  1  0
 15 16  2  0
 16 17  1  0
 16 18  1  0
 18 19  2  0
  7 20  1  0
 20 21  2  0
 21  4  1  0
 19 13  1  0
  1 22  1  0
  1 23  1  0
  1 24  1  0
  5 25  1  0
  6 26  1  0
  8 27  1  0
 12 28  1  0
 12 29  1  0
 14 30  1  0
 15 31  1  0
 18 32  1  0
 19 33  1  0
 20 34  1  0
 21 35  1  0
M  END
$$$$
