
     RDKit          3D

 57 62  0  0  0  0  0  0  0  0999 V2000
    6.7286   -3.4698   -0.1016 C   0  0  0  0  0  0  0  0  0  0  0  0
    5.9992   -2.1784    0.0235 C   0  0  0  0  0  0  0  0  0  0  0  0
    6.1718   -1.0194   -0.7066 C   0  0  0  0  0  0  0  0  0  0  0  0
    5.2831    0.0152   -0.2953 C   0  0  0  0  0  0  0  0  0  0  0  0
    4.4417   -0.3926    0.7241 C   0  0  0  0  0  0  0  0  0  0  0  0
    3.4068    0.3589    1.4151 C   0  0  0  0  0  0  0  0  0  0  0  0
    3.3613    0.4100    2.6525 O   0  0  0  0  0  0  0  0  0  0  0  0
    2.4653    1.0620    0.6226 N   0  0  0  0  0  0  0  0  0  0  0  0
    1.5400    1.9835    1.2696 C   0  0  0  0  0  0  0  0  0  0  0  0
    0.1175    1.4218    1.2375 C   0  0  0  0  0  0  0  0  0  0  0  0
   -0.3324    1.0950   -0.2102 C   0  0  0  0  0  0  0  0  0  0  0  0
    0.7282    0.1638   -0.8604 C   0  0  0  0  0  0  0  0  0  0  0  0
    2.1439    0.7429   -0.7665 C   0  0  0  0  0  0  0  0  0  0  0  0
   -0.2604    2.3065   -1.0095 O   0  0  0  0  0  0  0  0  0  0  0  0
   -1.3055    3.1768   -0.9386 C   0  0  0  0  0  0  0  0  0  0  0  0
   -1.0761    4.4494   -1.4636 C   0  0  0  0  0  0  0  0  0  0  0  0
   -2.0824    5.4164   -1.4187 C   0  0  0  0  0  0  0  0  0  0  0  0
   -3.3195    5.1051   -0.8533 C   0  0  0  0  0  0  0  0  0  0  0  0
   -4.5562    6.3001   -0.7969 Cl  0  0  0  0  0  0  0  0  0  0  0  0
   -3.5616    3.8343   -0.3380 C   0  0  0  0  0  0  0  0  0  0  0  0
   -2.5481    2.8713   -0.3932 C   0  0  0  0  0  0  0  0  0  0  0  0
   -2.7808    1.5146    0.1235 C   0  0  0  0  0  0  0  0  0  0  0  0
   -3.7666    1.2938    0.8245 O   0  0  0  0  0  0  0  0  0  0  0  0
   -1.7520    0.4579   -0.2657 C   0  0  0  0  0  0  0  0  0  0  0  0
   -1.9374   -0.8098    0.5577 C   0  0  0  0  0  0  0  0  0  0  0  0
   -2.7658   -1.5926   -0.4033 C   0  0  0  0  0  0  0  0  0  0  0  0
   -3.4573   -2.8373   -0.0123 C   0  0  0  0  0  0  0  0  0  0  0  0
   -4.2570   -3.5162   -0.9372 C   0  0  0  0  0  0  0  0  0  0  0  0
   -4.8998   -4.6991   -0.5606 C   0  0  0  0  0  0  0  0  0  0  0  0
   -4.7175   -5.1617    0.7335 C   0  0  0  0  0  0  0  0  0  0  0  0
   -3.9502   -4.5316    1.6538 N   0  0  0  0  0  0  0  0  0  0  0  0
   -3.3388   -3.3816    1.2614 C   0  0  0  0  0  0  0  0  0  0  0  0
   -2.7997   -1.1174   -1.6078 N   0  0  0  0  0  0  0  0  0  0  0  0
   -2.0474    0.0746   -1.6210 O   0  0  0  0  0  0  0  0  0  0  0  0
    4.7756   -2.0002    1.2071 S   0  0  0  0  0  0  0  0  0  0  0  0
    7.1711   -3.7632    0.8565 H   0  0  0  0  0  0  0  0  0  0  0  0
    7.5365   -3.3931   -0.8359 H   0  0  0  0  0  0  0  0  0  0  0  0
    6.0507   -4.2623   -0.4347 H   0  0  0  0  0  0  0  0  0  0  0  0
    6.9085   -0.9133   -1.4942 H   0  0  0  0  0  0  0  0  0  0  0  0
    5.2602    1.0103   -0.7233 H   0  0  0  0  0  0  0  0  0  0  0  0
    1.8379    2.1853    2.3060 H   0  0  0  0  0  0  0  0  0  0  0  0
    1.5978    2.9417    0.7341 H   0  0  0  0  0  0  0  0  0  0  0  0
   -0.5472    2.1626    1.6944 H   0  0  0  0  0  0  0  0  0  0  0  0
    0.0779    0.5174    1.8592 H   0  0  0  0  0  0  0  0  0  0  0  0
    0.5013    0.0072   -1.9208 H   0  0  0  0  0  0  0  0  0  0  0  0
    0.7296   -0.8180   -0.3742 H   0  0  0  0  0  0  0  0  0  0  0  0
    2.8354    0.0146   -1.1928 H   0  0  0  0  0  0  0  0  0  0  0  0
    2.2333    1.6668   -1.3502 H   0  0  0  0  0  0  0  0  0  0  0  0
   -0.1115    4.6913   -1.9037 H   0  0  0  0  0  0  0  0  0  0  0  0
   -1.8959    6.4082   -1.8251 H   0  0  0  0  0  0  0  0  0  0  0  0
   -4.5312    3.5902    0.0931 H   0  0  0  0  0  0  0  0  0  0  0  0
   -2.4424   -0.6532    1.5137 H   0  0  0  0  0  0  0  0  0  0  0  0
   -1.0109   -1.3618    0.7330 H   0  0  0  0  0  0  0  0  0  0  0  0
   -4.3864   -3.1336   -1.9490 H   0  0  0  0  0  0  0  0  0  0  0  0
   -5.5273   -5.2447   -1.2606 H   0  0  0  0  0  0  0  0  0  0  0  0
   -5.2010   -6.0788    1.0733 H   0  0  0  0  0  0  0  0  0  0  0  0
   -2.7371   -2.9202    2.0387 H   0  0  0  0  0  0  0  0  0  0  0  0
  1  2  1  0
  2  3  2  0
  3  4  1  0
  4  5  2  0
  5  6  1  0
  6  7  2  0
  6  8  1  0
  8  9  1  0
  9 10  1  0
 10 11  1  0
 11 12  1  0
 12 13  1  0
 11 14  1  0
 14 15  1  0
 15 16  2  0
 16 17  1  0
 17 18  2  0
 18 19  1  0
 18 20  1  0
 20 21  2  0
 21 22  1  0
 22 23  2  0
 22 24  1  0
 24 25  1  0
 25 26  1  0
 26 27  1  0
 27 28  2  0
 28 29  1  0
 29 30  2  0
 30 31  1  0
 31 32  2  0
 26 33  2  0
 33 34  1  0
  5 35  1  0
 35  2  1  0
 13  8  1  0
 21 15  1  0
 34 24  1  0
 24 11  1  0
 32 27  1  0
  1 36  1  0
  1 37  1  0
  1 38  1  0
  3 39  1  0
  4 40  1  0
  9 41  1  0
  9 42  1  0
 10 43  1  0
 10 44  1  0
 12 45  1  0
 12 46  1  0
 13 47  1  0
 13 48  1  0
 16 49  1  0
 17 50  1  0
 20 51  1  0
 25 52  1  0
 25 53  1  0
 28 54  1  0
 29 55  1  0
 30 56  1  0
 32 57  1  0
M  END
$$$$
