
     RDKit          3D

 53 54  0  0  0  0  0  0  0  0999 V2000
   -4.6660   -1.9878   -1.7942 C   0  0  0  0  0  0  0  0  0  0  0  0
   -5.7743   -1.2118   -1.1057 C   0  0  0  0  0  0  0  0  0  0  0  0
   -5.4506   -0.8641    0.2889 N   0  0  0  0  0  0  0  0  0  0  0  0
   -5.4676   -1.9517    1.2810 C   0  0  0  0  0  0  0  0  0  0  0  0
   -6.8111   -1.9758    1.9898 C   0  0  0  0  0  0  0  0  0  0  0  0
   -4.7400    0.6161    0.6738 S   0  0  0  0  0  6  0  0  0  0  0  0
   -5.2165    1.6094   -0.2653 O   0  0  0  0  0  0  0  0  0  0  0  0
   -4.8544    0.8220    2.1025 O   0  0  0  0  0  0  0  0  0  0  0  0
   -3.0099    0.3516    0.3310 C   0  0  0  0  0  0  0  0  0  0  0  0
   -2.4534    0.8428   -0.8545 C   0  0  0  0  0  0  0  0  0  0  0  0
   -1.0886    0.6698   -1.1038 C   0  0  0  0  0  0  0  0  0  0  0  0
   -0.2760    0.0207   -0.1627 C   0  0  0  0  0  0  0  0  0  0  0  0
    1.1818   -0.1797   -0.3810 C   0  0  0  0  0  0  0  0  0  0  0  0
    1.9565   -0.5129    0.5061 O   0  0  0  0  0  0  0  0  0  0  0  0
    1.4941    0.0222   -1.6828 O   0  0  0  0  0  0  0  0  0  0  0  0
    2.8857   -0.0429   -1.9927 C   0  0  0  0  0  0  0  0  0  0  0  0
    3.6181    1.2735   -1.7152 C   0  0  0  0  0  0  0  0  0  0  0  0
    3.0396    2.3486   -1.5884 O   0  0  0  0  0  0  0  0  0  0  0  0
    4.9914    1.1394   -1.6458 N   0  0  0  0  0  0  0  0  0  0  0  0
    5.8396    2.2474   -1.2305 C   0  0  0  0  0  0  0  0  0  0  0  0
    5.7762    2.5425    0.2784 C   0  0  0  0  0  0  0  0  0  0  0  0
    5.9924    1.3510    1.0885 N   0  0  0  0  0  0  0  0  0  0  0  0
    4.9694    0.6261    1.6482 C   0  0  0  0  0  0  0  0  0  0  0  0
    3.7001    1.0990    1.5450 O   0  0  0  0  0  0  0  0  0  0  0  0
    5.3473   -0.5126    2.2373 C   0  0  0  0  0  0  0  0  0  0  0  0
    7.0679   -0.7333    2.1252 S   0  0  0  0  0  0  0  0  0  0  0  0
    7.2459    0.7792    1.2125 C   0  0  0  0  0  0  0  0  0  0  0  0
    8.3044    1.1767    0.7550 O   0  0  0  0  0  0  0  0  0  0  0  0
   -0.8374   -0.4360    1.0390 C   0  0  0  0  0  0  0  0  0  0  0  0
   -2.2015   -0.2656    1.2904 C   0  0  0  0  0  0  0  0  0  0  0  0
   -4.9780   -2.2625   -2.8072 H   0  0  0  0  0  0  0  0  0  0  0  0
   -3.7520   -1.3979   -1.8813 H   0  0  0  0  0  0  0  0  0  0  0  0
   -4.4181   -2.9103   -1.2617 H   0  0  0  0  0  0  0  0  0  0  0  0
   -6.0051   -0.3106   -1.6827 H   0  0  0  0  0  0  0  0  0  0  0  0
   -6.6944   -1.8083   -1.1118 H   0  0  0  0  0  0  0  0  0  0  0  0
   -4.6661   -1.8276    2.0146 H   0  0  0  0  0  0  0  0  0  0  0  0
   -5.2919   -2.9197    0.8018 H   0  0  0  0  0  0  0  0  0  0  0  0
   -7.6286   -2.1418    1.2804 H   0  0  0  0  0  0  0  0  0  0  0  0
   -6.8351   -2.7802    2.7314 H   0  0  0  0  0  0  0  0  0  0  0  0
   -7.0046   -1.0300    2.5062 H   0  0  0  0  0  0  0  0  0  0  0  0
   -3.0701    1.3639   -1.5846 H   0  0  0  0  0  0  0  0  0  0  0  0
   -0.6685    1.0639   -2.0272 H   0  0  0  0  0  0  0  0  0  0  0  0
    3.3684   -0.8737   -1.4648 H   0  0  0  0  0  0  0  0  0  0  0  0
    2.9699   -0.2439   -3.0661 H   0  0  0  0  0  0  0  0  0  0  0  0
    5.3797    0.2108   -1.5428 H   0  0  0  0  0  0  0  0  0  0  0  0
    6.8605    1.9800   -1.5232 H   0  0  0  0  0  0  0  0  0  0  0  0
    5.5514    3.1429   -1.7919 H   0  0  0  0  0  0  0  0  0  0  0  0
    6.5617    3.2670    0.5252 H   0  0  0  0  0  0  0  0  0  0  0  0
    4.8196    3.0063    0.5421 H   0  0  0  0  0  0  0  0  0  0  0  0
    3.0764    0.3416    1.5434 H   0  0  0  0  0  0  0  0  0  0  0  0
    4.6948   -1.2172    2.7317 H   0  0  0  0  0  0  0  0  0  0  0  0
   -0.2138   -0.9176    1.7900 H   0  0  0  0  0  0  0  0  0  0  0  0
   -2.6192   -0.5993    2.2376 H   0  0  0  0  0  0  0  0  0  0  0  0
  1  2  1  0
  2  3  1  0
  3  4  1  0
  4  5  1  0
  3  6  1  0
  6  7  2  0
  6  8  2  0
  6  9  1  0
  9 10  2  0
 10 11  1  0
 11 12  2  0
 12 13  1  0
 13 14  2  0
 13 15  1  0
 15 16  1  0
 16 17  1  0
 17 18  2  0
 17 19  1  0
 19 20  1  0
 20 21  1  0
 21 22  1  0
 22 23  1  0
 23 24  1  0
 23 25  2  0
 25 26  1  0
 26 27  1  0
 27 28  2  0
 12 29  1  0
 29 30  2  0
 30  9  1  0
 27 22  1  0
  1 31  1  0
  1 32  1  0
  1 33  1  0
  2 34  1  0
  2 35  1  0
  4 36  1  0
  4 37  1  0
  5 38  1  0
  5 39  1  0
  5 40  1  0
 10 41  1  0
 11 42  1  0
 16 43  1  0
 16 44  1  0
 19 45  1  0
 20 46  1  0
 20 47  1  0
 21 48  1  0
 21 49  1  0
 24 50  1  0
 25 51  1  0
 29 52  1  0
 30 53  1  0
M  END
$$$$
