
     RDKit          3D

 40 42  0  0  0  0  0  0  0  0999 V2000
   -4.9763    0.8030    2.0738 C   0  0  0  0  0  0  0  0  0  0  0  0
   -4.3904   -0.2450    1.1028 C   0  0  0  0  0  0  0  0  0  0  0  0
   -5.4547   -0.5471    0.0319 C   0  0  0  0  0  0  0  0  0  0  0  0
   -4.0875   -1.5216    1.9087 C   0  0  0  0  0  0  0  0  0  0  0  0
   -3.1223    0.2984    0.4612 C   0  0  0  0  0  0  0  0  0  0  0  0
   -2.6076    1.4895    0.7034 N   0  0  0  0  0  0  0  0  0  0  0  0
   -1.4530    1.7219   -0.0138 N   0  0  0  0  0  0  0  0  0  0  0  0
   -1.1279    0.7027   -0.7753 C   0  0  0  0  0  0  0  0  0  0  0  0
   -0.0169    0.7163   -1.5765 N   0  0  0  0  0  0  0  0  0  0  0  0
    0.4447   -0.2978   -2.3838 C   0  0  0  0  0  0  0  0  0  0  0  0
   -0.0677   -1.3989   -2.5589 O   0  0  0  0  0  0  0  0  0  0  0  0
    1.7198    0.0933   -3.1405 C   0  0  0  0  0  0  0  0  0  0  0  0
    2.4719    1.1386   -2.5356 O   0  0  0  0  0  0  0  0  0  0  0  0
    3.3107    0.8119   -1.5031 C   0  0  0  0  0  0  0  0  0  0  0  0
    4.0993    1.8858   -1.0411 C   0  0  0  0  0  0  0  0  0  0  0  0
    4.9968    1.7218    0.0186 C   0  0  0  0  0  0  0  0  0  0  0  0
    5.0783    0.4750    0.5943 C   0  0  0  0  0  0  0  0  0  0  0  0
    4.3095   -0.5743    0.1502 C   0  0  0  0  0  0  0  0  0  0  0  0
    3.4152   -0.4417   -0.8943 C   0  0  0  0  0  0  0  0  0  0  0  0
    4.5382   -1.7166    0.8535 O   0  0  0  0  0  0  0  0  0  0  0  0
    5.5362   -1.2635    1.7923 C   0  0  0  0  0  0  0  0  0  0  0  0
    5.8866    0.1265    1.6295 O   0  0  0  0  0  0  0  0  0  0  0  0
   -2.2022   -0.6117   -0.6812 S   0  0  0  0  0  0  0  0  0  0  0  0
   -4.2657    1.0507    2.8714 H   0  0  0  0  0  0  0  0  0  0  0  0
   -5.8923    0.4350    2.5502 H   0  0  0  0  0  0  0  0  0  0  0  0
   -5.2264    1.7351    1.5530 H   0  0  0  0  0  0  0  0  0  0  0  0
   -6.3955   -0.8722    0.4911 H   0  0  0  0  0  0  0  0  0  0  0  0
   -5.1353   -1.3439   -0.6491 H   0  0  0  0  0  0  0  0  0  0  0  0
   -5.6689    0.3396   -0.5764 H   0  0  0  0  0  0  0  0  0  0  0  0
   -3.7399   -2.3383    1.2662 H   0  0  0  0  0  0  0  0  0  0  0  0
   -3.3106   -1.3413    2.6611 H   0  0  0  0  0  0  0  0  0  0  0  0
   -4.9820   -1.8798    2.4314 H   0  0  0  0  0  0  0  0  0  0  0  0
    0.5376    1.5619   -1.5040 H   0  0  0  0  0  0  0  0  0  0  0  0
    2.3379   -0.7921   -3.3291 H   0  0  0  0  0  0  0  0  0  0  0  0
    1.3955    0.4632   -4.1202 H   0  0  0  0  0  0  0  0  0  0  0  0
    4.0117    2.8605   -1.5172 H   0  0  0  0  0  0  0  0  0  0  0  0
    5.6050    2.5453    0.3748 H   0  0  0  0  0  0  0  0  0  0  0  0
    2.8340   -1.3053   -1.1918 H   0  0  0  0  0  0  0  0  0  0  0  0
    6.4398   -1.8703    1.6633 H   0  0  0  0  0  0  0  0  0  0  0  0
    5.1545   -1.4124    2.8090 H   0  0  0  0  0  0  0  0  0  0  0  0
  1  2  1  0
  2  3  1  0
  2  4  1  0
  2  5  1  0
  5  6  2  0
  6  7  1  0
  7  8  2  0
  8  9  1  0
  9 10  1  0
 10 11  2  0
 10 12  1  0
 12 13  1  0
 13 14  1  0
 14 15  2  0
 15 16  1  0
 16 17  2  0
 17 18  1  0
 18 19  2  0
 18 20  1  0
 20 21  1  0
 21 22  1  0
  8 23  1  0
 23  5  1  0
 19 14  1  0
 22 17  1  0
  1 24  1  0
  1 25  1  0
  1 26  1  0
  3 27  1  0
  3 28  1  0
  3 29  1  0
  4 30  1  0
  4 31  1  0
  4 32  1  0
  9 33  1  0
 12 34  1  0
 12 35  1  0
 15 36  1  0
 16 37  1  0
 19 38  1  0
 21 39  1  0
 21 40  1  0
M  END
$$$$
