
     RDKit          3D

 51 54  0  0  0  0  0  0  0  0999 V2000
   -3.5060   -4.3982    2.1000 C   0  0  0  0  0  0  0  0  0  0  0  0
   -2.1117   -4.1563    2.2402 O   0  0  0  0  0  0  0  0  0  0  0  0
   -1.6154   -3.0029    1.6971 C   0  0  0  0  0  0  0  0  0  0  0  0
   -2.3514   -2.0732    0.9676 C   0  0  0  0  0  0  0  0  0  0  0  0
   -1.7282   -0.9212    0.4494 C   0  0  0  0  0  0  0  0  0  0  0  0
   -2.5269    0.0287   -0.3416 C   0  0  0  0  0  0  0  0  0  0  0  0
   -3.7270   -0.1877   -0.5024 O   0  0  0  0  0  0  0  0  0  0  0  0
   -1.8603    1.1215   -0.8718 N   0  0  0  0  0  0  0  0  0  0  0  0
   -2.6416    2.0631   -1.6605 C   0  0  0  0  0  0  0  0  0  0  0  0
   -3.2805    3.0623   -0.7569 C   0  0  0  0  0  0  0  0  0  0  0  0
   -4.4623    3.0727   -0.0429 C   0  0  0  0  0  0  0  0  0  0  0  0
   -4.5142    4.3186    0.6271 C   0  0  0  0  0  0  0  0  0  0  0  0
   -3.3635    4.9877    0.2812 C   0  0  0  0  0  0  0  0  0  0  0  0
   -2.6085    4.2335   -0.5579 O   0  0  0  0  0  0  0  0  0  0  0  0
   -0.5083    1.3784   -0.7129 C   0  0  0  0  0  0  0  0  0  0  0  0
    0.0537    2.3218   -1.2753 O   0  0  0  0  0  0  0  0  0  0  0  0
    0.2059    0.5120    0.1114 N   0  0  0  0  0  0  0  0  0  0  0  0
    1.6325    0.7996    0.2796 C   0  0  0  0  0  0  0  0  0  0  0  0
    2.4727    0.0824   -0.7764 C   0  0  0  0  0  0  0  0  0  0  0  0
    2.1291   -0.9829   -1.2890 O   0  0  0  0  0  0  0  0  0  0  0  0
    3.7903    0.6656   -1.1646 C   0  0  0  0  0  0  0  0  0  0  0  0
    4.4547    1.6119   -0.3736 C   0  0  0  0  0  0  0  0  0  0  0  0
    5.6988    2.1116   -0.7750 C   0  0  0  0  0  0  0  0  0  0  0  0
    6.2831    1.6701   -1.9623 C   0  0  0  0  0  0  0  0  0  0  0  0
    5.6228    0.7262   -2.7466 C   0  0  0  0  0  0  0  0  0  0  0  0
    6.4145    0.1269   -4.3568 Br  0  0  0  0  0  0  0  0  0  0  0  0
    4.3846    0.2195   -2.3540 C   0  0  0  0  0  0  0  0  0  0  0  0
   -0.3749   -0.6633    0.6602 C   0  0  0  0  0  0  0  0  0  0  0  0
    0.3599   -1.6000    1.3975 C   0  0  0  0  0  0  0  0  0  0  0  0
   -0.2506   -2.7606    1.8862 C   0  0  0  0  0  0  0  0  0  0  0  0
    0.5259   -3.6325    2.6104 O   0  0  0  0  0  0  0  0  0  0  0  0
    1.0666   -4.6329    1.7434 C   0  0  0  0  0  0  0  0  0  0  0  0
   -3.7807   -4.5159    1.0461 H   0  0  0  0  0  0  0  0  0  0  0  0
   -3.7350   -5.3385    2.6106 H   0  0  0  0  0  0  0  0  0  0  0  0
   -4.0945   -3.6078    2.5782 H   0  0  0  0  0  0  0  0  0  0  0  0
   -3.4104   -2.2188    0.7759 H   0  0  0  0  0  0  0  0  0  0  0  0
   -3.4161    1.5253   -2.2210 H   0  0  0  0  0  0  0  0  0  0  0  0
   -2.0114    2.5711   -2.3994 H   0  0  0  0  0  0  0  0  0  0  0  0
   -5.1908    2.2721   -0.0129 H   0  0  0  0  0  0  0  0  0  0  0  0
   -5.2933    4.6848    1.2805 H   0  0  0  0  0  0  0  0  0  0  0  0
   -2.9544    5.9569    0.5324 H   0  0  0  0  0  0  0  0  0  0  0  0
    1.9712    0.5238    1.2818 H   0  0  0  0  0  0  0  0  0  0  0  0
    1.7828    1.8808    0.1883 H   0  0  0  0  0  0  0  0  0  0  0  0
    4.0396    1.9702    0.5637 H   0  0  0  0  0  0  0  0  0  0  0  0
    6.2134    2.8471   -0.1606 H   0  0  0  0  0  0  0  0  0  0  0  0
    7.2497    2.0657   -2.2660 H   0  0  0  0  0  0  0  0  0  0  0  0
    3.8767   -0.5192   -2.9726 H   0  0  0  0  0  0  0  0  0  0  0  0
    1.4203   -1.4854    1.5899 H   0  0  0  0  0  0  0  0  0  0  0  0
    1.8168   -4.1919    1.0792 H   0  0  0  0  0  0  0  0  0  0  0  0
    0.2891   -5.1403    1.1612 H   0  0  0  0  0  0  0  0  0  0  0  0
    1.5635   -5.3828    2.3669 H   0  0  0  0  0  0  0  0  0  0  0  0
  1  2  1  0
  2  3  1  0
  3  4  2  0
  4  5  1  0
  5  6  1  0
  6  7  2  0
  6  8  1  0
  8  9  1  0
  9 10  1  0
 10 11  2  0
 11 12  1  0
 12 13  2  0
 13 14  1  0
  8 15  1  0
 15 16  2  0
 15 17  1  0
 17 18  1  0
 18 19  1  0
 19 20  2  0
 19 21  1  0
 21 22  2  0
 22 23  1  0
 23 24  2  0
 24 25  1  0
 25 26  1  0
 25 27  2  0
 17 28  1  0
 28 29  1  0
 29 30  2  0
 30 31  1  0
 31 32  1  0
 30  3  1  0
 28  5  2  0
 14 10  1  0
 27 21  1  0
  1 33  1  0
  1 34  1  0
  1 35  1  0
  4 36  1  0
  9 37  1  0
  9 38  1  0
 11 39  1  0
 12 40  1  0
 13 41  1  0
 18 42  1  0
 18 43  1  0
 22 44  1  0
 23 45  1  0
 24 46  1  0
 27 47  1  0
 29 48  1  0
 32 49  1  0
 32 50  1  0
 32 51  1  0
M  END
$$$$
