
     RDKit          3D

 45 46  0  0  0  0  0  0  0  0999 V2000
    7.5873    0.3023    1.0518 C   0  0  0  0  0  0  0  0  0  0  0  0
    6.9102   -0.7466    1.7320 O   0  0  0  0  0  0  0  0  0  0  0  0
    5.6082   -0.9803    1.3861 C   0  0  0  0  0  0  0  0  0  0  0  0
    4.9991   -2.0195    2.0922 C   0  0  0  0  0  0  0  0  0  0  0  0
    3.6689   -2.3641    1.8436 C   0  0  0  0  0  0  0  0  0  0  0  0
    2.9235   -1.6620    0.8880 C   0  0  0  0  0  0  0  0  0  0  0  0
    1.5174   -2.0942    0.6824 C   0  0  0  0  0  0  0  0  0  0  0  0
    1.2285   -3.2852    0.7607 O   0  0  0  0  0  0  0  0  0  0  0  0
    0.4835   -1.0476    0.4623 C   0  0  0  0  0  0  0  0  0  0  0  0
   -0.7817   -1.4087    0.1988 C   0  0  0  0  0  0  0  0  0  0  0  0
   -1.8710   -0.4461   -0.0125 C   0  0  0  0  0  0  0  0  0  0  0  0
   -3.1215   -0.7082    0.5664 C   0  0  0  0  0  0  0  0  0  0  0  0
   -4.1929    0.1677    0.3756 C   0  0  0  0  0  0  0  0  0  0  0  0
   -5.4451    0.0027    0.9095 O   0  0  0  0  0  0  0  0  0  0  0  0
   -5.6227   -1.0499    1.8473 C   0  0  0  0  0  0  0  0  0  0  0  0
   -4.0045    1.3015   -0.4328 C   0  0  0  0  0  0  0  0  0  0  0  0
   -5.0417    2.1947   -0.5962 O   0  0  0  0  0  0  0  0  0  0  0  0
   -5.8177    1.8288   -1.7358 C   0  0  0  0  0  0  0  0  0  0  0  0
   -2.7589    1.5828   -1.0194 C   0  0  0  0  0  0  0  0  0  0  0  0
   -2.6886    2.7228   -1.7785 O   0  0  0  0  0  0  0  0  0  0  0  0
   -1.4134    3.0994   -2.2778 C   0  0  0  0  0  0  0  0  0  0  0  0
   -1.7010    0.6940   -0.8129 C   0  0  0  0  0  0  0  0  0  0  0  0
    3.5433   -0.6360    0.1639 C   0  0  0  0  0  0  0  0  0  0  0  0
    2.8646    0.0275   -0.8229 O   0  0  0  0  0  0  0  0  0  0  0  0
    4.8781   -0.2903    0.4160 C   0  0  0  0  0  0  0  0  0  0  0  0
    7.1050    1.2679    1.2364 H   0  0  0  0  0  0  0  0  0  0  0  0
    8.6053    0.3569    1.4495 H   0  0  0  0  0  0  0  0  0  0  0  0
    7.6590    0.0945   -0.0208 H   0  0  0  0  0  0  0  0  0  0  0  0
    5.5653   -2.5690    2.8413 H   0  0  0  0  0  0  0  0  0  0  0  0
    3.2150   -3.1825    2.3998 H   0  0  0  0  0  0  0  0  0  0  0  0
    0.7804   -0.0102    0.5480 H   0  0  0  0  0  0  0  0  0  0  0  0
   -1.0564   -2.4615    0.1540 H   0  0  0  0  0  0  0  0  0  0  0  0
   -3.2325   -1.6030    1.1711 H   0  0  0  0  0  0  0  0  0  0  0  0
   -6.6479   -0.9911    2.2255 H   0  0  0  0  0  0  0  0  0  0  0  0
   -5.5015   -2.0268    1.3680 H   0  0  0  0  0  0  0  0  0  0  0  0
   -4.9462   -0.9403    2.7015 H   0  0  0  0  0  0  0  0  0  0  0  0
   -5.2189    1.8549   -2.6528 H   0  0  0  0  0  0  0  0  0  0  0  0
   -6.6243    2.5608   -1.8397 H   0  0  0  0  0  0  0  0  0  0  0  0
   -6.2736    0.8408   -1.6096 H   0  0  0  0  0  0  0  0  0  0  0  0
   -1.0472    2.3710   -3.0086 H   0  0  0  0  0  0  0  0  0  0  0  0
   -1.5258    4.0582   -2.7931 H   0  0  0  0  0  0  0  0  0  0  0  0
   -0.6936    3.2414   -1.4648 H   0  0  0  0  0  0  0  0  0  0  0  0
   -0.7355    0.8617   -1.2787 H   0  0  0  0  0  0  0  0  0  0  0  0
    3.4870    0.5781   -1.3279 H   0  0  0  0  0  0  0  0  0  0  0  0
    5.3345    0.5126   -0.1511 H   0  0  0  0  0  0  0  0  0  0  0  0
  1  2  1  0
  2  3  1  0
  3  4  2  0
  4  5  1  0
  5  6  2  0
  6  7  1  0
  7  8  2  0
  7  9  1  0
  9 10  2  0
 10 11  1  0
 11 12  2  0
 12 13  1  0
 13 14  1  0
 14 15  1  0
 13 16  2  0
 16 17  1  0
 17 18  1  0
 16 19  1  0
 19 20  1  0
 20 21  1  0
 19 22  2  0
  6 23  1  0
 23 24  1  0
 23 25  2  0
 25  3  1  0
 22 11  1  0
  1 26  1  0
  1 27  1  0
  1 28  1  0
  4 29  1  0
  5 30  1  0
  9 31  1  0
 10 32  1  0
 12 33  1  0
 15 34  1  0
 15 35  1  0
 15 36  1  0
 18 37  1  0
 18 38  1  0
 18 39  1  0
 21 40  1  0
 21 41  1  0
 21 42  1  0
 22 43  1  0
 24 44  1  0
 25 45  1  0
M  END
$$$$
