
     RDKit          3D

 45 49  0  0  0  0  0  0  0  0999 V2000
    1.6235   -0.0929    1.5441 O   0  0  0  0  0  0  0  0  0  0  0  0
    1.7346    0.0723    0.3379 C   0  0  0  0  0  0  0  0  0  0  0  0
    0.7885   -0.1618   -0.6205 O   0  0  0  0  0  0  0  0  0  0  0  0
   -0.4721   -0.4713   -0.0823 C   0  0  0  0  0  0  0  0  0  0  0  0
   -1.3756    0.4783    0.2656 C   0  0  0  0  0  0  0  0  0  0  0  0
   -1.0426    1.9046    0.1050 C   0  0  0  0  0  0  0  0  0  0  0  0
   -1.1915    2.5310   -1.1393 C   0  0  0  0  0  0  0  0  0  0  0  0
   -0.8381    3.8723   -1.2979 C   0  0  0  0  0  0  0  0  0  0  0  0
   -0.3326    4.5932   -0.2168 C   0  0  0  0  0  0  0  0  0  0  0  0
   -0.1819    3.9764    1.0245 C   0  0  0  0  0  0  0  0  0  0  0  0
   -0.5361    2.6361    1.1864 C   0  0  0  0  0  0  0  0  0  0  0  0
   -2.7317    0.0886    0.8217 C   0  0  0  0  0  0  0  0  0  0  0  0
   -3.5605    0.9305    1.1580 O   0  0  0  0  0  0  0  0  0  0  0  0
   -2.9663   -1.2589    0.9077 N   0  0  0  0  0  0  0  0  0  0  0  0
   -2.0421   -2.2103    0.5172 C   0  0  0  0  0  0  0  0  0  0  0  0
   -2.5302   -3.4949    0.6912 C   0  0  0  0  0  0  0  0  0  0  0  0
   -1.7354   -4.5681    0.3428 C   0  0  0  0  0  0  0  0  0  0  0  0
   -0.4578   -4.3038   -0.1771 C   0  0  0  0  0  0  0  0  0  0  0  0
    0.0107   -2.9809   -0.3418 C   0  0  0  0  0  0  0  0  0  0  0  0
   -0.7964   -1.9003    0.0138 C   0  0  0  0  0  0  0  0  0  0  0  0
   -3.9153   -3.4476    1.2609 C   0  0  0  0  0  0  0  0  0  0  0  0
   -4.1730   -1.9252    1.3924 C   0  0  0  0  0  0  0  0  0  0  0  0
    2.9922    0.5423   -0.3038 C   0  0  0  0  0  0  0  0  0  0  0  0
    3.0432    0.9662   -1.6393 C   0  0  0  0  0  0  0  0  0  0  0  0
    4.2505    1.4032   -2.1898 C   0  0  0  0  0  0  0  0  0  0  0  0
    5.4080    1.4225   -1.4122 C   0  0  0  0  0  0  0  0  0  0  0  0
    5.3630    1.0095   -0.0814 C   0  0  0  0  0  0  0  0  0  0  0  0
    4.1586    0.5726    0.4732 C   0  0  0  0  0  0  0  0  0  0  0  0
   -1.5872    1.9796   -1.9888 H   0  0  0  0  0  0  0  0  0  0  0  0
   -0.9619    4.3560   -2.2631 H   0  0  0  0  0  0  0  0  0  0  0  0
   -0.0609    5.6385   -0.3394 H   0  0  0  0  0  0  0  0  0  0  0  0
    0.2091    4.5381    1.8688 H   0  0  0  0  0  0  0  0  0  0  0  0
   -0.4094    2.1629    2.1583 H   0  0  0  0  0  0  0  0  0  0  0  0
   -2.0809   -5.5896    0.4658 H   0  0  0  0  0  0  0  0  0  0  0  0
    0.1878   -5.1344   -0.4565 H   0  0  0  0  0  0  0  0  0  0  0  0
    1.0073   -2.8202   -0.7441 H   0  0  0  0  0  0  0  0  0  0  0  0
   -3.9592   -3.9371    2.2385 H   0  0  0  0  0  0  0  0  0  0  0  0
   -4.6393   -3.9091    0.5826 H   0  0  0  0  0  0  0  0  0  0  0  0
   -4.3530   -1.6283    2.4314 H   0  0  0  0  0  0  0  0  0  0  0  0
   -5.0283   -1.6008    0.7895 H   0  0  0  0  0  0  0  0  0  0  0  0
    2.1519    0.9741   -2.2617 H   0  0  0  0  0  0  0  0  0  0  0  0
    4.2871    1.7340   -3.2251 H   0  0  0  0  0  0  0  0  0  0  0  0
    6.3460    1.7654   -1.8426 H   0  0  0  0  0  0  0  0  0  0  0  0
    6.2644    1.0304    0.5263 H   0  0  0  0  0  0  0  0  0  0  0  0
    4.1328    0.2569    1.5147 H   0  0  0  0  0  0  0  0  0  0  0  0
  1  2  2  0
  2  3  1  0
  3  4  1  0
  4  5  2  0
  5  6  1  0
  6  7  2  0
  7  8  1  0
  8  9  2  0
  9 10  1  0
 10 11  2  0
  5 12  1  0
 12 13  2  0
 12 14  1  0
 14 15  1  0
 15 16  2  0
 16 17  1  0
 17 18  2  0
 18 19  1  0
 19 20  2  0
 16 21  1  0
 21 22  1  0
  2 23  1  0
 23 24  2  0
 24 25  1  0
 25 26  2  0
 26 27  1  0
 27 28  2  0
 20  4  1  0
 28 23  1  0
 11  6  1  0
 22 14  1  0
 20 15  1  0
  7 29  1  0
  8 30  1  0
  9 31  1  0
 10 32  1  0
 11 33  1  0
 17 34  1  0
 18 35  1  0
 19 36  1  0
 21 37  1  0
 21 38  1  0
 22 39  1  0
 22 40  1  0
 24 41  1  0
 25 42  1  0
 26 43  1  0
 27 44  1  0
 28 45  1  0
M  END
$$$$
