
     RDKit          3D

 48 49  0  0  0  0  0  0  0  0999 V2000
   -6.4462   -0.3666    2.0569 C   0  0  0  0  0  0  0  0  0  0  0  0
   -5.6947   -1.4493    1.2984 C   0  0  0  0  0  0  0  0  0  0  0  0
   -4.5223   -0.9528    0.5764 N   0  0  0  0  0  0  0  0  0  0  0  0
   -4.7146   -0.4708   -0.7963 C   0  0  0  0  0  0  0  0  0  0  0  0
   -5.0127    1.0182   -0.8795 C   0  0  0  0  0  0  0  0  0  0  0  0
   -3.3487   -0.7743    1.3159 C   0  0  0  0  0  0  0  0  0  0  0  0
   -3.2614   -0.9857    2.5232 O   0  0  0  0  0  0  0  0  0  0  0  0
   -2.1280   -0.3138    0.6259 C   0  0  0  0  0  0  0  0  0  0  0  0
   -1.4621   -1.1571   -0.2646 C   0  0  0  0  0  0  0  0  0  0  0  0
   -0.2880   -0.7175   -0.8820 C   0  0  0  0  0  0  0  0  0  0  0  0
    0.2340    0.5547   -0.6039 C   0  0  0  0  0  0  0  0  0  0  0  0
    1.4206    0.9167   -1.2677 N   0  0  0  0  0  0  0  0  0  0  0  0
    2.1425    2.0918   -1.1441 C   0  0  0  0  0  0  0  0  0  0  0  0
    1.8615    3.0617   -0.4474 O   0  0  0  0  0  0  0  0  0  0  0  0
    3.3912    2.1017   -2.0320 C   0  0  0  0  0  0  0  0  0  0  0  0
    3.9761    0.8185   -2.2179 O   0  0  0  0  0  0  0  0  0  0  0  0
    4.7265    0.2769   -1.2059 C   0  0  0  0  0  0  0  0  0  0  0  0
    4.9914    0.9033    0.0174 C   0  0  0  0  0  0  0  0  0  0  0  0
    5.7703    0.2623    0.9889 C   0  0  0  0  0  0  0  0  0  0  0  0
    6.2874   -1.0144    0.7379 C   0  0  0  0  0  0  0  0  0  0  0  0
    7.1066   -1.6828    1.7564 N   0  0  0  0  0  4  0  0  0  0  0  0
    7.3574   -1.0561    2.7948 O   0  0  0  0  0  0  0  0  0  0  0  0
    7.4996   -2.8321    1.5137 O   0  0  0  0  0  1  0  0  0  0  0  0
    6.0286   -1.6583   -0.4750 C   0  0  0  0  0  0  0  0  0  0  0  0
    5.2498   -1.0099   -1.4366 C   0  0  0  0  0  0  0  0  0  0  0  0
    4.9348   -1.8476   -2.9178 Cl  0  0  0  0  0  0  0  0  0  0  0  0
   -0.4311    1.3787    0.3084 C   0  0  0  0  0  0  0  0  0  0  0  0
   -1.6051    0.9427    0.9322 C   0  0  0  0  0  0  0  0  0  0  0  0
   -7.2495   -0.8134    2.6514 H   0  0  0  0  0  0  0  0  0  0  0  0
   -5.7851    0.1821    2.7349 H   0  0  0  0  0  0  0  0  0  0  0  0
   -6.9026    0.3550    1.3751 H   0  0  0  0  0  0  0  0  0  0  0  0
   -5.3607   -2.2094    2.0149 H   0  0  0  0  0  0  0  0  0  0  0  0
   -6.3613   -1.9563    0.5923 H   0  0  0  0  0  0  0  0  0  0  0  0
   -3.8177   -0.6816   -1.3837 H   0  0  0  0  0  0  0  0  0  0  0  0
   -5.5253   -1.0435   -1.2603 H   0  0  0  0  0  0  0  0  0  0  0  0
   -5.9690    1.2617   -0.4106 H   0  0  0  0  0  0  0  0  0  0  0  0
   -5.0692    1.3311   -1.9270 H   0  0  0  0  0  0  0  0  0  0  0  0
   -4.2390    1.6150   -0.3886 H   0  0  0  0  0  0  0  0  0  0  0  0
   -1.8489   -2.1519   -0.4703 H   0  0  0  0  0  0  0  0  0  0  0  0
    0.2156   -1.3869   -1.5754 H   0  0  0  0  0  0  0  0  0  0  0  0
    1.8297    0.2189   -1.8825 H   0  0  0  0  0  0  0  0  0  0  0  0
    3.0699    2.4539   -3.0191 H   0  0  0  0  0  0  0  0  0  0  0  0
    4.1233    2.8293   -1.6644 H   0  0  0  0  0  0  0  0  0  0  0  0
    4.6083    1.8910    0.2608 H   0  0  0  0  0  0  0  0  0  0  0  0
    5.9600    0.7724    1.9327 H   0  0  0  0  0  0  0  0  0  0  0  0
    6.4216   -2.6520   -0.6794 H   0  0  0  0  0  0  0  0  0  0  0  0
   -0.0585    2.3651    0.5669 H   0  0  0  0  0  0  0  0  0  0  0  0
   -2.1052    1.5815    1.6564 H   0  0  0  0  0  0  0  0  0  0  0  0
  1  2  1  0
  2  3  1  0
  3  4  1  0
  4  5  1  0
  3  6  1  0
  6  7  2  0
  6  8  1  0
  8  9  2  0
  9 10  1  0
 10 11  2  0
 11 12  1  0
 12 13  1  0
 13 14  2  0
 13 15  1  0
 15 16  1  0
 16 17  1  0
 17 18  2  0
 18 19  1  0
 19 20  2  0
 20 21  1  0
 21 22  2  0
 21 23  1  0
 20 24  1  0
 24 25  2  0
 25 26  1  0
 11 27  1  0
 27 28  2  0
 28  8  1  0
 25 17  1  0
  1 29  1  0
  1 30  1  0
  1 31  1  0
  2 32  1  0
  2 33  1  0
  4 34  1  0
  4 35  1  0
  5 36  1  0
  5 37  1  0
  5 38  1  0
  9 39  1  0
 10 40  1  0
 12 41  1  0
 15 42  1  0
 15 43  1  0
 18 44  1  0
 19 45  1  0
 24 46  1  0
 27 47  1  0
 28 48  1  0
M  CHG  2  21   1  23  -1
M  END
$$$$
