
     RDKit          3D

 46 49  0  0  0  0  0  0  0  0999 V2000
    2.7305   -1.0946   -0.8960 O   0  0  0  0  0  0  0  0  0  0  0  0
    1.7577   -0.3486   -0.9558 C   0  0  0  0  0  0  0  0  0  0  0  0
    0.3760   -0.8952   -1.2524 C   0  0  0  0  0  0  0  0  0  0  0  0
   -0.1597   -1.6689   -0.1471 N   0  0  0  0  0  0  0  0  0  0  0  0
   -0.6388   -1.1807    1.0551 C   0  0  0  0  0  0  0  0  0  0  0  0
   -0.5804    0.2449    1.5086 C   0  0  0  0  0  0  0  0  0  0  0  0
   -0.9998    1.1233    0.4581 O   0  0  0  0  0  0  0  0  0  0  0  0
   -2.3391    1.3842    0.3410 C   0  0  0  0  0  0  0  0  0  0  0  0
   -3.3715    0.6620    0.9409 C   0  0  0  0  0  0  0  0  0  0  0  0
   -4.7037    1.0250    0.7197 C   0  0  0  0  0  0  0  0  0  0  0  0
   -5.0107    2.1062   -0.1037 C   0  0  0  0  0  0  0  0  0  0  0  0
   -3.9853    2.8248   -0.7122 C   0  0  0  0  0  0  0  0  0  0  0  0
   -2.6555    2.4610   -0.4926 C   0  0  0  0  0  0  0  0  0  0  0  0
   -1.1428   -2.1596    1.7844 N   0  0  0  0  0  0  0  0  0  0  0  0
   -0.9652   -3.3066    1.0584 C   0  0  0  0  0  0  0  0  0  0  0  0
   -1.3140   -4.6259    1.3827 C   0  0  0  0  0  0  0  0  0  0  0  0
   -1.0188   -5.6456    0.4713 C   0  0  0  0  0  0  0  0  0  0  0  0
   -0.3868   -5.3563   -0.7382 C   0  0  0  0  0  0  0  0  0  0  0  0
   -0.0342   -4.0447   -1.0787 C   0  0  0  0  0  0  0  0  0  0  0  0
   -0.3424   -3.0364   -0.1552 C   0  0  0  0  0  0  0  0  0  0  0  0
    1.7843    1.0247   -0.7745 N   0  0  0  0  0  0  0  0  0  0  0  0
    2.9091    1.8449   -0.5028 C   0  0  0  0  0  0  0  0  0  0  0  0
    4.2176    1.3565   -0.4246 C   0  0  0  0  0  0  0  0  0  0  0  0
    5.2897    2.2190   -0.1524 C   0  0  0  0  0  0  0  0  0  0  0  0
    6.8745    1.5324   -0.0746 Cl  0  0  0  0  0  0  0  0  0  0  0  0
    5.0609    3.5844    0.0439 C   0  0  0  0  0  0  0  0  0  0  0  0
    6.3344    4.7013    0.3817 Cl  0  0  0  0  0  0  0  0  0  0  0  0
    3.7626    4.0869   -0.0334 C   0  0  0  0  0  0  0  0  0  0  0  0
    2.6991    3.2236   -0.3055 C   0  0  0  0  0  0  0  0  0  0  0  0
    1.1111    3.9050   -0.3973 Cl  0  0  0  0  0  0  0  0  0  0  0  0
    0.4515   -1.5330   -2.1388 H   0  0  0  0  0  0  0  0  0  0  0  0
   -0.3403   -0.1119   -1.5105 H   0  0  0  0  0  0  0  0  0  0  0  0
    0.4598    0.4950    1.7449 H   0  0  0  0  0  0  0  0  0  0  0  0
   -1.1490    0.4114    2.4311 H   0  0  0  0  0  0  0  0  0  0  0  0
   -3.1836   -0.1998    1.5753 H   0  0  0  0  0  0  0  0  0  0  0  0
   -5.5026    0.4561    1.1895 H   0  0  0  0  0  0  0  0  0  0  0  0
   -6.0476    2.3848   -0.2725 H   0  0  0  0  0  0  0  0  0  0  0  0
   -4.2194    3.6680   -1.3567 H   0  0  0  0  0  0  0  0  0  0  0  0
   -1.8648    3.0309   -0.9721 H   0  0  0  0  0  0  0  0  0  0  0  0
   -1.7993   -4.8419    2.3278 H   0  0  0  0  0  0  0  0  0  0  0  0
   -1.2806   -6.6727    0.7132 H   0  0  0  0  0  0  0  0  0  0  0  0
   -0.1591   -6.1656   -1.4292 H   0  0  0  0  0  0  0  0  0  0  0  0
    0.4671   -3.8366   -2.0177 H   0  0  0  0  0  0  0  0  0  0  0  0
    0.8901    1.5162   -0.7775 H   0  0  0  0  0  0  0  0  0  0  0  0
    4.4397    0.3038   -0.5722 H   0  0  0  0  0  0  0  0  0  0  0  0
    3.5793    5.1483    0.1168 H   0  0  0  0  0  0  0  0  0  0  0  0
  1  2  2  0
  2  3  1  0
  3  4  1  0
  4  5  1  0
  5  6  1  0
  6  7  1  0
  7  8  1  0
  8  9  2  0
  9 10  1  0
 10 11  2  0
 11 12  1  0
 12 13  2  0
  5 14  2  0
 14 15  1  0
 15 16  2  0
 16 17  1  0
 17 18  2  0
 18 19  1  0
 19 20  2  0
  2 21  1  0
 21 22  1  0
 22 23  2  0
 23 24  1  0
 24 25  1  0
 24 26  2  0
 26 27  1  0
 26 28  1  0
 28 29  2  0
 29 30  1  0
 20  4  1  0
 29 22  1  0
 13  8  1  0
 20 15  1  0
  3 31  1  0
  3 32  1  0
  6 33  1  0
  6 34  1  0
  9 35  1  0
 10 36  1  0
 11 37  1  0
 12 38  1  0
 13 39  1  0
 16 40  1  0
 17 41  1  0
 18 42  1  0
 19 43  1  0
 21 44  1  0
 23 45  1  0
 28 46  1  0
M  END
$$$$
