
     RDKit          3D

 40 41  0  0  0  0  0  0  0  0999 V2000
   -6.4699    3.1278   -1.3883 C   0  0  0  0  0  0  0  0  0  0  0  0
   -5.3460    2.3113   -1.6936 O   0  0  0  0  0  0  0  0  0  0  0  0
   -4.4330    2.1154   -0.6954 C   0  0  0  0  0  0  0  0  0  0  0  0
   -3.3525    1.3010   -1.0456 C   0  0  0  0  0  0  0  0  0  0  0  0
   -2.3415    1.0148   -0.1229 C   0  0  0  0  0  0  0  0  0  0  0  0
   -2.4037    1.5491    1.1688 C   0  0  0  0  0  0  0  0  0  0  0  0
   -1.3622    1.2832    2.1973 C   0  0  0  0  0  0  0  0  0  0  0  0
   -1.4586    1.6334    3.3622 O   0  0  0  0  0  0  0  0  0  0  0  0
   -0.3088    0.6237    1.6556 O   0  0  0  0  0  0  0  0  0  0  0  0
    0.7242    0.3244    2.6018 C   0  0  0  0  0  0  0  0  0  0  0  0
    1.9087   -0.3508    1.9149 C   0  0  0  0  0  0  0  0  0  0  0  0
    2.7277   -1.0290    2.5278 O   0  0  0  0  0  0  0  0  0  0  0  0
    1.9973   -0.1021    0.5625 N   0  0  0  0  0  0  0  0  0  0  0  0
    3.0199   -0.7041   -0.2712 C   0  0  0  0  0  0  0  0  0  0  0  0
    2.7442   -2.1805   -0.5777 C   0  0  0  0  0  0  0  0  0  0  0  0
    3.6215   -2.6953   -1.6135 N   0  0  0  0  0  0  0  0  0  0  0  0
    4.8479   -3.2578   -1.3640 C   0  0  0  0  0  0  0  0  0  0  0  0
    5.2619   -3.3872   -0.0745 O   0  0  0  0  0  0  0  0  0  0  0  0
    5.5258   -3.6213   -2.4586 C   0  0  0  0  0  0  0  0  0  0  0  0
    4.6339   -3.2481   -3.9036 S   0  0  0  0  0  0  0  0  0  0  0  0
    3.3048   -2.5552   -2.9546 C   0  0  0  0  0  0  0  0  0  0  0  0
    2.3141   -2.0393   -3.4452 O   0  0  0  0  0  0  0  0  0  0  0  0
   -3.4890    2.3620    1.5213 C   0  0  0  0  0  0  0  0  0  0  0  0
   -4.4985    2.6450    0.5932 C   0  0  0  0  0  0  0  0  0  0  0  0
   -7.0971    3.1813   -2.2834 H   0  0  0  0  0  0  0  0  0  0  0  0
   -6.1600    4.1475   -1.1371 H   0  0  0  0  0  0  0  0  0  0  0  0
   -7.0712    2.6875   -0.5860 H   0  0  0  0  0  0  0  0  0  0  0  0
   -3.2998    0.8824   -2.0487 H   0  0  0  0  0  0  0  0  0  0  0  0
   -1.5230    0.3701   -0.4301 H   0  0  0  0  0  0  0  0  0  0  0  0
    1.0917    1.2448    3.0693 H   0  0  0  0  0  0  0  0  0  0  0  0
    0.3338   -0.3674    3.3562 H   0  0  0  0  0  0  0  0  0  0  0  0
    1.2060    0.3547    0.1218 H   0  0  0  0  0  0  0  0  0  0  0  0
    3.9895   -0.5983    0.2287 H   0  0  0  0  0  0  0  0  0  0  0  0
    3.0568   -0.1166   -1.1951 H   0  0  0  0  0  0  0  0  0  0  0  0
    2.8290   -2.7968    0.3247 H   0  0  0  0  0  0  0  0  0  0  0  0
    1.7093   -2.2855   -0.9277 H   0  0  0  0  0  0  0  0  0  0  0  0
    6.1379   -3.8080   -0.0669 H   0  0  0  0  0  0  0  0  0  0  0  0
    6.5038   -4.0785   -2.4837 H   0  0  0  0  0  0  0  0  0  0  0  0
   -3.5556    2.7819    2.5239 H   0  0  0  0  0  0  0  0  0  0  0  0
   -5.3190    3.2803    0.9110 H   0  0  0  0  0  0  0  0  0  0  0  0
  1  2  1  0
  2  3  1  0
  3  4  2  0
  4  5  1  0
  5  6  2  0
  6  7  1  0
  7  8  2  0
  7  9  1  0
  9 10  1  0
 10 11  1  0
 11 12  2  0
 11 13  1  0
 13 14  1  0
 14 15  1  0
 15 16  1  0
 16 17  1  0
 17 18  1  0
 17 19  2  0
 19 20  1  0
 20 21  1  0
 21 22  2  0
  6 23  1  0
 23 24  2  0
 24  3  1  0
 21 16  1  0
  1 25  1  0
  1 26  1  0
  1 27  1  0
  4 28  1  0
  5 29  1  0
 10 30  1  0
 10 31  1  0
 13 32  1  0
 14 33  1  0
 14 34  1  0
 15 35  1  0
 15 36  1  0
 18 37  1  0
 19 38  1  0
 23 39  1  0
 24 40  1  0
M  END
$$$$
