
     RDKit          3D

 59 61  0  0  0  0  0  0  0  0999 V2000
   -4.1790   -3.6893    0.8301 C   0  0  0  0  0  0  0  0  0  0  0  0
   -4.3775   -2.7908   -0.1465 C   0  0  0  0  0  0  0  0  0  0  0  0
   -5.2929   -1.5523   -0.1328 C   0  0  0  0  0  0  0  0  0  0  0  0
   -6.1092   -1.4397    1.1749 C   0  0  0  0  0  0  0  0  0  0  0  0
   -6.2751   -1.8075   -1.3029 C   0  0  0  0  0  0  0  0  0  0  0  0
   -4.4837   -0.2395   -0.3002 C   0  0  0  0  0  0  0  0  0  0  0  0
   -3.1070   -0.2028    0.0257 C   0  0  0  0  0  0  0  0  0  0  0  0
   -2.3200    0.9606   -0.0982 C   0  0  0  0  0  0  0  0  0  0  0  0
   -0.8445    0.8942    0.2543 C   0  0  2  0  0  0  0  0  0  0  0  0
   -0.4860    1.7821    1.4378 C   0  0  0  0  0  0  0  0  0  0  0  0
    0.9738    1.5877    1.7266 C   0  0  0  0  0  0  0  0  0  0  0  0
    1.4464    1.6623    2.8592 O   0  0  0  0  0  0  0  0  0  0  0  0
    1.8605    1.3614    0.5676 C   0  0  0  0  0  0  0  0  0  0  0  0
    1.2757    1.2218   -0.6913 C   0  0  0  0  0  0  0  0  0  0  0  0
    2.0788    1.0761   -1.8193 C   0  0  0  0  0  0  0  0  0  0  0  0
    3.4659    1.0354   -1.6777 C   0  0  0  0  0  0  0  0  0  0  0  0
    4.2501    0.8722   -2.7868 O   0  0  0  0  0  0  0  0  0  0  0  0
    4.0808    1.1530   -0.4200 C   0  0  0  0  0  0  0  0  0  0  0  0
    5.5869    1.0813   -0.2848 C   0  0  0  0  0  0  0  0  0  0  0  0
    6.0977   -0.3368   -0.2484 C   0  0  0  0  0  0  0  0  0  0  0  0
    6.6789   -0.9928    0.7756 C   0  0  0  0  0  0  0  0  0  0  0  0
    6.9075   -0.4267    2.1493 C   0  0  0  0  0  0  0  0  0  0  0  0
    7.1547   -2.4121    0.6052 C   0  0  0  0  0  0  0  0  0  0  0  0
    3.2567    1.3189    0.7052 C   0  0  0  0  0  0  0  0  0  0  0  0
    3.8578    1.4510    1.9324 O   0  0  0  0  0  0  0  0  0  0  0  0
   -0.0765    1.2342   -0.9119 O   0  0  0  0  0  0  0  0  0  0  0  0
   -2.9420    2.1259   -0.5462 C   0  0  0  0  0  0  0  0  0  0  0  0
   -2.2068    3.2698   -0.6766 O   0  0  0  0  0  0  0  0  0  0  0  0
   -4.3022    2.1413   -0.8449 C   0  0  0  0  0  0  0  0  0  0  0  0
   -5.0601    0.9735   -0.7109 C   0  0  0  0  0  0  0  0  0  0  0  0
   -6.4018    1.0407   -0.9622 O   0  0  0  0  0  0  0  0  0  0  0  0
   -4.6744   -3.6297    1.7928 H   0  0  0  0  0  0  0  0  0  0  0  0
   -3.4995   -4.5235    0.6783 H   0  0  0  0  0  0  0  0  0  0  0  0
   -3.8323   -2.9429   -1.0805 H   0  0  0  0  0  0  0  0  0  0  0  0
   -5.4584   -1.2880    2.0448 H   0  0  0  0  0  0  0  0  0  0  0  0
   -6.7109   -2.3395    1.3537 H   0  0  0  0  0  0  0  0  0  0  0  0
   -6.8056   -0.5930    1.1459 H   0  0  0  0  0  0  0  0  0  0  0  0
   -5.7840   -1.6758   -2.2750 H   0  0  0  0  0  0  0  0  0  0  0  0
   -6.6773   -2.8283   -1.2704 H   0  0  0  0  0  0  0  0  0  0  0  0
   -7.1470   -1.1484   -1.2782 H   0  0  0  0  0  0  0  0  0  0  0  0
   -2.6209   -1.1052    0.3940 H   0  0  0  0  0  0  0  0  0  0  0  0
   -0.5989   -0.1497    0.5008 H   0  0  0  0  0  0  0  0  0  0  0  0
   -1.0675    1.4988    2.3215 H   0  0  0  0  0  0  0  0  0  0  0  0
   -0.6368    2.8477    1.2398 H   0  0  0  0  0  0  0  0  0  0  0  0
    1.6089    0.9813   -2.7936 H   0  0  0  0  0  0  0  0  0  0  0  0
    3.6853    0.8449   -3.5761 H   0  0  0  0  0  0  0  0  0  0  0  0
    6.0518    1.5927   -1.1386 H   0  0  0  0  0  0  0  0  0  0  0  0
    5.9195    1.6664    0.5784 H   0  0  0  0  0  0  0  0  0  0  0  0
    5.9849   -0.8596   -1.1986 H   0  0  0  0  0  0  0  0  0  0  0  0
    6.4416   -1.0722    2.9033 H   0  0  0  0  0  0  0  0  0  0  0  0
    6.4947    0.5750    2.2859 H   0  0  0  0  0  0  0  0  0  0  0  0
    7.9825   -0.3733    2.3591 H   0  0  0  0  0  0  0  0  0  0  0  0
    6.9582   -2.7992   -0.4003 H   0  0  0  0  0  0  0  0  0  0  0  0
    6.6500   -3.0716    1.3191 H   0  0  0  0  0  0  0  0  0  0  0  0
    8.2342   -2.4712    0.7792 H   0  0  0  0  0  0  0  0  0  0  0  0
    3.1580    1.5518    2.6154 H   0  0  0  0  0  0  0  0  0  0  0  0
   -2.7483    3.9548   -1.1029 H   0  0  0  0  0  0  0  0  0  0  0  0
   -4.7750    3.0624   -1.1683 H   0  0  0  0  0  0  0  0  0  0  0  0
   -6.6408    1.9422   -1.2299 H   0  0  0  0  0  0  0  0  0  0  0  0
  1  2  2  0
  2  3  1  0
  3  4  1  0
  3  5  1  0
  3  6  1  0
  6  7  2  0
  7  8  1  0
  8  9  1  0
  9 10  1  0
 10 11  1  0
 11 12  2  0
 11 13  1  0
 13 14  2  0
 14 15  1  0
 15 16  2  0
 16 17  1  0
 16 18  1  0
 18 19  1  0
 19 20  1  0
 20 21  2  3
 21 22  1  0
 21 23  1  0
 18 24  2  0
 24 25  1  0
 14 26  1  0
  8 27  2  0
 27 28  1  0
 27 29  1  0
 29 30  2  0
 30 31  1  0
 30  6  1  0
 26  9  1  0
 24 13  1  0
  1 32  1  0
  1 33  1  0
  2 34  1  0
  4 35  1  0
  4 36  1  0
  4 37  1  0
  5 38  1  0
  5 39  1  0
  5 40  1  0
  7 41  1  0
  9 42  1  1
 10 43  1  0
 10 44  1  0
 15 45  1  0
 17 46  1  0
 19 47  1  0
 19 48  1  0
 20 49  1  0
 22 50  1  0
 22 51  1  0
 22 52  1  0
 23 53  1  0
 23 54  1  0
 23 55  1  0
 25 56  1  0
 28 57  1  0
 29 58  1  0
 31 59  1  0
M  END
$$$$
