
     RDKit          3D

 45 47  0  0  0  0  0  0  0  0999 V2000
   -3.7269    0.2071    1.4142 O   0  0  0  0  0  0  0  0  0  0  0  0
   -3.1835    0.3297    0.3178 C   0  0  0  0  0  0  0  0  0  0  0  0
   -3.9424    0.7744   -0.9272 C   0  0  0  0  0  0  0  0  0  0  0  0
   -5.4096    1.0604   -0.7009 C   0  0  0  0  0  0  0  0  0  0  0  0
   -6.3625    0.0406   -0.8409 C   0  0  0  0  0  0  0  0  0  0  0  0
   -7.7167    0.3032   -0.6217 C   0  0  0  0  0  0  0  0  0  0  0  0
   -8.1236    1.5841   -0.2558 C   0  0  0  0  0  0  0  0  0  0  0  0
   -9.7924    1.9074    0.0117 Cl  0  0  0  0  0  0  0  0  0  0  0  0
   -7.1877    2.6044   -0.1032 C   0  0  0  0  0  0  0  0  0  0  0  0
   -5.8332    2.3430   -0.3221 C   0  0  0  0  0  0  0  0  0  0  0  0
   -1.7508    0.0422    0.1716 C   0  0  0  0  0  0  0  0  0  0  0  0
   -0.9887    0.1152   -0.9799 C   0  0  0  0  0  0  0  0  0  0  0  0
    0.3033   -0.2274   -0.6698 N   0  0  0  0  0  0  0  0  0  0  0  0
    0.4070   -0.5490    0.6650 C   0  0  0  0  0  0  0  0  0  0  0  0
    1.6140   -0.9487    1.3590 C   0  0  0  0  0  0  0  0  0  0  0  0
    1.7395   -0.8868    2.5767 O   0  0  0  0  0  0  0  0  0  0  0  0
    2.6205   -1.4220    0.5377 N   0  0  0  0  0  0  0  0  0  0  0  0
    3.8248   -2.0086    1.0952 C   0  0  0  0  0  0  0  0  0  0  0  0
    4.7493   -1.0105    1.7964 C   0  0  0  0  0  0  0  0  0  0  0  0
    5.1373    0.1992    0.9468 C   0  0  0  0  0  0  0  0  0  0  0  0
    5.7929   -0.1445   -0.2970 N   0  0  0  0  0  0  0  0  0  0  0  0
    5.2772    0.0087   -1.5537 C   0  0  0  0  0  0  0  0  0  0  0  0
    6.2579   -0.4585   -2.3972 C   0  0  0  0  0  0  0  0  0  0  0  0
    7.3491   -0.8830   -1.6849 N   0  0  0  0  0  0  0  0  0  0  0  0
    7.0483   -0.6653   -0.4244 C   0  0  0  0  0  0  0  0  0  0  0  0
   -0.8562   -0.3652    1.2040 C   0  0  0  0  0  0  0  0  0  0  0  0
   -3.8471   -0.0064   -1.6920 H   0  0  0  0  0  0  0  0  0  0  0  0
   -3.4632    1.6774   -1.3253 H   0  0  0  0  0  0  0  0  0  0  0  0
   -6.0573   -0.9676   -1.1128 H   0  0  0  0  0  0  0  0  0  0  0  0
   -8.4455   -0.4953   -0.7309 H   0  0  0  0  0  0  0  0  0  0  0  0
   -7.5037    3.6011    0.1922 H   0  0  0  0  0  0  0  0  0  0  0  0
   -5.1116    3.1456   -0.1859 H   0  0  0  0  0  0  0  0  0  0  0  0
   -1.2436    0.3915   -1.9950 H   0  0  0  0  0  0  0  0  0  0  0  0
    1.0774   -0.2113   -1.3205 H   0  0  0  0  0  0  0  0  0  0  0  0
    2.3339   -1.7846   -0.3600 H   0  0  0  0  0  0  0  0  0  0  0  0
    4.3517   -2.4994    0.2700 H   0  0  0  0  0  0  0  0  0  0  0  0
    3.5260   -2.7912    1.8022 H   0  0  0  0  0  0  0  0  0  0  0  0
    5.6539   -1.5453    2.1119 H   0  0  0  0  0  0  0  0  0  0  0  0
    4.2765   -0.6442    2.7147 H   0  0  0  0  0  0  0  0  0  0  0  0
    5.8311    0.8398    1.5041 H   0  0  0  0  0  0  0  0  0  0  0  0
    4.2580    0.8087    0.7094 H   0  0  0  0  0  0  0  0  0  0  0  0
    4.2986    0.4259   -1.7400 H   0  0  0  0  0  0  0  0  0  0  0  0
    6.2398   -0.5086   -3.4783 H   0  0  0  0  0  0  0  0  0  0  0  0
    7.6926   -0.8703    0.4211 H   0  0  0  0  0  0  0  0  0  0  0  0
   -1.1145   -0.5160    2.2473 H   0  0  0  0  0  0  0  0  0  0  0  0
  1  2  2  0
  2  3  1  0
  3  4  1  0
  4  5  2  0
  5  6  1  0
  6  7  2  0
  7  8  1  0
  7  9  1  0
  9 10  2  0
  2 11  1  0
 11 12  2  0
 12 13  1  0
 13 14  1  0
 14 15  1  0
 15 16  2  0
 15 17  1  0
 17 18  1  0
 18 19  1  0
 19 20  1  0
 20 21  1  0
 21 22  1  0
 22 23  2  0
 23 24  1  0
 24 25  2  0
 14 26  2  0
 10  4  1  0
 26 11  1  0
 25 21  1  0
  3 27  1  0
  3 28  1  0
  5 29  1  0
  6 30  1  0
  9 31  1  0
 10 32  1  0
 12 33  1  0
 13 34  1  0
 17 35  1  0
 18 36  1  0
 18 37  1  0
 19 38  1  0
 19 39  1  0
 20 40  1  0
 20 41  1  0
 22 42  1  0
 23 43  1  0
 25 44  1  0
 26 45  1  0
M  END
$$$$
