
     RDKit          3D

 34 36  0  0  0  0  0  0  0  0999 V2000
    0.1305   -1.5064   -1.7628 O   0  0  0  0  0  0  0  0  0  0  0  0
    0.4274   -0.8488   -0.7752 C   0  0  0  0  0  0  0  0  0  0  0  0
    1.8396   -0.7903   -0.3587 C   0  0  0  0  0  0  0  0  0  0  0  0
    2.2510   -1.4096    0.8262 C   0  0  0  0  0  0  0  0  0  0  0  0
    3.5963   -1.3566    1.1965 C   0  0  0  0  0  0  0  0  0  0  0  0
    4.5162   -0.6990    0.3770 C   0  0  0  0  0  0  0  0  0  0  0  0
    6.1723   -0.6335    0.8386 Cl  0  0  0  0  0  0  0  0  0  0  0  0
    4.1063   -0.0991   -0.8151 C   0  0  0  0  0  0  0  0  0  0  0  0
    2.7624   -0.1496   -1.1903 C   0  0  0  0  0  0  0  0  0  0  0  0
   -0.4954   -0.1474   -0.0438 N   0  0  0  0  0  0  0  0  0  0  0  0
   -0.2563    0.8052    1.0496 C   0  0  0  0  0  0  0  0  0  0  0  0
   -0.4487    2.1743    0.4465 C   0  0  0  0  0  0  0  0  0  0  0  0
   -1.7624    2.3379    0.2125 C   0  0  0  0  0  0  0  0  0  0  0  0
   -2.4333    1.0237    0.5839 C   0  0  0  0  0  0  0  0  0  0  0  0
   -1.5700    0.7249    1.8260 C   0  0  0  0  0  0  0  0  0  0  0  0
   -1.9714   -0.1030   -0.4189 C   0  0  0  0  0  0  0  0  0  0  0  0
   -2.3128    0.2740   -1.8640 C   0  0  0  0  0  0  0  0  0  0  0  0
   -2.1907   -0.7307   -2.7520 F   0  0  0  0  0  0  0  0  0  0  0  0
   -3.6004    0.7029   -1.9460 F   0  0  0  0  0  0  0  0  0  0  0  0
   -1.5490    1.2948   -2.3269 F   0  0  0  0  0  0  0  0  0  0  0  0
   -2.7429   -1.3968   -0.1732 C   0  0  0  0  0  0  0  0  0  0  0  0
   -4.0795   -1.1948   -0.2686 F   0  0  0  0  0  0  0  0  0  0  0  0
   -2.4286   -2.3992   -1.0149 F   0  0  0  0  0  0  0  0  0  0  0  0
   -2.5284   -1.8767    1.0783 F   0  0  0  0  0  0  0  0  0  0  0  0
    1.5356   -1.9393    1.4501 H   0  0  0  0  0  0  0  0  0  0  0  0
    3.9238   -1.8358    2.1157 H   0  0  0  0  0  0  0  0  0  0  0  0
    4.8275    0.3996   -1.4578 H   0  0  0  0  0  0  0  0  0  0  0  0
    2.4379    0.3008   -2.1258 H   0  0  0  0  0  0  0  0  0  0  0  0
    0.6545    0.6706    1.6302 H   0  0  0  0  0  0  0  0  0  0  0  0
    0.3372    2.8845    0.2371 H   0  0  0  0  0  0  0  0  0  0  0  0
   -2.2379    3.1949   -0.2430 H   0  0  0  0  0  0  0  0  0  0  0  0
   -3.5045    1.1010    0.7772 H   0  0  0  0  0  0  0  0  0  0  0  0
   -1.6608    1.4822    2.6166 H   0  0  0  0  0  0  0  0  0  0  0  0
   -1.7454   -0.2546    2.2750 H   0  0  0  0  0  0  0  0  0  0  0  0
  1  2  2  0
  2  3  1  0
  3  4  2  0
  4  5  1  0
  5  6  2  0
  6  7  1  0
  6  8  1  0
  8  9  2  0
  2 10  1  0
 10 11  1  0
 11 12  1  0
 12 13  2  0
 13 14  1  0
 14 15  1  0
 14 16  1  0
 16 17  1  0
 17 18  1  0
 17 19  1  0
 17 20  1  0
 16 21  1  0
 21 22  1  0
 21 23  1  0
 21 24  1  0
  9  3  1  0
 16 10  1  0
 15 11  1  0
  4 25  1  0
  5 26  1  0
  8 27  1  0
  9 28  1  0
 11 29  1  0
 12 30  1  0
 13 31  1  0
 14 32  1  0
 15 33  1  0
 15 34  1  0
M  END
$$$$
