
     RDKit          3D

 37 38  0  0  0  0  0  0  0  0999 V2000
   -7.6784   -0.4325   -0.1119 C   0  0  0  0  0  0  0  0  0  0  0  0
   -6.2707   -0.2377   -0.6186 C   0  0  0  0  0  0  0  0  0  0  0  0
   -6.0358   -0.2168   -1.8213 O   0  0  0  0  0  0  0  0  0  0  0  0
   -5.3629   -0.0650    0.4109 N   0  0  0  0  0  0  0  0  0  0  0  0
   -3.9713    0.1339    0.3036 C   0  0  0  0  0  0  0  0  0  0  0  0
   -3.2586    0.3188    1.4950 C   0  0  0  0  0  0  0  0  0  0  0  0
   -1.8743    0.5221    1.4759 C   0  0  0  0  0  0  0  0  0  0  0  0
   -1.1798    0.5418    0.2615 C   0  0  0  0  0  0  0  0  0  0  0  0
    0.2907    0.7647    0.2942 C   0  0  0  0  0  0  0  0  0  0  0  0
    0.9281    0.9184    1.3250 O   0  0  0  0  0  0  0  0  0  0  0  0
    0.8036    0.7948   -0.9615 O   0  0  0  0  0  0  0  0  0  0  0  0
    2.2275    0.9040   -1.0057 C   0  0  0  0  0  0  0  0  0  0  0  0
    2.9204   -0.4195   -0.6894 C   0  0  0  0  0  0  0  0  0  0  0  0
    2.3093   -1.4871   -0.6419 O   0  0  0  0  0  0  0  0  0  0  0  0
    4.3957   -0.4153   -0.4504 C   0  0  0  0  0  0  0  0  0  0  0  0
    5.1949    0.7110   -0.6951 C   0  0  0  0  0  0  0  0  0  0  0  0
    6.5720    0.6563   -0.4571 C   0  0  0  0  0  0  0  0  0  0  0  0
    7.1456   -0.5172    0.0196 C   0  0  0  0  0  0  0  0  0  0  0  0
    8.4648   -0.5620    0.2442 F   0  0  0  0  0  0  0  0  0  0  0  0
    6.3697   -1.6429    0.2632 C   0  0  0  0  0  0  0  0  0  0  0  0
    4.9943   -1.5932    0.0270 C   0  0  0  0  0  0  0  0  0  0  0  0
   -1.8878    0.3515   -0.9298 C   0  0  0  0  0  0  0  0  0  0  0  0
   -3.2748    0.1503   -0.9063 C   0  0  0  0  0  0  0  0  0  0  0  0
   -8.1358    0.5435    0.0696 H   0  0  0  0  0  0  0  0  0  0  0  0
   -8.2620   -0.9744   -0.8617 H   0  0  0  0  0  0  0  0  0  0  0  0
   -7.6853   -1.0196    0.8109 H   0  0  0  0  0  0  0  0  0  0  0  0
   -5.7377   -0.0691    1.3511 H   0  0  0  0  0  0  0  0  0  0  0  0
   -3.7654    0.3081    2.4567 H   0  0  0  0  0  0  0  0  0  0  0  0
   -1.3409    0.6623    2.4144 H   0  0  0  0  0  0  0  0  0  0  0  0
    2.4912    1.1869   -2.0300 H   0  0  0  0  0  0  0  0  0  0  0  0
    2.5642    1.6979   -0.3299 H   0  0  0  0  0  0  0  0  0  0  0  0
    4.7800    1.6396   -1.0752 H   0  0  0  0  0  0  0  0  0  0  0  0
    7.2025    1.5212   -0.6417 H   0  0  0  0  0  0  0  0  0  0  0  0
    6.8358   -2.5504    0.6342 H   0  0  0  0  0  0  0  0  0  0  0  0
    4.3890   -2.4780    0.2199 H   0  0  0  0  0  0  0  0  0  0  0  0
   -1.3788    0.3503   -1.8908 H   0  0  0  0  0  0  0  0  0  0  0  0
   -3.7787    0.0034   -1.8571 H   0  0  0  0  0  0  0  0  0  0  0  0
  1  2  1  0
  2  3  2  0
  2  4  1  0
  4  5  1  0
  5  6  2  0
  6  7  1  0
  7  8  2  0
  8  9  1  0
  9 10  2  0
  9 11  1  0
 11 12  1  0
 12 13  1  0
 13 14  2  0
 13 15  1  0
 15 16  2  0
 16 17  1  0
 17 18  2  0
 18 19  1  0
 18 20  1  0
 20 21  2  0
  8 22  1  0
 22 23  2  0
 23  5  1  0
 21 15  1  0
  1 24  1  0
  1 25  1  0
  1 26  1  0
  4 27  1  0
  6 28  1  0
  7 29  1  0
 12 30  1  0
 12 31  1  0
 16 32  1  0
 17 33  1  0
 20 34  1  0
 21 35  1  0
 22 36  1  0
 23 37  1  0
M  END
$$$$
