
     RDKit          3D

 32 33  0  0  0  0  0  0  0  0999 V2000
    4.3178    1.1903    1.0143 C   0  0  0  0  0  0  0  0  0  0  0  0
    4.3322    0.6582   -0.6782 S   0  0  0  0  0  6  0  0  0  0  0  0
    3.9814    1.7804   -1.5253 O   0  0  0  0  0  0  0  0  0  0  0  0
    5.5639   -0.0798   -0.8897 O   0  0  0  0  0  0  0  0  0  0  0  0
    2.9926   -0.5063   -0.7862 C   0  0  0  0  0  0  0  0  0  0  0  0
    3.2427   -1.8201   -1.1873 C   0  0  0  0  0  0  0  0  0  0  0  0
    2.1805   -2.7175   -1.2824 C   0  0  0  0  0  0  0  0  0  0  0  0
    0.8839   -2.2983   -0.9690 C   0  0  0  0  0  0  0  0  0  0  0  0
   -0.4002   -3.4530   -1.0992 Cl  0  0  0  0  0  0  0  0  0  0  0  0
    0.6277   -0.9768   -0.5518 C   0  0  0  0  0  0  0  0  0  0  0  0
   -0.7045   -0.6134   -0.2385 N   0  0  0  0  0  0  0  0  0  0  0  0
   -1.1343    0.5525    0.3657 C   0  0  0  0  0  0  0  0  0  0  0  0
   -0.4171    1.4357    0.8210 O   0  0  0  0  0  0  0  0  0  0  0  0
   -2.6120    0.6839    0.5122 C   0  0  0  0  0  0  0  0  0  0  0  0
   -3.1132    1.3838    1.6185 C   0  0  0  0  0  0  0  0  0  0  0  0
   -4.4902    1.5313    1.7932 C   0  0  0  0  0  0  0  0  0  0  0  0
   -5.3719    0.9889    0.8587 C   0  0  0  0  0  0  0  0  0  0  0  0
   -4.8716    0.3091   -0.2515 C   0  0  0  0  0  0  0  0  0  0  0  0
   -6.0703   -0.4067   -1.5271 Br  0  0  0  0  0  0  0  0  0  0  0  0
   -3.4973    0.1554   -0.4359 C   0  0  0  0  0  0  0  0  0  0  0  0
    1.6947   -0.0773   -0.4822 C   0  0  0  0  0  0  0  0  0  0  0  0
    5.1592    1.8715    1.1598 H   0  0  0  0  0  0  0  0  0  0  0  0
    3.3836    1.7127    1.2255 H   0  0  0  0  0  0  0  0  0  0  0  0
    4.4323    0.3187    1.6617 H   0  0  0  0  0  0  0  0  0  0  0  0
    4.2500   -2.1479   -1.4379 H   0  0  0  0  0  0  0  0  0  0  0  0
    2.3682   -3.7398   -1.6025 H   0  0  0  0  0  0  0  0  0  0  0  0
   -1.3864   -1.3523   -0.3796 H   0  0  0  0  0  0  0  0  0  0  0  0
   -2.4296    1.8157    2.3479 H   0  0  0  0  0  0  0  0  0  0  0  0
   -4.8738    2.0727    2.6549 H   0  0  0  0  0  0  0  0  0  0  0  0
   -6.4433    1.1099    0.9995 H   0  0  0  0  0  0  0  0  0  0  0  0
   -3.1291   -0.3460   -1.3264 H   0  0  0  0  0  0  0  0  0  0  0  0
    1.5343    0.9645   -0.2205 H   0  0  0  0  0  0  0  0  0  0  0  0
  1  2  1  0
  2  3  2  0
  2  4  2  0
  2  5  1  0
  5  6  2  0
  6  7  1  0
  7  8  2  0
  8  9  1  0
  8 10  1  0
 10 11  1  0
 11 12  1  0
 12 13  2  0
 12 14  1  0
 14 15  2  0
 15 16  1  0
 16 17  2  0
 17 18  1  0
 18 19  1  0
 18 20  2  0
 10 21  2  0
 21  5  1  0
 20 14  1  0
  1 22  1  0
  1 23  1  0
  1 24  1  0
  6 25  1  0
  7 26  1  0
 11 27  1  0
 15 28  1  0
 16 29  1  0
 17 30  1  0
 20 31  1  0
 21 32  1  0
M  END
$$$$
