
     RDKit          3D

 53 55  0  0  0  0  0  0  0  0999 V2000
   -7.4986    0.9462    3.5490 C   0  0  0  0  0  0  0  0  0  0  0  0
   -6.3302    0.6532    2.7922 O   0  0  0  0  0  0  0  0  0  0  0  0
   -6.5035    0.2417    1.4961 C   0  0  0  0  0  0  0  0  0  0  0  0
   -7.7321    0.2464    0.8254 C   0  0  0  0  0  0  0  0  0  0  0  0
   -7.8239   -0.1992   -0.4955 C   0  0  0  0  0  0  0  0  0  0  0  0
   -6.6900   -0.6566   -1.1586 C   0  0  0  0  0  0  0  0  0  0  0  0
   -5.4613   -0.6606   -0.5027 C   0  0  0  0  0  0  0  0  0  0  0  0
   -5.3473   -0.1989    0.8232 C   0  0  0  0  0  0  0  0  0  0  0  0
   -4.0009   -0.2463    1.5043 C   0  0  0  0  0  0  0  0  0  0  0  0
   -2.9746    0.3814    0.7054 N   0  0  0  0  0  0  0  0  0  0  0  0
   -1.6416    0.1230    0.9116 C   0  0  0  0  0  0  0  0  0  0  0  0
   -1.1752   -0.7449    1.6355 O   0  0  0  0  0  0  0  0  0  0  0  0
   -0.7006    1.0525    0.1113 C   0  0  0  0  0  0  0  0  0  0  0  0
   -1.1586    1.9888   -0.5268 O   0  0  0  0  0  0  0  0  0  0  0  0
    0.6220    0.7025    0.2051 N   0  0  0  0  0  0  0  0  0  0  0  0
    1.6974    1.4780   -0.3933 C   0  0  0  0  0  0  0  0  0  0  0  0
    2.8209    0.5994   -0.9869 C   0  0  0  0  0  0  0  0  0  0  0  0
    2.3656   -0.0413   -2.1970 O   0  0  0  0  0  0  0  0  0  0  0  0
    2.1028   -1.4114   -1.8730 C   0  0  0  0  0  0  0  0  0  0  0  0
    3.1187   -1.7420   -0.8028 C   0  0  0  0  0  0  0  0  0  0  0  0
    3.1992   -0.4831   -0.0654 N   0  0  0  0  0  0  0  0  0  0  0  0
    4.4327   -0.2207    1.0288 S   0  0  0  0  0  6  0  0  0  0  0  0
    4.2285    1.0874    1.6123 O   0  0  0  0  0  0  0  0  0  0  0  0
    4.5420   -1.4013    1.8575 O   0  0  0  0  0  0  0  0  0  0  0  0
    5.9097   -0.1348    0.0345 C   0  0  0  0  0  0  0  0  0  0  0  0
    6.3804    1.1077   -0.4057 C   0  0  0  0  0  0  0  0  0  0  0  0
    7.5606    1.1741   -1.1497 C   0  0  0  0  0  0  0  0  0  0  0  0
    8.2713    0.0047   -1.4290 C   0  0  0  0  0  0  0  0  0  0  0  0
    9.8727    0.0994   -2.4299 Br  0  0  0  0  0  0  0  0  0  0  0  0
    7.8189   -1.2315   -0.9655 C   0  0  0  0  0  0  0  0  0  0  0  0
    6.6387   -1.3025   -0.2221 C   0  0  0  0  0  0  0  0  0  0  0  0
   -7.1819    1.1865    4.5677 H   0  0  0  0  0  0  0  0  0  0  0  0
   -8.1645    0.0773    3.6016 H   0  0  0  0  0  0  0  0  0  0  0  0
   -8.0177    1.8234    3.1476 H   0  0  0  0  0  0  0  0  0  0  0  0
   -8.6419    0.5935    1.3021 H   0  0  0  0  0  0  0  0  0  0  0  0
   -8.7831   -0.1909   -1.0051 H   0  0  0  0  0  0  0  0  0  0  0  0
   -6.7608   -1.0108   -2.1839 H   0  0  0  0  0  0  0  0  0  0  0  0
   -4.5836   -1.0289   -1.0284 H   0  0  0  0  0  0  0  0  0  0  0  0
   -3.7286   -1.2896    1.7030 H   0  0  0  0  0  0  0  0  0  0  0  0
   -4.0006    0.2791    2.4653 H   0  0  0  0  0  0  0  0  0  0  0  0
   -3.1933    1.2340    0.1990 H   0  0  0  0  0  0  0  0  0  0  0  0
    0.8597   -0.0275    0.8728 H   0  0  0  0  0  0  0  0  0  0  0  0
    1.2813    2.1252   -1.1722 H   0  0  0  0  0  0  0  0  0  0  0  0
    2.0936    2.1150    0.4030 H   0  0  0  0  0  0  0  0  0  0  0  0
    3.6672    1.2271   -1.2742 H   0  0  0  0  0  0  0  0  0  0  0  0
    2.2080   -2.0343   -2.7649 H   0  0  0  0  0  0  0  0  0  0  0  0
    1.0753   -1.4953   -1.5030 H   0  0  0  0  0  0  0  0  0  0  0  0
    2.7920   -2.5731   -0.1751 H   0  0  0  0  0  0  0  0  0  0  0  0
    4.0770   -1.9829   -1.2698 H   0  0  0  0  0  0  0  0  0  0  0  0
    5.8467    2.0258   -0.1662 H   0  0  0  0  0  0  0  0  0  0  0  0
    7.9245    2.1394   -1.4950 H   0  0  0  0  0  0  0  0  0  0  0  0
    8.3840   -2.1398   -1.1663 H   0  0  0  0  0  0  0  0  0  0  0  0
    6.3031   -2.2643    0.1603 H   0  0  0  0  0  0  0  0  0  0  0  0
  1  2  1  0
  2  3  1  0
  3  4  2  0
  4  5  1  0
  5  6  2  0
  6  7  1  0
  7  8  2  0
  8  9  1  0
  9 10  1  0
 10 11  1  0
 11 12  2  0
 11 13  1  0
 13 14  2  0
 13 15  1  0
 15 16  1  0
 16 17  1  0
 17 18  1  0
 18 19  1  0
 19 20  1  0
 20 21  1  0
 21 22  1  0
 22 23  2  0
 22 24  2  0
 22 25  1  0
 25 26  2  0
 26 27  1  0
 27 28  2  0
 28 29  1  0
 28 30  1  0
 30 31  2  0
  8  3  1  0
 21 17  1  0
 31 25  1  0
  1 32  1  0
  1 33  1  0
  1 34  1  0
  4 35  1  0
  5 36  1  0
  6 37  1  0
  7 38  1  0
  9 39  1  0
  9 40  1  0
 10 41  1  0
 15 42  1  0
 16 43  1  0
 16 44  1  0
 17 45  1  0
 19 46  1  0
 19 47  1  0
 20 48  1  0
 20 49  1  0
 26 50  1  0
 27 51  1  0
 30 52  1  0
 31 53  1  0
M  END
$$$$
