
     RDKit          3D

 48 50  0  0  0  0  0  0  0  0999 V2000
    5.0832   -3.2458   -0.2820 C   0  0  0  0  0  0  0  0  0  0  0  0
    4.1400   -3.2231    0.7876 O   0  0  0  0  0  0  0  0  0  0  0  0
    2.9558   -2.6147    0.4634 C   0  0  0  0  0  0  0  0  0  0  0  0
    2.2678   -2.9000   -0.7204 C   0  0  0  0  0  0  0  0  0  0  0  0
    1.0495   -2.2746   -0.9927 C   0  0  0  0  0  0  0  0  0  0  0  0
    0.5125   -1.3718   -0.0751 C   0  0  0  0  0  0  0  0  0  0  0  0
   -0.7675   -0.6818   -0.3422 C   0  0  0  0  0  0  0  0  0  0  0  0
   -1.4529   -0.9193   -1.4144 N   0  0  0  0  0  0  0  0  0  0  0  0
   -2.6467   -0.2743   -1.5947 N   0  0  0  0  0  0  0  0  0  0  0  0
   -3.5246    0.1652   -0.6050 C   0  0  0  0  0  0  0  0  0  0  0  0
   -3.3110    0.1401    0.5999 O   0  0  0  0  0  0  0  0  0  0  0  0
   -4.8285    0.6653   -1.1774 C   0  0  0  0  0  0  0  0  0  0  0  0
   -4.9779    0.3709   -2.5051 N   0  0  0  0  0  0  0  0  0  0  0  0
   -6.1339    0.7474   -3.0939 C   0  0  0  0  0  0  0  0  0  0  0  0
   -6.2070    0.2719   -4.7452 Cl  0  0  0  0  0  0  0  0  0  0  0  0
   -7.1540    1.4336   -2.4480 C   0  0  0  0  0  0  0  0  0  0  0  0
   -8.6127    1.8858   -3.2656 Cl  0  0  0  0  0  0  0  0  0  0  0  0
   -6.9677    1.7836   -1.0969 C   0  0  0  0  0  0  0  0  0  0  0  0
   -8.0263    2.3721   -0.3632 N   0  0  0  0  0  0  0  0  0  0  0  0
   -5.7897    1.3581   -0.4378 C   0  0  0  0  0  0  0  0  0  0  0  0
   -5.5955    1.7841    1.2318 Cl  0  0  0  0  0  0  0  0  0  0  0  0
    1.1830   -1.1021    1.1215 C   0  0  0  0  0  0  0  0  0  0  0  0
    2.4103   -1.7273    1.4046 C   0  0  0  0  0  0  0  0  0  0  0  0
    3.1442   -1.3994    2.6875 C   0  0  0  0  0  0  0  0  0  0  0  0
    4.3255   -0.6133    2.4774 O   0  0  0  0  0  0  0  0  0  0  0  0
    4.1095    0.6415    1.9804 C   0  0  0  0  0  0  0  0  0  0  0  0
    3.2510    1.5607    2.5872 C   0  0  0  0  0  0  0  0  0  0  0  0
    3.0969    2.8334    2.0318 C   0  0  0  0  0  0  0  0  0  0  0  0
    3.8141    3.1803    0.8890 C   0  0  0  0  0  0  0  0  0  0  0  0
    3.6590    4.4024    0.3646 F   0  0  0  0  0  0  0  0  0  0  0  0
    4.6889    2.2847    0.2918 C   0  0  0  0  0  0  0  0  0  0  0  0
    4.8380    1.0208    0.8488 C   0  0  0  0  0  0  0  0  0  0  0  0
    5.6800    0.1548    0.2658 F   0  0  0  0  0  0  0  0  0  0  0  0
    5.1141   -2.2933   -0.8220 H   0  0  0  0  0  0  0  0  0  0  0  0
    4.8644   -4.0721   -0.9662 H   0  0  0  0  0  0  0  0  0  0  0  0
    6.0740   -3.4206    0.1490 H   0  0  0  0  0  0  0  0  0  0  0  0
    2.6573   -3.6178   -1.4342 H   0  0  0  0  0  0  0  0  0  0  0  0
    0.5230   -2.5001   -1.9168 H   0  0  0  0  0  0  0  0  0  0  0  0
   -1.0683    0.0619    0.4134 H   0  0  0  0  0  0  0  0  0  0  0  0
   -3.0439   -0.3753   -2.5302 H   0  0  0  0  0  0  0  0  0  0  0  0
   -8.6858    2.9135   -0.9189 H   0  0  0  0  0  0  0  0  0  0  0  0
   -7.7423    2.8251    0.5039 H   0  0  0  0  0  0  0  0  0  0  0  0
    0.7551   -0.4032    1.8349 H   0  0  0  0  0  0  0  0  0  0  0  0
    2.4838   -0.9271    3.4244 H   0  0  0  0  0  0  0  0  0  0  0  0
    3.4642   -2.3368    3.1575 H   0  0  0  0  0  0  0  0  0  0  0  0
    2.7095    1.3117    3.4948 H   0  0  0  0  0  0  0  0  0  0  0  0
    2.4306    3.5605    2.4878 H   0  0  0  0  0  0  0  0  0  0  0  0
    5.2512    2.5645   -0.5920 H   0  0  0  0  0  0  0  0  0  0  0  0
  1  2  1  0
  2  3  1  0
  3  4  2  0
  4  5  1  0
  5  6  2  0
  6  7  1  0
  7  8  2  3
  8  9  1  0
  9 10  1  0
 10 11  2  0
 10 12  1  0
 12 13  2  0
 13 14  1  0
 14 15  1  0
 14 16  2  0
 16 17  1  0
 16 18  1  0
 18 19  1  0
 18 20  2  0
 20 21  1  0
  6 22  1  0
 22 23  2  0
 23 24  1  0
 24 25  1  0
 25 26  1  0
 26 27  2  0
 27 28  1  0
 28 29  2  0
 29 30  1  0
 29 31  1  0
 31 32  2  0
 32 33  1  0
 23  3  1  0
 32 26  1  0
 20 12  1  0
  1 34  1  0
  1 35  1  0
  1 36  1  0
  4 37  1  0
  5 38  1  0
  7 39  1  0
  9 40  1  0
 19 41  1  0
 19 42  1  0
 22 43  1  0
 24 44  1  0
 24 45  1  0
 27 46  1  0
 28 47  1  0
 31 48  1  0
M  END
$$$$
