
     RDKit          3D

 46 49  0  0  0  0  0  0  0  0999 V2000
   -4.2674   -3.4549   -1.8783 C   0  0  0  0  0  0  0  0  0  0  0  0
   -3.0242   -2.7831   -1.7179 O   0  0  0  0  0  0  0  0  0  0  0  0
   -3.0541   -1.5569   -1.1158 C   0  0  0  0  0  0  0  0  0  0  0  0
   -4.1862   -0.8958   -0.6562 C   0  0  0  0  0  0  0  0  0  0  0  0
   -4.0694    0.3606   -0.0510 C   0  0  0  0  0  0  0  0  0  0  0  0
   -2.8187    0.9761    0.0997 C   0  0  0  0  0  0  0  0  0  0  0  0
   -2.6400    2.1891    0.7177 O   0  0  0  0  0  0  0  0  0  0  0  0
   -3.7848    2.8484    1.2422 C   0  0  0  0  0  0  0  0  0  0  0  0
   -1.6578    0.3266   -0.3753 C   0  0  0  0  0  0  0  0  0  0  0  0
   -0.3105    0.9110   -0.2683 C   0  0  0  0  0  0  0  0  0  0  0  0
   -0.1588    2.2216   -0.5584 N   0  0  0  0  0  0  0  0  0  0  0  0
    1.0978    2.7195   -0.4686 C   0  0  0  0  0  0  0  0  0  0  0  0
    1.2666    4.1686   -0.7651 C   0  0  0  0  0  0  0  0  0  0  0  0
    0.1157    4.8421   -1.0733 N   0  0  0  0  0  0  0  0  0  0  0  0
    2.3572    4.7247   -0.7326 O   0  0  0  0  0  0  0  0  0  0  0  0
    2.1602    1.9392   -0.1252 C   0  0  0  0  0  0  0  0  0  0  0  0
    3.5125    2.2031    0.0157 N   0  0  0  0  0  0  0  0  0  0  0  0
    4.1648    1.0167    0.3751 C   0  0  0  0  0  0  0  0  0  0  0  0
    5.3674    0.9516    0.5698 O   0  0  0  0  0  0  0  0  0  0  0  0
    3.1569    0.0054    0.4567 N   0  0  0  0  0  0  0  0  0  0  0  0
    3.3439   -1.3663    0.7845 C   0  0  0  0  0  0  0  0  0  0  0  0
    2.2749   -2.2594    0.9808 C   0  0  0  0  0  0  0  0  0  0  0  0
    2.4897   -3.6070    1.3017 C   0  0  0  0  0  0  0  0  0  0  0  0
    3.7819   -4.0846    1.4348 C   0  0  0  0  0  0  0  0  0  0  0  0
    3.9877   -5.3714    1.7418 F   0  0  0  0  0  0  0  0  0  0  0  0
    4.8617   -3.2382    1.2546 C   0  0  0  0  0  0  0  0  0  0  0  0
    4.6415   -1.8921    0.9337 C   0  0  0  0  0  0  0  0  0  0  0  0
    1.9144    0.6135    0.1378 C   0  0  0  0  0  0  0  0  0  0  0  0
    0.6959    0.0695    0.0631 N   0  0  0  0  0  0  0  0  0  0  0  0
   -1.8073   -0.9454   -0.9713 C   0  0  0  0  0  0  0  0  0  0  0  0
   -4.0684   -4.4152   -2.3637 H   0  0  0  0  0  0  0  0  0  0  0  0
   -4.9416   -2.8863   -2.5275 H   0  0  0  0  0  0  0  0  0  0  0  0
   -4.7323   -3.6617   -0.9087 H   0  0  0  0  0  0  0  0  0  0  0  0
   -5.1774   -1.3280   -0.7468 H   0  0  0  0  0  0  0  0  0  0  0  0
   -4.9830    0.8311    0.2988 H   0  0  0  0  0  0  0  0  0  0  0  0
   -4.4923    3.1031    0.4465 H   0  0  0  0  0  0  0  0  0  0  0  0
   -3.4499    3.7843    1.7000 H   0  0  0  0  0  0  0  0  0  0  0  0
   -4.2629    2.2487    2.0237 H   0  0  0  0  0  0  0  0  0  0  0  0
    0.1504    5.8328   -1.2659 H   0  0  0  0  0  0  0  0  0  0  0  0
   -0.7743    4.3538   -1.0628 H   0  0  0  0  0  0  0  0  0  0  0  0
    3.9602    3.1016   -0.1232 H   0  0  0  0  0  0  0  0  0  0  0  0
    1.2395   -1.9469    0.9108 H   0  0  0  0  0  0  0  0  0  0  0  0
    1.6495   -4.2781    1.4509 H   0  0  0  0  0  0  0  0  0  0  0  0
    5.8719   -3.6208    1.3609 H   0  0  0  0  0  0  0  0  0  0  0  0
    5.5263   -1.2777    0.7946 H   0  0  0  0  0  0  0  0  0  0  0  0
   -0.9275   -1.4728   -1.3400 H   0  0  0  0  0  0  0  0  0  0  0  0
  1  2  1  0
  2  3  1  0
  3  4  2  0
  4  5  1  0
  5  6  2  0
  6  7  1  0
  7  8  1  0
  6  9  1  0
  9 10  1  0
 10 11  2  0
 11 12  1  0
 12 13  1  0
 13 14  1  0
 13 15  2  0
 12 16  2  0
 16 17  1  0
 17 18  1  0
 18 19  2  0
 18 20  1  0
 20 21  1  0
 21 22  2  0
 22 23  1  0
 23 24  2  0
 24 25  1  0
 24 26  1  0
 26 27  2  0
 20 28  1  0
 28 29  2  0
  9 30  2  0
 30  3  1  0
 29 10  1  0
 28 16  1  0
 27 21  1  0
  1 31  1  0
  1 32  1  0
  1 33  1  0
  4 34  1  0
  5 35  1  0
  8 36  1  0
  8 37  1  0
  8 38  1  0
 14 39  1  0
 14 40  1  0
 17 41  1  0
 22 42  1  0
 23 43  1  0
 26 44  1  0
 27 45  1  0
 30 46  1  0
M  END
$$$$
