
     RDKit          3D

 28 28  0  0  0  0  0  0  0  0999 V2000
   -2.7428   -2.6023    0.9271 C   0  0  0  0  0  0  0  0  0  0  0  0
   -2.0267   -1.3775    0.3281 C   0  0  0  0  0  0  0  0  0  0  0  0
   -1.3974   -1.7950   -1.0069 C   0  0  0  0  0  0  0  0  0  0  0  0
   -3.0599   -0.2652    0.1036 C   0  0  0  0  0  0  0  0  0  0  0  0
   -0.9577   -0.8724    1.3228 C   0  0  0  0  0  0  0  0  0  0  0  0
   -0.9133   -1.2961    2.4829 O   0  0  0  0  0  0  0  0  0  0  0  0
    0.0211    0.1947    0.8669 C   0  0  0  0  0  0  0  0  0  0  0  0
    1.6253   -0.5668    0.5004 S   0  0  0  0  0  0  0  0  0  0  0  0
    2.5644    0.8875    0.1151 C   0  0  0  0  0  0  0  0  0  0  0  0
    3.8951    0.7310    0.0200 N   0  0  0  0  0  0  0  0  0  0  0  0
    4.6102    1.8297   -0.2818 C   0  0  0  0  0  0  0  0  0  0  0  0
    4.0479    3.0644   -0.4949 C   0  0  0  0  0  0  0  0  0  0  0  0
    2.6799    3.1167   -0.3812 C   0  0  0  0  0  0  0  0  0  0  0  0
    1.9156    2.0492   -0.0815 N   0  0  0  0  0  0  0  0  0  0  0  0
   -2.0338   -3.4124    1.1339 H   0  0  0  0  0  0  0  0  0  0  0  0
   -3.2403   -2.3527    1.8715 H   0  0  0  0  0  0  0  0  0  0  0  0
   -3.5064   -2.9913    0.2440 H   0  0  0  0  0  0  0  0  0  0  0  0
   -0.6161   -2.5484   -0.8564 H   0  0  0  0  0  0  0  0  0  0  0  0
   -0.9428   -0.9470   -1.5295 H   0  0  0  0  0  0  0  0  0  0  0  0
   -2.1484   -2.2231   -1.6808 H   0  0  0  0  0  0  0  0  0  0  0  0
   -3.8847   -0.6120   -0.5291 H   0  0  0  0  0  0  0  0  0  0  0  0
   -3.4849    0.0756    1.0548 H   0  0  0  0  0  0  0  0  0  0  0  0
   -2.6171    0.6093   -0.3846 H   0  0  0  0  0  0  0  0  0  0  0  0
   -0.3706    0.7194   -0.0076 H   0  0  0  0  0  0  0  0  0  0  0  0
    0.1177    0.9234    1.6792 H   0  0  0  0  0  0  0  0  0  0  0  0
    5.6840    1.6795   -0.3488 H   0  0  0  0  0  0  0  0  0  0  0  0
    4.6418    3.9346   -0.7361 H   0  0  0  0  0  0  0  0  0  0  0  0
    2.1400    4.0472   -0.5323 H   0  0  0  0  0  0  0  0  0  0  0  0
  1  2  1  0
  2  3  1  0
  2  4  1  0
  2  5  1  0
  5  6  2  0
  5  7  1  0
  7  8  1  0
  8  9  1  0
  9 10  2  0
 10 11  1  0
 11 12  2  0
 12 13  1  0
 13 14  2  0
 14  9  1  0
  1 15  1  0
  1 16  1  0
  1 17  1  0
  3 18  1  0
  3 19  1  0
  3 20  1  0
  4 21  1  0
  4 22  1  0
  4 23  1  0
  7 24  1  0
  7 25  1  0
 11 26  1  0
 12 27  1  0
 13 28  1  0
M  END
$$$$
