
     RDKit          3D

 32 32  0  0  0  0  0  0  0  0999 V2000
   -4.6456    1.5479   -3.8143 C   0  0  0  0  0  0  0  0  0  0  0  0
   -3.8105    1.3850   -2.9661 C   0  0  0  0  0  0  0  0  0  0  0  0
   -2.7914    1.1811   -1.9208 C   0  0  0  0  0  0  0  0  0  0  0  0
   -1.4337    1.0898   -2.4899 N   0  0  0  0  0  0  0  0  0  0  0  0
   -1.0074    2.3992   -3.0028 C   0  0  0  0  0  0  0  0  0  0  0  0
   -0.4608    0.6216   -1.4831 C   0  0  0  0  0  0  0  0  0  0  0  0
   -0.5848   -0.8838   -1.2050 C   0  0  0  0  0  0  0  0  0  0  0  0
    0.5447   -1.3857   -0.3060 C   0  0  0  0  0  0  0  0  0  0  0  0
    0.4642   -0.7100    0.9477 O   0  0  0  0  0  0  0  0  0  0  0  0
    1.4281   -0.9705    1.8857 C   0  0  0  0  0  0  0  0  0  0  0  0
    2.4256   -1.9415    1.7490 C   0  0  0  0  0  0  0  0  0  0  0  0
    3.3612   -2.1324    2.7696 C   0  0  0  0  0  0  0  0  0  0  0  0
    4.5844   -3.3301    2.5885 Cl  0  0  0  0  0  0  0  0  0  0  0  0
    3.3168   -1.3668    3.9324 C   0  0  0  0  0  0  0  0  0  0  0  0
    2.3250   -0.3984    4.0797 C   0  0  0  0  0  0  0  0  0  0  0  0
    1.3858   -0.2021    3.0627 C   0  0  0  0  0  0  0  0  0  0  0  0
    0.1810    1.0166    3.2985 Cl  0  0  0  0  0  0  0  0  0  0  0  0
   -5.3812    1.6888   -4.5718 H   0  0  0  0  0  0  0  0  0  0  0  0
   -3.0557    0.2510   -1.4068 H   0  0  0  0  0  0  0  0  0  0  0  0
   -2.8517    1.9810   -1.1720 H   0  0  0  0  0  0  0  0  0  0  0  0
   -0.0101    2.3280   -3.4523 H   0  0  0  0  0  0  0  0  0  0  0  0
   -0.9740    3.1599   -2.2141 H   0  0  0  0  0  0  0  0  0  0  0  0
   -1.6695    2.7545   -3.7994 H   0  0  0  0  0  0  0  0  0  0  0  0
   -0.5530    1.2000   -0.5547 H   0  0  0  0  0  0  0  0  0  0  0  0
    0.5556    0.7936   -1.8619 H   0  0  0  0  0  0  0  0  0  0  0  0
   -1.5391   -1.0974   -0.7117 H   0  0  0  0  0  0  0  0  0  0  0  0
   -0.5630   -1.4419   -2.1486 H   0  0  0  0  0  0  0  0  0  0  0  0
    0.4191   -2.4644   -0.1558 H   0  0  0  0  0  0  0  0  0  0  0  0
    1.5112   -1.1893   -0.7857 H   0  0  0  0  0  0  0  0  0  0  0  0
    2.4953   -2.5649    0.8640 H   0  0  0  0  0  0  0  0  0  0  0  0
    4.0464   -1.5191    4.7235 H   0  0  0  0  0  0  0  0  0  0  0  0
    2.2872    0.2003    4.9864 H   0  0  0  0  0  0  0  0  0  0  0  0
  1  2  3  0
  2  3  1  0
  3  4  1  0
  4  5  1  0
  4  6  1  0
  6  7  1  0
  7  8  1  0
  8  9  1  0
  9 10  1  0
 10 11  2  0
 11 12  1  0
 12 13  1  0
 12 14  2  0
 14 15  1  0
 15 16  2  0
 16 17  1  0
 16 10  1  0
  1 18  1  0
  3 19  1  0
  3 20  1  0
  5 21  1  0
  5 22  1  0
  5 23  1  0
  6 24  1  0
  6 25  1  0
  7 26  1  0
  7 27  1  0
  8 28  1  0
  8 29  1  0
 11 30  1  0
 14 31  1  0
 15 32  1  0
M  END
$$$$
