
     RDKit          3D

 42 44  0  0  0  0  0  0  0  0999 V2000
   -4.3571    2.9613    2.5568 C   0  0  0  0  0  0  0  0  0  0  0  0
   -2.9857    2.5872    2.5908 O   0  0  0  0  0  0  0  0  0  0  0  0
   -2.6655    1.3570    2.0864 C   0  0  0  0  0  0  0  0  0  0  0  0
   -3.5621    0.4367    1.5372 C   0  0  0  0  0  0  0  0  0  0  0  0
   -3.1010   -0.7900    1.0474 C   0  0  0  0  0  0  0  0  0  0  0  0
   -1.7378   -1.0906    1.1062 C   0  0  0  0  0  0  0  0  0  0  0  0
   -1.1570   -2.6506    0.4891 S   0  0  0  0  0  6  0  0  0  0  0  0
    0.1605   -2.9047    1.0301 O   0  0  0  0  0  0  0  0  0  0  0  0
   -2.2295   -3.6088    0.6634 O   0  0  0  0  0  0  0  0  0  0  0  0
   -1.0496   -2.3775   -1.1802 N   0  0  0  0  0  0  0  0  0  0  0  0
    0.1347   -1.7575   -1.6756 C   0  0  0  0  0  0  0  0  0  0  0  0
    0.2232   -0.3627   -1.6236 C   0  0  0  0  0  0  0  0  0  0  0  0
    1.4038    0.2930   -1.9862 C   0  0  0  0  0  0  0  0  0  0  0  0
    1.4384    2.0755   -1.8914 S   0  0  0  0  0  0  0  0  0  0  0  0
    2.5639    2.3068   -0.5846 C   0  0  0  0  0  0  0  0  0  0  0  0
    2.1946    2.6469    0.6856 N   0  0  0  0  0  0  0  0  0  0  0  0
    3.3407    2.6886    1.3230 C   0  0  0  0  0  0  0  0  0  0  0  0
    4.3504    2.3836    0.4650 N   0  0  0  0  0  0  0  0  0  0  0  0
    3.8793    2.1340   -0.7702 N   0  0  0  0  0  0  0  0  0  0  0  0
    2.4887   -0.4752   -2.4217 C   0  0  0  0  0  0  0  0  0  0  0  0
    3.6931    0.0720   -2.7730 O   0  0  0  0  0  0  0  0  0  0  0  0
    2.3952   -1.8642   -2.5071 C   0  0  0  0  0  0  0  0  0  0  0  0
    1.2177   -2.5254   -2.1294 C   0  0  0  0  0  0  0  0  0  0  0  0
    1.1681   -4.0260   -2.1811 C   0  0  0  0  0  0  0  0  0  0  0  0
   -0.8365   -0.1883    1.6750 C   0  0  0  0  0  0  0  0  0  0  0  0
   -1.3050    1.0373    2.1520 C   0  0  0  0  0  0  0  0  0  0  0  0
   -4.4410    3.9640    2.9871 H   0  0  0  0  0  0  0  0  0  0  0  0
   -4.7290    3.0087    1.5283 H   0  0  0  0  0  0  0  0  0  0  0  0
   -4.9643    2.2856    3.1676 H   0  0  0  0  0  0  0  0  0  0  0  0
   -4.6257    0.6427    1.4753 H   0  0  0  0  0  0  0  0  0  0  0  0
   -3.8072   -1.5007    0.6236 H   0  0  0  0  0  0  0  0  0  0  0  0
   -1.4210   -3.1732   -1.6966 H   0  0  0  0  0  0  0  0  0  0  0  0
   -0.6350    0.2186   -1.2946 H   0  0  0  0  0  0  0  0  0  0  0  0
    3.4958    2.9249    2.3663 H   0  0  0  0  0  0  0  0  0  0  0  0
    5.3474    2.3245    0.6432 H   0  0  0  0  0  0  0  0  0  0  0  0
    3.7574    0.9541   -2.3476 H   0  0  0  0  0  0  0  0  0  0  0  0
    3.2608   -2.4278   -2.8489 H   0  0  0  0  0  0  0  0  0  0  0  0
    0.2848   -4.3621   -2.7336 H   0  0  0  0  0  0  0  0  0  0  0  0
    2.0435   -4.4381   -2.6943 H   0  0  0  0  0  0  0  0  0  0  0  0
    1.1454   -4.4427   -1.1696 H   0  0  0  0  0  0  0  0  0  0  0  0
    0.2250   -0.4176    1.7360 H   0  0  0  0  0  0  0  0  0  0  0  0
   -0.6023    1.7533    2.5737 H   0  0  0  0  0  0  0  0  0  0  0  0
  1  2  1  0
  2  3  1  0
  3  4  2  0
  4  5  1  0
  5  6  2  0
  6  7  1  0
  7  8  2  0
  7  9  2  0
  7 10  1  0
 10 11  1  0
 11 12  2  0
 12 13  1  0
 13 14  1  0
 14 15  1  0
 15 16  1  0
 16 17  2  0
 17 18  1  0
 18 19  1  0
 13 20  2  0
 20 21  1  0
 20 22  1  0
 22 23  2  0
 23 24  1  0
  6 25  1  0
 25 26  2  0
 26  3  1  0
 23 11  1  0
 19 15  2  0
  1 27  1  0
  1 28  1  0
  1 29  1  0
  4 30  1  0
  5 31  1  0
 10 32  1  0
 12 33  1  0
 17 34  1  0
 18 35  1  0
 21 36  1  0
 22 37  1  0
 24 38  1  0
 24 39  1  0
 24 40  1  0
 25 41  1  0
 26 42  1  0
M  END
$$$$
