
     RDKit          3D

 55 59  0  0  0  0  0  0  0  0999 V2000
    7.5626    0.7505    0.2520 C   0  0  0  0  0  0  0  0  0  0  0  0
    6.1466    0.8544    0.3339 O   0  0  0  0  0  0  0  0  0  0  0  0
    5.5377    0.2036    1.3718 C   0  0  0  0  0  0  0  0  0  0  0  0
    6.1798   -0.5289    2.3703 C   0  0  0  0  0  0  0  0  0  0  0  0
    5.4316   -1.1527    3.3711 C   0  0  0  0  0  0  0  0  0  0  0  0
    4.0413   -1.0364    3.3830 C   0  0  0  0  0  0  0  0  0  0  0  0
    3.3830   -0.2875    2.4011 C   0  0  0  0  0  0  0  0  0  0  0  0
    1.9262   -0.1807    2.4352 C   0  0  0  0  0  0  0  0  0  0  0  0
    1.0934   -1.1859    2.6456 N   0  0  0  0  0  0  0  0  0  0  0  0
   -0.1928   -0.7116    2.5690 N   0  0  0  0  0  0  0  0  0  0  0  0
   -0.1271    0.5736    2.3253 C   0  0  0  0  0  0  0  0  0  0  0  0
   -1.4712    1.6339    2.0908 S   0  0  0  0  0  0  0  0  0  0  0  0
   -2.1879    1.0114    0.5122 C   0  0  0  0  0  0  0  0  0  0  0  0
   -1.1725    1.0196   -0.6457 C   0  0  0  0  0  0  0  0  0  0  0  0
   -0.0277    1.4627   -0.5074 O   0  0  0  0  0  0  0  0  0  0  0  0
   -1.5763    0.5364   -1.9770 C   0  0  0  0  0  0  0  0  0  0  0  0
   -0.6660   -0.0127   -2.8668 C   0  0  0  0  0  0  0  0  0  0  0  0
   -1.3290   -0.3938   -3.9962 N   0  0  0  0  0  0  0  0  0  0  0  0
   -2.6601   -0.0704   -3.8934 C   0  0  0  0  0  0  0  0  0  0  0  0
   -3.6939   -0.2608   -4.8194 C   0  0  0  0  0  0  0  0  0  0  0  0
   -4.9703    0.1822   -4.4719 C   0  0  0  0  0  0  0  0  0  0  0  0
   -5.1986    0.7995   -3.2479 C   0  0  0  0  0  0  0  0  0  0  0  0
   -4.1531    0.9818   -2.3334 C   0  0  0  0  0  0  0  0  0  0  0  0
   -2.8513    0.5276   -2.6427 C   0  0  0  0  0  0  0  0  0  0  0  0
   -2.9695   -0.2788    0.7169 C   0  0  0  0  0  0  0  0  0  0  0  0
   -2.3927   -1.5443    0.5277 C   0  0  0  0  0  0  0  0  0  0  0  0
   -3.1412   -2.7073    0.7215 C   0  0  0  0  0  0  0  0  0  0  0  0
   -4.4745   -2.6254    1.1133 C   0  0  0  0  0  0  0  0  0  0  0  0
   -5.0594   -1.3801    1.3237 C   0  0  0  0  0  0  0  0  0  0  0  0
   -4.3121   -0.2162    1.1341 C   0  0  0  0  0  0  0  0  0  0  0  0
    1.1809    0.9728    2.2969 N   0  0  0  0  0  0  0  0  0  0  0  0
    1.6853    2.3173    2.1856 C   0  0  0  0  0  0  0  0  0  0  0  0
    4.1429    0.3137    1.3888 C   0  0  0  0  0  0  0  0  0  0  0  0
    7.8750   -0.2900    0.1144 H   0  0  0  0  0  0  0  0  0  0  0  0
    8.0425    1.1958    1.1298 H   0  0  0  0  0  0  0  0  0  0  0  0
    7.8884    1.3150   -0.6269 H   0  0  0  0  0  0  0  0  0  0  0  0
    7.2583   -0.6424    2.3951 H   0  0  0  0  0  0  0  0  0  0  0  0
    5.9315   -1.7346    4.1421 H   0  0  0  0  0  0  0  0  0  0  0  0
    3.4680   -1.5344    4.1633 H   0  0  0  0  0  0  0  0  0  0  0  0
   -2.9053    1.7960    0.2429 H   0  0  0  0  0  0  0  0  0  0  0  0
    0.4002   -0.1752   -2.7691 H   0  0  0  0  0  0  0  0  0  0  0  0
   -0.9061   -0.8359   -4.8011 H   0  0  0  0  0  0  0  0  0  0  0  0
   -3.5148   -0.7348   -5.7794 H   0  0  0  0  0  0  0  0  0  0  0  0
   -5.7936    0.0470   -5.1695 H   0  0  0  0  0  0  0  0  0  0  0  0
   -6.1985    1.1452   -2.9960 H   0  0  0  0  0  0  0  0  0  0  0  0
   -4.3728    1.4788   -1.3961 H   0  0  0  0  0  0  0  0  0  0  0  0
   -1.3452   -1.6481    0.2491 H   0  0  0  0  0  0  0  0  0  0  0  0
   -2.6738   -3.6784    0.5788 H   0  0  0  0  0  0  0  0  0  0  0  0
   -5.0516   -3.5330    1.2680 H   0  0  0  0  0  0  0  0  0  0  0  0
   -6.0958   -1.3154    1.6439 H   0  0  0  0  0  0  0  0  0  0  0  0
   -4.7880    0.7446    1.3189 H   0  0  0  0  0  0  0  0  0  0  0  0
    2.6250    2.4031    2.7367 H   0  0  0  0  0  0  0  0  0  0  0  0
    1.8420    2.5462    1.1296 H   0  0  0  0  0  0  0  0  0  0  0  0
    0.9762    3.0221    2.6249 H   0  0  0  0  0  0  0  0  0  0  0  0
    3.6544    0.8606    0.5854 H   0  0  0  0  0  0  0  0  0  0  0  0
  1  2  1  0
  2  3  1  0
  3  4  2  0
  4  5  1  0
  5  6  2  0
  6  7  1  0
  7  8  1  0
  8  9  2  0
  9 10  1  0
 10 11  2  0
 11 12  1  0
 12 13  1  0
 13 14  1  0
 14 15  2  0
 14 16  1  0
 16 17  2  0
 17 18  1  0
 18 19  1  0
 19 20  2  0
 20 21  1  0
 21 22  2  0
 22 23  1  0
 23 24  2  0
 13 25  1  0
 25 26  2  0
 26 27  1  0
 27 28  2  0
 28 29  1  0
 29 30  2  0
 11 31  1  0
 31 32  1  0
  7 33  2  0
 33  3  1  0
 31  8  1  0
 24 16  1  0
 30 25  1  0
 24 19  1  0
  1 34  1  0
  1 35  1  0
  1 36  1  0
  4 37  1  0
  5 38  1  0
  6 39  1  0
 13 40  1  0
 17 41  1  0
 18 42  1  0
 20 43  1  0
 21 44  1  0
 22 45  1  0
 23 46  1  0
 26 47  1  0
 27 48  1  0
 28 49  1  0
 29 50  1  0
 30 51  1  0
 32 52  1  0
 32 53  1  0
 32 54  1  0
 33 55  1  0
M  END
$$$$
