
     RDKit          3D

 42 41  0  0  0  0  0  0  0  0999 V2000
   -4.2803   -1.6621    3.4658 C   0  0  0  0  0  0  0  0  0  0  0  0
   -4.2897   -1.3160    1.9980 C   0  0  0  0  0  0  0  0  0  0  0  0
   -5.5762   -0.7084    1.5093 C   0  0  0  0  0  0  0  0  0  0  0  0
   -3.2035   -1.5409    1.2333 C   0  0  0  0  0  0  0  0  0  0  0  0
   -3.0489   -1.2864   -0.2424 C   0  0  0  0  0  0  0  0  0  0  0  0
   -2.3932    0.0596   -0.5897 C   0  0  0  0  0  0  0  0  0  0  0  0
   -0.9235    0.1642   -0.2172 C   0  0  0  0  0  0  0  0  0  0  0  0
   -0.6340    0.6383    1.1818 C   0  0  0  0  0  0  0  0  0  0  0  0
    0.0310   -0.1093   -1.1297 C   0  0  0  0  0  0  0  0  0  0  0  0
    1.5211   -0.0966   -0.9182 C   0  0  0  0  0  0  0  0  0  0  0  0
    2.1806    1.1142   -1.5853 C   0  0  0  0  0  0  0  0  0  0  0  0
    3.6756    1.1661   -1.3212 C   0  0  0  0  0  0  0  0  0  0  0  0
    4.0592    1.7790    0.0014 C   0  0  0  0  0  0  0  0  0  0  0  0
    4.5440    0.7045   -2.2445 C   0  0  0  0  0  0  0  0  0  0  0  0
    6.0392    0.6847   -2.1846 C   0  0  0  0  0  0  0  0  0  0  0  0
    6.4933   -0.6614   -2.1404 O   0  0  0  0  0  0  0  0  0  0  0  0
   -4.4026   -0.7564    4.0702 H   0  0  0  0  0  0  0  0  0  0  0  0
   -3.3474   -2.1466    3.7720 H   0  0  0  0  0  0  0  0  0  0  0  0
   -5.0996   -2.3521    3.6983 H   0  0  0  0  0  0  0  0  0  0  0  0
   -6.3824   -1.4493    1.5579 H   0  0  0  0  0  0  0  0  0  0  0  0
   -5.5177   -0.3396    0.4804 H   0  0  0  0  0  0  0  0  0  0  0  0
   -5.8519    0.1476    2.1378 H   0  0  0  0  0  0  0  0  0  0  0  0
   -2.3180   -1.9714    1.7064 H   0  0  0  0  0  0  0  0  0  0  0  0
   -2.4630   -2.1078   -0.6741 H   0  0  0  0  0  0  0  0  0  0  0  0
   -4.0236   -1.3396   -0.7405 H   0  0  0  0  0  0  0  0  0  0  0  0
   -2.4963    0.2057   -1.6749 H   0  0  0  0  0  0  0  0  0  0  0  0
   -2.9532    0.8887   -0.1368 H   0  0  0  0  0  0  0  0  0  0  0  0
   -1.3477    1.4117    1.4825 H   0  0  0  0  0  0  0  0  0  0  0  0
   -0.7031   -0.1887    1.8910 H   0  0  0  0  0  0  0  0  0  0  0  0
    0.3584    1.0855    1.2764 H   0  0  0  0  0  0  0  0  0  0  0  0
   -0.2761   -0.4089   -2.1293 H   0  0  0  0  0  0  0  0  0  0  0  0
    1.7674   -0.1371    0.1468 H   0  0  0  0  0  0  0  0  0  0  0  0
    1.9313   -1.0193   -1.3476 H   0  0  0  0  0  0  0  0  0  0  0  0
    1.7198    2.0446   -1.2292 H   0  0  0  0  0  0  0  0  0  0  0  0
    1.9893    1.0851   -2.6657 H   0  0  0  0  0  0  0  0  0  0  0  0
    3.7612    2.8338    0.0202 H   0  0  0  0  0  0  0  0  0  0  0  0
    5.1322    1.7397    0.2089 H   0  0  0  0  0  0  0  0  0  0  0  0
    3.5534    1.2631    0.8245 H   0  0  0  0  0  0  0  0  0  0  0  0
    4.1425    0.2958   -3.1723 H   0  0  0  0  0  0  0  0  0  0  0  0
    6.4575    1.2144   -1.3229 H   0  0  0  0  0  0  0  0  0  0  0  0
    6.4469    1.1547   -3.0874 H   0  0  0  0  0  0  0  0  0  0  0  0
    5.7281   -1.2236   -1.9090 H   0  0  0  0  0  0  0  0  0  0  0  0
  1  2  1  0
  2  3  1  0
  2  4  2  3
  4  5  1  0
  5  6  1  0
  6  7  1  0
  7  8  1  0
  7  9  2  3
  9 10  1  0
 10 11  1  0
 11 12  1  0
 12 13  1  0
 12 14  2  3
 14 15  1  0
 15 16  1  0
  1 17  1  0
  1 18  1  0
  1 19  1  0
  3 20  1  0
  3 21  1  0
  3 22  1  0
  4 23  1  0
  5 24  1  0
  5 25  1  0
  6 26  1  0
  6 27  1  0
  8 28  1  0
  8 29  1  0
  8 30  1  0
  9 31  1  0
 10 32  1  0
 10 33  1  0
 11 34  1  0
 11 35  1  0
 13 36  1  0
 13 37  1  0
 13 38  1  0
 14 39  1  0
 15 40  1  0
 15 41  1  0
 16 42  1  0
M  END
$$$$
