
     RDKit          3D

 52 51  0  0  0  0  0  0  0  0999 V2000
   -5.0758    4.7046    0.1657 C   0  0  0  0  0  0  0  0  0  0  0  0
   -4.8157    3.5959   -0.2171 C   0  0  0  0  0  0  0  0  0  0  0  0
   -4.4916    2.2504   -0.7027 C   0  0  0  0  0  0  0  0  0  0  0  0
   -4.6052    1.1838    0.4069 N   0  0  0  0  0  4  0  0  0  0  0  0
   -3.6442    1.4855    1.5477 C   0  0  0  0  0  0  0  0  0  0  0  0
   -6.0354    1.1879    0.9676 C   0  0  0  0  0  0  0  0  0  0  0  0
   -4.3620   -0.2217   -0.1878 C   0  0  0  0  0  0  0  0  0  0  0  0
   -2.9318   -0.4833   -0.6760 C   0  0  0  0  0  0  0  0  0  0  0  0
   -2.0824   -1.2552    0.3411 C   0  0  0  0  0  0  0  0  0  0  0  0
   -0.6787   -1.5321   -0.2057 C   0  0  0  0  0  0  0  0  0  0  0  0
    0.1678   -2.3043    0.8086 C   0  0  0  0  0  0  0  0  0  0  0  0
    1.5443   -2.7074    0.2718 C   0  0  0  0  0  0  0  0  0  0  0  0
    2.4590   -1.5138   -0.0167 C   0  0  0  0  0  0  0  0  0  0  0  0
    3.8577   -1.9795   -0.4306 C   0  0  0  0  0  0  0  0  0  0  0  0
    4.7830   -0.8344   -0.8558 C   0  0  0  0  0  0  0  0  0  0  0  0
    5.1489    0.1091    0.2931 C   0  0  0  0  0  0  0  0  0  0  0  0
    6.0807    1.2471   -0.1323 C   0  0  0  0  0  0  0  0  0  0  0  0
    7.4689    0.7783   -0.5402 C   0  0  0  0  0  0  0  0  0  0  0  0
   -5.3034    5.6956    0.4927 H   0  0  0  0  0  0  0  0  0  0  0  0
   -3.4672    2.2307   -1.0834 H   0  0  0  0  0  0  0  0  0  0  0  0
   -5.1726    1.9525   -1.5076 H   0  0  0  0  0  0  0  0  0  0  0  0
   -3.6830    0.6538    2.2571 H   0  0  0  0  0  0  0  0  0  0  0  0
   -2.6374    1.6078    1.1403 H   0  0  0  0  0  0  0  0  0  0  0  0
   -3.9573    2.4060    2.0486 H   0  0  0  0  0  0  0  0  0  0  0  0
   -6.7316    1.0255    0.1394 H   0  0  0  0  0  0  0  0  0  0  0  0
   -6.2318    2.1450    1.4580 H   0  0  0  0  0  0  0  0  0  0  0  0
   -6.1185    0.3798    1.7010 H   0  0  0  0  0  0  0  0  0  0  0  0
   -4.6546   -0.9525    0.5757 H   0  0  0  0  0  0  0  0  0  0  0  0
   -5.0607   -0.3161   -1.0280 H   0  0  0  0  0  0  0  0  0  0  0  0
   -3.0014   -1.1021   -1.5804 H   0  0  0  0  0  0  0  0  0  0  0  0
   -2.4138    0.4312   -0.9753 H   0  0  0  0  0  0  0  0  0  0  0  0
   -2.5745   -2.2062    0.5790 H   0  0  0  0  0  0  0  0  0  0  0  0
   -1.9982   -0.6950    1.2771 H   0  0  0  0  0  0  0  0  0  0  0  0
   -0.7537   -2.1074   -1.1362 H   0  0  0  0  0  0  0  0  0  0  0  0
   -0.1964   -0.5789   -0.4491 H   0  0  0  0  0  0  0  0  0  0  0  0
   -0.3660   -3.2179    1.0987 H   0  0  0  0  0  0  0  0  0  0  0  0
    0.2894   -1.7073    1.7207 H   0  0  0  0  0  0  0  0  0  0  0  0
    1.4221   -3.3092   -0.6370 H   0  0  0  0  0  0  0  0  0  0  0  0
    2.0248   -3.3543    1.0164 H   0  0  0  0  0  0  0  0  0  0  0  0
    2.0338   -0.9005   -0.8187 H   0  0  0  0  0  0  0  0  0  0  0  0
    2.5212   -0.8865    0.8791 H   0  0  0  0  0  0  0  0  0  0  0  0
    3.7661   -2.6742   -1.2750 H   0  0  0  0  0  0  0  0  0  0  0  0
    4.3206   -2.5404    0.3905 H   0  0  0  0  0  0  0  0  0  0  0  0
    5.6951   -1.2818   -1.2666 H   0  0  0  0  0  0  0  0  0  0  0  0
    4.3149   -0.2658   -1.6684 H   0  0  0  0  0  0  0  0  0  0  0  0
    5.6121   -0.4603    1.1079 H   0  0  0  0  0  0  0  0  0  0  0  0
    4.2381    0.5622    0.7002 H   0  0  0  0  0  0  0  0  0  0  0  0
    6.1840    1.9424    0.7095 H   0  0  0  0  0  0  0  0  0  0  0  0
    5.6289    1.8122   -0.9558 H   0  0  0  0  0  0  0  0  0  0  0  0
    7.9300    0.1790    0.2511 H   0  0  0  0  0  0  0  0  0  0  0  0
    7.4387    0.1803   -1.4555 H   0  0  0  0  0  0  0  0  0  0  0  0
    8.1150    1.6413   -0.7311 H   0  0  0  0  0  0  0  0  0  0  0  0
  1  2  3  0
  2  3  1  0
  3  4  1  0
  4  5  1  0
  4  6  1  0
  4  7  1  0
  7  8  1  0
  8  9  1  0
  9 10  1  0
 10 11  1  0
 11 12  1  0
 12 13  1  0
 13 14  1  0
 14 15  1  0
 15 16  1  0
 16 17  1  0
 17 18  1  0
  1 19  1  0
  3 20  1  0
  3 21  1  0
  5 22  1  0
  5 23  1  0
  5 24  1  0
  6 25  1  0
  6 26  1  0
  6 27  1  0
  7 28  1  0
  7 29  1  0
  8 30  1  0
  8 31  1  0
  9 32  1  0
  9 33  1  0
 10 34  1  0
 10 35  1  0
 11 36  1  0
 11 37  1  0
 12 38  1  0
 12 39  1  0
 13 40  1  0
 13 41  1  0
 14 42  1  0
 14 43  1  0
 15 44  1  0
 15 45  1  0
 16 46  1  0
 16 47  1  0
 17 48  1  0
 17 49  1  0
 18 50  1  0
 18 51  1  0
 18 52  1  0
M  CHG  1   4   1
M  END
$$$$
