
     RDKit          3D

 55 57  0  0  0  0  0  0  0  0999 V2000
   -1.2663   -1.0044    1.2194 C   0  0  0  0  0  0  0  0  0  0  0  0
   -1.9749   -0.3072    0.1969 O   0  0  0  0  0  0  0  0  0  0  0  0
   -3.3350   -0.4898    0.1467 C   0  0  0  0  0  0  0  0  0  0  0  0
   -4.1000   -1.1527    1.1122 C   0  0  0  0  0  0  0  0  0  0  0  0
   -5.4903   -1.2775    0.9511 C   0  0  0  0  0  0  0  0  0  0  0  0
   -6.3487   -1.9788    1.9543 C   0  0  0  0  0  0  0  0  0  0  0  0
   -5.7155   -2.5432    3.1994 C   0  0  0  0  0  0  0  0  0  0  0  0
   -7.5560   -2.0857    1.7509 O   0  0  0  0  0  0  0  0  0  0  0  0
   -6.1106   -0.7384   -0.1852 C   0  0  0  0  0  0  0  0  0  0  0  0
   -5.3572   -0.0738   -1.1487 C   0  0  0  0  0  0  0  0  0  0  0  0
   -3.9838    0.0607   -0.9680 C   0  0  0  0  0  0  0  0  0  0  0  0
   -3.2550    0.6849   -1.9444 O   0  0  0  0  0  0  0  0  0  0  0  0
   -3.2178    2.1009   -1.7203 C   0  0  0  0  0  0  0  0  0  0  0  0
   -1.8256    2.6357   -2.0569 C   0  0  0  0  0  0  0  0  0  0  0  0
   -1.6681    3.7778   -2.4782 O   0  0  0  0  0  0  0  0  0  0  0  0
   -0.8278    1.7191   -1.7725 N   0  0  0  0  0  0  0  0  0  0  0  0
    0.5552    1.8487   -1.9736 C   0  0  0  0  0  0  0  0  0  0  0  0
    1.1594    2.9604   -2.5560 C   0  0  0  0  0  0  0  0  0  0  0  0
    2.5466    2.9972   -2.7391 C   0  0  0  0  0  0  0  0  0  0  0  0
    3.3514    1.9287   -2.3334 C   0  0  0  0  0  0  0  0  0  0  0  0
    5.0459    2.0848   -2.6089 Cl  0  0  0  0  0  0  0  0  0  0  0  0
    2.7504    0.8218   -1.7382 C   0  0  0  0  0  0  0  0  0  0  0  0
    3.6931   -0.5675   -1.1873 S   0  0  0  0  0  6  0  0  0  0  0  0
    2.8142   -1.4338   -0.4258 O   0  0  0  0  0  0  0  0  0  0  0  0
    4.4292   -1.0807   -2.3200 O   0  0  0  0  0  0  0  0  0  0  0  0
    4.7824    0.1010   -0.0669 N   0  0  0  0  0  0  0  0  0  0  0  0
    5.9910   -0.7505    0.1709 C   0  0  0  0  0  0  0  0  0  0  0  0
    6.7111   -0.3050    1.4462 C   0  0  0  0  0  0  0  0  0  0  0  0
    5.9053   -0.4557    2.6258 O   0  0  0  0  0  0  0  0  0  0  0  0
    4.5009   -0.3051    2.3763 C   0  0  0  0  0  0  0  0  0  0  0  0
    4.1949    0.6315    1.2039 C   0  0  0  0  0  0  0  0  0  0  0  0
    1.3571    0.7780   -1.5695 C   0  0  0  0  0  0  0  0  0  0  0  0
   -1.5328   -0.6200    2.2101 H   0  0  0  0  0  0  0  0  0  0  0  0
   -1.4343   -2.0848    1.1521 H   0  0  0  0  0  0  0  0  0  0  0  0
   -0.1978   -0.8236    1.0706 H   0  0  0  0  0  0  0  0  0  0  0  0
   -3.6240   -1.5741    1.9889 H   0  0  0  0  0  0  0  0  0  0  0  0
   -6.4927   -2.9837    3.8297 H   0  0  0  0  0  0  0  0  0  0  0  0
   -5.2294   -1.7487    3.7723 H   0  0  0  0  0  0  0  0  0  0  0  0
   -5.0039   -3.3316    2.9374 H   0  0  0  0  0  0  0  0  0  0  0  0
   -7.1850   -0.8399   -0.3281 H   0  0  0  0  0  0  0  0  0  0  0  0
   -5.8393    0.3286   -2.0357 H   0  0  0  0  0  0  0  0  0  0  0  0
   -3.4382    2.3844   -0.6804 H   0  0  0  0  0  0  0  0  0  0  0  0
   -3.9445    2.5685   -2.3959 H   0  0  0  0  0  0  0  0  0  0  0  0
   -1.1659    0.8341   -1.3926 H   0  0  0  0  0  0  0  0  0  0  0  0
    0.5794    3.8143   -2.8956 H   0  0  0  0  0  0  0  0  0  0  0  0
    2.9910    3.8712   -3.2109 H   0  0  0  0  0  0  0  0  0  0  0  0
    5.6884   -1.8000    0.2732 H   0  0  0  0  0  0  0  0  0  0  0  0
    6.6658   -0.6511   -0.6852 H   0  0  0  0  0  0  0  0  0  0  0  0
    7.0088    0.7483    1.3771 H   0  0  0  0  0  0  0  0  0  0  0  0
    7.6218   -0.8940    1.5918 H   0  0  0  0  0  0  0  0  0  0  0  0
    4.0462    0.0781    3.2940 H   0  0  0  0  0  0  0  0  0  0  0  0
    4.0832   -1.3014    2.1963 H   0  0  0  0  0  0  0  0  0  0  0  0
    3.1142    0.7772    1.1146 H   0  0  0  0  0  0  0  0  0  0  0  0
    4.6389    1.6194    1.3786 H   0  0  0  0  0  0  0  0  0  0  0  0
    0.8946   -0.0999   -1.1237 H   0  0  0  0  0  0  0  0  0  0  0  0
  1  2  1  0
  2  3  1  0
  3  4  2  0
  4  5  1  0
  5  6  1  0
  6  7  1  0
  6  8  2  0
  5  9  2  0
  9 10  1  0
 10 11  2  0
 11 12  1  0
 12 13  1  0
 13 14  1  0
 14 15  2  0
 14 16  1  0
 16 17  1  0
 17 18  2  0
 18 19  1  0
 19 20  2  0
 20 21  1  0
 20 22  1  0
 22 23  1  0
 23 24  2  0
 23 25  2  0
 23 26  1  0
 26 27  1  0
 27 28  1  0
 28 29  1  0
 29 30  1  0
 30 31  1  0
 22 32  2  0
 11  3  1  0
 32 17  1  0
 31 26  1  0
  1 33  1  0
  1 34  1  0
  1 35  1  0
  4 36  1  0
  7 37  1  0
  7 38  1  0
  7 39  1  0
  9 40  1  0
 10 41  1  0
 13 42  1  0
 13 43  1  0
 16 44  1  0
 18 45  1  0
 19 46  1  0
 27 47  1  0
 27 48  1  0
 28 49  1  0
 28 50  1  0
 30 51  1  0
 30 52  1  0
 31 53  1  0
 31 54  1  0
 32 55  1  0
M  END
$$$$
