
     RDKit          3D

 48 50  0  0  0  0  0  0  0  0999 V2000
    4.6099   -2.9578    0.4906 C   0  0  0  0  0  0  0  0  0  0  0  0
    4.1869   -1.7513   -0.1324 O   0  0  0  0  0  0  0  0  0  0  0  0
    2.8449   -1.4783   -0.1396 C   0  0  0  0  0  0  0  0  0  0  0  0
    1.8557   -2.3500    0.3300 C   0  0  0  0  0  0  0  0  0  0  0  0
    0.5074   -1.9813    0.2931 C   0  0  0  0  0  0  0  0  0  0  0  0
    0.1387   -0.7352   -0.2126 C   0  0  0  0  0  0  0  0  0  0  0  0
   -1.2777   -0.3151   -0.2525 C   0  0  0  0  0  0  0  0  0  0  0  0
   -2.2253   -1.0854    0.1797 N   0  0  0  0  0  0  0  0  0  0  0  0
   -3.5189   -0.6488    0.0700 N   0  0  0  0  0  0  0  0  0  0  0  0
   -4.0468    0.1227   -0.9653 C   0  0  0  0  0  0  0  0  0  0  0  0
   -3.3959    0.6484   -1.8582 O   0  0  0  0  0  0  0  0  0  0  0  0
   -5.5511    0.2286   -0.8934 C   0  0  0  0  0  0  0  0  0  0  0  0
   -6.0980   -0.5715    0.0730 N   0  0  0  0  0  0  0  0  0  0  0  0
   -7.4435   -0.5631    0.1925 C   0  0  0  0  0  0  0  0  0  0  0  0
   -7.9930   -1.6302    1.4258 Cl  0  0  0  0  0  0  0  0  0  0  0  0
   -8.2940    0.2129   -0.5845 C   0  0  0  0  0  0  0  0  0  0  0  0
  -10.0138    0.1709   -0.3797 Cl  0  0  0  0  0  0  0  0  0  0  0  0
   -7.7214    1.0711   -1.5426 C   0  0  0  0  0  0  0  0  0  0  0  0
   -8.5509    1.7815   -2.4470 N   0  0  0  0  0  0  0  0  0  0  0  0
   -6.3175    1.0510   -1.7242 C   0  0  0  0  0  0  0  0  0  0  0  0
   -5.6432    2.0941   -2.9337 Cl  0  0  0  0  0  0  0  0  0  0  0  0
    1.1147    0.1400   -0.6908 C   0  0  0  0  0  0  0  0  0  0  0  0
    2.4734   -0.2267   -0.6665 C   0  0  0  0  0  0  0  0  0  0  0  0
    3.5030    0.7608   -1.1730 C   0  0  0  0  0  0  0  0  0  0  0  0
    3.6311    1.8577   -0.2555 O   0  0  0  0  0  0  0  0  0  0  0  0
    4.5554    1.6183    0.7259 C   0  0  0  0  0  0  0  0  0  0  0  0
    4.0985    1.6065    2.0446 C   0  0  0  0  0  0  0  0  0  0  0  0
    5.0018    1.3910    3.0860 C   0  0  0  0  0  0  0  0  0  0  0  0
    6.3528    1.2093    2.7990 C   0  0  0  0  0  0  0  0  0  0  0  0
    7.2152    1.0032    3.8029 F   0  0  0  0  0  0  0  0  0  0  0  0
    6.8228    1.2468    1.4928 C   0  0  0  0  0  0  0  0  0  0  0  0
    5.9181    1.4607    0.4603 C   0  0  0  0  0  0  0  0  0  0  0  0
    6.3778    1.5279   -0.7979 F   0  0  0  0  0  0  0  0  0  0  0  0
    5.7032   -2.9869    0.4524 H   0  0  0  0  0  0  0  0  0  0  0  0
    4.2347   -3.8321   -0.0515 H   0  0  0  0  0  0  0  0  0  0  0  0
    4.3131   -2.9849    1.5442 H   0  0  0  0  0  0  0  0  0  0  0  0
    2.0978   -3.3289    0.7315 H   0  0  0  0  0  0  0  0  0  0  0  0
   -0.2483   -2.6715    0.6620 H   0  0  0  0  0  0  0  0  0  0  0  0
   -1.4616    0.7007   -0.6407 H   0  0  0  0  0  0  0  0  0  0  0  0
   -4.1958   -1.1903    0.6093 H   0  0  0  0  0  0  0  0  0  0  0  0
   -8.0940    2.5689   -2.9054 H   0  0  0  0  0  0  0  0  0  0  0  0
   -9.4805    1.9985   -2.0917 H   0  0  0  0  0  0  0  0  0  0  0  0
    0.8309    1.1148   -1.0830 H   0  0  0  0  0  0  0  0  0  0  0  0
    3.1424    1.1804   -2.1206 H   0  0  0  0  0  0  0  0  0  0  0  0
    4.4590    0.2854   -1.4189 H   0  0  0  0  0  0  0  0  0  0  0  0
    3.0425    1.7517    2.2559 H   0  0  0  0  0  0  0  0  0  0  0  0
    4.6623    1.3659    4.1169 H   0  0  0  0  0  0  0  0  0  0  0  0
    7.8776    1.1195    1.2823 H   0  0  0  0  0  0  0  0  0  0  0  0
  1  2  1  0
  2  3  1  0
  3  4  2  0
  4  5  1  0
  5  6  2  0
  6  7  1  0
  7  8  2  3
  8  9  1  0
  9 10  1  0
 10 11  2  0
 10 12  1  0
 12 13  2  0
 13 14  1  0
 14 15  1  0
 14 16  2  0
 16 17  1  0
 16 18  1  0
 18 19  1  0
 18 20  2  0
 20 21  1  0
  6 22  1  0
 22 23  2  0
 23 24  1  0
 24 25  1  0
 25 26  1  0
 26 27  2  0
 27 28  1  0
 28 29  2  0
 29 30  1  0
 29 31  1  0
 31 32  2  0
 32 33  1  0
 23  3  1  0
 32 26  1  0
 20 12  1  0
  1 34  1  0
  1 35  1  0
  1 36  1  0
  4 37  1  0
  5 38  1  0
  7 39  1  0
  9 40  1  0
 19 41  1  0
 19 42  1  0
 22 43  1  0
 24 44  1  0
 24 45  1  0
 27 46  1  0
 28 47  1  0
 31 48  1  0
M  END
$$$$
