
     RDKit          3D

 35 37  0  0  0  0  0  0  0  0999 V2000
   -1.7006    4.0027    4.7999 C   0  0  0  0  0  0  0  0  0  0  0  0
   -2.5511    3.3765    3.8476 O   0  0  0  0  0  0  0  0  0  0  0  0
   -1.9489    2.5864    2.9082 C   0  0  0  0  0  0  0  0  0  0  0  0
   -0.5893    2.2851    2.8372 C   0  0  0  0  0  0  0  0  0  0  0  0
   -0.1027    1.4567    1.8181 C   0  0  0  0  0  0  0  0  0  0  0  0
   -0.9688    0.9313    0.8528 C   0  0  0  0  0  0  0  0  0  0  0  0
   -0.4917    0.0411   -0.2134 C   0  0  0  0  0  0  0  0  0  0  0  0
    0.4467    0.3227   -1.1425 C   0  0  0  0  0  0  0  0  0  0  0  0
    1.0875    1.6050   -1.1941 C   0  0  0  0  0  0  0  0  0  0  0  0
    1.6146    2.6395   -1.2362 N   0  0  0  0  0  0  0  0  0  0  0  0
    0.8297   -0.6357   -2.1438 C   0  0  0  0  0  0  0  0  0  0  0  0
    0.9344   -0.3584   -3.4922 C   0  0  0  0  0  0  0  0  0  0  0  0
    1.3093   -1.5088   -4.1340 N   0  0  0  0  0  0  0  0  0  0  0  0
    1.4592   -2.5334   -3.2279 C   0  0  0  0  0  0  0  0  0  0  0  0
    1.8316   -3.8672   -3.4356 C   0  0  0  0  0  0  0  0  0  0  0  0
    1.9190   -4.6992   -2.3165 C   0  0  0  0  0  0  0  0  0  0  0  0
    1.6485   -4.2136   -1.0404 C   0  0  0  0  0  0  0  0  0  0  0  0
    1.2772   -2.8774   -0.8495 C   0  0  0  0  0  0  0  0  0  0  0  0
    1.1707   -2.0151   -1.9629 C   0  0  0  0  0  0  0  0  0  0  0  0
   -2.3331    1.2224    0.9360 C   0  0  0  0  0  0  0  0  0  0  0  0
   -2.8160    2.0471    1.9558 C   0  0  0  0  0  0  0  0  0  0  0  0
   -0.9777    4.6641    4.3109 H   0  0  0  0  0  0  0  0  0  0  0  0
   -2.3265    4.6187    5.4528 H   0  0  0  0  0  0  0  0  0  0  0  0
   -1.1968    3.2594    5.4265 H   0  0  0  0  0  0  0  0  0  0  0  0
    0.1219    2.6747    3.5580 H   0  0  0  0  0  0  0  0  0  0  0  0
    0.9611    1.2299    1.7937 H   0  0  0  0  0  0  0  0  0  0  0  0
   -0.9975   -0.9230   -0.2386 H   0  0  0  0  0  0  0  0  0  0  0  0
    0.7715    0.5522   -4.0553 H   0  0  0  0  0  0  0  0  0  0  0  0
    1.4620   -1.5979   -5.1293 H   0  0  0  0  0  0  0  0  0  0  0  0
    2.0503   -4.2481   -4.4281 H   0  0  0  0  0  0  0  0  0  0  0  0
    2.2076   -5.7400   -2.4451 H   0  0  0  0  0  0  0  0  0  0  0  0
    1.7292   -4.8761   -0.1820 H   0  0  0  0  0  0  0  0  0  0  0  0
    1.0801   -2.5148    0.1551 H   0  0  0  0  0  0  0  0  0  0  0  0
   -3.0332    0.8196    0.2077 H   0  0  0  0  0  0  0  0  0  0  0  0
   -3.8783    2.2738    2.0069 H   0  0  0  0  0  0  0  0  0  0  0  0
  1  2  1  0
  2  3  1  0
  3  4  2  0
  4  5  1  0
  5  6  2  0
  6  7  1  0
  7  8  2  3
  8  9  1  0
  9 10  3  0
  8 11  1  0
 11 12  2  0
 12 13  1  0
 13 14  1  0
 14 15  2  0
 15 16  1  0
 16 17  2  0
 17 18  1  0
 18 19  2  0
  6 20  1  0
 20 21  2  0
 21  3  1  0
 19 11  1  0
 19 14  1  0
  1 22  1  0
  1 23  1  0
  1 24  1  0
  4 25  1  0
  5 26  1  0
  7 27  1  0
 12 28  1  0
 13 29  1  0
 15 30  1  0
 16 31  1  0
 17 32  1  0
 18 33  1  0
 20 34  1  0
 21 35  1  0
M  END
$$$$
