
     RDKit          3D

125128  0  0  0  0  0  0  0  0999 V2000
    2.1486    5.1094   -2.8030 C   0  0  0  0  0  0  0  0  0  0  0  0
    2.0223    3.8041   -3.5862 C   0  0  0  0  0  0  0  0  0  0  0  0
    1.0424    2.7746   -3.0553 C   0  0  0  0  0  0  0  0  0  0  0  0
    0.0831    3.0095   -2.1363 C   0  0  0  0  0  0  0  0  0  0  0  0
   -1.0502    2.1614   -1.5859 C   0  0  0  0  0  0  0  0  0  0  0  0
   -1.6393    1.1167   -2.5334 C   0  0  0  0  0  0  0  0  0  0  0  0
   -0.6122    1.5993   -0.2219 C   0  0  0  0  0  0  0  0  0  0  0  0
   -1.6557    0.7681    0.5567 C   0  0  0  0  0  0  0  0  0  0  0  0
   -1.0378    0.3148    1.8845 C   0  0  0  0  0  0  0  0  0  0  0  0
   -2.9759    1.5364    0.7719 C   0  0  0  0  0  0  0  0  0  0  0  0
   -4.0120    0.9445    1.7547 C   0  0  0  0  0  0  0  0  0  0  0  0
   -5.0557    1.9320    1.8692 O   0  0  0  0  0  0  0  0  0  0  0  0
   -4.8974    2.7905    2.9893 C   0  0  0  0  0  0  0  0  0  0  0  0
   -4.6484   -0.4018    1.2988 C   0  0  0  0  0  0  0  0  0  0  0  0
   -3.6249   -1.2862    0.8282 O   0  0  0  0  0  0  0  0  0  0  0  0
   -4.0874   -2.5160    0.2688 C   0  0  0  0  0  0  0  0  0  0  0  0
   -4.9697   -2.2589   -0.8048 O   0  0  0  0  0  0  0  0  0  0  0  0
   -2.7838   -3.2850   -0.1159 C   0  0  0  0  0  0  0  0  0  0  0  0
   -2.3569   -4.2634    0.4868 O   0  0  0  0  0  0  0  0  0  0  0  0
   -2.0509   -2.7510   -1.3525 C   0  0  0  0  0  0  0  0  0  0  0  0
   -2.7329   -2.1124   -2.1557 O   0  0  0  0  0  0  0  0  0  0  0  0
   -0.6901   -3.0331   -1.5729 N   0  0  0  0  0  0  0  0  0  0  0  0
   -0.2312   -2.9916   -2.9667 C   0  0  0  0  0  0  0  0  0  0  0  0
    0.5603   -4.2441   -3.3600 C   0  0  0  0  0  0  0  0  0  0  0  0
    0.0778   -5.4659   -2.5917 C   0  0  0  0  0  0  0  0  0  0  0  0
    0.1778   -5.2722   -1.0709 C   0  0  0  0  0  0  0  0  0  0  0  0
    0.1798   -3.7841   -0.6509 C   0  0  0  0  0  0  0  0  0  0  0  0
    1.6331   -3.2665   -0.4620 C   0  0  0  0  0  0  0  0  0  0  0  0
    2.5419   -3.9927   -0.0675 O   0  0  0  0  0  0  0  0  0  0  0  0
    1.7613   -1.9106   -0.6292 O   0  0  0  0  0  0  0  0  0  0  0  0
    3.0480   -1.3527   -0.2484 C   0  0  0  0  0  0  0  0  0  0  0  0
    2.9071   -0.5978    1.0899 C   0  0  0  0  0  0  0  0  0  0  0  0
    2.4247   -1.4814    2.2211 C   0  0  0  0  0  0  0  0  0  0  0  0
    3.2766    0.6901    1.2686 C   0  0  0  0  0  0  0  0  0  0  0  0
    3.2631    1.5498    2.5169 C   0  0  0  0  0  0  0  0  0  0  0  0
    2.2274    2.6770    2.4001 C   0  0  0  0  0  0  0  0  0  0  0  0
    2.6412    3.7809    1.4354 C   0  0  0  0  0  0  0  0  0  0  0  0
    3.9996    4.3632    1.8155 C   0  0  0  0  0  0  0  0  0  0  0  0
    4.3685    5.3441    0.8443 O   0  0  0  0  0  0  0  0  0  0  0  0
    5.1008    3.2848    1.9019 C   0  0  0  0  0  0  0  0  0  0  0  0
    5.3927    2.8515    0.5586 O   0  0  0  0  0  0  0  0  0  0  0  0
    6.6127    2.1251    0.4537 C   0  0  0  0  0  0  0  0  0  0  0  0
    4.6604    2.1349    2.8291 C   0  0  0  0  0  0  0  0  0  0  0  0
    3.7310   -0.6317   -1.4513 C   0  0  0  0  0  0  0  0  0  0  0  0
    4.1016   -1.6810   -2.5183 C   0  0  0  0  0  0  0  0  0  0  0  0
    3.0125    0.5930   -2.0901 C   0  0  0  0  0  0  0  0  0  0  0  0
    4.0056    1.2733   -2.8737 O   0  0  0  0  0  0  0  0  0  0  0  0
    1.8383    0.2686   -3.0037 C   0  0  0  0  0  0  0  0  0  0  0  0
    1.1742    1.4424   -3.7213 C   0  0  0  0  0  0  0  0  0  0  0  0
    0.7103    1.3043   -4.8561 O   0  0  0  0  0  0  0  0  0  0  0  0
   -4.8605   -3.3062    1.3594 C   0  0  0  0  0  0  0  0  0  0  0  0
   -5.4905   -4.5996    0.8306 C   0  0  0  0  0  0  0  0  0  0  0  0
   -5.9552   -2.4383    1.9932 C   0  0  0  0  0  0  0  0  0  0  0  0
   -5.4033   -1.0877    2.4662 C   0  0  0  0  0  0  0  0  0  0  0  0
   -6.4810   -0.2780    2.9366 O   0  0  0  0  0  0  0  0  0  0  0  0
   -6.8351   -0.5349    4.2895 C   0  0  0  0  0  0  0  0  0  0  0  0
    1.2120    5.6770   -2.8122 H   0  0  0  0  0  0  0  0  0  0  0  0
    2.4400    4.9255   -1.7640 H   0  0  0  0  0  0  0  0  0  0  0  0
    2.9179    5.7405   -3.2618 H   0  0  0  0  0  0  0  0  0  0  0  0
    3.0250    3.3657   -3.6428 H   0  0  0  0  0  0  0  0  0  0  0  0
    1.7347    4.0437   -4.6186 H   0  0  0  0  0  0  0  0  0  0  0  0
    0.0514    4.0129   -1.7087 H   0  0  0  0  0  0  0  0  0  0  0  0
   -1.8671    2.8765   -1.4044 H   0  0  0  0  0  0  0  0  0  0  0  0
   -2.6181    0.7777   -2.1781 H   0  0  0  0  0  0  0  0  0  0  0  0
   -1.7987    1.5349   -3.5346 H   0  0  0  0  0  0  0  0  0  0  0  0
   -1.0146    0.2262   -2.6230 H   0  0  0  0  0  0  0  0  0  0  0  0
    0.2806    0.9768   -0.3687 H   0  0  0  0  0  0  0  0  0  0  0  0
   -0.2995    2.4395    0.4122 H   0  0  0  0  0  0  0  0  0  0  0  0
   -1.8505   -0.1250   -0.0488 H   0  0  0  0  0  0  0  0  0  0  0  0
   -0.9641    1.1477    2.5910 H   0  0  0  0  0  0  0  0  0  0  0  0
   -1.6266   -0.4824    2.3486 H   0  0  0  0  0  0  0  0  0  0  0  0
   -0.0297   -0.0742    1.7288 H   0  0  0  0  0  0  0  0  0  0  0  0
   -3.4771    1.6834   -0.1944 H   0  0  0  0  0  0  0  0  0  0  0  0
   -2.7231    2.5513    1.1102 H   0  0  0  0  0  0  0  0  0  0  0  0
   -3.5357    0.7941    2.7311 H   0  0  0  0  0  0  0  0  0  0  0  0
   -5.0401    2.2278    3.9153 H   0  0  0  0  0  0  0  0  0  0  0  0
   -5.6600    3.5696    2.9361 H   0  0  0  0  0  0  0  0  0  0  0  0
   -3.9121    3.2681    2.9889 H   0  0  0  0  0  0  0  0  0  0  0  0
   -5.3537   -0.1796    0.4885 H   0  0  0  0  0  0  0  0  0  0  0  0
   -4.4206   -1.9068   -1.5399 H   0  0  0  0  0  0  0  0  0  0  0  0
    0.3993   -2.1122   -3.0913 H   0  0  0  0  0  0  0  0  0  0  0  0
   -1.0796   -2.8740   -3.6486 H   0  0  0  0  0  0  0  0  0  0  0  0
    0.4782   -4.4087   -4.4409 H   0  0  0  0  0  0  0  0  0  0  0  0
    1.6266   -4.0945   -3.1610 H   0  0  0  0  0  0  0  0  0  0  0  0
    0.6419   -6.3551   -2.8952 H   0  0  0  0  0  0  0  0  0  0  0  0
   -0.9682   -5.6587   -2.8627 H   0  0  0  0  0  0  0  0  0  0  0  0
   -0.6743   -5.7871   -0.6127 H   0  0  0  0  0  0  0  0  0  0  0  0
    1.0658   -5.7952   -0.7009 H   0  0  0  0  0  0  0  0  0  0  0  0
   -0.2146   -3.6974    0.3655 H   0  0  0  0  0  0  0  0  0  0  0  0
    3.7520   -2.1607   -0.0042 H   0  0  0  0  0  0  0  0  0  0  0  0
    1.4056   -1.8319    2.0301 H   0  0  0  0  0  0  0  0  0  0  0  0
    2.4218   -0.9919    3.1931 H   0  0  0  0  0  0  0  0  0  0  0  0
    3.0763   -2.3573    2.3095 H   0  0  0  0  0  0  0  0  0  0  0  0
    3.6714    1.2249    0.4165 H   0  0  0  0  0  0  0  0  0  0  0  0
    2.9810    0.9439    3.3828 H   0  0  0  0  0  0  0  0  0  0  0  0
    2.0836    3.1246    3.3934 H   0  0  0  0  0  0  0  0  0  0  0  0
    1.2576    2.2694    2.1038 H   0  0  0  0  0  0  0  0  0  0  0  0
    2.6593    3.4119    0.4026 H   0  0  0  0  0  0  0  0  0  0  0  0
    1.8914    4.5799    1.4392 H   0  0  0  0  0  0  0  0  0  0  0  0
    3.9150    4.8755    2.7792 H   0  0  0  0  0  0  0  0  0  0  0  0
    4.7490    4.8414    0.0973 H   0  0  0  0  0  0  0  0  0  0  0  0
    6.0078    3.7585    2.3013 H   0  0  0  0  0  0  0  0  0  0  0  0
    6.5160    1.1410    0.9164 H   0  0  0  0  0  0  0  0  0  0  0  0
    6.8261    1.9753   -0.6106 H   0  0  0  0  0  0  0  0  0  0  0  0
    7.4426    2.6811    0.9007 H   0  0  0  0  0  0  0  0  0  0  0  0
    4.6370    2.5260    3.8543 H   0  0  0  0  0  0  0  0  0  0  0  0
    5.4005    1.3274    2.8248 H   0  0  0  0  0  0  0  0  0  0  0  0
    4.7002   -0.2651   -1.0804 H   0  0  0  0  0  0  0  0  0  0  0  0
    4.7503   -2.4556   -2.0941 H   0  0  0  0  0  0  0  0  0  0  0  0
    4.6423   -1.2304   -3.3567 H   0  0  0  0  0  0  0  0  0  0  0  0
    3.2165   -2.1843   -2.9146 H   0  0  0  0  0  0  0  0  0  0  0  0
    2.6741    1.3015   -1.3342 H   0  0  0  0  0  0  0  0  0  0  0  0
    4.5683    1.7765   -2.2587 H   0  0  0  0  0  0  0  0  0  0  0  0
    1.0670   -0.2340   -2.4219 H   0  0  0  0  0  0  0  0  0  0  0  0
    2.1653   -0.4037   -3.8050 H   0  0  0  0  0  0  0  0  0  0  0  0
   -4.1602   -3.5700    2.1638 H   0  0  0  0  0  0  0  0  0  0  0  0
   -4.7478   -5.2538    0.3616 H   0  0  0  0  0  0  0  0  0  0  0  0
   -6.2676   -4.3979    0.0878 H   0  0  0  0  0  0  0  0  0  0  0  0
   -5.9536   -5.1583    1.6519 H   0  0  0  0  0  0  0  0  0  0  0  0
   -6.7750   -2.2669    1.2826 H   0  0  0  0  0  0  0  0  0  0  0  0
   -6.4083   -2.9743    2.8373 H   0  0  0  0  0  0  0  0  0  0  0  0
   -4.6849   -1.2701    3.2800 H   0  0  0  0  0  0  0  0  0  0  0  0
   -7.6215    0.1672    4.5780 H   0  0  0  0  0  0  0  0  0  0  0  0
   -7.2178   -1.5521    4.4095 H   0  0  0  0  0  0  0  0  0  0  0  0
   -5.9735   -0.3756    4.9458 H   0  0  0  0  0  0  0  0  0  0  0  0
  1  2  1  0
  2  3  1  0
  3  4  2  3
  4  5  1  0
  5  6  1  0
  5  7  1  0
  7  8  1  0
  8  9  1  0
  8 10  1  0
 10 11  1  0
 11 12  1  0
 12 13  1  0
 11 14  1  0
 14 15  1  0
 15 16  1  0
 16 17  1  0
 16 18  1  0
 18 19  2  0
 18 20  1  0
 20 21  2  0
 20 22  1  0
 22 23  1  0
 23 24  1  0
 24 25  1  0
 25 26  1  0
 26 27  1  0
 27 28  1  0
 28 29  2  0
 28 30  1  0
 30 31  1  0
 31 32  1  0
 32 33  1  0
 32 34  2  3
 34 35  1  0
 35 36  1  0
 36 37  1  0
 37 38  1  0
 38 39  1  0
 38 40  1  0
 40 41  1  0
 41 42  1  0
 40 43  1  0
 31 44  1  0
 44 45  1  0
 44 46  1  0
 46 47  1  0
 46 48  1  0
 48 49  1  0
 49 50  2  0
 16 51  1  0
 51 52  1  0
 51 53  1  0
 53 54  1  0
 54 55  1  0
 55 56  1  0
 49  3  1  0
 54 14  1  0
 27 22  1  0
 43 35  1  0
  1 57  1  0
  1 58  1  0
  1 59  1  0
  2 60  1  0
  2 61  1  0
  4 62  1  0
  5 63  1  0
  6 64  1  0
  6 65  1  0
  6 66  1  0
  7 67  1  0
  7 68  1  0
  8 69  1  0
  9 70  1  0
  9 71  1  0
  9 72  1  0
 10 73  1  0
 10 74  1  0
 11 75  1  0
 13 76  1  0
 13 77  1  0
 13 78  1  0
 14 79  1  0
 17 80  1  0
 23 81  1  0
 23 82  1  0
 24 83  1  0
 24 84  1  0
 25 85  1  0
 25 86  1  0
 26 87  1  0
 26 88  1  0
 27 89  1  0
 31 90  1  0
 33 91  1  0
 33 92  1  0
 33 93  1  0
 34 94  1  0
 35 95  1  0
 36 96  1  0
 36 97  1  0
 37 98  1  0
 37 99  1  0
 38100  1  0
 39101  1  0
 40102  1  0
 42103  1  0
 42104  1  0
 42105  1  0
 43106  1  0
 43107  1  0
 44108  1  0
 45109  1  0
 45110  1  0
 45111  1  0
 46112  1  0
 47113  1  0
 48114  1  0
 48115  1  0
 51116  1  0
 52117  1  0
 52118  1  0
 52119  1  0
 53120  1  0
 53121  1  0
 54122  1  0
 56123  1  0
 56124  1  0
 56125  1  0
M  END
$$$$
