
     RDKit          3D

 39 40  0  0  0  0  0  0  0  0999 V2000
   -1.5054   -1.9477    2.4342 C   0  0  0  0  0  0  0  0  0  0  0  0
   -1.4671   -0.7463    1.4988 C   0  0  0  0  0  0  0  0  0  0  0  0
   -1.7457   -1.2148    0.1705 O   0  0  0  0  0  0  0  0  0  0  0  0
   -2.8243   -0.6302   -0.4395 C   0  0  0  0  0  0  0  0  0  0  0  0
   -4.0815   -0.5907    0.1722 C   0  0  0  0  0  0  0  0  0  0  0  0
   -5.1704   -0.0282   -0.4998 C   0  0  0  0  0  0  0  0  0  0  0  0
   -4.9997    0.4786   -1.7958 C   0  0  0  0  0  0  0  0  0  0  0  0
   -6.1445    1.0666   -2.5028 N   0  0  0  0  0  4  0  0  0  0  0  0
   -7.2372    1.0744   -1.9197 O   0  0  0  0  0  0  0  0  0  0  0  0
   -5.9480    1.5184   -3.6388 O   0  0  0  0  0  1  0  0  0  0  0  0
   -3.7517    0.4193   -2.4275 C   0  0  0  0  0  0  0  0  0  0  0  0
   -2.6715   -0.1454   -1.7474 C   0  0  0  0  0  0  0  0  0  0  0  0
   -1.1443   -0.2230   -2.5509 Cl  0  0  0  0  0  0  0  0  0  0  0  0
   -0.0660   -0.1079    1.5680 C   0  0  0  0  0  0  0  0  0  0  0  0
    0.2629    0.5682    2.5397 O   0  0  0  0  0  0  0  0  0  0  0  0
    0.7277   -0.4212    0.4794 N   0  0  0  0  0  0  0  0  0  0  0  0
    2.0575   -0.0362    0.2321 C   0  0  0  0  0  0  0  0  0  0  0  0
    2.6276   -0.4515   -0.9772 C   0  0  0  0  0  0  0  0  0  0  0  0
    3.9463   -0.1129   -1.2977 C   0  0  0  0  0  0  0  0  0  0  0  0
    4.7174    0.6404   -0.4073 C   0  0  0  0  0  0  0  0  0  0  0  0
    6.1150    0.9753   -0.7912 C   0  0  0  0  0  0  0  0  0  0  0  0
    6.9832    1.3150    0.2093 N   0  0  0  0  0  0  0  0  0  0  0  0
    6.4939    0.9171   -1.9543 O   0  0  0  0  0  0  0  0  0  0  0  0
    4.1474    1.0692    0.7954 C   0  0  0  0  0  0  0  0  0  0  0  0
    2.8255    0.7276    1.1127 C   0  0  0  0  0  0  0  0  0  0  0  0
   -0.7766   -2.7067    2.1270 H   0  0  0  0  0  0  0  0  0  0  0  0
   -1.2799   -1.6581    3.4654 H   0  0  0  0  0  0  0  0  0  0  0  0
   -2.4903   -2.4253    2.4119 H   0  0  0  0  0  0  0  0  0  0  0  0
   -2.1746    0.0242    1.8306 H   0  0  0  0  0  0  0  0  0  0  0  0
   -4.2345   -1.0094    1.1638 H   0  0  0  0  0  0  0  0  0  0  0  0
   -6.1410   -0.0018   -0.0062 H   0  0  0  0  0  0  0  0  0  0  0  0
   -3.6133    0.8012   -3.4369 H   0  0  0  0  0  0  0  0  0  0  0  0
    0.2628   -0.9553   -0.2507 H   0  0  0  0  0  0  0  0  0  0  0  0
    2.0562   -1.0399   -1.6911 H   0  0  0  0  0  0  0  0  0  0  0  0
    4.3703   -0.4406   -2.2453 H   0  0  0  0  0  0  0  0  0  0  0  0
    7.9524    1.4157   -0.0655 H   0  0  0  0  0  0  0  0  0  0  0  0
    6.7968    1.1059    1.1791 H   0  0  0  0  0  0  0  0  0  0  0  0
    4.7009    1.6918    1.4917 H   0  0  0  0  0  0  0  0  0  0  0  0
    2.4237    1.0843    2.0561 H   0  0  0  0  0  0  0  0  0  0  0  0
  1  2  1  0
  2  3  1  0
  3  4  1  0
  4  5  2  0
  5  6  1  0
  6  7  2  0
  7  8  1  0
  8  9  2  0
  8 10  1  0
  7 11  1  0
 11 12  2  0
 12 13  1  0
  2 14  1  0
 14 15  2  0
 14 16  1  0
 16 17  1  0
 17 18  2  0
 18 19  1  0
 19 20  2  0
 20 21  1  0
 21 22  1  0
 21 23  2  0
 20 24  1  0
 24 25  2  0
 12  4  1  0
 25 17  1  0
  1 26  1  0
  1 27  1  0
  1 28  1  0
  2 29  1  0
  5 30  1  0
  6 31  1  0
 11 32  1  0
 16 33  1  0
 18 34  1  0
 19 35  1  0
 22 36  1  0
 22 37  1  0
 24 38  1  0
 25 39  1  0
M  CHG  2   8   1  10  -1
M  END
$$$$
