
     RDKit          3D

 43 43  0  0  0  0  0  0  0  0999 V2000
   -5.1383    0.3416    2.0845 C   0  0  0  0  0  0  0  0  0  0  0  0
   -3.8886    0.1903    2.8945 C   0  0  0  0  0  0  0  0  0  0  0  0
   -4.0898    0.6089    4.5699 Cl  0  0  0  0  0  0  0  0  0  0  0  0
   -2.6720   -0.2054    2.4831 C   0  0  0  0  0  0  0  0  0  0  0  0
   -2.2708   -0.6385    1.1106 C   0  0  0  0  0  0  0  0  0  0  0  0
   -1.3659    0.3371    0.3420 N   0  0  0  0  0  4  0  0  0  0  0  0
   -0.0453    0.5503    1.0763 C   0  0  0  0  0  0  0  0  0  0  0  0
   -2.0674    1.6776    0.1499 C   0  0  0  0  0  0  0  0  0  0  0  0
   -1.0693   -0.3214   -1.0596 C   0  0  0  0  0  0  0  0  0  0  0  0
   -0.0826    0.4033   -1.9729 C   0  0  0  0  0  0  0  0  0  0  0  0
    0.0552    1.6161   -2.0305 O   0  0  0  0  0  0  0  0  0  0  0  0
    0.6243   -0.5083   -2.6883 O   0  0  0  0  0  0  0  0  0  0  0  0
    1.7471   -0.0189   -3.4488 C   0  0  0  0  0  0  0  0  0  0  0  0
    2.8674    0.5605   -2.5700 C   0  0  0  0  0  0  0  0  0  0  0  0
    3.1815   -0.2146   -1.3076 C   0  0  0  0  0  0  0  0  0  0  0  0
    3.2020   -1.6155   -1.2770 C   0  0  0  0  0  0  0  0  0  0  0  0
    3.5032   -2.2963   -0.0951 C   0  0  0  0  0  0  0  0  0  0  0  0
    3.8063   -1.5864    1.0646 C   0  0  0  0  0  0  0  0  0  0  0  0
    3.8184   -0.1944    1.0421 C   0  0  0  0  0  0  0  0  0  0  0  0
    3.5132    0.4870   -0.1374 C   0  0  0  0  0  0  0  0  0  0  0  0
   -5.5320    1.3600    2.1741 H   0  0  0  0  0  0  0  0  0  0  0  0
   -4.9783    0.1538    1.0200 H   0  0  0  0  0  0  0  0  0  0  0  0
   -5.9056   -0.3576    2.4331 H   0  0  0  0  0  0  0  0  0  0  0  0
   -1.8857   -0.2754    3.2346 H   0  0  0  0  0  0  0  0  0  0  0  0
   -3.1382   -0.8286    0.4703 H   0  0  0  0  0  0  0  0  0  0  0  0
   -1.7199   -1.5842    1.1898 H   0  0  0  0  0  0  0  0  0  0  0  0
    0.5794    1.2321    0.4953 H   0  0  0  0  0  0  0  0  0  0  0  0
   -0.2522    0.9987    2.0516 H   0  0  0  0  0  0  0  0  0  0  0  0
    0.4438   -0.4206    1.1937 H   0  0  0  0  0  0  0  0  0  0  0  0
   -2.3150    2.0900    1.1317 H   0  0  0  0  0  0  0  0  0  0  0  0
   -2.9753    1.5107   -0.4365 H   0  0  0  0  0  0  0  0  0  0  0  0
   -1.3992    2.3727   -0.3593 H   0  0  0  0  0  0  0  0  0  0  0  0
   -0.6744   -1.3188   -0.8333 H   0  0  0  0  0  0  0  0  0  0  0  0
   -2.0290   -0.4167   -1.5785 H   0  0  0  0  0  0  0  0  0  0  0  0
    1.4024    0.7172   -4.1846 H   0  0  0  0  0  0  0  0  0  0  0  0
    2.1295   -0.8752   -4.0154 H   0  0  0  0  0  0  0  0  0  0  0  0
    2.5830    1.5816   -2.2877 H   0  0  0  0  0  0  0  0  0  0  0  0
    3.7834    0.6534   -3.1659 H   0  0  0  0  0  0  0  0  0  0  0  0
    3.0024   -2.1978   -2.1741 H   0  0  0  0  0  0  0  0  0  0  0  0
    3.5302   -3.3839   -0.0866 H   0  0  0  0  0  0  0  0  0  0  0  0
    4.0686   -2.1197    1.9757 H   0  0  0  0  0  0  0  0  0  0  0  0
    4.0960    0.3602    1.9359 H   0  0  0  0  0  0  0  0  0  0  0  0
    3.5574    1.5753   -0.1423 H   0  0  0  0  0  0  0  0  0  0  0  0
  1  2  1  0
  2  3  1  0
  2  4  2  3
  4  5  1  0
  5  6  1  0
  6  7  1  0
  6  8  1  0
  6  9  1  0
  9 10  1  0
 10 11  2  0
 10 12  1  0
 12 13  1  0
 13 14  1  0
 14 15  1  0
 15 16  2  0
 16 17  1  0
 17 18  2  0
 18 19  1  0
 19 20  2  0
 20 15  1  0
  1 21  1  0
  1 22  1  0
  1 23  1  0
  4 24  1  0
  5 25  1  0
  5 26  1  0
  7 27  1  0
  7 28  1  0
  7 29  1  0
  8 30  1  0
  8 31  1  0
  8 32  1  0
  9 33  1  0
  9 34  1  0
 13 35  1  0
 13 36  1  0
 14 37  1  0
 14 38  1  0
 16 39  1  0
 17 40  1  0
 18 41  1  0
 19 42  1  0
 20 43  1  0
M  CHG  1   6   1
M  END
$$$$
