
     RDKit          3D

 37 38  0  0  0  0  0  0  0  0999 V2000
   -5.6848    0.3267   -2.3282 C   0  0  0  0  0  0  0  0  0  0  0  0
   -5.0673   -0.1240   -1.0814 N   0  0  0  0  0  0  0  0  0  0  0  0
   -5.8432   -1.0938   -0.3093 C   0  0  0  0  0  0  0  0  0  0  0  0
   -3.6742   -0.1134   -0.9637 C   0  0  0  0  0  0  0  0  0  0  0  0
   -3.0075   -0.7607    0.0907 C   0  0  0  0  0  0  0  0  0  0  0  0
   -1.6102   -0.7338    0.2287 C   0  0  0  0  0  0  0  0  0  0  0  0
   -0.8191   -0.0348   -0.6816 C   0  0  0  0  0  0  0  0  0  0  0  0
    0.6469    0.0026   -0.5913 C   0  0  0  0  0  0  0  0  0  0  0  0
    1.3099    0.1516    0.5672 C   0  0  0  0  0  0  0  0  0  0  0  0
    2.7725    0.1987    0.6745 C   0  0  0  0  0  0  0  0  0  0  0  0
    3.5696    0.8557   -0.2619 C   0  0  0  0  0  0  0  0  0  0  0  0
    4.9489    0.8925   -0.0905 C   0  0  0  0  0  0  0  0  0  0  0  0
    5.5253    0.3089    0.9836 N   0  0  0  0  0  4  0  0  0  0  0  0
    6.9895    0.3506    1.1370 C   0  0  0  0  0  0  0  0  0  0  0  0
    4.7735   -0.3276    1.9087 C   0  0  0  0  0  0  0  0  0  0  0  0
    3.3904   -0.3870    1.7782 C   0  0  0  0  0  0  0  0  0  0  0  0
   -1.4532    0.6121   -1.7408 C   0  0  0  0  0  0  0  0  0  0  0  0
   -2.8512    0.5795   -1.8677 C   0  0  0  0  0  0  0  0  0  0  0  0
   -5.3617   -0.2919   -3.1727 H   0  0  0  0  0  0  0  0  0  0  0  0
   -5.4499    1.3774   -2.5295 H   0  0  0  0  0  0  0  0  0  0  0  0
   -6.7779    0.2691   -2.2753 H   0  0  0  0  0  0  0  0  0  0  0  0
   -5.5556   -2.1197   -0.5645 H   0  0  0  0  0  0  0  0  0  0  0  0
   -5.7194   -0.9332    0.7670 H   0  0  0  0  0  0  0  0  0  0  0  0
   -6.9167   -0.9934   -0.5057 H   0  0  0  0  0  0  0  0  0  0  0  0
   -3.5621   -1.3116    0.8445 H   0  0  0  0  0  0  0  0  0  0  0  0
   -1.1636   -1.2763    1.0574 H   0  0  0  0  0  0  0  0  0  0  0  0
    1.1665   -0.0892   -1.5416 H   0  0  0  0  0  0  0  0  0  0  0  0
    0.7601    0.2426    1.5030 H   0  0  0  0  0  0  0  0  0  0  0  0
    3.1270    1.3514   -1.1236 H   0  0  0  0  0  0  0  0  0  0  0  0
    5.5985    1.3898   -0.8054 H   0  0  0  0  0  0  0  0  0  0  0  0
    7.2395    0.3346    2.2009 H   0  0  0  0  0  0  0  0  0  0  0  0
    7.3966   -0.5265    0.6279 H   0  0  0  0  0  0  0  0  0  0  0  0
    7.3704    1.2726    0.6903 H   0  0  0  0  0  0  0  0  0  0  0  0
    5.2865   -0.7860    2.7496 H   0  0  0  0  0  0  0  0  0  0  0  0
    2.8024   -0.9016    2.5364 H   0  0  0  0  0  0  0  0  0  0  0  0
   -0.8784    1.1655   -2.4795 H   0  0  0  0  0  0  0  0  0  0  0  0
   -3.2779    1.1227   -2.7057 H   0  0  0  0  0  0  0  0  0  0  0  0
  1  2  1  0
  2  3  1  0
  2  4  1  0
  4  5  2  0
  5  6  1  0
  6  7  2  0
  7  8  1  0
  8  9  2  3
  9 10  1  0
 10 11  2  0
 11 12  1  0
 12 13  2  0
 13 14  1  0
 13 15  1  0
 15 16  2  0
  7 17  1  0
 17 18  2  0
 18  4  1  0
 16 10  1  0
  1 19  1  0
  1 20  1  0
  1 21  1  0
  3 22  1  0
  3 23  1  0
  3 24  1  0
  5 25  1  0
  6 26  1  0
  8 27  1  0
  9 28  1  0
 11 29  1  0
 12 30  1  0
 14 31  1  0
 14 32  1  0
 14 33  1  0
 15 34  1  0
 16 35  1  0
 17 36  1  0
 18 37  1  0
M  CHG  1  13   1
M  END
$$$$
