
     RDKit          3D

 44 46  0  0  0  0  0  0  0  0999 V2000
   -2.9028    2.7393   -2.9028 C   0  0  0  0  0  0  0  0  0  0  0  0
   -2.9779    1.2456   -3.2285 C   0  0  0  0  0  0  0  0  0  0  0  0
   -4.3418    0.8837   -3.8214 C   0  0  0  0  0  0  0  0  0  0  0  0
   -2.6533    0.3929   -2.0134 C   0  0  0  0  0  0  0  0  0  0  0  0
   -1.5448   -0.4689   -2.0470 C   0  0  0  0  0  0  0  0  0  0  0  0
   -1.2256   -1.2649   -0.9457 C   0  0  0  0  0  0  0  0  0  0  0  0
   -2.0097   -1.1908    0.2071 C   0  0  0  0  0  0  0  0  0  0  0  0
   -1.6091   -2.2002    1.6155 S   0  0  0  0  0  6  0  0  0  0  0  0
   -2.8381   -2.4379    2.3444 O   0  0  0  0  0  0  0  0  0  0  0  0
   -0.7818   -3.2982    1.1656 O   0  0  0  0  0  0  0  0  0  0  0  0
   -0.6925   -1.1592    2.5807 N   0  0  0  0  0  0  0  0  0  0  0  0
    0.4356   -0.4955    2.0230 C   0  0  0  0  0  0  0  0  0  0  0  0
    0.4052    0.8950    1.9062 C   0  0  0  0  0  0  0  0  0  0  0  0
    1.4781    1.5708    1.3235 C   0  0  0  0  0  0  0  0  0  0  0  0
    2.5808    0.8504    0.8630 C   0  0  0  0  0  0  0  0  0  0  0  0
    3.6235    1.5176    0.2788 O   0  0  0  0  0  0  0  0  0  0  0  0
    2.6272   -0.5457    0.9866 C   0  0  0  0  0  0  0  0  0  0  0  0
    4.0157   -1.5044    0.4042 S   0  0  0  0  0  0  0  0  0  0  0  0
    5.1258   -1.3772    1.7454 C   0  0  0  0  0  0  0  0  0  0  0  0
    4.8057   -0.8528    2.9735 N   0  0  0  0  0  0  0  0  0  0  0  0
    5.9174   -0.9875    3.6555 C   0  0  0  0  0  0  0  0  0  0  0  0
    6.8590   -1.5733    2.8729 N   0  0  0  0  0  0  0  0  0  0  0  0
    6.3791   -1.8396    1.6504 N   0  0  0  0  0  0  0  0  0  0  0  0
    1.5407   -1.2138    1.5668 C   0  0  0  0  0  0  0  0  0  0  0  0
   -3.1275   -0.3552    0.2550 C   0  0  0  0  0  0  0  0  0  0  0  0
   -3.4423    0.4359   -0.8517 C   0  0  0  0  0  0  0  0  0  0  0  0
   -3.0536    3.3382   -3.8075 H   0  0  0  0  0  0  0  0  0  0  0  0
   -3.6648    3.0392   -2.1750 H   0  0  0  0  0  0  0  0  0  0  0  0
   -1.9232    3.0005   -2.4872 H   0  0  0  0  0  0  0  0  0  0  0  0
   -2.2264    1.0478   -4.0045 H   0  0  0  0  0  0  0  0  0  0  0  0
   -4.3917   -0.1833   -4.0658 H   0  0  0  0  0  0  0  0  0  0  0  0
   -4.5222    1.4474   -4.7431 H   0  0  0  0  0  0  0  0  0  0  0  0
   -5.1616    1.1063   -3.1298 H   0  0  0  0  0  0  0  0  0  0  0  0
   -0.9205   -0.5305   -2.9366 H   0  0  0  0  0  0  0  0  0  0  0  0
   -0.3658   -1.9301   -0.9942 H   0  0  0  0  0  0  0  0  0  0  0  0
   -1.2717   -0.6481    3.2438 H   0  0  0  0  0  0  0  0  0  0  0  0
   -0.4545    1.4629    2.2506 H   0  0  0  0  0  0  0  0  0  0  0  0
    1.4345    2.6515    1.2296 H   0  0  0  0  0  0  0  0  0  0  0  0
    3.4744    2.4735    0.3483 H   0  0  0  0  0  0  0  0  0  0  0  0
    6.0908   -0.6927    4.6802 H   0  0  0  0  0  0  0  0  0  0  0  0
    7.8171   -1.8187    3.0949 H   0  0  0  0  0  0  0  0  0  0  0  0
    1.5665   -2.2960    1.6739 H   0  0  0  0  0  0  0  0  0  0  0  0
   -3.7582   -0.3173    1.1400 H   0  0  0  0  0  0  0  0  0  0  0  0
   -4.3157    1.0831   -0.8030 H   0  0  0  0  0  0  0  0  0  0  0  0
  1  2  1  0
  2  3  1  0
  2  4  1  0
  4  5  2  0
  5  6  1  0
  6  7  2  0
  7  8  1  0
  8  9  2  0
  8 10  2  0
  8 11  1  0
 11 12  1  0
 12 13  2  0
 13 14  1  0
 14 15  2  0
 15 16  1  0
 15 17  1  0
 17 18  1  0
 18 19  1  0
 19 20  1  0
 20 21  2  0
 21 22  1  0
 22 23  1  0
 17 24  2  0
  7 25  1  0
 25 26  2  0
 26  4  1  0
 24 12  1  0
 23 19  2  0
  1 27  1  0
  1 28  1  0
  1 29  1  0
  2 30  1  0
  3 31  1  0
  3 32  1  0
  3 33  1  0
  5 34  1  0
  6 35  1  0
 11 36  1  0
 13 37  1  0
 14 38  1  0
 16 39  1  0
 21 40  1  0
 22 41  1  0
 24 42  1  0
 25 43  1  0
 26 44  1  0
M  END
$$$$
