
     RDKit          3D

 35 37  0  0  0  0  0  0  0  0999 V2000
   -1.0512    1.1088    0.4507 O   0  0  0  0  0  0  0  0  0  0  0  0
   -0.7507    1.0856   -0.7354 C   0  0  0  0  0  0  0  0  0  0  0  0
   -1.5772    0.5214   -1.8431 C   0  0  0  0  0  0  0  0  0  0  0  0
   -2.7429   -0.1343   -1.7503 C   0  0  0  0  0  0  0  0  0  0  0  0
   -3.4530   -0.4660   -0.5129 C   0  0  0  0  0  0  0  0  0  0  0  0
   -2.9270   -1.3939    0.3966 C   0  0  0  0  0  0  0  0  0  0  0  0
   -3.6313   -1.7137    1.5590 C   0  0  0  0  0  0  0  0  0  0  0  0
   -4.8599   -1.1123    1.8037 C   0  0  0  0  0  0  0  0  0  0  0  0
   -5.5358   -1.4213    2.9180 F   0  0  0  0  0  0  0  0  0  0  0  0
   -5.4003   -0.1981    0.9069 C   0  0  0  0  0  0  0  0  0  0  0  0
   -4.6977    0.1241   -0.2559 C   0  0  0  0  0  0  0  0  0  0  0  0
   -0.8217    0.8479   -3.3729 S   0  0  0  0  0  0  0  0  0  0  0  0
    0.5641    1.6603   -2.6437 C   0  0  0  0  0  0  0  0  0  0  0  0
    1.7952    2.3415   -3.5404 S   0  0  0  0  0  0  0  0  0  0  0  0
    0.4022    1.6327   -1.2752 N   0  0  0  0  0  0  0  0  0  0  0  0
    1.3584    2.1882   -0.3886 N   0  0  0  0  0  0  0  0  0  0  0  0
    2.2918    1.2099    0.0717 C   0  0  0  0  0  0  0  0  0  0  0  0
    2.3566    0.0027   -0.5500 N   0  0  0  0  0  0  0  0  0  0  0  0
    3.2858   -0.8877   -0.1278 C   0  0  0  0  0  0  0  0  0  0  0  0
    4.1756   -0.6496    0.9078 C   0  0  0  0  0  0  0  0  0  0  0  0
    5.1826   -1.6899    1.2890 C   0  0  0  0  0  0  0  0  0  0  0  0
    4.7043   -2.9585    1.1686 F   0  0  0  0  0  0  0  0  0  0  0  0
    5.6078   -1.5728    2.5767 F   0  0  0  0  0  0  0  0  0  0  0  0
    6.3004   -1.6343    0.5169 F   0  0  0  0  0  0  0  0  0  0  0  0
    4.1123    0.5963    1.5372 C   0  0  0  0  0  0  0  0  0  0  0  0
    3.1680    1.5340    1.1188 C   0  0  0  0  0  0  0  0  0  0  0  0
    3.1027    3.0596    1.9234 Cl  0  0  0  0  0  0  0  0  0  0  0  0
   -3.2526   -0.4673   -2.6529 H   0  0  0  0  0  0  0  0  0  0  0  0
   -1.9651   -1.8669    0.2135 H   0  0  0  0  0  0  0  0  0  0  0  0
   -3.2282   -2.4236    2.2739 H   0  0  0  0  0  0  0  0  0  0  0  0
   -6.3620    0.2577    1.1191 H   0  0  0  0  0  0  0  0  0  0  0  0
   -5.1260    0.8408   -0.9528 H   0  0  0  0  0  0  0  0  0  0  0  0
    0.8885    2.5734    0.4365 H   0  0  0  0  0  0  0  0  0  0  0  0
    3.2890   -1.8306   -0.6727 H   0  0  0  0  0  0  0  0  0  0  0  0
    4.7972    0.8357    2.3488 H   0  0  0  0  0  0  0  0  0  0  0  0
  1  2  2  0
  2  3  1  0
  3  4  2  3
  4  5  1  0
  5  6  2  0
  6  7  1  0
  7  8  2  0
  8  9  1  0
  8 10  1  0
 10 11  2  0
  3 12  1  0
 12 13  1  0
 13 14  2  0
 13 15  1  0
 15 16  1  0
 16 17  1  0
 17 18  2  0
 18 19  1  0
 19 20  2  0
 20 21  1  0
 21 22  1  0
 21 23  1  0
 21 24  1  0
 20 25  1  0
 25 26  2  0
 26 27  1  0
 15  2  1  0
 26 17  1  0
 11  5  1  0
  4 28  1  0
  6 29  1  0
  7 30  1  0
 10 31  1  0
 11 32  1  0
 16 33  1  0
 19 34  1  0
 25 35  1  0
M  END
$$$$
