
     RDKit          3D

 53 52  0  0  0  0  0  0  0  0999 V2000
   -4.0861   -0.7268    2.4332 C   0  0  0  0  0  0  0  0  0  0  0  0
   -3.5103   -1.2717    1.1248 C   0  0  0  0  0  0  0  0  0  0  0  0
   -2.0061   -1.0142    1.0562 C   0  0  0  0  0  0  0  0  0  0  0  0
   -4.2765   -0.7702   -0.1194 C   0  0  0  0  0  0  0  0  0  0  0  0
   -4.3919    0.7466   -0.3134 C   0  0  0  0  0  0  0  0  0  0  0  0
   -3.1374    1.3846   -0.6488 N   0  0  0  0  0  0  0  0  0  0  0  0
   -2.6117    1.3411   -1.9237 C   0  0  0  0  0  0  0  0  0  0  0  0
   -3.1706    0.7990   -2.8704 O   0  0  0  0  0  0  0  0  0  0  0  0
   -1.2557    2.0063   -2.0212 C   0  0  0  0  0  0  0  0  0  0  0  0
   -0.7874    2.0830   -3.4675 C   0  0  0  0  0  0  0  0  0  0  0  0
    0.8273    2.9297   -3.6196 S   0  0  0  0  0  0  0  0  0  0  0  0
    1.9344    1.6230   -2.9833 C   0  0  0  0  0  0  0  0  0  0  0  0
    2.4416    1.9816   -1.5931 C   0  0  0  0  0  0  0  0  0  0  0  0
    3.2655    0.8522   -1.0115 C   0  0  0  0  0  0  0  0  0  0  0  0
    3.5641   -0.1580   -1.6377 O   0  0  0  0  0  0  0  0  0  0  0  0
    3.6375    1.0807    0.2962 N   0  0  0  0  0  0  0  0  0  0  0  0
    4.4033    0.1237    1.0701 C   0  0  0  0  0  0  0  0  0  0  0  0
    3.5337   -0.6205    2.0855 C   0  0  0  0  0  0  0  0  0  0  0  0
    2.4895   -1.5801    1.4795 C   0  0  0  0  0  0  0  0  0  0  0  0
    3.1350   -2.7482    0.7316 C   0  0  0  0  0  0  0  0  0  0  0  0
    1.5872   -2.1277    2.5897 C   0  0  0  0  0  0  0  0  0  0  0  0
   -5.1623   -0.9185    2.4938 H   0  0  0  0  0  0  0  0  0  0  0  0
   -3.9234    0.3523    2.5343 H   0  0  0  0  0  0  0  0  0  0  0  0
   -3.6121   -1.2135    3.2943 H   0  0  0  0  0  0  0  0  0  0  0  0
   -3.6434   -2.3637    1.1445 H   0  0  0  0  0  0  0  0  0  0  0  0
   -1.4926   -1.5769    1.8454 H   0  0  0  0  0  0  0  0  0  0  0  0
   -1.7615    0.0421    1.2042 H   0  0  0  0  0  0  0  0  0  0  0  0
   -1.5929   -1.3384    0.0939 H   0  0  0  0  0  0  0  0  0  0  0  0
   -3.8301   -1.2238   -1.0149 H   0  0  0  0  0  0  0  0  0  0  0  0
   -5.2991   -1.1678   -0.0590 H   0  0  0  0  0  0  0  0  0  0  0  0
   -4.7874    1.2387    0.5809 H   0  0  0  0  0  0  0  0  0  0  0  0
   -5.0967    0.9454   -1.1316 H   0  0  0  0  0  0  0  0  0  0  0  0
   -2.6138    1.8340    0.0915 H   0  0  0  0  0  0  0  0  0  0  0  0
   -0.5610    1.4146   -1.4154 H   0  0  0  0  0  0  0  0  0  0  0  0
   -1.3300    3.0121   -1.5893 H   0  0  0  0  0  0  0  0  0  0  0  0
   -1.5102    2.6536   -4.0619 H   0  0  0  0  0  0  0  0  0  0  0  0
   -0.7187    1.0889   -3.9236 H   0  0  0  0  0  0  0  0  0  0  0  0
    2.7784    1.5364   -3.6769 H   0  0  0  0  0  0  0  0  0  0  0  0
    1.4191    0.6558   -2.9852 H   0  0  0  0  0  0  0  0  0  0  0  0
    1.6085    2.1778   -0.9087 H   0  0  0  0  0  0  0  0  0  0  0  0
    3.0736    2.8771   -1.6344 H   0  0  0  0  0  0  0  0  0  0  0  0
    3.3785    1.9534    0.7382 H   0  0  0  0  0  0  0  0  0  0  0  0
    4.9354   -0.5663    0.4080 H   0  0  0  0  0  0  0  0  0  0  0  0
    5.1600    0.7050    1.6100 H   0  0  0  0  0  0  0  0  0  0  0  0
    3.0133    0.1203    2.7089 H   0  0  0  0  0  0  0  0  0  0  0  0
    4.1936   -1.1858    2.7571 H   0  0  0  0  0  0  0  0  0  0  0  0
    1.8511   -1.0280    0.7785 H   0  0  0  0  0  0  0  0  0  0  0  0
    2.3683   -3.4358    0.3574 H   0  0  0  0  0  0  0  0  0  0  0  0
    3.7119   -2.4059   -0.1321 H   0  0  0  0  0  0  0  0  0  0  0  0
    3.8053   -3.3164    1.3855 H   0  0  0  0  0  0  0  0  0  0  0  0
    2.1588   -2.7115    3.3188 H   0  0  0  0  0  0  0  0  0  0  0  0
    1.0849   -1.3141    3.1252 H   0  0  0  0  0  0  0  0  0  0  0  0
    0.8090   -2.7751    2.1731 H   0  0  0  0  0  0  0  0  0  0  0  0
  1  2  1  0
  2  3  1  0
  2  4  1  0
  4  5  1  0
  5  6  1  0
  6  7  1  0
  7  8  2  0
  7  9  1  0
  9 10  1  0
 10 11  1  0
 11 12  1  0
 12 13  1  0
 13 14  1  0
 14 15  2  0
 14 16  1  0
 16 17  1  0
 17 18  1  0
 18 19  1  0
 19 20  1  0
 19 21  1  0
  1 22  1  0
  1 23  1  0
  1 24  1  0
  2 25  1  0
  3 26  1  0
  3 27  1  0
  3 28  1  0
  4 29  1  0
  4 30  1  0
  5 31  1  0
  5 32  1  0
  6 33  1  0
  9 34  1  0
  9 35  1  0
 10 36  1  0
 10 37  1  0
 12 38  1  0
 12 39  1  0
 13 40  1  0
 13 41  1  0
 16 42  1  0
 17 43  1  0
 17 44  1  0
 18 45  1  0
 18 46  1  0
 19 47  1  0
 20 48  1  0
 20 49  1  0
 20 50  1  0
 21 51  1  0
 21 52  1  0
 21 53  1  0
M  END
$$$$
