
     RDKit          3D

 54 57  0  0  0  0  0  0  0  0999 V2000
   -2.0403    3.5030   -3.4167 C   0  0  0  0  0  0  0  0  0  0  0  0
   -3.1838    3.4165   -2.5775 O   0  0  0  0  0  0  0  0  0  0  0  0
   -3.1533    2.5034   -1.5549 C   0  0  0  0  0  0  0  0  0  0  0  0
   -2.1618    1.5325   -1.3806 C   0  0  0  0  0  0  0  0  0  0  0  0
   -2.1973    0.6302   -0.2979 C   0  0  0  0  0  0  0  0  0  0  0  0
   -1.1465   -0.3916   -0.1013 C   0  0  0  0  0  0  0  0  0  0  0  0
    0.1786   -0.1877   -0.4414 C   0  0  0  0  0  0  0  0  0  0  0  0
    1.0911   -1.2184   -0.2133 C   0  0  0  0  0  0  0  0  0  0  0  0
    2.5015   -0.9255   -0.5544 C   0  0  0  0  0  0  0  0  0  0  0  0
    2.7520   -0.5892   -1.7036 O   0  0  0  0  0  0  0  0  0  0  0  0
    3.3693   -1.0154    0.5164 N   0  0  0  0  0  0  0  0  0  0  0  0
    4.7643   -0.8117    0.5046 C   0  0  0  0  0  0  0  0  0  0  0  0
    5.4367   -0.9130    1.7311 C   0  0  0  0  0  0  0  0  0  0  0  0
    6.8213   -0.7305    1.8057 C   0  0  0  0  0  0  0  0  0  0  0  0
    7.5350   -0.4500    0.6475 C   0  0  0  0  0  0  0  0  0  0  0  0
    8.8849   -0.2655    0.6690 O   0  0  0  0  0  0  0  0  0  0  0  0
    6.8857   -0.3491   -0.5755 C   0  0  0  0  0  0  0  0  0  0  0  0
    5.5005   -0.5293   -0.6478 C   0  0  0  0  0  0  0  0  0  0  0  0
    0.6791   -2.4601    0.3143 C   0  0  0  0  0  0  0  0  0  0  0  0
    1.5205   -3.5864    0.5078 C   0  0  0  0  0  0  0  0  0  0  0  0
    1.0226   -4.7701    1.0483 C   0  0  0  0  0  0  0  0  0  0  0  0
   -0.3182   -4.8506    1.3939 C   0  0  0  0  0  0  0  0  0  0  0  0
   -1.1534   -3.7506    1.1858 C   0  0  0  0  0  0  0  0  0  0  0  0
   -0.6835   -2.5608    0.6458 C   0  0  0  0  0  0  0  0  0  0  0  0
   -1.5573   -1.5565    0.4590 N   0  0  0  0  0  0  0  0  0  0  0  0
   -3.2785    0.7208    0.6032 C   0  0  0  0  0  0  0  0  0  0  0  0
   -4.2856    1.6775    0.4486 C   0  0  0  0  0  0  0  0  0  0  0  0
   -5.3596    1.8299    1.2870 O   0  0  0  0  0  0  0  0  0  0  0  0
   -5.4371    0.9709    2.4160 C   0  0  0  0  0  0  0  0  0  0  0  0
   -4.2186    2.5561   -0.6430 C   0  0  0  0  0  0  0  0  0  0  0  0
   -5.1789    3.5344   -0.7838 O   0  0  0  0  0  0  0  0  0  0  0  0
   -6.2542    3.0429   -1.5818 C   0  0  0  0  0  0  0  0  0  0  0  0
   -1.9251    2.5940   -4.0159 H   0  0  0  0  0  0  0  0  0  0  0  0
   -1.1352    3.7133   -2.8370 H   0  0  0  0  0  0  0  0  0  0  0  0
   -2.1946    4.3379   -4.1069 H   0  0  0  0  0  0  0  0  0  0  0  0
   -1.3541    1.4494   -2.1009 H   0  0  0  0  0  0  0  0  0  0  0  0
    0.5204    0.7546   -0.8579 H   0  0  0  0  0  0  0  0  0  0  0  0
    2.9606   -1.2267    1.4193 H   0  0  0  0  0  0  0  0  0  0  0  0
    4.8932   -1.1321    2.6465 H   0  0  0  0  0  0  0  0  0  0  0  0
    7.3182   -0.8129    2.7669 H   0  0  0  0  0  0  0  0  0  0  0  0
    9.1941   -0.3244    1.5873 H   0  0  0  0  0  0  0  0  0  0  0  0
    7.4519   -0.1303   -1.4767 H   0  0  0  0  0  0  0  0  0  0  0  0
    5.0301   -0.4459   -1.6222 H   0  0  0  0  0  0  0  0  0  0  0  0
    2.5697   -3.5583    0.2180 H   0  0  0  0  0  0  0  0  0  0  0  0
    1.6773   -5.6271    1.1870 H   0  0  0  0  0  0  0  0  0  0  0  0
   -0.7236   -5.7687    1.8116 H   0  0  0  0  0  0  0  0  0  0  0  0
   -2.2076   -3.8284    1.4440 H   0  0  0  0  0  0  0  0  0  0  0  0
   -3.3052    0.0198    1.4332 H   0  0  0  0  0  0  0  0  0  0  0  0
   -5.5345   -0.0758    2.1094 H   0  0  0  0  0  0  0  0  0  0  0  0
   -6.3382    1.2370    2.9770 H   0  0  0  0  0  0  0  0  0  0  0  0
   -4.5782    1.1120    3.0804 H   0  0  0  0  0  0  0  0  0  0  0  0
   -6.9947    3.8431   -1.6746 H   0  0  0  0  0  0  0  0  0  0  0  0
   -6.7438    2.1844   -1.1094 H   0  0  0  0  0  0  0  0  0  0  0  0
   -5.9158    2.7782   -2.5896 H   0  0  0  0  0  0  0  0  0  0  0  0
  1  2  1  0
  2  3  1  0
  3  4  2  0
  4  5  1  0
  5  6  1  0
  6  7  2  0
  7  8  1  0
  8  9  1  0
  9 10  2  0
  9 11  1  0
 11 12  1  0
 12 13  2  0
 13 14  1  0
 14 15  2  0
 15 16  1  0
 15 17  1  0
 17 18  2  0
  8 19  2  0
 19 20  1  0
 20 21  2  0
 21 22  1  0
 22 23  2  0
 23 24  1  0
 24 25  2  0
  5 26  2  0
 26 27  1  0
 27 28  1  0
 28 29  1  0
 27 30  2  0
 30 31  1  0
 31 32  1  0
 30  3  1  0
 25  6  1  0
 18 12  1  0
 24 19  1  0
  1 33  1  0
  1 34  1  0
  1 35  1  0
  4 36  1  0
  7 37  1  0
 11 38  1  0
 13 39  1  0
 14 40  1  0
 16 41  1  0
 17 42  1  0
 18 43  1  0
 20 44  1  0
 21 45  1  0
 22 46  1  0
 23 47  1  0
 26 48  1  0
 29 49  1  0
 29 50  1  0
 29 51  1  0
 32 52  1  0
 32 53  1  0
 32 54  1  0
M  END
$$$$
