
     RDKit          3D

 60 63  0  0  0  0  0  0  0  0999 V2000
    9.5759   -2.1893    2.9706 C   0  0  0  0  0  0  0  0  0  0  0  0
    9.2151   -0.7221    2.8003 C   0  0  0  0  0  0  0  0  0  0  0  0
    8.9558   -0.4135    1.4304 O   0  0  0  0  0  0  0  0  0  0  0  0
    7.7081   -0.6400    0.9236 C   0  0  0  0  0  0  0  0  0  0  0  0
    6.6052   -1.1286    1.6215 C   0  0  0  0  0  0  0  0  0  0  0  0
    5.3835   -1.3194    0.9655 C   0  0  0  0  0  0  0  0  0  0  0  0
    5.2502   -1.0332   -0.3991 C   0  0  0  0  0  0  0  0  0  0  0  0
    3.9251   -1.2152   -1.0865 C   0  0  0  0  0  0  0  0  0  0  0  0
    3.1139   -0.0300   -0.9464 N   0  0  0  0  0  0  0  0  0  0  0  0
    1.7862   -0.0335   -1.3265 C   0  0  0  0  0  0  0  0  0  0  0  0
    1.2280   -1.0423   -1.7482 O   0  0  0  0  0  0  0  0  0  0  0  0
    1.1169    1.3378   -1.2084 C   0  0  0  0  0  0  0  0  0  0  0  0
   -0.3270    1.2293   -1.3217 N   0  0  0  0  0  0  0  0  0  0  0  0
   -0.8693    1.4268   -2.5978 N   0  0  0  0  0  0  0  0  0  0  0  0
   -2.1464    1.2716   -2.8114 C   0  0  0  0  0  0  0  0  0  0  0  0
   -2.6695    1.4880   -4.2034 C   0  0  0  0  0  0  0  0  0  0  0  0
   -3.0108    0.9071   -1.7151 C   0  0  0  0  0  0  0  0  0  0  0  0
   -4.3610    0.6185   -1.6056 C   0  0  0  0  0  0  0  0  0  0  0  0
   -5.3858    0.4361   -2.6660 C   0  0  0  0  0  0  0  0  0  0  0  0
   -4.5947    0.4565   -0.2344 N   0  0  0  0  0  0  0  0  0  0  0  0
   -5.8213    0.3698    0.4944 C   0  0  0  0  0  0  0  0  0  0  0  0
   -7.0402    0.8078   -0.0349 C   0  0  0  0  0  0  0  0  0  0  0  0
   -8.2158    0.7122    0.7196 C   0  0  0  0  0  0  0  0  0  0  0  0
   -8.1938    0.1849    2.0144 C   0  0  0  0  0  0  0  0  0  0  0  0
   -9.4547    0.1154    2.8254 C   0  0  0  0  0  0  0  0  0  0  0  0
   -6.9718   -0.2178    2.5592 C   0  0  0  0  0  0  0  0  0  0  0  0
   -5.7957   -0.1240    1.8084 C   0  0  0  0  0  0  0  0  0  0  0  0
   -3.4221    0.3958    0.4546 N   0  0  0  0  0  0  0  0  0  0  0  0
   -2.4812    0.7254   -0.4331 C   0  0  0  0  0  0  0  0  0  0  0  0
   -1.0561    0.8722   -0.1706 C   0  0  0  0  0  0  0  0  0  0  0  0
   -0.5406    0.7181    0.9351 O   0  0  0  0  0  0  0  0  0  0  0  0
    6.3561   -0.5300   -1.0928 C   0  0  0  0  0  0  0  0  0  0  0  0
    7.5731   -0.3386   -0.4337 C   0  0  0  0  0  0  0  0  0  0  0  0
   10.4128   -2.4558    2.3165 H   0  0  0  0  0  0  0  0  0  0  0  0
    8.7408   -2.8427    2.6973 H   0  0  0  0  0  0  0  0  0  0  0  0
    9.8576   -2.4012    4.0066 H   0  0  0  0  0  0  0  0  0  0  0  0
   10.0824   -0.1185    3.0932 H   0  0  0  0  0  0  0  0  0  0  0  0
    8.3992   -0.4105    3.4606 H   0  0  0  0  0  0  0  0  0  0  0  0
    6.6545   -1.3759    2.6763 H   0  0  0  0  0  0  0  0  0  0  0  0
    4.5310   -1.6958    1.5291 H   0  0  0  0  0  0  0  0  0  0  0  0
    4.0652   -1.4100   -2.1569 H   0  0  0  0  0  0  0  0  0  0  0  0
    3.3873   -2.0778   -0.6732 H   0  0  0  0  0  0  0  0  0  0  0  0
    3.5761    0.8447   -0.7373 H   0  0  0  0  0  0  0  0  0  0  0  0
    1.3769    1.7841   -0.2419 H   0  0  0  0  0  0  0  0  0  0  0  0
    1.4946    1.9841   -2.0084 H   0  0  0  0  0  0  0  0  0  0  0  0
   -3.5467    2.1407   -4.1807 H   0  0  0  0  0  0  0  0  0  0  0  0
   -1.9041    1.9566   -4.8300 H   0  0  0  0  0  0  0  0  0  0  0  0
   -2.9367    0.5251   -4.6462 H   0  0  0  0  0  0  0  0  0  0  0  0
   -6.1479   -0.2936   -2.3787 H   0  0  0  0  0  0  0  0  0  0  0  0
   -4.9344    0.0406   -3.5807 H   0  0  0  0  0  0  0  0  0  0  0  0
   -5.8649    1.3877   -2.9115 H   0  0  0  0  0  0  0  0  0  0  0  0
   -7.1166    1.2738   -1.0090 H   0  0  0  0  0  0  0  0  0  0  0  0
   -9.1520    1.0663    0.2920 H   0  0  0  0  0  0  0  0  0  0  0  0
   -9.6806    1.0964    3.2531 H   0  0  0  0  0  0  0  0  0  0  0  0
   -9.3612   -0.6067    3.6415 H   0  0  0  0  0  0  0  0  0  0  0  0
  -10.2945   -0.2068    2.2035 H   0  0  0  0  0  0  0  0  0  0  0  0
   -6.9212   -0.6083    3.5733 H   0  0  0  0  0  0  0  0  0  0  0  0
   -4.8621   -0.4529    2.2644 H   0  0  0  0  0  0  0  0  0  0  0  0
    6.2812   -0.2860   -2.1498 H   0  0  0  0  0  0  0  0  0  0  0  0
    8.4279    0.0470   -0.9844 H   0  0  0  0  0  0  0  0  0  0  0  0
  1  2  1  0
  2  3  1  0
  3  4  1  0
  4  5  2  0
  5  6  1  0
  6  7  2  0
  7  8  1  0
  8  9  1  0
  9 10  1  0
 10 11  2  0
 10 12  1  0
 12 13  1  0
 13 14  1  0
 14 15  2  0
 15 16  1  0
 15 17  1  0
 17 18  2  0
 18 19  1  0
 18 20  1  0
 20 21  1  0
 21 22  2  0
 22 23  1  0
 23 24  2  0
 24 25  1  0
 24 26  1  0
 26 27  2  0
 20 28  1  0
 28 29  2  0
 29 30  1  0
 30 31  2  0
  7 32  1  0
 32 33  2  0
 33  4  1  0
 30 13  1  0
 29 17  1  0
 27 21  1  0
  1 34  1  0
  1 35  1  0
  1 36  1  0
  2 37  1  0
  2 38  1  0
  5 39  1  0
  6 40  1  0
  8 41  1  0
  8 42  1  0
  9 43  1  0
 12 44  1  0
 12 45  1  0
 16 46  1  0
 16 47  1  0
 16 48  1  0
 19 49  1  0
 19 50  1  0
 19 51  1  0
 22 52  1  0
 23 53  1  0
 25 54  1  0
 25 55  1  0
 25 56  1  0
 26 57  1  0
 27 58  1  0
 32 59  1  0
 33 60  1  0
M  END
$$$$
