
     RDKit          3D

 56 58  0  0  0  0  0  0  0  0999 V2000
    8.2753   -1.0344   -0.7272 C   0  0  0  0  0  0  0  0  0  0  0  0
    7.7621    0.0332   -1.6798 C   0  0  0  0  0  0  0  0  0  0  0  0
    7.4474    1.2341   -0.9756 O   0  0  0  0  0  0  0  0  0  0  0  0
    6.1990    1.3784   -0.4404 C   0  0  0  0  0  0  0  0  0  0  0  0
    5.1646    0.4463   -0.4766 C   0  0  0  0  0  0  0  0  0  0  0  0
    3.9262    0.7342    0.1174 C   0  0  0  0  0  0  0  0  0  0  0  0
    3.7069    1.9551    0.7549 C   0  0  0  0  0  0  0  0  0  0  0  0
    2.4930    2.3209    1.3722 N   0  0  0  0  0  0  0  0  0  0  0  0
    1.3300    1.5747    1.4582 C   0  0  0  0  0  0  0  0  0  0  0  0
    1.1492    0.4459    1.0127 O   0  0  0  0  0  0  0  0  0  0  0  0
    0.2407    2.3159    2.2161 C   0  0  0  0  0  0  0  0  0  0  0  0
   -1.0832    1.5580    2.1983 C   0  0  0  0  0  0  0  0  0  0  0  0
   -0.9741    0.3410    3.0208 N   0  0  0  0  0  0  0  0  0  0  0  0
   -2.3816   -0.4710    3.4550 S   0  0  0  0  0  6  0  0  0  0  0  0
   -3.3050    0.4861    4.0198 O   0  0  0  0  0  0  0  0  0  0  0  0
   -1.9749   -1.6575    4.1751 O   0  0  0  0  0  0  0  0  0  0  0  0
   -3.0232   -0.9982    1.8832 C   0  0  0  0  0  0  0  0  0  0  0  0
   -2.5834   -2.2004    1.3300 C   0  0  0  0  0  0  0  0  0  0  0  0
   -3.1059   -2.6328    0.1059 C   0  0  0  0  0  0  0  0  0  0  0  0
   -4.0739   -1.8760   -0.5763 C   0  0  0  0  0  0  0  0  0  0  0  0
   -4.5008   -0.6788   -0.0005 C   0  0  0  0  0  0  0  0  0  0  0  0
   -3.9924   -0.2380    1.2316 C   0  0  0  0  0  0  0  0  0  0  0  0
   -5.4981    0.1420   -0.7030 C   0  0  0  0  0  0  0  0  0  0  0  0
   -5.8015    1.2372   -0.2333 O   0  0  0  0  0  0  0  0  0  0  0  0
   -6.0211   -0.3799   -1.8756 N   0  0  0  0  0  0  0  0  0  0  0  0
   -7.0268    0.3934   -2.5810 C   0  0  0  0  0  0  0  0  0  0  0  0
   -5.5952   -1.5534   -2.4868 C   0  0  0  0  0  0  0  0  0  0  0  0
   -6.0578   -1.9136   -3.5718 O   0  0  0  0  0  0  0  0  0  0  0  0
   -4.6215   -2.2911   -1.8193 N   0  0  0  0  0  0  0  0  0  0  0  0
   -4.1670   -3.5354   -2.4283 C   0  0  0  0  0  0  0  0  0  0  0  0
    4.7497    2.8878    0.7928 C   0  0  0  0  0  0  0  0  0  0  0  0
    5.9836    2.5979    0.2020 C   0  0  0  0  0  0  0  0  0  0  0  0
    7.5182   -1.3121    0.0127 H   0  0  0  0  0  0  0  0  0  0  0  0
    8.5696   -1.9302   -1.2790 H   0  0  0  0  0  0  0  0  0  0  0  0
    9.1430   -0.6606   -0.1717 H   0  0  0  0  0  0  0  0  0  0  0  0
    6.9337   -0.3185   -2.3036 H   0  0  0  0  0  0  0  0  0  0  0  0
    8.5691    0.2874   -2.3784 H   0  0  0  0  0  0  0  0  0  0  0  0
    5.2772   -0.5213   -0.9534 H   0  0  0  0  0  0  0  0  0  0  0  0
    3.1520   -0.0247    0.0552 H   0  0  0  0  0  0  0  0  0  0  0  0
    2.4847    3.2300    1.8170 H   0  0  0  0  0  0  0  0  0  0  0  0
    0.5801    2.4747    3.2476 H   0  0  0  0  0  0  0  0  0  0  0  0
    0.0983    3.2950    1.7407 H   0  0  0  0  0  0  0  0  0  0  0  0
   -1.3507    1.2908    1.1706 H   0  0  0  0  0  0  0  0  0  0  0  0
   -1.8623    2.2106    2.6059 H   0  0  0  0  0  0  0  0  0  0  0  0
   -0.2348   -0.3071    2.7283 H   0  0  0  0  0  0  0  0  0  0  0  0
   -1.8418   -2.8102    1.8433 H   0  0  0  0  0  0  0  0  0  0  0  0
   -2.7349   -3.5748   -0.2890 H   0  0  0  0  0  0  0  0  0  0  0  0
   -4.3528    0.6908    1.6713 H   0  0  0  0  0  0  0  0  0  0  0  0
   -7.4067    1.2283   -1.9841 H   0  0  0  0  0  0  0  0  0  0  0  0
   -7.8665   -0.2581   -2.8492 H   0  0  0  0  0  0  0  0  0  0  0  0
   -6.5827    0.7850   -3.5027 H   0  0  0  0  0  0  0  0  0  0  0  0
   -4.3913   -4.3705   -1.7565 H   0  0  0  0  0  0  0  0  0  0  0  0
   -4.6614   -3.7358   -3.3831 H   0  0  0  0  0  0  0  0  0  0  0  0
   -3.0906   -3.4746   -2.6176 H   0  0  0  0  0  0  0  0  0  0  0  0
    4.6247    3.8510    1.2794 H   0  0  0  0  0  0  0  0  0  0  0  0
    6.7853    3.3334    0.2421 H   0  0  0  0  0  0  0  0  0  0  0  0
  1  2  1  0
  2  3  1  0
  3  4  1  0
  4  5  2  0
  5  6  1  0
  6  7  2  0
  7  8  1  0
  8  9  1  0
  9 10  2  0
  9 11  1  0
 11 12  1  0
 12 13  1  0
 13 14  1  0
 14 15  2  0
 14 16  2  0
 14 17  1  0
 17 18  2  0
 18 19  1  0
 19 20  2  0
 20 21  1  0
 21 22  2  0
 21 23  1  0
 23 24  2  0
 23 25  1  0
 25 26  1  0
 25 27  1  0
 27 28  2  0
 27 29  1  0
 29 30  1  0
  7 31  1  0
 31 32  2  0
 32  4  1  0
 22 17  1  0
 29 20  1  0
  1 33  1  0
  1 34  1  0
  1 35  1  0
  2 36  1  0
  2 37  1  0
  5 38  1  0
  6 39  1  0
  8 40  1  0
 11 41  1  0
 11 42  1  0
 12 43  1  0
 12 44  1  0
 13 45  1  0
 18 46  1  0
 19 47  1  0
 22 48  1  0
 26 49  1  0
 26 50  1  0
 26 51  1  0
 30 52  1  0
 30 53  1  0
 30 54  1  0
 31 55  1  0
 32 56  1  0
M  END
$$$$
