
     RDKit          3D

 59 62  0  0  0  0  0  0  0  0999 V2000
   -2.2753    1.3455   -3.0671 C   0  0  0  0  0  0  0  0  0  0  0  0
   -2.4858    0.3336   -2.0754 O   0  0  0  0  0  0  0  0  0  0  0  0
   -3.7973    0.3428   -1.6606 C   0  0  0  0  0  0  0  0  0  0  0  0
   -4.6820   -0.5742   -2.2601 C   0  0  0  0  0  0  0  0  0  0  0  0
   -4.2195   -1.5293   -3.3244 C   0  0  0  0  0  0  0  0  0  0  0  0
   -6.0337   -0.5606   -1.8808 C   0  0  0  0  0  0  0  0  0  0  0  0
   -6.4807    0.3256   -0.9021 C   0  0  0  0  0  0  0  0  0  0  0  0
   -8.3048    0.3271   -0.4046 Br  0  0  0  0  0  0  0  0  0  0  0  0
   -5.5945    1.1989   -0.2761 C   0  0  0  0  0  0  0  0  0  0  0  0
   -4.2370    1.2018   -0.6343 C   0  0  0  0  0  0  0  0  0  0  0  0
   -3.3430    2.1366    0.1184 C   0  0  0  0  0  0  0  0  0  0  0  0
   -3.8436    3.1352    0.6265 O   0  0  0  0  0  0  0  0  0  0  0  0
   -2.0223    1.7636    0.1941 N   0  0  0  0  0  0  0  0  0  0  0  0
   -0.9463    2.4321    0.8146 C   0  0  0  0  0  0  0  0  0  0  0  0
   -1.0671    3.6481    1.4894 C   0  0  0  0  0  0  0  0  0  0  0  0
    0.0583    4.2442    2.0632 C   0  0  0  0  0  0  0  0  0  0  0  0
    1.3045    3.6281    1.9684 C   0  0  0  0  0  0  0  0  0  0  0  0
    1.4332    2.4093    1.2994 C   0  0  0  0  0  0  0  0  0  0  0  0
    0.3171    1.7964    0.7110 C   0  0  0  0  0  0  0  0  0  0  0  0
    0.3943    0.5428    0.0559 N   0  0  0  0  0  0  0  0  0  0  0  0
    0.4532   -0.5972    1.0058 C   0  0  0  0  0  0  0  0  0  0  0  0
    1.8684   -1.1929    1.1423 C   0  0  0  0  0  0  0  0  0  0  0  0
    2.5164   -1.4815   -0.1499 N   0  0  0  0  0  0  0  0  0  0  0  0
    3.8712   -1.8107   -0.2603 C   0  0  0  0  0  0  0  0  0  0  0  0
    4.5189   -1.7096   -1.3001 O   0  0  0  0  0  0  0  0  0  0  0  0
    4.5870   -2.2699    0.9509 C   0  0  0  0  0  0  0  0  0  0  0  0
    4.1991   -3.4436    1.6061 C   0  0  0  0  0  0  0  0  0  0  0  0
    4.8955   -3.8574    2.7425 C   0  0  0  0  0  0  0  0  0  0  0  0
    5.9816   -3.1098    3.2088 C   0  0  0  0  0  0  0  0  0  0  0  0
    6.3825   -1.9527    2.5369 C   0  0  0  0  0  0  0  0  0  0  0  0
    5.6881   -1.5332    1.4016 C   0  0  0  0  0  0  0  0  0  0  0  0
    1.8304   -0.9454   -1.3326 C   0  0  0  0  0  0  0  0  0  0  0  0
    1.3546    0.4934   -1.0751 C   0  0  0  0  0  0  0  0  0  0  0  0
   -1.2202    1.3056   -3.3635 H   0  0  0  0  0  0  0  0  0  0  0  0
   -2.8872    1.1586   -3.9570 H   0  0  0  0  0  0  0  0  0  0  0  0
   -2.4782    2.3479   -2.6721 H   0  0  0  0  0  0  0  0  0  0  0  0
   -3.2489   -1.9655   -3.0620 H   0  0  0  0  0  0  0  0  0  0  0  0
   -4.9233   -2.3637   -3.4441 H   0  0  0  0  0  0  0  0  0  0  0  0
   -4.1361   -1.0107   -4.2844 H   0  0  0  0  0  0  0  0  0  0  0  0
   -6.7364   -1.2468   -2.3498 H   0  0  0  0  0  0  0  0  0  0  0  0
   -5.9515    1.8747    0.5004 H   0  0  0  0  0  0  0  0  0  0  0  0
   -1.7276    0.9088   -0.2792 H   0  0  0  0  0  0  0  0  0  0  0  0
   -2.0226    4.1539    1.5834 H   0  0  0  0  0  0  0  0  0  0  0  0
   -0.0430    5.1919    2.5865 H   0  0  0  0  0  0  0  0  0  0  0  0
    2.1769    4.0951    2.4195 H   0  0  0  0  0  0  0  0  0  0  0  0
    2.4123    1.9420    1.2503 H   0  0  0  0  0  0  0  0  0  0  0  0
   -0.2188   -1.3719    0.6147 H   0  0  0  0  0  0  0  0  0  0  0  0
    0.0622   -0.3302    1.9971 H   0  0  0  0  0  0  0  0  0  0  0  0
    2.5148   -0.4942    1.6870 H   0  0  0  0  0  0  0  0  0  0  0  0
    1.8152   -2.1189    1.7215 H   0  0  0  0  0  0  0  0  0  0  0  0
    3.3716   -4.0383    1.2264 H   0  0  0  0  0  0  0  0  0  0  0  0
    4.6003   -4.7671    3.2603 H   0  0  0  0  0  0  0  0  0  0  0  0
    6.5301   -3.4384    4.0897 H   0  0  0  0  0  0  0  0  0  0  0  0
    7.2429   -1.3860    2.8904 H   0  0  0  0  0  0  0  0  0  0  0  0
    6.0075   -0.6418    0.8661 H   0  0  0  0  0  0  0  0  0  0  0  0
    0.9734   -1.6010   -1.5311 H   0  0  0  0  0  0  0  0  0  0  0  0
    2.4750   -0.9753   -2.2173 H   0  0  0  0  0  0  0  0  0  0  0  0
    2.2355    1.1205   -0.8943 H   0  0  0  0  0  0  0  0  0  0  0  0
    0.8548    0.8778   -1.9710 H   0  0  0  0  0  0  0  0  0  0  0  0
  1  2  1  0
  2  3  1  0
  3  4  2  0
  4  5  1  0
  4  6  1  0
  6  7  2  0
  7  8  1  0
  7  9  1  0
  9 10  2  0
 10 11  1  0
 11 12  2  0
 11 13  1  0
 13 14  1  0
 14 15  2  0
 15 16  1  0
 16 17  2  0
 17 18  1  0
 18 19  2  0
 19 20  1  0
 20 21  1  0
 21 22  1  0
 22 23  1  0
 23 24  1  0
 24 25  2  0
 24 26  1  0
 26 27  2  0
 27 28  1  0
 28 29  2  0
 29 30  1  0
 30 31  2  0
 23 32  1  0
 32 33  1  0
 10  3  1  0
 19 14  1  0
 33 20  1  0
 31 26  1  0
  1 34  1  0
  1 35  1  0
  1 36  1  0
  5 37  1  0
  5 38  1  0
  5 39  1  0
  6 40  1  0
  9 41  1  0
 13 42  1  0
 15 43  1  0
 16 44  1  0
 17 45  1  0
 18 46  1  0
 21 47  1  0
 21 48  1  0
 22 49  1  0
 22 50  1  0
 27 51  1  0
 28 52  1  0
 29 53  1  0
 30 54  1  0
 31 55  1  0
 32 56  1  0
 32 57  1  0
 33 58  1  0
 33 59  1  0
M  END
$$$$
