
     RDKit          3D

 64 67  0  0  0  0  0  0  0  0999 V2000
    3.7926   -5.6639   -4.2949 C   0  0  0  0  0  0  0  0  0  0  0  0
    4.1891   -5.6806   -2.9292 O   0  0  0  0  0  0  0  0  0  0  0  0
    4.1508   -4.4874   -2.2605 C   0  0  0  0  0  0  0  0  0  0  0  0
    4.4570   -4.5655   -0.9020 C   0  0  0  0  0  0  0  0  0  0  0  0
    4.4560   -3.4202   -0.0956 C   0  0  0  0  0  0  0  0  0  0  0  0
    4.1487   -2.1789   -0.6435 C   0  0  0  0  0  0  0  0  0  0  0  0
    4.1228   -0.9791    0.0879 N   0  0  0  0  0  0  0  0  0  0  0  0
    4.3147   -0.8013    1.4472 C   0  0  0  0  0  0  0  0  0  0  0  0
    4.5189   -1.6789    2.2834 O   0  0  0  0  0  0  0  0  0  0  0  0
    4.1870    0.6685    1.8642 C   0  0  0  0  0  0  0  0  0  0  0  0
    2.7807    1.0620    1.9566 N   0  0  0  0  0  0  0  0  0  0  0  0
    2.1417    0.8845    3.2560 C   0  0  0  0  0  0  0  0  0  0  0  0
    2.1342    1.3719    0.7754 C   0  0  0  0  0  0  0  0  0  0  0  0
    2.7133    1.4281   -0.3092 O   0  0  0  0  0  0  0  0  0  0  0  0
    0.6807    1.6130    0.8195 C   0  0  0  0  0  0  0  0  0  0  0  0
   -0.1558    0.5722    0.9480 C   0  0  0  0  0  0  0  0  0  0  0  0
   -1.5788    0.6673    0.9634 C   0  0  0  0  0  0  0  0  0  0  0  0
   -2.3778   -0.1043    1.7736 C   0  0  0  0  0  0  0  0  0  0  0  0
   -3.6779    0.2905    1.5538 N   0  0  0  0  0  0  0  0  0  0  0  0
   -4.8593   -0.2066    2.1733 C   0  0  0  0  0  0  0  0  0  0  0  0
   -6.1072    0.3036    1.7862 C   0  0  0  0  0  0  0  0  0  0  0  0
   -7.2743   -0.1687    2.3857 C   0  0  0  0  0  0  0  0  0  0  0  0
   -7.2055   -1.1457    3.3757 C   0  0  0  0  0  0  0  0  0  0  0  0
   -5.9708   -1.6593    3.7652 C   0  0  0  0  0  0  0  0  0  0  0  0
   -4.7982   -1.1948    3.1669 C   0  0  0  0  0  0  0  0  0  0  0  0
   -3.7416    1.2779    0.6280 N   0  0  0  0  0  0  0  0  0  0  0  0
   -2.4778    1.4926    0.2330 C   0  0  0  0  0  0  0  0  0  0  0  0
   -2.1851    2.4646   -0.8188 C   0  0  0  0  0  0  0  0  0  0  0  0
   -2.7488    3.7464   -0.7744 C   0  0  0  0  0  0  0  0  0  0  0  0
   -2.4372    4.6926   -1.7571 C   0  0  0  0  0  0  0  0  0  0  0  0
   -1.5725    4.3636   -2.8090 C   0  0  0  0  0  0  0  0  0  0  0  0
   -1.2033    5.3930   -3.8369 C   0  0  0  0  0  0  0  0  0  0  0  0
   -1.0174    3.0789   -2.8598 C   0  0  0  0  0  0  0  0  0  0  0  0
   -1.3278    2.1348   -1.8770 C   0  0  0  0  0  0  0  0  0  0  0  0
    3.8483   -2.1008   -2.0075 C   0  0  0  0  0  0  0  0  0  0  0  0
    3.8480   -3.2465   -2.8128 C   0  0  0  0  0  0  0  0  0  0  0  0
    3.9018   -6.6804   -4.6893 H   0  0  0  0  0  0  0  0  0  0  0  0
    4.4393   -5.0112   -4.8896 H   0  0  0  0  0  0  0  0  0  0  0  0
    2.7403   -5.3751   -4.3911 H   0  0  0  0  0  0  0  0  0  0  0  0
    4.6988   -5.5289   -0.4614 H   0  0  0  0  0  0  0  0  0  0  0  0
    4.7023   -3.5367    0.9540 H   0  0  0  0  0  0  0  0  0  0  0  0
    3.8529   -0.1442   -0.4315 H   0  0  0  0  0  0  0  0  0  0  0  0
    4.7079    1.2971    1.1322 H   0  0  0  0  0  0  0  0  0  0  0  0
    4.6809    0.8166    2.8306 H   0  0  0  0  0  0  0  0  0  0  0  0
    2.0661   -0.1850    3.4717 H   0  0  0  0  0  0  0  0  0  0  0  0
    1.1479    1.3338    3.2931 H   0  0  0  0  0  0  0  0  0  0  0  0
    2.7558    1.3695    4.0210 H   0  0  0  0  0  0  0  0  0  0  0  0
    0.3592    2.6351    0.6710 H   0  0  0  0  0  0  0  0  0  0  0  0
    0.2665   -0.4236    1.0906 H   0  0  0  0  0  0  0  0  0  0  0  0
   -2.1239   -0.8715    2.4870 H   0  0  0  0  0  0  0  0  0  0  0  0
   -6.1856    1.0644    1.0112 H   0  0  0  0  0  0  0  0  0  0  0  0
   -8.2378    0.2261    2.0756 H   0  0  0  0  0  0  0  0  0  0  0  0
   -8.1160   -1.5066    3.8413 H   0  0  0  0  0  0  0  0  0  0  0  0
   -5.9220   -2.4215    4.5407 H   0  0  0  0  0  0  0  0  0  0  0  0
   -3.8579   -1.6203    3.5023 H   0  0  0  0  0  0  0  0  0  0  0  0
   -3.4296    4.0167    0.0318 H   0  0  0  0  0  0  0  0  0  0  0  0
   -2.8734    5.6885   -1.6926 H   0  0  0  0  0  0  0  0  0  0  0  0
   -0.3710    6.0002   -3.4726 H   0  0  0  0  0  0  0  0  0  0  0  0
   -0.9069    4.9201   -4.7774 H   0  0  0  0  0  0  0  0  0  0  0  0
   -2.0541    6.0471   -4.0542 H   0  0  0  0  0  0  0  0  0  0  0  0
   -0.3376    2.8032   -3.6645 H   0  0  0  0  0  0  0  0  0  0  0  0
   -0.8926    1.1405   -1.9453 H   0  0  0  0  0  0  0  0  0  0  0  0
    3.6104   -1.1460   -2.4660 H   0  0  0  0  0  0  0  0  0  0  0  0
    3.6110   -3.1314   -3.8630 H   0  0  0  0  0  0  0  0  0  0  0  0
  1  2  1  0
  2  3  1  0
  3  4  2  0
  4  5  1  0
  5  6  2  0
  6  7  1  0
  7  8  1  0
  8  9  2  0
  8 10  1  0
 10 11  1  0
 11 12  1  0
 11 13  1  0
 13 14  2  0
 13 15  1  0
 15 16  2  3
 16 17  1  0
 17 18  2  0
 18 19  1  0
 19 20  1  0
 20 21  2  0
 21 22  1  0
 22 23  2  0
 23 24  1  0
 24 25  2  0
 19 26  1  0
 26 27  2  0
 27 28  1  0
 28 29  2  0
 29 30  1  0
 30 31  2  0
 31 32  1  0
 31 33  1  0
 33 34  2  0
  6 35  1  0
 35 36  2  0
 36  3  1  0
 27 17  1  0
 34 28  1  0
 25 20  1  0
  1 37  1  0
  1 38  1  0
  1 39  1  0
  4 40  1  0
  5 41  1  0
  7 42  1  0
 10 43  1  0
 10 44  1  0
 12 45  1  0
 12 46  1  0
 12 47  1  0
 15 48  1  0
 16 49  1  0
 18 50  1  0
 21 51  1  0
 22 52  1  0
 23 53  1  0
 24 54  1  0
 25 55  1  0
 29 56  1  0
 30 57  1  0
 32 58  1  0
 32 59  1  0
 32 60  1  0
 33 61  1  0
 34 62  1  0
 35 63  1  0
 36 64  1  0
M  END
$$$$
