
     RDKit          3D

 29 30  0  0  0  0  0  0  0  0999 V2000
    1.7373    1.5718    1.3975 C   0  0  0  0  0  0  0  0  0  0  0  0
    2.1889    0.7143    0.2715 C   0  0  0  0  0  0  0  0  0  0  0  0
    3.5044    0.5656    0.0623 N   0  0  0  0  0  0  0  0  0  0  0  0
    3.5786   -0.1789   -1.0519 N   0  0  0  0  0  0  0  0  0  0  0  0
    4.8710   -0.5147   -1.5977 C   0  0  0  0  0  0  0  0  0  0  0  0
    2.3633   -0.5316   -1.5466 C   0  0  0  0  0  0  0  0  0  0  0  0
    1.4147    0.0051   -0.6942 C   0  0  0  0  0  0  0  0  0  0  0  0
   -0.0265   -0.1453   -0.8690 C   0  0  0  0  0  0  0  0  0  0  0  0
   -0.5042   -0.3081   -1.9859 O   0  0  0  0  0  0  0  0  0  0  0  0
   -0.7349   -0.1401    0.3151 N   0  0  0  0  0  0  0  0  0  0  0  0
   -2.1358   -0.2202    0.4980 C   0  0  0  0  0  0  0  0  0  0  0  0
   -3.0475   -0.1983   -0.5614 C   0  0  0  0  0  0  0  0  0  0  0  0
   -4.4243   -0.2730   -0.3211 C   0  0  0  0  0  0  0  0  0  0  0  0
   -4.9086   -0.3671    0.9808 C   0  0  0  0  0  0  0  0  0  0  0  0
   -4.0166   -0.3848    2.0498 C   0  0  0  0  0  0  0  0  0  0  0  0
   -2.6409   -0.3102    1.8094 C   0  0  0  0  0  0  0  0  0  0  0  0
   -1.4812   -0.3376    3.3189 Br  0  0  0  0  0  0  0  0  0  0  0  0
    0.8190    2.1086    1.1405 H   0  0  0  0  0  0  0  0  0  0  0  0
    1.5520    0.9629    2.2875 H   0  0  0  0  0  0  0  0  0  0  0  0
    2.4940    2.3217    1.6521 H   0  0  0  0  0  0  0  0  0  0  0  0
    5.3923    0.4134   -1.8454 H   0  0  0  0  0  0  0  0  0  0  0  0
    4.7400   -1.1207   -2.4976 H   0  0  0  0  0  0  0  0  0  0  0  0
    5.4268   -1.0795   -0.8451 H   0  0  0  0  0  0  0  0  0  0  0  0
    2.2546   -1.1273   -2.4430 H   0  0  0  0  0  0  0  0  0  0  0  0
   -0.1953   -0.1697    1.1710 H   0  0  0  0  0  0  0  0  0  0  0  0
   -2.7235   -0.1182   -1.5947 H   0  0  0  0  0  0  0  0  0  0  0  0
   -5.1173   -0.2561   -1.1596 H   0  0  0  0  0  0  0  0  0  0  0  0
   -5.9792   -0.4251    1.1610 H   0  0  0  0  0  0  0  0  0  0  0  0
   -4.4012   -0.4569    3.0639 H   0  0  0  0  0  0  0  0  0  0  0  0
  1  2  1  0
  2  3  2  0
  3  4  1  0
  4  5  1  0
  4  6  1  0
  6  7  2  0
  7  8  1  0
  8  9  2  0
  8 10  1  0
 10 11  1  0
 11 12  2  0
 12 13  1  0
 13 14  2  0
 14 15  1  0
 15 16  2  0
 16 17  1  0
  7  2  1  0
 16 11  1  0
  1 18  1  0
  1 19  1  0
  1 20  1  0
  5 21  1  0
  5 22  1  0
  5 23  1  0
  6 24  1  0
 10 25  1  0
 12 26  1  0
 13 27  1  0
 14 28  1  0
 15 29  1  0
M  END
$$$$
