
     RDKit          3D

 52 55  0  0  0  0  0  0  0  0999 V2000
    7.5724   -0.2131   -0.7969 C   0  0  0  0  0  0  0  0  0  0  0  0
    6.1634   -0.3257   -0.3525 C   0  0  0  0  0  0  0  0  0  0  0  0
    5.3836    0.6326    0.3267 C   0  0  0  0  0  0  0  0  0  0  0  0
    4.1315    0.0637    0.4770 C   0  0  0  0  0  0  0  0  0  0  0  0
    2.9683    0.6507    1.0905 C   0  0  0  0  0  0  0  0  0  0  0  0
    3.0250    1.3678    2.0835 O   0  0  0  0  0  0  0  0  0  0  0  0
    1.7828    0.3884    0.4440 N   0  0  0  0  0  0  0  0  0  0  0  0
    0.5252    0.9225    0.9285 C   0  0  0  0  0  0  0  0  0  0  0  0
    0.0078    0.0839    2.1230 C   0  0  0  0  0  0  0  0  0  0  0  0
   -1.5145    0.2507    2.4026 C   0  0  0  0  0  0  0  0  0  0  0  0
   -1.9081   -0.6723    3.5716 C   0  0  0  0  0  0  0  0  0  0  0  0
   -1.8341    1.7022    2.8151 C   0  0  0  0  0  0  0  0  0  0  0  0
   -2.3447   -0.1556    1.1440 C   0  0  0  0  0  0  0  0  0  0  0  0
   -1.7441    0.4007   -0.1052 C   0  0  0  0  0  0  0  0  0  0  0  0
   -0.4571    0.9030   -0.1930 C   0  0  0  0  0  0  0  0  0  0  0  0
   -0.3784    1.4483   -1.4788 C   0  0  0  0  0  0  0  0  0  0  0  0
   -1.4951    1.2623   -2.1760 N   0  0  0  0  0  0  0  0  0  0  0  0
   -2.3342    0.5695   -1.3519 N   0  0  0  0  0  0  0  0  0  0  0  0
   -3.6013    0.1473   -1.8608 C   0  0  0  0  0  0  0  0  0  0  0  0
   -4.4215   -0.7716   -1.1923 C   0  0  0  0  0  0  0  0  0  0  0  0
   -5.6546   -1.1543   -1.7376 C   0  0  0  0  0  0  0  0  0  0  0  0
   -6.0753   -0.6299   -2.9567 C   0  0  0  0  0  0  0  0  0  0  0  0
   -5.2579    0.2681   -3.6280 C   0  0  0  0  0  0  0  0  0  0  0  0
   -5.6581    0.7687   -4.8041 F   0  0  0  0  0  0  0  0  0  0  0  0
   -4.0312    0.6560   -3.0993 C   0  0  0  0  0  0  0  0  0  0  0  0
    4.2658   -1.2069   -0.0245 N   0  0  0  0  0  0  0  0  0  0  0  0
    3.3182   -2.2956    0.0456 C   0  0  0  0  0  0  0  0  0  0  0  0
    5.4652   -1.4402   -0.5916 N   0  0  0  0  0  0  0  0  0  0  0  0
    8.1376   -1.1129   -0.5319 H   0  0  0  0  0  0  0  0  0  0  0  0
    7.6193   -0.0817   -1.8829 H   0  0  0  0  0  0  0  0  0  0  0  0
    8.0656    0.6447   -0.3280 H   0  0  0  0  0  0  0  0  0  0  0  0
    5.6771    1.6231    0.6475 H   0  0  0  0  0  0  0  0  0  0  0  0
    1.8010   -0.0647   -0.4586 H   0  0  0  0  0  0  0  0  0  0  0  0
    0.6819    1.9597    1.2498 H   0  0  0  0  0  0  0  0  0  0  0  0
    0.2079   -0.9803    1.9271 H   0  0  0  0  0  0  0  0  0  0  0  0
    0.5895    0.3338    3.0200 H   0  0  0  0  0  0  0  0  0  0  0  0
   -2.9794   -0.5985    3.7897 H   0  0  0  0  0  0  0  0  0  0  0  0
   -1.6868   -1.7207    3.3421 H   0  0  0  0  0  0  0  0  0  0  0  0
   -1.3614   -0.4100    4.4843 H   0  0  0  0  0  0  0  0  0  0  0  0
   -2.8913    1.8091    3.0842 H   0  0  0  0  0  0  0  0  0  0  0  0
   -1.6302    2.4191    2.0138 H   0  0  0  0  0  0  0  0  0  0  0  0
   -1.2394    2.0012    3.6855 H   0  0  0  0  0  0  0  0  0  0  0  0
   -3.3768    0.1899    1.2700 H   0  0  0  0  0  0  0  0  0  0  0  0
   -2.3532   -1.2496    1.0592 H   0  0  0  0  0  0  0  0  0  0  0  0
    0.4428    1.9839   -1.9393 H   0  0  0  0  0  0  0  0  0  0  0  0
   -4.1328   -1.2450   -0.2632 H   0  0  0  0  0  0  0  0  0  0  0  0
   -6.2817   -1.8713   -1.2126 H   0  0  0  0  0  0  0  0  0  0  0  0
   -7.0270   -0.9193   -3.3904 H   0  0  0  0  0  0  0  0  0  0  0  0
   -3.4309    1.3639   -3.6661 H   0  0  0  0  0  0  0  0  0  0  0  0
    3.8635   -3.2429    0.0713 H   0  0  0  0  0  0  0  0  0  0  0  0
    2.6820   -2.2513   -0.8412 H   0  0  0  0  0  0  0  0  0  0  0  0
    2.7239   -2.2019    0.9573 H   0  0  0  0  0  0  0  0  0  0  0  0
  1  2  1  0
  2  3  1  0
  3  4  2  0
  4  5  1  0
  5  6  2  0
  5  7  1  0
  7  8  1  0
  8  9  1  0
  9 10  1  0
 10 11  1  0
 10 12  1  0
 10 13  1  0
 13 14  1  0
 14 15  2  0
 15 16  1  0
 16 17  2  0
 17 18  1  0
 18 19  1  0
 19 20  2  0
 20 21  1  0
 21 22  2  0
 22 23  1  0
 23 24  1  0
 23 25  2  0
  4 26  1  0
 26 27  1  0
 26 28  1  0
 28  2  2  0
 15  8  1  0
 25 19  1  0
 18 14  1  0
  1 29  1  0
  1 30  1  0
  1 31  1  0
  3 32  1  0
  7 33  1  0
  8 34  1  0
  9 35  1  0
  9 36  1  0
 11 37  1  0
 11 38  1  0
 11 39  1  0
 12 40  1  0
 12 41  1  0
 12 42  1  0
 13 43  1  0
 13 44  1  0
 16 45  1  0
 20 46  1  0
 21 47  1  0
 22 48  1  0
 25 49  1  0
 27 50  1  0
 27 51  1  0
 27 52  1  0
M  END
$$$$
