
     RDKit          3D

 63 66  0  0  0  0  0  0  0  0999 V2000
   -4.7090    3.3849   -0.7778 C   0  0  0  0  0  0  0  0  0  0  0  0
   -3.6440    2.4753   -0.2288 C   0  0  0  0  0  0  0  0  0  0  0  0
   -2.8683    2.9525    0.8405 C   0  0  0  0  0  0  0  0  0  0  0  0
   -1.8077    2.2081    1.3679 C   0  0  0  0  0  0  0  0  0  0  0  0
   -1.4677    0.9777    0.8187 C   0  0  0  0  0  0  0  0  0  0  0  0
   -0.3749    0.1993    1.2502 N   0  0  0  0  0  0  0  0  0  0  0  0
    0.3822    0.3905    2.3915 C   0  0  0  0  0  0  0  0  0  0  0  0
    0.1636    1.1849    3.2980 O   0  0  0  0  0  0  0  0  0  0  0  0
    1.5484   -0.5227    2.5182 C   0  0  0  0  0  0  0  0  0  0  0  0
    1.8576   -1.0606    3.7745 C   0  0  0  0  0  0  0  0  0  0  0  0
    2.9464   -1.9234    3.9229 C   0  0  0  0  0  0  0  0  0  0  0  0
    3.7452   -2.2349    2.8222 C   0  0  0  0  0  0  0  0  0  0  0  0
    3.4489   -1.6693    1.5792 C   0  0  0  0  0  0  0  0  0  0  0  0
    4.4746   -2.0066    0.1636 S   0  0  0  0  0  6  0  0  0  0  0  0
    5.5843   -2.8235    0.6006 O   0  0  0  0  0  0  0  0  0  0  0  0
    3.5730   -2.4483   -0.8769 O   0  0  0  0  0  0  0  0  0  0  0  0
    5.0730   -0.4461   -0.2104 N   0  0  0  0  0  0  0  0  0  0  0  0
    5.9909    0.1322    0.7983 C   0  0  0  0  0  0  0  0  0  0  0  0
    5.5419   -0.2874   -1.5660 C   0  0  0  0  0  0  0  0  0  0  0  0
    5.0934    0.8312   -2.2748 C   0  0  0  0  0  0  0  0  0  0  0  0
    5.5782    1.0922   -3.5562 C   0  0  0  0  0  0  0  0  0  0  0  0
    6.5347    0.2478   -4.1221 C   0  0  0  0  0  0  0  0  0  0  0  0
    7.0105   -0.8507   -3.4044 C   0  0  0  0  0  0  0  0  0  0  0  0
    6.5245   -1.1130   -2.1221 C   0  0  0  0  0  0  0  0  0  0  0  0
    2.3510   -0.8185    1.4139 C   0  0  0  0  0  0  0  0  0  0  0  0
   -2.2254    0.4867   -0.2466 C   0  0  0  0  0  0  0  0  0  0  0  0
   -3.3301    1.2054   -0.7475 C   0  0  0  0  0  0  0  0  0  0  0  0
   -4.2394    0.4271   -2.0828 S   0  0  0  0  0  6  0  0  0  0  0  0
   -3.3206   -0.4775   -2.7500 O   0  0  0  0  0  0  0  0  0  0  0  0
   -4.9452    1.4418   -2.8360 O   0  0  0  0  0  0  0  0  0  0  0  0
   -5.3841   -0.5250   -1.2756 N   0  0  0  0  0  0  0  0  0  0  0  0
   -6.5121    0.1624   -0.5914 C   0  0  0  0  0  0  0  0  0  0  0  0
   -7.3539   -0.8559    0.1828 C   0  0  0  0  0  0  0  0  0  0  0  0
   -6.6146   -1.5160    1.2210 O   0  0  0  0  0  0  0  0  0  0  0  0
   -5.2204   -1.6700    0.9248 C   0  0  0  0  0  0  0  0  0  0  0  0
   -4.9226   -1.7556   -0.5743 C   0  0  0  0  0  0  0  0  0  0  0  0
   -4.3922    3.8042   -1.7390 H   0  0  0  0  0  0  0  0  0  0  0  0
   -5.6650    2.8756   -0.8903 H   0  0  0  0  0  0  0  0  0  0  0  0
   -4.8964    4.2251   -0.1030 H   0  0  0  0  0  0  0  0  0  0  0  0
   -3.0692    3.9328    1.2724 H   0  0  0  0  0  0  0  0  0  0  0  0
   -1.2345    2.6424    2.1825 H   0  0  0  0  0  0  0  0  0  0  0  0
   -0.1643   -0.6193    0.6927 H   0  0  0  0  0  0  0  0  0  0  0  0
    1.2454   -0.8078    4.6388 H   0  0  0  0  0  0  0  0  0  0  0  0
    3.1743   -2.3472    4.8983 H   0  0  0  0  0  0  0  0  0  0  0  0
    4.5926   -2.9046    2.9456 H   0  0  0  0  0  0  0  0  0  0  0  0
    6.1812    1.1894    0.5751 H   0  0  0  0  0  0  0  0  0  0  0  0
    6.9462   -0.3963    0.8181 H   0  0  0  0  0  0  0  0  0  0  0  0
    5.5421    0.1014    1.7927 H   0  0  0  0  0  0  0  0  0  0  0  0
    4.3595    1.4982   -1.8338 H   0  0  0  0  0  0  0  0  0  0  0  0
    5.2124    1.9514   -4.1127 H   0  0  0  0  0  0  0  0  0  0  0  0
    6.9139    0.4510   -5.1211 H   0  0  0  0  0  0  0  0  0  0  0  0
    7.7632   -1.5008   -3.8418 H   0  0  0  0  0  0  0  0  0  0  0  0
    6.9219   -1.9633   -1.5718 H   0  0  0  0  0  0  0  0  0  0  0  0
    2.1533   -0.3762    0.4400 H   0  0  0  0  0  0  0  0  0  0  0  0
   -1.9593   -0.4684   -0.6958 H   0  0  0  0  0  0  0  0  0  0  0  0
   -7.1368    0.6643   -1.3362 H   0  0  0  0  0  0  0  0  0  0  0  0
   -6.1213    0.8977    0.1173 H   0  0  0  0  0  0  0  0  0  0  0  0
   -8.2090   -0.3594    0.6558 H   0  0  0  0  0  0  0  0  0  0  0  0
   -7.7518   -1.6262   -0.4899 H   0  0  0  0  0  0  0  0  0  0  0  0
   -4.8780   -2.5791    1.4312 H   0  0  0  0  0  0  0  0  0  0  0  0
   -4.6904   -0.8232    1.3754 H   0  0  0  0  0  0  0  0  0  0  0  0
   -3.8582   -1.9391   -0.7311 H   0  0  0  0  0  0  0  0  0  0  0  0
   -5.4616   -2.6019   -1.0143 H   0  0  0  0  0  0  0  0  0  0  0  0
  1  2  1  0
  2  3  2  0
  3  4  1  0
  4  5  2  0
  5  6  1  0
  6  7  1  0
  7  8  2  0
  7  9  1  0
  9 10  2  0
 10 11  1  0
 11 12  2  0
 12 13  1  0
 13 14  1  0
 14 15  2  0
 14 16  2  0
 14 17  1  0
 17 18  1  0
 17 19  1  0
 19 20  2  0
 20 21  1  0
 21 22  2  0
 22 23  1  0
 23 24  2  0
 13 25  2  0
  5 26  1  0
 26 27  2  0
 27 28  1  0
 28 29  2  0
 28 30  2  0
 28 31  1  0
 31 32  1  0
 32 33  1  0
 33 34  1  0
 34 35  1  0
 35 36  1  0
 27  2  1  0
 36 31  1  0
 25  9  1  0
 24 19  1  0
  1 37  1  0
  1 38  1  0
  1 39  1  0
  3 40  1  0
  4 41  1  0
  6 42  1  0
 10 43  1  0
 11 44  1  0
 12 45  1  0
 18 46  1  0
 18 47  1  0
 18 48  1  0
 20 49  1  0
 21 50  1  0
 22 51  1  0
 23 52  1  0
 24 53  1  0
 25 54  1  0
 26 55  1  0
 32 56  1  0
 32 57  1  0
 33 58  1  0
 33 59  1  0
 35 60  1  0
 35 61  1  0
 36 62  1  0
 36 63  1  0
M  END
$$$$
