
     RDKit          3D

 60 65  0  0  0  0  0  0  0  0999 V2000
    1.3498   -0.7616    3.7846 O   0  0  0  0  0  0  0  0  0  0  0  0
    1.8234   -0.8412    2.6579 C   0  0  0  0  0  0  0  0  0  0  0  0
    1.1505   -0.3892    1.5290 N   0  0  0  0  0  0  0  0  0  0  0  0
    1.6539   -0.4504    0.2355 C   0  0  0  0  0  0  0  0  0  0  0  0
    0.7645    0.0976   -0.8789 C   0  0  0  0  0  0  0  0  0  0  0  0
    0.3006    1.5353   -0.5949 C   0  0  0  0  0  0  0  0  0  0  0  0
   -1.1748    1.6237   -0.2083 C   0  0  0  0  0  0  0  0  0  0  0  0
   -1.5085    0.4611    0.6427 N   0  0  0  0  0  0  0  0  0  0  0  0
   -2.7916    0.6739    1.7603 S   0  0  0  0  0  6  0  0  0  0  0  0
   -2.5485    1.9150    2.4623 O   0  0  0  0  0  0  0  0  0  0  0  0
   -2.9504   -0.5755    2.4707 O   0  0  0  0  0  0  0  0  0  0  0  0
   -4.2194    0.9063    0.7270 C   0  0  0  0  0  0  0  0  0  0  0  0
   -4.5796    2.1983    0.3255 C   0  0  0  0  0  0  0  0  0  0  0  0
   -5.7108    2.3821   -0.4712 C   0  0  0  0  0  0  0  0  0  0  0  0
   -6.4803    1.2825   -0.8495 C   0  0  0  0  0  0  0  0  0  0  0  0
   -6.1435   -0.0000   -0.4009 C   0  0  0  0  0  0  0  0  0  0  0  0
   -5.0104   -0.1942    0.3847 C   0  0  0  0  0  0  0  0  0  0  0  0
   -6.8802   -1.1164   -0.7021 O   0  0  0  0  0  0  0  0  0  0  0  0
   -8.1851   -0.7645   -1.1781 C   0  0  0  0  0  0  0  0  0  0  0  0
   -8.0921    0.3355   -2.2226 C   0  0  0  0  0  0  0  0  0  0  0  0
   -7.5635    1.5377   -1.6502 O   0  0  0  0  0  0  0  0  0  0  0  0
   -1.4989   -0.8315   -0.0945 C   0  0  0  0  0  0  0  0  0  0  0  0
   -0.4065   -0.8468   -1.1668 C   0  0  0  0  0  0  0  0  0  0  0  0
    2.8166   -0.9584   -0.0736 N   0  0  0  0  0  0  0  0  0  0  0  0
    3.4976   -1.4063    1.0102 C   0  0  0  0  0  0  0  0  0  0  0  0
    3.1089   -1.3949    2.3281 C   0  0  0  0  0  0  0  0  0  0  0  0
    4.0710   -1.9475    3.1164 N   0  0  0  0  0  0  0  0  0  0  0  0
    5.0761   -2.3110    2.3196 N   0  0  0  0  0  0  0  0  0  0  0  0
    4.7414   -1.9678    1.0513 N   0  0  0  0  0  0  0  0  0  0  0  0
    5.6308   -2.2542   -0.0538 C   0  0  0  0  0  0  0  0  0  0  0  0
    6.5034   -1.0688   -0.3828 C   0  0  0  0  0  0  0  0  0  0  0  0
    6.1204   -0.1527   -1.3766 C   0  0  0  0  0  0  0  0  0  0  0  0
    6.9222    0.9526   -1.6738 C   0  0  0  0  0  0  0  0  0  0  0  0
    8.1118    1.1560   -0.9777 C   0  0  0  0  0  0  0  0  0  0  0  0
    8.4877    0.2566    0.0126 C   0  0  0  0  0  0  0  0  0  0  0  0
    9.6295    0.4558    0.6836 F   0  0  0  0  0  0  0  0  0  0  0  0
    7.6976   -0.8470    0.3181 C   0  0  0  0  0  0  0  0  0  0  0  0
    0.2355    0.0133    1.7062 H   0  0  0  0  0  0  0  0  0  0  0  0
    1.3968    0.1286   -1.7775 H   0  0  0  0  0  0  0  0  0  0  0  0
    0.4557    2.1538   -1.4878 H   0  0  0  0  0  0  0  0  0  0  0  0
    0.9149    1.9902    0.1923 H   0  0  0  0  0  0  0  0  0  0  0  0
   -1.8061    1.6222   -1.1047 H   0  0  0  0  0  0  0  0  0  0  0  0
   -1.3413    2.5709    0.3133 H   0  0  0  0  0  0  0  0  0  0  0  0
   -3.9934    3.0622    0.6318 H   0  0  0  0  0  0  0  0  0  0  0  0
   -5.9945    3.3799   -0.7963 H   0  0  0  0  0  0  0  0  0  0  0  0
   -4.7634   -1.1935    0.7349 H   0  0  0  0  0  0  0  0  0  0  0  0
   -8.7983   -0.4564   -0.3222 H   0  0  0  0  0  0  0  0  0  0  0  0
   -8.6328   -1.6634   -1.6132 H   0  0  0  0  0  0  0  0  0  0  0  0
   -9.0856    0.5662   -2.6194 H   0  0  0  0  0  0  0  0  0  0  0  0
   -7.4493    0.0387   -3.0606 H   0  0  0  0  0  0  0  0  0  0  0  0
   -2.4641   -1.0265   -0.5698 H   0  0  0  0  0  0  0  0  0  0  0  0
   -1.3053   -1.6376    0.6223 H   0  0  0  0  0  0  0  0  0  0  0  0
   -0.8579   -0.5468   -2.1223 H   0  0  0  0  0  0  0  0  0  0  0  0
   -0.0540   -1.8755   -1.3100 H   0  0  0  0  0  0  0  0  0  0  0  0
    6.2415   -3.1250    0.2124 H   0  0  0  0  0  0  0  0  0  0  0  0
    5.0198   -2.5460   -0.9158 H   0  0  0  0  0  0  0  0  0  0  0  0
    5.1876   -0.2912   -1.9213 H   0  0  0  0  0  0  0  0  0  0  0  0
    6.6166    1.6559   -2.4443 H   0  0  0  0  0  0  0  0  0  0  0  0
    8.7449    2.0101   -1.1950 H   0  0  0  0  0  0  0  0  0  0  0  0
    8.0193   -1.5202    1.1089 H   0  0  0  0  0  0  0  0  0  0  0  0
  1  2  2  0
  2  3  1  0
  3  4  1  0
  4  5  1  0
  5  6  1  0
  6  7  1  0
  7  8  1  0
  8  9  1  0
  9 10  2  0
  9 11  2  0
  9 12  1  0
 12 13  2  0
 13 14  1  0
 14 15  2  0
 15 16  1  0
 16 17  2  0
 16 18  1  0
 18 19  1  0
 19 20  1  0
 20 21  1  0
  8 22  1  0
 22 23  1  0
  4 24  2  0
 24 25  1  0
 25 26  2  0
 26 27  1  0
 27 28  2  0
 28 29  1  0
 29 30  1  0
 30 31  1  0
 31 32  2  0
 32 33  1  0
 33 34  2  0
 34 35  1  0
 35 36  1  0
 35 37  2  0
 26  2  1  0
 37 31  1  0
 23  5  1  0
 29 25  1  0
 17 12  1  0
 21 15  1  0
  3 38  1  0
  5 39  1  0
  6 40  1  0
  6 41  1  0
  7 42  1  0
  7 43  1  0
 13 44  1  0
 14 45  1  0
 17 46  1  0
 19 47  1  0
 19 48  1  0
 20 49  1  0
 20 50  1  0
 22 51  1  0
 22 52  1  0
 23 53  1  0
 23 54  1  0
 30 55  1  0
 30 56  1  0
 32 57  1  0
 33 58  1  0
 34 59  1  0
 37 60  1  0
M  END
$$$$
