
     RDKit          3D

 61 63  0  0  0  0  0  0  0  0999 V2000
   -8.2614   -4.0146    2.6562 C   0  0  0  0  0  0  0  0  0  0  0  0
   -7.7439   -2.7126    2.8974 O   0  0  0  0  0  0  0  0  0  0  0  0
   -7.3804   -1.9790    1.8019 C   0  0  0  0  0  0  0  0  0  0  0  0
   -7.4649   -2.3912    0.4721 C   0  0  0  0  0  0  0  0  0  0  0  0
   -7.0554   -1.5362   -0.5583 C   0  0  0  0  0  0  0  0  0  0  0  0
   -6.5631   -0.2560   -0.2726 C   0  0  0  0  0  0  0  0  0  0  0  0
   -6.0966    0.6555   -1.3773 C   0  0  0  0  0  0  0  0  0  0  0  0
   -4.6927    0.4716   -1.6348 N   0  0  0  0  0  0  0  0  0  0  0  0
   -3.7294    1.2534   -1.0436 C   0  0  0  0  0  0  0  0  0  0  0  0
   -3.9178    2.2565   -0.3702 O   0  0  0  0  0  0  0  0  0  0  0  0
   -2.2913    0.7394   -1.2833 C   0  0  0  0  0  0  0  0  0  0  0  0
   -2.1088   -0.3213   -1.8639 O   0  0  0  0  0  0  0  0  0  0  0  0
   -1.3165    1.5640   -0.7731 N   0  0  0  0  0  0  0  0  0  0  0  0
    0.0695    1.1384   -0.6846 C   0  0  0  0  0  0  0  0  0  0  0  0
    1.0255    2.3062   -0.3778 C   0  0  0  0  0  0  0  0  0  0  0  0
    0.6146    2.9251    0.8653 O   0  0  0  0  0  0  0  0  0  0  0  0
    1.6016    2.5969    1.8463 C   0  0  0  0  0  0  0  0  0  0  0  0
    2.8822    2.4614    1.0572 C   0  0  0  0  0  0  0  0  0  0  0  0
    2.4065    1.8171   -0.1752 N   0  0  0  0  0  0  0  0  0  0  0  0
    3.3806    1.9363   -1.5473 S   0  0  0  0  0  6  0  0  0  0  0  0
    3.7438    3.3270   -1.7127 O   0  0  0  0  0  0  0  0  0  0  0  0
    2.7416    1.1958   -2.6119 O   0  0  0  0  0  0  0  0  0  0  0  0
    4.8246    1.0294   -1.0589 C   0  0  0  0  0  0  0  0  0  0  0  0
    6.0269    1.6964   -0.8279 C   0  0  0  0  0  0  0  0  0  0  0  0
    7.1505    0.9666   -0.4358 C   0  0  0  0  0  0  0  0  0  0  0  0
    7.0748   -0.4241   -0.2828 C   0  0  0  0  0  0  0  0  0  0  0  0
    8.1257   -1.2178    0.1054 O   0  0  0  0  0  0  0  0  0  0  0  0
    9.3917   -0.5990    0.2826 C   0  0  0  0  0  0  0  0  0  0  0  0
    5.8558   -1.0923   -0.5336 C   0  0  0  0  0  0  0  0  0  0  0  0
    5.8664   -2.4541   -0.3588 O   0  0  0  0  0  0  0  0  0  0  0  0
    4.7156   -3.1800   -0.7694 C   0  0  0  0  0  0  0  0  0  0  0  0
    4.7317   -0.3594   -0.9227 C   0  0  0  0  0  0  0  0  0  0  0  0
   -6.4707    0.1473    1.0649 C   0  0  0  0  0  0  0  0  0  0  0  0
   -6.8802   -0.7078    2.0904 C   0  0  0  0  0  0  0  0  0  0  0  0
   -7.5141   -4.6531    2.1733 H   0  0  0  0  0  0  0  0  0  0  0  0
   -8.5052   -4.4622    3.6247 H   0  0  0  0  0  0  0  0  0  0  0  0
   -9.1842   -3.9703    2.0682 H   0  0  0  0  0  0  0  0  0  0  0  0
   -7.8414   -3.3715    0.2006 H   0  0  0  0  0  0  0  0  0  0  0  0
   -7.1238   -1.8804   -1.5880 H   0  0  0  0  0  0  0  0  0  0  0  0
   -6.3035    1.7012   -1.1221 H   0  0  0  0  0  0  0  0  0  0  0  0
   -6.6344    0.4345   -2.3057 H   0  0  0  0  0  0  0  0  0  0  0  0
   -4.3681   -0.3993   -2.0451 H   0  0  0  0  0  0  0  0  0  0  0  0
   -1.6415    2.3027   -0.1504 H   0  0  0  0  0  0  0  0  0  0  0  0
    0.3436    0.6320   -1.6156 H   0  0  0  0  0  0  0  0  0  0  0  0
    0.1108    0.3930    0.1189 H   0  0  0  0  0  0  0  0  0  0  0  0
    0.9594    3.0806   -1.1496 H   0  0  0  0  0  0  0  0  0  0  0  0
    1.3151    1.6510    2.3196 H   0  0  0  0  0  0  0  0  0  0  0  0
    1.6499    3.3778    2.6096 H   0  0  0  0  0  0  0  0  0  0  0  0
    3.2960    3.4530    0.8462 H   0  0  0  0  0  0  0  0  0  0  0  0
    3.6214    1.8552    1.5855 H   0  0  0  0  0  0  0  0  0  0  0  0
    6.1013    2.7751   -0.9491 H   0  0  0  0  0  0  0  0  0  0  0  0
    8.0722    1.5112   -0.2577 H   0  0  0  0  0  0  0  0  0  0  0  0
   10.1105   -1.3792    0.5514 H   0  0  0  0  0  0  0  0  0  0  0  0
    9.3650    0.1246    1.1038 H   0  0  0  0  0  0  0  0  0  0  0  0
    9.7386   -0.1331   -0.6456 H   0  0  0  0  0  0  0  0  0  0  0  0
    4.9285   -4.2454   -0.6393 H   0  0  0  0  0  0  0  0  0  0  0  0
    3.8529   -2.9348   -0.1416 H   0  0  0  0  0  0  0  0  0  0  0  0
    4.4958   -3.0115   -1.8289 H   0  0  0  0  0  0  0  0  0  0  0  0
    3.7780   -0.8392   -1.1195 H   0  0  0  0  0  0  0  0  0  0  0  0
   -6.0741    1.1296    1.3163 H   0  0  0  0  0  0  0  0  0  0  0  0
   -6.8053   -0.3806    3.1245 H   0  0  0  0  0  0  0  0  0  0  0  0
  1  2  1  0
  2  3  1  0
  3  4  2  0
  4  5  1  0
  5  6  2  0
  6  7  1  0
  7  8  1  0
  8  9  1  0
  9 10  2  0
  9 11  1  0
 11 12  2  0
 11 13  1  0
 13 14  1  0
 14 15  1  0
 15 16  1  0
 16 17  1  0
 17 18  1  0
 18 19  1  0
 19 20  1  0
 20 21  2  0
 20 22  2  0
 20 23  1  0
 23 24  2  0
 24 25  1  0
 25 26  2  0
 26 27  1  0
 27 28  1  0
 26 29  1  0
 29 30  1  0
 30 31  1  0
 29 32  2  0
  6 33  1  0
 33 34  2  0
 34  3  1  0
 19 15  1  0
 32 23  1  0
  1 35  1  0
  1 36  1  0
  1 37  1  0
  4 38  1  0
  5 39  1  0
  7 40  1  0
  7 41  1  0
  8 42  1  0
 13 43  1  0
 14 44  1  0
 14 45  1  0
 15 46  1  0
 17 47  1  0
 17 48  1  0
 18 49  1  0
 18 50  1  0
 24 51  1  0
 25 52  1  0
 28 53  1  0
 28 54  1  0
 28 55  1  0
 31 56  1  0
 31 57  1  0
 31 58  1  0
 32 59  1  0
 33 60  1  0
 34 61  1  0
M  END
$$$$
