
     RDKit          3D

 50 54  0  0  0  0  0  0  0  0999 V2000
   -4.6057   -0.0473   -1.7924 C   0  0  0  0  0  0  0  0  0  0  0  0
   -4.1672   -1.0795   -0.7954 C   0  0  0  0  0  0  0  0  0  0  0  0
   -4.9401   -2.1086   -0.4031 C   0  0  0  0  0  0  0  0  0  0  0  0
   -4.4700   -3.0731    0.5570 C   0  0  0  0  0  0  0  0  0  0  0  0
   -3.2424   -2.9529    1.0728 C   0  0  0  0  0  0  0  0  0  0  0  0
   -2.3929   -1.9132    0.7059 N   0  0  0  0  0  0  0  0  0  0  0  0
   -1.1348   -1.8398    1.2791 C   0  0  0  0  0  0  0  0  0  0  0  0
   -0.7041   -2.6371    2.1102 O   0  0  0  0  0  0  0  0  0  0  0  0
   -0.2738   -0.7116    0.8279 C   0  0  0  0  0  0  0  0  0  0  0  0
    1.0746   -0.5854    1.3528 C   0  0  0  0  0  0  0  0  0  0  0  0
    1.9027    0.4165    0.9919 C   0  0  0  0  0  0  0  0  0  0  0  0
    3.4988    0.4402    1.6699 S   0  0  0  0  0  6  0  0  0  0  0  0
    4.3630    1.5026    1.1876 O   0  0  0  0  0  0  0  0  0  0  0  0
    3.4023    0.1829    3.1067 O   0  0  0  0  0  0  0  0  0  0  0  0
    4.1925   -1.0564    0.9478 C   0  0  0  0  0  0  0  0  0  0  0  0
    4.5180   -1.0632   -0.4164 C   0  0  0  0  0  0  0  0  0  0  0  0
    5.0405   -2.2289   -0.9880 C   0  0  0  0  0  0  0  0  0  0  0  0
    5.2374   -3.3593   -0.1924 C   0  0  0  0  0  0  0  0  0  0  0  0
    5.7339   -4.4746   -0.7469 F   0  0  0  0  0  0  0  0  0  0  0  0
    4.9304   -3.3491    1.1670 C   0  0  0  0  0  0  0  0  0  0  0  0
    4.4094   -2.1884    1.7491 C   0  0  0  0  0  0  0  0  0  0  0  0
    1.3489    1.4425    0.0466 C   0  0  0  0  0  0  0  0  0  0  0  0
    2.0740    2.4989   -0.1884 N   0  0  0  0  0  0  0  0  0  0  0  0
    0.0805    1.2299   -0.5255 N   0  0  0  0  0  0  0  0  0  0  0  0
   -0.4211    2.1380   -1.5750 C   0  0  0  0  0  0  0  0  0  0  0  0
   -1.0079    3.4144   -1.0667 C   0  0  0  0  0  0  0  0  0  0  0  0
   -2.2100    3.7320   -0.4638 C   0  0  0  0  0  0  0  0  0  0  0  0
   -2.1688    5.1274   -0.2027 C   0  0  0  0  0  0  0  0  0  0  0  0
   -0.9478    5.5718   -0.6655 C   0  0  0  0  0  0  0  0  0  0  0  0
   -0.2376    4.5413   -1.1901 O   0  0  0  0  0  0  0  0  0  0  0  0
   -0.7560    0.1651   -0.0915 C   0  0  0  0  0  0  0  0  0  0  0  0
   -2.0274    0.0339   -0.5999 N   0  0  0  0  0  0  0  0  0  0  0  0
   -2.7835   -0.9507   -0.2169 C   0  0  0  0  0  0  0  0  0  0  0  0
   -3.9411   -0.0496   -2.6678 H   0  0  0  0  0  0  0  0  0  0  0  0
   -4.5930    0.9536   -1.3444 H   0  0  0  0  0  0  0  0  0  0  0  0
   -5.6241   -0.2350   -2.1513 H   0  0  0  0  0  0  0  0  0  0  0  0
   -5.9427   -2.2433   -0.7967 H   0  0  0  0  0  0  0  0  0  0  0  0
   -5.1254   -3.8901    0.8516 H   0  0  0  0  0  0  0  0  0  0  0  0
   -2.8678   -3.6719    1.8020 H   0  0  0  0  0  0  0  0  0  0  0  0
    1.3935   -1.3516    2.0656 H   0  0  0  0  0  0  0  0  0  0  0  0
    4.3770   -0.1703   -1.0290 H   0  0  0  0  0  0  0  0  0  0  0  0
    5.3018   -2.2637   -2.0435 H   0  0  0  0  0  0  0  0  0  0  0  0
    5.1007   -4.2398    1.7658 H   0  0  0  0  0  0  0  0  0  0  0  0
    4.1811   -2.1757    2.8184 H   0  0  0  0  0  0  0  0  0  0  0  0
    1.6006    3.2025   -0.7719 H   0  0  0  0  0  0  0  0  0  0  0  0
    0.3923    2.3638   -2.2800 H   0  0  0  0  0  0  0  0  0  0  0  0
   -1.1684    1.6399   -2.2078 H   0  0  0  0  0  0  0  0  0  0  0  0
   -3.0088    3.0333   -0.2354 H   0  0  0  0  0  0  0  0  0  0  0  0
   -2.9323    5.7383    0.2648 H   0  0  0  0  0  0  0  0  0  0  0  0
   -0.4595    6.5412   -0.6920 H   0  0  0  0  0  0  0  0  0  0  0  0
  1  2  1  0
  2  3  2  0
  3  4  1  0
  4  5  2  0
  5  6  1  0
  6  7  1  0
  7  8  2  0
  7  9  1  0
  9 10  1  0
 10 11  2  0
 11 12  1  0
 12 13  2  0
 12 14  2  0
 12 15  1  0
 15 16  2  0
 16 17  1  0
 17 18  2  0
 18 19  1  0
 18 20  1  0
 20 21  2  0
 11 22  1  0
 22 23  2  3
 22 24  1  0
 24 25  1  0
 25 26  1  0
 26 27  2  0
 27 28  1  0
 28 29  2  0
 29 30  1  0
 24 31  1  0
 31 32  1  0
 32 33  2  0
 33  2  1  0
 33  6  1  0
 31  9  2  0
 21 15  1  0
 30 26  1  0
  1 34  1  0
  1 35  1  0
  1 36  1  0
  3 37  1  0
  4 38  1  0
  5 39  1  0
 10 40  1  0
 16 41  1  0
 17 42  1  0
 20 43  1  0
 21 44  1  0
 23 45  1  0
 25 46  1  0
 25 47  1  0
 27 48  1  0
 28 49  1  0
 29 50  1  0
M  END
$$$$
