
     RDKit          3D

 60 66  0  0  0  0  0  0  0  0999 V2000
   -1.2420    3.9715    3.1542 O   0  0  0  0  0  0  0  0  0  0  0  0
   -1.2172    3.8576    1.9374 C   0  0  0  0  0  0  0  0  0  0  0  0
   -1.9515    4.6409    1.0491 N   0  0  0  0  0  0  0  0  0  0  0  0
   -1.6580    4.3157   -0.2683 C   0  0  0  0  0  0  0  0  0  0  0  0
   -2.1917    4.9015   -1.3975 C   0  0  0  0  0  0  0  0  0  0  0  0
   -1.7711    4.4115   -2.6345 C   0  0  0  0  0  0  0  0  0  0  0  0
   -0.8407    3.3616   -2.7105 C   0  0  0  0  0  0  0  0  0  0  0  0
   -0.3099    2.7867   -1.5515 C   0  0  0  0  0  0  0  0  0  0  0  0
   -0.7243    3.2744   -0.3220 C   0  0  0  0  0  0  0  0  0  0  0  0
   -0.3666    2.8727    1.0821 C   0  0  0  0  0  0  0  0  0  0  0  0
    1.0929    2.9629    1.4512 N   0  0  0  0  0  0  0  0  0  0  0  0
    1.6446    1.5564    1.6373 C   0  0  2  0  0  0  0  0  0  0  0  0
    2.6773    1.2741    0.5330 C   0  0  0  0  0  0  0  0  0  0  0  0
    3.3168   -0.0812    0.6018 C   0  0  0  0  0  0  0  0  0  0  0  0
    4.2502   -0.5050    1.5266 C   0  0  0  0  0  0  0  0  0  0  0  0
    4.5662   -1.8085    1.2519 N   0  0  0  0  0  0  0  0  0  0  0  0
    3.8786   -2.2455    0.1457 C   0  0  0  0  0  0  0  0  0  0  0  0
    3.9005   -3.4882   -0.4952 C   0  0  0  0  0  0  0  0  0  0  0  0
    3.0837   -3.6541   -1.6199 C   0  0  0  0  0  0  0  0  0  0  0  0
    2.2782   -2.6156   -2.0782 C   0  0  0  0  0  0  0  0  0  0  0  0
    2.2661   -1.3789   -1.4191 C   0  0  0  0  0  0  0  0  0  0  0  0
    3.0834   -1.1841   -0.2867 C   0  0  0  0  0  0  0  0  0  0  0  0
    0.4243    0.7213    1.6049 C   0  0  0  0  0  0  0  0  0  0  0  0
   -0.7125    1.4590    1.2704 C   0  0  0  0  0  0  0  0  0  0  0  0
   -1.7884    0.6124    1.2520 C   0  0  0  0  0  0  0  0  0  0  0  0
   -3.0721    0.8076    0.9856 O   0  0  0  0  0  0  0  0  0  0  0  0
   -1.3085   -0.6440    1.5989 N   0  0  0  0  0  0  0  0  0  0  0  0
   -2.1604   -1.8183    1.7458 C   0  0  0  0  0  0  0  0  0  0  0  0
   -2.4335   -2.5058    0.4282 C   0  0  0  0  0  0  0  0  0  0  0  0
   -1.3936   -2.9614   -0.3945 C   0  0  0  0  0  0  0  0  0  0  0  0
   -1.6732   -3.6165   -1.5953 C   0  0  0  0  0  0  0  0  0  0  0  0
   -2.9929   -3.8302   -1.9873 C   0  0  0  0  0  0  0  0  0  0  0  0
   -4.0339   -3.3896   -1.1795 C   0  0  0  0  0  0  0  0  0  0  0  0
   -3.7580   -2.7335    0.0221 C   0  0  0  0  0  0  0  0  0  0  0  0
    0.0541   -0.5713    1.8639 C   0  0  0  0  0  0  0  0  0  0  0  0
    0.8001   -1.5825    2.2938 O   0  0  0  0  0  0  0  0  0  0  0  0
   -2.5677    5.3790    1.3531 H   0  0  0  0  0  0  0  0  0  0  0  0
   -2.9108    5.7096   -1.3381 H   0  0  0  0  0  0  0  0  0  0  0  0
   -2.1657    4.8437   -3.5517 H   0  0  0  0  0  0  0  0  0  0  0  0
   -0.5307    2.9910   -3.6845 H   0  0  0  0  0  0  0  0  0  0  0  0
    0.3980    1.9690   -1.6219 H   0  0  0  0  0  0  0  0  0  0  0  0
    1.0924    3.3631    2.3940 H   0  0  0  0  0  0  0  0  0  0  0  0
    2.1179    1.4971    2.6253 H   0  0  0  0  0  0  0  0  0  0  0  0
    3.4754    2.0261    0.5927 H   0  0  0  0  0  0  0  0  0  0  0  0
    2.2264    1.4027   -0.4557 H   0  0  0  0  0  0  0  0  0  0  0  0
    4.7019    0.0052    2.3649 H   0  0  0  0  0  0  0  0  0  0  0  0
    5.2119   -2.3748    1.7846 H   0  0  0  0  0  0  0  0  0  0  0  0
    4.5294   -4.2980   -0.1415 H   0  0  0  0  0  0  0  0  0  0  0  0
    3.0810   -4.6087   -2.1443 H   0  0  0  0  0  0  0  0  0  0  0  0
    1.6518   -2.7622   -2.9566 H   0  0  0  0  0  0  0  0  0  0  0  0
    1.6287   -0.5788   -1.7809 H   0  0  0  0  0  0  0  0  0  0  0  0
   -3.1710    1.7267    0.6792 H   0  0  0  0  0  0  0  0  0  0  0  0
   -3.0884   -1.4850    2.2255 H   0  0  0  0  0  0  0  0  0  0  0  0
   -1.6870   -2.5182    2.4421 H   0  0  0  0  0  0  0  0  0  0  0  0
   -0.3513   -2.7996   -0.1222 H   0  0  0  0  0  0  0  0  0  0  0  0
   -0.8579   -3.9543   -2.2272 H   0  0  0  0  0  0  0  0  0  0  0  0
   -3.2059   -4.3371   -2.9248 H   0  0  0  0  0  0  0  0  0  0  0  0
   -5.0627   -3.5523   -1.4864 H   0  0  0  0  0  0  0  0  0  0  0  0
   -4.5859   -2.3907    0.6356 H   0  0  0  0  0  0  0  0  0  0  0  0
    0.3531   -2.4273    2.1332 H   0  0  0  0  0  0  0  0  0  0  0  0
  1  2  2  0
  2  3  1  0
  3  4  1  0
  4  5  2  0
  5  6  1  0
  6  7  2  0
  7  8  1  0
  8  9  2  0
  9 10  1  0
 10 11  1  0
 11 12  1  0
 12 13  1  0
 13 14  1  0
 14 15  2  0
 15 16  1  0
 16 17  1  0
 17 18  2  0
 18 19  1  0
 19 20  2  0
 20 21  1  0
 21 22  2  0
 12 23  1  0
 23 24  1  0
 24 25  2  0
 25 26  1  0
 25 27  1  0
 27 28  1  0
 28 29  1  0
 29 30  2  0
 30 31  1  0
 31 32  2  0
 32 33  1  0
 33 34  2  0
 27 35  1  0
 35 36  1  0
 10  2  1  0
 22 14  1  0
 35 23  2  0
  9  4  1  0
 24 10  1  0
 34 29  1  0
 22 17  1  0
  3 37  1  0
  5 38  1  0
  6 39  1  0
  7 40  1  0
  8 41  1  0
 11 42  1  0
 12 43  1  1
 13 44  1  0
 13 45  1  0
 15 46  1  0
 16 47  1  0
 18 48  1  0
 19 49  1  0
 20 50  1  0
 21 51  1  0
 26 52  1  0
 28 53  1  0
 28 54  1  0
 30 55  1  0
 31 56  1  0
 32 57  1  0
 33 58  1  0
 34 59  1  0
 36 60  1  0
M  END
$$$$
