
     RDKit          3D

 43 45  0  0  0  0  0  0  0  0999 V2000
    1.9814   -1.7738    3.2002 O   0  0  0  0  0  0  0  0  0  0  0  0
    2.5601   -0.9055    2.5532 C   0  0  0  0  0  0  0  0  0  0  0  0
    4.0585   -0.6840    2.7092 C   0  0  0  0  0  0  0  0  0  0  0  0
    5.0080   -1.7377    1.5643 S   0  0  0  0  0  0  0  0  0  0  0  0
    4.6343   -0.9370    0.0148 C   0  0  0  0  0  0  0  0  0  0  0  0
    5.1940    0.3110   -0.2845 C   0  0  0  0  0  0  0  0  0  0  0  0
    4.8797    0.9557   -1.4845 C   0  0  0  0  0  0  0  0  0  0  0  0
    4.0099    0.3564   -2.3959 C   0  0  0  0  0  0  0  0  0  0  0  0
    3.4606   -0.8928   -2.1124 C   0  0  0  0  0  0  0  0  0  0  0  0
    3.7790   -1.5336   -0.9176 C   0  0  0  0  0  0  0  0  0  0  0  0
    3.2275   -2.7308   -0.6706 F   0  0  0  0  0  0  0  0  0  0  0  0
    1.9771   -0.0301    1.6478 N   0  0  0  0  0  0  0  0  0  0  0  0
    0.6265    0.0233    1.2505 C   0  0  0  0  0  0  0  0  0  0  0  0
    0.2841    0.9549    0.2699 C   0  0  0  0  0  0  0  0  0  0  0  0
   -1.0397    1.0688   -0.1804 C   0  0  0  0  0  0  0  0  0  0  0  0
   -2.0699    0.2634    0.3248 C   0  0  0  0  0  0  0  0  0  0  0  0
   -3.3737    0.3834   -0.1184 N   0  0  0  0  0  0  0  0  0  0  0  0
   -4.5100   -0.1775    0.6303 C   0  0  0  0  0  0  0  0  0  0  0  0
   -5.8033    0.5672    0.2572 C   0  0  0  0  0  0  0  0  0  0  0  0
   -6.1353    0.5070   -1.1374 O   0  0  0  0  0  0  0  0  0  0  0  0
   -4.9904    0.3411   -1.9848 C   0  0  0  0  0  0  0  0  0  0  0  0
   -3.7019    0.9704   -1.4278 C   0  0  0  0  0  0  0  0  0  0  0  0
   -1.6993   -0.6619    1.3113 C   0  0  0  0  0  0  0  0  0  0  0  0
   -0.3768   -0.7859    1.7683 C   0  0  0  0  0  0  0  0  0  0  0  0
    4.3142    0.3718    2.5736 H   0  0  0  0  0  0  0  0  0  0  0  0
    4.3339   -0.9476    3.7359 H   0  0  0  0  0  0  0  0  0  0  0  0
    5.8874    0.7864    0.4060 H   0  0  0  0  0  0  0  0  0  0  0  0
    5.3233    1.9224   -1.7139 H   0  0  0  0  0  0  0  0  0  0  0  0
    3.7695    0.8558   -3.3317 H   0  0  0  0  0  0  0  0  0  0  0  0
    2.7865   -1.3766   -2.8130 H   0  0  0  0  0  0  0  0  0  0  0  0
    2.5965    0.6071    1.1637 H   0  0  0  0  0  0  0  0  0  0  0  0
    1.0333    1.6120   -0.1630 H   0  0  0  0  0  0  0  0  0  0  0  0
   -1.2517    1.8287   -0.9272 H   0  0  0  0  0  0  0  0  0  0  0  0
   -4.3617   -0.0721    1.7111 H   0  0  0  0  0  0  0  0  0  0  0  0
   -4.6088   -1.2420    0.3876 H   0  0  0  0  0  0  0  0  0  0  0  0
   -5.7209    1.6263    0.5293 H   0  0  0  0  0  0  0  0  0  0  0  0
   -6.6499    0.1532    0.8141 H   0  0  0  0  0  0  0  0  0  0  0  0
   -5.2345    0.7832   -2.9561 H   0  0  0  0  0  0  0  0  0  0  0  0
   -4.8491   -0.7347   -2.1435 H   0  0  0  0  0  0  0  0  0  0  0  0
   -3.8374    2.0512   -1.3055 H   0  0  0  0  0  0  0  0  0  0  0  0
   -2.9027    0.7951   -2.1569 H   0  0  0  0  0  0  0  0  0  0  0  0
   -2.4335   -1.3380    1.7409 H   0  0  0  0  0  0  0  0  0  0  0  0
   -0.1750   -1.5342    2.5281 H   0  0  0  0  0  0  0  0  0  0  0  0
  1  2  2  0
  2  3  1  0
  3  4  1  0
  4  5  1  0
  5  6  2  0
  6  7  1  0
  7  8  2  0
  8  9  1  0
  9 10  2  0
 10 11  1  0
  2 12  1  0
 12 13  1  0
 13 14  2  0
 14 15  1  0
 15 16  2  0
 16 17  1  0
 17 18  1  0
 18 19  1  0
 19 20  1  0
 20 21  1  0
 21 22  1  0
 16 23  1  0
 23 24  2  0
 10  5  1  0
 24 13  1  0
 22 17  1  0
  3 25  1  0
  3 26  1  0
  6 27  1  0
  7 28  1  0
  8 29  1  0
  9 30  1  0
 12 31  1  0
 14 32  1  0
 15 33  1  0
 18 34  1  0
 18 35  1  0
 19 36  1  0
 19 37  1  0
 21 38  1  0
 21 39  1  0
 22 40  1  0
 22 41  1  0
 23 42  1  0
 24 43  1  0
M  END
$$$$
