
     RDKit          3D

 51 54  0  0  0  0  0  0  0  0999 V2000
    5.8931   -0.8487   -1.5041 C   0  0  0  0  0  0  0  0  0  0  0  0
    5.4188    0.5039   -2.0126 C   0  0  0  0  0  0  0  0  0  0  0  0
    4.0259    0.8241   -1.5363 C   0  0  0  0  0  0  0  0  0  0  0  0
    3.8218    1.4853   -0.3236 C   0  0  0  0  0  0  0  0  0  0  0  0
    2.5255    1.7688    0.1248 C   0  0  0  0  0  0  0  0  0  0  0  0
    1.3932    1.3966   -0.6185 C   0  0  0  0  0  0  0  0  0  0  0  0
    0.0527    1.6855   -0.1422 N   0  0  0  0  0  0  0  0  0  0  0  0
   -0.1572    2.8743    0.5675 C   0  0  0  0  0  0  0  0  0  0  0  0
    0.6652    3.7783    0.7187 O   0  0  0  0  0  0  0  0  0  0  0  0
   -1.4921    3.0922    1.1469 C   0  0  0  0  0  0  0  0  0  0  0  0
   -1.7075    4.2021    1.9831 C   0  0  0  0  0  0  0  0  0  0  0  0
   -2.9625    4.4307    2.5377 C   0  0  0  0  0  0  0  0  0  0  0  0
   -4.0001    3.5507    2.2588 C   0  0  0  0  0  0  0  0  0  0  0  0
   -3.7837    2.4504    1.4215 C   0  0  0  0  0  0  0  0  0  0  0  0
   -2.5243    2.2108    0.8474 C   0  0  0  0  0  0  0  0  0  0  0  0
   -2.2645    1.1116   -0.0072 N   0  0  0  0  0  0  0  0  0  0  0  0
   -3.3401    0.1897   -0.3900 C   0  0  0  0  0  0  0  0  0  0  0  0
   -3.4691   -0.9410    0.6307 C   0  0  0  0  0  0  0  0  0  0  0  0
   -4.2589   -0.8947    1.5700 O   0  0  0  0  0  0  0  0  0  0  0  0
   -2.5812   -1.9741    0.4339 N   0  0  0  0  0  0  0  0  0  0  0  0
   -2.4459   -3.0264    1.4120 C   0  0  0  0  0  0  0  0  0  0  0  0
   -1.4806   -4.0320    0.9094 C   0  0  0  0  0  0  0  0  0  0  0  0
   -0.1184   -4.0078    0.6835 C   0  0  0  0  0  0  0  0  0  0  0  0
    0.2282   -5.2890    0.1916 C   0  0  0  0  0  0  0  0  0  0  0  0
   -0.9400   -6.0122    0.1500 C   0  0  0  0  0  0  0  0  0  0  0  0
   -1.9824   -5.2583    0.5839 O   0  0  0  0  0  0  0  0  0  0  0  0
   -0.9749    0.7759   -0.4221 C   0  0  0  0  0  0  0  0  0  0  0  0
   -0.7972   -0.3233   -0.9630 O   0  0  0  0  0  0  0  0  0  0  0  0
    1.6161    0.7299   -1.8344 C   0  0  0  0  0  0  0  0  0  0  0  0
    2.9110    0.4445   -2.2863 C   0  0  0  0  0  0  0  0  0  0  0  0
    5.2379   -1.6553   -1.8498 H   0  0  0  0  0  0  0  0  0  0  0  0
    6.9053   -1.0552   -1.8660 H   0  0  0  0  0  0  0  0  0  0  0  0
    5.9118   -0.8774   -0.4093 H   0  0  0  0  0  0  0  0  0  0  0  0
    6.1111    1.2878   -1.6822 H   0  0  0  0  0  0  0  0  0  0  0  0
    5.4466    0.5178   -3.1089 H   0  0  0  0  0  0  0  0  0  0  0  0
    4.6694    1.7865    0.2883 H   0  0  0  0  0  0  0  0  0  0  0  0
    2.4282    2.2665    1.0869 H   0  0  0  0  0  0  0  0  0  0  0  0
   -0.8943    4.8914    2.2043 H   0  0  0  0  0  0  0  0  0  0  0  0
   -3.1270    5.2867    3.1874 H   0  0  0  0  0  0  0  0  0  0  0  0
   -4.9827    3.7112    2.6977 H   0  0  0  0  0  0  0  0  0  0  0  0
   -4.6285    1.7854    1.2651 H   0  0  0  0  0  0  0  0  0  0  0  0
   -4.2971    0.7056   -0.5106 H   0  0  0  0  0  0  0  0  0  0  0  0
   -3.1258   -0.2461   -1.3742 H   0  0  0  0  0  0  0  0  0  0  0  0
   -1.7943   -1.7938   -0.1907 H   0  0  0  0  0  0  0  0  0  0  0  0
   -2.0876   -2.5829    2.3472 H   0  0  0  0  0  0  0  0  0  0  0  0
   -3.4316   -3.4653    1.5999 H   0  0  0  0  0  0  0  0  0  0  0  0
    0.5393   -3.1651    0.8479 H   0  0  0  0  0  0  0  0  0  0  0  0
    1.2075   -5.6420   -0.0992 H   0  0  0  0  0  0  0  0  0  0  0  0
   -1.1866   -7.0215   -0.1484 H   0  0  0  0  0  0  0  0  0  0  0  0
    0.7903    0.4411   -2.4797 H   0  0  0  0  0  0  0  0  0  0  0  0
    3.0372   -0.0733   -3.2348 H   0  0  0  0  0  0  0  0  0  0  0  0
  1  2  1  0
  2  3  1  0
  3  4  2  0
  4  5  1  0
  5  6  2  0
  6  7  1  0
  7  8  1  0
  8  9  2  0
  8 10  1  0
 10 11  2  0
 11 12  1  0
 12 13  2  0
 13 14  1  0
 14 15  2  0
 15 16  1  0
 16 17  1  0
 17 18  1  0
 18 19  2  0
 18 20  1  0
 20 21  1  0
 21 22  1  0
 22 23  2  0
 23 24  1  0
 24 25  2  0
 25 26  1  0
 16 27  1  0
 27 28  2  0
  6 29  1  0
 29 30  2  0
 30  3  1  0
 27  7  1  0
 15 10  1  0
 26 22  1  0
  1 31  1  0
  1 32  1  0
  1 33  1  0
  2 34  1  0
  2 35  1  0
  4 36  1  0
  5 37  1  0
 11 38  1  0
 12 39  1  0
 13 40  1  0
 14 41  1  0
 17 42  1  0
 17 43  1  0
 20 44  1  0
 21 45  1  0
 21 46  1  0
 23 47  1  0
 24 48  1  0
 25 49  1  0
 29 50  1  0
 30 51  1  0
M  END
$$$$
