
     RDKit          3D

 37 39  0  0  0  0  0  0  0  0999 V2000
    4.0177   -0.0165    0.5660 N   0  0  0  0  0  0  0  0  0  0  0  0
    3.6465    0.7764   -0.5987 C   0  0  0  0  0  0  0  0  0  0  0  0
    2.1397    0.7348   -0.8669 C   0  0  0  0  0  0  0  0  0  0  0  0
    1.6209   -0.6773   -1.1544 C   0  0  0  0  0  0  0  0  0  0  0  0
    0.1327   -0.7453   -1.5386 C   0  0  0  0  0  0  0  0  0  0  0  0
   -0.7790   -0.3654   -0.4286 N   0  0  0  0  0  0  0  0  0  0  0  0
   -1.0591   -1.3821    0.5429 C   0  0  0  0  0  0  0  0  0  0  0  0
   -0.4731   -2.6707    0.4911 C   0  0  0  0  0  0  0  0  0  0  0  0
   -0.7403   -3.6714    1.4355 C   0  0  0  0  0  0  0  0  0  0  0  0
   -1.6122   -3.4224    2.4783 C   0  0  0  0  0  0  0  0  0  0  0  0
   -2.2092   -2.1724    2.5682 C   0  0  0  0  0  0  0  0  0  0  0  0
   -1.9420   -1.1616    1.6194 C   0  0  0  0  0  0  0  0  0  0  0  0
   -2.8014    0.3621    1.9035 S   0  0  0  0  0  0  0  0  0  0  0  0
   -2.2489    1.3752    0.5577 C   0  0  0  0  0  0  0  0  0  0  0  0
   -2.7975    2.6767    0.5468 C   0  0  0  0  0  0  0  0  0  0  0  0
   -2.4585    3.5922   -0.4398 C   0  0  0  0  0  0  0  0  0  0  0  0
   -1.5651    3.2053   -1.4196 C   0  0  0  0  0  0  0  0  0  0  0  0
   -1.1154    4.3218   -2.6514 Cl  0  0  0  0  0  0  0  0  0  0  0  0
   -1.0182    1.9157   -1.4178 C   0  0  0  0  0  0  0  0  0  0  0  0
   -1.3380    0.9503   -0.4342 C   0  0  0  0  0  0  0  0  0  0  0  0
    5.0015    0.1374    0.7829 H   0  0  0  0  0  0  0  0  0  0  0  0
    3.4922    0.3031    1.3799 H   0  0  0  0  0  0  0  0  0  0  0  0
    3.9526    1.8159   -0.4373 H   0  0  0  0  0  0  0  0  0  0  0  0
    4.1922    0.4064   -1.4733 H   0  0  0  0  0  0  0  0  0  0  0  0
    1.9357    1.3797   -1.7290 H   0  0  0  0  0  0  0  0  0  0  0  0
    1.6105    1.1618   -0.0071 H   0  0  0  0  0  0  0  0  0  0  0  0
    2.2002   -1.1011   -1.9845 H   0  0  0  0  0  0  0  0  0  0  0  0
    1.8163   -1.3138   -0.2858 H   0  0  0  0  0  0  0  0  0  0  0  0
   -0.1062   -1.7567   -1.8916 H   0  0  0  0  0  0  0  0  0  0  0  0
   -0.0365   -0.1717   -2.4537 H   0  0  0  0  0  0  0  0  0  0  0  0
    0.2290   -2.9537   -0.2857 H   0  0  0  0  0  0  0  0  0  0  0  0
   -0.2578   -4.6416    1.3469 H   0  0  0  0  0  0  0  0  0  0  0  0
   -1.8267   -4.1895    3.2165 H   0  0  0  0  0  0  0  0  0  0  0  0
   -2.8948   -1.9828    3.3924 H   0  0  0  0  0  0  0  0  0  0  0  0
   -3.4998    2.9825    1.3209 H   0  0  0  0  0  0  0  0  0  0  0  0
   -2.8884    4.5892   -0.4324 H   0  0  0  0  0  0  0  0  0  0  0  0
   -0.3198    1.7095   -2.2184 H   0  0  0  0  0  0  0  0  0  0  0  0
  1  2  1  0
  2  3  1  0
  3  4  1  0
  4  5  1  0
  5  6  1  0
  6  7  1  0
  7  8  2  0
  8  9  1  0
  9 10  2  0
 10 11  1  0
 11 12  2  0
 12 13  1  0
 13 14  1  0
 14 15  2  0
 15 16  1  0
 16 17  2  0
 17 18  1  0
 17 19  1  0
 19 20  2  0
 20  6  1  0
 12  7  1  0
 20 14  1  0
  1 21  1  0
  1 22  1  0
  2 23  1  0
  2 24  1  0
  3 25  1  0
  3 26  1  0
  4 27  1  0
  4 28  1  0
  5 29  1  0
  5 30  1  0
  8 31  1  0
  9 32  1  0
 10 33  1  0
 11 34  1  0
 15 35  1  0
 16 36  1  0
 19 37  1  0
M  END
$$$$
