
     RDKit          3D

 40 42  0  0  0  0  0  0  0  0999 V2000
    1.3331   -2.8798    0.7685 O   0  0  0  0  0  0  0  0  0  0  0  0
    1.5789   -1.7255    1.1107 C   0  0  0  0  0  0  0  0  0  0  0  0
    2.9283   -1.3044    1.6652 C   0  0  0  0  0  0  0  0  0  0  0  0
    3.8611   -0.8096    0.5867 C   0  0  0  0  0  0  0  0  0  0  0  0
    4.5921   -1.7226   -0.1877 C   0  0  0  0  0  0  0  0  0  0  0  0
    5.4377   -1.2726   -1.2023 C   0  0  0  0  0  0  0  0  0  0  0  0
    5.5556    0.0931   -1.4585 C   0  0  0  0  0  0  0  0  0  0  0  0
    4.8295    1.0092   -0.6977 C   0  0  0  0  0  0  0  0  0  0  0  0
    3.9846    0.5609    0.3192 C   0  0  0  0  0  0  0  0  0  0  0  0
    0.6631   -0.7012    1.0322 N   0  0  0  0  0  0  0  0  0  0  0  0
   -0.6097   -0.8654    0.3406 C   0  0  0  0  0  0  0  0  0  0  0  0
   -1.6385    0.1855    0.8060 C   0  0  0  0  0  0  0  0  0  0  0  0
   -1.0058    1.4765    0.6148 O   0  0  0  0  0  0  0  0  0  0  0  0
   -1.9382    2.5523    0.7132 C   0  0  0  0  0  0  0  0  0  0  0  0
   -2.8817    2.4996   -0.4801 C   0  0  0  0  0  0  0  0  0  0  0  0
   -3.5903    1.1686   -0.5004 C   0  0  0  0  0  0  0  0  0  0  0  0
   -4.8308    1.0447   -1.1404 C   0  0  0  0  0  0  0  0  0  0  0  0
   -5.4953   -0.1832   -1.1455 C   0  0  0  0  0  0  0  0  0  0  0  0
   -4.9246   -1.2914   -0.5136 C   0  0  0  0  0  0  0  0  0  0  0  0
   -3.6802   -1.1696    0.1082 C   0  0  0  0  0  0  0  0  0  0  0  0
   -2.9839    0.0495    0.1019 C   0  0  0  0  0  0  0  0  0  0  0  0
    3.3722   -2.1624    2.1866 H   0  0  0  0  0  0  0  0  0  0  0  0
    2.7860   -0.5308    2.4331 H   0  0  0  0  0  0  0  0  0  0  0  0
    4.5015   -2.7913   -0.0040 H   0  0  0  0  0  0  0  0  0  0  0  0
    5.9999   -1.9924   -1.7971 H   0  0  0  0  0  0  0  0  0  0  0  0
    6.2106    0.4431   -2.2528 H   0  0  0  0  0  0  0  0  0  0  0  0
    4.9169    2.0729   -0.8969 H   0  0  0  0  0  0  0  0  0  0  0  0
    3.4263    1.2927    0.9006 H   0  0  0  0  0  0  0  0  0  0  0  0
    1.0151    0.2485    1.0447 H   0  0  0  0  0  0  0  0  0  0  0  0
   -0.3935   -0.7339   -0.7272 H   0  0  0  0  0  0  0  0  0  0  0  0
   -0.9669   -1.8897    0.4872 H   0  0  0  0  0  0  0  0  0  0  0  0
   -1.8066    0.0770    1.8849 H   0  0  0  0  0  0  0  0  0  0  0  0
   -1.3766    3.4937    0.7034 H   0  0  0  0  0  0  0  0  0  0  0  0
   -2.4735    2.4949    1.6714 H   0  0  0  0  0  0  0  0  0  0  0  0
   -3.6014    3.3233   -0.4173 H   0  0  0  0  0  0  0  0  0  0  0  0
   -2.3170    2.5937   -1.4141 H   0  0  0  0  0  0  0  0  0  0  0  0
   -5.2914    1.9055   -1.6244 H   0  0  0  0  0  0  0  0  0  0  0  0
   -6.4631   -0.2751   -1.6316 H   0  0  0  0  0  0  0  0  0  0  0  0
   -5.4563   -2.2395   -0.4953 H   0  0  0  0  0  0  0  0  0  0  0  0
   -3.2673   -2.0446    0.6015 H   0  0  0  0  0  0  0  0  0  0  0  0
  1  2  2  0
  2  3  1  0
  3  4  1  0
  4  5  2  0
  5  6  1  0
  6  7  2  0
  7  8  1  0
  8  9  2  0
  2 10  1  0
 10 11  1  0
 11 12  1  0
 12 13  1  0
 13 14  1  0
 14 15  1  0
 15 16  1  0
 16 17  2  0
 17 18  1  0
 18 19  2  0
 19 20  1  0
 20 21  2  0
  9  4  1  0
 21 12  1  0
 21 16  1  0
  3 22  1  0
  3 23  1  0
  5 24  1  0
  6 25  1  0
  7 26  1  0
  8 27  1  0
  9 28  1  0
 10 29  1  0
 11 30  1  0
 11 31  1  0
 12 32  1  0
 14 33  1  0
 14 34  1  0
 15 35  1  0
 15 36  1  0
 17 37  1  0
 18 38  1  0
 19 39  1  0
 20 40  1  0
M  END
$$$$
