
     RDKit          3D

 30 31  0  0  0  0  0  0  0  0999 V2000
    4.2044   -1.0184   -2.3903 C   0  0  0  0  0  0  0  0  0  0  0  0
    3.7701   -0.9742   -1.0371 O   0  0  0  0  0  0  0  0  0  0  0  0
    2.4259   -1.0970   -0.8160 C   0  0  0  0  0  0  0  0  0  0  0  0
    2.0494   -1.0542    0.5284 C   0  0  0  0  0  0  0  0  0  0  0  0
    0.7064   -1.1679    0.8979 C   0  0  0  0  0  0  0  0  0  0  0  0
   -0.2833   -1.3237   -0.0801 C   0  0  0  0  0  0  0  0  0  0  0  0
   -1.7009   -1.4678    0.3011 C   0  0  0  0  0  0  0  0  0  0  0  0
   -2.2847   -2.7688    0.1711 C   0  0  0  0  0  0  0  0  0  0  0  0
   -2.7842   -3.8124    0.0746 N   0  0  0  0  0  0  0  0  0  0  0  0
   -2.4693   -0.4669    0.7828 C   0  0  0  0  0  0  0  0  0  0  0  0
   -2.1308    0.9513    0.9749 C   0  0  0  0  0  0  0  0  0  0  0  0
   -2.8578    1.7220    1.8787 C   0  0  0  0  0  0  0  0  0  0  0  0
   -2.5351    3.0692    2.0293 C   0  0  0  0  0  0  0  0  0  0  0  0
   -1.5048    3.6103    1.2718 C   0  0  0  0  0  0  0  0  0  0  0  0
   -0.8418    2.7777    0.3883 C   0  0  0  0  0  0  0  0  0  0  0  0
   -1.1396    1.4708    0.2216 N   0  0  0  0  0  0  0  0  0  0  0  0
    0.0968   -1.3685   -1.4280 C   0  0  0  0  0  0  0  0  0  0  0  0
    1.4438   -1.2544   -1.7939 C   0  0  0  0  0  0  0  0  0  0  0  0
    3.9625   -1.9816   -2.8517 H   0  0  0  0  0  0  0  0  0  0  0  0
    5.2934   -0.9115   -2.3953 H   0  0  0  0  0  0  0  0  0  0  0  0
    3.7858   -0.1867   -2.9666 H   0  0  0  0  0  0  0  0  0  0  0  0
    2.8090   -0.9283    1.2959 H   0  0  0  0  0  0  0  0  0  0  0  0
    0.4424   -1.1255    1.9516 H   0  0  0  0  0  0  0  0  0  0  0  0
   -3.4932   -0.7037    1.0711 H   0  0  0  0  0  0  0  0  0  0  0  0
   -3.6605    1.2911    2.4683 H   0  0  0  0  0  0  0  0  0  0  0  0
   -3.0837    3.6894    2.7326 H   0  0  0  0  0  0  0  0  0  0  0  0
   -1.2258    4.6537    1.3654 H   0  0  0  0  0  0  0  0  0  0  0  0
   -0.0286    3.1473   -0.2299 H   0  0  0  0  0  0  0  0  0  0  0  0
   -0.6534   -1.4817   -2.2077 H   0  0  0  0  0  0  0  0  0  0  0  0
    1.6875   -1.2893   -2.8502 H   0  0  0  0  0  0  0  0  0  0  0  0
  1  2  1  0
  2  3  1  0
  3  4  2  0
  4  5  1  0
  5  6  2  0
  6  7  1  0
  7  8  1  0
  8  9  3  0
  7 10  2  3
 10 11  1  0
 11 12  2  0
 12 13  1  0
 13 14  2  0
 14 15  1  0
 15 16  2  0
  6 17  1  0
 17 18  2  0
 18  3  1  0
 16 11  1  0
  1 19  1  0
  1 20  1  0
  1 21  1  0
  4 22  1  0
  5 23  1  0
 10 24  1  0
 12 25  1  0
 13 26  1  0
 14 27  1  0
 15 28  1  0
 17 29  1  0
 18 30  1  0
M  END
$$$$
