
     RDKit          3D

 54 57  0  0  0  0  0  0  0  0999 V2000
   -4.4241    0.6933   -4.0723 C   0  0  0  0  0  0  0  0  0  0  0  0
   -4.6369    1.6953   -3.0872 O   0  0  0  0  0  0  0  0  0  0  0  0
   -3.8737    1.6374   -1.9496 C   0  0  0  0  0  0  0  0  0  0  0  0
   -2.9038    0.6667   -1.6845 C   0  0  0  0  0  0  0  0  0  0  0  0
   -2.1523    0.6761   -0.4911 C   0  0  0  0  0  0  0  0  0  0  0  0
   -1.1299   -0.3639   -0.2452 C   0  0  0  0  0  0  0  0  0  0  0  0
    0.0320   -0.1279    0.4670 C   0  0  0  0  0  0  0  0  0  0  0  0
    0.9325   -1.1799    0.6411 C   0  0  0  0  0  0  0  0  0  0  0  0
    2.1767   -0.8546    1.3754 C   0  0  0  0  0  0  0  0  0  0  0  0
    2.0685   -0.3801    2.4975 O   0  0  0  0  0  0  0  0  0  0  0  0
    3.3325   -1.0792    0.6527 N   0  0  0  0  0  0  0  0  0  0  0  0
    4.6606   -0.8911    1.0866 C   0  0  0  0  0  0  0  0  0  0  0  0
    5.0087   -0.4838    2.3762 C   0  0  0  0  0  0  0  0  0  0  0  0
    6.3532   -0.3308    2.7304 C   0  0  0  0  0  0  0  0  0  0  0  0
    7.3499   -0.5858    1.7979 C   0  0  0  0  0  0  0  0  0  0  0  0
    8.6459   -0.4283    2.1901 O   0  0  0  0  0  0  0  0  0  0  0  0
    7.0253   -0.9946    0.5102 C   0  0  0  0  0  0  0  0  0  0  0  0
    5.6801   -1.1462    0.1577 C   0  0  0  0  0  0  0  0  0  0  0  0
    0.6578   -2.4710    0.1431 C   0  0  0  0  0  0  0  0  0  0  0  0
    1.4745   -3.6154    0.3392 C   0  0  0  0  0  0  0  0  0  0  0  0
    1.1227   -4.8504   -0.2015 C   0  0  0  0  0  0  0  0  0  0  0  0
   -0.0480   -4.9640   -0.9361 C   0  0  0  0  0  0  0  0  0  0  0  0
   -0.8639   -3.8443   -1.1145 C   0  0  0  0  0  0  0  0  0  0  0  0
   -0.5387   -2.6036   -0.5830 C   0  0  0  0  0  0  0  0  0  0  0  0
   -1.3899   -1.5824   -0.7821 N   0  0  0  0  0  0  0  0  0  0  0  0
   -2.4135    1.6967    0.4459 C   0  0  0  0  0  0  0  0  0  0  0  0
   -3.3724    2.6851    0.2020 C   0  0  0  0  0  0  0  0  0  0  0  0
   -3.6741    3.7119    1.0594 O   0  0  0  0  0  0  0  0  0  0  0  0
   -2.8517    3.8763    2.2052 C   0  0  0  0  0  0  0  0  0  0  0  0
   -4.1074    2.6360   -0.9926 C   0  0  0  0  0  0  0  0  0  0  0  0
   -5.0267    3.6258   -1.2650 O   0  0  0  0  0  0  0  0  0  0  0  0
   -6.3024    3.2537   -0.7463 C   0  0  0  0  0  0  0  0  0  0  0  0
   -3.4029    0.7363   -4.4661 H   0  0  0  0  0  0  0  0  0  0  0  0
   -5.1079    0.8901   -4.9036 H   0  0  0  0  0  0  0  0  0  0  0  0
   -4.6571   -0.3020   -3.6789 H   0  0  0  0  0  0  0  0  0  0  0  0
   -2.7020   -0.1232   -2.4028 H   0  0  0  0  0  0  0  0  0  0  0  0
    0.2620    0.8536    0.8711 H   0  0  0  0  0  0  0  0  0  0  0  0
    3.2192   -1.3925   -0.3040 H   0  0  0  0  0  0  0  0  0  0  0  0
    4.2599   -0.2831    3.1351 H   0  0  0  0  0  0  0  0  0  0  0  0
    6.6165   -0.0145    3.7360 H   0  0  0  0  0  0  0  0  0  0  0  0
    9.2261   -0.5881    1.4282 H   0  0  0  0  0  0  0  0  0  0  0  0
    7.7948   -1.1976   -0.2274 H   0  0  0  0  0  0  0  0  0  0  0  0
    5.4430   -1.4664   -0.8535 H   0  0  0  0  0  0  0  0  0  0  0  0
    2.3825   -3.5600    0.9370 H   0  0  0  0  0  0  0  0  0  0  0  0
    1.7549   -5.7203   -0.0386 H   0  0  0  0  0  0  0  0  0  0  0  0
   -0.3406   -5.9219   -1.3589 H   0  0  0  0  0  0  0  0  0  0  0  0
   -1.7900   -3.9468   -1.6766 H   0  0  0  0  0  0  0  0  0  0  0  0
   -1.8656    1.6953    1.3822 H   0  0  0  0  0  0  0  0  0  0  0  0
   -3.1767    4.7838    2.7228 H   0  0  0  0  0  0  0  0  0  0  0  0
   -2.9726    3.0378    2.8974 H   0  0  0  0  0  0  0  0  0  0  0  0
   -1.8023    4.0110    1.9262 H   0  0  0  0  0  0  0  0  0  0  0  0
   -6.6489    2.3037   -1.1692 H   0  0  0  0  0  0  0  0  0  0  0  0
   -7.0192    4.0301   -1.0310 H   0  0  0  0  0  0  0  0  0  0  0  0
   -6.2846    3.1966    0.3478 H   0  0  0  0  0  0  0  0  0  0  0  0
  1  2  1  0
  2  3  1  0
  3  4  2  0
  4  5  1  0
  5  6  1  0
  6  7  2  0
  7  8  1  0
  8  9  1  0
  9 10  2  0
  9 11  1  0
 11 12  1  0
 12 13  2  0
 13 14  1  0
 14 15  2  0
 15 16  1  0
 15 17  1  0
 17 18  2  0
  8 19  2  0
 19 20  1  0
 20 21  2  0
 21 22  1  0
 22 23  2  0
 23 24  1  0
 24 25  2  0
  5 26  2  0
 26 27  1  0
 27 28  1  0
 28 29  1  0
 27 30  2  0
 30 31  1  0
 31 32  1  0
 30  3  1  0
 25  6  1  0
 18 12  1  0
 24 19  1  0
  1 33  1  0
  1 34  1  0
  1 35  1  0
  4 36  1  0
  7 37  1  0
 11 38  1  0
 13 39  1  0
 14 40  1  0
 16 41  1  0
 17 42  1  0
 18 43  1  0
 20 44  1  0
 21 45  1  0
 22 46  1  0
 23 47  1  0
 26 48  1  0
 29 49  1  0
 29 50  1  0
 29 51  1  0
 32 52  1  0
 32 53  1  0
 32 54  1  0
M  END
$$$$
