
     RDKit          3D

 56 61  0  0  0  0  0  0  0  0999 V2000
    8.4290    0.8809   -0.3280 C   0  0  0  0  0  0  0  0  0  0  0  0
    6.9506    0.6231   -0.3570 C   0  0  0  0  0  0  0  0  0  0  0  0
    6.0642    1.6320   -0.7440 C   0  0  0  0  0  0  0  0  0  0  0  0
    4.6839    1.4053   -0.7410 C   0  0  0  0  0  0  0  0  0  0  0  0
    4.1738    0.1647   -0.3399 C   0  0  0  0  0  0  0  0  0  0  0  0
    2.6216   -0.0811   -0.3403 C   0  0  0  0  0  0  0  0  0  0  0  0
    1.6379    0.8534   -0.6468 C   0  0  0  0  0  0  0  0  0  0  0  0
    0.3853    0.2620   -0.4946 N   0  0  0  0  0  4  0  0  0  0  0  0
   -0.9283    0.9177   -0.6479 C   0  0  0  0  0  0  0  0  0  0  0  0
   -1.7926    0.7398    0.6227 C   0  0  0  0  0  0  0  0  0  0  0  0
   -1.2425    0.5577    1.7084 O   0  0  0  0  0  0  0  0  0  0  0  0
   -3.1720    0.6443    0.3640 N   0  0  0  0  0  0  0  0  0  0  0  0
   -3.8142    1.5940   -0.5077 C   0  0  0  0  0  0  0  0  0  0  0  0
   -3.3081    2.9096   -0.5757 C   0  0  0  0  0  0  0  0  0  0  0  0
   -3.8776    3.8703   -1.4156 C   0  0  0  0  0  0  0  0  0  0  0  0
   -4.9786    3.5430   -2.1924 C   0  0  0  0  0  0  0  0  0  0  0  0
   -5.5208    2.2629   -2.1094 C   0  0  0  0  0  0  0  0  0  0  0  0
   -4.9565    1.2946   -1.2624 C   0  0  0  0  0  0  0  0  0  0  0  0
   -5.7038   -0.3060   -1.2450 S   0  0  0  0  0  0  0  0  0  0  0  0
   -5.1510   -0.8726    0.3453 C   0  0  0  0  0  0  0  0  0  0  0  0
   -5.8940   -1.9140    0.9254 C   0  0  0  0  0  0  0  0  0  0  0  0
   -5.4962   -2.4912    2.1262 C   0  0  0  0  0  0  0  0  0  0  0  0
   -4.3483   -2.0316    2.7523 C   0  0  0  0  0  0  0  0  0  0  0  0
   -3.6005   -0.9998    2.1761 C   0  0  0  0  0  0  0  0  0  0  0  0
   -3.9798   -0.3915    0.9632 C   0  0  0  0  0  0  0  0  0  0  0  0
    0.5853   -0.9954   -0.1057 C   0  0  0  0  0  0  0  0  0  0  0  0
    1.8945   -1.2212   -0.0466 N   0  0  0  0  0  0  0  0  0  0  0  0
    2.1905   -2.5909    0.3509 C   0  0  0  0  0  0  0  0  0  0  0  0
    0.8231   -3.3121    0.2134 C   0  0  0  0  0  0  0  0  0  0  0  0
   -0.2280   -2.1849    0.2436 C   0  0  0  0  0  0  0  0  0  0  0  0
    5.0538   -0.8356    0.0735 C   0  0  0  0  0  0  0  0  0  0  0  0
    6.4342   -0.6057    0.0673 C   0  0  0  0  0  0  0  0  0  0  0  0
    8.9940   -0.0437   -0.4963 H   0  0  0  0  0  0  0  0  0  0  0  0
    8.7164    1.5836   -1.1190 H   0  0  0  0  0  0  0  0  0  0  0  0
    8.7153    1.3003    0.6428 H   0  0  0  0  0  0  0  0  0  0  0  0
    6.4451    2.6070   -1.0477 H   0  0  0  0  0  0  0  0  0  0  0  0
    4.0412    2.2202   -1.0583 H   0  0  0  0  0  0  0  0  0  0  0  0
    1.6737    1.8885   -0.9384 H   0  0  0  0  0  0  0  0  0  0  0  0
   -0.7609    1.9792   -0.8437 H   0  0  0  0  0  0  0  0  0  0  0  0
   -1.4135    0.4504   -1.5131 H   0  0  0  0  0  0  0  0  0  0  0  0
   -2.4919    3.2374    0.0667 H   0  0  0  0  0  0  0  0  0  0  0  0
   -3.4653    4.8793   -1.4529 H   0  0  0  0  0  0  0  0  0  0  0  0
   -5.4291    4.2876   -2.8472 H   0  0  0  0  0  0  0  0  0  0  0  0
   -6.3953    2.0259   -2.7118 H   0  0  0  0  0  0  0  0  0  0  0  0
   -6.7904   -2.2906    0.4366 H   0  0  0  0  0  0  0  0  0  0  0  0
   -6.0817   -3.2937    2.5696 H   0  0  0  0  0  0  0  0  0  0  0  0
   -4.0362   -2.4664    3.7006 H   0  0  0  0  0  0  0  0  0  0  0  0
   -2.7378   -0.6678    2.7463 H   0  0  0  0  0  0  0  0  0  0  0  0
    2.9366   -3.0371   -0.3073 H   0  0  0  0  0  0  0  0  0  0  0  0
    2.5335   -2.5920    1.3896 H   0  0  0  0  0  0  0  0  0  0  0  0
    0.6651   -4.0646    0.9894 H   0  0  0  0  0  0  0  0  0  0  0  0
    0.7782   -3.8159   -0.7595 H   0  0  0  0  0  0  0  0  0  0  0  0
   -1.0222   -2.3089   -0.4971 H   0  0  0  0  0  0  0  0  0  0  0  0
   -0.6213   -2.0168    1.2489 H   0  0  0  0  0  0  0  0  0  0  0  0
    4.7033   -1.7918    0.4350 H   0  0  0  0  0  0  0  0  0  0  0  0
    7.1080   -1.3918    0.4048 H   0  0  0  0  0  0  0  0  0  0  0  0
  1  2  1  0
  2  3  2  0
  3  4  1  0
  4  5  2  0
  5  6  1  0
  6  7  2  0
  7  8  1  0
  8  9  1  0
  9 10  1  0
 10 11  2  0
 10 12  1  0
 12 13  1  0
 13 14  2  0
 14 15  1  0
 15 16  2  0
 16 17  1  0
 17 18  2  0
 18 19  1  0
 19 20  1  0
 20 21  2  0
 21 22  1  0
 22 23  2  0
 23 24  1  0
 24 25  2  0
  8 26  2  0
 26 27  1  0
 27 28  1  0
 28 29  1  0
 29 30  1  0
  5 31  1  0
 31 32  2  0
 32  2  1  0
 27  6  1  0
 25 12  1  0
 30 26  1  0
 18 13  1  0
 25 20  1  0
  1 33  1  0
  1 34  1  0
  1 35  1  0
  3 36  1  0
  4 37  1  0
  7 38  1  0
  9 39  1  0
  9 40  1  0
 14 41  1  0
 15 42  1  0
 16 43  1  0
 17 44  1  0
 21 45  1  0
 22 46  1  0
 23 47  1  0
 24 48  1  0
 28 49  1  0
 28 50  1  0
 29 51  1  0
 29 52  1  0
 30 53  1  0
 30 54  1  0
 31 55  1  0
 32 56  1  0
M  CHG  1   8   1
M  END
$$$$
