
     RDKit          3D

 59 61  0  0  0  0  0  0  0  0999 V2000
   -7.3931   -0.9276   -2.9397 C   0  0  0  0  0  0  0  0  0  0  0  0
   -6.4553    0.2636   -2.8284 C   0  0  0  0  0  0  0  0  0  0  0  0
   -6.4747    0.7418   -1.4787 O   0  0  0  0  0  0  0  0  0  0  0  0
   -5.2333    0.7887   -0.8956 C   0  0  0  0  0  0  0  0  0  0  0  0
   -4.4913   -0.3855   -0.7139 C   0  0  0  0  0  0  0  0  0  0  0  0
   -3.2574   -0.3206   -0.0721 C   0  0  0  0  0  0  0  0  0  0  0  0
   -2.4898   -1.4738    0.0830 N   0  0  0  0  0  0  0  0  0  0  0  0
   -1.2711   -1.5068    0.7056 C   0  0  0  0  0  0  0  0  0  0  0  0
   -0.5025   -2.9999    0.7362 S   0  0  0  0  0  0  0  0  0  0  0  0
   -0.8009   -0.3041    1.2358 N   0  0  0  0  0  0  0  0  0  0  0  0
    0.4913   -0.2184    1.9401 C   0  0  0  0  0  0  0  0  0  0  0  0
    1.6271    0.1633    0.9930 C   0  0  0  0  0  0  0  0  0  0  0  0
    2.9503    0.2150    1.7217 C   0  0  0  0  0  0  0  0  0  0  0  0
    3.0889   -0.1054    2.8959 O   0  0  0  0  0  0  0  0  0  0  0  0
    3.9828    0.6487    0.9197 N   0  0  0  0  0  0  0  0  0  0  0  0
    5.3576    0.6213    1.3668 C   0  0  0  0  0  0  0  0  0  0  0  0
    6.0871   -0.5399    0.7408 C   0  0  0  0  0  0  0  0  0  0  0  0
    5.8802   -1.8426    1.2154 C   0  0  0  0  0  0  0  0  0  0  0  0
    6.5250   -2.9318    0.6195 C   0  0  0  0  0  0  0  0  0  0  0  0
    7.3855   -2.7317   -0.4609 C   0  0  0  0  0  0  0  0  0  0  0  0
    8.0749   -3.7027   -1.1340 O   0  0  0  0  0  0  0  0  0  0  0  0
    7.8804   -5.0455   -0.6980 C   0  0  0  0  0  0  0  0  0  0  0  0
    7.5929   -1.4348   -0.9366 C   0  0  0  0  0  0  0  0  0  0  0  0
    6.9475   -0.3457   -0.3466 C   0  0  0  0  0  0  0  0  0  0  0  0
   -1.4672    0.9192    1.0705 C   0  0  0  0  0  0  0  0  0  0  0  0
   -1.0068    2.0039    1.4151 O   0  0  0  0  0  0  0  0  0  0  0  0
   -2.7819    0.8915    0.4047 C   0  0  0  0  0  0  0  0  0  0  0  0
   -3.5316    2.0668    0.2435 C   0  0  0  0  0  0  0  0  0  0  0  0
   -4.7672    2.0227   -0.4067 C   0  0  0  0  0  0  0  0  0  0  0  0
   -5.5729    3.1091   -0.6345 O   0  0  0  0  0  0  0  0  0  0  0  0
   -5.1692    4.3578   -0.0802 C   0  0  0  0  0  0  0  0  0  0  0  0
   -6.2140    5.3939   -0.4514 C   0  0  0  0  0  0  0  0  0  0  0  0
   -7.4106   -1.3173   -3.9631 H   0  0  0  0  0  0  0  0  0  0  0  0
   -8.4097   -0.6415   -2.6598 H   0  0  0  0  0  0  0  0  0  0  0  0
   -7.0909   -1.7354   -2.2614 H   0  0  0  0  0  0  0  0  0  0  0  0
   -5.4501   -0.0049   -3.1792 H   0  0  0  0  0  0  0  0  0  0  0  0
   -6.8195    1.0748   -3.4729 H   0  0  0  0  0  0  0  0  0  0  0  0
   -4.8860   -1.3356   -1.0634 H   0  0  0  0  0  0  0  0  0  0  0  0
   -2.8297   -2.3567   -0.2854 H   0  0  0  0  0  0  0  0  0  0  0  0
    0.7081   -1.1633    2.4506 H   0  0  0  0  0  0  0  0  0  0  0  0
    0.4098    0.5344    2.7362 H   0  0  0  0  0  0  0  0  0  0  0  0
    1.7107   -0.5651    0.1775 H   0  0  0  0  0  0  0  0  0  0  0  0
    1.4371    1.1452    0.5442 H   0  0  0  0  0  0  0  0  0  0  0  0
    3.8236    0.7268   -0.0746 H   0  0  0  0  0  0  0  0  0  0  0  0
    5.8136    1.5701    1.0632 H   0  0  0  0  0  0  0  0  0  0  0  0
    5.4195    0.5620    2.4599 H   0  0  0  0  0  0  0  0  0  0  0  0
    5.2072   -2.0153    2.0554 H   0  0  0  0  0  0  0  0  0  0  0  0
    6.3288   -3.9194    1.0225 H   0  0  0  0  0  0  0  0  0  0  0  0
    6.8346   -5.3520   -0.8157 H   0  0  0  0  0  0  0  0  0  0  0  0
    8.2199   -5.1802    0.3375 H   0  0  0  0  0  0  0  0  0  0  0  0
    8.4892   -5.6957   -1.3352 H   0  0  0  0  0  0  0  0  0  0  0  0
    8.2629   -1.2733   -1.7787 H   0  0  0  0  0  0  0  0  0  0  0  0
    7.1248    0.6507   -0.7437 H   0  0  0  0  0  0  0  0  0  0  0  0
   -3.1257    2.9962    0.6315 H   0  0  0  0  0  0  0  0  0  0  0  0
   -4.2040    4.6649   -0.4957 H   0  0  0  0  0  0  0  0  0  0  0  0
   -5.1029    4.2851    1.0104 H   0  0  0  0  0  0  0  0  0  0  0  0
   -6.2961    5.4797   -1.5404 H   0  0  0  0  0  0  0  0  0  0  0  0
   -7.2001    5.1003   -0.0774 H   0  0  0  0  0  0  0  0  0  0  0  0
   -5.9556    6.3749   -0.0392 H   0  0  0  0  0  0  0  0  0  0  0  0
  1  2  1  0
  2  3  1  0
  3  4  1  0
  4  5  2  0
  5  6  1  0
  6  7  1  0
  7  8  1  0
  8  9  2  0
  8 10  1  0
 10 11  1  0
 11 12  1  0
 12 13  1  0
 13 14  2  0
 13 15  1  0
 15 16  1  0
 16 17  1  0
 17 18  2  0
 18 19  1  0
 19 20  2  0
 20 21  1  0
 21 22  1  0
 20 23  1  0
 23 24  2  0
 10 25  1  0
 25 26  2  0
 25 27  1  0
 27 28  1  0
 28 29  2  0
 29 30  1  0
 30 31  1  0
 31 32  1  0
 29  4  1  0
 27  6  2  0
 24 17  1  0
  1 33  1  0
  1 34  1  0
  1 35  1  0
  2 36  1  0
  2 37  1  0
  5 38  1  0
  7 39  1  0
 11 40  1  0
 11 41  1  0
 12 42  1  0
 12 43  1  0
 15 44  1  0
 16 45  1  0
 16 46  1  0
 18 47  1  0
 19 48  1  0
 22 49  1  0
 22 50  1  0
 22 51  1  0
 23 52  1  0
 24 53  1  0
 28 54  1  0
 31 55  1  0
 31 56  1  0
 32 57  1  0
 32 58  1  0
 32 59  1  0
M  END
$$$$
