
     RDKit          3D

 43 46  0  0  0  0  0  0  0  0999 V2000
   -7.9764   -1.1574    1.1038 C   0  0  0  0  0  0  0  0  0  0  0  0
   -6.9461   -0.2899    1.5584 O   0  0  0  0  0  0  0  0  0  0  0  0
   -5.7950   -0.2565    0.8209 C   0  0  0  0  0  0  0  0  0  0  0  0
   -5.5508   -0.9690   -0.3532 C   0  0  0  0  0  0  0  0  0  0  0  0
   -4.3215   -0.8407   -1.0140 C   0  0  0  0  0  0  0  0  0  0  0  0
   -3.3271    0.0093   -0.5148 C   0  0  0  0  0  0  0  0  0  0  0  0
   -2.0382    0.1596   -1.1776 C   0  0  0  0  0  0  0  0  0  0  0  0
   -0.8731    0.1571   -0.4257 N   0  0  0  0  0  0  0  0  0  0  0  0
    0.1593    0.2990   -1.2098 C   0  0  0  0  0  0  0  0  0  0  0  0
    1.4829    0.3419   -0.8993 N   0  0  0  0  0  0  0  0  0  0  0  0
    1.9619    0.2505    0.3888 C   0  0  0  0  0  0  0  0  0  0  0  0
    1.3031    0.1277    1.4148 O   0  0  0  0  0  0  0  0  0  0  0  0
    3.4411    0.3265    0.3939 C   0  0  0  0  0  0  0  0  0  0  0  0
    4.1565    0.4703   -0.7808 N   0  0  0  0  0  0  0  0  0  0  0  0
    5.4090    0.4994   -0.3852 C   0  0  0  0  0  0  0  0  0  0  0  0
    6.5418    0.6262   -1.1368 N   0  0  0  0  0  0  0  0  0  0  0  0
    7.6584    0.6243   -0.4767 C   0  0  0  0  0  0  0  0  0  0  0  0
    7.8139    0.4988    0.9989 C   0  0  0  0  0  0  0  0  0  0  0  0
    6.6739    0.3762    1.7020 C   0  0  0  0  0  0  0  0  0  0  0  0
    6.6419    0.2397    3.1923 C   0  0  0  0  0  0  0  0  0  0  0  0
    5.4550    0.3756    1.0110 N   0  0  0  0  0  0  0  0  0  0  0  0
    4.1996    0.2667    1.4986 N   0  0  0  0  0  0  0  0  0  0  0  0
   -0.1695    0.4607   -2.8732 S   0  0  0  0  0  0  0  0  0  0  0  0
   -1.8561    0.3578   -2.5396 C   0  0  0  0  0  0  0  0  0  0  0  0
   -2.8387    0.4929   -3.6499 C   0  0  0  0  0  0  0  0  0  0  0  0
   -3.5705    0.7046    0.6746 C   0  0  0  0  0  0  0  0  0  0  0  0
   -4.7977    0.5766    1.3314 C   0  0  0  0  0  0  0  0  0  0  0  0
   -7.6425   -2.2004    1.1008 H   0  0  0  0  0  0  0  0  0  0  0  0
   -8.3394   -0.8550    0.1160 H   0  0  0  0  0  0  0  0  0  0  0  0
   -8.8135   -1.0782    1.8042 H   0  0  0  0  0  0  0  0  0  0  0  0
   -6.2895   -1.6397   -0.7786 H   0  0  0  0  0  0  0  0  0  0  0  0
   -4.1470   -1.4300   -1.9101 H   0  0  0  0  0  0  0  0  0  0  0  0
    2.1525    0.4526   -1.6510 H   0  0  0  0  0  0  0  0  0  0  0  0
    8.6040    0.7240   -1.0362 H   0  0  0  0  0  0  0  0  0  0  0  0
    8.8066    0.5115    1.4274 H   0  0  0  0  0  0  0  0  0  0  0  0
    6.1713   -0.7053    3.4836 H   0  0  0  0  0  0  0  0  0  0  0  0
    7.6496    0.2531    3.6216 H   0  0  0  0  0  0  0  0  0  0  0  0
    6.0797    1.0641    3.6436 H   0  0  0  0  0  0  0  0  0  0  0  0
   -3.7406    1.0150   -3.3146 H   0  0  0  0  0  0  0  0  0  0  0  0
   -3.1276   -0.4944   -4.0240 H   0  0  0  0  0  0  0  0  0  0  0  0
   -2.4293    1.0661   -4.4886 H   0  0  0  0  0  0  0  0  0  0  0  0
   -2.8005    1.3460    1.0998 H   0  0  0  0  0  0  0  0  0  0  0  0
   -4.9712    1.1257    2.2536 H   0  0  0  0  0  0  0  0  0  0  0  0
  1  2  1  0
  2  3  1  0
  3  4  2  0
  4  5  1  0
  5  6  2  0
  6  7  1  0
  7  8  1  0
  8  9  2  0
  9 10  1  0
 10 11  1  0
 11 12  2  0
 11 13  1  0
 13 14  1  0
 14 15  2  0
 15 16  1  0
 16 17  2  0
 17 18  1  0
 18 19  2  0
 19 20  1  0
 19 21  1  0
 21 22  1  0
  9 23  1  0
 23 24  1  0
 24 25  1  0
  6 26  1  0
 26 27  2  0
 27  3  1  0
 24  7  2  0
 22 13  2  0
 21 15  1  0
  1 28  1  0
  1 29  1  0
  1 30  1  0
  4 31  1  0
  5 32  1  0
 10 33  1  0
 17 34  1  0
 18 35  1  0
 20 36  1  0
 20 37  1  0
 20 38  1  0
 25 39  1  0
 25 40  1  0
 25 41  1  0
 26 42  1  0
 27 43  1  0
M  END
$$$$
