
     RDKit          3D

 46 48  0  0  0  0  0  0  0  0999 V2000
    3.6782    1.0975   -3.1301 C   0  0  0  0  0  0  0  0  0  0  0  0
    2.2092    0.8682   -2.8083 C   0  0  0  0  0  0  0  0  0  0  0  0
    1.6693    1.7734   -1.6868 N   0  0  0  0  0  4  0  0  0  0  0  0
    1.9121    3.2541   -2.0292 C   0  0  0  0  0  0  0  0  0  0  0  0
    2.3622    1.4871   -0.3566 C   0  0  0  0  0  0  0  0  0  0  0  0
    0.1251    1.6158   -1.5551 C   0  0  0  0  0  0  0  0  0  0  0  0
   -0.4331    0.1849   -1.4615 C   0  0  0  0  0  0  0  0  0  0  0  0
   -0.0998   -0.5997   -0.2195 C   0  0  0  0  0  0  0  0  0  0  0  0
   -0.8951   -0.8933    0.8361 C   0  0  0  0  0  0  0  0  0  0  0  0
   -2.3050   -0.4357    0.9376 C   0  0  0  0  0  0  0  0  0  0  0  0
   -2.6614    0.9185    0.8670 C   0  0  0  0  0  0  0  0  0  0  0  0
   -3.9994    1.3054    0.9689 C   0  0  0  0  0  0  0  0  0  0  0  0
   -4.9907    0.3465    1.1628 C   0  0  0  0  0  0  0  0  0  0  0  0
   -4.6454   -0.9995    1.2828 C   0  0  0  0  0  0  0  0  0  0  0  0
   -3.3058   -1.3953    1.1923 C   0  0  0  0  0  0  0  0  0  0  0  0
   -2.9107   -3.1270    1.4449 S   0  0  0  0  0  0  0  0  0  0  0  0
   -1.2579   -2.9938    2.1293 C   0  0  0  0  0  0  0  0  0  0  0  0
   -0.8172   -3.9864    3.0136 C   0  0  0  0  0  0  0  0  0  0  0  0
    0.4582   -3.9114    3.5777 C   0  0  0  0  0  0  0  0  0  0  0  0
    1.2915   -2.8417    3.2614 C   0  0  0  0  0  0  0  0  0  0  0  0
    2.8598   -2.7385    3.9604 Cl  0  0  0  0  0  0  0  0  0  0  0  0
    0.8694   -1.8484    2.3781 C   0  0  0  0  0  0  0  0  0  0  0  0
   -0.4017   -1.9255    1.7904 C   0  0  0  0  0  0  0  0  0  0  0  0
    3.8562    2.0918   -3.5487 H   0  0  0  0  0  0  0  0  0  0  0  0
    4.0023    0.3718   -3.8840 H   0  0  0  0  0  0  0  0  0  0  0  0
    4.3185    0.9640   -2.2540 H   0  0  0  0  0  0  0  0  0  0  0  0
    2.0715   -0.1681   -2.4846 H   0  0  0  0  0  0  0  0  0  0  0  0
    1.5925    1.0511   -3.6954 H   0  0  0  0  0  0  0  0  0  0  0  0
    1.5010    3.4501   -3.0238 H   0  0  0  0  0  0  0  0  0  0  0  0
    2.9858    3.4571   -2.0078 H   0  0  0  0  0  0  0  0  0  0  0  0
    1.4084    3.8670   -1.2751 H   0  0  0  0  0  0  0  0  0  0  0  0
    3.3733    1.9034   -0.3883 H   0  0  0  0  0  0  0  0  0  0  0  0
    2.4249    0.4090   -0.2081 H   0  0  0  0  0  0  0  0  0  0  0  0
    1.7937    1.9656    0.4458 H   0  0  0  0  0  0  0  0  0  0  0  0
   -0.1789    2.2158   -0.6904 H   0  0  0  0  0  0  0  0  0  0  0  0
   -0.2989    2.0846   -2.4521 H   0  0  0  0  0  0  0  0  0  0  0  0
   -0.1182   -0.4033   -2.3311 H   0  0  0  0  0  0  0  0  0  0  0  0
   -1.5216    0.2522   -1.5747 H   0  0  0  0  0  0  0  0  0  0  0  0
    0.8640   -1.1054   -0.2786 H   0  0  0  0  0  0  0  0  0  0  0  0
   -1.9056    1.6882    0.7626 H   0  0  0  0  0  0  0  0  0  0  0  0
   -4.2724    2.3569    0.9137 H   0  0  0  0  0  0  0  0  0  0  0  0
   -6.0330    0.6471    1.2472 H   0  0  0  0  0  0  0  0  0  0  0  0
   -5.4274   -1.7335    1.4673 H   0  0  0  0  0  0  0  0  0  0  0  0
   -1.4654   -4.8207    3.2755 H   0  0  0  0  0  0  0  0  0  0  0  0
    0.7885   -4.6855    4.2665 H   0  0  0  0  0  0  0  0  0  0  0  0
    1.5291   -1.0144    2.1621 H   0  0  0  0  0  0  0  0  0  0  0  0
  1  2  1  0
  2  3  1  0
  3  4  1  0
  3  5  1  0
  3  6  1  0
  6  7  1  0
  7  8  1  0
  8  9  2  3
  9 10  1  0
 10 11  2  0
 11 12  1  0
 12 13  2  0
 13 14  1  0
 14 15  2  0
 15 16  1  0
 16 17  1  0
 17 18  2  0
 18 19  1  0
 19 20  2  0
 20 21  1  0
 20 22  1  0
 22 23  2  0
 23  9  1  0
 15 10  1  0
 23 17  1  0
  1 24  1  0
  1 25  1  0
  1 26  1  0
  2 27  1  0
  2 28  1  0
  4 29  1  0
  4 30  1  0
  4 31  1  0
  5 32  1  0
  5 33  1  0
  5 34  1  0
  6 35  1  0
  6 36  1  0
  7 37  1  0
  7 38  1  0
  8 39  1  0
 11 40  1  0
 12 41  1  0
 13 42  1  0
 14 43  1  0
 18 44  1  0
 19 45  1  0
 22 46  1  0
M  CHG  1   3   1
M  END
$$$$
