
     RDKit          3D

 40 41  0  0  0  0  0  0  0  0999 V2000
   -6.8978   -0.7428    0.0379 C   0  0  0  0  0  0  0  0  0  0  0  0
   -5.4274   -0.4423    0.0624 C   0  0  0  0  0  0  0  0  0  0  0  0
   -4.7269   -0.4458    1.2636 C   0  0  0  0  0  0  0  0  0  0  0  0
   -3.3612   -0.1922    1.2596 C   0  0  0  0  0  0  0  0  0  0  0  0
   -2.6943    0.0487    0.0529 C   0  0  0  0  0  0  0  0  0  0  0  0
   -1.2595    0.3490    0.0498 C   0  0  0  0  0  0  0  0  0  0  0  0
   -0.3428   -0.5165    0.5119 C   0  0  0  0  0  0  0  0  0  0  0  0
    1.1008   -0.2450    0.5029 C   0  0  0  0  0  0  0  0  0  0  0  0
    1.9875   -1.2915    0.2537 C   0  0  0  0  0  0  0  0  0  0  0  0
    3.3748   -1.0754    0.2663 C   0  0  0  0  0  0  0  0  0  0  0  0
    3.9385    0.1836    0.5299 C   0  0  0  0  0  0  0  0  0  0  0  0
    5.3180    0.3905    0.5647 N   0  0  0  0  0  0  0  0  0  0  0  0
    5.8459    1.7536    0.5197 C   0  0  0  0  0  0  0  0  0  0  0  0
    6.2258   -0.6588    0.1069 C   0  0  0  0  0  0  0  0  0  0  0  0
    3.0224    1.2133    0.8041 C   0  0  0  0  0  0  0  0  0  0  0  0
    1.6330    1.0099    0.7947 C   0  0  0  0  0  0  0  0  0  0  0  0
   -3.3929    0.0330   -1.1153 N   0  0  0  0  0  4  0  0  0  0  0  0
   -2.7066    0.2465   -2.4063 C   0  0  0  0  0  0  0  0  0  0  0  0
   -4.7262   -0.2104   -1.1194 C   0  0  0  0  0  0  0  0  0  0  0  0
   -7.0580   -1.8250    0.0320 H   0  0  0  0  0  0  0  0  0  0  0  0
   -7.3721   -0.3118   -0.8499 H   0  0  0  0  0  0  0  0  0  0  0  0
   -7.3958   -0.3136    0.9141 H   0  0  0  0  0  0  0  0  0  0  0  0
   -5.2371   -0.6403    2.2066 H   0  0  0  0  0  0  0  0  0  0  0  0
   -2.8188   -0.1773    2.2044 H   0  0  0  0  0  0  0  0  0  0  0  0
   -0.9690    1.3116   -0.3623 H   0  0  0  0  0  0  0  0  0  0  0  0
   -0.6270   -1.4935    0.9012 H   0  0  0  0  0  0  0  0  0  0  0  0
    1.6249   -2.2953    0.0449 H   0  0  0  0  0  0  0  0  0  0  0  0
    4.0064   -1.9366    0.0660 H   0  0  0  0  0  0  0  0  0  0  0  0
    6.9418    1.7606    0.5242 H   0  0  0  0  0  0  0  0  0  0  0  0
    5.5181    2.2700   -0.3896 H   0  0  0  0  0  0  0  0  0  0  0  0
    5.5364    2.3271    1.4007 H   0  0  0  0  0  0  0  0  0  0  0  0
    7.2742   -0.3674    0.2370 H   0  0  0  0  0  0  0  0  0  0  0  0
    6.0949   -1.5766    0.6906 H   0  0  0  0  0  0  0  0  0  0  0  0
    6.0720   -0.8742   -0.9560 H   0  0  0  0  0  0  0  0  0  0  0  0
    3.3699    2.2116    1.0541 H   0  0  0  0  0  0  0  0  0  0  0  0
    0.9918    1.8506    1.0446 H   0  0  0  0  0  0  0  0  0  0  0  0
   -2.3084    1.2641   -2.4156 H   0  0  0  0  0  0  0  0  0  0  0  0
   -1.9141   -0.5003   -2.5037 H   0  0  0  0  0  0  0  0  0  0  0  0
   -3.4132    0.1274   -3.2316 H   0  0  0  0  0  0  0  0  0  0  0  0
   -5.2282   -0.2185   -2.0834 H   0  0  0  0  0  0  0  0  0  0  0  0
  1  2  1  0
  2  3  2  0
  3  4  1  0
  4  5  2  0
  5  6  1  0
  6  7  2  3
  7  8  1  0
  8  9  2  0
  9 10  1  0
 10 11  2  0
 11 12  1  0
 12 13  1  0
 12 14  1  0
 11 15  1  0
 15 16  2  0
  5 17  1  0
 17 18  1  0
 17 19  2  0
 19  2  1  0
 16  8  1  0
  1 20  1  0
  1 21  1  0
  1 22  1  0
  3 23  1  0
  4 24  1  0
  6 25  1  0
  7 26  1  0
  9 27  1  0
 10 28  1  0
 13 29  1  0
 13 30  1  0
 13 31  1  0
 14 32  1  0
 14 33  1  0
 14 34  1  0
 15 35  1  0
 16 36  1  0
 18 37  1  0
 18 38  1  0
 18 39  1  0
 19 40  1  0
M  CHG  1  17   1
M  END
$$$$
