
     RDKit          3D

 63 66  0  0  0  0  0  0  0  0999 V2000
   -4.4643    3.4764    2.6030 C   0  0  0  0  0  0  0  0  0  0  0  0
   -4.1380    2.3669    1.6074 C   0  0  0  0  0  0  0  0  0  0  0  0
   -3.4121    2.9228    0.3693 C   0  0  0  0  0  0  0  0  0  0  0  0
   -3.6683    2.1041   -0.9045 C   0  0  0  0  0  0  0  0  0  0  0  0
   -3.8313    0.6892   -0.5742 N   0  0  0  0  0  0  0  0  0  0  0  0
   -3.7429   -0.1698   -1.7590 C   0  0  0  0  0  0  0  0  0  0  0  0
   -3.1744   -1.4897   -1.3755 C   0  0  0  0  0  0  0  0  0  0  0  0
   -1.8565   -1.8123   -1.0795 C   0  0  0  0  0  0  0  0  0  0  0  0
   -0.6726   -0.9539   -1.1205 C   0  0  0  0  0  0  0  0  0  0  0  0
   -0.6777    0.1716   -1.6113 O   0  0  0  0  0  0  0  0  0  0  0  0
    0.4395   -1.5778   -0.5704 N   0  0  0  0  0  0  0  0  0  0  0  0
    1.6443   -0.9425   -0.5173 N   0  0  0  0  0  0  0  0  0  0  0  0
    2.6074   -1.6226    0.0170 C   0  0  0  0  0  0  0  0  0  0  0  0
    3.9674   -1.0651    0.1508 C   0  0  0  0  0  0  0  0  0  0  0  0
    4.9675   -1.8501    0.7240 C   0  0  0  0  0  0  0  0  0  0  0  0
    6.2578   -1.3306    0.8560 C   0  0  0  0  0  0  0  0  0  0  0  0
    6.5582   -0.0334    0.4257 C   0  0  0  0  0  0  0  0  0  0  0  0
    7.8601    0.3336    0.6154 O   0  0  0  0  0  0  0  0  0  0  0  0
    8.2522    1.6852    0.3536 C   0  0  0  0  0  0  0  0  0  0  0  0
    8.6727    1.8318   -1.1060 C   0  0  0  0  0  0  0  0  0  0  0  0
    9.4383    1.9814    1.2697 C   0  0  0  0  0  0  0  0  0  0  0  0
    5.5528    0.7428   -0.1505 C   0  0  0  0  0  0  0  0  0  0  0  0
    4.2582    0.2291   -0.2875 C   0  0  0  0  0  0  0  0  0  0  0  0
   -1.7870   -3.1289   -0.7084 N   0  0  0  0  0  0  0  0  0  0  0  0
   -3.0000   -3.6434   -0.7842 N   0  0  0  0  0  0  0  0  0  0  0  0
   -3.8747   -2.6808   -1.2116 N   0  0  0  0  0  0  0  0  0  0  0  0
   -5.2475   -2.9864   -1.4020 C   0  0  0  0  0  0  0  0  0  0  0  0
   -6.1181   -2.0666   -1.8169 N   0  0  0  0  0  0  0  0  0  0  0  0
   -7.3355   -2.7414   -1.8630 O   0  0  0  0  0  0  0  0  0  0  0  0
   -7.1912   -4.0684   -1.4767 N   0  0  0  0  0  0  0  0  0  0  0  0
   -5.8964   -4.2217   -1.2035 C   0  0  0  0  0  0  0  0  0  0  0  0
   -5.3394   -5.3804   -0.8054 N   0  0  0  0  0  0  0  0  0  0  0  0
   -5.0516    0.4583    0.2138 C   0  0  0  0  0  0  0  0  0  0  0  0
   -5.3926    1.6061    1.1788 C   0  0  0  0  0  0  0  0  0  0  0  0
   -5.1481    4.2137    2.1686 H   0  0  0  0  0  0  0  0  0  0  0  0
   -4.9379    3.0649    3.5009 H   0  0  0  0  0  0  0  0  0  0  0  0
   -3.5528    3.9987    2.9127 H   0  0  0  0  0  0  0  0  0  0  0  0
   -3.4655    1.6581    2.1104 H   0  0  0  0  0  0  0  0  0  0  0  0
   -2.3353    2.9449    0.5826 H   0  0  0  0  0  0  0  0  0  0  0  0
   -3.7096    3.9606    0.1751 H   0  0  0  0  0  0  0  0  0  0  0  0
   -4.5550    2.4829   -1.4301 H   0  0  0  0  0  0  0  0  0  0  0  0
   -2.8136    2.2630   -1.5740 H   0  0  0  0  0  0  0  0  0  0  0  0
   -3.0505    0.2649   -2.4926 H   0  0  0  0  0  0  0  0  0  0  0  0
   -4.6898   -0.2201   -2.3008 H   0  0  0  0  0  0  0  0  0  0  0  0
    0.3384   -2.5200   -0.2054 H   0  0  0  0  0  0  0  0  0  0  0  0
    2.4525   -2.6487    0.3968 H   0  0  0  0  0  0  0  0  0  0  0  0
    4.7630   -2.8593    1.0695 H   0  0  0  0  0  0  0  0  0  0  0  0
    7.0407   -1.9406    1.3009 H   0  0  0  0  0  0  0  0  0  0  0  0
    7.4590    2.3963    0.6115 H   0  0  0  0  0  0  0  0  0  0  0  0
    9.0308    2.8448   -1.3140 H   0  0  0  0  0  0  0  0  0  0  0  0
    7.8399    1.6173   -1.7829 H   0  0  0  0  0  0  0  0  0  0  0  0
    9.4679    1.1207   -1.3570 H   0  0  0  0  0  0  0  0  0  0  0  0
    9.1492    1.8545    2.3188 H   0  0  0  0  0  0  0  0  0  0  0  0
    9.8036    3.0035    1.1302 H   0  0  0  0  0  0  0  0  0  0  0  0
   10.2633    1.2841    1.0848 H   0  0  0  0  0  0  0  0  0  0  0  0
    5.7364    1.7478   -0.5145 H   0  0  0  0  0  0  0  0  0  0  0  0
    3.4825    0.8444   -0.7396 H   0  0  0  0  0  0  0  0  0  0  0  0
   -4.3875   -5.4159   -0.4443 H   0  0  0  0  0  0  0  0  0  0  0  0
   -5.9361   -6.1465   -0.5121 H   0  0  0  0  0  0  0  0  0  0  0  0
   -4.9206   -0.4608    0.7967 H   0  0  0  0  0  0  0  0  0  0  0  0
   -5.9247    0.3108   -0.4331 H   0  0  0  0  0  0  0  0  0  0  0  0
   -6.0866    2.2994    0.6849 H   0  0  0  0  0  0  0  0  0  0  0  0
   -5.9180    1.2029    2.0526 H   0  0  0  0  0  0  0  0  0  0  0  0
  1  2  1  0
  2  3  1  0
  3  4  1  0
  4  5  1  0
  5  6  1  0
  6  7  1  0
  7  8  2  0
  8  9  1  0
  9 10  2  0
  9 11  1  0
 11 12  1  0
 12 13  2  3
 13 14  1  0
 14 15  2  0
 15 16  1  0
 16 17  2  0
 17 18  1  0
 18 19  1  0
 19 20  1  0
 19 21  1  0
 17 22  1  0
 22 23  2  0
  8 24  1  0
 24 25  2  0
 25 26  1  0
 26 27  1  0
 27 28  2  0
 28 29  1  0
 29 30  1  0
 30 31  2  0
 31 32  1  0
  5 33  1  0
 33 34  1  0
 34  2  1  0
 26  7  1  0
 31 27  1  0
 23 14  1  0
  1 35  1  0
  1 36  1  0
  1 37  1  0
  2 38  1  0
  3 39  1  0
  3 40  1  0
  4 41  1  0
  4 42  1  0
  6 43  1  0
  6 44  1  0
 11 45  1  0
 13 46  1  0
 15 47  1  0
 16 48  1  0
 19 49  1  0
 20 50  1  0
 20 51  1  0
 20 52  1  0
 21 53  1  0
 21 54  1  0
 21 55  1  0
 22 56  1  0
 23 57  1  0
 32 58  1  0
 32 59  1  0
 33 60  1  0
 33 61  1  0
 34 62  1  0
 34 63  1  0
M  END
$$$$
