
     RDKit          3D

 51 53  0  0  0  0  0  0  0  0999 V2000
   -8.1984   -0.9495   -2.6278 C   0  0  0  0  0  0  0  0  0  0  0  0
   -7.1738   -0.4337   -1.6618 C   0  0  0  0  0  0  0  0  0  0  0  0
   -7.2198   -0.7941   -0.3127 C   0  0  0  0  0  0  0  0  0  0  0  0
   -6.2423   -0.3348    0.5762 C   0  0  0  0  0  0  0  0  0  0  0  0
   -5.1965    0.4846    0.1322 C   0  0  0  0  0  0  0  0  0  0  0  0
   -4.2520    0.9004    1.0946 N   0  0  0  0  0  0  0  0  0  0  0  0
   -3.1541    1.7309    0.8981 C   0  0  0  0  0  0  0  0  0  0  0  0
   -2.8367    2.2737   -0.1542 O   0  0  0  0  0  0  0  0  0  0  0  0
   -2.3430    1.9149    2.1930 C   0  0  0  0  0  0  0  0  0  0  0  0
   -1.0819    2.5483    2.0655 O   0  0  0  0  0  0  0  0  0  0  0  0
   -0.0232    1.7977    1.6372 C   0  0  0  0  0  0  0  0  0  0  0  0
   -0.0732    0.4815    1.1774 C   0  0  0  0  0  0  0  0  0  0  0  0
    1.1007   -0.1717    0.7802 C   0  0  0  0  0  0  0  0  0  0  0  0
    2.3265    0.4983    0.8094 C   0  0  0  0  0  0  0  0  0  0  0  0
    3.5758   -0.1573    0.5117 N   0  0  0  0  0  0  0  0  0  0  0  0
    4.1077   -0.9580    1.6415 C   0  0  0  0  0  0  0  0  0  0  0  0
    3.6264   -0.9389   -1.0162 S   0  0  0  0  0  6  0  0  0  0  0  0
    3.1158   -0.0478   -2.0360 O   0  0  0  0  0  0  0  0  0  0  0  0
    3.0981   -2.2795   -0.8534 O   0  0  0  0  0  0  0  0  0  0  0  0
    5.3793   -1.0769   -1.3043 C   0  0  0  0  0  0  0  0  0  0  0  0
    6.1204    0.0923   -1.5195 C   0  0  0  0  0  0  0  0  0  0  0  0
    7.4924   -0.0012   -1.7519 C   0  0  0  0  0  0  0  0  0  0  0  0
    8.1018   -1.2530   -1.7727 C   0  0  0  0  0  0  0  0  0  0  0  0
    9.4197   -1.3389   -1.9952 F   0  0  0  0  0  0  0  0  0  0  0  0
    7.3657   -2.4180   -1.5688 C   0  0  0  0  0  0  0  0  0  0  0  0
    5.9924   -2.3349   -1.3360 C   0  0  0  0  0  0  0  0  0  0  0  0
    2.3807    1.8070    1.2872 C   0  0  0  0  0  0  0  0  0  0  0  0
    1.2092    2.4555    1.6852 C   0  0  0  0  0  0  0  0  0  0  0  0
   -5.1434    0.8303   -1.2176 C   0  0  0  0  0  0  0  0  0  0  0  0
   -6.1213    0.3710   -2.1082 C   0  0  0  0  0  0  0  0  0  0  0  0
   -7.8510   -1.8845   -3.0781 H   0  0  0  0  0  0  0  0  0  0  0  0
   -9.1536   -1.1335   -2.1247 H   0  0  0  0  0  0  0  0  0  0  0  0
   -8.3860   -0.2203   -3.4229 H   0  0  0  0  0  0  0  0  0  0  0  0
   -8.0179   -1.4344    0.0569 H   0  0  0  0  0  0  0  0  0  0  0  0
   -6.3155   -0.6317    1.6190 H   0  0  0  0  0  0  0  0  0  0  0  0
   -4.4137    0.5652    2.0357 H   0  0  0  0  0  0  0  0  0  0  0  0
   -2.9480    2.5667    2.8353 H   0  0  0  0  0  0  0  0  0  0  0  0
   -2.2506    0.9621    2.7295 H   0  0  0  0  0  0  0  0  0  0  0  0
   -1.0038   -0.0704    1.1019 H   0  0  0  0  0  0  0  0  0  0  0  0
    1.0366   -1.2035    0.4438 H   0  0  0  0  0  0  0  0  0  0  0  0
    3.4842   -1.8358    1.8351 H   0  0  0  0  0  0  0  0  0  0  0  0
    5.1332   -1.2799    1.4425 H   0  0  0  0  0  0  0  0  0  0  0  0
    4.1427   -0.3484    2.5516 H   0  0  0  0  0  0  0  0  0  0  0  0
    5.6329    1.0653   -1.5117 H   0  0  0  0  0  0  0  0  0  0  0  0
    8.0892    0.8895   -1.9222 H   0  0  0  0  0  0  0  0  0  0  0  0
    7.8666   -3.3809   -1.5992 H   0  0  0  0  0  0  0  0  0  0  0  0
    5.4138   -3.2438   -1.1869 H   0  0  0  0  0  0  0  0  0  0  0  0
    3.3300    2.3322    1.3408 H   0  0  0  0  0  0  0  0  0  0  0  0
    1.2576    3.4833    2.0372 H   0  0  0  0  0  0  0  0  0  0  0  0
   -4.3502    1.4533   -1.6194 H   0  0  0  0  0  0  0  0  0  0  0  0
   -6.0496    0.6514   -3.1571 H   0  0  0  0  0  0  0  0  0  0  0  0
  1  2  1  0
  2  3  2  0
  3  4  1  0
  4  5  2  0
  5  6  1  0
  6  7  1  0
  7  8  2  0
  7  9  1  0
  9 10  1  0
 10 11  1  0
 11 12  2  0
 12 13  1  0
 13 14  2  0
 14 15  1  0
 15 16  1  0
 15 17  1  0
 17 18  2  0
 17 19  2  0
 17 20  1  0
 20 21  2  0
 21 22  1  0
 22 23  2  0
 23 24  1  0
 23 25  1  0
 25 26  2  0
 14 27  1  0
 27 28  2  0
  5 29  1  0
 29 30  2  0
 30  2  1  0
 28 11  1  0
 26 20  1  0
  1 31  1  0
  1 32  1  0
  1 33  1  0
  3 34  1  0
  4 35  1  0
  6 36  1  0
  9 37  1  0
  9 38  1  0
 12 39  1  0
 13 40  1  0
 16 41  1  0
 16 42  1  0
 16 43  1  0
 21 44  1  0
 22 45  1  0
 25 46  1  0
 26 47  1  0
 27 48  1  0
 28 49  1  0
 29 50  1  0
 30 51  1  0
M  END
$$$$
