
     RDKit          3D

 59 62  0  0  0  0  0  0  0  0999 V2000
    6.9507    1.9496    0.4579 C   0  0  0  0  0  0  0  0  0  0  0  0
    6.3030    1.0191    1.3173 O   0  0  0  0  0  0  0  0  0  0  0  0
    4.9621    0.8237    1.1217 C   0  0  0  0  0  0  0  0  0  0  0  0
    4.1711    1.4585    0.1599 C   0  0  0  0  0  0  0  0  0  0  0  0
    2.8057    1.1632    0.0598 C   0  0  0  0  0  0  0  0  0  0  0  0
    2.2248    0.2330    0.9237 C   0  0  0  0  0  0  0  0  0  0  0  0
    0.8050   -0.1019    0.8482 C   0  0  0  0  0  0  0  0  0  0  0  0
    0.2536   -0.9982    1.6881 C   0  0  0  0  0  0  0  0  0  0  0  0
   -1.1986   -1.3867    1.6710 C   0  0  0  0  0  0  0  0  0  0  0  0
   -1.6506   -1.6423    0.2765 N   0  0  0  0  0  0  0  0  0  0  0  0
   -1.2626   -2.9870   -0.2485 C   0  0  0  0  0  0  0  0  0  0  0  0
   -0.2020   -2.8428   -1.3603 C   0  0  0  0  0  0  0  0  0  0  0  0
    0.0467   -4.1563   -2.0867 C   0  0  0  0  0  0  0  0  0  0  0  0
   -0.9701   -4.1116   -3.2010 C   0  0  0  0  0  0  0  0  0  0  0  0
   -0.9932   -2.6416   -3.5551 C   0  0  0  0  0  0  0  0  0  0  0  0
   -0.6400   -1.9126   -2.3713 O   0  0  0  0  0  0  0  0  0  0  0  0
   -3.2525   -1.1838   -0.0660 S   0  0  0  0  0  6  0  0  0  0  0  0
   -4.0641   -1.5560    1.0739 O   0  0  0  0  0  0  0  0  0  0  0  0
   -3.6097   -1.6049   -1.4033 O   0  0  0  0  0  0  0  0  0  0  0  0
   -3.1238    0.5893   -0.1027 C   0  0  0  0  0  0  0  0  0  0  0  0
   -3.7413    1.3643    0.8822 C   0  0  0  0  0  0  0  0  0  0  0  0
   -3.6242    2.7576    0.8369 C   0  0  0  0  0  0  0  0  0  0  0  0
   -2.9004    3.3719   -0.1958 C   0  0  0  0  0  0  0  0  0  0  0  0
   -2.7446    4.8554   -0.2850 C   0  0  0  0  0  0  0  0  0  0  0  0
   -3.4714    5.7277    0.7058 C   0  0  0  0  0  0  0  0  0  0  0  0
   -2.0243    5.3432   -1.1536 O   0  0  0  0  0  0  0  0  0  0  0  0
   -2.2941    2.5792   -1.1834 C   0  0  0  0  0  0  0  0  0  0  0  0
   -2.4072    1.1885   -1.1418 C   0  0  0  0  0  0  0  0  0  0  0  0
    1.1041   -1.6588    2.7244 C   0  0  0  0  0  0  0  0  0  0  0  0
    0.6415   -2.4768    3.5135 O   0  0  0  0  0  0  0  0  0  0  0  0
    2.4312   -1.3213    2.7562 N   0  0  0  0  0  0  0  0  0  0  0  0
    3.0185   -0.3954    1.8868 C   0  0  0  0  0  0  0  0  0  0  0  0
    4.3789   -0.1054    1.9883 C   0  0  0  0  0  0  0  0  0  0  0  0
    8.0136    1.9637    0.7228 H   0  0  0  0  0  0  0  0  0  0  0  0
    6.8737    1.6412   -0.5904 H   0  0  0  0  0  0  0  0  0  0  0  0
    6.5576    2.9608    0.6039 H   0  0  0  0  0  0  0  0  0  0  0  0
    4.5832    2.1891   -0.5286 H   0  0  0  0  0  0  0  0  0  0  0  0
    2.2081    1.6674   -0.6962 H   0  0  0  0  0  0  0  0  0  0  0  0
    0.2101    0.3879    0.0845 H   0  0  0  0  0  0  0  0  0  0  0  0
   -1.7586   -0.5596    2.1228 H   0  0  0  0  0  0  0  0  0  0  0  0
   -1.4128   -2.2715    2.2813 H   0  0  0  0  0  0  0  0  0  0  0  0
   -2.1475   -3.5098   -0.6289 H   0  0  0  0  0  0  0  0  0  0  0  0
   -0.8666   -3.6216    0.5531 H   0  0  0  0  0  0  0  0  0  0  0  0
    0.7296   -2.4604   -0.9306 H   0  0  0  0  0  0  0  0  0  0  0  0
    1.0549   -4.1508   -2.5194 H   0  0  0  0  0  0  0  0  0  0  0  0
   -0.0430   -5.0400   -1.4488 H   0  0  0  0  0  0  0  0  0  0  0  0
   -0.7151   -4.7494   -4.0517 H   0  0  0  0  0  0  0  0  0  0  0  0
   -1.9535   -4.4222   -2.8302 H   0  0  0  0  0  0  0  0  0  0  0  0
   -1.9700   -2.3092   -3.9155 H   0  0  0  0  0  0  0  0  0  0  0  0
   -0.2465   -2.4100   -4.3219 H   0  0  0  0  0  0  0  0  0  0  0  0
   -4.3088    0.8956    1.6840 H   0  0  0  0  0  0  0  0  0  0  0  0
   -4.1066    3.3380    1.6191 H   0  0  0  0  0  0  0  0  0  0  0  0
   -3.3426    6.7767    0.4218 H   0  0  0  0  0  0  0  0  0  0  0  0
   -3.0545    5.5873    1.7058 H   0  0  0  0  0  0  0  0  0  0  0  0
   -4.5433    5.5106    0.6942 H   0  0  0  0  0  0  0  0  0  0  0  0
   -1.7335    3.0434   -1.9933 H   0  0  0  0  0  0  0  0  0  0  0  0
   -1.9376    0.5780   -1.9123 H   0  0  0  0  0  0  0  0  0  0  0  0
    2.9900   -1.7818    3.4635 H   0  0  0  0  0  0  0  0  0  0  0  0
    4.9974   -0.5944    2.7363 H   0  0  0  0  0  0  0  0  0  0  0  0
  1  2  1  0
  2  3  1  0
  3  4  2  0
  4  5  1  0
  5  6  2  0
  6  7  1  0
  7  8  2  0
  8  9  1  0
  9 10  1  0
 10 11  1  0
 11 12  1  0
 12 13  1  0
 13 14  1  0
 14 15  1  0
 15 16  1  0
 10 17  1  0
 17 18  2  0
 17 19  2  0
 17 20  1  0
 20 21  2  0
 21 22  1  0
 22 23  2  0
 23 24  1  0
 24 25  1  0
 24 26  2  0
 23 27  1  0
 27 28  2  0
  8 29  1  0
 29 30  2  0
 29 31  1  0
 31 32  1  0
 32 33  2  0
 33  3  1  0
 32  6  1  0
 16 12  1  0
 28 20  1  0
  1 34  1  0
  1 35  1  0
  1 36  1  0
  4 37  1  0
  5 38  1  0
  7 39  1  0
  9 40  1  0
  9 41  1  0
 11 42  1  0
 11 43  1  0
 12 44  1  0
 13 45  1  0
 13 46  1  0
 14 47  1  0
 14 48  1  0
 15 49  1  0
 15 50  1  0
 21 51  1  0
 22 52  1  0
 25 53  1  0
 25 54  1  0
 25 55  1  0
 27 56  1  0
 28 57  1  0
 31 58  1  0
 33 59  1  0
M  END
$$$$
