
     RDKit          3D

 51 53  0  0  0  0  0  0  0  0999 V2000
   -9.5043    0.2672   -1.9592 C   0  0  0  0  0  0  0  0  0  0  0  0
   -8.1418    0.1837   -1.3387 C   0  0  0  0  0  0  0  0  0  0  0  0
   -7.9912    0.2222    0.0510 C   0  0  0  0  0  0  0  0  0  0  0  0
   -6.7194    0.1769    0.6342 C   0  0  0  0  0  0  0  0  0  0  0  0
   -5.5781    0.1028   -0.1634 C   0  0  0  0  0  0  0  0  0  0  0  0
   -4.2667    0.0536    0.3425 N   0  0  0  0  0  0  0  0  0  0  0  0
   -3.8557    0.0592    1.6626 C   0  0  0  0  0  0  0  0  0  0  0  0
   -4.5759    0.1120    2.6561 O   0  0  0  0  0  0  0  0  0  0  0  0
   -2.3315    0.0031    1.8127 C   0  0  0  0  0  0  0  0  0  0  0  0
   -1.6891   -0.1692    0.5503 O   0  0  0  0  0  0  0  0  0  0  0  0
   -0.3228   -0.2227    0.5540 C   0  0  0  0  0  0  0  0  0  0  0  0
    0.2577   -0.3826   -0.7072 C   0  0  0  0  0  0  0  0  0  0  0  0
    1.6457   -0.4500   -0.8482 C   0  0  0  0  0  0  0  0  0  0  0  0
    2.4661   -0.3386    0.2731 C   0  0  0  0  0  0  0  0  0  0  0  0
    3.8867   -0.4817    0.0814 N   0  0  0  0  0  0  0  0  0  0  0  0
    4.4039   -1.8263    0.4335 C   0  0  0  0  0  0  0  0  0  0  0  0
    4.8095    0.8337    0.6891 S   0  0  0  0  0  6  0  0  0  0  0  0
    4.2259    2.0798    0.2384 O   0  0  0  0  0  0  0  0  0  0  0  0
    5.0693    0.5896    2.0945 O   0  0  0  0  0  0  0  0  0  0  0  0
    6.3472    0.6489   -0.1905 C   0  0  0  0  0  0  0  0  0  0  0  0
    6.3623    0.8643   -1.5745 C   0  0  0  0  0  0  0  0  0  0  0  0
    7.5608    0.7275   -2.2746 C   0  0  0  0  0  0  0  0  0  0  0  0
    8.7226    0.3860   -1.5874 C   0  0  0  0  0  0  0  0  0  0  0  0
    9.8713    0.2542   -2.2630 F   0  0  0  0  0  0  0  0  0  0  0  0
    8.7125    0.1812   -0.2099 C   0  0  0  0  0  0  0  0  0  0  0  0
    7.5184    0.3158    0.4996 C   0  0  0  0  0  0  0  0  0  0  0  0
    1.8909   -0.2074    1.5392 C   0  0  0  0  0  0  0  0  0  0  0  0
    0.4995   -0.1392    1.6785 C   0  0  0  0  0  0  0  0  0  0  0  0
   -5.7276    0.0792   -1.5549 C   0  0  0  0  0  0  0  0  0  0  0  0
   -6.9976    0.1247   -2.1388 C   0  0  0  0  0  0  0  0  0  0  0  0
   -9.5299   -0.2614   -2.9180 H   0  0  0  0  0  0  0  0  0  0  0  0
   -9.7765    1.3141   -2.1250 H   0  0  0  0  0  0  0  0  0  0  0  0
  -10.2569   -0.1966   -1.3130 H   0  0  0  0  0  0  0  0  0  0  0  0
   -8.8640    0.2875    0.6974 H   0  0  0  0  0  0  0  0  0  0  0  0
   -6.6576    0.2047    1.7175 H   0  0  0  0  0  0  0  0  0  0  0  0
   -3.5121   -0.0016   -0.3353 H   0  0  0  0  0  0  0  0  0  0  0  0
   -2.1058   -0.8470    2.4670 H   0  0  0  0  0  0  0  0  0  0  0  0
   -2.0209    0.9496    2.2702 H   0  0  0  0  0  0  0  0  0  0  0  0
   -0.3726   -0.4556   -1.5898 H   0  0  0  0  0  0  0  0  0  0  0  0
    2.0818   -0.5775   -1.8348 H   0  0  0  0  0  0  0  0  0  0  0  0
    5.4251   -1.9573    0.0666 H   0  0  0  0  0  0  0  0  0  0  0  0
    4.3817   -1.9934    1.5148 H   0  0  0  0  0  0  0  0  0  0  0  0
    3.7957   -2.6007   -0.0474 H   0  0  0  0  0  0  0  0  0  0  0  0
    5.4512    1.1409   -2.1012 H   0  0  0  0  0  0  0  0  0  0  0  0
    7.5996    0.8897   -3.3475 H   0  0  0  0  0  0  0  0  0  0  0  0
    9.6359   -0.0761    0.3004 H   0  0  0  0  0  0  0  0  0  0  0  0
    7.5110    0.1657    1.5769 H   0  0  0  0  0  0  0  0  0  0  0  0
    2.5124   -0.1525    2.4298 H   0  0  0  0  0  0  0  0  0  0  0  0
    0.0982   -0.0224    2.6801 H   0  0  0  0  0  0  0  0  0  0  0  0
   -4.8592    0.0288   -2.2063 H   0  0  0  0  0  0  0  0  0  0  0  0
   -7.0857    0.1131   -3.2227 H   0  0  0  0  0  0  0  0  0  0  0  0
  1  2  1  0
  2  3  2  0
  3  4  1  0
  4  5  2  0
  5  6  1  0
  6  7  1  0
  7  8  2  0
  7  9  1  0
  9 10  1  0
 10 11  1  0
 11 12  2  0
 12 13  1  0
 13 14  2  0
 14 15  1  0
 15 16  1  0
 15 17  1  0
 17 18  2  0
 17 19  2  0
 17 20  1  0
 20 21  2  0
 21 22  1  0
 22 23  2  0
 23 24  1  0
 23 25  1  0
 25 26  2  0
 14 27  1  0
 27 28  2  0
  5 29  1  0
 29 30  2  0
 30  2  1  0
 28 11  1  0
 26 20  1  0
  1 31  1  0
  1 32  1  0
  1 33  1  0
  3 34  1  0
  4 35  1  0
  6 36  1  0
  9 37  1  0
  9 38  1  0
 12 39  1  0
 13 40  1  0
 16 41  1  0
 16 42  1  0
 16 43  1  0
 21 44  1  0
 22 45  1  0
 25 46  1  0
 26 47  1  0
 27 48  1  0
 28 49  1  0
 29 50  1  0
 30 51  1  0
M  END
$$$$
