
     RDKit          3D

 29 29  0  0  0  0  0  0  0  0999 V2000
   -6.0691   -2.0456   -0.8800 C   0  0  0  0  0  0  0  0  0  0  0  0
   -4.9652   -1.5736   -0.8386 C   0  0  0  0  0  0  0  0  0  0  0  0
   -3.6153   -0.9955   -0.7878 C   0  0  0  0  0  0  0  0  0  0  0  0
   -2.6680   -2.0183   -0.3553 N   0  0  0  0  0  0  0  0  0  0  0  0
   -1.2962   -1.5151   -0.2755 C   0  0  0  0  0  0  0  0  0  0  0  0
   -1.0254   -0.7168    1.0048 C   0  0  0  0  0  0  0  0  0  0  0  0
    0.4372   -0.2828    1.0995 C   0  0  0  0  0  0  0  0  0  0  0  0
    0.7145    0.6152    0.0274 O   0  0  0  0  0  0  0  0  0  0  0  0
    1.9887    1.1007   -0.0970 C   0  0  0  0  0  0  0  0  0  0  0  0
    3.0323    0.8286    0.7938 C   0  0  0  0  0  0  0  0  0  0  0  0
    4.3027    1.3753    0.5815 C   0  0  0  0  0  0  0  0  0  0  0  0
    4.5348    2.1961   -0.5199 C   0  0  0  0  0  0  0  0  0  0  0  0
    6.1001    2.8633   -0.7713 Cl  0  0  0  0  0  0  0  0  0  0  0  0
    3.5097    2.4795   -1.4153 C   0  0  0  0  0  0  0  0  0  0  0  0
    2.2419    1.9332   -1.2022 C   0  0  0  0  0  0  0  0  0  0  0  0
    0.9970    2.3129   -2.3428 Cl  0  0  0  0  0  0  0  0  0  0  0  0
   -7.0452   -2.4705   -0.9217 H   0  0  0  0  0  0  0  0  0  0  0  0
   -3.3444   -0.6251   -1.7830 H   0  0  0  0  0  0  0  0  0  0  0  0
   -3.6190   -0.1432   -0.1002 H   0  0  0  0  0  0  0  0  0  0  0  0
   -2.9656   -2.3892    0.5452 H   0  0  0  0  0  0  0  0  0  0  0  0
   -0.6306   -2.3865   -0.2887 H   0  0  0  0  0  0  0  0  0  0  0  0
   -1.0486   -0.9303   -1.1695 H   0  0  0  0  0  0  0  0  0  0  0  0
   -1.2737   -1.3248    1.8828 H   0  0  0  0  0  0  0  0  0  0  0  0
   -1.6609    0.1759    1.0258 H   0  0  0  0  0  0  0  0  0  0  0  0
    0.5891    0.2267    2.0583 H   0  0  0  0  0  0  0  0  0  0  0  0
    1.0872   -1.1640    1.0410 H   0  0  0  0  0  0  0  0  0  0  0  0
    2.8932    0.1974    1.6656 H   0  0  0  0  0  0  0  0  0  0  0  0
    5.1061    1.1563    1.2812 H   0  0  0  0  0  0  0  0  0  0  0  0
    3.6929    3.1203   -2.2733 H   0  0  0  0  0  0  0  0  0  0  0  0
  1  2  3  0
  2  3  1  0
  3  4  1  0
  4  5  1  0
  5  6  1  0
  6  7  1  0
  7  8  1  0
  8  9  1  0
  9 10  2  0
 10 11  1  0
 11 12  2  0
 12 13  1  0
 12 14  1  0
 14 15  2  0
 15 16  1  0
 15  9  1  0
  1 17  1  0
  3 18  1  0
  3 19  1  0
  4 20  1  0
  5 21  1  0
  5 22  1  0
  6 23  1  0
  6 24  1  0
  7 25  1  0
  7 26  1  0
 10 27  1  0
 11 28  1  0
 14 29  1  0
M  END
$$$$
