
     RDKit          3D

 39 40  0  0  0  0  0  0  0  0999 V2000
   -1.1549   -0.0492    2.6580 O   0  0  0  0  0  0  0  0  0  0  0  0
   -1.1009   -0.1600    1.4394 C   0  0  0  0  0  0  0  0  0  0  0  0
    0.2169   -0.3496    0.7028 C   0  0  0  0  0  0  0  0  0  0  0  0
    1.4219   -0.2733    1.6409 C   0  0  0  0  0  0  0  0  0  0  0  0
    2.7344   -0.5518    0.9133 C   0  0  0  0  0  0  0  0  0  0  0  0
    2.9021    0.4182   -0.1193 O   0  0  0  0  0  0  0  0  0  0  0  0
    4.0228    0.3141   -0.8962 C   0  0  0  0  0  0  0  0  0  0  0  0
    4.1218    1.2729   -1.9081 C   0  0  0  0  0  0  0  0  0  0  0  0
    5.2150    1.2821   -2.7759 C   0  0  0  0  0  0  0  0  0  0  0  0
    6.2200    0.3285   -2.6351 C   0  0  0  0  0  0  0  0  0  0  0  0
    6.1294   -0.6300   -1.6272 C   0  0  0  0  0  0  0  0  0  0  0  0
    5.0335   -0.6383   -0.7581 C   0  0  0  0  0  0  0  0  0  0  0  0
   -2.1720   -0.1510    0.5566 N   0  0  0  0  0  0  0  0  0  0  0  0
   -3.5507   -0.0026    0.8487 C   0  0  0  0  0  0  0  0  0  0  0  0
   -4.0150    0.1671    2.1605 C   0  0  0  0  0  0  0  0  0  0  0  0
   -5.3777    0.3136    2.4379 C   0  0  0  0  0  0  0  0  0  0  0  0
   -6.3061    0.2934    1.4072 C   0  0  0  0  0  0  0  0  0  0  0  0
   -5.8682    0.1262    0.0975 C   0  0  0  0  0  0  0  0  0  0  0  0
   -4.4951   -0.0230   -0.2007 C   0  0  0  0  0  0  0  0  0  0  0  0
   -4.1327   -0.2003   -1.6534 C   0  0  0  0  0  0  0  0  0  0  0  0
   -2.7922   -0.3263   -1.8856 F   0  0  0  0  0  0  0  0  0  0  0  0
   -4.5385    0.8459   -2.4260 F   0  0  0  0  0  0  0  0  0  0  0  0
   -4.7018   -1.3100   -2.2021 F   0  0  0  0  0  0  0  0  0  0  0  0
    0.1910   -1.3285    0.2095 H   0  0  0  0  0  0  0  0  0  0  0  0
    0.2917    0.4243   -0.0702 H   0  0  0  0  0  0  0  0  0  0  0  0
    1.3086   -0.9908    2.4622 H   0  0  0  0  0  0  0  0  0  0  0  0
    1.4585    0.7285    2.0870 H   0  0  0  0  0  0  0  0  0  0  0  0
    3.5579   -0.4786    1.6337 H   0  0  0  0  0  0  0  0  0  0  0  0
    2.7049   -1.5615    0.4860 H   0  0  0  0  0  0  0  0  0  0  0  0
    3.3403    2.0203   -2.0200 H   0  0  0  0  0  0  0  0  0  0  0  0
    5.2806    2.0333   -3.5583 H   0  0  0  0  0  0  0  0  0  0  0  0
    7.0733    0.3329   -3.3082 H   0  0  0  0  0  0  0  0  0  0  0  0
    6.9147   -1.3734   -1.5152 H   0  0  0  0  0  0  0  0  0  0  0  0
    5.0029   -1.3989    0.0144 H   0  0  0  0  0  0  0  0  0  0  0  0
   -1.9238   -0.2595   -0.4238 H   0  0  0  0  0  0  0  0  0  0  0  0
   -3.3372    0.1925    3.0086 H   0  0  0  0  0  0  0  0  0  0  0  0
   -5.7057    0.4440    3.4666 H   0  0  0  0  0  0  0  0  0  0  0  0
   -7.3655    0.4075    1.6228 H   0  0  0  0  0  0  0  0  0  0  0  0
   -6.6043    0.1113   -0.7065 H   0  0  0  0  0  0  0  0  0  0  0  0
  1  2  2  0
  2  3  1  0
  3  4  1  0
  4  5  1  0
  5  6  1  0
  6  7  1  0
  7  8  2  0
  8  9  1  0
  9 10  2  0
 10 11  1  0
 11 12  2  0
  2 13  1  0
 13 14  1  0
 14 15  2  0
 15 16  1  0
 16 17  2  0
 17 18  1  0
 18 19  2  0
 19 20  1  0
 20 21  1  0
 20 22  1  0
 20 23  1  0
 12  7  1  0
 19 14  1  0
  3 24  1  0
  3 25  1  0
  4 26  1  0
  4 27  1  0
  5 28  1  0
  5 29  1  0
  8 30  1  0
  9 31  1  0
 10 32  1  0
 11 33  1  0
 12 34  1  0
 13 35  1  0
 15 36  1  0
 16 37  1  0
 17 38  1  0
 18 39  1  0
M  END
$$$$
