
     RDKit          3D

 38 40  0  0  0  0  0  0  0  0999 V2000
    1.8473    1.3687    1.8300 C   0  0  0  0  0  0  0  0  0  0  0  0
    0.6547    0.6324    1.2886 C   0  0  0  0  0  0  0  0  0  0  0  0
   -0.6173    1.2061    1.4231 C   0  0  0  0  0  0  0  0  0  0  0  0
   -1.7517    0.5476    0.9480 C   0  0  0  0  0  0  0  0  0  0  0  0
   -2.9387    1.2001    1.1374 O   0  0  0  0  0  0  0  0  0  0  0  0
   -1.6508   -0.6984    0.3206 C   0  0  0  0  0  0  0  0  0  0  0  0
   -3.0307   -1.5659   -0.4099 S   0  0  0  0  0  0  0  0  0  0  0  0
   -4.0263   -1.9183    0.9712 C   0  0  0  0  0  0  0  0  0  0  0  0
   -4.5204   -0.9334    1.7893 N   0  0  0  0  0  0  0  0  0  0  0  0
   -5.2287   -1.6100    2.6642 C   0  0  0  0  0  0  0  0  0  0  0  0
   -5.1679   -2.9361    2.3708 N   0  0  0  0  0  0  0  0  0  0  0  0
   -4.4114   -3.1572    1.2851 N   0  0  0  0  0  0  0  0  0  0  0  0
   -0.3789   -1.2707    0.1822 C   0  0  0  0  0  0  0  0  0  0  0  0
    0.7652   -0.6151    0.6543 C   0  0  0  0  0  0  0  0  0  0  0  0
    2.0464   -1.2123    0.4695 N   0  0  0  0  0  0  0  0  0  0  0  0
    2.6409   -1.4961   -1.0839 S   0  0  0  0  0  6  0  0  0  0  0  0
    4.0480   -1.7978   -0.9201 O   0  0  0  0  0  0  0  0  0  0  0  0
    1.7596   -2.4020   -1.7871 O   0  0  0  0  0  0  0  0  0  0  0  0
    2.5263    0.0990   -1.8673 C   0  0  0  0  0  0  0  0  0  0  0  0
    3.6054    0.9862   -1.7879 C   0  0  0  0  0  0  0  0  0  0  0  0
    3.5186    2.2315   -2.4142 C   0  0  0  0  0  0  0  0  0  0  0  0
    2.3654    2.5748   -3.1219 C   0  0  0  0  0  0  0  0  0  0  0  0
    2.2624    4.1119   -3.8875 Cl  0  0  0  0  0  0  0  0  0  0  0  0
    1.2987    1.6805   -3.2186 C   0  0  0  0  0  0  0  0  0  0  0  0
    1.3801    0.4326   -2.5974 C   0  0  0  0  0  0  0  0  0  0  0  0
    2.5772    1.5552    1.0372 H   0  0  0  0  0  0  0  0  0  0  0  0
    1.5653    2.3407    2.2487 H   0  0  0  0  0  0  0  0  0  0  0  0
    2.3183    0.7886    2.6299 H   0  0  0  0  0  0  0  0  0  0  0  0
   -0.7404    2.1742    1.9046 H   0  0  0  0  0  0  0  0  0  0  0  0
   -3.6502    0.5259    1.1767 H   0  0  0  0  0  0  0  0  0  0  0  0
   -5.7883   -1.2102    3.4981 H   0  0  0  0  0  0  0  0  0  0  0  0
   -5.6030   -3.7207    2.8440 H   0  0  0  0  0  0  0  0  0  0  0  0
   -0.2803   -2.2433   -0.2972 H   0  0  0  0  0  0  0  0  0  0  0  0
    2.7871   -0.9935    1.1324 H   0  0  0  0  0  0  0  0  0  0  0  0
    4.5107    0.7178   -1.2478 H   0  0  0  0  0  0  0  0  0  0  0  0
    4.3524    2.9265   -2.3528 H   0  0  0  0  0  0  0  0  0  0  0  0
    0.4050    1.9468   -3.7778 H   0  0  0  0  0  0  0  0  0  0  0  0
    0.5503   -0.2662   -2.6842 H   0  0  0  0  0  0  0  0  0  0  0  0
  1  2  1  0
  2  3  2  0
  3  4  1  0
  4  5  1  0
  4  6  2  0
  6  7  1  0
  7  8  1  0
  8  9  1  0
  9 10  2  0
 10 11  1  0
 11 12  1  0
  6 13  1  0
 13 14  2  0
 14 15  1  0
 15 16  1  0
 16 17  2  0
 16 18  2  0
 16 19  1  0
 19 20  2  0
 20 21  1  0
 21 22  2  0
 22 23  1  0
 22 24  1  0
 24 25  2  0
 14  2  1  0
 25 19  1  0
 12  8  2  0
  1 26  1  0
  1 27  1  0
  1 28  1  0
  3 29  1  0
  5 30  1  0
 10 31  1  0
 11 32  1  0
 13 33  1  0
 15 34  1  0
 20 35  1  0
 21 36  1  0
 24 37  1  0
 25 38  1  0
M  END
$$$$
