
     RDKit          3D

 69 75  0  0  0  0  0  0  0  0999 V2000
   -3.9585    5.2301    1.6547 C   0  0  0  0  0  0  0  0  0  0  0  0
   -3.3303    4.1878    0.7776 C   0  0  0  0  0  0  0  0  0  0  0  0
   -3.3898    4.2732   -0.6262 C   0  0  0  0  0  0  0  0  0  0  0  0
   -4.1742    5.6021   -1.4102 Cl  0  0  0  0  0  0  0  0  0  0  0  0
   -2.8227    3.2821   -1.4517 C   0  0  0  0  0  0  0  0  0  0  0  0
   -2.1778    2.1741   -0.8989 C   0  0  0  0  0  0  0  0  0  0  0  0
   -2.1009    2.0799    0.4837 C   0  0  0  0  0  0  0  0  0  0  0  0
   -2.6856    3.0684    1.2934 C   0  0  0  0  0  0  0  0  0  0  0  0
   -2.5343    2.7261    2.6349 N   0  0  0  0  0  0  0  0  0  0  0  0
   -1.8780    1.5038    2.7917 C   0  0  0  0  0  0  0  0  0  0  0  0
   -1.6682    0.9737    3.8737 O   0  0  0  0  0  0  0  0  0  0  0  0
   -1.4891    1.0158    1.3651 C   0  0  1  0  0  0  0  0  0  0  0  0
   -2.0872   -0.2833    1.0044 C   0  0  0  0  0  0  0  0  0  0  0  0
   -1.1035   -1.2465    0.7929 C   0  0  0  0  0  0  0  0  0  0  0  0
   -1.7029   -2.4257    0.4457 C   0  0  0  0  0  0  0  0  0  0  0  0
   -1.1204   -3.5554    0.0493 O   0  0  0  0  0  0  0  0  0  0  0  0
   -3.0922   -2.2163    0.5205 N   0  0  0  0  0  0  0  0  0  0  0  0
   -4.0995   -3.1966    0.2902 C   0  0  0  0  0  0  0  0  0  0  0  0
   -3.9282   -4.5009    0.7698 C   0  0  0  0  0  0  0  0  0  0  0  0
   -4.9194   -5.4581    0.5499 C   0  0  0  0  0  0  0  0  0  0  0  0
   -6.0760   -5.1217   -0.1529 C   0  0  0  0  0  0  0  0  0  0  0  0
   -6.2492   -3.8236   -0.6316 C   0  0  0  0  0  0  0  0  0  0  0  0
   -5.2657   -2.8578   -0.4108 C   0  0  0  0  0  0  0  0  0  0  0  0
   -3.3171   -0.8713    0.8661 C   0  0  0  0  0  0  0  0  0  0  0  0
   -4.5153   -0.3327    1.0873 O   0  0  0  0  0  0  0  0  0  0  0  0
    0.2564   -0.7044    0.9952 C   0  0  1  0  0  0  0  0  0  0  0  0
    1.2195   -0.9349   -0.1876 C   0  0  0  0  0  0  0  0  0  0  0  0
    2.4537   -0.1474   -0.0413 N   0  0  0  0  0  0  0  0  0  0  0  0
    3.6748   -0.7948   -0.1215 C   0  0  0  0  0  0  0  0  0  0  0  0
    3.7835   -1.9975   -0.3442 O   0  0  0  0  0  0  0  0  0  0  0  0
    4.7635    0.0121    0.0966 N   0  0  0  0  0  0  0  0  0  0  0  0
    6.1099   -0.5140    0.0313 C   0  0  0  0  0  0  0  0  0  0  0  0
    6.7399   -0.2216   -1.3072 C   0  0  0  0  0  0  0  0  0  0  0  0
    6.5359   -1.0891   -2.3911 C   0  0  0  0  0  0  0  0  0  0  0  0
    7.1000   -0.8099   -3.6367 C   0  0  0  0  0  0  0  0  0  0  0  0
    7.8655    0.3421   -3.8139 C   0  0  0  0  0  0  0  0  0  0  0  0
    8.0650    1.2184   -2.7468 C   0  0  0  0  0  0  0  0  0  0  0  0
    7.5034    0.9395   -1.4992 C   0  0  0  0  0  0  0  0  0  0  0  0
    2.2779    1.2238    0.4608 C   0  0  0  0  0  0  0  0  0  0  0  0
    0.8032    1.6692    0.5074 C   0  0  0  0  0  0  0  0  0  0  0  0
   -0.0122    0.7545    1.3015 N   0  0  0  0  0  0  0  0  0  0  0  0
   -3.5814    6.2264    1.3990 H   0  0  0  0  0  0  0  0  0  0  0  0
   -3.7386    5.0738    2.7145 H   0  0  0  0  0  0  0  0  0  0  0  0
   -5.0475    5.2144    1.5379 H   0  0  0  0  0  0  0  0  0  0  0  0
   -2.8920    3.3680   -2.5350 H   0  0  0  0  0  0  0  0  0  0  0  0
   -1.7576    1.4029   -1.5391 H   0  0  0  0  0  0  0  0  0  0  0  0
   -2.8958    3.2332    3.4273 H   0  0  0  0  0  0  0  0  0  0  0  0
   -1.7716   -4.1139   -0.4104 H   0  0  0  0  0  0  0  0  0  0  0  0
   -3.0567   -4.7785    1.3634 H   0  0  0  0  0  0  0  0  0  0  0  0
   -4.7924   -6.4669    0.9337 H   0  0  0  0  0  0  0  0  0  0  0  0
   -6.8437   -5.8724   -0.3246 H   0  0  0  0  0  0  0  0  0  0  0  0
   -7.1489   -3.5665   -1.1861 H   0  0  0  0  0  0  0  0  0  0  0  0
   -5.4094   -1.8629   -0.8268 H   0  0  0  0  0  0  0  0  0  0  0  0
   -5.1375   -1.0402    1.3380 H   0  0  0  0  0  0  0  0  0  0  0  0
    0.6929   -1.1418    1.9028 H   0  0  0  0  0  0  0  0  0  0  0  0
    1.4386   -2.0020   -0.2942 H   0  0  0  0  0  0  0  0  0  0  0  0
    0.7568   -0.6164   -1.1299 H   0  0  0  0  0  0  0  0  0  0  0  0
    4.6664    0.9659   -0.2038 H   0  0  0  0  0  0  0  0  0  0  0  0
    6.6826   -0.0220    0.8288 H   0  0  0  0  0  0  0  0  0  0  0  0
    6.1285   -1.5904    0.2432 H   0  0  0  0  0  0  0  0  0  0  0  0
    5.9279   -1.9850   -2.2650 H   0  0  0  0  0  0  0  0  0  0  0  0
    6.9381   -1.4932   -4.4677 H   0  0  0  0  0  0  0  0  0  0  0  0
    8.3010    0.5594   -4.7845 H   0  0  0  0  0  0  0  0  0  0  0  0
    8.6576    2.1193   -2.8869 H   0  0  0  0  0  0  0  0  0  0  0  0
    7.6659    1.6354   -0.6779 H   0  0  0  0  0  0  0  0  0  0  0  0
    2.8360    1.9061   -0.1904 H   0  0  0  0  0  0  0  0  0  0  0  0
    2.7224    1.2735    1.4630 H   0  0  0  0  0  0  0  0  0  0  0  0
    0.4490    1.7213   -0.5271 H   0  0  0  0  0  0  0  0  0  0  0  0
    0.7556    2.6792    0.9297 H   0  0  0  0  0  0  0  0  0  0  0  0
  1  2  1  0
  2  3  2  0
  3  4  1  0
  3  5  1  0
  5  6  2  0
  6  7  1  0
  7  8  2  0
  8  9  1  0
  9 10  1  0
 10 11  2  0
 10 12  1  0
 12 13  1  0
 13 14  1  0
 14 15  2  0
 15 16  1  0
 15 17  1  0
 17 18  1  0
 18 19  2  0
 19 20  1  0
 20 21  2  0
 21 22  1  0
 22 23  2  0
 17 24  1  0
 24 25  1  0
 14 26  1  0
 26 27  1  0
 27 28  1  0
 28 29  1  0
 29 30  2  0
 29 31  1  0
 31 32  1  0
 32 33  1  0
 33 34  2  0
 34 35  1  0
 35 36  2  0
 36 37  1  0
 37 38  2  0
 28 39  1  0
 39 40  1  0
 40 41  1  0
  8  2  1  0
 12 41  1  1
 12  7  1  0
 24 13  2  0
 41 26  1  0
 23 18  1  0
 38 33  1  0
  1 42  1  0
  1 43  1  0
  1 44  1  0
  5 45  1  0
  6 46  1  0
  9 47  1  0
 16 48  1  0
 19 49  1  0
 20 50  1  0
 21 51  1  0
 22 52  1  0
 23 53  1  0
 25 54  1  0
 26 55  1  1
 27 56  1  0
 27 57  1  0
 31 58  1  0
 32 59  1  0
 32 60  1  0
 34 61  1  0
 35 62  1  0
 36 63  1  0
 37 64  1  0
 38 65  1  0
 39 66  1  0
 39 67  1  0
 40 68  1  0
 40 69  1  0
M  END
$$$$
