
     RDKit          3D

 61 64  0  0  0  0  0  0  0  0999 V2000
   -8.6633    1.8938   -1.5663 C   0  0  0  0  0  0  0  0  0  0  0  0
   -7.3221    1.9275   -1.0942 O   0  0  0  0  0  0  0  0  0  0  0  0
   -6.7453    0.7303   -0.7662 C   0  0  0  0  0  0  0  0  0  0  0  0
   -7.3275   -0.5324   -0.9211 C   0  0  0  0  0  0  0  0  0  0  0  0
   -6.6299   -1.6817   -0.5352 C   0  0  0  0  0  0  0  0  0  0  0  0
   -7.0857   -2.9685   -0.6311 O   0  0  0  0  0  0  0  0  0  0  0  0
   -8.4142   -3.1572   -1.1004 C   0  0  0  0  0  0  0  0  0  0  0  0
   -5.3439   -1.5623   -0.0044 C   0  0  0  0  0  0  0  0  0  0  0  0
   -4.7482   -0.3053    0.1350 C   0  0  0  0  0  0  0  0  0  0  0  0
   -3.3763   -0.2276    0.7038 C   0  0  0  0  0  0  0  0  0  0  0  0
   -3.0354   -1.0467    1.5510 O   0  0  0  0  0  0  0  0  0  0  0  0
   -2.5788    0.7796    0.1791 N   0  0  0  0  0  0  0  0  0  0  0  0
   -1.2970    0.9248    0.6199 N   0  0  0  0  0  0  0  0  0  0  0  0
   -0.6026    1.8473    0.0358 C   0  0  0  0  0  0  0  0  0  0  0  0
    0.7996    2.1197    0.4096 C   0  0  0  0  0  0  0  0  0  0  0  0
    1.4723    3.1712   -0.2108 C   0  0  0  0  0  0  0  0  0  0  0  0
    2.7967    3.4544    0.1393 C   0  0  0  0  0  0  0  0  0  0  0  0
    3.4602    2.6869    1.1045 C   0  0  0  0  0  0  0  0  0  0  0  0
    4.7500    2.9026    1.5133 O   0  0  0  0  0  0  0  0  0  0  0  0
    5.4777    3.9462    0.8786 C   0  0  0  0  0  0  0  0  0  0  0  0
    2.7891    1.6129    1.7192 C   0  0  0  0  0  0  0  0  0  0  0  0
    3.4561    0.7568    2.7770 C   0  0  0  0  0  0  0  0  0  0  0  0
    3.2039   -0.6404    2.5900 O   0  0  0  0  0  0  0  0  0  0  0  0
    3.9259   -1.3209    1.6489 C   0  0  0  0  0  0  0  0  0  0  0  0
    3.5295   -2.6463    1.4675 C   0  0  0  0  0  0  0  0  0  0  0  0
    4.1758   -3.4642    0.5383 C   0  0  0  0  0  0  0  0  0  0  0  0
    5.2381   -2.9675   -0.2291 C   0  0  0  0  0  0  0  0  0  0  0  0
    5.9028   -3.7724   -1.1685 C   0  0  0  0  0  0  0  0  0  0  0  0
    6.9592   -3.2617   -1.9245 C   0  0  0  0  0  0  0  0  0  0  0  0
    7.3634   -1.9414   -1.7513 C   0  0  0  0  0  0  0  0  0  0  0  0
    6.7118   -1.1290   -0.8216 C   0  0  0  0  0  0  0  0  0  0  0  0
    5.6471   -1.6265   -0.0515 C   0  0  0  0  0  0  0  0  0  0  0  0
    4.9830   -0.8172    0.8898 C   0  0  0  0  0  0  0  0  0  0  0  0
    1.4509    1.3463    1.3710 C   0  0  0  0  0  0  0  0  0  0  0  0
   -5.4575    0.8409   -0.2354 C   0  0  0  0  0  0  0  0  0  0  0  0
   -8.9808    2.9261   -1.7451 H   0  0  0  0  0  0  0  0  0  0  0  0
   -8.7316    1.3549   -2.5171 H   0  0  0  0  0  0  0  0  0  0  0  0
   -9.3357    1.4631   -0.8167 H   0  0  0  0  0  0  0  0  0  0  0  0
   -8.3224   -0.6215   -1.3379 H   0  0  0  0  0  0  0  0  0  0  0  0
   -9.1396   -2.6689   -0.4415 H   0  0  0  0  0  0  0  0  0  0  0  0
   -8.6238   -4.2309   -1.0880 H   0  0  0  0  0  0  0  0  0  0  0  0
   -8.5204   -2.8094   -2.1330 H   0  0  0  0  0  0  0  0  0  0  0  0
   -4.8018   -2.4562    0.3005 H   0  0  0  0  0  0  0  0  0  0  0  0
   -2.8943    1.3325   -0.6080 H   0  0  0  0  0  0  0  0  0  0  0  0
   -1.0317    2.4760   -0.7651 H   0  0  0  0  0  0  0  0  0  0  0  0
    0.9802    3.7821   -0.9623 H   0  0  0  0  0  0  0  0  0  0  0  0
    3.2822    4.2864   -0.3602 H   0  0  0  0  0  0  0  0  0  0  0  0
    5.0183    4.9212    1.0711 H   0  0  0  0  0  0  0  0  0  0  0  0
    5.5799    3.7594   -0.1954 H   0  0  0  0  0  0  0  0  0  0  0  0
    6.4832    3.9614    1.3101 H   0  0  0  0  0  0  0  0  0  0  0  0
    3.0080    1.0280    3.7414 H   0  0  0  0  0  0  0  0  0  0  0  0
    4.5289    0.9425    2.8963 H   0  0  0  0  0  0  0  0  0  0  0  0
    2.7031   -3.0451    2.0516 H   0  0  0  0  0  0  0  0  0  0  0  0
    3.8388   -4.4910    0.4191 H   0  0  0  0  0  0  0  0  0  0  0  0
    5.6003   -4.8065   -1.3169 H   0  0  0  0  0  0  0  0  0  0  0  0
    7.4650   -3.8959   -2.6475 H   0  0  0  0  0  0  0  0  0  0  0  0
    8.1860   -1.5425   -2.3391 H   0  0  0  0  0  0  0  0  0  0  0  0
    7.0418   -0.0998   -0.7005 H   0  0  0  0  0  0  0  0  0  0  0  0
    5.3148    0.2085    1.0078 H   0  0  0  0  0  0  0  0  0  0  0  0
    0.9228    0.5219    1.8510 H   0  0  0  0  0  0  0  0  0  0  0  0
   -5.0369    1.8319   -0.0869 H   0  0  0  0  0  0  0  0  0  0  0  0
  1  2  1  0
  2  3  1  0
  3  4  2  0
  4  5  1  0
  5  6  1  0
  6  7  1  0
  5  8  2  0
  8  9  1  0
  9 10  1  0
 10 11  2  0
 10 12  1  0
 12 13  1  0
 13 14  2  3
 14 15  1  0
 15 16  2  0
 16 17  1  0
 17 18  2  0
 18 19  1  0
 19 20  1  0
 18 21  1  0
 21 22  1  0
 22 23  1  0
 23 24  1  0
 24 25  2  0
 25 26  1  0
 26 27  2  0
 27 28  1  0
 28 29  2  0
 29 30  1  0
 30 31  2  0
 31 32  1  0
 32 33  2  0
 21 34  2  0
  9 35  2  0
 35  3  1  0
 34 15  1  0
 33 24  1  0
 32 27  1  0
  1 36  1  0
  1 37  1  0
  1 38  1  0
  4 39  1  0
  7 40  1  0
  7 41  1  0
  7 42  1  0
  8 43  1  0
 12 44  1  0
 14 45  1  0
 16 46  1  0
 17 47  1  0
 20 48  1  0
 20 49  1  0
 20 50  1  0
 22 51  1  0
 22 52  1  0
 25 53  1  0
 26 54  1  0
 28 55  1  0
 29 56  1  0
 30 57  1  0
 31 58  1  0
 33 59  1  0
 34 60  1  0
 35 61  1  0
M  END
$$$$
