
     RDKit          3D

 60 63  0  0  0  0  0  0  0  0999 V2000
    8.5735   -1.3129   -1.5781 C   0  0  0  0  0  0  0  0  0  0  0  0
    7.3298   -1.6602   -2.1747 O   0  0  0  0  0  0  0  0  0  0  0  0
    6.2763   -1.8646   -1.3272 C   0  0  0  0  0  0  0  0  0  0  0  0
    5.0811   -2.2196   -1.9568 C   0  0  0  0  0  0  0  0  0  0  0  0
    3.9231   -2.4548   -1.2116 C   0  0  0  0  0  0  0  0  0  0  0  0
    3.9480   -2.3450    0.1836 C   0  0  0  0  0  0  0  0  0  0  0  0
    2.6995   -2.5607    0.9993 C   0  0  0  0  0  0  0  0  0  0  0  0
    2.0642   -1.2999    1.2913 N   0  0  0  0  0  0  0  0  0  0  0  0
    2.2528   -0.6322    2.4827 C   0  0  0  0  0  0  0  0  0  0  0  0
    2.9042   -1.1019    3.4144 O   0  0  0  0  0  0  0  0  0  0  0  0
    1.7436    0.8202    2.4914 C   0  0  0  0  0  0  0  0  0  0  0  0
    2.8994    1.7584    2.1476 C   0  0  0  0  0  0  0  0  0  0  0  0
    0.5960    0.9790    1.5775 N   0  0  0  0  0  0  0  0  0  0  0  0
    0.8826    1.1893    0.2155 N   0  0  0  0  0  0  0  0  0  0  0  0
   -0.0719    1.3197   -0.6645 C   0  0  0  0  0  0  0  0  0  0  0  0
    0.3085    1.5558   -2.0985 C   0  0  0  0  0  0  0  0  0  0  0  0
   -1.4450    1.2219   -0.2383 C   0  0  0  0  0  0  0  0  0  0  0  0
   -2.6659    1.3804   -0.8732 C   0  0  0  0  0  0  0  0  0  0  0  0
   -2.9705    1.8704   -2.2425 C   0  0  0  0  0  0  0  0  0  0  0  0
   -3.6298    1.0384    0.0845 N   0  0  0  0  0  0  0  0  0  0  0  0
   -5.0361    0.8154   -0.0458 C   0  0  0  0  0  0  0  0  0  0  0  0
   -5.6453    0.5490   -1.2767 C   0  0  0  0  0  0  0  0  0  0  0  0
   -7.0262    0.3251   -1.3503 C   0  0  0  0  0  0  0  0  0  0  0  0
   -7.8172    0.3408   -0.1969 C   0  0  0  0  0  0  0  0  0  0  0  0
   -9.2993    0.1292   -0.2856 C   0  0  0  0  0  0  0  0  0  0  0  0
   -7.2100    0.5983    1.0344 C   0  0  0  0  0  0  0  0  0  0  0  0
   -5.8319    0.8196    1.1122 C   0  0  0  0  0  0  0  0  0  0  0  0
   -3.0623    0.9051    1.3144 N   0  0  0  0  0  0  0  0  0  0  0  0
   -1.7464    0.9528    1.1003 C   0  0  0  0  0  0  0  0  0  0  0  0
   -0.7019    0.7892    2.1035 C   0  0  0  0  0  0  0  0  0  0  0  0
   -0.9256    0.5220    3.2816 O   0  0  0  0  0  0  0  0  0  0  0  0
    5.1475   -1.9826    0.8108 C   0  0  0  0  0  0  0  0  0  0  0  0
    6.3048   -1.7457    0.0614 C   0  0  0  0  0  0  0  0  0  0  0  0
    8.5045   -0.3562   -1.0495 H   0  0  0  0  0  0  0  0  0  0  0  0
    9.3078   -1.1968   -2.3806 H   0  0  0  0  0  0  0  0  0  0  0  0
    8.9292   -2.1078   -0.9141 H   0  0  0  0  0  0  0  0  0  0  0  0
    5.0528   -2.3115   -3.0401 H   0  0  0  0  0  0  0  0  0  0  0  0
    3.0060   -2.7234   -1.7299 H   0  0  0  0  0  0  0  0  0  0  0  0
    2.9349   -3.1015    1.9225 H   0  0  0  0  0  0  0  0  0  0  0  0
    1.9785   -3.1668    0.4401 H   0  0  0  0  0  0  0  0  0  0  0  0
    1.7311   -0.7328    0.5170 H   0  0  0  0  0  0  0  0  0  0  0  0
    1.4069    1.0339    3.5125 H   0  0  0  0  0  0  0  0  0  0  0  0
    2.5627    2.8003    2.1239 H   0  0  0  0  0  0  0  0  0  0  0  0
    3.3416    1.5220    1.1732 H   0  0  0  0  0  0  0  0  0  0  0  0
    3.6984    1.6740    2.8925 H   0  0  0  0  0  0  0  0  0  0  0  0
    0.1096    2.5977   -2.3615 H   0  0  0  0  0  0  0  0  0  0  0  0
    1.3751    1.3588   -2.2450 H   0  0  0  0  0  0  0  0  0  0  0  0
   -0.2596    0.8933   -2.7564 H   0  0  0  0  0  0  0  0  0  0  0  0
   -2.2037    2.5706   -2.5859 H   0  0  0  0  0  0  0  0  0  0  0  0
   -3.9115    2.4278   -2.2785 H   0  0  0  0  0  0  0  0  0  0  0  0
   -3.0078    1.0399   -2.9533 H   0  0  0  0  0  0  0  0  0  0  0  0
   -5.0823    0.4580   -2.1975 H   0  0  0  0  0  0  0  0  0  0  0  0
   -7.4801    0.1194   -2.3182 H   0  0  0  0  0  0  0  0  0  0  0  0
   -9.8038    1.0840   -0.4643 H   0  0  0  0  0  0  0  0  0  0  0  0
   -9.6884   -0.3087    0.6400 H   0  0  0  0  0  0  0  0  0  0  0  0
   -9.5459   -0.5610   -1.0996 H   0  0  0  0  0  0  0  0  0  0  0  0
   -7.8010    0.6229    1.9474 H   0  0  0  0  0  0  0  0  0  0  0  0
   -5.3937    1.0065    2.0921 H   0  0  0  0  0  0  0  0  0  0  0  0
    5.1825   -1.8765    1.8947 H   0  0  0  0  0  0  0  0  0  0  0  0
    7.2065   -1.4661    0.5955 H   0  0  0  0  0  0  0  0  0  0  0  0
  1  2  1  0
  2  3  1  0
  3  4  2  0
  4  5  1  0
  5  6  2  0
  6  7  1  0
  7  8  1  0
  8  9  1  0
  9 10  2  0
  9 11  1  0
 11 12  1  0
 11 13  1  0
 13 14  1  0
 14 15  2  0
 15 16  1  0
 15 17  1  0
 17 18  2  0
 18 19  1  0
 18 20  1  0
 20 21  1  0
 21 22  2  0
 22 23  1  0
 23 24  2  0
 24 25  1  0
 24 26  1  0
 26 27  2  0
 20 28  1  0
 28 29  2  0
 29 30  1  0
 30 31  2  0
  6 32  1  0
 32 33  2  0
 33  3  1  0
 30 13  1  0
 29 17  1  0
 27 21  1  0
  1 34  1  0
  1 35  1  0
  1 36  1  0
  4 37  1  0
  5 38  1  0
  7 39  1  0
  7 40  1  0
  8 41  1  0
 11 42  1  0
 12 43  1  0
 12 44  1  0
 12 45  1  0
 16 46  1  0
 16 47  1  0
 16 48  1  0
 19 49  1  0
 19 50  1  0
 19 51  1  0
 22 52  1  0
 23 53  1  0
 25 54  1  0
 25 55  1  0
 25 56  1  0
 26 57  1  0
 27 58  1  0
 32 59  1  0
 33 60  1  0
M  END
$$$$
