
     RDKit          3D

 43 45  0  0  0  0  0  0  0  0999 V2000
    5.8195    0.5870    3.2160 C   0  0  0  0  0  0  0  0  0  0  0  0
    5.2933    0.3467    1.8319 C   0  0  0  0  0  0  0  0  0  0  0  0
    6.1740    0.2099    0.7541 C   0  0  0  0  0  0  0  0  0  0  0  0
    5.6871    0.0079   -0.5422 C   0  0  0  0  0  0  0  0  0  0  0  0
    6.6343   -0.1162   -1.6997 C   0  0  0  0  0  0  0  0  0  0  0  0
    4.3010   -0.0193   -0.7616 C   0  0  0  0  0  0  0  0  0  0  0  0
    3.4057    0.1345    0.2980 C   0  0  0  0  0  0  0  0  0  0  0  0
    2.0017    0.1112    0.1549 N   0  0  0  0  0  0  0  0  0  0  0  0
    1.2770    0.0218   -1.0197 C   0  0  0  0  0  0  0  0  0  0  0  0
    1.7191    0.0181   -2.1621 O   0  0  0  0  0  0  0  0  0  0  0  0
   -0.2024   -0.0301   -0.8403 C   0  0  0  0  0  0  0  0  0  0  0  0
   -1.0145    0.5824   -1.7993 C   0  0  0  0  0  0  0  0  0  0  0  0
   -2.4061    0.5544   -1.6635 C   0  0  0  0  0  0  0  0  0  0  0  0
   -3.0054   -0.0920   -0.5751 C   0  0  0  0  0  0  0  0  0  0  0  0
   -4.4100   -0.0711   -0.5131 N   0  0  0  0  0  0  0  0  0  0  0  0
   -5.2384   -0.6126    0.4545 C   0  0  0  0  0  0  0  0  0  0  0  0
   -4.8646   -1.2131    1.4566 O   0  0  0  0  0  0  0  0  0  0  0  0
   -6.6456   -0.3928    0.1678 C   0  0  0  0  0  0  0  0  0  0  0  0
   -7.7842   -0.7629    0.8584 C   0  0  0  0  0  0  0  0  0  0  0  0
   -8.8880   -0.2824    0.1143 C   0  0  0  0  0  0  0  0  0  0  0  0
   -8.3612    0.3522   -0.9853 C   0  0  0  0  0  0  0  0  0  0  0  0
   -7.0044    0.2937   -0.9661 O   0  0  0  0  0  0  0  0  0  0  0  0
   -2.1904   -0.7201    0.3695 C   0  0  0  0  0  0  0  0  0  0  0  0
   -0.7957   -0.6958    0.2375 C   0  0  0  0  0  0  0  0  0  0  0  0
    3.9123    0.3165    1.5921 C   0  0  0  0  0  0  0  0  0  0  0  0
    5.9245    1.6614    3.3949 H   0  0  0  0  0  0  0  0  0  0  0  0
    5.1444    0.1664    3.9688 H   0  0  0  0  0  0  0  0  0  0  0  0
    6.7950    0.1083    3.3523 H   0  0  0  0  0  0  0  0  0  0  0  0
    7.2479    0.2580    0.9242 H   0  0  0  0  0  0  0  0  0  0  0  0
    6.2253   -0.7793   -2.4692 H   0  0  0  0  0  0  0  0  0  0  0  0
    6.8174    0.8687   -2.1401 H   0  0  0  0  0  0  0  0  0  0  0  0
    7.5905   -0.5431   -1.3793 H   0  0  0  0  0  0  0  0  0  0  0  0
    3.9450   -0.1639   -1.7773 H   0  0  0  0  0  0  0  0  0  0  0  0
    1.4770    0.2389    1.0097 H   0  0  0  0  0  0  0  0  0  0  0  0
   -0.5654    1.0844   -2.6544 H   0  0  0  0  0  0  0  0  0  0  0  0
   -3.0103    1.0438   -2.4237 H   0  0  0  0  0  0  0  0  0  0  0  0
   -4.8997    0.4008   -1.2667 H   0  0  0  0  0  0  0  0  0  0  0  0
   -7.8005   -1.3152    1.7887 H   0  0  0  0  0  0  0  0  0  0  0  0
   -9.9381   -0.3861    0.3499 H   0  0  0  0  0  0  0  0  0  0  0  0
   -8.7962    0.8687   -1.8301 H   0  0  0  0  0  0  0  0  0  0  0  0
   -2.6080   -1.2530    1.2186 H   0  0  0  0  0  0  0  0  0  0  0  0
   -0.1958   -1.2297    0.9698 H   0  0  0  0  0  0  0  0  0  0  0  0
    3.2326    0.4430    2.4313 H   0  0  0  0  0  0  0  0  0  0  0  0
  1  2  1  0
  2  3  2  0
  3  4  1  0
  4  5  1  0
  4  6  2  0
  6  7  1  0
  7  8  1  0
  8  9  1  0
  9 10  2  0
  9 11  1  0
 11 12  2  0
 12 13  1  0
 13 14  2  0
 14 15  1  0
 15 16  1  0
 16 17  2  0
 16 18  1  0
 18 19  2  0
 19 20  1  0
 20 21  2  0
 21 22  1  0
 14 23  1  0
 23 24  2  0
  7 25  2  0
 25  2  1  0
 24 11  1  0
 22 18  1  0
  1 26  1  0
  1 27  1  0
  1 28  1  0
  3 29  1  0
  5 30  1  0
  5 31  1  0
  5 32  1  0
  6 33  1  0
  8 34  1  0
 12 35  1  0
 13 36  1  0
 15 37  1  0
 19 38  1  0
 20 39  1  0
 21 40  1  0
 23 41  1  0
 24 42  1  0
 25 43  1  0
M  END
$$$$
