
     RDKit          3D

 39 42  0  0  0  0  0  0  0  0999 V2000
    6.1575    0.2507   -0.4949 C   0  0  0  0  0  0  0  0  0  0  0  0
    5.8400   -0.6499    0.5364 C   0  0  0  0  0  0  0  0  0  0  0  0
    4.5134   -1.0157    0.7871 C   0  0  0  0  0  0  0  0  0  0  0  0
    3.5187   -0.4689   -0.0059 C   0  0  0  0  0  0  0  0  0  0  0  0
    3.8447    0.4354   -1.0402 C   0  0  0  0  0  0  0  0  0  0  0  0
    5.1554    0.8029   -1.2952 C   0  0  0  0  0  0  0  0  0  0  0  0
    2.5888    0.8877   -1.7567 C   0  0  0  0  0  0  0  0  0  0  0  0
    1.5093    0.1338   -1.0062 C   0  0  0  0  0  0  0  0  0  0  0  0
    0.1404    0.1568   -1.2251 C   0  0  0  0  0  0  0  0  0  0  0  0
   -0.6831   -0.6241   -0.3984 C   0  0  0  0  0  0  0  0  0  0  0  0
   -2.1836   -0.6453   -0.6186 C   0  0  0  0  0  0  0  0  0  0  0  0
   -2.9587   -0.4006    0.6070 N   0  0  0  0  0  0  0  0  0  0  0  0
   -2.8385    0.9889    1.1010 C   0  0  0  0  0  0  0  0  0  0  0  0
   -4.0365    1.8777    0.7301 C   0  0  0  0  0  0  0  0  0  0  0  0
   -5.2882    1.3805    1.2235 O   0  0  0  0  0  0  0  0  0  0  0  0
   -5.3002   -0.0437    1.3933 C   0  0  0  0  0  0  0  0  0  0  0  0
   -4.3775   -0.7604    0.3979 C   0  0  0  0  0  0  0  0  0  0  0  0
   -0.1002   -1.4185    0.6165 C   0  0  0  0  0  0  0  0  0  0  0  0
    1.2829   -1.4344    0.8295 C   0  0  0  0  0  0  0  0  0  0  0  0
    2.0828   -0.6544    0.0140 C   0  0  0  0  0  0  0  0  0  0  0  0
    7.1967    0.5195   -0.6699 H   0  0  0  0  0  0  0  0  0  0  0  0
    6.6370   -1.0674    1.1473 H   0  0  0  0  0  0  0  0  0  0  0  0
    4.2786   -1.7113    1.5854 H   0  0  0  0  0  0  0  0  0  0  0  0
    5.4010    1.4980   -2.0909 H   0  0  0  0  0  0  0  0  0  0  0  0
    2.6125    0.5850   -2.8075 H   0  0  0  0  0  0  0  0  0  0  0  0
    2.4507    1.9677   -1.6508 H   0  0  0  0  0  0  0  0  0  0  0  0
   -0.2777    0.7683   -2.0183 H   0  0  0  0  0  0  0  0  0  0  0  0
   -2.4654    0.0761   -1.3971 H   0  0  0  0  0  0  0  0  0  0  0  0
   -2.4204   -1.6421   -1.0149 H   0  0  0  0  0  0  0  0  0  0  0  0
   -2.7833    0.9299    2.1955 H   0  0  0  0  0  0  0  0  0  0  0  0
   -1.9092    1.4691    0.7759 H   0  0  0  0  0  0  0  0  0  0  0  0
   -4.1176    1.9822   -0.3582 H   0  0  0  0  0  0  0  0  0  0  0  0
   -3.9000    2.8826    1.1425 H   0  0  0  0  0  0  0  0  0  0  0  0
   -5.0167   -0.2712    2.4277 H   0  0  0  0  0  0  0  0  0  0  0  0
   -6.3334   -0.3798    1.2584 H   0  0  0  0  0  0  0  0  0  0  0  0
   -4.6959   -0.4871   -0.6171 H   0  0  0  0  0  0  0  0  0  0  0  0
   -4.4897   -1.8448    0.5057 H   0  0  0  0  0  0  0  0  0  0  0  0
   -0.7411   -2.0264    1.2534 H   0  0  0  0  0  0  0  0  0  0  0  0
    1.7065   -2.0467    1.6178 H   0  0  0  0  0  0  0  0  0  0  0  0
  1  2  2  0
  2  3  1  0
  3  4  2  0
  4  5  1  0
  5  6  2  0
  5  7  1  0
  7  8  1  0
  8  9  2  0
  9 10  1  0
 10 11  1  0
 11 12  1  0
 12 13  1  0
 13 14  1  0
 14 15  1  0
 15 16  1  0
 16 17  1  0
 10 18  2  0
 18 19  1  0
 19 20  2  0
  6  1  1  0
 20  8  1  0
 20  4  1  0
 17 12  1  0
  1 21  1  0
  2 22  1  0
  3 23  1  0
  6 24  1  0
  7 25  1  0
  7 26  1  0
  9 27  1  0
 11 28  1  0
 11 29  1  0
 13 30  1  0
 13 31  1  0
 14 32  1  0
 14 33  1  0
 16 34  1  0
 16 35  1  0
 17 36  1  0
 17 37  1  0
 18 38  1  0
 19 39  1  0
M  END
$$$$
