
     RDKit          3D

 64 67  0  0  0  0  0  0  0  0999 V2000
    6.5302   -2.8005   -6.3041 C   0  0  0  0  0  0  0  0  0  0  0  0
    5.5171   -1.8434   -5.8252 C   0  0  0  0  0  0  0  0  0  0  0  0
    4.7371   -1.7601   -4.6998 C   0  0  0  0  0  0  0  0  0  0  0  0
    3.9584   -0.5986   -4.8937 C   0  0  0  0  0  0  0  0  0  0  0  0
    2.9777   -0.0532   -4.0954 N   0  0  0  0  0  0  0  0  0  0  0  0
    2.5787   -0.5422   -2.8723 C   0  0  0  0  0  0  0  0  0  0  0  0
    3.0488   -1.5195   -2.2989 O   0  0  0  0  0  0  0  0  0  0  0  0
    1.4310    0.2599   -2.2948 C   0  0  0  0  0  0  0  0  0  0  0  0
    1.1668   -0.0829   -0.8304 C   0  0  0  0  0  0  0  0  0  0  0  0
   -0.0367    0.6914   -0.3124 C   0  0  0  0  0  0  0  0  0  0  0  0
   -0.9211    1.0697   -1.0860 O   0  0  0  0  0  0  0  0  0  0  0  0
   -0.0872    0.9665    1.0550 N   0  0  0  0  0  0  0  0  0  0  0  0
    0.5291    0.0984    2.0049 C   0  0  0  0  0  0  0  0  0  0  0  0
    0.2822   -1.2764    1.9918 C   0  0  0  0  0  0  0  0  0  0  0  0
    0.9068   -2.0988    2.9277 C   0  0  0  0  0  0  0  0  0  0  0  0
    1.7654   -1.5193    3.8467 C   0  0  0  0  0  0  0  0  0  0  0  0
    2.0375   -0.1981    3.8858 N   0  0  0  0  0  0  0  0  0  0  0  0
    1.4117    0.5798    2.9695 C   0  0  0  0  0  0  0  0  0  0  0  0
   -1.2141    1.8156    1.5380 C   0  0  0  0  0  0  0  0  0  0  0  0
   -2.4793    0.9504    1.8166 C   0  0  0  0  0  0  0  0  0  0  0  0
   -2.9664    0.7445    2.9261 O   0  0  0  0  0  0  0  0  0  0  0  0
   -3.0485    0.4141    0.6681 N   0  0  0  0  0  0  0  0  0  0  0  0
   -4.1941   -0.4629    0.7186 C   0  0  0  0  0  0  0  0  0  0  0  0
   -4.8190   -0.6960   -0.6521 C   0  0  0  0  0  0  0  0  0  0  0  0
   -5.6637   -1.9512   -0.4644 C   0  0  0  0  0  0  0  0  0  0  0  0
   -5.0287   -2.7185    0.6979 C   0  0  0  0  0  0  0  0  0  0  0  0
   -3.8421   -1.8800    1.1621 C   0  0  0  0  0  0  0  0  0  0  0  0
   -0.8103    2.8429    2.5933 C   0  0  0  0  0  0  0  0  0  0  0  0
   -0.2000    4.0387    2.1640 C   0  0  0  0  0  0  0  0  0  0  0  0
    0.2252    5.0022    3.0810 C   0  0  0  0  0  0  0  0  0  0  0  0
    0.0556    4.7860    4.4452 C   0  0  0  0  0  0  0  0  0  0  0  0
   -0.5375    3.6085    4.8898 C   0  0  0  0  0  0  0  0  0  0  0  0
   -0.9630    2.6433    3.9730 C   0  0  0  0  0  0  0  0  0  0  0  0
    4.2692   -0.0009   -6.0501 N   0  0  0  0  0  0  0  0  0  0  0  0
    5.2467   -0.7842   -6.6328 O   0  0  0  0  0  0  0  0  0  0  0  0
    6.5452   -2.8425   -7.3972 H   0  0  0  0  0  0  0  0  0  0  0  0
    6.3163   -3.8091   -5.9336 H   0  0  0  0  0  0  0  0  0  0  0  0
    7.5259   -2.5090   -5.9550 H   0  0  0  0  0  0  0  0  0  0  0  0
    4.7112   -2.4579   -3.8748 H   0  0  0  0  0  0  0  0  0  0  0  0
    2.5535    0.7783   -4.4859 H   0  0  0  0  0  0  0  0  0  0  0  0
    1.6556    1.3296   -2.3871 H   0  0  0  0  0  0  0  0  0  0  0  0
    0.5450    0.0486   -2.9060 H   0  0  0  0  0  0  0  0  0  0  0  0
    0.9581   -1.1539   -0.7318 H   0  0  0  0  0  0  0  0  0  0  0  0
    2.0564    0.1576   -0.2371 H   0  0  0  0  0  0  0  0  0  0  0  0
   -0.4095   -1.7174    1.2798 H   0  0  0  0  0  0  0  0  0  0  0  0
    0.7222   -3.1678    2.9458 H   0  0  0  0  0  0  0  0  0  0  0  0
    2.2705   -2.1197    4.5982 H   0  0  0  0  0  0  0  0  0  0  0  0
    1.6768    1.6324    3.0250 H   0  0  0  0  0  0  0  0  0  0  0  0
   -1.5342    2.4403    0.6890 H   0  0  0  0  0  0  0  0  0  0  0  0
   -2.5677    0.5584   -0.2205 H   0  0  0  0  0  0  0  0  0  0  0  0
   -4.9360   -0.0328    1.4039 H   0  0  0  0  0  0  0  0  0  0  0  0
   -4.0451   -0.8806   -1.4077 H   0  0  0  0  0  0  0  0  0  0  0  0
   -5.4130    0.1582   -0.9916 H   0  0  0  0  0  0  0  0  0  0  0  0
   -5.6983   -2.5513   -1.3793 H   0  0  0  0  0  0  0  0  0  0  0  0
   -6.6948   -1.6806   -0.2116 H   0  0  0  0  0  0  0  0  0  0  0  0
   -5.7579   -2.8308    1.5092 H   0  0  0  0  0  0  0  0  0  0  0  0
   -4.7116   -3.7227    0.3986 H   0  0  0  0  0  0  0  0  0  0  0  0
   -3.6799   -1.9561    2.2422 H   0  0  0  0  0  0  0  0  0  0  0  0
   -2.9253   -2.2260    0.6675 H   0  0  0  0  0  0  0  0  0  0  0  0
   -0.0479    4.2257    1.1021 H   0  0  0  0  0  0  0  0  0  0  0  0
    0.6928    5.9180    2.7302 H   0  0  0  0  0  0  0  0  0  0  0  0
    0.3883    5.5307    5.1635 H   0  0  0  0  0  0  0  0  0  0  0  0
   -0.6634    3.4291    5.9552 H   0  0  0  0  0  0  0  0  0  0  0  0
   -1.3967    1.7259    4.3663 H   0  0  0  0  0  0  0  0  0  0  0  0
  1  2  1  0
  2  3  2  0
  3  4  1  0
  4  5  1  0
  5  6  1  0
  6  7  2  0
  6  8  1  0
  8  9  1  0
  9 10  1  0
 10 11  2  0
 10 12  1  0
 12 13  1  0
 13 14  2  0
 14 15  1  0
 15 16  2  0
 16 17  1  0
 17 18  2  0
 12 19  1  0
 19 20  1  0
 20 21  2  0
 20 22  1  0
 22 23  1  0
 23 24  1  0
 24 25  1  0
 25 26  1  0
 26 27  1  0
 19 28  1  0
 28 29  2  0
 29 30  1  0
 30 31  2  0
 31 32  1  0
 32 33  2  0
  4 34  2  0
 34 35  1  0
 35  2  1  0
 18 13  1  0
 27 23  1  0
 33 28  1  0
  1 36  1  0
  1 37  1  0
  1 38  1  0
  3 39  1  0
  5 40  1  0
  8 41  1  0
  8 42  1  0
  9 43  1  0
  9 44  1  0
 14 45  1  0
 15 46  1  0
 16 47  1  0
 18 48  1  0
 19 49  1  0
 22 50  1  0
 23 51  1  0
 24 52  1  0
 24 53  1  0
 25 54  1  0
 25 55  1  0
 26 56  1  0
 26 57  1  0
 27 58  1  0
 27 59  1  0
 29 60  1  0
 30 61  1  0
 31 62  1  0
 32 63  1  0
 33 64  1  0
M  END
$$$$
