
     RDKit          3D

 56 59  0  0  0  0  0  0  0  0999 V2000
   -5.0192    3.6135   -0.5849 C   0  0  0  0  0  0  0  0  0  0  0  0
   -4.2087    3.3785    0.6780 C   0  0  0  0  0  0  0  0  0  0  0  0
   -4.8949    2.0176    1.6833 S   0  0  0  0  0  0  0  0  0  0  0  0
   -4.4608    0.6153    0.6689 C   0  0  0  0  0  0  0  0  0  0  0  0
   -5.4689   -0.1603    0.1157 C   0  0  0  0  0  0  0  0  0  0  0  0
   -5.1322   -1.2480   -0.6827 C   0  0  0  0  0  0  0  0  0  0  0  0
   -3.7861   -1.5809   -0.9301 C   0  0  0  0  0  0  0  0  0  0  0  0
   -2.7361   -0.8325   -0.3614 C   0  0  0  0  0  0  0  0  0  0  0  0
   -3.1201    0.2692    0.4401 C   0  0  0  0  0  0  0  0  0  0  0  0
   -1.3683   -1.1571   -0.6035 N   0  0  0  0  0  0  0  0  0  0  0  0
   -0.3493   -0.5196    0.2688 C   0  0  0  0  0  0  0  0  0  0  0  0
    0.1548    0.8003   -0.3369 C   0  0  0  0  0  0  0  0  0  0  0  0
    1.1271    1.5298    0.5965 C   0  0  0  0  0  0  0  0  0  0  0  0
    2.3347    0.7564    0.8943 N   0  0  0  0  0  0  0  0  0  0  0  0
    3.2867    0.6992   -0.2248 C   0  0  0  0  0  0  0  0  0  0  0  0
    4.5148   -0.2046    0.0779 C   0  0  0  0  0  0  0  0  0  0  0  0
    4.8390   -0.3548    1.5082 N   0  0  0  0  0  0  0  0  0  0  0  0
    6.2236   -0.7628    1.7061 C   0  0  0  0  0  0  0  0  0  0  0  0
    4.5121    0.8717    2.2418 C   0  0  0  0  0  0  0  0  0  0  0  0
    3.0174    1.2723    2.1018 C   0  0  0  0  0  0  0  0  0  0  0  0
   -0.8999   -2.1118   -1.5547 C   0  0  0  0  0  0  0  0  0  0  0  0
    0.4690   -2.2383   -1.8870 C   0  0  0  0  0  0  0  0  0  0  0  0
    0.9381   -3.1637   -2.8278 C   0  0  0  0  0  0  0  0  0  0  0  0
    0.0480   -3.9999   -3.4783 C   0  0  0  0  0  0  0  0  0  0  0  0
   -1.3064   -3.9039   -3.1831 C   0  0  0  0  0  0  0  0  0  0  0  0
   -1.7828   -2.9730   -2.2373 C   0  0  0  0  0  0  0  0  0  0  0  0
   -3.5370   -3.0053   -1.9605 S   0  0  0  0  0  0  0  0  0  0  0  0
   -4.9792    2.7540   -1.2615 H   0  0  0  0  0  0  0  0  0  0  0  0
   -4.6169    4.4754   -1.1278 H   0  0  0  0  0  0  0  0  0  0  0  0
   -6.0682    3.8282   -0.3548 H   0  0  0  0  0  0  0  0  0  0  0  0
   -3.1599    3.1836    0.4338 H   0  0  0  0  0  0  0  0  0  0  0  0
   -4.2336    4.2831    1.2943 H   0  0  0  0  0  0  0  0  0  0  0  0
   -6.5156    0.0738    0.2910 H   0  0  0  0  0  0  0  0  0  0  0  0
   -5.9335   -1.8442   -1.1157 H   0  0  0  0  0  0  0  0  0  0  0  0
   -2.3737    0.9005    0.9087 H   0  0  0  0  0  0  0  0  0  0  0  0
    0.4825   -1.2060    0.4686 H   0  0  0  0  0  0  0  0  0  0  0  0
   -0.7486   -0.3501    1.2770 H   0  0  0  0  0  0  0  0  0  0  0  0
   -0.6900    1.4705   -0.5348 H   0  0  0  0  0  0  0  0  0  0  0  0
    0.6149    0.6285   -1.3155 H   0  0  0  0  0  0  0  0  0  0  0  0
    1.3877    2.5053    0.1663 H   0  0  0  0  0  0  0  0  0  0  0  0
    0.5856    1.7374    1.5292 H   0  0  0  0  0  0  0  0  0  0  0  0
    2.8089    0.3145   -1.1316 H   0  0  0  0  0  0  0  0  0  0  0  0
    3.6421    1.7126   -0.4564 H   0  0  0  0  0  0  0  0  0  0  0  0
    4.3177   -1.2070   -0.3219 H   0  0  0  0  0  0  0  0  0  0  0  0
    5.3683    0.2035   -0.4793 H   0  0  0  0  0  0  0  0  0  0  0  0
    6.4216   -0.9489    2.7674 H   0  0  0  0  0  0  0  0  0  0  0  0
    6.4273   -1.7007    1.1778 H   0  0  0  0  0  0  0  0  0  0  0  0
    6.9329   -0.0061    1.3523 H   0  0  0  0  0  0  0  0  0  0  0  0
    5.1353    1.6990    1.8756 H   0  0  0  0  0  0  0  0  0  0  0  0
    4.7351    0.7478    3.3086 H   0  0  0  0  0  0  0  0  0  0  0  0
    2.9656    2.3686    2.1396 H   0  0  0  0  0  0  0  0  0  0  0  0
    2.4718    0.8920    2.9743 H   0  0  0  0  0  0  0  0  0  0  0  0
    1.2253   -1.6099   -1.4288 H   0  0  0  0  0  0  0  0  0  0  0  0
    2.0014   -3.2227   -3.0451 H   0  0  0  0  0  0  0  0  0  0  0  0
    0.4009   -4.7227   -4.2081 H   0  0  0  0  0  0  0  0  0  0  0  0
   -2.0003   -4.5673   -3.6958 H   0  0  0  0  0  0  0  0  0  0  0  0
  1  2  1  0
  2  3  1  0
  3  4  1  0
  4  5  2  0
  5  6  1  0
  6  7  2  0
  7  8  1  0
  8  9  2  0
  8 10  1  0
 10 11  1  0
 11 12  1  0
 12 13  1  0
 13 14  1  0
 14 15  1  0
 15 16  1  0
 16 17  1  0
 17 18  1  0
 17 19  1  0
 19 20  1  0
 10 21  1  0
 21 22  2  0
 22 23  1  0
 23 24  2  0
 24 25  1  0
 25 26  2  0
 26 27  1  0
  9  4  1  0
 20 14  1  0
 26 21  1  0
 27  7  1  0
  1 28  1  0
  1 29  1  0
  1 30  1  0
  2 31  1  0
  2 32  1  0
  5 33  1  0
  6 34  1  0
  9 35  1  0
 11 36  1  0
 11 37  1  0
 12 38  1  0
 12 39  1  0
 13 40  1  0
 13 41  1  0
 15 42  1  0
 15 43  1  0
 16 44  1  0
 16 45  1  0
 18 46  1  0
 18 47  1  0
 18 48  1  0
 19 49  1  0
 19 50  1  0
 20 51  1  0
 20 52  1  0
 22 53  1  0
 23 54  1  0
 24 55  1  0
 25 56  1  0
M  END
$$$$
