
     RDKit          3D

 49 52  0  0  0  0  0  0  0  0999 V2000
   -5.7512    1.1242    2.7404 C   0  0  0  0  0  0  0  0  0  0  0  0
   -4.3995    1.1983    2.0868 C   0  0  0  0  0  0  0  0  0  0  0  0
   -4.1255    2.2023    1.1512 C   0  0  0  0  0  0  0  0  0  0  0  0
   -2.8846    2.2589    0.5087 C   0  0  0  0  0  0  0  0  0  0  0  0
   -1.9038    1.3013    0.7963 C   0  0  0  0  0  0  0  0  0  0  0  0
   -0.6571    1.3417    0.1270 N   0  0  0  0  0  0  0  0  0  0  0  0
   -0.4259    1.5053   -1.2381 C   0  0  0  0  0  0  0  0  0  0  0  0
   -1.4593    1.5516   -2.3164 C   0  0  0  0  0  0  0  0  0  0  0  0
   -2.2411    0.2741   -2.4527 C   0  0  0  0  0  0  0  0  0  0  0  0
   -1.7703   -1.0271   -2.5363 C   0  0  0  0  0  0  0  0  0  0  0  0
   -2.8230   -1.9803   -2.6851 C   0  0  0  0  0  0  0  0  0  0  0  0
   -4.0635   -1.3764   -2.7092 C   0  0  0  0  0  0  0  0  0  0  0  0
   -3.9535    0.3236   -2.5671 S   0  0  0  0  0  0  0  0  0  0  0  0
    0.8785    1.4962   -1.4678 N   0  0  0  0  0  0  0  0  0  0  0  0
    1.5253    1.3393   -0.2796 N   0  0  0  0  0  0  0  0  0  0  0  0
    0.6192    1.2200    0.6646 C   0  0  0  0  0  0  0  0  0  0  0  0
    1.0079    1.0959    2.3541 S   0  0  0  0  0  0  0  0  0  0  0  0
    2.8075    1.3634    2.3317 C   0  0  0  0  0  0  0  0  0  0  0  0
    3.5559    0.0814    1.9775 C   0  0  0  0  0  0  0  0  0  0  0  0
    3.9926   -0.6612    2.8564 O   0  0  0  0  0  0  0  0  0  0  0  0
    3.6728   -0.1248    0.6116 N   0  0  0  0  0  0  0  0  0  0  0  0
    4.3778   -1.1581   -0.0398 C   0  0  0  0  0  0  0  0  0  0  0  0
    5.3015   -1.9967    0.6021 C   0  0  0  0  0  0  0  0  0  0  0  0
    5.9932   -2.9808   -0.1180 C   0  0  0  0  0  0  0  0  0  0  0  0
    5.7540   -3.1304   -1.4771 C   0  0  0  0  0  0  0  0  0  0  0  0
    6.4132   -4.0737   -2.1636 F   0  0  0  0  0  0  0  0  0  0  0  0
    4.8354   -2.3071   -2.1188 C   0  0  0  0  0  0  0  0  0  0  0  0
    4.5972   -2.4634   -3.4273 F   0  0  0  0  0  0  0  0  0  0  0  0
    4.1507   -1.3179   -1.4114 C   0  0  0  0  0  0  0  0  0  0  0  0
   -2.1674    0.2977    1.7364 C   0  0  0  0  0  0  0  0  0  0  0  0
   -3.4115    0.2476    2.3725 C   0  0  0  0  0  0  0  0  0  0  0  0
   -5.7322    0.4770    3.6227 H   0  0  0  0  0  0  0  0  0  0  0  0
   -6.4891    0.7283    2.0340 H   0  0  0  0  0  0  0  0  0  0  0  0
   -6.0734    2.1184    3.0730 H   0  0  0  0  0  0  0  0  0  0  0  0
   -4.8764    2.9556    0.9235 H   0  0  0  0  0  0  0  0  0  0  0  0
   -2.6991    3.0828   -0.1752 H   0  0  0  0  0  0  0  0  0  0  0  0
   -0.9474    1.7227   -3.2733 H   0  0  0  0  0  0  0  0  0  0  0  0
   -2.1101    2.4210   -2.1823 H   0  0  0  0  0  0  0  0  0  0  0  0
   -0.7160   -1.2861   -2.4973 H   0  0  0  0  0  0  0  0  0  0  0  0
   -2.6817   -3.0528   -2.7767 H   0  0  0  0  0  0  0  0  0  0  0  0
   -5.0302   -1.8522   -2.8118 H   0  0  0  0  0  0  0  0  0  0  0  0
    3.1212    1.6710    3.3375 H   0  0  0  0  0  0  0  0  0  0  0  0
    3.0930    2.1775    1.6554 H   0  0  0  0  0  0  0  0  0  0  0  0
    3.0852    0.4652    0.0162 H   0  0  0  0  0  0  0  0  0  0  0  0
    5.5196   -1.8949    1.6634 H   0  0  0  0  0  0  0  0  0  0  0  0
    6.7146   -3.6256    0.3751 H   0  0  0  0  0  0  0  0  0  0  0  0
    3.4275   -0.7032   -1.9431 H   0  0  0  0  0  0  0  0  0  0  0  0
   -1.4419   -0.4803    1.9635 H   0  0  0  0  0  0  0  0  0  0  0  0
   -3.6091   -0.5491    3.0860 H   0  0  0  0  0  0  0  0  0  0  0  0
  1  2  1  0
  2  3  2  0
  3  4  1  0
  4  5  2  0
  5  6  1  0
  6  7  1  0
  7  8  1  0
  8  9  1  0
  9 10  2  0
 10 11  1  0
 11 12  2  0
 12 13  1  0
  7 14  2  0
 14 15  1  0
 15 16  2  0
 16 17  1  0
 17 18  1  0
 18 19  1  0
 19 20  2  0
 19 21  1  0
 21 22  1  0
 22 23  2  0
 23 24  1  0
 24 25  2  0
 25 26  1  0
 25 27  1  0
 27 28  1  0
 27 29  2  0
  5 30  1  0
 30 31  2  0
 31  2  1  0
 16  6  1  0
 29 22  1  0
 13  9  1  0
  1 32  1  0
  1 33  1  0
  1 34  1  0
  3 35  1  0
  4 36  1  0
  8 37  1  0
  8 38  1  0
 10 39  1  0
 11 40  1  0
 12 41  1  0
 18 42  1  0
 18 43  1  0
 21 44  1  0
 23 45  1  0
 24 46  1  0
 29 47  1  0
 30 48  1  0
 31 49  1  0
M  END
$$$$
