
     RDKit          3D

 43 44  0  0  0  0  0  0  0  0999 V2000
   -2.7571    0.1383    2.7510 C   0  0  0  0  0  0  0  0  0  0  0  0
   -2.7405   -0.8674    1.6161 C   0  0  0  0  0  0  0  0  0  0  0  0
   -3.2726   -0.2338    0.3797 N   0  0  0  0  0  4  0  0  0  0  0  0
   -4.6140   -0.2749    0.1750 C   0  0  0  0  0  0  0  0  0  0  0  0
   -5.1971    0.2708   -0.9664 C   0  0  0  0  0  0  0  0  0  0  0  0
   -6.6795    0.1855   -1.1843 C   0  0  0  0  0  0  0  0  0  0  0  0
   -4.3720    0.8447   -1.9262 C   0  0  0  0  0  0  0  0  0  0  0  0
   -3.0004    0.8844   -1.7122 C   0  0  0  0  0  0  0  0  0  0  0  0
   -2.4513    0.3375   -0.5454 C   0  0  0  0  0  0  0  0  0  0  0  0
   -1.0059    0.4156   -0.3172 C   0  0  0  0  0  0  0  0  0  0  0  0
   -0.1157   -0.1678   -1.1358 C   0  0  0  0  0  0  0  0  0  0  0  0
    1.3345   -0.1188   -0.9104 C   0  0  0  0  0  0  0  0  0  0  0  0
    1.9890    1.0319   -0.4731 C   0  0  0  0  0  0  0  0  0  0  0  0
    3.3822    1.0394   -0.2969 C   0  0  0  0  0  0  0  0  0  0  0  0
    4.1810   -0.0889   -0.5482 C   0  0  0  0  0  0  0  0  0  0  0  0
    5.5677   -0.0678   -0.3901 N   0  0  0  0  0  0  0  0  0  0  0  0
    6.3206   -1.3209   -0.4270 C   0  0  0  0  0  0  0  0  0  0  0  0
    6.1964    1.0288    0.3450 C   0  0  0  0  0  0  0  0  0  0  0  0
    3.4978   -1.2239   -1.0161 C   0  0  0  0  0  0  0  0  0  0  0  0
    2.1057   -1.2438   -1.1973 C   0  0  0  0  0  0  0  0  0  0  0  0
   -2.1461    1.0154    2.5183 H   0  0  0  0  0  0  0  0  0  0  0  0
   -2.3676   -0.3170    3.6666 H   0  0  0  0  0  0  0  0  0  0  0  0
   -3.7747    0.4888    2.9516 H   0  0  0  0  0  0  0  0  0  0  0  0
   -1.7367   -1.2574    1.4279 H   0  0  0  0  0  0  0  0  0  0  0  0
   -3.3762   -1.7294    1.8495 H   0  0  0  0  0  0  0  0  0  0  0  0
   -5.2167   -0.7521    0.9442 H   0  0  0  0  0  0  0  0  0  0  0  0
   -6.9262   -0.7356   -1.7212 H   0  0  0  0  0  0  0  0  0  0  0  0
   -7.0383    1.0419   -1.7649 H   0  0  0  0  0  0  0  0  0  0  0  0
   -7.2154    0.1930   -0.2293 H   0  0  0  0  0  0  0  0  0  0  0  0
   -4.7883    1.2679   -2.8403 H   0  0  0  0  0  0  0  0  0  0  0  0
   -2.3587    1.3509   -2.4589 H   0  0  0  0  0  0  0  0  0  0  0  0
   -0.6847    0.9617    0.5655 H   0  0  0  0  0  0  0  0  0  0  0  0
   -0.4303   -0.7401   -2.0075 H   0  0  0  0  0  0  0  0  0  0  0  0
    1.4441    1.9523   -0.2809 H   0  0  0  0  0  0  0  0  0  0  0  0
    3.8292    1.9729    0.0332 H   0  0  0  0  0  0  0  0  0  0  0  0
    7.3948   -1.1468   -0.2981 H   0  0  0  0  0  0  0  0  0  0  0  0
    5.9973   -1.9960    0.3730 H   0  0  0  0  0  0  0  0  0  0  0  0
    6.2114   -1.8195   -1.3961 H   0  0  0  0  0  0  0  0  0  0  0  0
    5.8257    1.0735    1.3750 H   0  0  0  0  0  0  0  0  0  0  0  0
    7.2846    0.9088    0.3913 H   0  0  0  0  0  0  0  0  0  0  0  0
    6.0206    1.9892   -0.1513 H   0  0  0  0  0  0  0  0  0  0  0  0
    4.0367   -2.1337   -1.2649 H   0  0  0  0  0  0  0  0  0  0  0  0
    1.6468   -2.1578   -1.5674 H   0  0  0  0  0  0  0  0  0  0  0  0
  1  2  1  0
  2  3  1  0
  3  4  2  0
  4  5  1  0
  5  6  1  0
  5  7  2  0
  7  8  1  0
  8  9  2  0
  9 10  1  0
 10 11  2  3
 11 12  1  0
 12 13  2  0
 13 14  1  0
 14 15  2  0
 15 16  1  0
 16 17  1  0
 16 18  1  0
 15 19  1  0
 19 20  2  0
  9  3  1  0
 20 12  1  0
  1 21  1  0
  1 22  1  0
  1 23  1  0
  2 24  1  0
  2 25  1  0
  4 26  1  0
  6 27  1  0
  6 28  1  0
  6 29  1  0
  7 30  1  0
  8 31  1  0
 10 32  1  0
 11 33  1  0
 13 34  1  0
 14 35  1  0
 17 36  1  0
 17 37  1  0
 17 38  1  0
 18 39  1  0
 18 40  1  0
 18 41  1  0
 19 42  1  0
 20 43  1  0
M  CHG  1   3   1
M  END
$$$$
