
     RDKit          3D

 29 29  0  0  0  0  0  0  0  0999 V2000
   -4.9395    0.7996   -1.6089 C   0  0  0  0  0  0  0  0  0  0  0  0
   -4.3754   -0.1099   -1.0632 C   0  0  0  0  0  0  0  0  0  0  0  0
   -3.6864   -1.2221   -0.3968 C   0  0  0  0  0  0  0  0  0  0  0  0
   -2.2519   -0.9446   -0.3512 N   0  0  0  0  0  0  0  0  0  0  0  0
   -1.5215   -2.0536    0.2610 C   0  0  0  0  0  0  0  0  0  0  0  0
   -0.0362   -1.7181    0.3752 C   0  0  0  0  0  0  0  0  0  0  0  0
    0.2372   -0.5869    1.3660 C   0  0  0  0  0  0  0  0  0  0  0  0
    1.6396   -0.3228    1.4392 O   0  0  0  0  0  0  0  0  0  0  0  0
    2.1948    0.6037    0.5973 C   0  0  0  0  0  0  0  0  0  0  0  0
    1.5158    1.2463   -0.4435 C   0  0  0  0  0  0  0  0  0  0  0  0
    2.1771    2.1760   -1.2539 C   0  0  0  0  0  0  0  0  0  0  0  0
    3.5207    2.4655   -1.0309 C   0  0  0  0  0  0  0  0  0  0  0  0
    4.3253    3.6086   -2.0332 Cl  0  0  0  0  0  0  0  0  0  0  0  0
    4.2153    1.8340   -0.0057 C   0  0  0  0  0  0  0  0  0  0  0  0
    3.5533    0.9063    0.8027 C   0  0  0  0  0  0  0  0  0  0  0  0
    4.4634    0.1454    2.0634 Cl  0  0  0  0  0  0  0  0  0  0  0  0
   -5.4376    1.6103   -2.0884 H   0  0  0  0  0  0  0  0  0  0  0  0
   -3.8819   -2.1515   -0.9442 H   0  0  0  0  0  0  0  0  0  0  0  0
   -4.0817   -1.3374    0.6188 H   0  0  0  0  0  0  0  0  0  0  0  0
   -1.9251   -0.8082   -1.3079 H   0  0  0  0  0  0  0  0  0  0  0  0
   -1.9204   -2.2728    1.2587 H   0  0  0  0  0  0  0  0  0  0  0  0
   -1.6349   -2.9570   -0.3501 H   0  0  0  0  0  0  0  0  0  0  0  0
    0.3758   -1.4750   -0.6117 H   0  0  0  0  0  0  0  0  0  0  0  0
    0.5108   -2.6113    0.7035 H   0  0  0  0  0  0  0  0  0  0  0  0
   -0.0628   -0.9195    2.3670 H   0  0  0  0  0  0  0  0  0  0  0  0
   -0.3438    0.3213    1.1731 H   0  0  0  0  0  0  0  0  0  0  0  0
    0.4711    1.0456   -0.6595 H   0  0  0  0  0  0  0  0  0  0  0  0
    1.6349    2.6685   -2.0578 H   0  0  0  0  0  0  0  0  0  0  0  0
    5.2641    2.0596    0.1657 H   0  0  0  0  0  0  0  0  0  0  0  0
  1  2  3  0
  2  3  1  0
  3  4  1  0
  4  5  1  0
  5  6  1  0
  6  7  1  0
  7  8  1  0
  8  9  1  0
  9 10  2  0
 10 11  1  0
 11 12  2  0
 12 13  1  0
 12 14  1  0
 14 15  2  0
 15 16  1  0
 15  9  1  0
  1 17  1  0
  3 18  1  0
  3 19  1  0
  4 20  1  0
  5 21  1  0
  5 22  1  0
  6 23  1  0
  6 24  1  0
  7 25  1  0
  7 26  1  0
 10 27  1  0
 11 28  1  0
 14 29  1  0
M  END
$$$$
