
     RDKit          3D

 46 49  0  0  0  0  0  0  0  0999 V2000
   -4.2667   -3.4704   -1.8546 C   0  0  0  0  0  0  0  0  0  0  0  0
   -3.0228   -2.7996   -1.6944 O   0  0  0  0  0  0  0  0  0  0  0  0
   -3.0533   -1.5681   -1.1033 C   0  0  0  0  0  0  0  0  0  0  0  0
   -4.1856   -0.9029   -0.6502 C   0  0  0  0  0  0  0  0  0  0  0  0
   -4.0694    0.3594   -0.0573 C   0  0  0  0  0  0  0  0  0  0  0  0
   -2.8188    0.9764    0.0883 C   0  0  0  0  0  0  0  0  0  0  0  0
   -2.6408    2.1958    0.6937 O   0  0  0  0  0  0  0  0  0  0  0  0
   -3.7851    2.8571    1.2166 C   0  0  0  0  0  0  0  0  0  0  0  0
   -1.6576    0.3224   -0.3797 C   0  0  0  0  0  0  0  0  0  0  0  0
   -0.3105    0.9080   -0.2776 C   0  0  0  0  0  0  0  0  0  0  0  0
   -0.1586    2.2153   -0.5825 N   0  0  0  0  0  0  0  0  0  0  0  0
    1.0978    2.7142   -0.4968 C   0  0  0  0  0  0  0  0  0  0  0  0
    1.2671    4.1594   -0.8109 C   0  0  0  0  0  0  0  0  0  0  0  0
    0.1165    4.8293   -1.1279 N   0  0  0  0  0  0  0  0  0  0  0  0
    2.3579    4.7155   -0.7850 O   0  0  0  0  0  0  0  0  0  0  0  0
    2.1599    1.9380   -0.1429 C   0  0  0  0  0  0  0  0  0  0  0  0
    3.5118    2.2038   -0.0027 N   0  0  0  0  0  0  0  0  0  0  0  0
    4.1639    1.0217    0.3709 C   0  0  0  0  0  0  0  0  0  0  0  0
    5.3662    0.9593    0.5679 O   0  0  0  0  0  0  0  0  0  0  0  0
    3.1562    0.0110    0.4619 N   0  0  0  0  0  0  0  0  0  0  0  0
    3.3432   -1.3572    0.8042 C   0  0  0  0  0  0  0  0  0  0  0  0
    4.6408   -1.8795    0.9673 C   0  0  0  0  0  0  0  0  0  0  0  0
    4.8611   -3.2222    1.3018 C   0  0  0  0  0  0  0  0  0  0  0  0
    3.7817   -4.0691    1.4818 C   0  0  0  0  0  0  0  0  0  0  0  0
    3.9877   -5.3528    1.8014 F   0  0  0  0  0  0  0  0  0  0  0  0
    2.4895   -3.5951    1.3351 C   0  0  0  0  0  0  0  0  0  0  0  0
    2.2747   -2.2507    1.0007 C   0  0  0  0  0  0  0  0  0  0  0  0
    1.9139    0.6152    0.1344 C   0  0  0  0  0  0  0  0  0  0  0  0
    0.6956    0.0705    0.0645 N   0  0  0  0  0  0  0  0  0  0  0  0
   -1.8065   -0.9552   -0.9637 C   0  0  0  0  0  0  0  0  0  0  0  0
   -4.0678   -4.4333   -2.3350 H   0  0  0  0  0  0  0  0  0  0  0  0
   -4.7338   -3.6720   -0.8850 H   0  0  0  0  0  0  0  0  0  0  0  0
   -4.9388   -2.9043   -2.5079 H   0  0  0  0  0  0  0  0  0  0  0  0
   -5.1767   -1.3362   -0.7370 H   0  0  0  0  0  0  0  0  0  0  0  0
   -4.9833    0.8333    0.2871 H   0  0  0  0  0  0  0  0  0  0  0  0
   -3.4502    3.7963    1.6674 H   0  0  0  0  0  0  0  0  0  0  0  0
   -4.2608    2.2622    2.0031 H   0  0  0  0  0  0  0  0  0  0  0  0
   -4.4947    3.1056    0.4209 H   0  0  0  0  0  0  0  0  0  0  0  0
   -0.7736    4.3410   -1.1132 H   0  0  0  0  0  0  0  0  0  0  0  0
    0.1515    5.8172   -1.3343 H   0  0  0  0  0  0  0  0  0  0  0  0
    3.9596    3.1008   -0.1512 H   0  0  0  0  0  0  0  0  0  0  0  0
    5.5256   -1.2647    0.8297 H   0  0  0  0  0  0  0  0  0  0  0  0
    5.8712   -3.6018    1.4194 H   0  0  0  0  0  0  0  0  0  0  0  0
    1.6496   -4.2666    1.4830 H   0  0  0  0  0  0  0  0  0  0  0  0
    1.2391   -1.9414    0.9195 H   0  0  0  0  0  0  0  0  0  0  0  0
   -0.9265   -1.4857   -1.3271 H   0  0  0  0  0  0  0  0  0  0  0  0
  1  2  1  0
  2  3  1  0
  3  4  2  0
  4  5  1  0
  5  6  2  0
  6  7  1  0
  7  8  1  0
  6  9  1  0
  9 10  1  0
 10 11  2  0
 11 12  1  0
 12 13  1  0
 13 14  1  0
 13 15  2  0
 12 16  2  0
 16 17  1  0
 17 18  1  0
 18 19  2  0
 18 20  1  0
 20 21  1  0
 21 22  2  0
 22 23  1  0
 23 24  2  0
 24 25  1  0
 24 26  1  0
 26 27  2  0
 20 28  1  0
 28 29  2  0
  9 30  2  0
 30  3  1  0
 29 10  1  0
 28 16  1  0
 27 21  1  0
  1 31  1  0
  1 32  1  0
  1 33  1  0
  4 34  1  0
  5 35  1  0
  8 36  1  0
  8 37  1  0
  8 38  1  0
 14 39  1  0
 14 40  1  0
 17 41  1  0
 22 42  1  0
 23 43  1  0
 26 44  1  0
 27 45  1  0
 30 46  1  0
M  END
$$$$
