
     RDKit          3D

 54 57  0  0  0  0  0  0  0  0999 V2000
   -2.7996   -5.0063   -0.8951 C   0  0  0  0  0  0  0  0  0  0  0  0
   -3.4138   -3.8285   -1.4047 O   0  0  0  0  0  0  0  0  0  0  0  0
   -3.0502   -2.6418   -0.8301 C   0  0  0  0  0  0  0  0  0  0  0  0
   -3.6950   -1.5174   -1.3597 C   0  0  0  0  0  0  0  0  0  0  0  0
   -3.4171   -0.2408   -0.8704 C   0  0  0  0  0  0  0  0  0  0  0  0
   -2.4782   -0.0942    0.1504 C   0  0  0  0  0  0  0  0  0  0  0  0
   -2.1721    1.2563    0.6621 C   0  0  0  0  0  0  0  0  0  0  0  0
   -2.9400    1.7307    1.5904 N   0  0  0  0  0  0  0  0  0  0  0  0
   -2.6773    3.0094    2.0913 C   0  0  0  0  0  0  0  0  0  0  0  0
   -3.5181    3.5335    3.0761 C   0  0  0  0  0  0  0  0  0  0  0  0
   -3.2880    4.8063    3.6067 C   0  0  0  0  0  0  0  0  0  0  0  0
   -2.2098    5.5671    3.1552 C   0  0  0  0  0  0  0  0  0  0  0  0
   -1.3633    5.0546    2.1731 C   0  0  0  0  0  0  0  0  0  0  0  0
   -1.6056    3.7788    1.6482 C   0  0  0  0  0  0  0  0  0  0  0  0
   -0.7330    3.2036    0.6119 C   0  0  0  0  0  0  0  0  0  0  0  0
    0.2571    3.8279    0.2379 O   0  0  0  0  0  0  0  0  0  0  0  0
   -1.0875    1.9458    0.1258 N   0  0  0  0  0  0  0  0  0  0  0  0
   -0.2151    1.3861   -0.9145 C   0  0  0  0  0  0  0  0  0  0  0  0
    1.0693    0.7840   -0.3357 C   0  0  0  0  0  0  0  0  0  0  0  0
    1.6894   -0.0029   -1.3526 O   0  0  0  0  0  0  0  0  0  0  0  0
    2.8145   -0.7077   -1.0102 C   0  0  0  0  0  0  0  0  0  0  0  0
    3.4559   -0.6359    0.2316 C   0  0  0  0  0  0  0  0  0  0  0  0
    4.6011   -1.4034    0.4959 C   0  0  0  0  0  0  0  0  0  0  0  0
    5.2891   -1.2882    1.8242 C   0  0  0  0  0  0  0  0  0  0  0  0
    5.1133   -2.2331   -0.5054 C   0  0  0  0  0  0  0  0  0  0  0  0
    4.4833   -2.3073   -1.7474 C   0  0  0  0  0  0  0  0  0  0  0  0
    3.3361   -1.5452   -2.0129 C   0  0  0  0  0  0  0  0  0  0  0  0
    2.6707   -1.6463   -3.3578 C   0  0  0  0  0  0  0  0  0  0  0  0
   -1.8433   -1.2074    0.7051 C   0  0  0  0  0  0  0  0  0  0  0  0
   -2.1252   -2.4823    0.2059 C   0  0  0  0  0  0  0  0  0  0  0  0
   -1.7166   -4.9869   -1.0569 H   0  0  0  0  0  0  0  0  0  0  0  0
   -3.2034   -5.8606   -1.4473 H   0  0  0  0  0  0  0  0  0  0  0  0
   -3.0416   -5.1508    0.1633 H   0  0  0  0  0  0  0  0  0  0  0  0
   -4.4221   -1.6420   -2.1591 H   0  0  0  0  0  0  0  0  0  0  0  0
   -3.9265    0.6258   -1.2841 H   0  0  0  0  0  0  0  0  0  0  0  0
   -4.3587    2.9414    3.4300 H   0  0  0  0  0  0  0  0  0  0  0  0
   -3.9514    5.2012    4.3723 H   0  0  0  0  0  0  0  0  0  0  0  0
   -2.0291    6.5570    3.5675 H   0  0  0  0  0  0  0  0  0  0  0  0
   -0.5213    5.6448    1.8183 H   0  0  0  0  0  0  0  0  0  0  0  0
   -0.7457    0.6362   -1.5083 H   0  0  0  0  0  0  0  0  0  0  0  0
    0.0511    2.1796   -1.6245 H   0  0  0  0  0  0  0  0  0  0  0  0
    1.7432    1.5872   -0.0168 H   0  0  0  0  0  0  0  0  0  0  0  0
    0.8241    0.1535    0.5256 H   0  0  0  0  0  0  0  0  0  0  0  0
    3.0906    0.0204    1.0163 H   0  0  0  0  0  0  0  0  0  0  0  0
    5.8434   -0.3461    1.8778 H   0  0  0  0  0  0  0  0  0  0  0  0
    4.5576   -1.3203    2.6379 H   0  0  0  0  0  0  0  0  0  0  0  0
    5.9912   -2.1131    1.9828 H   0  0  0  0  0  0  0  0  0  0  0  0
    6.0083   -2.8258   -0.3283 H   0  0  0  0  0  0  0  0  0  0  0  0
    4.8988   -2.9609   -2.5127 H   0  0  0  0  0  0  0  0  0  0  0  0
    2.5531   -0.6519   -3.8029 H   0  0  0  0  0  0  0  0  0  0  0  0
    3.2649   -2.2470   -4.0556 H   0  0  0  0  0  0  0  0  0  0  0  0
    1.6878   -2.1204   -3.2579 H   0  0  0  0  0  0  0  0  0  0  0  0
   -1.1367   -1.0890    1.5221 H   0  0  0  0  0  0  0  0  0  0  0  0
   -1.6085   -3.3279    0.6472 H   0  0  0  0  0  0  0  0  0  0  0  0
  1  2  1  0
  2  3  1  0
  3  4  2  0
  4  5  1  0
  5  6  2  0
  6  7  1  0
  7  8  2  0
  8  9  1  0
  9 10  2  0
 10 11  1  0
 11 12  2  0
 12 13  1  0
 13 14  2  0
 14 15  1  0
 15 16  2  0
 15 17  1  0
 17 18  1  0
 18 19  1  0
 19 20  1  0
 20 21  1  0
 21 22  2  0
 22 23  1  0
 23 24  1  0
 23 25  2  0
 25 26  1  0
 26 27  2  0
 27 28  1  0
  6 29  1  0
 29 30  2  0
 30  3  1  0
 17  7  1  0
 27 21  1  0
 14  9  1  0
  1 31  1  0
  1 32  1  0
  1 33  1  0
  4 34  1  0
  5 35  1  0
 10 36  1  0
 11 37  1  0
 12 38  1  0
 13 39  1  0
 18 40  1  0
 18 41  1  0
 19 42  1  0
 19 43  1  0
 22 44  1  0
 24 45  1  0
 24 46  1  0
 24 47  1  0
 25 48  1  0
 26 49  1  0
 28 50  1  0
 28 51  1  0
 28 52  1  0
 29 53  1  0
 30 54  1  0
M  END
$$$$
