
     RDKit          3D

 60 65  0  0  0  0  0  0  0  0999 V2000
    6.2520    0.9581    0.4787 C   0  0  0  0  0  0  0  0  0  0  0  0
    5.5132    0.9992   -0.8061 C   0  0  0  0  0  0  0  0  0  0  0  0
    5.8146    1.9305   -1.7206 N   0  0  0  0  0  0  0  0  0  0  0  0
    4.9887    1.6783   -2.7988 O   0  0  0  0  0  0  0  0  0  0  0  0
    4.1765    0.6229   -2.5151 C   0  0  0  0  0  0  0  0  0  0  0  0
    3.2615    0.1951   -3.5885 C   0  0  0  0  0  0  0  0  0  0  0  0
    4.4394    0.1760   -1.2378 C   0  0  0  0  0  0  0  0  0  0  0  0
    3.8185   -0.9292   -0.5403 C   0  0  0  0  0  0  0  0  0  0  0  0
    4.5083   -1.8055   -0.0263 O   0  0  0  0  0  0  0  0  0  0  0  0
    2.4109   -0.9359   -0.4608 N   0  0  0  0  0  0  0  0  0  0  0  0
    1.8360   -2.1064    0.1872 C   0  0  0  0  0  0  0  0  0  0  0  0
    0.3422   -2.2431   -0.0882 C   0  0  0  0  0  0  0  0  0  0  0  0
   -0.4432   -0.9672    0.3230 C   0  0  0  0  0  0  0  0  0  0  0  0
    0.1961    0.2013   -0.4709 C   0  0  0  0  0  0  0  0  0  0  0  0
    1.6979    0.3197   -0.2180 C   0  0  0  0  0  0  0  0  0  0  0  0
   -0.2206   -0.6664    1.7222 O   0  0  0  0  0  0  0  0  0  0  0  0
   -0.8613   -1.4821    2.6128 C   0  0  0  0  0  0  0  0  0  0  0  0
   -0.3490   -1.4963    3.9115 C   0  0  0  0  0  0  0  0  0  0  0  0
   -0.9263   -2.3214    4.8773 C   0  0  0  0  0  0  0  0  0  0  0  0
   -2.0181   -3.1183    4.5404 C   0  0  0  0  0  0  0  0  0  0  0  0
   -2.5670   -3.9065    5.4721 F   0  0  0  0  0  0  0  0  0  0  0  0
   -2.5506   -3.1010    3.2571 C   0  0  0  0  0  0  0  0  0  0  0  0
   -1.9696   -2.2712    2.2947 C   0  0  0  0  0  0  0  0  0  0  0  0
   -2.5233   -2.2058    0.9277 C   0  0  0  0  0  0  0  0  0  0  0  0
   -3.4072   -2.9868    0.5908 O   0  0  0  0  0  0  0  0  0  0  0  0
   -1.9674   -1.0935    0.0442 C   0  0  0  0  0  0  0  0  0  0  0  0
   -2.8013    0.1547    0.3127 C   0  0  0  0  0  0  0  0  0  0  0  0
   -3.0098    0.6111   -1.0886 C   0  0  0  0  0  0  0  0  0  0  0  0
   -3.5684    1.9470   -1.4074 C   0  0  0  0  0  0  0  0  0  0  0  0
   -3.6314    2.3520   -2.7496 C   0  0  0  0  0  0  0  0  0  0  0  0
   -4.1336    3.6118   -3.0833 C   0  0  0  0  0  0  0  0  0  0  0  0
   -4.5734    4.4683   -2.0752 C   0  0  0  0  0  0  0  0  0  0  0  0
   -5.1757    6.0257   -2.4835 Cl  0  0  0  0  0  0  0  0  0  0  0  0
   -4.5297    4.0679   -0.7381 C   0  0  0  0  0  0  0  0  0  0  0  0
   -4.0288    2.8074   -0.4032 C   0  0  0  0  0  0  0  0  0  0  0  0
   -2.6660   -0.2466   -1.9941 N   0  0  0  0  0  0  0  0  0  0  0  0
   -2.1981   -1.4063   -1.3323 O   0  0  0  0  0  0  0  0  0  0  0  0
    5.7590    1.6009    1.2184 H   0  0  0  0  0  0  0  0  0  0  0  0
    6.2912   -0.0574    0.8862 H   0  0  0  0  0  0  0  0  0  0  0  0
    7.2865    1.3002    0.3520 H   0  0  0  0  0  0  0  0  0  0  0  0
    2.2180    0.2521   -3.2626 H   0  0  0  0  0  0  0  0  0  0  0  0
    3.3728    0.8245   -4.4796 H   0  0  0  0  0  0  0  0  0  0  0  0
    3.4754   -0.8385   -3.8787 H   0  0  0  0  0  0  0  0  0  0  0  0
    2.0357   -2.0345    1.2632 H   0  0  0  0  0  0  0  0  0  0  0  0
    2.3484   -3.0043   -0.1771 H   0  0  0  0  0  0  0  0  0  0  0  0
   -0.0128   -3.1288    0.4498 H   0  0  0  0  0  0  0  0  0  0  0  0
    0.1946   -2.4408   -1.1573 H   0  0  0  0  0  0  0  0  0  0  0  0
   -0.2586    1.1583   -0.1889 H   0  0  0  0  0  0  0  0  0  0  0  0
    0.0358    0.0603   -1.5471 H   0  0  0  0  0  0  0  0  0  0  0  0
    2.0966    1.1241   -0.8403 H   0  0  0  0  0  0  0  0  0  0  0  0
    1.8951    0.6099    0.8205 H   0  0  0  0  0  0  0  0  0  0  0  0
    0.5087   -0.8799    4.1712 H   0  0  0  0  0  0  0  0  0  0  0  0
   -0.5313   -2.3508    5.8900 H   0  0  0  0  0  0  0  0  0  0  0  0
   -3.4100   -3.7254    3.0236 H   0  0  0  0  0  0  0  0  0  0  0  0
   -2.2932    0.8991    0.9266 H   0  0  0  0  0  0  0  0  0  0  0  0
   -3.7804   -0.0662    0.7474 H   0  0  0  0  0  0  0  0  0  0  0  0
   -3.2899    1.6890   -3.5442 H   0  0  0  0  0  0  0  0  0  0  0  0
   -4.1780    3.9162   -4.1279 H   0  0  0  0  0  0  0  0  0  0  0  0
   -4.8819    4.7354    0.0469 H   0  0  0  0  0  0  0  0  0  0  0  0
   -4.0177    2.5190    0.6455 H   0  0  0  0  0  0  0  0  0  0  0  0
  1  2  1  0
  2  3  2  0
  3  4  1  0
  4  5  1  0
  5  6  1  0
  5  7  2  0
  7  8  1  0
  8  9  2  0
  8 10  1  0
 10 11  1  0
 11 12  1  0
 12 13  1  0
 13 14  1  0
 14 15  1  0
 13 16  1  0
 16 17  1  0
 17 18  2  0
 18 19  1  0
 19 20  2  0
 20 21  1  0
 20 22  1  0
 22 23  2  0
 23 24  1  0
 24 25  2  0
 24 26  1  0
 26 27  1  0
 27 28  1  0
 28 29  1  0
 29 30  2  0
 30 31  1  0
 31 32  2  0
 32 33  1  0
 32 34  1  0
 34 35  2  0
 28 36  2  0
 36 37  1  0
  7  2  1  0
 15 10  1  0
 23 17  1  0
 37 26  1  0
 26 13  1  0
 35 29  1  0
  1 38  1  0
  1 39  1  0
  1 40  1  0
  6 41  1  0
  6 42  1  0
  6 43  1  0
 11 44  1  0
 11 45  1  0
 12 46  1  0
 12 47  1  0
 14 48  1  0
 14 49  1  0
 15 50  1  0
 15 51  1  0
 18 52  1  0
 19 53  1  0
 22 54  1  0
 27 55  1  0
 27 56  1  0
 30 57  1  0
 31 58  1  0
 34 59  1  0
 35 60  1  0
M  END
$$$$
