
     RDKit          3D

 74 79  0  0  0  0  0  0  0  0999 V2000
    7.8616    4.8877    0.5461 C   0  0  0  0  0  0  0  0  0  0  0  0
    7.9971    3.7988   -0.3577 O   0  0  0  0  0  0  0  0  0  0  0  0
    6.9085    2.9883   -0.5168 C   0  0  0  0  0  0  0  0  0  0  0  0
    5.6838    3.1191    0.1321 C   0  0  0  0  0  0  0  0  0  0  0  0
    4.6432    2.2141   -0.1300 C   0  0  0  0  0  0  0  0  0  0  0  0
    4.7929    1.1586   -1.0481 C   0  0  0  0  0  0  0  0  0  0  0  0
    3.7030    0.2024   -1.3464 C   0  0  0  0  0  0  0  0  0  0  0  0
    2.3610    0.5147   -1.2197 C   0  0  0  0  0  0  0  0  0  0  0  0
    1.4120   -0.4655   -1.5191 C   0  0  0  0  0  0  0  0  0  0  0  0
   -0.0045   -0.0901   -1.2879 C   0  0  0  0  0  0  0  0  0  0  0  0
   -0.4216    0.9571   -1.7666 O   0  0  0  0  0  0  0  0  0  0  0  0
   -0.6857   -0.9539   -0.4633 N   0  0  0  0  0  0  0  0  0  0  0  0
   -2.0309   -0.8928   -0.0506 C   0  0  0  0  0  0  0  0  0  0  0  0
   -2.9482    0.0384   -0.5309 C   0  0  0  0  0  0  0  0  0  0  0  0
   -4.2482    0.0436   -0.0190 C   0  0  0  0  0  0  0  0  0  0  0  0
   -5.4241    1.2279   -0.6396 S   0  0  0  0  0  6  0  0  0  0  0  0
   -6.7420    0.7709   -0.2468 O   0  0  0  0  0  0  0  0  0  0  0  0
   -5.1081    1.4731   -2.0301 O   0  0  0  0  0  0  0  0  0  0  0  0
   -5.0844    2.6346    0.2428 N   0  0  0  0  0  0  0  0  0  0  0  0
   -3.7955    3.3262   -0.0484 C   0  0  0  0  0  0  0  0  0  0  0  0
   -3.8144    4.7220    0.5872 C   0  0  0  0  0  0  0  0  0  0  0  0
   -4.0429    4.6412    2.0044 O   0  0  0  0  0  0  0  0  0  0  0  0
   -5.3132    4.0242    2.2675 C   0  0  0  0  0  0  0  0  0  0  0  0
   -5.3618    2.5981    1.7053 C   0  0  0  0  0  0  0  0  0  0  0  0
   -4.6510   -0.9021    0.9291 C   0  0  0  0  0  0  0  0  0  0  0  0
   -3.7365   -1.8510    1.3900 C   0  0  0  0  0  0  0  0  0  0  0  0
   -2.4201   -1.8613    0.9089 C   0  0  0  0  0  0  0  0  0  0  0  0
   -1.4579   -2.8119    1.3296 N   0  0  0  0  0  0  0  0  0  0  0  0
   -1.7370   -4.1678    0.7950 C   0  0  0  0  0  0  0  0  0  0  0  0
   -0.8324   -5.1898    1.4998 C   0  0  0  0  0  0  0  0  0  0  0  0
   -1.0654   -5.2769    2.9147 O   0  0  0  0  0  0  0  0  0  0  0  0
   -1.6342   -4.0853    3.4776 C   0  0  0  0  0  0  0  0  0  0  0  0
   -1.1672   -2.7951    2.7858 C   0  0  0  0  0  0  0  0  0  0  0  0
    1.7992   -1.7369   -1.9973 C   0  0  0  0  0  0  0  0  0  0  0  0
    0.9125   -2.7681   -2.4082 C   0  0  0  0  0  0  0  0  0  0  0  0
    1.3929   -3.9969   -2.8561 C   0  0  0  0  0  0  0  0  0  0  0  0
    2.7614   -4.2127   -2.9107 C   0  0  0  0  0  0  0  0  0  0  0  0
    3.6376   -3.1938   -2.5303 C   0  0  0  0  0  0  0  0  0  0  0  0
    3.1843   -1.9592   -2.0851 C   0  0  0  0  0  0  0  0  0  0  0  0
    4.0969   -1.0275   -1.7620 N   0  0  0  0  0  0  0  0  0  0  0  0
    6.0433    1.0418   -1.6804 C   0  0  0  0  0  0  0  0  0  0  0  0
    7.0829    1.9425   -1.4211 C   0  0  0  0  0  0  0  0  0  0  0  0
    7.6830    4.5326    1.5666 H   0  0  0  0  0  0  0  0  0  0  0  0
    7.0733    5.5755    0.2224 H   0  0  0  0  0  0  0  0  0  0  0  0
    8.8055    5.4421    0.5458 H   0  0  0  0  0  0  0  0  0  0  0  0
    5.4996    3.9112    0.8508 H   0  0  0  0  0  0  0  0  0  0  0  0
    3.7119    2.3474    0.4152 H   0  0  0  0  0  0  0  0  0  0  0  0
    2.0345    1.4993   -0.9010 H   0  0  0  0  0  0  0  0  0  0  0  0
   -0.1783   -1.7127   -0.0093 H   0  0  0  0  0  0  0  0  0  0  0  0
   -2.6725    0.7564   -1.2972 H   0  0  0  0  0  0  0  0  0  0  0  0
   -3.6479    3.4284   -1.1273 H   0  0  0  0  0  0  0  0  0  0  0  0
   -2.9697    2.7487    0.3803 H   0  0  0  0  0  0  0  0  0  0  0  0
   -4.5883    5.3549    0.1351 H   0  0  0  0  0  0  0  0  0  0  0  0
   -2.8482    5.2141    0.4357 H   0  0  0  0  0  0  0  0  0  0  0  0
   -6.1087    4.6468    1.8402 H   0  0  0  0  0  0  0  0  0  0  0  0
   -5.4514    4.0012    3.3530 H   0  0  0  0  0  0  0  0  0  0  0  0
   -6.3515    2.1740    1.8997 H   0  0  0  0  0  0  0  0  0  0  0  0
   -4.6017    1.9831    2.2010 H   0  0  0  0  0  0  0  0  0  0  0  0
   -5.6730   -0.9159    1.3023 H   0  0  0  0  0  0  0  0  0  0  0  0
   -4.0657   -2.5883    2.1163 H   0  0  0  0  0  0  0  0  0  0  0  0
   -1.5410   -4.1831   -0.2826 H   0  0  0  0  0  0  0  0  0  0  0  0
   -2.7847   -4.4482    0.9596 H   0  0  0  0  0  0  0  0  0  0  0  0
    0.2226   -4.9324    1.3536 H   0  0  0  0  0  0  0  0  0  0  0  0
   -0.9891   -6.1881    1.0802 H   0  0  0  0  0  0  0  0  0  0  0  0
   -1.3600   -4.0616    4.5373 H   0  0  0  0  0  0  0  0  0  0  0  0
   -2.7250   -4.1804    3.4280 H   0  0  0  0  0  0  0  0  0  0  0  0
   -0.0781   -2.7178    2.8880 H   0  0  0  0  0  0  0  0  0  0  0  0
   -1.5979   -1.9191    3.2854 H   0  0  0  0  0  0  0  0  0  0  0  0
   -0.1651   -2.6131   -2.4043 H   0  0  0  0  0  0  0  0  0  0  0  0
    0.7020   -4.7743   -3.1717 H   0  0  0  0  0  0  0  0  0  0  0  0
    3.1550   -5.1632   -3.2616 H   0  0  0  0  0  0  0  0  0  0  0  0
    4.7104   -3.3660   -2.5907 H   0  0  0  0  0  0  0  0  0  0  0  0
    6.2181    0.2384   -2.3946 H   0  0  0  0  0  0  0  0  0  0  0  0
    8.0350    1.8236   -1.9327 H   0  0  0  0  0  0  0  0  0  0  0  0
  1  2  1  0
  2  3  1  0
  3  4  2  0
  4  5  1  0
  5  6  2  0
  6  7  1  0
  7  8  2  0
  8  9  1  0
  9 10  1  0
 10 11  2  0
 10 12  1  0
 12 13  1  0
 13 14  2  0
 14 15  1  0
 15 16  1  0
 16 17  2  0
 16 18  2  0
 16 19  1  0
 19 20  1  0
 20 21  1  0
 21 22  1  0
 22 23  1  0
 23 24  1  0
 15 25  2  0
 25 26  1  0
 26 27  2  0
 27 28  1  0
 28 29  1  0
 29 30  1  0
 30 31  1  0
 31 32  1  0
 32 33  1  0
  9 34  2  0
 34 35  1  0
 35 36  2  0
 36 37  1  0
 37 38  2  0
 38 39  1  0
 39 40  2  0
  6 41  1  0
 41 42  2  0
 42  3  1  0
 40  7  1  0
 27 13  1  0
 33 28  1  0
 39 34  1  0
 24 19  1  0
  1 43  1  0
  1 44  1  0
  1 45  1  0
  4 46  1  0
  5 47  1  0
  8 48  1  0
 12 49  1  0
 14 50  1  0
 20 51  1  0
 20 52  1  0
 21 53  1  0
 21 54  1  0
 23 55  1  0
 23 56  1  0
 24 57  1  0
 24 58  1  0
 25 59  1  0
 26 60  1  0
 29 61  1  0
 29 62  1  0
 30 63  1  0
 30 64  1  0
 32 65  1  0
 32 66  1  0
 33 67  1  0
 33 68  1  0
 35 69  1  0
 36 70  1  0
 37 71  1  0
 38 72  1  0
 41 73  1  0
 42 74  1  0
M  END
$$$$
