
     RDKit          3D

 40 42  0  0  0  0  0  0  0  0999 V2000
   -5.2114   -1.5154    0.1275 C   0  0  0  0  0  0  0  0  0  0  0  0
   -3.9091   -0.7703    0.1129 C   0  0  0  0  0  0  0  0  0  0  0  0
   -3.5073   -0.0670   -1.0240 C   0  0  0  0  0  0  0  0  0  0  0  0
   -2.2803    0.6236   -1.0739 C   0  0  0  0  0  0  0  0  0  0  0  0
   -1.9790    1.3725   -2.3439 C   0  0  0  0  0  0  0  0  0  0  0  0
   -1.4263    0.5781    0.0551 C   0  0  0  0  0  0  0  0  0  0  0  0
    0.1768    1.4197    0.0624 S   0  0  0  0  0  6  0  0  0  0  0  0
    0.2496    2.1745    1.2972 O   0  0  0  0  0  0  0  0  0  0  0  0
    0.3929    2.0920   -1.2023 O   0  0  0  0  0  0  0  0  0  0  0  0
    1.2600    0.1018    0.1186 N   0  0  0  0  0  0  0  0  0  0  0  0
    1.1691   -0.8727   -1.0201 C   0  0  0  0  0  0  0  0  0  0  0  0
    2.5632   -1.5056   -1.1528 C   0  0  0  0  0  0  0  0  0  0  0  0
    3.4265   -0.5115   -0.4488 C   0  0  0  0  0  0  0  0  0  0  0  0
    4.8121   -0.4731   -0.4104 C   0  0  0  0  0  0  0  0  0  0  0  0
    5.4246    0.4995    0.3809 C   0  0  0  0  0  0  0  0  0  0  0  0
    4.6508    1.3949    1.1337 C   0  0  0  0  0  0  0  0  0  0  0  0
    3.2540    1.3377    1.0949 C   0  0  0  0  0  0  0  0  0  0  0  0
    2.6551    0.4012    0.2707 C   0  0  0  0  0  0  0  0  0  0  0  0
   -1.8200   -0.1417    1.2149 C   0  0  0  0  0  0  0  0  0  0  0  0
   -1.0039   -0.2094    2.4812 C   0  0  0  0  0  0  0  0  0  0  0  0
   -3.0598   -0.8068    1.2188 C   0  0  0  0  0  0  0  0  0  0  0  0
   -5.9553   -1.0150   -0.5014 H   0  0  0  0  0  0  0  0  0  0  0  0
   -5.0630   -2.5345   -0.2424 H   0  0  0  0  0  0  0  0  0  0  0  0
   -5.6238   -1.5630    1.1408 H   0  0  0  0  0  0  0  0  0  0  0  0
   -4.1714   -0.0477   -1.8881 H   0  0  0  0  0  0  0  0  0  0  0  0
   -2.7974    1.2830   -3.0677 H   0  0  0  0  0  0  0  0  0  0  0  0
   -1.8633    2.4416   -2.1426 H   0  0  0  0  0  0  0  0  0  0  0  0
   -1.0897    0.9640   -2.8323 H   0  0  0  0  0  0  0  0  0  0  0  0
    0.4094   -1.6347   -0.8219 H   0  0  0  0  0  0  0  0  0  0  0  0
    0.9172   -0.3580   -1.9544 H   0  0  0  0  0  0  0  0  0  0  0  0
    2.8431   -1.6397   -2.2015 H   0  0  0  0  0  0  0  0  0  0  0  0
    2.6035   -2.4690   -0.6335 H   0  0  0  0  0  0  0  0  0  0  0  0
    5.4100   -1.1858   -0.9695 H   0  0  0  0  0  0  0  0  0  0  0  0
    6.5098    0.5546    0.4291 H   0  0  0  0  0  0  0  0  0  0  0  0
    5.1405    2.1350    1.7625 H   0  0  0  0  0  0  0  0  0  0  0  0
    2.6732    2.0192    1.7063 H   0  0  0  0  0  0  0  0  0  0  0  0
   -1.4157   -0.9474    3.1794 H   0  0  0  0  0  0  0  0  0  0  0  0
   -1.0151    0.7564    2.9943 H   0  0  0  0  0  0  0  0  0  0  0  0
    0.0234   -0.5225    2.2857 H   0  0  0  0  0  0  0  0  0  0  0  0
   -3.3726   -1.3582    2.1051 H   0  0  0  0  0  0  0  0  0  0  0  0
  1  2  1  0
  2  3  2  0
  3  4  1  0
  4  5  1  0
  4  6  2  0
  6  7  1  0
  7  8  2  0
  7  9  2  0
  7 10  1  0
 10 11  1  0
 11 12  1  0
 12 13  1  0
 13 14  2  0
 14 15  1  0
 15 16  2  0
 16 17  1  0
 17 18  2  0
  6 19  1  0
 19 20  1  0
 19 21  2  0
 21  2  1  0
 18 10  1  0
 18 13  1  0
  1 22  1  0
  1 23  1  0
  1 24  1  0
  3 25  1  0
  5 26  1  0
  5 27  1  0
  5 28  1  0
 11 29  1  0
 11 30  1  0
 12 31  1  0
 12 32  1  0
 14 33  1  0
 15 34  1  0
 16 35  1  0
 17 36  1  0
 20 37  1  0
 20 38  1  0
 20 39  1  0
 21 40  1  0
M  END
$$$$
