
     RDKit          3D

 58 61  0  0  0  0  0  0  0  0999 V2000
    3.1359   -2.0707   -4.3033 C   0  0  0  0  0  0  0  0  0  0  0  0
    3.4228   -2.2537   -2.8371 C   0  0  0  0  0  0  0  0  0  0  0  0
    3.7866   -3.5316   -2.3919 C   0  0  0  0  0  0  0  0  0  0  0  0
    4.0297   -3.7668   -1.0437 C   0  0  0  0  0  0  0  0  0  0  0  0
    3.9121   -2.7329   -0.1179 C   0  0  0  0  0  0  0  0  0  0  0  0
    3.5644   -1.4426   -0.5289 C   0  0  0  0  0  0  0  0  0  0  0  0
    3.5071   -0.3625    0.3863 N   0  0  0  0  0  0  0  0  0  0  0  0
    3.6044   -0.4118    1.7662 C   0  0  0  0  0  0  0  0  0  0  0  0
    3.5828   -1.3944    2.4948 O   0  0  0  0  0  0  0  0  0  0  0  0
    3.7920    0.9396    2.3535 C   0  0  0  0  0  0  0  0  0  0  0  0
    5.1037    1.2574    2.7972 C   0  0  0  0  0  0  0  0  0  0  0  0
    6.1673    1.5794    3.1292 N   0  0  0  0  0  0  0  0  0  0  0  0
    2.8032    1.8511    2.4122 C   0  0  0  0  0  0  0  0  0  0  0  0
    1.4357    1.6855    2.0472 C   0  0  0  0  0  0  0  0  0  0  0  0
    0.6322    0.6417    2.4452 C   0  0  0  0  0  0  0  0  0  0  0  0
   -0.6448    0.8979    2.0021 N   0  0  0  0  0  0  0  0  0  0  0  0
   -1.8202    0.1343    2.3939 C   0  0  0  0  0  0  0  0  0  0  0  0
   -2.3893   -0.7104    1.2728 C   0  0  0  0  0  0  0  0  0  0  0  0
   -1.7109   -1.4638    0.5767 O   0  0  0  0  0  0  0  0  0  0  0  0
   -3.7542   -0.5986    1.1165 N   0  0  0  0  0  0  0  0  0  0  0  0
   -4.4651   -1.4812    0.2173 C   0  0  0  0  0  0  0  0  0  0  0  0
   -5.8812   -1.0422    0.0953 C   0  0  0  0  0  0  0  0  0  0  0  0
   -6.8504   -1.2659   -0.8624 C   0  0  0  0  0  0  0  0  0  0  0  0
   -8.0127   -0.5847   -0.4289 C   0  0  0  0  0  0  0  0  0  0  0  0
   -7.6867    0.0065    0.7686 C   0  0  0  0  0  0  0  0  0  0  0  0
   -6.3966   -0.2646    1.0954 O   0  0  0  0  0  0  0  0  0  0  0  0
   -0.6691    2.0774    1.2823 C   0  0  0  0  0  0  0  0  0  0  0  0
   -1.7256    2.7475    0.6428 C   0  0  0  0  0  0  0  0  0  0  0  0
   -1.4465    3.9550   -0.0055 C   0  0  0  0  0  0  0  0  0  0  0  0
   -0.1623    4.4898   -0.0012 C   0  0  0  0  0  0  0  0  0  0  0  0
    0.8812    3.8257    0.6557 C   0  0  0  0  0  0  0  0  0  0  0  0
    0.6311    2.5961    1.3005 C   0  0  0  0  0  0  0  0  0  0  0  0
    3.3205   -1.1916   -1.9047 C   0  0  0  0  0  0  0  0  0  0  0  0
    2.9134    0.1911   -2.3634 C   0  0  0  0  0  0  0  0  0  0  0  0
    3.8125   -1.3279   -4.7407 H   0  0  0  0  0  0  0  0  0  0  0  0
    3.2500   -3.0075   -4.8599 H   0  0  0  0  0  0  0  0  0  0  0  0
    2.1004   -1.7424   -4.4415 H   0  0  0  0  0  0  0  0  0  0  0  0
    3.8828   -4.3558   -3.0943 H   0  0  0  0  0  0  0  0  0  0  0  0
    4.3104   -4.7623   -0.7051 H   0  0  0  0  0  0  0  0  0  0  0  0
    4.1172   -2.9691    0.9232 H   0  0  0  0  0  0  0  0  0  0  0  0
    3.4084    0.5570   -0.0182 H   0  0  0  0  0  0  0  0  0  0  0  0
    3.0494    2.8460    2.7856 H   0  0  0  0  0  0  0  0  0  0  0  0
    0.8428   -0.2374    3.0488 H   0  0  0  0  0  0  0  0  0  0  0  0
   -1.5486   -0.5286    3.2219 H   0  0  0  0  0  0  0  0  0  0  0  0
   -2.5618    0.8481    2.7730 H   0  0  0  0  0  0  0  0  0  0  0  0
   -4.3205   -0.1103    1.7970 H   0  0  0  0  0  0  0  0  0  0  0  0
   -3.9626   -1.4850   -0.7564 H   0  0  0  0  0  0  0  0  0  0  0  0
   -4.4213   -2.4917    0.6332 H   0  0  0  0  0  0  0  0  0  0  0  0
   -6.7275   -1.8382   -1.7724 H   0  0  0  0  0  0  0  0  0  0  0  0
   -8.9677   -0.5207   -0.9338 H   0  0  0  0  0  0  0  0  0  0  0  0
   -8.2260    0.6318    1.4649 H   0  0  0  0  0  0  0  0  0  0  0  0
   -2.7371    2.3487    0.6413 H   0  0  0  0  0  0  0  0  0  0  0  0
   -2.2468    4.4836   -0.5189 H   0  0  0  0  0  0  0  0  0  0  0  0
    0.0328    5.4328   -0.5073 H   0  0  0  0  0  0  0  0  0  0  0  0
    1.8765    4.2608    0.6621 H   0  0  0  0  0  0  0  0  0  0  0  0
    3.6742    0.9251   -2.0785 H   0  0  0  0  0  0  0  0  0  0  0  0
    1.9544    0.4614   -1.9067 H   0  0  0  0  0  0  0  0  0  0  0  0
    2.7977    0.2758   -3.4438 H   0  0  0  0  0  0  0  0  0  0  0  0
  1  2  1  0
  2  3  2  0
  3  4  1  0
  4  5  2  0
  5  6  1  0
  6  7  1  0
  7  8  1  0
  8  9  2  0
  8 10  1  0
 10 11  1  0
 11 12  3  0
 10 13  2  3
 13 14  1  0
 14 15  2  0
 15 16  1  0
 16 17  1  0
 17 18  1  0
 18 19  2  0
 18 20  1  0
 20 21  1  0
 21 22  1  0
 22 23  2  0
 23 24  1  0
 24 25  2  0
 25 26  1  0
 16 27  1  0
 27 28  2  0
 28 29  1  0
 29 30  2  0
 30 31  1  0
 31 32  2  0
  6 33  2  0
 33 34  1  0
 33  2  1  0
 32 14  1  0
 26 22  1  0
 32 27  1  0
  1 35  1  0
  1 36  1  0
  1 37  1  0
  3 38  1  0
  4 39  1  0
  5 40  1  0
  7 41  1  0
 13 42  1  0
 15 43  1  0
 17 44  1  0
 17 45  1  0
 20 46  1  0
 21 47  1  0
 21 48  1  0
 23 49  1  0
 24 50  1  0
 25 51  1  0
 28 52  1  0
 29 53  1  0
 30 54  1  0
 31 55  1  0
 34 56  1  0
 34 57  1  0
 34 58  1  0
M  END
$$$$
