
     RDKit          3D

 56 61  0  0  0  0  0  0  0  0999 V2000
   -5.6835   -1.6103    2.8033 C   0  0  0  0  0  0  0  0  0  0  0  0
   -4.7515   -1.7582    1.6384 C   0  0  0  0  0  0  0  0  0  0  0  0
   -5.2139   -2.1631    0.3718 C   0  0  0  0  0  0  0  0  0  0  0  0
   -6.8871   -2.5125    0.0974 Cl  0  0  0  0  0  0  0  0  0  0  0  0
   -4.3406   -2.3001   -0.7255 C   0  0  0  0  0  0  0  0  0  0  0  0
   -2.9774   -2.0348   -0.5924 C   0  0  0  0  0  0  0  0  0  0  0  0
   -2.5106   -1.6299    0.6488 C   0  0  0  0  0  0  0  0  0  0  0  0
   -3.3893   -1.4992    1.7355 C   0  0  0  0  0  0  0  0  0  0  0  0
   -2.6814   -1.0830    2.8609 N   0  0  0  0  0  0  0  0  0  0  0  0
   -1.3231   -0.9047    2.5879 C   0  0  0  0  0  0  0  0  0  0  0  0
   -0.5006   -0.5243    3.4086 O   0  0  0  0  0  0  0  0  0  0  0  0
   -1.1161   -1.2816    1.0977 C   0  0  0  0  0  0  0  0  0  0  0  0
   -0.1184   -2.4016    0.9241 N   0  0  0  0  0  0  0  0  0  0  0  0
    1.1725   -1.8067    0.3912 C   0  0  2  0  0  0  0  0  0  0  0  0
    2.1967   -1.6924    1.5358 C   0  0  0  0  0  0  0  0  0  0  0  0
    3.5840   -1.2873    1.0876 C   0  0  0  0  0  0  0  0  0  0  0  0
    4.0865   -0.0169    1.4023 C   0  0  0  0  0  0  0  0  0  0  0  0
    5.3663    0.3603    0.9929 C   0  0  0  0  0  0  0  0  0  0  0  0
    6.1565   -0.5283    0.2665 C   0  0  0  0  0  0  0  0  0  0  0  0
    5.6683   -1.7950   -0.0494 C   0  0  0  0  0  0  0  0  0  0  0  0
    4.3889   -2.1744    0.3601 C   0  0  0  0  0  0  0  0  0  0  0  0
    0.7118   -0.5121   -0.1588 C   0  0  0  0  0  0  0  0  0  0  0  0
   -0.5754   -0.1975    0.2681 C   0  0  0  0  0  0  0  0  0  0  0  0
   -0.9306    1.0185   -0.2524 C   0  0  0  0  0  0  0  0  0  0  0  0
   -2.1026    1.6443   -0.1533 O   0  0  0  0  0  0  0  0  0  0  0  0
    0.1663    1.4767   -1.0075 N   0  0  0  0  0  0  0  0  0  0  0  0
    0.2427    2.7213   -1.6988 C   0  0  0  0  0  0  0  0  0  0  0  0
   -0.2884    3.8799   -1.1157 C   0  0  0  0  0  0  0  0  0  0  0  0
   -0.2100    5.0987   -1.7918 C   0  0  0  0  0  0  0  0  0  0  0  0
    0.3937    5.1651   -3.0467 C   0  0  0  0  0  0  0  0  0  0  0  0
    0.9239    4.0145   -3.6290 C   0  0  0  0  0  0  0  0  0  0  0  0
    0.8528    2.7924   -2.9580 C   0  0  0  0  0  0  0  0  0  0  0  0
    1.1687    0.4907   -0.9690 C   0  0  0  0  0  0  0  0  0  0  0  0
    2.3553    0.5904   -1.5628 O   0  0  0  0  0  0  0  0  0  0  0  0
   -6.4297   -0.8364    2.5957 H   0  0  0  0  0  0  0  0  0  0  0  0
   -5.1651   -1.3215    3.7215 H   0  0  0  0  0  0  0  0  0  0  0  0
   -6.1901   -2.5590    3.0087 H   0  0  0  0  0  0  0  0  0  0  0  0
   -4.7291   -2.6122   -1.6927 H   0  0  0  0  0  0  0  0  0  0  0  0
   -2.3092   -2.1303   -1.4427 H   0  0  0  0  0  0  0  0  0  0  0  0
   -3.0642   -0.8954    3.7740 H   0  0  0  0  0  0  0  0  0  0  0  0
   -0.4804   -2.9818    0.1699 H   0  0  0  0  0  0  0  0  0  0  0  0
    1.5473   -2.4581   -0.4068 H   0  0  0  0  0  0  0  0  0  0  0  0
    1.8466   -0.9879    2.3006 H   0  0  0  0  0  0  0  0  0  0  0  0
    2.2876   -2.6614    2.0458 H   0  0  0  0  0  0  0  0  0  0  0  0
    3.4790    0.6868    1.9674 H   0  0  0  0  0  0  0  0  0  0  0  0
    5.7461    1.3469    1.2433 H   0  0  0  0  0  0  0  0  0  0  0  0
    7.1531   -0.2351   -0.0514 H   0  0  0  0  0  0  0  0  0  0  0  0
    6.2848   -2.4893   -0.6139 H   0  0  0  0  0  0  0  0  0  0  0  0
    4.0251   -3.1681    0.1105 H   0  0  0  0  0  0  0  0  0  0  0  0
   -2.1884    2.2805   -0.8855 H   0  0  0  0  0  0  0  0  0  0  0  0
   -0.7223    3.8652   -0.1171 H   0  0  0  0  0  0  0  0  0  0  0  0
   -0.6097    6.0008   -1.3341 H   0  0  0  0  0  0  0  0  0  0  0  0
    0.4532    6.1160   -3.5711 H   0  0  0  0  0  0  0  0  0  0  0  0
    1.3863    4.0683   -4.6120 H   0  0  0  0  0  0  0  0  0  0  0  0
    1.2378    1.9032   -3.4540 H   0  0  0  0  0  0  0  0  0  0  0  0
    2.6070    1.5300   -1.6076 H   0  0  0  0  0  0  0  0  0  0  0  0
  1  2  1  0
  2  3  2  0
  3  4  1  0
  3  5  1  0
  5  6  2  0
  6  7  1  0
  7  8  2  0
  8  9  1  0
  9 10  1  0
 10 11  2  0
 10 12  1  0
 12 13  1  0
 13 14  1  0
 14 15  1  0
 15 16  1  0
 16 17  2  0
 17 18  1  0
 18 19  2  0
 19 20  1  0
 20 21  2  0
 14 22  1  0
 22 23  1  0
 23 24  2  0
 24 25  1  0
 24 26  1  0
 26 27  1  0
 27 28  2  0
 28 29  1  0
 29 30  2  0
 30 31  1  0
 31 32  2  0
 26 33  1  0
 33 34  1  0
  8  2  1  0
 23 12  1  0
 32 27  1  0
 12  7  1  0
 21 16  1  0
 33 22  2  0
  1 35  1  0
  1 36  1  0
  1 37  1  0
  5 38  1  0
  6 39  1  0
  9 40  1  0
 13 41  1  0
 14 42  1  6
 15 43  1  0
 15 44  1  0
 17 45  1  0
 18 46  1  0
 19 47  1  0
 20 48  1  0
 21 49  1  0
 25 50  1  0
 28 51  1  0
 29 52  1  0
 30 53  1  0
 31 54  1  0
 32 55  1  0
 34 56  1  0
M  END
$$$$
