
     RDKit          3D

 59 64  0  0  0  0  0  0  0  0999 V2000
   -5.4115   -2.3452    0.8982 C   0  0  0  0  0  0  0  0  0  0  0  0
   -5.1795   -1.1862    1.6993 O   0  0  0  0  0  0  0  0  0  0  0  0
   -5.5668   -0.0590    1.0080 C   0  0  0  0  0  0  0  0  0  0  0  0
   -6.8341    0.4458    1.3294 C   0  0  0  0  0  0  0  0  0  0  0  0
   -7.3318    1.5533    0.6550 C   0  0  0  0  0  0  0  0  0  0  0  0
   -6.5590    2.1526   -0.3318 C   0  0  0  0  0  0  0  0  0  0  0  0
   -5.2811    1.6589   -0.6293 C   0  0  0  0  0  0  0  0  0  0  0  0
   -4.7301    0.5556    0.0462 C   0  0  0  0  0  0  0  0  0  0  0  0
   -3.4449    0.0984   -0.2400 N   0  0  0  0  0  0  0  0  0  0  0  0
   -2.5745   -0.3160    0.8860 C   0  0  0  0  0  0  0  0  0  0  0  0
   -1.1163    0.1619    0.6991 C   0  0  0  0  0  0  0  0  0  0  0  0
   -0.5249   -0.3050   -0.5870 N   0  0  0  0  0  0  0  0  0  0  0  0
    0.7223    0.1922   -0.8615 C   0  0  0  0  0  0  0  0  0  0  0  0
    1.0706    1.3050   -1.6042 C   0  0  0  0  0  0  0  0  0  0  0  0
    2.4648    1.4871   -1.4954 C   0  0  0  0  0  0  0  0  0  0  0  0
    2.9522    0.4840   -0.6794 C   0  0  0  0  0  0  0  0  0  0  0  0
    4.2843    0.1915   -0.1954 C   0  0  0  0  0  0  0  0  0  0  0  0
    5.4015    1.1481   -0.4083 C   0  0  0  0  0  0  0  0  0  0  0  0
    5.2566    2.5080   -0.1146 C   0  0  0  0  0  0  0  0  0  0  0  0
    6.3308    3.3781   -0.3087 C   0  0  0  0  0  0  0  0  0  0  0  0
    7.5527    2.8875   -0.7800 C   0  0  0  0  0  0  0  0  0  0  0  0
    7.7050    1.5288   -1.0548 C   0  0  0  0  0  0  0  0  0  0  0  0
    6.6324    0.6569   -0.8638 C   0  0  0  0  0  0  0  0  0  0  0  0
    4.5354   -0.9188    0.4313 N   0  0  0  0  0  0  0  0  0  0  0  0
    3.4904   -1.8367    0.6549 C   0  0  0  0  0  0  0  0  0  0  0  0
    3.8119   -3.0401    1.2926 C   0  0  0  0  0  0  0  0  0  0  0  0
    2.8344   -4.0078    1.5291 C   0  0  0  0  0  0  0  0  0  0  0  0
    1.5216   -3.7800    1.1219 C   0  0  0  0  0  0  0  0  0  0  0  0
    1.1804   -2.5829    0.4877 C   0  0  0  0  0  0  0  0  0  0  0  0
    2.1585   -1.6074    0.2680 C   0  0  0  0  0  0  0  0  0  0  0  0
    1.9038   -0.3753   -0.3857 N   0  0  0  0  0  0  0  0  0  0  0  0
   -1.5009   -0.3925   -1.7030 C   0  0  0  0  0  0  0  0  0  0  0  0
   -2.7474    0.4880   -1.4777 C   0  0  0  0  0  0  0  0  0  0  0  0
   -6.4849   -2.4896    0.7266 H   0  0  0  0  0  0  0  0  0  0  0  0
   -4.8792   -2.3024   -0.0583 H   0  0  0  0  0  0  0  0  0  0  0  0
   -5.0362   -3.2119    1.4497 H   0  0  0  0  0  0  0  0  0  0  0  0
   -7.4314   -0.0381    2.0965 H   0  0  0  0  0  0  0  0  0  0  0  0
   -8.3171    1.9420    0.8944 H   0  0  0  0  0  0  0  0  0  0  0  0
   -6.9386    3.0165   -0.8689 H   0  0  0  0  0  0  0  0  0  0  0  0
   -4.7105    2.1850   -1.3889 H   0  0  0  0  0  0  0  0  0  0  0  0
   -2.9307    0.0888    1.8410 H   0  0  0  0  0  0  0  0  0  0  0  0
   -2.5839   -1.4100    0.9511 H   0  0  0  0  0  0  0  0  0  0  0  0
   -0.5129   -0.2061    1.5369 H   0  0  0  0  0  0  0  0  0  0  0  0
   -1.0937    1.2592    0.7349 H   0  0  0  0  0  0  0  0  0  0  0  0
    0.3818    1.9488   -2.1315 H   0  0  0  0  0  0  0  0  0  0  0  0
    3.0417    2.2829   -1.9497 H   0  0  0  0  0  0  0  0  0  0  0  0
    4.3203    2.8945    0.2817 H   0  0  0  0  0  0  0  0  0  0  0  0
    6.2206    4.4361   -0.0832 H   0  0  0  0  0  0  0  0  0  0  0  0
    8.3910    3.5646   -0.9246 H   0  0  0  0  0  0  0  0  0  0  0  0
    8.6612    1.1463   -1.4111 H   0  0  0  0  0  0  0  0  0  0  0  0
    6.7532   -0.4026   -1.0709 H   0  0  0  0  0  0  0  0  0  0  0  0
    4.8394   -3.2206    1.6013 H   0  0  0  0  0  0  0  0  0  0  0  0
    3.1010   -4.9403    2.0209 H   0  0  0  0  0  0  0  0  0  0  0  0
    0.7614   -4.5392    1.2896 H   0  0  0  0  0  0  0  0  0  0  0  0
    0.1563   -2.4536    0.1589 H   0  0  0  0  0  0  0  0  0  0  0  0
   -1.8144   -1.4419   -1.7772 H   0  0  0  0  0  0  0  0  0  0  0  0
   -1.0416   -0.1390   -2.6666 H   0  0  0  0  0  0  0  0  0  0  0  0
   -2.4472    1.5415   -1.4257 H   0  0  0  0  0  0  0  0  0  0  0  0
   -3.4128    0.3601   -2.3396 H   0  0  0  0  0  0  0  0  0  0  0  0
  1  2  1  0
  2  3  1  0
  3  4  2  0
  4  5  1  0
  5  6  2  0
  6  7  1  0
  7  8  2  0
  8  9  1  0
  9 10  1  0
 10 11  1  0
 11 12  1  0
 12 13  1  0
 13 14  2  0
 14 15  1  0
 15 16  2  0
 16 17  1  0
 17 18  1  0
 18 19  2  0
 19 20  1  0
 20 21  2  0
 21 22  1  0
 22 23  2  0
 17 24  2  0
 24 25  1  0
 25 26  2  0
 26 27  1  0
 27 28  2  0
 28 29  1  0
 29 30  2  0
 30 31  1  0
 12 32  1  0
 32 33  1  0
  8  3  1  0
 33  9  1  0
 31 13  1  0
 31 16  1  0
 23 18  1  0
 30 25  1  0
  1 34  1  0
  1 35  1  0
  1 36  1  0
  4 37  1  0
  5 38  1  0
  6 39  1  0
  7 40  1  0
 10 41  1  0
 10 42  1  0
 11 43  1  0
 11 44  1  0
 14 45  1  0
 15 46  1  0
 19 47  1  0
 20 48  1  0
 21 49  1  0
 22 50  1  0
 23 51  1  0
 26 52  1  0
 27 53  1  0
 28 54  1  0
 29 55  1  0
 32 56  1  0
 32 57  1  0
 33 58  1  0
 33 59  1  0
M  END
$$$$
