
     RDKit          3D

 54 57  0  0  0  0  0  0  0  0999 V2000
    5.3388    1.9424    2.8228 C   0  0  0  0  0  0  0  0  0  0  0  0
    5.3921    0.4259    2.8408 C   0  0  0  0  0  0  0  0  0  0  0  0
    4.0171   -0.1630    3.0874 C   0  0  0  0  0  0  0  0  0  0  0  0
    3.6428   -0.3757    4.2423 O   0  0  0  0  0  0  0  0  0  0  0  0
    3.2061   -0.4203    1.9956 N   0  0  0  0  0  0  0  0  0  0  0  0
    3.5738   -0.2039    0.5892 C   0  0  0  0  0  0  0  0  0  0  0  0
    2.3546   -0.0099   -0.3316 C   0  0  0  0  0  0  0  0  0  0  0  0
    1.3354   -1.0796   -0.1918 N   0  0  0  0  0  0  0  0  0  0  0  0
    1.1911   -1.8811   -1.3536 C   0  0  0  0  0  0  0  0  0  0  0  0
    2.2251   -2.6932   -1.8397 C   0  0  0  0  0  0  0  0  0  0  0  0
    2.0336   -3.4676   -2.9850 C   0  0  0  0  0  0  0  0  0  0  0  0
    0.8087   -3.4337   -3.6497 C   0  0  0  0  0  0  0  0  0  0  0  0
    0.5874   -4.3974   -5.0597 Cl  0  0  0  0  0  0  0  0  0  0  0  0
   -0.2339   -2.6322   -3.1870 C   0  0  0  0  0  0  0  0  0  0  0  0
   -0.0468   -1.8537   -2.0449 C   0  0  0  0  0  0  0  0  0  0  0  0
   -1.0301   -1.0050   -1.4936 N   0  0  0  0  0  0  0  0  0  0  0  0
   -2.2916   -0.7321   -1.9723 C   0  0  0  0  0  0  0  0  0  0  0  0
   -2.7836   -1.1539   -3.0118 O   0  0  0  0  0  0  0  0  0  0  0  0
   -3.0949    0.1991   -1.1293 C   0  0  0  0  0  0  0  0  0  0  0  0
   -2.9822    0.2143    0.2694 C   0  0  0  0  0  0  0  0  0  0  0  0
   -3.7503    1.1057    1.0232 C   0  0  0  0  0  0  0  0  0  0  0  0
   -4.6324    1.9753    0.3847 C   0  0  0  0  0  0  0  0  0  0  0  0
   -4.7778    1.9318   -1.0059 C   0  0  0  0  0  0  0  0  0  0  0  0
   -4.0054    1.0538   -1.7636 C   0  0  0  0  0  0  0  0  0  0  0  0
   -5.6554    2.7313   -1.6928 O   0  0  0  0  0  0  0  0  0  0  0  0
   -6.6248    3.3153   -0.8152 C   0  0  0  0  0  0  0  0  0  0  0  0
   -5.9509    3.8805    0.4241 C   0  0  0  0  0  0  0  0  0  0  0  0
   -5.3352    2.8362    1.1878 O   0  0  0  0  0  0  0  0  0  0  0  0
    1.4310   -1.8945    1.0443 C   0  0  0  0  0  0  0  0  0  0  0  0
    1.8933   -1.0355    2.2319 C   0  0  0  0  0  0  0  0  0  0  0  0
    4.9711    2.3290    3.7795 H   0  0  0  0  0  0  0  0  0  0  0  0
    4.6712    2.3163    2.0410 H   0  0  0  0  0  0  0  0  0  0  0  0
    6.3368    2.3563    2.6491 H   0  0  0  0  0  0  0  0  0  0  0  0
    6.0510    0.0877    3.6493 H   0  0  0  0  0  0  0  0  0  0  0  0
    5.8257    0.0333    1.9166 H   0  0  0  0  0  0  0  0  0  0  0  0
    4.2310    0.6640    0.4985 H   0  0  0  0  0  0  0  0  0  0  0  0
    4.1466   -1.0849    0.2775 H   0  0  0  0  0  0  0  0  0  0  0  0
    2.6891    0.1113   -1.3697 H   0  0  0  0  0  0  0  0  0  0  0  0
    1.8616    0.9314   -0.0573 H   0  0  0  0  0  0  0  0  0  0  0  0
    3.1834   -2.7357   -1.3315 H   0  0  0  0  0  0  0  0  0  0  0  0
    2.8401   -4.0963   -3.3530 H   0  0  0  0  0  0  0  0  0  0  0  0
   -1.1754   -2.6292   -3.7257 H   0  0  0  0  0  0  0  0  0  0  0  0
   -0.6835   -0.5080   -0.6777 H   0  0  0  0  0  0  0  0  0  0  0  0
   -2.3219   -0.4752    0.7883 H   0  0  0  0  0  0  0  0  0  0  0  0
   -3.6621    1.1232    2.1064 H   0  0  0  0  0  0  0  0  0  0  0  0
   -4.1190    1.0295   -2.8451 H   0  0  0  0  0  0  0  0  0  0  0  0
   -7.1336    4.1123   -1.3663 H   0  0  0  0  0  0  0  0  0  0  0  0
   -7.3674    2.5504   -0.5561 H   0  0  0  0  0  0  0  0  0  0  0  0
   -5.1827    4.6184    0.1618 H   0  0  0  0  0  0  0  0  0  0  0  0
   -6.6890    4.3700    1.0669 H   0  0  0  0  0  0  0  0  0  0  0  0
    2.1377   -2.7251    0.9194 H   0  0  0  0  0  0  0  0  0  0  0  0
    0.4465   -2.3217    1.2685 H   0  0  0  0  0  0  0  0  0  0  0  0
    1.9206   -1.6475    3.1398 H   0  0  0  0  0  0  0  0  0  0  0  0
    1.1864   -0.2147    2.4035 H   0  0  0  0  0  0  0  0  0  0  0  0
  1  2  1  0
  2  3  1  0
  3  4  2  0
  3  5  1  0
  5  6  1  0
  6  7  1  0
  7  8  1  0
  8  9  1  0
  9 10  2  0
 10 11  1  0
 11 12  2  0
 12 13  1  0
 12 14  1  0
 14 15  2  0
 15 16  1  0
 16 17  1  0
 17 18  2  0
 17 19  1  0
 19 20  2  0
 20 21  1  0
 21 22  2  0
 22 23  1  0
 23 24  2  0
 23 25  1  0
 25 26  1  0
 26 27  1  0
 27 28  1  0
  8 29  1  0
 29 30  1  0
 30  5  1  0
 15  9  1  0
 24 19  1  0
 28 22  1  0
  1 31  1  0
  1 32  1  0
  1 33  1  0
  2 34  1  0
  2 35  1  0
  6 36  1  0
  6 37  1  0
  7 38  1  0
  7 39  1  0
 10 40  1  0
 11 41  1  0
 14 42  1  0
 16 43  1  0
 20 44  1  0
 21 45  1  0
 24 46  1  0
 26 47  1  0
 26 48  1  0
 27 49  1  0
 27 50  1  0
 29 51  1  0
 29 52  1  0
 30 53  1  0
 30 54  1  0
M  END
$$$$
