
     RDKit          3D

 43 45  0  0  0  0  0  0  0  0999 V2000
   -4.0338   -2.8300   -1.5942 C   0  0  0  0  0  0  0  0  0  0  0  0
   -3.4830   -2.2088   -0.4381 O   0  0  0  0  0  0  0  0  0  0  0  0
   -3.2191   -0.8681   -0.5226 C   0  0  0  0  0  0  0  0  0  0  0  0
   -3.4263   -0.0540   -1.6350 C   0  0  0  0  0  0  0  0  0  0  0  0
   -3.0939    1.3083   -1.5902 C   0  0  0  0  0  0  0  0  0  0  0  0
   -2.5464    1.8858   -0.4366 C   0  0  0  0  0  0  0  0  0  0  0  0
   -2.2110    3.2039   -0.3439 O   0  0  0  0  0  0  0  0  0  0  0  0
   -2.4055    4.0384   -1.4830 C   0  0  0  0  0  0  0  0  0  0  0  0
   -2.3417    1.0612    0.6769 C   0  0  0  0  0  0  0  0  0  0  0  0
   -1.6542    1.6501    2.2112 S   0  0  0  0  0  6  0  0  0  0  0  0
   -1.2129    3.0234    2.1109 O   0  0  0  0  0  0  0  0  0  0  0  0
   -2.5692    1.2442    3.2610 O   0  0  0  0  0  0  0  0  0  0  0  0
   -0.2858    0.6787    2.4151 N   0  0  0  0  0  0  0  0  0  0  0  0
    0.6713    0.5116    1.3732 C   0  0  0  0  0  0  0  0  0  0  0  0
    1.1619    1.5822    0.6230 C   0  0  0  0  0  0  0  0  0  0  0  0
    2.1152    1.3577   -0.3725 C   0  0  0  0  0  0  0  0  0  0  0  0
    2.5984    0.0692   -0.5979 C   0  0  0  0  0  0  0  0  0  0  0  0
    3.5429   -0.0590   -1.5805 O   0  0  0  0  0  0  0  0  0  0  0  0
    2.1383   -1.0146    0.1653 C   0  0  0  0  0  0  0  0  0  0  0  0
    2.6840   -2.7004   -0.0892 S   0  0  0  0  0  0  0  0  0  0  0  0
    4.3461   -2.5944    0.4164 C   0  0  0  0  0  0  0  0  0  0  0  0
    4.8084   -3.0721    1.6106 N   0  0  0  0  0  0  0  0  0  0  0  0
    6.0836   -2.7704    1.5721 C   0  0  0  0  0  0  0  0  0  0  0  0
    6.3660   -2.1267    0.4086 N   0  0  0  0  0  0  0  0  0  0  0  0
    5.2650   -2.0008   -0.3564 N   0  0  0  0  0  0  0  0  0  0  0  0
    1.1718   -0.7774    1.1528 C   0  0  0  0  0  0  0  0  0  0  0  0
   -2.6891   -0.3036    0.6358 C   0  0  0  0  0  0  0  0  0  0  0  0
   -5.0413   -2.4442   -1.7922 H   0  0  0  0  0  0  0  0  0  0  0  0
   -3.3824   -2.7060   -2.4709 H   0  0  0  0  0  0  0  0  0  0  0  0
   -4.1157   -3.9037   -1.3894 H   0  0  0  0  0  0  0  0  0  0  0  0
   -3.8470   -0.4418   -2.5591 H   0  0  0  0  0  0  0  0  0  0  0  0
   -3.2803    1.8925   -2.4852 H   0  0  0  0  0  0  0  0  0  0  0  0
   -3.4667    4.0887   -1.7567 H   0  0  0  0  0  0  0  0  0  0  0  0
   -1.7878    3.7089   -2.3307 H   0  0  0  0  0  0  0  0  0  0  0  0
   -2.0909    5.0523   -1.2217 H   0  0  0  0  0  0  0  0  0  0  0  0
   -0.4625   -0.0983    3.0468 H   0  0  0  0  0  0  0  0  0  0  0  0
    0.8269    2.6028    0.8000 H   0  0  0  0  0  0  0  0  0  0  0  0
    2.4890    2.1888   -0.9684 H   0  0  0  0  0  0  0  0  0  0  0  0
    4.0466   -0.8819   -1.4057 H   0  0  0  0  0  0  0  0  0  0  0  0
    6.8228   -2.9883    2.3303 H   0  0  0  0  0  0  0  0  0  0  0  0
    7.2525   -1.7572    0.0797 H   0  0  0  0  0  0  0  0  0  0  0  0
    0.8039   -1.6110    1.7509 H   0  0  0  0  0  0  0  0  0  0  0  0
   -2.5479   -0.9360    1.5139 H   0  0  0  0  0  0  0  0  0  0  0  0
  1  2  1  0
  2  3  1  0
  3  4  2  0
  4  5  1  0
  5  6  2  0
  6  7  1  0
  7  8  1  0
  6  9  1  0
  9 10  1  0
 10 11  2  0
 10 12  2  0
 10 13  1  0
 13 14  1  0
 14 15  2  0
 15 16  1  0
 16 17  2  0
 17 18  1  0
 17 19  1  0
 19 20  1  0
 20 21  1  0
 21 22  1  0
 22 23  2  0
 23 24  1  0
 24 25  1  0
 19 26  2  0
  9 27  2  0
 27  3  1  0
 26 14  1  0
 25 21  2  0
  1 28  1  0
  1 29  1  0
  1 30  1  0
  4 31  1  0
  5 32  1  0
  8 33  1  0
  8 34  1  0
  8 35  1  0
 13 36  1  0
 15 37  1  0
 16 38  1  0
 18 39  1  0
 23 40  1  0
 24 41  1  0
 26 42  1  0
 27 43  1  0
M  END
$$$$
