
     RDKit          3D

 32 33  0  0  0  0  0  0  0  0999 V2000
   -5.1483    1.3012    0.8502 C   0  0  0  0  0  0  0  0  0  0  0  0
   -4.4245    0.3393   -0.0783 C   0  0  0  0  0  0  0  0  0  0  0  0
   -2.9448    0.2193    0.2830 C   0  0  0  0  0  0  0  0  0  0  0  0
   -2.2219   -0.7522   -0.6536 C   0  0  0  0  0  0  0  0  0  0  0  0
   -0.8033   -0.8724   -0.3202 N   0  0  0  0  0  0  0  0  0  0  0  0
   -0.3851   -1.7246    0.6529 C   0  0  0  0  0  0  0  0  0  0  0  0
   -1.0348   -2.4884    1.3370 O   0  0  0  0  0  0  0  0  0  0  0  0
    1.1226   -1.5273    0.7624 C   0  0  0  0  0  0  0  0  0  0  0  0
    1.8096   -2.1783    1.5257 O   0  0  0  0  0  0  0  0  0  0  0  0
    1.4389   -0.5593   -0.1592 N   0  0  0  0  0  0  0  0  0  0  0  0
    2.7850   -0.1328   -0.3770 C   0  0  0  0  0  0  0  0  0  0  0  0
    3.2511    0.2584   -1.6405 C   0  0  0  0  0  0  0  0  0  0  0  0
    4.5772    0.6643   -1.8340 C   0  0  0  0  0  0  0  0  0  0  0  0
    5.4686    0.6763   -0.7675 C   0  0  0  0  0  0  0  0  0  0  0  0
    5.0367    0.2730    0.4901 C   0  0  0  0  0  0  0  0  0  0  0  0
    3.7111   -0.1326    0.6806 C   0  0  0  0  0  0  0  0  0  0  0  0
    0.2657   -0.1192   -0.7872 C   0  0  0  0  0  0  0  0  0  0  0  0
    0.0804    1.1574   -1.8626 S   0  0  0  0  0  0  0  0  0  0  0  0
   -4.7140    2.3044    0.7918 H   0  0  0  0  0  0  0  0  0  0  0  0
   -6.2050    1.3719    0.5739 H   0  0  0  0  0  0  0  0  0  0  0  0
   -5.0908    0.9616    1.8893 H   0  0  0  0  0  0  0  0  0  0  0  0
   -4.5281    0.6905   -1.1115 H   0  0  0  0  0  0  0  0  0  0  0  0
   -4.9030   -0.6452   -0.0203 H   0  0  0  0  0  0  0  0  0  0  0  0
   -2.8448   -0.1242    1.3201 H   0  0  0  0  0  0  0  0  0  0  0  0
   -2.4725    1.2077    0.2361 H   0  0  0  0  0  0  0  0  0  0  0  0
   -2.6770   -1.7464   -0.5683 H   0  0  0  0  0  0  0  0  0  0  0  0
   -2.3287   -0.4325   -1.6950 H   0  0  0  0  0  0  0  0  0  0  0  0
    2.6194    0.2127   -2.5222 H   0  0  0  0  0  0  0  0  0  0  0  0
    4.9131    0.9596   -2.8253 H   0  0  0  0  0  0  0  0  0  0  0  0
    6.4985    0.9894   -0.9180 H   0  0  0  0  0  0  0  0  0  0  0  0
    5.7283    0.2717    1.3293 H   0  0  0  0  0  0  0  0  0  0  0  0
    3.4200   -0.4233    1.6879 H   0  0  0  0  0  0  0  0  0  0  0  0
  1  2  1  0
  2  3  1  0
  3  4  1  0
  4  5  1  0
  5  6  1  0
  6  7  2  0
  6  8  1  0
  8  9  2  0
  8 10  1  0
 10 11  1  0
 11 12  2  0
 12 13  1  0
 13 14  2  0
 14 15  1  0
 15 16  2  0
 10 17  1  0
 17 18  2  0
 17  5  1  0
 16 11  1  0
  1 19  1  0
  1 20  1  0
  1 21  1  0
  2 22  1  0
  2 23  1  0
  3 24  1  0
  3 25  1  0
  4 26  1  0
  4 27  1  0
 12 28  1  0
 13 29  1  0
 14 30  1  0
 15 31  1  0
 16 32  1  0
M  END
$$$$
