
     RDKit          3D

 55 58  0  0  0  0  0  0  0  0999 V2000
    2.9171   -0.3082   -2.3836 O   0  0  0  0  0  0  0  0  0  0  0  0
    2.2504   -1.1208   -1.7402 C   0  0  0  0  0  0  0  0  0  0  0  0
    1.4553   -2.2271   -2.4054 C   0  0  0  0  0  0  0  0  0  0  0  0
   -0.1923   -1.6278   -2.8722 S   0  0  0  0  0  0  0  0  0  0  0  0
   -1.0016   -1.6877   -1.3458 C   0  0  0  0  0  0  0  0  0  0  0  0
   -0.5694   -2.3201   -0.2822 N   0  0  0  0  0  0  0  0  0  0  0  0
   -1.4932   -2.1382    0.7138 N   0  0  0  0  0  0  0  0  0  0  0  0
   -2.4989   -1.4290    0.2260 C   0  0  0  0  0  0  0  0  0  0  0  0
   -3.7011   -1.0532    0.9625 C   0  0  0  0  0  0  0  0  0  0  0  0
   -3.5767   -0.2457    2.1025 C   0  0  0  0  0  0  0  0  0  0  0  0
   -4.7047    0.1234    2.8398 C   0  0  0  0  0  0  0  0  0  0  0  0
   -5.9677   -0.3222    2.4517 C   0  0  0  0  0  0  0  0  0  0  0  0
   -6.1067   -1.1388    1.3273 C   0  0  0  0  0  0  0  0  0  0  0  0
   -4.9768   -1.5031    0.5925 C   0  0  0  0  0  0  0  0  0  0  0  0
   -5.1213   -2.3124   -0.5043 O   0  0  0  0  0  0  0  0  0  0  0  0
   -2.1919   -1.0715   -1.0725 N   0  0  0  0  0  0  0  0  0  0  0  0
   -2.9556   -0.1892   -1.9331 C   0  0  0  0  0  0  0  0  0  0  0  0
   -2.8348    1.2569   -1.5163 C   0  0  0  0  0  0  0  0  0  0  0  0
   -1.6193    1.9457   -1.6480 C   0  0  0  0  0  0  0  0  0  0  0  0
   -1.5163    3.2801   -1.2583 C   0  0  0  0  0  0  0  0  0  0  0  0
   -2.6210    3.9480   -0.7359 C   0  0  0  0  0  0  0  0  0  0  0  0
   -3.8368    3.2782   -0.6072 C   0  0  0  0  0  0  0  0  0  0  0  0
   -3.9439    1.9404   -0.9947 C   0  0  0  0  0  0  0  0  0  0  0  0
    2.1547   -1.0908   -0.3609 N   0  0  0  0  0  0  0  0  0  0  0  0
    3.1469   -0.3842    0.3355 N   0  0  0  0  0  0  0  0  0  0  0  0
    4.1200   -1.1249    0.9789 C   0  0  0  0  0  0  0  0  0  0  0  0
    3.9785   -2.3206    1.2309 O   0  0  0  0  0  0  0  0  0  0  0  0
    5.3862   -0.4170    1.3438 C   0  0  0  0  0  0  0  0  0  0  0  0
    6.3712   -1.1688    2.0070 C   0  0  0  0  0  0  0  0  0  0  0  0
    7.5956   -0.5914    2.3571 C   0  0  0  0  0  0  0  0  0  0  0  0
    7.8467    0.7470    2.0598 C   0  0  0  0  0  0  0  0  0  0  0  0
    6.8787    1.5101    1.4049 C   0  0  0  0  0  0  0  0  0  0  0  0
    5.6573    0.9301    1.0444 C   0  0  0  0  0  0  0  0  0  0  0  0
    4.7362    1.7035    0.3863 O   0  0  0  0  0  0  0  0  0  0  0  0
    1.9897   -2.5252   -3.3141 H   0  0  0  0  0  0  0  0  0  0  0  0
    1.4016   -3.1141   -1.7662 H   0  0  0  0  0  0  0  0  0  0  0  0
   -2.5936    0.1011    2.4177 H   0  0  0  0  0  0  0  0  0  0  0  0
   -4.5931    0.7524    3.7199 H   0  0  0  0  0  0  0  0  0  0  0  0
   -6.8436   -0.0372    3.0295 H   0  0  0  0  0  0  0  0  0  0  0  0
   -7.0964   -1.4754    1.0371 H   0  0  0  0  0  0  0  0  0  0  0  0
   -5.9693   -2.7825   -0.4294 H   0  0  0  0  0  0  0  0  0  0  0  0
   -2.6225   -0.2980   -2.9700 H   0  0  0  0  0  0  0  0  0  0  0  0
   -3.9962   -0.5206   -1.9248 H   0  0  0  0  0  0  0  0  0  0  0  0
   -0.7380    1.4501   -2.0512 H   0  0  0  0  0  0  0  0  0  0  0  0
   -0.5668    3.8032   -1.3605 H   0  0  0  0  0  0  0  0  0  0  0  0
   -2.5404    4.9871   -0.4339 H   0  0  0  0  0  0  0  0  0  0  0  0
   -4.7010    3.7970   -0.2011 H   0  0  0  0  0  0  0  0  0  0  0  0
   -4.9031    1.4362   -0.8808 H   0  0  0  0  0  0  0  0  0  0  0  0
    1.7247   -1.8649    0.1521 H   0  0  0  0  0  0  0  0  0  0  0  0
    3.4017    0.5325   -0.0407 H   0  0  0  0  0  0  0  0  0  0  0  0
    6.1899   -2.2118    2.2496 H   0  0  0  0  0  0  0  0  0  0  0  0
    8.3497   -1.1901    2.8613 H   0  0  0  0  0  0  0  0  0  0  0  0
    8.7972    1.1923    2.3380 H   0  0  0  0  0  0  0  0  0  0  0  0
    7.0944    2.5517    1.1822 H   0  0  0  0  0  0  0  0  0  0  0  0
    5.1501    2.5453    0.1307 H   0  0  0  0  0  0  0  0  0  0  0  0
  1  2  2  0
  2  3  1  0
  3  4  1  0
  4  5  1  0
  5  6  2  0
  6  7  1  0
  7  8  2  0
  8  9  1  0
  9 10  2  0
 10 11  1  0
 11 12  2  0
 12 13  1  0
 13 14  2  0
 14 15  1  0
  8 16  1  0
 16 17  1  0
 17 18  1  0
 18 19  2  0
 19 20  1  0
 20 21  2  0
 21 22  1  0
 22 23  2  0
  2 24  1  0
 24 25  1  0
 25 26  1  0
 26 27  2  0
 26 28  1  0
 28 29  2  0
 29 30  1  0
 30 31  2  0
 31 32  1  0
 32 33  2  0
 33 34  1  0
 16  5  1  0
 23 18  1  0
 33 28  1  0
 14  9  1  0
  3 35  1  0
  3 36  1  0
 10 37  1  0
 11 38  1  0
 12 39  1  0
 13 40  1  0
 15 41  1  0
 17 42  1  0
 17 43  1  0
 19 44  1  0
 20 45  1  0
 21 46  1  0
 22 47  1  0
 23 48  1  0
 24 49  1  0
 25 50  1  0
 29 51  1  0
 30 52  1  0
 31 53  1  0
 32 54  1  0
 34 55  1  0
M  END
$$$$
