
     RDKit          3D

 40 41  0  0  0  0  0  0  0  0999 V2000
   -6.7446    1.5095   -0.7775 C   0  0  0  0  0  0  0  0  0  0  0  0
   -6.0093    1.0558    0.3526 O   0  0  0  0  0  0  0  0  0  0  0  0
   -4.6610    1.2822    0.3459 C   0  0  0  0  0  0  0  0  0  0  0  0
   -3.9409    1.9225   -0.6632 C   0  0  0  0  0  0  0  0  0  0  0  0
   -2.5557    2.0955   -0.5411 C   0  0  0  0  0  0  0  0  0  0  0  0
   -1.8806    1.6277    0.5936 C   0  0  0  0  0  0  0  0  0  0  0  0
   -0.4136    1.7944    0.7757 C   0  0  0  0  0  0  0  0  0  0  0  0
    0.2080    1.3541    1.7314 O   0  0  0  0  0  0  0  0  0  0  0  0
    0.1239    2.4953   -0.2518 O   0  0  0  0  0  0  0  0  0  0  0  0
    1.5271    2.7434   -0.1510 C   0  0  0  0  0  0  0  0  0  0  0  0
    2.3881    1.5281   -0.5020 C   0  0  0  0  0  0  0  0  0  0  0  0
    2.8521    1.3540   -1.6250 O   0  0  0  0  0  0  0  0  0  0  0  0
    2.5961    0.6601    0.5485 N   0  0  0  0  0  0  0  0  0  0  0  0
    3.3013   -0.5953    0.3736 C   0  0  0  0  0  0  0  0  0  0  0  0
    2.4141   -1.6923   -0.2267 C   0  0  0  0  0  0  0  0  0  0  0  0
    3.0946   -2.9738   -0.2912 N   0  0  0  0  0  0  0  0  0  0  0  0
    3.7893   -3.4127   -1.3907 C   0  0  0  0  0  0  0  0  0  0  0  0
    3.8110   -2.6382   -2.5085 O   0  0  0  0  0  0  0  0  0  0  0  0
    4.3943   -4.5952   -1.2305 C   0  0  0  0  0  0  0  0  0  0  0  0
    4.1252   -5.2285    0.3659 S   0  0  0  0  0  0  0  0  0  0  0  0
    3.1690   -3.8032    0.8161 C   0  0  0  0  0  0  0  0  0  0  0  0
    2.6989   -3.6247    1.9281 O   0  0  0  0  0  0  0  0  0  0  0  0
   -2.6042    0.9813    1.6016 C   0  0  0  0  0  0  0  0  0  0  0  0
   -3.9857    0.8121    1.4747 C   0  0  0  0  0  0  0  0  0  0  0  0
   -6.6774    2.5979   -0.8816 H   0  0  0  0  0  0  0  0  0  0  0  0
   -6.4168    1.0033   -1.6907 H   0  0  0  0  0  0  0  0  0  0  0  0
   -7.7959    1.2553   -0.6152 H   0  0  0  0  0  0  0  0  0  0  0  0
   -4.4247    2.3016   -1.5588 H   0  0  0  0  0  0  0  0  0  0  0  0
   -2.0199    2.5977   -1.3433 H   0  0  0  0  0  0  0  0  0  0  0  0
    1.7737    3.5439   -0.8584 H   0  0  0  0  0  0  0  0  0  0  0  0
    1.7893    3.1214    0.8455 H   0  0  0  0  0  0  0  0  0  0  0  0
    1.9616    0.7420    1.3453 H   0  0  0  0  0  0  0  0  0  0  0  0
    3.6650   -0.8925    1.3627 H   0  0  0  0  0  0  0  0  0  0  0  0
    4.1760   -0.4253   -0.2640 H   0  0  0  0  0  0  0  0  0  0  0  0
    2.0524   -1.4086   -1.2218 H   0  0  0  0  0  0  0  0  0  0  0  0
    1.5232   -1.8137    0.4025 H   0  0  0  0  0  0  0  0  0  0  0  0
    4.3500   -3.0797   -3.1857 H   0  0  0  0  0  0  0  0  0  0  0  0
    4.9880   -5.1150   -1.9683 H   0  0  0  0  0  0  0  0  0  0  0  0
   -2.1011    0.6083    2.4921 H   0  0  0  0  0  0  0  0  0  0  0  0
   -4.5409    0.3114    2.2649 H   0  0  0  0  0  0  0  0  0  0  0  0
  1  2  1  0
  2  3  1  0
  3  4  2  0
  4  5  1  0
  5  6  2  0
  6  7  1  0
  7  8  2  0
  7  9  1  0
  9 10  1  0
 10 11  1  0
 11 12  2  0
 11 13  1  0
 13 14  1  0
 14 15  1  0
 15 16  1  0
 16 17  1  0
 17 18  1  0
 17 19  2  0
 19 20  1  0
 20 21  1  0
 21 22  2  0
  6 23  1  0
 23 24  2  0
 24  3  1  0
 21 16  1  0
  1 25  1  0
  1 26  1  0
  1 27  1  0
  4 28  1  0
  5 29  1  0
 10 30  1  0
 10 31  1  0
 13 32  1  0
 14 33  1  0
 14 34  1  0
 15 35  1  0
 15 36  1  0
 18 37  1  0
 19 38  1  0
 23 39  1  0
 24 40  1  0
M  END
$$$$
