
     RDKit          3D

 23 24  0  0  0  0  0  0  0  0999 V2000
    4.9640   -0.0965    0.8447 O   0  0  0  0  0  0  0  0  0  0  0  0
    4.3783    0.8655    1.6705 N   0  0  0  0  0  0  0  0  0  0  0  0
    3.0850    0.9460    1.5329 C   0  0  0  0  0  0  0  0  0  0  0  0
    2.2060    0.2002    0.6694 C   0  0  0  0  0  0  0  0  0  0  0  0
    2.3795   -0.7924   -0.2746 C   0  0  0  0  0  0  0  0  0  0  0  0
    1.0955   -1.1105   -0.7833 C   0  0  0  0  0  0  0  0  0  0  0  0
    0.1972   -0.2930   -0.1312 C   0  0  0  0  0  0  0  0  0  0  0  0
   -1.2509   -0.1041   -0.1664 C   0  0  0  0  0  0  0  0  0  0  0  0
   -1.9255    0.1224    1.0495 C   0  0  0  0  0  0  0  0  0  0  0  0
   -3.3095    0.2951    1.0818 C   0  0  0  0  0  0  0  0  0  0  0  0
   -4.1030    0.5642    2.5840 Cl  0  0  0  0  0  0  0  0  0  0  0  0
   -4.0527    0.2484   -0.0922 C   0  0  0  0  0  0  0  0  0  0  0  0
   -3.4037    0.0315   -1.3074 C   0  0  0  0  0  0  0  0  0  0  0  0
   -2.0127   -0.1425   -1.3492 C   0  0  0  0  0  0  0  0  0  0  0  0
   -1.3107   -0.3582   -2.9163 Cl  0  0  0  0  0  0  0  0  0  0  0  0
    0.8704    0.4968    0.7581 O   0  0  0  0  0  0  0  0  0  0  0  0
    5.9100   -0.0184    1.0707 H   0  0  0  0  0  0  0  0  0  0  0  0
    2.5854    1.6949    2.1713 H   0  0  0  0  0  0  0  0  0  0  0  0
    3.3183   -1.2409   -0.5666 H   0  0  0  0  0  0  0  0  0  0  0  0
    0.8622   -1.8544   -1.5323 H   0  0  0  0  0  0  0  0  0  0  0  0
   -1.3642    0.1568    1.9819 H   0  0  0  0  0  0  0  0  0  0  0  0
   -5.1310    0.3836   -0.0705 H   0  0  0  0  0  0  0  0  0  0  0  0
   -3.9878    0.0056   -2.2249 H   0  0  0  0  0  0  0  0  0  0  0  0
  1  2  1  0
  2  3  2  3
  3  4  1  0
  4  5  2  0
  5  6  1  0
  6  7  2  0
  7  8  1  0
  8  9  2  0
  9 10  1  0
 10 11  1  0
 10 12  2  0
 12 13  1  0
 13 14  2  0
 14 15  1  0
  7 16  1  0
 16  4  1  0
 14  8  1  0
  1 17  1  0
  3 18  1  0
  5 19  1  0
  6 20  1  0
  9 21  1  0
 12 22  1  0
 13 23  1  0
M  END
$$$$
