
     RDKit          3D

 33 34  0  0  0  0  0  0  0  0999 V2000
   -6.5671    1.0591   -0.0572 N   0  0  0  0  0  0  0  0  0  0  0  0
   -5.2259    0.7917    0.2338 C   0  0  0  0  0  0  0  0  0  0  0  0
   -4.5093    1.6345    1.0863 C   0  0  0  0  0  0  0  0  0  0  0  0
   -3.1381    1.4473    1.2902 C   0  0  0  0  0  0  0  0  0  0  0  0
   -2.4540    0.4356    0.6064 C   0  0  0  0  0  0  0  0  0  0  0  0
   -0.9952    0.2792    0.8554 C   0  0  0  0  0  0  0  0  0  0  0  0
   -0.3660    0.9753    1.6364 O   0  0  0  0  0  0  0  0  0  0  0  0
   -0.4857   -0.7245    0.0981 O   0  0  0  0  0  0  0  0  0  0  0  0
    0.9202   -0.9746    0.2679 C   0  0  0  0  0  0  0  0  0  0  0  0
    1.7416   -0.0203   -0.5974 C   0  0  0  0  0  0  0  0  0  0  0  0
    3.2188   -0.2959   -0.4928 C   0  0  0  0  0  0  0  0  0  0  0  0
    3.8568   -1.1307   -1.4193 C   0  0  0  0  0  0  0  0  0  0  0  0
    5.2220   -1.3983   -1.3052 C   0  0  0  0  0  0  0  0  0  0  0  0
    5.9592   -0.8380   -0.2636 C   0  0  0  0  0  0  0  0  0  0  0  0
    5.3324   -0.0101    0.6659 C   0  0  0  0  0  0  0  0  0  0  0  0
    3.9677    0.2590    0.5537 C   0  0  0  0  0  0  0  0  0  0  0  0
   -3.1566   -0.3734   -0.2939 C   0  0  0  0  0  0  0  0  0  0  0  0
   -4.5287   -0.1786   -0.4904 C   0  0  0  0  0  0  0  0  0  0  0  0
   -7.0813    0.2598   -0.4141 H   0  0  0  0  0  0  0  0  0  0  0  0
   -7.0652    1.5350    0.6888 H   0  0  0  0  0  0  0  0  0  0  0  0
   -5.0124    2.4478    1.6031 H   0  0  0  0  0  0  0  0  0  0  0  0
   -2.6060    2.1051    1.9749 H   0  0  0  0  0  0  0  0  0  0  0  0
    1.0944   -2.0114   -0.0426 H   0  0  0  0  0  0  0  0  0  0  0  0
    1.1991   -0.9166    1.3276 H   0  0  0  0  0  0  0  0  0  0  0  0
    1.4153   -0.0964   -1.6427 H   0  0  0  0  0  0  0  0  0  0  0  0
    1.5412    1.0219   -0.3195 H   0  0  0  0  0  0  0  0  0  0  0  0
    3.2953   -1.5770   -2.2369 H   0  0  0  0  0  0  0  0  0  0  0  0
    5.7108   -2.0445   -2.0296 H   0  0  0  0  0  0  0  0  0  0  0  0
    7.0221   -1.0464   -0.1758 H   0  0  0  0  0  0  0  0  0  0  0  0
    5.9059    0.4267    1.4792 H   0  0  0  0  0  0  0  0  0  0  0  0
    3.4900    0.9055    1.2877 H   0  0  0  0  0  0  0  0  0  0  0  0
   -2.6517   -1.1510   -0.8612 H   0  0  0  0  0  0  0  0  0  0  0  0
   -5.0496   -0.7957   -1.2183 H   0  0  0  0  0  0  0  0  0  0  0  0
  1  2  1  0
  2  3  2  0
  3  4  1  0
  4  5  2  0
  5  6  1  0
  6  7  2  0
  6  8  1  0
  8  9  1  0
  9 10  1  0
 10 11  1  0
 11 12  2  0
 12 13  1  0
 13 14  2  0
 14 15  1  0
 15 16  2  0
  5 17  1  0
 17 18  2  0
 18  2  1  0
 16 11  1  0
  1 19  1  0
  1 20  1  0
  3 21  1  0
  4 22  1  0
  9 23  1  0
  9 24  1  0
 10 25  1  0
 10 26  1  0
 12 27  1  0
 13 28  1  0
 14 29  1  0
 15 30  1  0
 16 31  1  0
 17 32  1  0
 18 33  1  0
M  END
$$$$
