
     RDKit          3D

 64 69  0  0  0  0  0  0  0  0999 V2000
   -4.5100    2.8613    5.1564 C   0  0  0  0  0  0  0  0  0  0  0  0
   -4.2089    3.2385    3.8182 O   0  0  0  0  0  0  0  0  0  0  0  0
   -4.1292    2.2315    2.8967 C   0  0  0  0  0  0  0  0  0  0  0  0
   -3.9143    2.6571    1.5844 C   0  0  0  0  0  0  0  0  0  0  0  0
   -3.8192    1.7323    0.5406 C   0  0  0  0  0  0  0  0  0  0  0  0
   -3.9305    0.3603    0.7950 C   0  0  0  0  0  0  0  0  0  0  0  0
   -3.8168   -0.6136   -0.2999 C   0  0  0  0  0  0  0  0  0  0  0  0
   -5.1518   -1.6376   -0.6189 S   0  0  0  0  0  0  0  0  0  0  0  0
   -4.3625   -2.4240   -1.9271 C   0  0  0  0  0  0  0  0  0  0  0  0
   -4.8953   -3.4622   -2.7233 C   0  0  0  0  0  0  0  0  0  0  0  0
   -4.0800   -3.9579   -3.7200 C   0  0  0  0  0  0  0  0  0  0  0  0
   -2.8168   -3.4791   -3.9357 C   0  0  0  0  0  0  0  0  0  0  0  0
   -2.2774   -2.4627   -3.1719 C   0  0  0  0  0  0  0  0  0  0  0  0
   -3.0738   -1.9064   -2.1315 C   0  0  0  0  0  0  0  0  0  0  0  0
   -2.7776   -0.8465   -1.1893 C   0  0  0  0  0  0  0  0  0  0  0  0
   -1.5318   -0.0878   -1.1397 C   0  0  0  0  0  0  0  0  0  0  0  0
   -1.2258    0.8175   -2.1586 C   0  0  0  0  0  0  0  0  0  0  0  0
   -0.0282    1.5340   -2.1171 C   0  0  0  0  0  0  0  0  0  0  0  0
    0.8789    1.3510   -1.0705 C   0  0  0  0  0  0  0  0  0  0  0  0
    2.0094    2.1121   -1.1676 O   0  0  0  0  0  0  0  0  0  0  0  0
    3.0693    1.8996   -0.2303 C   0  0  0  0  0  0  0  0  0  0  0  0
    3.9449    0.7045   -0.6506 C   0  0  0  0  0  0  0  0  0  0  0  0
    5.1117    0.3838    0.1870 N   0  0  0  0  0  0  0  0  0  0  0  0
    4.7416   -0.0338    1.5433 C   0  0  0  0  0  0  0  0  0  0  0  0
    5.9670   -0.5380    2.3083 C   0  0  0  0  0  0  0  0  0  0  0  0
    7.0753    0.5092    2.3337 C   0  0  0  0  0  0  0  0  0  0  0  0
    7.3840    0.9980    0.9216 C   0  0  0  0  0  0  0  0  0  0  0  0
    6.1137    1.4547    0.2011 C   0  0  0  0  0  0  0  0  0  0  0  0
    0.5725    0.4465   -0.0541 C   0  0  0  0  0  0  0  0  0  0  0  0
   -0.6285   -0.2717   -0.0888 C   0  0  0  0  0  0  0  0  0  0  0  0
   -2.1864   -4.1124   -4.9616 O   0  0  0  0  0  0  0  0  0  0  0  0
   -3.2064   -5.0463   -5.3701 C   0  0  0  0  0  0  0  0  0  0  0  0
   -4.4133   -4.9543   -4.5852 O   0  0  0  0  0  0  0  0  0  0  0  0
   -4.1366   -0.0622    2.1158 C   0  0  0  0  0  0  0  0  0  0  0  0
   -4.2386    0.8661    3.1599 C   0  0  0  0  0  0  0  0  0  0  0  0
   -4.5891    3.7771    5.7499 H   0  0  0  0  0  0  0  0  0  0  0  0
   -5.4735    2.3427    5.2147 H   0  0  0  0  0  0  0  0  0  0  0  0
   -3.7045    2.2544    5.5845 H   0  0  0  0  0  0  0  0  0  0  0  0
   -3.8222    3.7197    1.3703 H   0  0  0  0  0  0  0  0  0  0  0  0
   -3.6590    2.0954   -0.4717 H   0  0  0  0  0  0  0  0  0  0  0  0
   -5.8935   -3.8517   -2.5584 H   0  0  0  0  0  0  0  0  0  0  0  0
   -1.2704   -2.1048   -3.3621 H   0  0  0  0  0  0  0  0  0  0  0  0
   -1.9130    0.9730   -2.9859 H   0  0  0  0  0  0  0  0  0  0  0  0
    0.2035    2.2378   -2.9117 H   0  0  0  0  0  0  0  0  0  0  0  0
    2.6908    1.8248    0.7943 H   0  0  0  0  0  0  0  0  0  0  0  0
    3.6722    2.8141   -0.2584 H   0  0  0  0  0  0  0  0  0  0  0  0
    3.3227   -0.1949   -0.7322 H   0  0  0  0  0  0  0  0  0  0  0  0
    4.2875    0.8745   -1.6805 H   0  0  0  0  0  0  0  0  0  0  0  0
    4.0075   -0.8468    1.4984 H   0  0  0  0  0  0  0  0  0  0  0  0
    4.2824    0.7912    2.1009 H   0  0  0  0  0  0  0  0  0  0  0  0
    6.3430   -1.4546    1.8369 H   0  0  0  0  0  0  0  0  0  0  0  0
    5.6817   -0.8003    3.3338 H   0  0  0  0  0  0  0  0  0  0  0  0
    7.9774    0.0901    2.7924 H   0  0  0  0  0  0  0  0  0  0  0  0
    6.7620    1.3581    2.9528 H   0  0  0  0  0  0  0  0  0  0  0  0
    7.8604    0.1910    0.3508 H   0  0  0  0  0  0  0  0  0  0  0  0
    8.1028    1.8246    0.9667 H   0  0  0  0  0  0  0  0  0  0  0  0
    6.3841    1.7307   -0.8256 H   0  0  0  0  0  0  0  0  0  0  0  0
    5.7260    2.3556    0.6916 H   0  0  0  0  0  0  0  0  0  0  0  0
    1.2400    0.2674    0.7811 H   0  0  0  0  0  0  0  0  0  0  0  0
   -0.8501   -0.9751    0.7102 H   0  0  0  0  0  0  0  0  0  0  0  0
   -2.8076   -6.0628   -5.2812 H   0  0  0  0  0  0  0  0  0  0  0  0
   -3.4543   -4.8559   -6.4206 H   0  0  0  0  0  0  0  0  0  0  0  0
   -4.2154   -1.1233    2.3460 H   0  0  0  0  0  0  0  0  0  0  0  0
   -4.3998    0.4862    4.1630 H   0  0  0  0  0  0  0  0  0  0  0  0
  1  2  1  0
  2  3  1  0
  3  4  2  0
  4  5  1  0
  5  6  2  0
  6  7  1  0
  7  8  1  0
  8  9  1  0
  9 10  2  0
 10 11  1  0
 11 12  2  0
 12 13  1  0
 13 14  2  0
 14 15  1  0
 15 16  1  0
 16 17  2  0
 17 18  1  0
 18 19  2  0
 19 20  1  0
 20 21  1  0
 21 22  1  0
 22 23  1  0
 23 24  1  0
 24 25  1  0
 25 26  1  0
 26 27  1  0
 27 28  1  0
 19 29  1  0
 29 30  2  0
 12 31  1  0
 31 32  1  0
 32 33  1  0
  6 34  1  0
 34 35  2  0
 35  3  1  0
 15  7  2  0
 30 16  1  0
 14  9  1  0
 28 23  1  0
 33 11  1  0
  1 36  1  0
  1 37  1  0
  1 38  1  0
  4 39  1  0
  5 40  1  0
 10 41  1  0
 13 42  1  0
 17 43  1  0
 18 44  1  0
 21 45  1  0
 21 46  1  0
 22 47  1  0
 22 48  1  0
 24 49  1  0
 24 50  1  0
 25 51  1  0
 25 52  1  0
 26 53  1  0
 26 54  1  0
 27 55  1  0
 27 56  1  0
 28 57  1  0
 28 58  1  0
 29 59  1  0
 30 60  1  0
 32 61  1  0
 32 62  1  0
 34 63  1  0
 35 64  1  0
M  END
$$$$
