
     RDKit          3D

 55 58  0  0  0  0  0  0  0  0999 V2000
    4.9295   -0.6928    1.5561 C   0  0  0  0  0  0  0  0  0  0  0  0
    4.3508   -1.8076    0.8507 N   0  0  0  0  0  0  0  0  0  0  0  0
    5.0257   -2.8305    0.2214 C   0  0  0  0  0  0  0  0  0  0  0  0
    6.5112   -2.9729    0.1376 C   0  0  0  0  0  0  0  0  0  0  0  0
    7.1942   -1.8691   -0.6420 C   0  0  0  0  0  0  0  0  0  0  0  0
    8.2835   -1.1803   -0.0885 C   0  0  0  0  0  0  0  0  0  0  0  0
    8.9243   -0.1703   -0.8086 C   0  0  0  0  0  0  0  0  0  0  0  0
    8.4909    0.1550   -2.0925 C   0  0  0  0  0  0  0  0  0  0  0  0
    7.4195   -0.5312   -2.6597 C   0  0  0  0  0  0  0  0  0  0  0  0
    6.7780   -1.5424   -1.9425 C   0  0  0  0  0  0  0  0  0  0  0  0
    4.1435   -3.6636   -0.2981 N   0  0  0  0  0  0  0  0  0  0  0  0
    2.8877   -3.1824   -0.0286 N   0  0  0  0  0  0  0  0  0  0  0  0
    3.0251   -2.0670    0.6469 C   0  0  0  0  0  0  0  0  0  0  0  0
    1.7423   -1.0451    1.1870 S   0  0  0  0  0  0  0  0  0  0  0  0
    0.3432   -2.1937    1.0333 C   0  0  0  0  0  0  0  0  0  0  0  0
   -0.9395   -1.4690    1.4047 C   0  0  0  0  0  0  0  0  0  0  0  0
   -1.3828   -1.5183    2.5487 O   0  0  0  0  0  0  0  0  0  0  0  0
   -1.4987   -0.7876    0.3330 N   0  0  0  0  0  0  0  0  0  0  0  0
   -2.6878   -0.0311    0.3204 C   0  0  0  0  0  0  0  0  0  0  0  0
   -3.0489    0.5758   -0.8841 C   0  0  0  0  0  0  0  0  0  0  0  0
   -4.2210    1.3382   -0.9770 C   0  0  0  0  0  0  0  0  0  0  0  0
   -5.0742    1.5200    0.1220 C   0  0  0  0  0  0  0  0  0  0  0  0
   -6.2285    2.3057   -0.0206 N   0  0  0  0  0  0  0  0  0  0  0  0
   -7.1933    1.7752   -1.0168 C   0  0  0  0  0  0  0  0  0  0  0  0
   -8.2983    2.8120   -1.2812 C   0  0  0  0  0  0  0  0  0  0  0  0
   -8.9633    3.2053   -0.0699 O   0  0  0  0  0  0  0  0  0  0  0  0
   -8.0144    3.7730    0.8481 C   0  0  0  0  0  0  0  0  0  0  0  0
   -6.9126    2.7636    1.2091 C   0  0  0  0  0  0  0  0  0  0  0  0
   -4.6866    0.9172    1.3253 C   0  0  0  0  0  0  0  0  0  0  0  0
   -3.5167    0.1460    1.4239 C   0  0  0  0  0  0  0  0  0  0  0  0
    4.2976   -0.4247    2.4060 H   0  0  0  0  0  0  0  0  0  0  0  0
    5.9135   -0.9674    1.9427 H   0  0  0  0  0  0  0  0  0  0  0  0
    5.0139    0.1470    0.8617 H   0  0  0  0  0  0  0  0  0  0  0  0
    6.7597   -3.9284   -0.3420 H   0  0  0  0  0  0  0  0  0  0  0  0
    6.9166   -3.0299    1.1559 H   0  0  0  0  0  0  0  0  0  0  0  0
    8.6461   -1.4261    0.9075 H   0  0  0  0  0  0  0  0  0  0  0  0
    9.7685    0.3579   -0.3717 H   0  0  0  0  0  0  0  0  0  0  0  0
    8.9934    0.9386   -2.6546 H   0  0  0  0  0  0  0  0  0  0  0  0
    7.0868   -0.2856   -3.6660 H   0  0  0  0  0  0  0  0  0  0  0  0
    5.9490   -2.0761   -2.4062 H   0  0  0  0  0  0  0  0  0  0  0  0
    0.2644   -2.5796    0.0112 H   0  0  0  0  0  0  0  0  0  0  0  0
    0.4718   -3.0459    1.7086 H   0  0  0  0  0  0  0  0  0  0  0  0
   -0.9824   -0.8115   -0.5383 H   0  0  0  0  0  0  0  0  0  0  0  0
   -2.4281    0.4757   -1.7705 H   0  0  0  0  0  0  0  0  0  0  0  0
   -4.4509    1.8206   -1.9243 H   0  0  0  0  0  0  0  0  0  0  0  0
   -7.6444    0.8557   -0.6225 H   0  0  0  0  0  0  0  0  0  0  0  0
   -6.7121    1.5384   -1.9715 H   0  0  0  0  0  0  0  0  0  0  0  0
   -7.8893    3.7058   -1.7671 H   0  0  0  0  0  0  0  0  0  0  0  0
   -9.0532    2.3858   -1.9494 H   0  0  0  0  0  0  0  0  0  0  0  0
   -8.5606    4.0645    1.7509 H   0  0  0  0  0  0  0  0  0  0  0  0
   -7.5890    4.6817    0.4054 H   0  0  0  0  0  0  0  0  0  0  0  0
   -6.2028    3.2496    1.8887 H   0  0  0  0  0  0  0  0  0  0  0  0
   -7.3715    1.9070    1.7194 H   0  0  0  0  0  0  0  0  0  0  0  0
   -5.2913    1.0126    2.2223 H   0  0  0  0  0  0  0  0  0  0  0  0
   -3.2882   -0.2978    2.3877 H   0  0  0  0  0  0  0  0  0  0  0  0
  1  2  1  0
  2  3  1  0
  3  4  1  0
  4  5  1  0
  5  6  2  0
  6  7  1  0
  7  8  2  0
  8  9  1  0
  9 10  2  0
  3 11  2  0
 11 12  1  0
 12 13  2  0
 13 14  1  0
 14 15  1  0
 15 16  1  0
 16 17  2  0
 16 18  1  0
 18 19  1  0
 19 20  2  0
 20 21  1  0
 21 22  2  0
 22 23  1  0
 23 24  1  0
 24 25  1  0
 25 26  1  0
 26 27  1  0
 27 28  1  0
 22 29  1  0
 29 30  2  0
 13  2  1  0
 30 19  1  0
 10  5  1  0
 28 23  1  0
  1 31  1  0
  1 32  1  0
  1 33  1  0
  4 34  1  0
  4 35  1  0
  6 36  1  0
  7 37  1  0
  8 38  1  0
  9 39  1  0
 10 40  1  0
 15 41  1  0
 15 42  1  0
 18 43  1  0
 20 44  1  0
 21 45  1  0
 24 46  1  0
 24 47  1  0
 25 48  1  0
 25 49  1  0
 27 50  1  0
 27 51  1  0
 28 52  1  0
 28 53  1  0
 29 54  1  0
 30 55  1  0
M  END
$$$$
