
     RDKit          3D

 36 38  0  0  0  0  0  0  0  0999 V2000
   -5.9078   -0.9647   -0.9374 C   0  0  0  0  0  0  0  0  0  0  0  0
   -5.2450   -0.4147    0.2438 N   0  0  0  0  0  0  0  0  0  0  0  0
   -6.0572    0.4854    1.0605 C   0  0  0  0  0  0  0  0  0  0  0  0
   -3.8553   -0.2444    0.2229 C   0  0  0  0  0  0  0  0  0  0  0  0
   -3.0374   -0.8827   -0.7258 C   0  0  0  0  0  0  0  0  0  0  0  0
   -1.6411   -0.7316   -0.7408 C   0  0  0  0  0  0  0  0  0  0  0  0
   -1.0003    0.0555    0.2146 C   0  0  0  0  0  0  0  0  0  0  0  0
    0.4524    0.2659    0.2237 C   0  0  0  0  0  0  0  0  0  0  0  0
    1.3497   -0.6982   -0.0399 C   0  0  0  0  0  0  0  0  0  0  0  0
    2.7480   -0.4232    0.0005 C   0  0  0  0  0  0  0  0  0  0  0  0
    3.3204    0.7329    0.2752 N   0  0  0  0  0  0  0  0  0  0  0  0
    4.6992    0.6264    0.2212 C   0  0  0  0  0  0  0  0  0  0  0  0
    5.6185    1.6681    0.4608 C   0  0  0  0  0  0  0  0  0  0  0  0
    6.9919    1.4188    0.3716 C   0  0  0  0  0  0  0  0  0  0  0  0
    7.4570    0.1483    0.0477 C   0  0  0  0  0  0  0  0  0  0  0  0
    6.5650   -0.9012   -0.1945 C   0  0  0  0  0  0  0  0  0  0  0  0
    5.1878   -0.6382   -0.1019 C   0  0  0  0  0  0  0  0  0  0  0  0
    3.8610   -1.7041   -0.3397 S   0  0  0  0  0  0  0  0  0  0  0  0
   -1.7870    0.7016    1.1662 C   0  0  0  0  0  0  0  0  0  0  0  0
   -3.1822    0.5425    1.1732 C   0  0  0  0  0  0  0  0  0  0  0  0
   -5.7301   -0.3366   -1.8174 H   0  0  0  0  0  0  0  0  0  0  0  0
   -5.5727   -1.9875   -1.1403 H   0  0  0  0  0  0  0  0  0  0  0  0
   -6.9921   -1.0289   -0.7914 H   0  0  0  0  0  0  0  0  0  0  0  0
   -7.1223    0.2388    0.9839 H   0  0  0  0  0  0  0  0  0  0  0  0
   -5.8052    0.3938    2.1225 H   0  0  0  0  0  0  0  0  0  0  0  0
   -5.9351    1.5260    0.7404 H   0  0  0  0  0  0  0  0  0  0  0  0
   -3.4650   -1.5228   -1.4912 H   0  0  0  0  0  0  0  0  0  0  0  0
   -1.0737   -1.2352   -1.5192 H   0  0  0  0  0  0  0  0  0  0  0  0
    0.7830    1.2698    0.4868 H   0  0  0  0  0  0  0  0  0  0  0  0
    1.0255   -1.7074   -0.2737 H   0  0  0  0  0  0  0  0  0  0  0  0
    5.2499    2.6574    0.7131 H   0  0  0  0  0  0  0  0  0  0  0  0
    7.6974    2.2254    0.5572 H   0  0  0  0  0  0  0  0  0  0  0  0
    8.5279   -0.0329   -0.0185 H   0  0  0  0  0  0  0  0  0  0  0  0
    6.9288   -1.8924   -0.4471 H   0  0  0  0  0  0  0  0  0  0  0  0
   -1.3281    1.3293    1.9270 H   0  0  0  0  0  0  0  0  0  0  0  0
   -3.7258    1.0607    1.9570 H   0  0  0  0  0  0  0  0  0  0  0  0
  1  2  1  0
  2  3  1  0
  2  4  1  0
  4  5  2  0
  5  6  1  0
  6  7  2  0
  7  8  1  0
  8  9  2  3
  9 10  1  0
 10 11  2  0
 11 12  1  0
 12 13  2  0
 13 14  1  0
 14 15  2  0
 15 16  1  0
 16 17  2  0
 17 18  1  0
  7 19  1  0
 19 20  2  0
 20  4  1  0
 18 10  1  0
 17 12  1  0
  1 21  1  0
  1 22  1  0
  1 23  1  0
  3 24  1  0
  3 25  1  0
  3 26  1  0
  5 27  1  0
  6 28  1  0
  8 29  1  0
  9 30  1  0
 13 31  1  0
 14 32  1  0
 15 33  1  0
 16 34  1  0
 19 35  1  0
 20 36  1  0
M  END
$$$$
