
     RDKit          3D

 67 72  0  0  0  0  0  0  0  0999 V2000
   -4.5957   -4.6610    1.4052 C   0  0  0  0  0  0  0  0  0  0  0  0
   -3.5138   -3.6344    1.5619 C   0  0  0  0  0  0  0  0  0  0  0  0
   -3.0539   -3.2265    2.8281 C   0  0  0  0  0  0  0  0  0  0  0  0
   -3.6999   -3.9092    4.2817 Cl  0  0  0  0  0  0  0  0  0  0  0  0
   -2.0588   -2.2387    2.9703 C   0  0  0  0  0  0  0  0  0  0  0  0
   -1.4991   -1.6205    1.8520 C   0  0  0  0  0  0  0  0  0  0  0  0
   -1.9478   -2.0068    0.5973 C   0  0  0  0  0  0  0  0  0  0  0  0
   -2.9434   -2.9891    0.4700 C   0  0  0  0  0  0  0  0  0  0  0  0
   -3.2496   -3.1755   -0.8763 N   0  0  0  0  0  0  0  0  0  0  0  0
   -2.5050   -2.3322   -1.7047 C   0  0  0  0  0  0  0  0  0  0  0  0
   -2.6131   -2.2943   -2.9223 O   0  0  0  0  0  0  0  0  0  0  0  0
   -1.5581   -1.5218   -0.7797 C   0  0  1  0  0  0  0  0  0  0  0  0
   -1.7868   -0.0621   -0.8133 C   0  0  0  0  0  0  0  0  0  0  0  0
   -0.6075    0.6223   -1.1042 C   0  0  0  0  0  0  0  0  0  0  0  0
   -0.8626    1.9656   -1.1203 C   0  0  0  0  0  0  0  0  0  0  0  0
   -0.0272    2.9520   -1.4416 O   0  0  0  0  0  0  0  0  0  0  0  0
   -2.2284    2.1257   -0.8184 N   0  0  0  0  0  0  0  0  0  0  0  0
   -2.9262    3.3661   -0.7361 C   0  0  0  0  0  0  0  0  0  0  0  0
   -2.3108    4.4819   -0.1484 C   0  0  0  0  0  0  0  0  0  0  0  0
   -2.9994    5.6942   -0.0730 C   0  0  0  0  0  0  0  0  0  0  0  0
   -4.2888    5.7873   -0.5856 C   0  0  0  0  0  0  0  0  0  0  0  0
   -4.9444    6.9527   -0.5122 F   0  0  0  0  0  0  0  0  0  0  0  0
   -4.9081    4.6890   -1.1718 C   0  0  0  0  0  0  0  0  0  0  0  0
   -4.2294    3.4712   -1.2468 C   0  0  0  0  0  0  0  0  0  0  0  0
   -2.7898    0.8504   -0.6171 C   0  0  0  0  0  0  0  0  0  0  0  0
   -4.0466    0.6202   -0.2392 O   0  0  0  0  0  0  0  0  0  0  0  0
    0.5150   -0.3009   -1.3675 C   0  0  1  0  0  0  0  0  0  0  0  0
    1.7418   -0.0847   -0.4635 C   0  0  0  0  0  0  0  0  0  0  0  0
    2.7074   -1.1881   -0.5573 N   0  0  0  0  0  0  0  0  0  0  0  0
    4.0567   -1.0390   -0.3112 C   0  0  0  0  0  0  0  0  0  0  0  0
    4.8662   -1.9506   -0.4189 O   0  0  0  0  0  0  0  0  0  0  0  0
    4.3676    0.2272    0.0669 O   0  0  0  0  0  0  0  0  0  0  0  0
    5.7381    0.6097    0.3503 C   0  0  0  0  0  0  0  0  0  0  0  0
    6.6399    0.4215   -0.8763 C   0  0  0  0  0  0  0  0  0  0  0  0
    6.2742   -0.1320    1.5792 C   0  0  0  0  0  0  0  0  0  0  0  0
    5.6646    2.1108    0.6739 C   0  0  0  0  0  0  0  0  0  0  0  0
    2.1874   -2.5016   -0.9423 C   0  0  0  0  0  0  0  0  0  0  0  0
    0.6993   -2.6626   -0.5787 C   0  0  0  0  0  0  0  0  0  0  0  0
   -0.1334   -1.6479   -1.2175 N   0  0  0  0  0  0  0  0  0  0  0  0
   -5.5652   -4.2229    1.6612 H   0  0  0  0  0  0  0  0  0  0  0  0
   -4.4089   -5.5292    2.0451 H   0  0  0  0  0  0  0  0  0  0  0  0
   -4.6556   -5.0450    0.3822 H   0  0  0  0  0  0  0  0  0  0  0  0
   -1.7234   -1.9445    3.9626 H   0  0  0  0  0  0  0  0  0  0  0  0
   -0.7394   -0.8533    1.9658 H   0  0  0  0  0  0  0  0  0  0  0  0
   -3.9518   -3.7955   -1.2495 H   0  0  0  0  0  0  0  0  0  0  0  0
   -0.5427    3.7154   -1.7569 H   0  0  0  0  0  0  0  0  0  0  0  0
   -1.3190    4.4168    0.2958 H   0  0  0  0  0  0  0  0  0  0  0  0
   -2.5434    6.5638    0.3904 H   0  0  0  0  0  0  0  0  0  0  0  0
   -5.9107    4.7920   -1.5764 H   0  0  0  0  0  0  0  0  0  0  0  0
   -4.7124    2.6342   -1.7488 H   0  0  0  0  0  0  0  0  0  0  0  0
   -4.3950    1.4081    0.2171 H   0  0  0  0  0  0  0  0  0  0  0  0
    0.8268   -0.2115   -2.4160 H   0  0  0  0  0  0  0  0  0  0  0  0
    2.2277    0.8640   -0.7167 H   0  0  0  0  0  0  0  0  0  0  0  0
    1.4443   -0.0203    0.5912 H   0  0  0  0  0  0  0  0  0  0  0  0
    6.1790    0.8593   -1.7700 H   0  0  0  0  0  0  0  0  0  0  0  0
    7.6201    0.8881   -0.7260 H   0  0  0  0  0  0  0  0  0  0  0  0
    6.8132   -0.6370   -1.0966 H   0  0  0  0  0  0  0  0  0  0  0  0
    6.3926   -1.2040    1.3914 H   0  0  0  0  0  0  0  0  0  0  0  0
    7.2509    0.2582    1.8872 H   0  0  0  0  0  0  0  0  0  0  0  0
    5.5802   -0.0371    2.4224 H   0  0  0  0  0  0  0  0  0  0  0  0
    5.2323    2.6681   -0.1659 H   0  0  0  0  0  0  0  0  0  0  0  0
    5.0106    2.2931    1.5357 H   0  0  0  0  0  0  0  0  0  0  0  0
    6.6524    2.5303    0.8946 H   0  0  0  0  0  0  0  0  0  0  0  0
    2.7762   -3.2876   -0.4523 H   0  0  0  0  0  0  0  0  0  0  0  0
    2.3341   -2.6068   -2.0255 H   0  0  0  0  0  0  0  0  0  0  0  0
    0.6368   -2.6044    0.5133 H   0  0  0  0  0  0  0  0  0  0  0  0
    0.3602   -3.6604   -0.8788 H   0  0  0  0  0  0  0  0  0  0  0  0
  1  2  1  0
  2  3  2  0
  3  4  1  0
  3  5  1  0
  5  6  2  0
  6  7  1  0
  7  8  2  0
  8  9  1  0
  9 10  1  0
 10 11  2  0
 10 12  1  0
 12 13  1  0
 13 14  1  0
 14 15  2  0
 15 16  1  0
 15 17  1  0
 17 18  1  0
 18 19  2  0
 19 20  1  0
 20 21  2  0
 21 22  1  0
 21 23  1  0
 23 24  2  0
 17 25  1  0
 25 26  1  0
 14 27  1  0
 27 28  1  0
 28 29  1  0
 29 30  1  0
 30 31  2  0
 30 32  1  0
 32 33  1  0
 33 34  1  0
 33 35  1  0
 33 36  1  0
 29 37  1  0
 37 38  1  0
 38 39  1  0
  8  2  1  0
 12 39  1  6
 12  7  1  0
 25 13  2  0
 39 27  1  0
 24 18  1  0
  1 40  1  0
  1 41  1  0
  1 42  1  0
  5 43  1  0
  6 44  1  0
  9 45  1  0
 16 46  1  0
 19 47  1  0
 20 48  1  0
 23 49  1  0
 24 50  1  0
 26 51  1  0
 27 52  1  6
 28 53  1  0
 28 54  1  0
 34 55  1  0
 34 56  1  0
 34 57  1  0
 35 58  1  0
 35 59  1  0
 35 60  1  0
 36 61  1  0
 36 62  1  0
 36 63  1  0
 37 64  1  0
 37 65  1  0
 38 66  1  0
 38 67  1  0
M  END
$$$$
