
     RDKit          3D

 46 48  0  0  0  0  0  0  0  0999 V2000
   -3.0241    1.5286    3.2023 C   0  0  0  0  0  0  0  0  0  0  0  0
   -3.0822    1.5899    1.6853 C   0  0  0  0  0  0  0  0  0  0  0  0
   -3.2835    0.2600    1.0924 N   0  0  0  0  0  4  0  0  0  0  0  0
   -2.2809   -0.5024    0.6684 C   0  0  0  0  0  0  0  0  0  0  0  0
   -0.8933   -0.2105    0.7842 C   0  0  0  0  0  0  0  0  0  0  0  0
   -0.0158   -0.4567   -0.2032 C   0  0  0  0  0  0  0  0  0  0  0  0
    1.3954   -0.1453   -0.0847 C   0  0  0  0  0  0  0  0  0  0  0  0
    2.2715   -0.3343   -1.0854 C   0  0  0  0  0  0  0  0  0  0  0  0
    3.6379   -0.0338   -1.0529 N   0  0  0  0  0  0  0  0  0  0  0  0
    4.3716    0.0040    0.1526 C   0  0  0  0  0  0  0  0  0  0  0  0
    4.0391   -1.0582    1.1809 C   0  0  0  0  0  0  0  0  0  0  0  0
    5.2762    0.8052    0.3970 O   0  0  0  0  0  0  0  0  0  0  0  0
    4.3425    0.2808   -2.2867 C   0  0  0  0  0  0  0  0  0  0  0  0
    5.7399    0.1673   -2.3824 C   0  0  0  0  0  0  0  0  0  0  0  0
    6.4141    0.4483   -3.5764 C   0  0  0  0  0  0  0  0  0  0  0  0
    5.7053    0.8507   -4.7024 C   0  0  0  0  0  0  0  0  0  0  0  0
    4.3225    0.9761   -4.6340 C   0  0  0  0  0  0  0  0  0  0  0  0
    3.6488    0.6941   -3.4396 C   0  0  0  0  0  0  0  0  0  0  0  0
   -2.8805   -1.9654   -0.0088 S   0  0  0  0  0  0  0  0  0  0  0  0
   -4.5132   -1.5279    0.2943 C   0  0  0  0  0  0  0  0  0  0  0  0
   -5.6817   -2.2509    0.0084 C   0  0  0  0  0  0  0  0  0  0  0  0
   -6.9092   -1.6831    0.3572 C   0  0  0  0  0  0  0  0  0  0  0  0
   -6.9708   -0.4369    0.9716 C   0  0  0  0  0  0  0  0  0  0  0  0
   -5.8014    0.2800    1.2539 C   0  0  0  0  0  0  0  0  0  0  0  0
   -4.5536   -0.2781    0.9056 C   0  0  0  0  0  0  0  0  0  0  0  0
   -3.9533    1.1259    3.6170 H   0  0  0  0  0  0  0  0  0  0  0  0
   -2.8685    2.5285    3.6183 H   0  0  0  0  0  0  0  0  0  0  0  0
   -2.2054    0.8852    3.5387 H   0  0  0  0  0  0  0  0  0  0  0  0
   -2.1628    2.0393    1.2932 H   0  0  0  0  0  0  0  0  0  0  0  0
   -3.8889    2.2576    1.3629 H   0  0  0  0  0  0  0  0  0  0  0  0
   -0.5421    0.2454    1.7071 H   0  0  0  0  0  0  0  0  0  0  0  0
   -0.3329   -0.8974   -1.1487 H   0  0  0  0  0  0  0  0  0  0  0  0
    1.7240    0.3013    0.8504 H   0  0  0  0  0  0  0  0  0  0  0  0
    1.9123   -0.7066   -2.0426 H   0  0  0  0  0  0  0  0  0  0  0  0
    3.4711   -0.6177    2.0035 H   0  0  0  0  0  0  0  0  0  0  0  0
    3.4921   -1.8990    0.7477 H   0  0  0  0  0  0  0  0  0  0  0  0
    4.9780   -1.4585    1.5773 H   0  0  0  0  0  0  0  0  0  0  0  0
    6.3430   -0.1567   -1.5377 H   0  0  0  0  0  0  0  0  0  0  0  0
    7.4966    0.3524   -3.6203 H   0  0  0  0  0  0  0  0  0  0  0  0
    6.2314    1.0728   -5.6274 H   0  0  0  0  0  0  0  0  0  0  0  0
    3.7664    1.3044   -5.5087 H   0  0  0  0  0  0  0  0  0  0  0  0
    2.5743    0.8466   -3.4316 H   0  0  0  0  0  0  0  0  0  0  0  0
   -5.6413   -3.2273   -0.4698 H   0  0  0  0  0  0  0  0  0  0  0  0
   -7.8306   -2.2267    0.1457 H   0  0  0  0  0  0  0  0  0  0  0  0
   -7.9421   -0.0180    1.2356 H   0  0  0  0  0  0  0  0  0  0  0  0
   -5.8959    1.2473    1.7391 H   0  0  0  0  0  0  0  0  0  0  0  0
  1  2  1  0
  2  3  1  0
  3  4  2  0
  4  5  1  0
  5  6  2  3
  6  7  1  0
  7  8  2  3
  8  9  1  0
  9 10  1  0
 10 11  1  0
 10 12  2  0
  9 13  1  0
 13 14  2  0
 14 15  1  0
 15 16  2  0
 16 17  1  0
 17 18  2  0
  4 19  1  0
 19 20  1  0
 20 21  2  0
 21 22  1  0
 22 23  2  0
 23 24  1  0
 24 25  2  0
 25  3  1  0
 18 13  1  0
 25 20  1  0
  1 26  1  0
  1 27  1  0
  1 28  1  0
  2 29  1  0
  2 30  1  0
  5 31  1  0
  6 32  1  0
  7 33  1  0
  8 34  1  0
 11 35  1  0
 11 36  1  0
 11 37  1  0
 14 38  1  0
 15 39  1  0
 16 40  1  0
 17 41  1  0
 18 42  1  0
 21 43  1  0
 22 44  1  0
 23 45  1  0
 24 46  1  0
M  CHG  1   3   1
M  END
$$$$
