
     RDKit          3D

 40 42  0  0  0  0  0  0  0  0999 V2000
   -2.1909   -1.6901   -2.1334 O   0  0  0  0  0  0  0  0  0  0  0  0
   -1.8887   -0.9368   -1.2149 C   0  0  0  0  0  0  0  0  0  0  0  0
   -2.7610   -0.2392   -0.4025 N   0  0  0  0  0  0  0  0  0  0  0  0
   -4.1804   -0.2790   -0.3908 C   0  0  0  0  0  0  0  0  0  0  0  0
   -4.9081   -1.1393   -1.2228 C   0  0  0  0  0  0  0  0  0  0  0  0
   -6.3063   -1.1611   -1.1933 C   0  0  0  0  0  0  0  0  0  0  0  0
   -7.0034   -0.3250   -0.3292 C   0  0  0  0  0  0  0  0  0  0  0  0
   -6.3023    0.5359    0.5124 C   0  0  0  0  0  0  0  0  0  0  0  0
   -4.8960    0.5661    0.4915 C   0  0  0  0  0  0  0  0  0  0  0  0
   -4.1690    1.4882    1.4076 C   0  0  0  0  0  0  0  0  0  0  0  0
   -2.9563    1.5797    1.5043 O   0  0  0  0  0  0  0  0  0  0  0  0
   -4.9811    2.2530    2.1587 O   0  0  0  0  0  0  0  0  0  0  0  0
   -0.4377   -0.7010   -0.9468 C   0  0  0  0  0  0  0  0  0  0  0  0
    0.4636   -0.8309   -2.0090 C   0  0  0  0  0  0  0  0  0  0  0  0
    1.8319   -0.6248   -1.8047 C   0  0  0  0  0  0  0  0  0  0  0  0
    2.3232   -0.2947   -0.5359 C   0  0  0  0  0  0  0  0  0  0  0  0
    3.7117   -0.1040   -0.4176 N   0  0  0  0  0  0  0  0  0  0  0  0
    4.4422    0.2275    0.7100 C   0  0  0  0  0  0  0  0  0  0  0  0
    3.9798    0.4182    1.8296 O   0  0  0  0  0  0  0  0  0  0  0  0
    5.8654    0.3358    0.4398 C   0  0  0  0  0  0  0  0  0  0  0  0
    6.9286    0.6395    1.2692 C   0  0  0  0  0  0  0  0  0  0  0  0
    8.0953    0.6030    0.4675 C   0  0  0  0  0  0  0  0  0  0  0  0
    7.6780    0.2799   -0.8026 C   0  0  0  0  0  0  0  0  0  0  0  0
    8.8122    0.0859   -2.3169 Br  0  0  0  0  0  0  0  0  0  0  0  0
    6.3283    0.1154   -0.8329 O   0  0  0  0  0  0  0  0  0  0  0  0
    1.4240   -0.1812    0.5260 C   0  0  0  0  0  0  0  0  0  0  0  0
    0.0517   -0.3873    0.3261 C   0  0  0  0  0  0  0  0  0  0  0  0
   -2.3521    0.4396    0.2402 H   0  0  0  0  0  0  0  0  0  0  0  0
   -4.4149   -1.8169   -1.9133 H   0  0  0  0  0  0  0  0  0  0  0  0
   -6.8464   -1.8382   -1.8515 H   0  0  0  0  0  0  0  0  0  0  0  0
   -8.0902   -0.3447   -0.3089 H   0  0  0  0  0  0  0  0  0  0  0  0
   -6.8642    1.1804    1.1846 H   0  0  0  0  0  0  0  0  0  0  0  0
   -4.3740    2.8004    2.6998 H   0  0  0  0  0  0  0  0  0  0  0  0
    0.1025   -1.0920   -3.0022 H   0  0  0  0  0  0  0  0  0  0  0  0
    2.5032   -0.7301   -2.6536 H   0  0  0  0  0  0  0  0  0  0  0  0
    4.2653   -0.2207   -1.2601 H   0  0  0  0  0  0  0  0  0  0  0  0
    6.8555    0.8592    2.3265 H   0  0  0  0  0  0  0  0  0  0  0  0
    9.1133    0.7896    0.7802 H   0  0  0  0  0  0  0  0  0  0  0  0
    1.7552    0.0594    1.5319 H   0  0  0  0  0  0  0  0  0  0  0  0
   -0.6078   -0.3194    1.1876 H   0  0  0  0  0  0  0  0  0  0  0  0
  1  2  2  0
  2  3  1  0
  3  4  1  0
  4  5  2  0
  5  6  1  0
  6  7  2  0
  7  8  1  0
  8  9  2  0
  9 10  1  0
 10 11  2  0
 10 12  1  0
  2 13  1  0
 13 14  2  0
 14 15  1  0
 15 16  2  0
 16 17  1  0
 17 18  1  0
 18 19  2  0
 18 20  1  0
 20 21  2  0
 21 22  1  0
 22 23  2  0
 23 24  1  0
 23 25  1  0
 16 26  1  0
 26 27  2  0
  9  4  1  0
 27 13  1  0
 25 20  1  0
  3 28  1  0
  5 29  1  0
  6 30  1  0
  7 31  1  0
  8 32  1  0
 12 33  1  0
 14 34  1  0
 15 35  1  0
 17 36  1  0
 21 37  1  0
 22 38  1  0
 26 39  1  0
 27 40  1  0
M  END
$$$$
