
     RDKit          3D

 51 55  0  0  0  0  0  0  0  0999 V2000
   -6.3043   -2.5007    2.9252 F   0  0  0  0  0  0  0  0  0  0  0  0
   -6.3095   -1.5179    2.0150 C   0  0  0  0  0  0  0  0  0  0  0  0
   -7.4101   -0.6744    1.9257 C   0  0  0  0  0  0  0  0  0  0  0  0
   -7.4136    0.3500    0.9811 C   0  0  0  0  0  0  0  0  0  0  0  0
   -6.3160    0.5210    0.1330 C   0  0  0  0  0  0  0  0  0  0  0  0
   -5.2065   -0.3339    0.2193 C   0  0  0  0  0  0  0  0  0  0  0  0
   -4.0132   -0.1351   -0.6852 C   0  0  0  0  0  0  0  0  0  0  0  0
   -2.9584    0.7807   -0.0396 C   0  0  0  0  0  0  0  0  0  0  0  0
   -1.8247    1.0875   -0.9312 N   0  0  0  0  0  0  0  0  0  0  0  0
   -1.0649   -0.1293   -1.2993 C   0  0  0  0  0  0  0  0  0  0  0  0
    0.3894    0.1454   -1.7445 C   0  0  0  0  0  0  0  0  0  0  0  0
    1.1636    0.8063   -0.6840 N   0  0  0  0  0  0  0  0  0  0  0  0
    2.4468    0.3896   -0.3442 C   0  0  0  0  0  0  0  0  0  0  0  0
    2.7730    0.3812    0.9259 N   0  0  0  0  0  0  0  0  0  0  0  0
    4.0396   -0.0672    1.3448 C   0  0  0  0  0  0  0  0  0  0  0  0
    4.3232   -0.0697    2.7120 C   0  0  0  0  0  0  0  0  0  0  0  0
    5.5605   -0.5163    3.1838 C   0  0  0  0  0  0  0  0  0  0  0  0
    6.5298   -0.9672    2.2873 C   0  0  0  0  0  0  0  0  0  0  0  0
    6.2681   -0.9729    0.9167 C   0  0  0  0  0  0  0  0  0  0  0  0
    5.0251   -0.5236    0.4601 C   0  0  0  0  0  0  0  0  0  0  0  0
    4.6835   -0.4812   -0.9011 N   0  0  0  0  0  0  0  0  0  0  0  0
    5.4348   -0.8284   -1.9989 C   0  0  0  0  0  0  0  0  0  0  0  0
    4.7043   -0.5383   -3.1297 C   0  0  0  0  0  0  0  0  0  0  0  0
    3.4629   -0.0133   -2.7015 C   0  0  0  0  0  0  0  0  0  0  0  0
    3.4503   -0.0246   -1.3168 C   0  0  0  0  0  0  0  0  0  0  0  0
    0.3591    1.5398    0.3084 C   0  0  0  0  0  0  0  0  0  0  0  0
   -0.9275    2.1029   -0.3289 C   0  0  0  0  0  0  0  0  0  0  0  0
   -5.2109   -1.3573    1.1761 C   0  0  0  0  0  0  0  0  0  0  0  0
   -8.2545   -0.8200    2.5914 H   0  0  0  0  0  0  0  0  0  0  0  0
   -8.2690    1.0164    0.9042 H   0  0  0  0  0  0  0  0  0  0  0  0
   -6.3311    1.3274   -0.5982 H   0  0  0  0  0  0  0  0  0  0  0  0
   -4.3483    0.2907   -1.6399 H   0  0  0  0  0  0  0  0  0  0  0  0
   -3.5879   -1.1176   -0.9233 H   0  0  0  0  0  0  0  0  0  0  0  0
   -3.4566    1.7224    0.2276 H   0  0  0  0  0  0  0  0  0  0  0  0
   -2.6003    0.3397    0.9005 H   0  0  0  0  0  0  0  0  0  0  0  0
   -1.5863   -0.6377   -2.1182 H   0  0  0  0  0  0  0  0  0  0  0  0
   -1.0280   -0.8270   -0.4512 H   0  0  0  0  0  0  0  0  0  0  0  0
    0.8379   -0.8173   -2.0143 H   0  0  0  0  0  0  0  0  0  0  0  0
    0.3896    0.7803   -2.6381 H   0  0  0  0  0  0  0  0  0  0  0  0
    3.5691    0.2789    3.4126 H   0  0  0  0  0  0  0  0  0  0  0  0
    5.7651   -0.5118    4.2513 H   0  0  0  0  0  0  0  0  0  0  0  0
    7.4915   -1.3131    2.6585 H   0  0  0  0  0  0  0  0  0  0  0  0
    7.0385   -1.3250    0.2391 H   0  0  0  0  0  0  0  0  0  0  0  0
    6.4318   -1.2328   -1.9029 H   0  0  0  0  0  0  0  0  0  0  0  0
    5.0359   -0.6776   -4.1507 H   0  0  0  0  0  0  0  0  0  0  0  0
    2.6672    0.3381   -3.3432 H   0  0  0  0  0  0  0  0  0  0  0  0
    0.9439    2.3776    0.7066 H   0  0  0  0  0  0  0  0  0  0  0  0
    0.1004    0.8799    1.1459 H   0  0  0  0  0  0  0  0  0  0  0  0
   -1.4576    2.7236    0.4039 H   0  0  0  0  0  0  0  0  0  0  0  0
   -0.6369    2.7871   -1.1371 H   0  0  0  0  0  0  0  0  0  0  0  0
   -4.3687   -2.0351    1.2783 H   0  0  0  0  0  0  0  0  0  0  0  0
  1  2  1  0
  2  3  2  0
  3  4  1  0
  4  5  2  0
  5  6  1  0
  6  7  1  0
  7  8  1  0
  8  9  1  0
  9 10  1  0
 10 11  1  0
 11 12  1  0
 12 13  1  0
 13 14  2  0
 14 15  1  0
 15 16  2  0
 16 17  1  0
 17 18  2  0
 18 19  1  0
 19 20  2  0
 20 21  1  0
 21 22  1  0
 22 23  2  0
 23 24  1  0
 24 25  2  0
 12 26  1  0
 26 27  1  0
  6 28  2  0
 28  2  1  0
 27  9  1  0
 25 13  1  0
 20 15  1  0
 25 21  1  0
  3 29  1  0
  4 30  1  0
  5 31  1  0
  7 32  1  0
  7 33  1  0
  8 34  1  0
  8 35  1  0
 10 36  1  0
 10 37  1  0
 11 38  1  0
 11 39  1  0
 16 40  1  0
 17 41  1  0
 18 42  1  0
 19 43  1  0
 22 44  1  0
 23 45  1  0
 24 46  1  0
 26 47  1  0
 26 48  1  0
 27 49  1  0
 27 50  1  0
 28 51  1  0
M  END
$$$$
