
     RDKit          3D

 44 47  0  0  0  0  0  0  0  0999 V2000
   -5.7924   -3.1102    2.1072 C   0  0  0  0  0  0  0  0  0  0  0  0
   -4.7646   -2.8799    1.0137 C   0  0  0  0  0  0  0  0  0  0  0  0
   -4.5031   -1.4811    0.9448 O   0  0  0  0  0  0  0  0  0  0  0  0
   -3.5036   -1.0598    0.1021 C   0  0  0  0  0  0  0  0  0  0  0  0
   -2.8744   -1.8778   -0.8425 C   0  0  0  0  0  0  0  0  0  0  0  0
   -1.8712   -1.3627   -1.6664 C   0  0  0  0  0  0  0  0  0  0  0  0
   -1.4900   -0.0253   -1.5535 C   0  0  0  0  0  0  0  0  0  0  0  0
   -0.4419    0.5110   -2.4228 C   0  0  0  0  0  0  0  0  0  0  0  0
    0.8622    0.5642   -2.1147 C   0  0  0  0  0  0  0  0  0  0  0  0
    2.0483    1.2327   -3.2360 S   0  0  0  0  0  0  0  0  0  0  0  0
    3.2923    0.9093   -2.1035 C   0  0  0  0  0  0  0  0  0  0  0  0
    4.5817    1.0817   -2.0740 N   0  0  0  0  0  0  0  0  0  0  0  0
    4.8970    0.5707   -0.8216 C   0  0  0  0  0  0  0  0  0  0  0  0
    6.3654    0.5423   -0.2847 C   0  0  0  0  0  0  0  0  0  0  0  0
    7.4747    1.0043   -0.9670 C   0  0  0  0  0  0  0  0  0  0  0  0
    8.5914    0.7891   -0.1230 C   0  0  0  0  0  0  0  0  0  0  0  0
    8.0968    0.2105    1.0214 C   0  0  0  0  0  0  0  0  0  0  0  0
    6.7510    0.0572    0.9343 O   0  0  0  0  0  0  0  0  0  0  0  0
    3.8498    0.1060   -0.1110 N   0  0  0  0  0  0  0  0  0  0  0  0
    2.8425    0.3409   -0.9678 N   0  0  0  0  0  0  0  0  0  0  0  0
    1.4925    0.0890   -0.8377 C   0  0  0  0  0  0  0  0  0  0  0  0
    0.9969   -0.4211    0.1485 O   0  0  0  0  0  0  0  0  0  0  0  0
   -2.1185    0.8008   -0.6132 C   0  0  0  0  0  0  0  0  0  0  0  0
   -3.1251    0.2942    0.2169 C   0  0  0  0  0  0  0  0  0  0  0  0
   -3.7980    1.0217    1.1660 O   0  0  0  0  0  0  0  0  0  0  0  0
   -3.4427    2.3795    1.4079 C   0  0  0  0  0  0  0  0  0  0  0  0
   -2.2595    2.4779    2.3559 C   0  0  0  0  0  0  0  0  0  0  0  0
   -5.4206   -2.7434    3.0698 H   0  0  0  0  0  0  0  0  0  0  0  0
   -6.0287   -4.1740    2.2017 H   0  0  0  0  0  0  0  0  0  0  0  0
   -6.7152   -2.5609    1.8913 H   0  0  0  0  0  0  0  0  0  0  0  0
   -3.8501   -3.4313    1.2617 H   0  0  0  0  0  0  0  0  0  0  0  0
   -5.1728   -3.2348    0.0605 H   0  0  0  0  0  0  0  0  0  0  0  0
   -3.1445   -2.9212   -0.9642 H   0  0  0  0  0  0  0  0  0  0  0  0
   -1.3939   -2.0183   -2.3911 H   0  0  0  0  0  0  0  0  0  0  0  0
   -0.8032    0.8798   -3.3811 H   0  0  0  0  0  0  0  0  0  0  0  0
    7.4685    1.4406   -1.9567 H   0  0  0  0  0  0  0  0  0  0  0  0
    9.6274    1.0239   -0.3239 H   0  0  0  0  0  0  0  0  0  0  0  0
    8.5458   -0.1354    1.9421 H   0  0  0  0  0  0  0  0  0  0  0  0
   -1.8009    1.8347   -0.5422 H   0  0  0  0  0  0  0  0  0  0  0  0
   -3.2886    2.9427    0.4812 H   0  0  0  0  0  0  0  0  0  0  0  0
   -4.3097    2.8419    1.8939 H   0  0  0  0  0  0  0  0  0  0  0  0
   -1.3600    2.0275    1.9260 H   0  0  0  0  0  0  0  0  0  0  0  0
   -2.4689    1.9403    3.2869 H   0  0  0  0  0  0  0  0  0  0  0  0
   -2.0425    3.5229    2.5953 H   0  0  0  0  0  0  0  0  0  0  0  0
  1  2  1  0
  2  3  1  0
  3  4  1  0
  4  5  2  0
  5  6  1  0
  6  7  2  0
  7  8  1  0
  8  9  2  3
  9 10  1  0
 10 11  1  0
 11 12  2  0
 12 13  1  0
 13 14  1  0
 14 15  2  0
 15 16  1  0
 16 17  2  0
 17 18  1  0
 13 19  2  0
 19 20  1  0
 20 21  1  0
 21 22  2  0
  7 23  1  0
 23 24  2  0
 24 25  1  0
 25 26  1  0
 26 27  1  0
 24  4  1  0
 21  9  1  0
 20 11  1  0
 18 14  1  0
  1 28  1  0
  1 29  1  0
  1 30  1  0
  2 31  1  0
  2 32  1  0
  5 33  1  0
  6 34  1  0
  8 35  1  0
 15 36  1  0
 16 37  1  0
 17 38  1  0
 23 39  1  0
 26 40  1  0
 26 41  1  0
 27 42  1  0
 27 43  1  0
 27 44  1  0
M  END
$$$$
