
     RDKit          3D

 58 62  0  0  0  0  0  0  0  0999 V2000
    7.7655    3.9169    1.0867 C   0  0  0  0  0  0  0  0  0  0  0  0
    7.3189    2.6255    1.4747 O   0  0  0  0  0  0  0  0  0  0  0  0
    6.0888    2.2135    1.0245 C   0  0  0  0  0  0  0  0  0  0  0  0
    5.2287    2.9964    0.2493 C   0  0  0  0  0  0  0  0  0  0  0  0
    3.9931    2.4893   -0.1680 C   0  0  0  0  0  0  0  0  0  0  0  0
    3.5949    1.1930    0.1802 C   0  0  0  0  0  0  0  0  0  0  0  0
    2.3160    0.6356   -0.2524 C   0  0  0  0  0  0  0  0  0  0  0  0
    1.8230   -0.5729   -0.0548 N   0  0  0  0  0  0  0  0  0  0  0  0
    0.5892   -0.5483   -0.6751 C   0  0  0  0  0  0  0  0  0  0  0  0
   -0.2843   -1.7498   -0.6687 C   0  0  0  0  0  0  0  0  0  0  0  0
   -1.3515   -1.6166    0.3095 N   0  0  0  0  0  0  0  0  0  0  0  0
   -2.6929   -1.4382    0.0761 C   0  0  0  0  0  0  0  0  0  0  0  0
   -3.3767   -1.2991   -1.5086 S   0  0  0  0  0  0  0  0  0  0  0  0
   -5.1265   -1.0262   -1.0942 C   0  0  0  0  0  0  0  0  0  0  0  0
   -5.9577   -0.8612   -2.3431 C   0  0  0  0  0  0  0  0  0  0  0  0
   -6.4593   -1.9853   -3.0221 C   0  0  0  0  0  0  0  0  0  0  0  0
   -7.2121   -1.8350   -4.1903 C   0  0  0  0  0  0  0  0  0  0  0  0
   -7.4670   -0.5609   -4.6944 C   0  0  0  0  0  0  0  0  0  0  0  0
   -6.9669    0.5516   -4.0277 C   0  0  0  0  0  0  0  0  0  0  0  0
   -7.2129    1.7765   -4.5128 F   0  0  0  0  0  0  0  0  0  0  0  0
   -6.2156    0.4152   -2.8643 C   0  0  0  0  0  0  0  0  0  0  0  0
   -3.3867   -1.3923    1.1899 N   0  0  0  0  0  0  0  0  0  0  0  0
   -2.4688   -1.5633    2.1953 C   0  0  0  0  0  0  0  0  0  0  0  0
   -2.6649   -1.6067    3.5750 C   0  0  0  0  0  0  0  0  0  0  0  0
   -1.5256   -1.8048    4.3373 C   0  0  0  0  0  0  0  0  0  0  0  0
   -0.2753   -1.9507    3.8384 N   0  0  0  0  0  0  0  0  0  0  0  0
   -0.0841   -1.8990    2.4989 C   0  0  0  0  0  0  0  0  0  0  0  0
   -1.1870   -1.7110    1.6773 C   0  0  0  0  0  0  0  0  0  0  0  0
    0.3911    0.6936   -1.2433 C   0  0  0  0  0  0  0  0  0  0  0  0
   -0.6873    1.3279   -2.0216 C   0  0  0  0  0  0  0  0  0  0  0  0
    1.4917    1.4577   -0.9746 O   0  0  0  0  0  0  0  0  0  0  0  0
    4.4599    0.4117    0.9636 C   0  0  0  0  0  0  0  0  0  0  0  0
    5.6984    0.9092    1.3897 C   0  0  0  0  0  0  0  0  0  0  0  0
    6.5949    0.2035    2.1547 O   0  0  0  0  0  0  0  0  0  0  0  0
    6.2176   -1.0973    2.5833 C   0  0  0  0  0  0  0  0  0  0  0  0
    8.7653    4.0655    1.5064 H   0  0  0  0  0  0  0  0  0  0  0  0
    7.1146    4.6979    1.4934 H   0  0  0  0  0  0  0  0  0  0  0  0
    7.8481    3.9966   -0.0022 H   0  0  0  0  0  0  0  0  0  0  0  0
    5.4874    4.0074   -0.0489 H   0  0  0  0  0  0  0  0  0  0  0  0
    3.3457    3.1223   -0.7720 H   0  0  0  0  0  0  0  0  0  0  0  0
    0.2882   -2.6448   -0.3983 H   0  0  0  0  0  0  0  0  0  0  0  0
   -0.7019   -1.9321   -1.6618 H   0  0  0  0  0  0  0  0  0  0  0  0
   -5.5109   -1.8692   -0.5091 H   0  0  0  0  0  0  0  0  0  0  0  0
   -5.2185   -0.1301   -0.4697 H   0  0  0  0  0  0  0  0  0  0  0  0
   -6.2647   -2.9869   -2.6422 H   0  0  0  0  0  0  0  0  0  0  0  0
   -7.5948   -2.7118   -4.7075 H   0  0  0  0  0  0  0  0  0  0  0  0
   -8.0498   -0.4277   -5.6002 H   0  0  0  0  0  0  0  0  0  0  0  0
   -5.8365    1.3087   -2.3764 H   0  0  0  0  0  0  0  0  0  0  0  0
   -3.6450   -1.4953    4.0178 H   0  0  0  0  0  0  0  0  0  0  0  0
   -1.5911   -1.8540    5.4212 H   0  0  0  0  0  0  0  0  0  0  0  0
    0.9327   -2.0073    2.1402 H   0  0  0  0  0  0  0  0  0  0  0  0
   -1.0067    0.6765   -2.8402 H   0  0  0  0  0  0  0  0  0  0  0  0
   -0.3567    2.2756   -2.4576 H   0  0  0  0  0  0  0  0  0  0  0  0
   -1.5501    1.5334   -1.3814 H   0  0  0  0  0  0  0  0  0  0  0  0
    4.1402   -0.5925    1.2290 H   0  0  0  0  0  0  0  0  0  0  0  0
    5.3164   -1.0653    3.2041 H   0  0  0  0  0  0  0  0  0  0  0  0
    7.0301   -1.4949    3.1992 H   0  0  0  0  0  0  0  0  0  0  0  0
    6.0888   -1.7706    1.7295 H   0  0  0  0  0  0  0  0  0  0  0  0
  1  2  1  0
  2  3  1  0
  3  4  2  0
  4  5  1  0
  5  6  2  0
  6  7  1  0
  7  8  2  0
  8  9  1  0
  9 10  1  0
 10 11  1  0
 11 12  1  0
 12 13  1  0
 13 14  1  0
 14 15  1  0
 15 16  2  0
 16 17  1  0
 17 18  2  0
 18 19  1  0
 19 20  1  0
 19 21  2  0
 12 22  2  0
 22 23  1  0
 23 24  2  0
 24 25  1  0
 25 26  2  0
 26 27  1  0
 27 28  2  0
  9 29  2  0
 29 30  1  0
 29 31  1  0
  6 32  1  0
 32 33  2  0
 33 34  1  0
 34 35  1  0
 33  3  1  0
 31  7  1  0
 28 11  1  0
 21 15  1  0
 28 23  1  0
  1 36  1  0
  1 37  1  0
  1 38  1  0
  4 39  1  0
  5 40  1  0
 10 41  1  0
 10 42  1  0
 14 43  1  0
 14 44  1  0
 16 45  1  0
 17 46  1  0
 18 47  1  0
 21 48  1  0
 24 49  1  0
 25 50  1  0
 27 51  1  0
 30 52  1  0
 30 53  1  0
 30 54  1  0
 32 55  1  0
 35 56  1  0
 35 57  1  0
 35 58  1  0
M  END
$$$$
