
     RDKit          3D

 51 54  0  0  0  0  0  0  0  0999 V2000
    6.4133    1.2149   -2.0690 C   0  0  0  0  0  0  0  0  0  0  0  0
    5.6344   -0.0468   -1.7270 C   0  0  0  0  0  0  0  0  0  0  0  0
    4.2486    0.2676   -1.2271 C   0  0  0  0  0  0  0  0  0  0  0  0
    3.2121    0.5298   -2.1261 C   0  0  0  0  0  0  0  0  0  0  0  0
    1.9286    0.8431   -1.6634 C   0  0  0  0  0  0  0  0  0  0  0  0
    1.6387    0.9060   -0.2908 C   0  0  0  0  0  0  0  0  0  0  0  0
    0.3086    1.2380    0.1832 N   0  0  0  0  0  0  0  0  0  0  0  0
   -0.4490    2.1574   -0.5531 C   0  0  0  0  0  0  0  0  0  0  0  0
   -0.0511    2.8142   -1.5161 O   0  0  0  0  0  0  0  0  0  0  0  0
   -1.8302    2.4048   -0.1116 C   0  0  0  0  0  0  0  0  0  0  0  0
   -2.6653    3.2249   -0.8898 C   0  0  0  0  0  0  0  0  0  0  0  0
   -3.9708    3.4835   -0.4854 C   0  0  0  0  0  0  0  0  0  0  0  0
   -4.4422    2.9233    0.6948 C   0  0  0  0  0  0  0  0  0  0  0  0
   -3.6071    2.1132    1.4707 C   0  0  0  0  0  0  0  0  0  0  0  0
   -2.2841    1.8469    1.0774 C   0  0  0  0  0  0  0  0  0  0  0  0
   -1.4088    1.0279    1.8327 N   0  0  0  0  0  0  0  0  0  0  0  0
   -1.8655    0.4325    3.0981 C   0  0  0  0  0  0  0  0  0  0  0  0
   -2.6901   -0.8394    2.8825 C   0  0  0  0  0  0  0  0  0  0  0  0
   -3.7193   -1.0597    3.5160 O   0  0  0  0  0  0  0  0  0  0  0  0
   -2.1369   -1.7443    2.0088 N   0  0  0  0  0  0  0  0  0  0  0  0
   -2.7598   -3.0204    1.7577 C   0  0  0  0  0  0  0  0  0  0  0  0
   -2.1798   -3.5877    0.5178 C   0  0  0  0  0  0  0  0  0  0  0  0
   -1.1086   -4.4203    0.2626 C   0  0  0  0  0  0  0  0  0  0  0  0
   -1.0551   -4.5836   -1.1438 C   0  0  0  0  0  0  0  0  0  0  0  0
   -2.0920   -3.8399   -1.6553 C   0  0  0  0  0  0  0  0  0  0  0  0
   -2.7799   -3.2316   -0.6551 O   0  0  0  0  0  0  0  0  0  0  0  0
   -0.1645    0.6240    1.3491 C   0  0  0  0  0  0  0  0  0  0  0  0
    0.4231   -0.2949    1.9348 O   0  0  0  0  0  0  0  0  0  0  0  0
    2.6903    0.6370    0.6000 C   0  0  0  0  0  0  0  0  0  0  0  0
    3.9770    0.3264    0.1407 C   0  0  0  0  0  0  0  0  0  0  0  0
    5.9157    1.7868   -2.8600 H   0  0  0  0  0  0  0  0  0  0  0  0
    6.5170    1.8688   -1.1951 H   0  0  0  0  0  0  0  0  0  0  0  0
    7.4162    0.9546   -2.4221 H   0  0  0  0  0  0  0  0  0  0  0  0
    6.1835   -0.6252   -0.9737 H   0  0  0  0  0  0  0  0  0  0  0  0
    5.5635   -0.6922   -2.6120 H   0  0  0  0  0  0  0  0  0  0  0  0
    3.3904    0.4945   -3.1984 H   0  0  0  0  0  0  0  0  0  0  0  0
    1.1564    1.0074   -2.4120 H   0  0  0  0  0  0  0  0  0  0  0  0
   -2.2969    3.6656   -1.8153 H   0  0  0  0  0  0  0  0  0  0  0  0
   -4.6162    4.1162   -1.0907 H   0  0  0  0  0  0  0  0  0  0  0  0
   -5.4654    3.1108    1.0144 H   0  0  0  0  0  0  0  0  0  0  0  0
   -4.0422    1.6933    2.3728 H   0  0  0  0  0  0  0  0  0  0  0  0
   -2.4367    1.1639    3.6779 H   0  0  0  0  0  0  0  0  0  0  0  0
   -1.0070    0.1620    3.7227 H   0  0  0  0  0  0  0  0  0  0  0  0
   -1.1402   -1.6596    1.8249 H   0  0  0  0  0  0  0  0  0  0  0  0
   -3.8432   -2.8882    1.6648 H   0  0  0  0  0  0  0  0  0  0  0  0
   -2.5675   -3.6687    2.6189 H   0  0  0  0  0  0  0  0  0  0  0  0
   -0.4444   -4.8513    0.9996 H   0  0  0  0  0  0  0  0  0  0  0  0
   -0.3475   -5.1676   -1.7146 H   0  0  0  0  0  0  0  0  0  0  0  0
   -2.4615   -3.6477   -2.6550 H   0  0  0  0  0  0  0  0  0  0  0  0
    2.5466    0.6927    1.6756 H   0  0  0  0  0  0  0  0  0  0  0  0
    4.7648    0.1368    0.8663 H   0  0  0  0  0  0  0  0  0  0  0  0
  1  2  1  0
  2  3  1  0
  3  4  2  0
  4  5  1  0
  5  6  2  0
  6  7  1  0
  7  8  1  0
  8  9  2  0
  8 10  1  0
 10 11  2  0
 11 12  1  0
 12 13  2  0
 13 14  1  0
 14 15  2  0
 15 16  1  0
 16 17  1  0
 17 18  1  0
 18 19  2  0
 18 20  1  0
 20 21  1  0
 21 22  1  0
 22 23  2  0
 23 24  1  0
 24 25  2  0
 25 26  1  0
 16 27  1  0
 27 28  2  0
  6 29  1  0
 29 30  2  0
 30  3  1  0
 27  7  1  0
 15 10  1  0
 26 22  1  0
  1 31  1  0
  1 32  1  0
  1 33  1  0
  2 34  1  0
  2 35  1  0
  4 36  1  0
  5 37  1  0
 11 38  1  0
 12 39  1  0
 13 40  1  0
 14 41  1  0
 17 42  1  0
 17 43  1  0
 20 44  1  0
 21 45  1  0
 21 46  1  0
 23 47  1  0
 24 48  1  0
 25 49  1  0
 29 50  1  0
 30 51  1  0
M  END
$$$$
