
     RDKit          3D

 44 46  0  0  0  0  0  0  0  0999 V2000
   -0.8526    2.7455   -1.5001 C   0  0  0  0  0  0  0  0  0  0  0  0
   -2.0314    1.9206   -1.0624 C   0  0  0  0  0  0  0  0  0  0  0  0
   -3.3294    2.3510   -1.3662 C   0  0  0  0  0  0  0  0  0  0  0  0
   -4.4377    1.6010   -0.9720 C   0  0  0  0  0  0  0  0  0  0  0  0
   -4.2737    0.4036   -0.2661 C   0  0  0  0  0  0  0  0  0  0  0  0
   -5.4962   -0.3954    0.1531 C   0  0  0  0  0  0  0  0  0  0  0  0
   -5.6021   -0.5042    1.6763 C   0  0  0  0  0  0  0  0  0  0  0  0
   -5.5131   -1.7816   -0.4960 C   0  0  0  0  0  0  0  0  0  0  0  0
   -2.9700   -0.0271    0.0367 C   0  0  0  0  0  0  0  0  0  0  0  0
   -1.8521    0.7195   -0.3556 C   0  0  0  0  0  0  0  0  0  0  0  0
   -0.5504    0.3728   -0.1036 O   0  0  0  0  0  0  0  0  0  0  0  0
   -0.3169   -0.8410    0.6053 C   0  0  0  0  0  0  0  0  0  0  0  0
    1.1842   -1.0795    0.7969 C   0  0  0  0  0  0  0  0  0  0  0  0
    1.5815   -2.0807    1.3860 O   0  0  0  0  0  0  0  0  0  0  0  0
    1.9543   -0.0794    0.2514 N   0  0  0  0  0  0  0  0  0  0  0  0
    3.3200    0.0182    0.2441 C   0  0  0  0  0  0  0  0  0  0  0  0
    3.9472    1.0314   -0.3142 N   0  0  0  0  0  0  0  0  0  0  0  0
    5.3204    0.9198   -0.2006 N   0  0  0  0  0  0  0  0  0  0  0  0
    5.6600   -0.1799    0.4337 C   0  0  0  0  0  0  0  0  0  0  0  0
    7.1478   -0.5554    0.7110 C   0  0  0  0  0  0  0  0  0  0  0  0
    8.1788   -0.3161   -0.3628 C   0  0  0  0  0  0  0  0  0  0  0  0
    7.7657   -1.7183   -0.0233 C   0  0  0  0  0  0  0  0  0  0  0  0
    4.3482   -1.1440    0.9493 S   0  0  0  0  0  0  0  0  0  0  0  0
   -1.1689    3.6583   -2.0158 H   0  0  0  0  0  0  0  0  0  0  0  0
   -0.2258    2.1726   -2.1913 H   0  0  0  0  0  0  0  0  0  0  0  0
   -0.2564    3.0458   -0.6323 H   0  0  0  0  0  0  0  0  0  0  0  0
   -3.4879    3.2773   -1.9142 H   0  0  0  0  0  0  0  0  0  0  0  0
   -5.4327    1.9629   -1.2228 H   0  0  0  0  0  0  0  0  0  0  0  0
   -6.3942    0.1327   -0.1945 H   0  0  0  0  0  0  0  0  0  0  0  0
   -6.5317   -1.0081    1.9621 H   0  0  0  0  0  0  0  0  0  0  0  0
   -5.6023    0.4883    2.1405 H   0  0  0  0  0  0  0  0  0  0  0  0
   -4.7704   -1.0733    2.1058 H   0  0  0  0  0  0  0  0  0  0  0  0
   -6.4417   -2.3091   -0.2521 H   0  0  0  0  0  0  0  0  0  0  0  0
   -4.6786   -2.4044   -0.1559 H   0  0  0  0  0  0  0  0  0  0  0  0
   -5.4484   -1.7038   -1.5870 H   0  0  0  0  0  0  0  0  0  0  0  0
   -2.8549   -0.9568    0.5845 H   0  0  0  0  0  0  0  0  0  0  0  0
   -0.7637   -0.7882    1.6047 H   0  0  0  0  0  0  0  0  0  0  0  0
   -0.7073   -1.6930    0.0371 H   0  0  0  0  0  0  0  0  0  0  0  0
    1.4711    0.6864   -0.2061 H   0  0  0  0  0  0  0  0  0  0  0  0
    7.4596   -0.3863    1.7361 H   0  0  0  0  0  0  0  0  0  0  0  0
    7.8514    0.0973   -1.3108 H   0  0  0  0  0  0  0  0  0  0  0  0
    9.1620    0.0175   -0.0527 H   0  0  0  0  0  0  0  0  0  0  0  0
    8.4704   -2.3400    0.5168 H   0  0  0  0  0  0  0  0  0  0  0  0
    7.1677   -2.2568   -0.7501 H   0  0  0  0  0  0  0  0  0  0  0  0
  1  2  1  0
  2  3  2  0
  3  4  1  0
  4  5  2  0
  5  6  1  0
  6  7  1  0
  6  8  1  0
  5  9  1  0
  9 10  2  0
 10 11  1  0
 11 12  1  0
 12 13  1  0
 13 14  2  0
 13 15  1  0
 15 16  1  0
 16 17  2  0
 17 18  1  0
 18 19  2  0
 19 20  1  0
 20 21  1  0
 21 22  1  0
 19 23  1  0
 10  2  1  0
 23 16  1  0
 22 20  1  0
  1 24  1  0
  1 25  1  0
  1 26  1  0
  3 27  1  0
  4 28  1  0
  6 29  1  0
  7 30  1  0
  7 31  1  0
  7 32  1  0
  8 33  1  0
  8 34  1  0
  8 35  1  0
  9 36  1  0
 12 37  1  0
 12 38  1  0
 15 39  1  0
 20 40  1  0
 21 41  1  0
 21 42  1  0
 22 43  1  0
 22 44  1  0
M  END
$$$$
