
     RDKit          3D

 34 35  0  0  0  0  0  0  0  0999 V2000
    0.6539   -2.4789    1.8194 C   0  0  0  0  0  0  0  0  0  0  0  0
   -0.2308   -1.9349    0.8038 N   0  0  0  0  0  0  0  0  0  0  0  0
   -0.0214   -0.7757    0.2748 C   0  0  0  0  0  0  0  0  0  0  0  0
    1.1601    0.1011    0.5209 C   0  0  0  0  0  0  0  0  0  0  0  0
    2.4546   -0.3955    0.3302 C   0  0  0  0  0  0  0  0  0  0  0  0
    3.5573    0.4335    0.5398 C   0  0  0  0  0  0  0  0  0  0  0  0
    3.3686    1.7582    0.9339 C   0  0  0  0  0  0  0  0  0  0  0  0
    2.0788    2.2582    1.1154 C   0  0  0  0  0  0  0  0  0  0  0  0
    0.9726    1.4329    0.9063 C   0  0  0  0  0  0  0  0  0  0  0  0
   -1.0676   -0.2484   -0.6578 C   0  0  0  0  0  0  0  0  0  0  0  0
   -0.7827   -0.0825   -2.0302 C   0  0  0  0  0  0  0  0  0  0  0  0
    0.5423   -0.4507   -2.6361 C   0  0  0  0  0  0  0  0  0  0  0  0
   -1.7741    0.4572   -2.8643 C   0  0  0  0  0  0  0  0  0  0  0  0
   -3.0302    0.7871   -2.3591 C   0  0  0  0  0  0  0  0  0  0  0  0
   -3.3165    0.5871   -1.0106 C   0  0  0  0  0  0  0  0  0  0  0  0
   -2.3425    0.0758   -0.1407 C   0  0  0  0  0  0  0  0  0  0  0  0
   -2.7014   -0.1441    1.3039 C   0  0  0  0  0  0  0  0  0  0  0  0
    1.4827   -3.0275    1.3630 H   0  0  0  0  0  0  0  0  0  0  0  0
    1.0402   -1.7184    2.5053 H   0  0  0  0  0  0  0  0  0  0  0  0
    0.0900   -3.1915    2.4302 H   0  0  0  0  0  0  0  0  0  0  0  0
    2.6073   -1.4202    0.0024 H   0  0  0  0  0  0  0  0  0  0  0  0
    4.5629    0.0479    0.3917 H   0  0  0  0  0  0  0  0  0  0  0  0
    4.2285    2.4035    1.0969 H   0  0  0  0  0  0  0  0  0  0  0  0
    1.9347    3.2920    1.4197 H   0  0  0  0  0  0  0  0  0  0  0  0
   -0.0263    1.8344    1.0531 H   0  0  0  0  0  0  0  0  0  0  0  0
    1.2759    0.3400   -2.4543 H   0  0  0  0  0  0  0  0  0  0  0  0
    0.4553   -0.5869   -3.7199 H   0  0  0  0  0  0  0  0  0  0  0  0
    0.9103   -1.3995   -2.2335 H   0  0  0  0  0  0  0  0  0  0  0  0
   -1.5771    0.6098   -3.9236 H   0  0  0  0  0  0  0  0  0  0  0  0
   -3.7926    1.1896   -3.0215 H   0  0  0  0  0  0  0  0  0  0  0  0
   -4.3095    0.8333   -0.6404 H   0  0  0  0  0  0  0  0  0  0  0  0
   -2.8564   -1.2100    1.4973 H   0  0  0  0  0  0  0  0  0  0  0  0
   -1.9214    0.2407    1.9679 H   0  0  0  0  0  0  0  0  0  0  0  0
   -3.6255    0.3825    1.5667 H   0  0  0  0  0  0  0  0  0  0  0  0
  1  2  1  0
  2  3  2  3
  3  4  1  0
  4  5  2  0
  5  6  1  0
  6  7  2  0
  7  8  1  0
  8  9  2  0
  3 10  1  0
 10 11  2  0
 11 12  1  0
 11 13  1  0
 13 14  2  0
 14 15  1  0
 15 16  2  0
 16 17  1  0
  9  4  1  0
 16 10  1  0
  1 18  1  0
  1 19  1  0
  1 20  1  0
  5 21  1  0
  6 22  1  0
  7 23  1  0
  8 24  1  0
  9 25  1  0
 12 26  1  0
 12 27  1  0
 12 28  1  0
 13 29  1  0
 14 30  1  0
 15 31  1  0
 17 32  1  0
 17 33  1  0
 17 34  1  0
M  END
$$$$
