
     RDKit          3D

 65 68  0  0  0  0  0  0  0  0999 V2000
    9.1489   -0.5799    4.2293 C   0  0  0  0  0  0  0  0  0  0  0  0
    8.0791    0.1503    3.5293 C   0  0  0  0  0  0  0  0  0  0  0  0
    6.9246   -0.2222    2.8868 C   0  0  0  0  0  0  0  0  0  0  0  0
    6.3604    0.9922    2.4367 C   0  0  0  0  0  0  0  0  0  0  0  0
    5.2000    1.2101    1.7281 N   0  0  0  0  0  0  0  0  0  0  0  0
    4.3017    0.2363    1.3540 C   0  0  0  0  0  0  0  0  0  0  0  0
    4.3998   -0.9626    1.5962 O   0  0  0  0  0  0  0  0  0  0  0  0
    3.1404    0.8149    0.5710 C   0  0  0  0  0  0  0  0  0  0  0  0
    2.0494   -0.2247    0.3294 C   0  0  0  0  0  0  0  0  0  0  0  0
    0.8484    0.3849   -0.3700 C   0  0  0  0  0  0  0  0  0  0  0  0
    0.9145    1.5345   -0.8153 O   0  0  0  0  0  0  0  0  0  0  0  0
   -0.2981   -0.3951   -0.5190 N   0  0  0  0  0  0  0  0  0  0  0  0
   -0.5310   -1.6206    0.2594 C   0  0  0  0  0  0  0  0  0  0  0  0
    0.2485   -2.7922   -0.2702 C   0  0  0  0  0  0  0  0  0  0  0  0
    1.2169   -3.5337    0.3839 C   0  0  0  0  0  0  0  0  0  0  0  0
    1.7318   -4.5927   -0.4180 C   0  0  0  0  0  0  0  0  0  0  0  0
    1.1256   -4.6437   -1.6511 C   0  0  0  0  0  0  0  0  0  0  0  0
   -0.0627   -3.4301   -1.8319 S   0  0  0  0  0  0  0  0  0  0  0  0
   -1.4858    0.3212   -1.0335 C   0  0  0  0  0  0  0  0  0  0  0  0
   -2.2997    0.9662    0.1278 C   0  0  0  0  0  0  0  0  0  0  0  0
   -2.2338    0.5816    1.2954 O   0  0  0  0  0  0  0  0  0  0  0  0
   -3.1434    1.9896   -0.2722 N   0  0  0  0  0  0  0  0  0  0  0  0
   -4.0836    2.6087    0.6480 C   0  0  0  0  0  0  0  0  0  0  0  0
   -5.3504    1.7709    0.8104 C   0  0  0  0  0  0  0  0  0  0  0  0
   -6.1993    2.1149   -0.4115 C   0  0  0  0  0  0  0  0  0  0  0  0
   -5.7316    3.4933   -0.8799 C   0  0  0  0  0  0  0  0  0  0  0  0
   -4.6294    3.9184    0.0869 C   0  0  0  0  0  0  0  0  0  0  0  0
   -2.3438   -0.5098   -1.9863 C   0  0  0  0  0  0  0  0  0  0  0  0
   -3.5250   -1.1543   -1.5825 C   0  0  0  0  0  0  0  0  0  0  0  0
   -4.2860   -1.8852   -2.4965 C   0  0  0  0  0  0  0  0  0  0  0  0
   -3.8767   -1.9887   -3.8235 C   0  0  0  0  0  0  0  0  0  0  0  0
   -2.7016   -1.3670   -4.2383 C   0  0  0  0  0  0  0  0  0  0  0  0
   -1.9390   -0.6352   -3.3271 C   0  0  0  0  0  0  0  0  0  0  0  0
    7.1241    2.0334    2.7886 N   0  0  0  0  0  0  0  0  0  0  0  0
    8.2032    1.5017    3.4704 O   0  0  0  0  0  0  0  0  0  0  0  0
    9.1120   -1.6483    3.9944 H   0  0  0  0  0  0  0  0  0  0  0  0
   10.1338   -0.2045    3.9354 H   0  0  0  0  0  0  0  0  0  0  0  0
    9.0447   -0.4645    5.3124 H   0  0  0  0  0  0  0  0  0  0  0  0
    6.5505   -1.2274    2.7585 H   0  0  0  0  0  0  0  0  0  0  0  0
    5.0207    2.1833    1.5197 H   0  0  0  0  0  0  0  0  0  0  0  0
    2.7298    1.6646    1.1298 H   0  0  0  0  0  0  0  0  0  0  0  0
    3.5262    1.1898   -0.3841 H   0  0  0  0  0  0  0  0  0  0  0  0
    2.4497   -1.0240   -0.3017 H   0  0  0  0  0  0  0  0  0  0  0  0
    1.7458   -0.6390    1.2948 H   0  0  0  0  0  0  0  0  0  0  0  0
   -1.5943   -1.8798    0.2623 H   0  0  0  0  0  0  0  0  0  0  0  0
   -0.2631   -1.4253    1.3046 H   0  0  0  0  0  0  0  0  0  0  0  0
    1.5494   -3.3218    1.3934 H   0  0  0  0  0  0  0  0  0  0  0  0
    2.5049   -5.2831   -0.1040 H   0  0  0  0  0  0  0  0  0  0  0  0
    1.3165   -5.3420   -2.4548 H   0  0  0  0  0  0  0  0  0  0  0  0
   -1.1430    1.1778   -1.6307 H   0  0  0  0  0  0  0  0  0  0  0  0
   -3.2947    2.1115   -1.2674 H   0  0  0  0  0  0  0  0  0  0  0  0
   -3.5792    2.7584    1.6078 H   0  0  0  0  0  0  0  0  0  0  0  0
   -5.8829    2.0808    1.7186 H   0  0  0  0  0  0  0  0  0  0  0  0
   -5.1623    0.6950    0.8840 H   0  0  0  0  0  0  0  0  0  0  0  0
   -7.2666    2.1089   -0.1694 H   0  0  0  0  0  0  0  0  0  0  0  0
   -6.0372    1.3785   -1.2083 H   0  0  0  0  0  0  0  0  0  0  0  0
   -5.3364    3.4231   -1.8997 H   0  0  0  0  0  0  0  0  0  0  0  0
   -6.5493    4.2188   -0.9005 H   0  0  0  0  0  0  0  0  0  0  0  0
   -5.0692    4.5127    0.8968 H   0  0  0  0  0  0  0  0  0  0  0  0
   -3.8685    4.5301   -0.4064 H   0  0  0  0  0  0  0  0  0  0  0  0
   -3.8699   -1.1011   -0.5515 H   0  0  0  0  0  0  0  0  0  0  0  0
   -5.1998   -2.3783   -2.1716 H   0  0  0  0  0  0  0  0  0  0  0  0
   -4.4688   -2.5605   -4.5323 H   0  0  0  0  0  0  0  0  0  0  0  0
   -2.3786   -1.4537   -5.2711 H   0  0  0  0  0  0  0  0  0  0  0  0
   -1.0165   -0.1652   -3.6657 H   0  0  0  0  0  0  0  0  0  0  0  0
  1  2  1  0
  2  3  2  0
  3  4  1  0
  4  5  1  0
  5  6  1  0
  6  7  2  0
  6  8  1  0
  8  9  1  0
  9 10  1  0
 10 11  2  0
 10 12  1  0
 12 13  1  0
 13 14  1  0
 14 15  2  0
 15 16  1  0
 16 17  2  0
 17 18  1  0
 12 19  1  0
 19 20  1  0
 20 21  2  0
 20 22  1  0
 22 23  1  0
 23 24  1  0
 24 25  1  0
 25 26  1  0
 26 27  1  0
 19 28  1  0
 28 29  2  0
 29 30  1  0
 30 31  2  0
 31 32  1  0
 32 33  2  0
  4 34  2  0
 34 35  1  0
 35  2  1  0
 18 14  1  0
 27 23  1  0
 33 28  1  0
  1 36  1  0
  1 37  1  0
  1 38  1  0
  3 39  1  0
  5 40  1  0
  8 41  1  0
  8 42  1  0
  9 43  1  0
  9 44  1  0
 13 45  1  0
 13 46  1  0
 15 47  1  0
 16 48  1  0
 17 49  1  0
 19 50  1  0
 22 51  1  0
 23 52  1  0
 24 53  1  0
 24 54  1  0
 25 55  1  0
 25 56  1  0
 26 57  1  0
 26 58  1  0
 27 59  1  0
 27 60  1  0
 29 61  1  0
 30 62  1  0
 31 63  1  0
 32 64  1  0
 33 65  1  0
M  END
$$$$
