
     RDKit          3D

 36 37  0  0  0  0  0  0  0  0999 V2000
    6.3640    0.7827    1.7720 C   0  0  0  0  0  0  0  0  0  0  0  0
    5.0936    0.7897    1.1195 O   0  0  0  0  0  0  0  0  0  0  0  0
    4.4099   -0.3768    1.2339 C   0  0  0  0  0  0  0  0  0  0  0  0
    4.7943   -1.3730    1.8264 O   0  0  0  0  0  0  0  0  0  0  0  0
    3.1010   -0.2911    0.5304 C   0  0  0  0  0  0  0  0  0  0  0  0
    2.6820    0.8622   -0.1428 C   0  0  0  0  0  0  0  0  0  0  0  0
    1.4407    0.8879   -0.7873 C   0  0  0  0  0  0  0  0  0  0  0  0
    0.5894   -0.2306   -0.7668 C   0  0  0  0  0  0  0  0  0  0  0  0
   -0.7453   -0.1812   -1.4978 C   0  0  0  0  0  0  0  0  0  0  0  0
   -1.3944    1.0765   -1.2585 O   0  0  0  0  0  0  0  0  0  0  0  0
   -2.2755    0.9915   -0.1413 C   0  0  0  0  0  0  0  0  0  0  0  0
   -3.4431    0.0506   -0.4852 C   0  0  0  0  0  0  0  0  0  0  0  0
   -4.5853    0.8255   -1.1599 C   0  0  0  0  0  0  0  0  0  0  0  0
   -3.9710   -0.5847    0.8105 C   0  0  0  0  0  0  0  0  0  0  0  0
   -2.9321   -1.0312   -1.4518 C   0  0  0  0  0  0  0  0  0  0  0  0
   -1.5654   -1.3076   -1.1644 O   0  0  0  0  0  0  0  0  0  0  0  0
    1.0252   -1.3850   -0.0982 C   0  0  0  0  0  0  0  0  0  0  0  0
    2.2658   -1.4145    0.5472 C   0  0  0  0  0  0  0  0  0  0  0  0
    6.8279    1.7613    1.6201 H   0  0  0  0  0  0  0  0  0  0  0  0
    6.2420    0.6205    2.8475 H   0  0  0  0  0  0  0  0  0  0  0  0
    7.0154    0.0192    1.3352 H   0  0  0  0  0  0  0  0  0  0  0  0
    3.3083    1.7501   -0.1765 H   0  0  0  0  0  0  0  0  0  0  0  0
    1.1320    1.7947   -1.3062 H   0  0  0  0  0  0  0  0  0  0  0  0
   -0.5296   -0.2348   -2.5719 H   0  0  0  0  0  0  0  0  0  0  0  0
   -2.6340    2.0015    0.0858 H   0  0  0  0  0  0  0  0  0  0  0  0
   -1.7118    0.6531    0.7374 H   0  0  0  0  0  0  0  0  0  0  0  0
   -4.2391    1.3322   -2.0678 H   0  0  0  0  0  0  0  0  0  0  0  0
   -4.9955    1.5897   -0.4902 H   0  0  0  0  0  0  0  0  0  0  0  0
   -5.4046    0.1547   -1.4423 H   0  0  0  0  0  0  0  0  0  0  0  0
   -3.1970   -1.1850    1.3019 H   0  0  0  0  0  0  0  0  0  0  0  0
   -4.3012    0.1822    1.5201 H   0  0  0  0  0  0  0  0  0  0  0  0
   -4.8235   -1.2434    0.6100 H   0  0  0  0  0  0  0  0  0  0  0  0
   -3.0194   -0.7282   -2.5033 H   0  0  0  0  0  0  0  0  0  0  0  0
   -3.4994   -1.9619   -1.3422 H   0  0  0  0  0  0  0  0  0  0  0  0
    0.3990   -2.2753   -0.0721 H   0  0  0  0  0  0  0  0  0  0  0  0
    2.5763   -2.3219    1.0624 H   0  0  0  0  0  0  0  0  0  0  0  0
  1  2  1  0
  2  3  1  0
  3  4  2  0
  3  5  1  0
  5  6  2  0
  6  7  1  0
  7  8  2  0
  8  9  1  0
  9 10  1  0
 10 11  1  0
 11 12  1  0
 12 13  1  0
 12 14  1  0
 12 15  1  0
 15 16  1  0
  8 17  1  0
 17 18  2  0
 18  5  1  0
 16  9  1  0
  1 19  1  0
  1 20  1  0
  1 21  1  0
  6 22  1  0
  7 23  1  0
  9 24  1  0
 11 25  1  0
 11 26  1  0
 13 27  1  0
 13 28  1  0
 13 29  1  0
 14 30  1  0
 14 31  1  0
 14 32  1  0
 15 33  1  0
 15 34  1  0
 17 35  1  0
 18 36  1  0
M  END
$$$$
