
     RDKit          3D

 51 55  0  0  0  0  0  0  0  0999 V2000
    2.0972    2.2195   -1.2144 O   0  0  0  0  0  0  0  0  0  0  0  0
    1.3665    1.9234   -0.2710 C   0  0  0  0  0  0  0  0  0  0  0  0
   -0.0061    2.5911   -0.1162 C   0  0  0  0  0  0  0  0  0  0  0  0
   -1.1244    1.6361   -0.1640 N   0  0  0  0  0  0  0  0  0  0  0  0
   -1.4275    0.9279    0.9926 C   0  0  0  0  0  0  0  0  0  0  0  0
   -0.7973    1.0972    2.0427 O   0  0  0  0  0  0  0  0  0  0  0  0
   -2.4844   -0.1428    0.9139 C   0  0  0  0  0  0  0  0  0  0  0  0
   -3.8665    0.4470    1.1166 C   0  0  0  0  0  0  0  0  0  0  0  0
   -4.9040   -0.6280    1.0834 C   0  0  0  0  0  0  0  0  0  0  0  0
   -5.3590   -1.5031    0.1145 C   0  0  0  0  0  0  0  0  0  0  0  0
   -6.3334   -2.3208    0.7338 C   0  0  0  0  0  0  0  0  0  0  0  0
   -6.4246   -1.8826    2.0349 C   0  0  0  0  0  0  0  0  0  0  0  0
   -5.5571   -0.8644    2.2584 O   0  0  0  0  0  0  0  0  0  0  0  0
   -4.3236    1.8017   -0.0297 S   0  0  0  0  0  0  0  0  0  0  0  0
   -3.2622    1.4832   -1.4366 C   0  0  0  0  0  0  0  0  0  0  0  0
   -3.9125    1.3639   -2.6763 C   0  0  0  0  0  0  0  0  0  0  0  0
   -3.1845    1.2560   -3.8599 C   0  0  0  0  0  0  0  0  0  0  0  0
   -1.7975    1.2906   -3.8202 C   0  0  0  0  0  0  0  0  0  0  0  0
   -1.1365    1.4297   -2.5974 C   0  0  0  0  0  0  0  0  0  0  0  0
   -1.8512    1.5117   -1.3895 C   0  0  0  0  0  0  0  0  0  0  0  0
    1.6655    1.0422    0.7531 N   0  0  0  0  0  0  0  0  0  0  0  0
    2.8123    0.2389    0.9044 C   0  0  0  0  0  0  0  0  0  0  0  0
    2.8734   -0.5646    2.0508 C   0  0  0  0  0  0  0  0  0  0  0  0
    3.9743   -1.3917    2.2847 C   0  0  0  0  0  0  0  0  0  0  0  0
    5.0257   -1.4162    1.3739 C   0  0  0  0  0  0  0  0  0  0  0  0
    4.9599   -0.6422    0.2123 C   0  0  0  0  0  0  0  0  0  0  0  0
    3.8626    0.1922   -0.0177 C   0  0  0  0  0  0  0  0  0  0  0  0
    5.9455   -0.6417   -0.7446 O   0  0  0  0  0  0  0  0  0  0  0  0
    6.8339   -1.7522   -0.5813 C   0  0  0  0  0  0  0  0  0  0  0  0
    7.2304   -1.9135    0.8748 C   0  0  0  0  0  0  0  0  0  0  0  0
    6.0873   -2.2261    1.6802 O   0  0  0  0  0  0  0  0  0  0  0  0
   -0.0194    3.1188    0.8466 H   0  0  0  0  0  0  0  0  0  0  0  0
   -0.1272    3.3569   -0.8927 H   0  0  0  0  0  0  0  0  0  0  0  0
   -2.3886   -0.7150   -0.0162 H   0  0  0  0  0  0  0  0  0  0  0  0
   -2.2708   -0.8684    1.7094 H   0  0  0  0  0  0  0  0  0  0  0  0
   -3.8915    0.9210    2.1058 H   0  0  0  0  0  0  0  0  0  0  0  0
   -5.0214   -1.5473   -0.9122 H   0  0  0  0  0  0  0  0  0  0  0  0
   -6.9043   -3.1235    0.2943 H   0  0  0  0  0  0  0  0  0  0  0  0
   -7.0207   -2.1813    2.8863 H   0  0  0  0  0  0  0  0  0  0  0  0
   -4.9996    1.3762   -2.7316 H   0  0  0  0  0  0  0  0  0  0  0  0
   -3.7013    1.1637   -4.8122 H   0  0  0  0  0  0  0  0  0  0  0  0
   -1.2217    1.2144   -4.7409 H   0  0  0  0  0  0  0  0  0  0  0  0
   -0.0483    1.4347   -2.6132 H   0  0  0  0  0  0  0  0  0  0  0  0
    0.9865    1.0000    1.5137 H   0  0  0  0  0  0  0  0  0  0  0  0
    2.0654   -0.5540    2.7816 H   0  0  0  0  0  0  0  0  0  0  0  0
    4.0182   -1.9994    3.1837 H   0  0  0  0  0  0  0  0  0  0  0  0
    3.8584    0.7888   -0.9222 H   0  0  0  0  0  0  0  0  0  0  0  0
    7.7217   -1.5603   -1.1950 H   0  0  0  0  0  0  0  0  0  0  0  0
    6.3404   -2.6529   -0.9670 H   0  0  0  0  0  0  0  0  0  0  0  0
    7.9462   -2.7336    0.9831 H   0  0  0  0  0  0  0  0  0  0  0  0
    7.6956   -1.0013    1.2678 H   0  0  0  0  0  0  0  0  0  0  0  0
  1  2  2  0
  2  3  1  0
  3  4  1  0
  4  5  1  0
  5  6  2  0
  5  7  1  0
  7  8  1  0
  8  9  1  0
  9 10  2  0
 10 11  1  0
 11 12  2  0
 12 13  1  0
  8 14  1  0
 14 15  1  0
 15 16  2  0
 16 17  1  0
 17 18  2  0
 18 19  1  0
 19 20  2  0
  2 21  1  0
 21 22  1  0
 22 23  2  0
 23 24  1  0
 24 25  2  0
 25 26  1  0
 26 27  2  0
 26 28  1  0
 28 29  1  0
 29 30  1  0
 30 31  1  0
 20  4  1  0
 27 22  1  0
 13  9  1  0
 20 15  1  0
 31 25  1  0
  3 32  1  0
  3 33  1  0
  7 34  1  0
  7 35  1  0
  8 36  1  0
 10 37  1  0
 11 38  1  0
 12 39  1  0
 16 40  1  0
 17 41  1  0
 18 42  1  0
 19 43  1  0
 21 44  1  0
 23 45  1  0
 24 46  1  0
 27 47  1  0
 29 48  1  0
 29 49  1  0
 30 50  1  0
 30 51  1  0
M  END
$$$$
