
     RDKit          3D

 53 55  0  0  0  0  0  0  0  0999 V2000
    9.2092   -0.8750    1.9119 C   0  0  0  0  0  0  0  0  0  0  0  0
    8.4901    0.3214    1.6385 O   0  0  0  0  0  0  0  0  0  0  0  0
    7.1251    0.2393    1.6433 C   0  0  0  0  0  0  0  0  0  0  0  0
    6.3735   -0.9219    1.8423 C   0  0  0  0  0  0  0  0  0  0  0  0
    4.9756   -0.8686    1.8199 C   0  0  0  0  0  0  0  0  0  0  0  0
    4.3350    0.3518    1.5946 C   0  0  0  0  0  0  0  0  0  0  0  0
    2.5639    0.4381    1.5549 S   0  0  0  0  0  6  0  0  0  0  0  0
    2.0344   -0.8985    1.7219 O   0  0  0  0  0  0  0  0  0  0  0  0
    2.1599    1.5244    2.4188 O   0  0  0  0  0  0  0  0  0  0  0  0
    2.2588    0.8925   -0.0260 N   0  0  0  0  0  0  0  0  0  0  0  0
    2.6738    0.0063   -1.1233 C   0  0  0  0  0  0  0  0  0  0  0  0
    1.4846   -0.0048   -2.0601 C   0  0  0  0  0  0  0  0  0  0  0  0
    0.7879    1.2124   -1.7785 O   0  0  0  0  0  0  0  0  0  0  0  0
    0.9262    1.4242   -0.3543 C   0  0  0  0  0  0  0  0  0  0  0  0
   -0.2710    0.7557    0.3629 C   0  0  0  0  0  0  0  0  0  0  0  0
   -1.5444    1.1869   -0.1917 N   0  0  0  0  0  0  0  0  0  0  0  0
   -2.7377    0.9188    0.4355 C   0  0  0  0  0  0  0  0  0  0  0  0
   -2.8756    0.4674    1.5631 O   0  0  0  0  0  0  0  0  0  0  0  0
   -3.9779    1.2218   -0.4357 C   0  0  0  0  0  0  0  0  0  0  0  0
   -3.8397    1.5584   -1.6038 O   0  0  0  0  0  0  0  0  0  0  0  0
   -5.1687    1.0565    0.2293 N   0  0  0  0  0  0  0  0  0  0  0  0
   -6.4419    1.1226   -0.4397 C   0  0  0  0  0  0  0  0  0  0  0  0
   -6.8794   -0.2386   -0.9165 C   0  0  0  0  0  0  0  0  0  0  0  0
   -6.5722   -0.6273   -2.2334 C   0  0  0  0  0  0  0  0  0  0  0  0
   -6.9401   -1.8847   -2.7152 C   0  0  0  0  0  0  0  0  0  0  0  0
   -7.6135   -2.7776   -1.8867 C   0  0  0  0  0  0  0  0  0  0  0  0
   -7.9132   -2.4150   -0.5744 C   0  0  0  0  0  0  0  0  0  0  0  0
   -7.5447   -1.1561   -0.0888 C   0  0  0  0  0  0  0  0  0  0  0  0
   -7.9264   -0.7900    1.5563 Cl  0  0  0  0  0  0  0  0  0  0  0  0
    5.0750    1.5197    1.4018 C   0  0  0  0  0  0  0  0  0  0  0  0
    6.4689    1.4555    1.4233 C   0  0  0  0  0  0  0  0  0  0  0  0
    8.9700   -1.2614    2.9083 H   0  0  0  0  0  0  0  0  0  0  0  0
   10.2766   -0.6344    1.8956 H   0  0  0  0  0  0  0  0  0  0  0  0
    9.0256   -1.6296    1.1397 H   0  0  0  0  0  0  0  0  0  0  0  0
    6.8442   -1.8835    2.0198 H   0  0  0  0  0  0  0  0  0  0  0  0
    4.4014   -1.7784    1.9824 H   0  0  0  0  0  0  0  0  0  0  0  0
    3.5456    0.4542   -1.6127 H   0  0  0  0  0  0  0  0  0  0  0  0
    2.9372   -1.0067   -0.8084 H   0  0  0  0  0  0  0  0  0  0  0  0
    1.7764   -0.0361   -3.1133 H   0  0  0  0  0  0  0  0  0  0  0  0
    0.8173   -0.8495   -1.8573 H   0  0  0  0  0  0  0  0  0  0  0  0
    0.9057    2.5066   -0.1891 H   0  0  0  0  0  0  0  0  0  0  0  0
   -0.2419   -0.3338    0.2462 H   0  0  0  0  0  0  0  0  0  0  0  0
   -0.2713    0.9751    1.4355 H   0  0  0  0  0  0  0  0  0  0  0  0
   -1.5985    1.3912   -1.1892 H   0  0  0  0  0  0  0  0  0  0  0  0
   -5.1141    0.6596    1.1642 H   0  0  0  0  0  0  0  0  0  0  0  0
   -7.1693    1.5563    0.2535 H   0  0  0  0  0  0  0  0  0  0  0  0
   -6.3751    1.8155   -1.2870 H   0  0  0  0  0  0  0  0  0  0  0  0
   -6.0321    0.0539   -2.8909 H   0  0  0  0  0  0  0  0  0  0  0  0
   -6.6946   -2.1676   -3.7359 H   0  0  0  0  0  0  0  0  0  0  0  0
   -7.8987   -3.7585   -2.2591 H   0  0  0  0  0  0  0  0  0  0  0  0
   -8.4299   -3.1223    0.0696 H   0  0  0  0  0  0  0  0  0  0  0  0
    4.5771    2.4727    1.2374 H   0  0  0  0  0  0  0  0  0  0  0  0
    7.0527    2.3612    1.2723 H   0  0  0  0  0  0  0  0  0  0  0  0
  1  2  1  0
  2  3  1  0
  3  4  2  0
  4  5  1  0
  5  6  2  0
  6  7  1  0
  7  8  2  0
  7  9  2  0
  7 10  1  0
 10 11  1  0
 11 12  1  0
 12 13  1  0
 13 14  1  0
 14 15  1  0
 15 16  1  0
 16 17  1  0
 17 18  2  0
 17 19  1  0
 19 20  2  0
 19 21  1  0
 21 22  1  0
 22 23  1  0
 23 24  2  0
 24 25  1  0
 25 26  2  0
 26 27  1  0
 27 28  2  0
 28 29  1  0
  6 30  1  0
 30 31  2  0
 31  3  1  0
 14 10  1  0
 28 23  1  0
  1 32  1  0
  1 33  1  0
  1 34  1  0
  4 35  1  0
  5 36  1  0
 11 37  1  0
 11 38  1  0
 12 39  1  0
 12 40  1  0
 14 41  1  0
 15 42  1  0
 15 43  1  0
 16 44  1  0
 21 45  1  0
 22 46  1  0
 22 47  1  0
 24 48  1  0
 25 49  1  0
 26 50  1  0
 27 51  1  0
 30 52  1  0
 31 53  1  0
M  END
$$$$
