
     RDKit          3D

 55 58  0  0  0  0  0  0  0  0999 V2000
    5.1204   -2.6745    1.3953 C   0  0  0  0  0  0  0  0  0  0  0  0
    5.6596   -1.3100    0.9903 C   0  0  0  0  0  0  0  0  0  0  0  0
    4.6365   -0.2693    1.1519 N   0  0  0  0  0  0  0  0  0  0  0  0
    4.6195    0.4160    2.4502 C   0  0  0  0  0  0  0  0  0  0  0  0
    5.4749    1.6745    2.4144 C   0  0  0  0  0  0  0  0  0  0  0  0
    3.7290    0.0394    0.1425 C   0  0  0  0  0  0  0  0  0  0  0  0
    2.8236    1.1104    0.2466 C   0  0  0  0  0  0  0  0  0  0  0  0
    1.9037    1.4255   -0.7663 C   0  0  0  0  0  0  0  0  0  0  0  0
    1.8487    0.6673   -1.9321 C   0  0  0  0  0  0  0  0  0  0  0  0
    0.9113    0.9889   -3.0116 C   0  0  0  0  0  0  0  0  0  0  0  0
   -0.4325    0.9243   -2.9851 C   0  0  0  0  0  0  0  0  0  0  0  0
   -1.3284    0.4742   -1.9052 C   0  0  0  0  0  0  0  0  0  0  0  0
   -2.6885    0.7285   -1.9829 C   0  0  0  0  0  0  0  0  0  0  0  0
   -3.5326    0.2854   -0.9553 C   0  0  0  0  0  0  0  0  0  0  0  0
   -4.9709    0.5716   -1.0560 C   0  0  0  0  0  0  0  0  0  0  0  0
   -5.8380   -0.3324   -1.6888 C   0  0  0  0  0  0  0  0  0  0  0  0
   -7.2043   -0.0599   -1.7853 C   0  0  0  0  0  0  0  0  0  0  0  0
   -7.7193    1.1201   -1.2518 C   0  0  0  0  0  0  0  0  0  0  0  0
   -6.8702    2.0287   -0.6227 C   0  0  0  0  0  0  0  0  0  0  0  0
   -5.5038    1.7566   -0.5260 C   0  0  0  0  0  0  0  0  0  0  0  0
   -2.9692   -0.4171    0.1398 C   0  0  0  0  0  0  0  0  0  0  0  0
   -3.7154   -0.9097    1.2392 C   0  0  0  0  0  0  0  0  0  0  0  0
   -3.0958   -1.5914    2.2860 C   0  0  0  0  0  0  0  0  0  0  0  0
   -1.7233   -1.7922    2.2529 C   0  0  0  0  0  0  0  0  0  0  0  0
   -0.9811   -1.3109    1.1728 C   0  0  0  0  0  0  0  0  0  0  0  0
   -1.5759   -0.6307    0.1192 C   0  0  0  0  0  0  0  0  0  0  0  0
   -0.7886   -0.2039   -0.8766 N   0  0  0  0  0  0  0  0  0  0  0  0
    2.7373   -0.3935   -2.0742 C   0  0  0  0  0  0  0  0  0  0  0  0
    3.6530   -0.6972   -1.0534 C   0  0  0  0  0  0  0  0  0  0  0  0
    4.2703   -2.9753    0.7755 H   0  0  0  0  0  0  0  0  0  0  0  0
    4.7862   -2.6718    2.4380 H   0  0  0  0  0  0  0  0  0  0  0  0
    5.9011   -3.4348    1.2919 H   0  0  0  0  0  0  0  0  0  0  0  0
    6.0624   -1.3325   -0.0285 H   0  0  0  0  0  0  0  0  0  0  0  0
    6.5241   -1.0777    1.6254 H   0  0  0  0  0  0  0  0  0  0  0  0
    3.5995    0.6431    2.7799 H   0  0  0  0  0  0  0  0  0  0  0  0
    5.0202   -0.2508    3.2246 H   0  0  0  0  0  0  0  0  0  0  0  0
    6.5127    1.4367    2.1585 H   0  0  0  0  0  0  0  0  0  0  0  0
    5.1084    2.3940    1.6760 H   0  0  0  0  0  0  0  0  0  0  0  0
    5.4706    2.1623    3.3940 H   0  0  0  0  0  0  0  0  0  0  0  0
    2.8044    1.7464    1.1250 H   0  0  0  0  0  0  0  0  0  0  0  0
    1.2217    2.2595   -0.6224 H   0  0  0  0  0  0  0  0  0  0  0  0
    1.3967    1.3210   -3.9272 H   0  0  0  0  0  0  0  0  0  0  0  0
   -0.9510    1.2335   -3.8901 H   0  0  0  0  0  0  0  0  0  0  0  0
   -3.1021    1.2710   -2.8279 H   0  0  0  0  0  0  0  0  0  0  0  0
   -5.4490   -1.2586   -2.1076 H   0  0  0  0  0  0  0  0  0  0  0  0
   -7.8655   -0.7693   -2.2763 H   0  0  0  0  0  0  0  0  0  0  0  0
   -8.7829    1.3319   -1.3267 H   0  0  0  0  0  0  0  0  0  0  0  0
   -7.2707    2.9497   -0.2065 H   0  0  0  0  0  0  0  0  0  0  0  0
   -4.8520    2.4738   -0.0306 H   0  0  0  0  0  0  0  0  0  0  0  0
   -4.7927   -0.7625    1.2853 H   0  0  0  0  0  0  0  0  0  0  0  0
   -3.6846   -1.9615    3.1210 H   0  0  0  0  0  0  0  0  0  0  0  0
   -1.2240   -2.3205    3.0603 H   0  0  0  0  0  0  0  0  0  0  0  0
    0.0961   -1.4674    1.1491 H   0  0  0  0  0  0  0  0  0  0  0  0
    2.7206   -1.0080   -2.9706 H   0  0  0  0  0  0  0  0  0  0  0  0
    4.2995   -1.5509   -1.2272 H   0  0  0  0  0  0  0  0  0  0  0  0
  1  2  1  0
  2  3  1  0
  3  4  1  0
  4  5  1  0
  3  6  1  0
  6  7  2  0
  7  8  1  0
  8  9  2  0
  9 10  1  0
 10 11  2  3
 11 12  1  0
 12 13  2  0
 13 14  1  0
 14 15  1  0
 15 16  2  0
 16 17  1  0
 17 18  2  0
 18 19  1  0
 19 20  2  0
 14 21  2  0
 21 22  1  0
 22 23  2  0
 23 24  1  0
 24 25  2  0
 25 26  1  0
 26 27  2  0
  9 28  1  0
 28 29  2  0
 29  6  1  0
 27 12  1  0
 20 15  1  0
 26 21  1  0
  1 30  1  0
  1 31  1  0
  1 32  1  0
  2 33  1  0
  2 34  1  0
  4 35  1  0
  4 36  1  0
  5 37  1  0
  5 38  1  0
  5 39  1  0
  7 40  1  0
  8 41  1  0
 10 42  1  0
 11 43  1  0
 13 44  1  0
 16 45  1  0
 17 46  1  0
 18 47  1  0
 19 48  1  0
 20 49  1  0
 22 50  1  0
 23 51  1  0
 24 52  1  0
 25 53  1  0
 28 54  1  0
 29 55  1  0
M  END
$$$$
