
     RDKit          3D

 60 65  0  0  0  0  0  0  0  0999 V2000
    4.1123    3.6869   -3.0217 O   0  0  0  0  0  0  0  0  0  0  0  0
    3.8049    2.6263   -2.4898 C   0  0  0  0  0  0  0  0  0  0  0  0
    2.5285    2.3908   -1.9931 N   0  0  0  0  0  0  0  0  0  0  0  0
    2.1218    1.1919   -1.4092 C   0  0  0  0  0  0  0  0  0  0  0  0
    0.6811    1.1868   -0.9237 C   0  0  0  0  0  0  0  0  0  0  0  0
    0.1452   -0.2304   -0.7003 C   0  0  0  0  0  0  0  0  0  0  0  0
   -1.3033   -0.1942   -0.2232 C   0  0  0  0  0  0  0  0  0  0  0  0
   -1.5209    0.8006    0.8646 N   0  0  0  0  0  0  0  0  0  0  0  0
   -2.7807    1.9284    0.6159 S   0  0  0  0  0  6  0  0  0  0  0  0
   -2.9148    2.7391    1.8061 O   0  0  0  0  0  0  0  0  0  0  0  0
   -2.5582    2.5319   -0.6822 O   0  0  0  0  0  0  0  0  0  0  0  0
   -4.2112    0.8835    0.5264 C   0  0  0  0  0  0  0  0  0  0  0  0
   -4.5894    0.1579    1.6629 C   0  0  0  0  0  0  0  0  0  0  0  0
   -5.7053   -0.6775    1.6051 C   0  0  0  0  0  0  0  0  0  0  0  0
   -6.4331   -0.7805    0.4195 C   0  0  0  0  0  0  0  0  0  0  0  0
   -6.0673   -0.0240   -0.7022 C   0  0  0  0  0  0  0  0  0  0  0  0
   -4.9472    0.8024   -0.6582 C   0  0  0  0  0  0  0  0  0  0  0  0
   -6.7614   -0.0537   -1.8851 O   0  0  0  0  0  0  0  0  0  0  0  0
   -8.0608   -0.6318   -1.7110 C   0  0  0  0  0  0  0  0  0  0  0  0
   -7.9708   -1.9123   -0.8964 C   0  0  0  0  0  0  0  0  0  0  0  0
   -7.5030   -1.6380    0.4300 O   0  0  0  0  0  0  0  0  0  0  0  0
   -0.2751    1.3656    1.4338 C   0  0  0  0  0  0  0  0  0  0  0  0
    0.5630    2.0390    0.3530 C   0  0  0  0  0  0  0  0  0  0  0  0
    2.9022    0.1604   -1.2383 N   0  0  0  0  0  0  0  0  0  0  0  0
    4.1603    0.3729   -1.6965 C   0  0  0  0  0  0  0  0  0  0  0  0
    4.6728    1.4956   -2.3004 C   0  0  0  0  0  0  0  0  0  0  0  0
    5.9832    1.3124   -2.6190 N   0  0  0  0  0  0  0  0  0  0  0  0
    6.3213    0.0864   -2.2178 N   0  0  0  0  0  0  0  0  0  0  0  0
    5.2289   -0.4753   -1.6437 N   0  0  0  0  0  0  0  0  0  0  0  0
    5.2782   -1.8177   -1.1038 C   0  0  0  0  0  0  0  0  0  0  0  0
    5.4562   -1.8017    0.3947 C   0  0  0  0  0  0  0  0  0  0  0  0
    6.7312   -1.6385    0.9615 C   0  0  0  0  0  0  0  0  0  0  0  0
    6.8940   -1.6011    2.3496 C   0  0  0  0  0  0  0  0  0  0  0  0
    5.7843   -1.7197    3.1848 C   0  0  0  0  0  0  0  0  0  0  0  0
    4.5214   -1.8729    2.6261 C   0  0  0  0  0  0  0  0  0  0  0  0
    3.4525   -1.9777    3.4275 F   0  0  0  0  0  0  0  0  0  0  0  0
    4.3468   -1.9146    1.2461 C   0  0  0  0  0  0  0  0  0  0  0  0
    1.8811    3.1585   -2.1063 H   0  0  0  0  0  0  0  0  0  0  0  0
    0.0770    1.6607   -1.7100 H   0  0  0  0  0  0  0  0  0  0  0  0
    0.2097   -0.8140   -1.6270 H   0  0  0  0  0  0  0  0  0  0  0  0
    0.7615   -0.7636    0.0355 H   0  0  0  0  0  0  0  0  0  0  0  0
   -1.5949   -1.1815    0.1526 H   0  0  0  0  0  0  0  0  0  0  0  0
   -1.9471    0.0179   -1.0837 H   0  0  0  0  0  0  0  0  0  0  0  0
   -4.0185    0.2395    2.5861 H   0  0  0  0  0  0  0  0  0  0  0  0
   -6.0035   -1.2529    2.4783 H   0  0  0  0  0  0  0  0  0  0  0  0
   -4.6676    1.3803   -1.5356 H   0  0  0  0  0  0  0  0  0  0  0  0
   -8.4654   -0.8435   -2.7059 H   0  0  0  0  0  0  0  0  0  0  0  0
   -8.7105    0.1086   -1.2271 H   0  0  0  0  0  0  0  0  0  0  0  0
   -7.2912   -2.6373   -1.3621 H   0  0  0  0  0  0  0  0  0  0  0  0
   -8.9583   -2.3767   -0.8101 H   0  0  0  0  0  0  0  0  0  0  0  0
   -0.4970    2.0708    2.2414 H   0  0  0  0  0  0  0  0  0  0  0  0
    0.2893    0.5532    1.9089 H   0  0  0  0  0  0  0  0  0  0  0  0
    1.5487    2.2752    0.7736 H   0  0  0  0  0  0  0  0  0  0  0  0
    0.1140    3.0049    0.0881 H   0  0  0  0  0  0  0  0  0  0  0  0
    4.3515   -2.3297   -1.3886 H   0  0  0  0  0  0  0  0  0  0  0  0
    6.1029   -2.3555   -1.5864 H   0  0  0  0  0  0  0  0  0  0  0  0
    7.6076   -1.5283    0.3225 H   0  0  0  0  0  0  0  0  0  0  0  0
    7.8859   -1.4722    2.7769 H   0  0  0  0  0  0  0  0  0  0  0  0
    5.8958   -1.6873    4.2640 H   0  0  0  0  0  0  0  0  0  0  0  0
    3.3415   -2.0240    0.8485 H   0  0  0  0  0  0  0  0  0  0  0  0
  1  2  2  0
  2  3  1  0
  3  4  1  0
  4  5  1  0
  5  6  1  0
  6  7  1  0
  7  8  1  0
  8  9  1  0
  9 10  2  0
  9 11  2  0
  9 12  1  0
 12 13  2  0
 13 14  1  0
 14 15  2  0
 15 16  1  0
 16 17  2  0
 16 18  1  0
 18 19  1  0
 19 20  1  0
 20 21  1  0
  8 22  1  0
 22 23  1  0
  4 24  2  0
 24 25  1  0
 25 26  2  0
 26 27  1  0
 27 28  2  0
 28 29  1  0
 29 30  1  0
 30 31  1  0
 31 32  2  0
 32 33  1  0
 33 34  2  0
 34 35  1  0
 35 36  1  0
 35 37  2  0
 26  2  1  0
 37 31  1  0
 23  5  1  0
 29 25  1  0
 17 12  1  0
 21 15  1  0
  3 38  1  0
  5 39  1  0
  6 40  1  0
  6 41  1  0
  7 42  1  0
  7 43  1  0
 13 44  1  0
 14 45  1  0
 17 46  1  0
 19 47  1  0
 19 48  1  0
 20 49  1  0
 20 50  1  0
 22 51  1  0
 22 52  1  0
 23 53  1  0
 23 54  1  0
 30 55  1  0
 30 56  1  0
 32 57  1  0
 33 58  1  0
 34 59  1  0
 37 60  1  0
M  END
$$$$
