
     RDKit          3D

 31 33  0  0  0  0  0  0  0  0999 V2000
    4.8844    1.2808   -2.2773 C   0  0  0  0  0  0  0  0  0  0  0  0
    4.1663    1.5958   -1.0654 N   0  0  0  0  0  0  0  0  0  0  0  0
    4.5861    2.4038   -0.0523 C   0  0  0  0  0  0  0  0  0  0  0  0
    3.5751    2.4004    0.8784 C   0  0  0  0  0  0  0  0  0  0  0  0
    2.5718    1.5549    0.3407 C   0  0  0  0  0  0  0  0  0  0  0  0
    1.2705    1.2084    0.9449 C   0  0  0  0  0  0  0  0  0  0  0  0
    0.9366    1.6577    2.0338 O   0  0  0  0  0  0  0  0  0  0  0  0
    0.5599    0.3544    0.1213 N   0  0  0  0  0  0  0  0  0  0  0  0
   -0.6927   -0.1929    0.3318 C   0  0  0  0  0  0  0  0  0  0  0  0
   -1.5850    0.1535    1.7616 S   0  0  0  0  0  0  0  0  0  0  0  0
   -2.8465   -0.8117    1.2523 C   0  0  0  0  0  0  0  0  0  0  0  0
   -2.6402   -1.4010    0.0375 C   0  0  0  0  0  0  0  0  0  0  0  0
   -1.3870   -1.0515   -0.5150 C   0  0  0  0  0  0  0  0  0  0  0  0
   -0.8915   -1.5148   -1.7744 C   0  0  0  0  0  0  0  0  0  0  0  0
   -0.4835   -1.8868   -2.7952 N   0  0  0  0  0  0  0  0  0  0  0  0
   -3.7981   -2.2459   -0.3493 C   0  0  0  0  0  0  0  0  0  0  0  0
   -4.8920   -1.7957    0.6706 C   0  0  0  0  0  0  0  0  0  0  0  0
   -4.1461   -1.1471    1.8778 C   0  0  0  0  0  0  0  0  0  0  0  0
    2.9461    1.0624   -0.8607 N   0  0  0  0  0  0  0  0  0  0  0  0
    5.0396    0.1997   -2.3140 H   0  0  0  0  0  0  0  0  0  0  0  0
    5.8477    1.7968   -2.2742 H   0  0  0  0  0  0  0  0  0  0  0  0
    4.2851    1.6133   -3.1285 H   0  0  0  0  0  0  0  0  0  0  0  0
    5.5445    2.9037   -0.0726 H   0  0  0  0  0  0  0  0  0  0  0  0
    3.5466    2.9287    1.8217 H   0  0  0  0  0  0  0  0  0  0  0  0
    1.0565    0.1239   -0.7390 H   0  0  0  0  0  0  0  0  0  0  0  0
   -4.1241   -2.0751   -1.3790 H   0  0  0  0  0  0  0  0  0  0  0  0
   -3.5611   -3.3062   -0.2129 H   0  0  0  0  0  0  0  0  0  0  0  0
   -5.5396   -2.6229    0.9774 H   0  0  0  0  0  0  0  0  0  0  0  0
   -5.5292   -1.0373    0.1966 H   0  0  0  0  0  0  0  0  0  0  0  0
   -4.6857   -0.2739    2.2542 H   0  0  0  0  0  0  0  0  0  0  0  0
   -4.0142   -1.8758    2.6841 H   0  0  0  0  0  0  0  0  0  0  0  0
  1  2  1  0
  2  3  1  0
  3  4  2  0
  4  5  1  0
  5  6  1  0
  6  7  2  0
  6  8  1  0
  8  9  1  0
  9 10  1  0
 10 11  1  0
 11 12  2  0
 12 13  1  0
 13 14  1  0
 14 15  3  0
 12 16  1  0
 16 17  1  0
 17 18  1  0
  5 19  2  0
 19  2  1  0
 13  9  2  0
 18 11  1  0
  1 20  1  0
  1 21  1  0
  1 22  1  0
  3 23  1  0
  4 24  1  0
  8 25  1  0
 16 26  1  0
 16 27  1  0
 17 28  1  0
 17 29  1  0
 18 30  1  0
 18 31  1  0
M  END
$$$$
