
     RDKit          3D

 32 33  0  0  0  0  0  0  0  0999 V2000
   -5.1845   -0.6129    0.9391 C   0  0  0  0  0  0  0  0  0  0  0  0
   -3.8871   -0.4435    0.2043 C   0  0  0  0  0  0  0  0  0  0  0  0
   -2.9584   -1.4906    0.1550 C   0  0  0  0  0  0  0  0  0  0  0  0
   -1.7639   -1.3457   -0.5570 C   0  0  0  0  0  0  0  0  0  0  0  0
   -0.6724   -2.6849   -0.6008 Cl  0  0  0  0  0  0  0  0  0  0  0  0
   -1.4772   -0.1462   -1.2212 C   0  0  0  0  0  0  0  0  0  0  0  0
   -0.3154   -0.0180   -1.9414 O   0  0  0  0  0  0  0  0  0  0  0  0
    0.7443    0.4817   -1.1121 C   0  0  0  0  0  0  0  0  0  0  0  0
    2.0578    0.2239   -1.8456 C   0  0  0  0  0  0  0  0  0  0  0  0
    3.2626    0.8531   -1.1542 C   0  0  0  0  0  0  0  0  0  0  0  0
    3.5166    0.3280    0.1699 N   0  0  0  0  0  0  0  0  0  0  0  0
    3.2808    0.9683    1.3538 C   0  0  0  0  0  0  0  0  0  0  0  0
    3.6922    0.0820    2.3219 C   0  0  0  0  0  0  0  0  0  0  0  0
    4.1746   -1.0686    1.7542 N   0  0  0  0  0  0  0  0  0  0  0  0
    4.0618   -0.8901    0.4573 C   0  0  0  0  0  0  0  0  0  0  0  0
   -2.4236    0.8840   -1.2124 C   0  0  0  0  0  0  0  0  0  0  0  0
   -2.1506    2.5008   -2.1697 Br  0  0  0  0  0  0  0  0  0  0  0  0
   -3.6190    0.7375   -0.4999 C   0  0  0  0  0  0  0  0  0  0  0  0
   -5.0621   -1.2807    1.7983 H   0  0  0  0  0  0  0  0  0  0  0  0
   -5.9416   -1.0321    0.2694 H   0  0  0  0  0  0  0  0  0  0  0  0
   -5.5435    0.3477    1.3233 H   0  0  0  0  0  0  0  0  0  0  0  0
   -3.1683   -2.4270    0.6683 H   0  0  0  0  0  0  0  0  0  0  0  0
    0.6067    1.5580   -0.9575 H   0  0  0  0  0  0  0  0  0  0  0  0
    0.7537   -0.0165   -0.1352 H   0  0  0  0  0  0  0  0  0  0  0  0
    2.1992   -0.8584   -1.9590 H   0  0  0  0  0  0  0  0  0  0  0  0
    1.9839    0.6214   -2.8657 H   0  0  0  0  0  0  0  0  0  0  0  0
    4.1688    0.6774   -1.7457 H   0  0  0  0  0  0  0  0  0  0  0  0
    3.1351    1.9385   -1.0690 H   0  0  0  0  0  0  0  0  0  0  0  0
    2.8581    1.9611    1.4148 H   0  0  0  0  0  0  0  0  0  0  0  0
    3.6696    0.2115    3.3962 H   0  0  0  0  0  0  0  0  0  0  0  0
    4.3529   -1.6027   -0.3038 H   0  0  0  0  0  0  0  0  0  0  0  0
   -4.3511    1.5431   -0.4977 H   0  0  0  0  0  0  0  0  0  0  0  0
  1  2  1  0
  2  3  2  0
  3  4  1  0
  4  5  1  0
  4  6  2  0
  6  7  1  0
  7  8  1  0
  8  9  1  0
  9 10  1  0
 10 11  1  0
 11 12  1  0
 12 13  2  0
 13 14  1  0
 14 15  2  0
  6 16  1  0
 16 17  1  0
 16 18  2  0
 18  2  1  0
 15 11  1  0
  1 19  1  0
  1 20  1  0
  1 21  1  0
  3 22  1  0
  8 23  1  0
  8 24  1  0
  9 25  1  0
  9 26  1  0
 10 27  1  0
 10 28  1  0
 12 29  1  0
 13 30  1  0
 15 31  1  0
 18 32  1  0
M  END
$$$$
