
     RDKit          3D

 61 65  0  0  0  0  0  0  0  0999 V2000
   -8.5874   -0.4446   -0.6125 C   0  0  0  0  0  0  0  0  0  0  0  0
   -7.5508   -0.7766    0.3023 O   0  0  0  0  0  0  0  0  0  0  0  0
   -6.3266   -0.1951    0.0841 C   0  0  0  0  0  0  0  0  0  0  0  0
   -5.9120    0.3155   -1.1495 C   0  0  0  0  0  0  0  0  0  0  0  0
   -4.6404    0.8834   -1.2888 C   0  0  0  0  0  0  0  0  0  0  0  0
   -3.7634    0.9549   -0.1980 C   0  0  0  0  0  0  0  0  0  0  0  0
   -2.4489    1.5813   -0.3060 C   0  0  0  0  0  0  0  0  0  0  0  0
   -1.5981    1.9017    0.6507 N   0  0  0  0  0  0  0  0  0  0  0  0
   -0.5437    2.5029   -0.0103 C   0  0  0  0  0  0  0  0  0  0  0  0
    0.5972    3.0510    0.7685 C   0  0  0  0  0  0  0  0  0  0  0  0
    1.8928    2.6233    0.2614 N   0  0  0  0  0  0  0  0  0  0  0  0
    2.5125    1.4124    0.4664 C   0  0  0  0  0  0  0  0  0  0  0  0
    1.7500    0.0771    1.2657 S   0  0  0  0  0  0  0  0  0  0  0  0
    3.1728   -0.7617    2.0114 C   0  0  0  0  0  0  0  0  0  0  0  0
    3.6251   -1.9785    1.2452 C   0  0  0  0  0  0  0  0  0  0  0  0
    4.5616   -1.8620    0.2077 C   0  0  0  0  0  0  0  0  0  0  0  0
    5.0179   -2.9938   -0.4732 C   0  0  0  0  0  0  0  0  0  0  0  0
    4.5509   -4.2671   -0.1298 C   0  0  0  0  0  0  0  0  0  0  0  0
    5.0571   -5.4778   -0.8606 C   0  0  0  0  0  0  0  0  0  0  0  0
    3.5862   -4.3852    0.8760 C   0  0  0  0  0  0  0  0  0  0  0  0
    3.1269   -3.2513    1.5581 C   0  0  0  0  0  0  0  0  0  0  0  0
    3.7348    1.4073   -0.0053 N   0  0  0  0  0  0  0  0  0  0  0  0
    3.9151    2.6398   -0.5775 C   0  0  0  0  0  0  0  0  0  0  0  0
    5.0280    3.1512   -1.2434 C   0  0  0  0  0  0  0  0  0  0  0  0
    4.9029    4.4437   -1.7244 C   0  0  0  0  0  0  0  0  0  0  0  0
    3.8021    5.2144   -1.5808 N   0  0  0  0  0  0  0  0  0  0  0  0
    2.7295    4.7245   -0.9149 C   0  0  0  0  0  0  0  0  0  0  0  0
    2.7827    3.4275   -0.4240 C   0  0  0  0  0  0  0  0  0  0  0  0
   -0.8071    2.5149   -1.3668 C   0  0  0  0  0  0  0  0  0  0  0  0
   -0.1163    3.0089   -2.5708 C   0  0  0  0  0  0  0  0  0  0  0  0
   -2.0273    1.9300   -1.5618 O   0  0  0  0  0  0  0  0  0  0  0  0
   -4.1807    0.4300    1.0359 C   0  0  0  0  0  0  0  0  0  0  0  0
   -5.4429   -0.1613    1.1786 C   0  0  0  0  0  0  0  0  0  0  0  0
   -5.9091   -0.6896    2.3576 O   0  0  0  0  0  0  0  0  0  0  0  0
   -4.9273   -1.0935    3.3037 C   0  0  0  0  0  0  0  0  0  0  0  0
   -8.4297   -0.9381   -1.5771 H   0  0  0  0  0  0  0  0  0  0  0  0
   -9.5300   -0.8136   -0.1980 H   0  0  0  0  0  0  0  0  0  0  0  0
   -8.6822    0.6417   -0.7331 H   0  0  0  0  0  0  0  0  0  0  0  0
   -6.5513    0.2763   -2.0245 H   0  0  0  0  0  0  0  0  0  0  0  0
   -4.3458    1.2742   -2.2617 H   0  0  0  0  0  0  0  0  0  0  0  0
    0.5393    2.7573    1.8218 H   0  0  0  0  0  0  0  0  0  0  0  0
    0.5610    4.1455    0.7505 H   0  0  0  0  0  0  0  0  0  0  0  0
    2.8688   -1.0717    3.0185 H   0  0  0  0  0  0  0  0  0  0  0  0
    4.0107   -0.0725    2.1666 H   0  0  0  0  0  0  0  0  0  0  0  0
    4.9497   -0.8844   -0.0741 H   0  0  0  0  0  0  0  0  0  0  0  0
    5.7470   -2.8731   -1.2729 H   0  0  0  0  0  0  0  0  0  0  0  0
    6.1254   -5.3626   -1.0827 H   0  0  0  0  0  0  0  0  0  0  0  0
    4.5042   -5.6160   -1.7952 H   0  0  0  0  0  0  0  0  0  0  0  0
    4.9532   -6.3808   -0.2486 H   0  0  0  0  0  0  0  0  0  0  0  0
    3.1909   -5.3621    1.1424 H   0  0  0  0  0  0  0  0  0  0  0  0
    2.3860   -3.3713    2.3439 H   0  0  0  0  0  0  0  0  0  0  0  0
    5.9290    2.5722   -1.3748 H   0  0  0  0  0  0  0  0  0  0  0  0
    5.7211    4.9124   -2.2701 H   0  0  0  0  0  0  0  0  0  0  0  0
    1.8742    5.3770   -0.8239 H   0  0  0  0  0  0  0  0  0  0  0  0
    0.8084    2.4504   -2.7498 H   0  0  0  0  0  0  0  0  0  0  0  0
    0.1258    4.0701   -2.4687 H   0  0  0  0  0  0  0  0  0  0  0  0
   -0.7473    2.8987   -3.4591 H   0  0  0  0  0  0  0  0  0  0  0  0
   -3.5024    0.5055    1.8829 H   0  0  0  0  0  0  0  0  0  0  0  0
   -5.4168   -1.7426    4.0388 H   0  0  0  0  0  0  0  0  0  0  0  0
   -4.1239   -1.6719    2.8342 H   0  0  0  0  0  0  0  0  0  0  0  0
   -4.5296   -0.2237    3.8398 H   0  0  0  0  0  0  0  0  0  0  0  0
  1  2  1  0
  2  3  1  0
  3  4  2  0
  4  5  1  0
  5  6  2  0
  6  7  1  0
  7  8  2  0
  8  9  1  0
  9 10  1  0
 10 11  1  0
 11 12  1  0
 12 13  1  0
 13 14  1  0
 14 15  1  0
 15 16  2  0
 16 17  1  0
 17 18  2  0
 18 19  1  0
 18 20  1  0
 20 21  2  0
 12 22  2  0
 22 23  1  0
 23 24  2  0
 24 25  1  0
 25 26  2  0
 26 27  1  0
 27 28  2  0
  9 29  2  0
 29 30  1  0
 29 31  1  0
  6 32  1  0
 32 33  2  0
 33 34  1  0
 34 35  1  0
 33  3  1  0
 31  7  1  0
 28 11  1  0
 21 15  1  0
 28 23  1  0
  1 36  1  0
  1 37  1  0
  1 38  1  0
  4 39  1  0
  5 40  1  0
 10 41  1  0
 10 42  1  0
 14 43  1  0
 14 44  1  0
 16 45  1  0
 17 46  1  0
 19 47  1  0
 19 48  1  0
 19 49  1  0
 20 50  1  0
 21 51  1  0
 24 52  1  0
 25 53  1  0
 27 54  1  0
 30 55  1  0
 30 56  1  0
 30 57  1  0
 32 58  1  0
 35 59  1  0
 35 60  1  0
 35 61  1  0
M  END
$$$$
