
     RDKit          3D

 71 75  0  0  0  0  0  0  0  0999 V2000
   -9.7693   -1.7946    2.9629 C   0  0  0  0  0  0  0  0  0  0  0  0
   -8.4132   -1.1668    3.0915 C   0  0  0  0  0  0  0  0  0  0  0  0
   -8.2827    0.1987    3.3410 C   0  0  0  0  0  0  0  0  0  0  0  0
   -7.0179    0.7715    3.4830 C   0  0  0  0  0  0  0  0  0  0  0  0
   -5.8526   -0.0079    3.3934 C   0  0  0  0  0  0  0  0  0  0  0  0
   -4.5209    0.6749    3.5457 C   0  0  0  0  0  0  0  0  0  0  0  0
   -5.9704   -1.3931    3.1544 C   0  0  0  0  0  0  0  0  0  0  0  0
   -4.7745   -2.3147    3.0381 C   0  0  0  0  0  0  0  0  0  0  0  0
   -4.4903   -2.6685    1.6606 N   0  0  0  0  0  0  0  0  0  0  0  0
   -5.1526   -3.6876    1.0533 N   0  0  0  0  0  0  0  0  0  0  0  0
   -4.6679   -3.8113   -0.1819 N   0  0  0  0  0  0  0  0  0  0  0  0
   -3.6768   -2.8911   -0.3193 C   0  0  0  0  0  0  0  0  0  0  0  0
   -2.8095   -2.6023   -1.4277 C   0  0  0  0  0  0  0  0  0  0  0  0
   -2.8246   -3.1584   -2.5199 O   0  0  0  0  0  0  0  0  0  0  0  0
   -1.9024   -1.5911   -1.1334 N   0  0  0  0  0  0  0  0  0  0  0  0
   -1.8320   -0.9367    0.0912 C   0  0  0  0  0  0  0  0  0  0  0  0
   -0.7538    0.1294    0.2366 C   0  0  0  0  0  0  0  0  0  0  0  0
    0.6527   -0.4748    0.1121 C   0  0  0  0  0  0  0  0  0  0  0  0
    1.3827    0.0087   -1.1362 C   0  0  0  0  0  0  0  0  0  0  0  0
    1.4870    1.4874   -1.1092 N   0  0  0  0  0  0  0  0  0  0  0  0
    2.3930    2.1910   -2.3784 S   0  0  0  0  0  6  0  0  0  0  0  0
    1.8633    1.6602   -3.6170 O   0  0  0  0  0  0  0  0  0  0  0  0
    2.4810    3.6154   -2.1405 O   0  0  0  0  0  0  0  0  0  0  0  0
    4.0193    1.5230   -2.1241 C   0  0  0  0  0  0  0  0  0  0  0  0
    4.5965    0.6908   -3.0889 C   0  0  0  0  0  0  0  0  0  0  0  0
    5.8708    0.1661   -2.8670 C   0  0  0  0  0  0  0  0  0  0  0  0
    6.5604    0.4943   -1.6926 C   0  0  0  0  0  0  0  0  0  0  0  0
    8.1662   -0.2221   -1.3855 S   0  0  0  0  0  6  0  0  0  0  0  0
    8.3519   -0.2497    0.0500 O   0  0  0  0  0  0  0  0  0  0  0  0
    8.2477   -1.4355   -2.1713 O   0  0  0  0  0  0  0  0  0  0  0  0
    9.2354    0.9210   -2.0462 N   0  0  0  0  0  0  0  0  0  0  0  0
    9.2522    1.0560   -3.5123 C   0  0  0  0  0  0  0  0  0  0  0  0
    9.3629    2.2070   -1.3408 C   0  0  0  0  0  0  0  0  0  0  0  0
    5.9755    1.3182   -0.7232 C   0  0  0  0  0  0  0  0  0  0  0  0
    4.7025    1.8439   -0.9450 C   0  0  0  0  0  0  0  0  0  0  0  0
    0.2227    2.2125   -0.7927 C   0  0  0  0  0  0  0  0  0  0  0  0
   -0.9834    1.2843   -0.7412 C   0  0  0  0  0  0  0  0  0  0  0  0
   -2.6161   -1.1921    1.1024 N   0  0  0  0  0  0  0  0  0  0  0  0
   -3.5211   -2.1668    0.8381 C   0  0  0  0  0  0  0  0  0  0  0  0
   -7.2580   -1.9527    3.0133 C   0  0  0  0  0  0  0  0  0  0  0  0
  -10.1166   -2.1388    3.9421 H   0  0  0  0  0  0  0  0  0  0  0  0
  -10.4954   -1.0798    2.5613 H   0  0  0  0  0  0  0  0  0  0  0  0
   -9.7412   -2.6477    2.2767 H   0  0  0  0  0  0  0  0  0  0  0  0
   -9.1647    0.8298    3.4216 H   0  0  0  0  0  0  0  0  0  0  0  0
   -6.9503    1.8423    3.6668 H   0  0  0  0  0  0  0  0  0  0  0  0
   -3.9659    0.6372    2.6048 H   0  0  0  0  0  0  0  0  0  0  0  0
   -3.9352    0.2074    4.3434 H   0  0  0  0  0  0  0  0  0  0  0  0
   -4.6392    1.7306    3.8139 H   0  0  0  0  0  0  0  0  0  0  0  0
   -4.9605   -3.2460    3.5878 H   0  0  0  0  0  0  0  0  0  0  0  0
   -3.8685   -1.8815    3.4713 H   0  0  0  0  0  0  0  0  0  0  0  0
   -1.2872   -1.3570   -1.8976 H   0  0  0  0  0  0  0  0  0  0  0  0
   -0.8467    0.5292    1.2567 H   0  0  0  0  0  0  0  0  0  0  0  0
    0.6250   -1.5706    0.1231 H   0  0  0  0  0  0  0  0  0  0  0  0
    1.2368   -0.1763    0.9932 H   0  0  0  0  0  0  0  0  0  0  0  0
    0.8639   -0.3249   -2.0414 H   0  0  0  0  0  0  0  0  0  0  0  0
    2.3825   -0.4362   -1.1370 H   0  0  0  0  0  0  0  0  0  0  0  0
    4.0626    0.4421   -4.0042 H   0  0  0  0  0  0  0  0  0  0  0  0
    6.3161   -0.4986   -3.6052 H   0  0  0  0  0  0  0  0  0  0  0  0
    8.3979    1.6420   -3.8632 H   0  0  0  0  0  0  0  0  0  0  0  0
   10.1715    1.5626   -3.8241 H   0  0  0  0  0  0  0  0  0  0  0  0
    9.2493    0.0778   -4.0012 H   0  0  0  0  0  0  0  0  0  0  0  0
    9.4696    2.0583   -0.2626 H   0  0  0  0  0  0  0  0  0  0  0  0
   10.2668    2.7246   -1.6797 H   0  0  0  0  0  0  0  0  0  0  0  0
    8.5017    2.8513   -1.5384 H   0  0  0  0  0  0  0  0  0  0  0  0
    6.5004    1.5477    0.2022 H   0  0  0  0  0  0  0  0  0  0  0  0
    4.2428    2.4915   -0.2006 H   0  0  0  0  0  0  0  0  0  0  0  0
    0.3601    2.7050    0.1772 H   0  0  0  0  0  0  0  0  0  0  0  0
    0.0194    3.0001   -1.5263 H   0  0  0  0  0  0  0  0  0  0  0  0
   -1.8736    1.8498   -0.4385 H   0  0  0  0  0  0  0  0  0  0  0  0
   -1.1946    0.9140   -1.7521 H   0  0  0  0  0  0  0  0  0  0  0  0
   -7.3605   -3.0225    2.8266 H   0  0  0  0  0  0  0  0  0  0  0  0
  1  2  1  0
  2  3  2  0
  3  4  1  0
  4  5  2  0
  5  6  1  0
  5  7  1  0
  7  8  1  0
  8  9  1  0
  9 10  1  0
 10 11  2  0
 11 12  1  0
 12 13  1  0
 13 14  2  0
 13 15  1  0
 15 16  1  0
 16 17  1  0
 17 18  1  0
 18 19  1  0
 19 20  1  0
 20 21  1  0
 21 22  2  0
 21 23  2  0
 21 24  1  0
 24 25  2  0
 25 26  1  0
 26 27  2  0
 27 28  1  0
 28 29  2  0
 28 30  2  0
 28 31  1  0
 31 32  1  0
 31 33  1  0
 27 34  1  0
 34 35  2  0
 20 36  1  0
 36 37  1  0
 16 38  2  0
 38 39  1  0
  7 40  2  0
 40  2  1  0
 39  9  1  0
 39 12  2  0
 37 17  1  0
 35 24  1  0
  1 41  1  0
  1 42  1  0
  1 43  1  0
  3 44  1  0
  4 45  1  0
  6 46  1  0
  6 47  1  0
  6 48  1  0
  8 49  1  0
  8 50  1  0
 15 51  1  0
 17 52  1  0
 18 53  1  0
 18 54  1  0
 19 55  1  0
 19 56  1  0
 25 57  1  0
 26 58  1  0
 32 59  1  0
 32 60  1  0
 32 61  1  0
 33 62  1  0
 33 63  1  0
 33 64  1  0
 34 65  1  0
 35 66  1  0
 36 67  1  0
 36 68  1  0
 37 69  1  0
 37 70  1  0
 40 71  1  0
M  END
$$$$
