
     RDKit          3D

 45 47  0  0  0  0  0  0  0  0999 V2000
   -7.8624    0.7996    4.2887 C   0  0  0  0  0  0  0  0  0  0  0  0
   -6.8749    1.6622    3.7393 O   0  0  0  0  0  0  0  0  0  0  0  0
   -5.7576    1.0703    3.2179 C   0  0  0  0  0  0  0  0  0  0  0  0
   -5.5059   -0.3002    3.1577 C   0  0  0  0  0  0  0  0  0  0  0  0
   -4.3156   -0.7743    2.5937 C   0  0  0  0  0  0  0  0  0  0  0  0
   -3.3617    0.1164    2.0868 C   0  0  0  0  0  0  0  0  0  0  0  0
   -2.0878   -0.3910    1.4600 C   0  0  0  0  0  0  0  0  0  0  0  0
   -2.2063   -0.4880   -0.0630 C   0  0  0  0  0  0  0  0  0  0  0  0
   -1.0056   -1.0268   -0.6741 N   0  0  0  0  0  0  0  0  0  0  0  0
    0.1181   -0.2447   -0.8783 C   0  0  0  0  0  0  0  0  0  0  0  0
    0.1357    0.9404   -0.5532 O   0  0  0  0  0  0  0  0  0  0  0  0
    1.2464   -0.9295   -1.4833 C   0  0  0  0  0  0  0  0  0  0  0  0
    1.4649   -2.2318   -1.8959 C   0  0  0  0  0  0  0  0  0  0  0  0
    2.7874   -2.2867   -2.4061 C   0  0  0  0  0  0  0  0  0  0  0  0
    3.3113   -1.0158   -2.2939 C   0  0  0  0  0  0  0  0  0  0  0  0
    4.5878   -0.3782   -2.6141 C   0  0  0  0  0  0  0  0  0  0  0  0
    5.0646    0.6321   -1.7531 C   0  0  0  0  0  0  0  0  0  0  0  0
    6.2825    1.2782   -1.9859 C   0  0  0  0  0  0  0  0  0  0  0  0
    7.0459    0.9183   -3.0985 C   0  0  0  0  0  0  0  0  0  0  0  0
    8.3271    1.5881   -3.3521 N   0  0  0  0  0  4  0  0  0  0  0  0
    8.9659    1.2452   -4.3566 O   0  0  0  0  0  0  0  0  0  0  0  0
    8.6949    2.4528   -2.5450 O   0  0  0  0  0  1  0  0  0  0  0  0
    6.5964   -0.0746   -3.9752 C   0  0  0  0  0  0  0  0  0  0  0  0
    5.3730   -0.7159   -3.7336 C   0  0  0  0  0  0  0  0  0  0  0  0
    4.8845   -1.8943   -4.9047 Cl  0  0  0  0  0  0  0  0  0  0  0  0
    2.3784   -0.1967   -1.7250 O   0  0  0  0  0  0  0  0  0  0  0  0
   -3.6205    1.4902    2.1458 C   0  0  0  0  0  0  0  0  0  0  0  0
   -4.8094    1.9596    2.7084 C   0  0  0  0  0  0  0  0  0  0  0  0
   -8.2785    0.1375    3.5222 H   0  0  0  0  0  0  0  0  0  0  0  0
   -8.6777    1.4234    4.6675 H   0  0  0  0  0  0  0  0  0  0  0  0
   -7.4621    0.2269    5.1318 H   0  0  0  0  0  0  0  0  0  0  0  0
   -6.2135   -1.0280    3.5399 H   0  0  0  0  0  0  0  0  0  0  0  0
   -4.1404   -1.8471    2.5569 H   0  0  0  0  0  0  0  0  0  0  0  0
   -1.8351   -1.3742    1.8778 H   0  0  0  0  0  0  0  0  0  0  0  0
   -1.2574    0.2681    1.7428 H   0  0  0  0  0  0  0  0  0  0  0  0
   -3.0319   -1.1512   -0.3449 H   0  0  0  0  0  0  0  0  0  0  0  0
   -2.4090    0.4973   -0.4993 H   0  0  0  0  0  0  0  0  0  0  0  0
   -0.9892   -2.0052   -0.9187 H   0  0  0  0  0  0  0  0  0  0  0  0
    0.7678   -3.0548   -1.8371 H   0  0  0  0  0  0  0  0  0  0  0  0
    3.2924   -3.1574   -2.8008 H   0  0  0  0  0  0  0  0  0  0  0  0
    4.4789    0.9242   -0.8803 H   0  0  0  0  0  0  0  0  0  0  0  0
    6.6115    2.0522   -1.2946 H   0  0  0  0  0  0  0  0  0  0  0  0
    7.1830   -0.3509   -4.8497 H   0  0  0  0  0  0  0  0  0  0  0  0
   -2.8985    2.2050    1.7553 H   0  0  0  0  0  0  0  0  0  0  0  0
   -4.9978    3.0296    2.7504 H   0  0  0  0  0  0  0  0  0  0  0  0
  1  2  1  0
  2  3  1  0
  3  4  2  0
  4  5  1  0
  5  6  2  0
  6  7  1  0
  7  8  1  0
  8  9  1  0
  9 10  1  0
 10 11  2  0
 10 12  1  0
 12 13  2  0
 13 14  1  0
 14 15  2  0
 15 16  1  0
 16 17  2  0
 17 18  1  0
 18 19  2  0
 19 20  1  0
 20 21  2  0
 20 22  1  0
 19 23  1  0
 23 24  2  0
 24 25  1  0
 15 26  1  0
  6 27  1  0
 27 28  2  0
 28  3  1  0
 26 12  1  0
 24 16  1  0
  1 29  1  0
  1 30  1  0
  1 31  1  0
  4 32  1  0
  5 33  1  0
  7 34  1  0
  7 35  1  0
  8 36  1  0
  8 37  1  0
  9 38  1  0
 13 39  1  0
 14 40  1  0
 17 41  1  0
 18 42  1  0
 23 43  1  0
 27 44  1  0
 28 45  1  0
M  CHG  2  20   1  22  -1
M  END
$$$$
