
     RDKit          3D

 29 30  0  0  0  0  0  0  0  0999 V2000
   -2.9773   -1.8810    0.0775 C   0  0  0  0  0  0  0  0  0  0  0  0
   -2.1028   -0.7029   -0.2466 C   0  0  0  0  0  0  0  0  0  0  0  0
   -1.2148   -0.1194    0.5834 C   0  0  0  0  0  0  0  0  0  0  0  0
   -1.0155   -0.5122    2.0239 C   0  0  0  0  0  0  0  0  0  0  0  0
   -0.3372    1.0268    0.1149 C   0  0  0  0  0  0  0  0  0  0  0  0
    1.1439    0.6828    0.0990 C   0  0  0  0  0  0  0  0  0  0  0  0
    2.0322    1.3385    0.9669 C   0  0  0  0  0  0  0  0  0  0  0  0
    3.3932    1.0262    0.9608 C   0  0  0  0  0  0  0  0  0  0  0  0
    3.8838    0.0565    0.0887 C   0  0  0  0  0  0  0  0  0  0  0  0
    3.0156   -0.6027   -0.7786 C   0  0  0  0  0  0  0  0  0  0  0  0
    1.6549   -0.2927   -0.7740 C   0  0  0  0  0  0  0  0  0  0  0  0
   -0.7461    1.5213   -1.1834 N   0  0  0  0  0  0  0  0  0  0  0  0
   -1.5908    0.8735   -2.0168 C   0  0  0  0  0  0  0  0  0  0  0  0
   -1.8454    1.4037   -3.5708 S   0  0  0  0  0  0  0  0  0  0  0  0
   -2.2349   -0.2166   -1.5260 N   0  0  0  0  0  0  0  0  0  0  0  0
   -2.6468   -2.4307    0.9621 H   0  0  0  0  0  0  0  0  0  0  0  0
   -4.0089   -1.5521    0.2393 H   0  0  0  0  0  0  0  0  0  0  0  0
   -2.9733   -2.5992   -0.7505 H   0  0  0  0  0  0  0  0  0  0  0  0
   -0.0887   -1.0821    2.1418 H   0  0  0  0  0  0  0  0  0  0  0  0
   -1.8376   -1.1115    2.4230 H   0  0  0  0  0  0  0  0  0  0  0  0
   -0.9546    0.3807    2.6559 H   0  0  0  0  0  0  0  0  0  0  0  0
   -0.4994    1.8775    0.7896 H   0  0  0  0  0  0  0  0  0  0  0  0
    1.6704    2.0987    1.6557 H   0  0  0  0  0  0  0  0  0  0  0  0
    4.0718    1.5405    1.6364 H   0  0  0  0  0  0  0  0  0  0  0  0
    4.9435   -0.1849    0.0837 H   0  0  0  0  0  0  0  0  0  0  0  0
    3.3967   -1.3580   -1.4609 H   0  0  0  0  0  0  0  0  0  0  0  0
    0.9887   -0.8151   -1.4582 H   0  0  0  0  0  0  0  0  0  0  0  0
   -0.2322    2.2981   -1.5763 H   0  0  0  0  0  0  0  0  0  0  0  0
   -2.8882   -0.6637   -2.1606 H   0  0  0  0  0  0  0  0  0  0  0  0
  1  2  1  0
  2  3  2  0
  3  4  1  0
  3  5  1  0
  5  6  1  0
  6  7  2  0
  7  8  1  0
  8  9  2  0
  9 10  1  0
 10 11  2  0
  5 12  1  0
 12 13  1  0
 13 14  2  0
 13 15  1  0
 15  2  1  0
 11  6  1  0
  1 16  1  0
  1 17  1  0
  1 18  1  0
  4 19  1  0
  4 20  1  0
  4 21  1  0
  5 22  1  0
  7 23  1  0
  8 24  1  0
  9 25  1  0
 10 26  1  0
 11 27  1  0
 12 28  1  0
 15 29  1  0
M  END
$$$$
