
     RDKit          3D

 38 38  0  0  0  0  0  0  0  0999 V2000
    5.2713    1.7441    2.8428 C   0  0  0  0  0  0  0  0  0  0  0  0
    5.2658    0.4899    2.1686 O   0  0  0  0  0  0  0  0  0  0  0  0
    4.3386    0.4583    1.0805 C   0  0  0  0  0  0  0  0  0  0  0  0
    2.9229    0.1107    1.5584 C   0  0  0  0  0  0  0  0  0  0  0  0
    1.9579    0.0503    0.4798 N   0  0  0  0  0  0  0  0  0  0  0  0
    1.4600    1.1983   -0.0930 C   0  0  0  0  0  0  0  0  0  0  0  0
    1.7986    2.3308    0.2272 O   0  0  0  0  0  0  0  0  0  0  0  0
    0.4778    0.9544   -1.1703 C   0  0  0  0  0  0  0  0  0  0  0  0
    0.9537    1.1623   -2.4972 C   0  0  0  0  0  0  0  0  0  0  0  0
    1.3246    1.2930   -3.5899 N   0  0  0  0  0  0  0  0  0  0  0  0
   -0.7852    0.5354   -0.9563 C   0  0  0  0  0  0  0  0  0  0  0  0
   -1.5245    0.3158    0.2908 C   0  0  0  0  0  0  0  0  0  0  0  0
   -1.0717    0.9973    1.5567 C   0  0  0  0  0  0  0  0  0  0  0  0
   -2.6601   -0.4157    0.3403 C   0  0  0  0  0  0  0  0  0  0  0  0
   -3.3020   -1.1195   -0.7735 C   0  0  0  0  0  0  0  0  0  0  0  0
   -3.0493   -2.4804   -0.9825 C   0  0  0  0  0  0  0  0  0  0  0  0
   -3.6737   -3.1537   -2.0337 C   0  0  0  0  0  0  0  0  0  0  0  0
   -4.5485   -2.4675   -2.8824 C   0  0  0  0  0  0  0  0  0  0  0  0
   -4.7983   -1.1108   -2.6807 C   0  0  0  0  0  0  0  0  0  0  0  0
   -4.1789   -0.4373   -1.6267 C   0  0  0  0  0  0  0  0  0  0  0  0
    6.0301    1.7081    3.6302 H   0  0  0  0  0  0  0  0  0  0  0  0
    5.5302    2.5525    2.1513 H   0  0  0  0  0  0  0  0  0  0  0  0
    4.3023    1.9425    3.3069 H   0  0  0  0  0  0  0  0  0  0  0  0
    4.6832   -0.3247    0.3931 H   0  0  0  0  0  0  0  0  0  0  0  0
    4.3667    1.4025    0.5190 H   0  0  0  0  0  0  0  0  0  0  0  0
    2.9271   -0.8660    2.0556 H   0  0  0  0  0  0  0  0  0  0  0  0
    2.5704    0.8380    2.2957 H   0  0  0  0  0  0  0  0  0  0  0  0
    1.6238   -0.8556    0.1797 H   0  0  0  0  0  0  0  0  0  0  0  0
   -1.3744    0.3371   -1.8570 H   0  0  0  0  0  0  0  0  0  0  0  0
   -0.2083    0.4894    1.9916 H   0  0  0  0  0  0  0  0  0  0  0  0
   -0.8236    2.0464    1.3731 H   0  0  0  0  0  0  0  0  0  0  0  0
   -1.8572    0.9940    2.3197 H   0  0  0  0  0  0  0  0  0  0  0  0
   -3.1930   -0.5399    1.2835 H   0  0  0  0  0  0  0  0  0  0  0  0
   -2.3678   -3.0192   -0.3334 H   0  0  0  0  0  0  0  0  0  0  0  0
   -3.4841   -4.2102   -2.1909 H   0  0  0  0  0  0  0  0  0  0  0  0
   -5.0369   -2.9927   -3.6997 H   0  0  0  0  0  0  0  0  0  0  0  0
   -5.4830   -0.5800   -3.3384 H   0  0  0  0  0  0  0  0  0  0  0  0
   -4.3844    0.6222   -1.4752 H   0  0  0  0  0  0  0  0  0  0  0  0
  1  2  1  0
  2  3  1  0
  3  4  1  0
  4  5  1  0
  5  6  1  0
  6  7  2  0
  6  8  1  0
  8  9  1  0
  9 10  3  0
  8 11  2  3
 11 12  1  0
 12 13  1  0
 12 14  2  3
 14 15  1  0
 15 16  2  0
 16 17  1  0
 17 18  2  0
 18 19  1  0
 19 20  2  0
 20 15  1  0
  1 21  1  0
  1 22  1  0
  1 23  1  0
  3 24  1  0
  3 25  1  0
  4 26  1  0
  4 27  1  0
  5 28  1  0
 11 29  1  0
 13 30  1  0
 13 31  1  0
 13 32  1  0
 14 33  1  0
 16 34  1  0
 17 35  1  0
 18 36  1  0
 19 37  1  0
 20 38  1  0
M  END
$$$$
