
     RDKit          3D

 70 75  0  0  0  0  0  0  0  0999 V2000
    2.5283   -3.7576    2.0220 O   0  0  0  0  0  0  0  0  0  0  0  0
    2.6662   -2.6637    1.0931 C   0  0  0  0  0  0  0  0  0  0  0  0
    3.8900   -2.9244    0.1997 C   0  0  0  0  0  0  0  0  0  0  0  0
    4.0033   -2.0465   -0.9583 N   0  0  0  0  0  0  0  0  0  0  0  0
    4.1578   -0.6791   -0.8674 C   0  0  0  0  0  0  0  0  0  0  0  0
    3.9237   -0.0678    0.2611 N   0  0  0  0  0  0  0  0  0  0  0  0
    4.0644    1.3303    0.3615 C   0  0  0  0  0  0  0  0  0  0  0  0
    3.8040    1.9355    1.5921 C   0  0  0  0  0  0  0  0  0  0  0  0
    3.9230    3.3195    1.7437 C   0  0  0  0  0  0  0  0  0  0  0  0
    4.3061    4.1134    0.6609 C   0  0  0  0  0  0  0  0  0  0  0  0
    4.5729    3.5295   -0.5780 C   0  0  0  0  0  0  0  0  0  0  0  0
    4.4499    2.1440   -0.7145 C   0  0  0  0  0  0  0  0  0  0  0  0
    4.6988    1.4724   -1.9227 N   0  0  0  0  0  0  0  0  0  0  0  0
    5.0851    1.9738   -3.1426 C   0  0  0  0  0  0  0  0  0  0  0  0
    5.1927    0.9214   -4.0261 C   0  0  0  0  0  0  0  0  0  0  0  0
    4.8604   -0.2587   -3.3192 C   0  0  0  0  0  0  0  0  0  0  0  0
    4.5631    0.1048   -2.0182 C   0  0  0  0  0  0  0  0  0  0  0  0
    1.3500   -2.5561    0.2929 C   0  0  0  0  0  0  0  0  0  0  0  0
    0.1859   -2.4158    1.2024 N   0  0  0  0  0  0  0  0  0  0  0  0
   -1.0537   -2.8214    0.5054 C   0  0  0  0  0  0  0  0  0  0  0  0
   -2.3214   -2.1929    1.1228 C   0  0  0  0  0  0  0  0  0  0  0  0
   -2.3659   -0.7106    1.0461 N   0  0  0  0  0  0  0  0  0  0  0  0
   -3.2024   -0.2241   -0.0907 C   0  0  0  0  0  0  0  0  0  0  0  0
   -4.6665   -0.6850   -0.0135 C   0  0  0  0  0  0  0  0  0  0  0  0
   -5.3447   -1.0534   -1.1888 C   0  0  0  0  0  0  0  0  0  0  0  0
   -6.6803   -1.4581   -1.1437 C   0  0  0  0  0  0  0  0  0  0  0  0
   -7.3592   -1.4941    0.0726 C   0  0  0  0  0  0  0  0  0  0  0  0
   -6.7051   -1.1246    1.2455 C   0  0  0  0  0  0  0  0  0  0  0  0
   -5.3701   -0.7198    1.2031 C   0  0  0  0  0  0  0  0  0  0  0  0
   -3.1627    1.2996   -0.2778 C   0  0  0  0  0  0  0  0  0  0  0  0
   -3.4639    2.1804    0.7754 C   0  0  0  0  0  0  0  0  0  0  0  0
   -3.4475    3.5622    0.5781 C   0  0  0  0  0  0  0  0  0  0  0  0
   -3.1320    4.0839   -0.6733 C   0  0  0  0  0  0  0  0  0  0  0  0
   -2.8317    3.2262   -1.7291 C   0  0  0  0  0  0  0  0  0  0  0  0
   -2.8490    1.8436   -1.5351 C   0  0  0  0  0  0  0  0  0  0  0  0
   -0.9850   -0.1673    0.9797 C   0  0  0  0  0  0  0  0  0  0  0  0
    0.0559   -1.0340    1.7263 C   0  0  0  0  0  0  0  0  0  0  0  0
    1.6230   -3.6415    2.3831 H   0  0  0  0  0  0  0  0  0  0  0  0
    2.8311   -1.7699    1.6997 H   0  0  0  0  0  0  0  0  0  0  0  0
    4.8058   -2.8688    0.8011 H   0  0  0  0  0  0  0  0  0  0  0  0
    3.8464   -3.9588   -0.1635 H   0  0  0  0  0  0  0  0  0  0  0  0
    4.4922   -2.4721   -1.7357 H   0  0  0  0  0  0  0  0  0  0  0  0
    3.5084    1.3196    2.4378 H   0  0  0  0  0  0  0  0  0  0  0  0
    3.7172    3.7768    2.7083 H   0  0  0  0  0  0  0  0  0  0  0  0
    4.3975    5.1898    0.7859 H   0  0  0  0  0  0  0  0  0  0  0  0
    4.8686    4.1670   -1.4048 H   0  0  0  0  0  0  0  0  0  0  0  0
    5.2530    3.0296   -3.2990 H   0  0  0  0  0  0  0  0  0  0  0  0
    5.4765    0.9990   -5.0680 H   0  0  0  0  0  0  0  0  0  0  0  0
    4.8380   -1.2614   -3.7247 H   0  0  0  0  0  0  0  0  0  0  0  0
    1.3766   -1.7362   -0.4341 H   0  0  0  0  0  0  0  0  0  0  0  0
    1.2365   -3.4928   -0.2693 H   0  0  0  0  0  0  0  0  0  0  0  0
   -1.1356   -3.9135    0.5550 H   0  0  0  0  0  0  0  0  0  0  0  0
   -1.0180   -2.5496   -0.5588 H   0  0  0  0  0  0  0  0  0  0  0  0
   -3.1987   -2.6673    0.6712 H   0  0  0  0  0  0  0  0  0  0  0  0
   -2.3646   -2.4662    2.1858 H   0  0  0  0  0  0  0  0  0  0  0  0
   -2.7748   -0.6761   -0.9987 H   0  0  0  0  0  0  0  0  0  0  0  0
   -4.8359   -1.0211   -2.1498 H   0  0  0  0  0  0  0  0  0  0  0  0
   -7.1936   -1.7411   -2.0601 H   0  0  0  0  0  0  0  0  0  0  0  0
   -8.3999   -1.8053    0.1055 H   0  0  0  0  0  0  0  0  0  0  0  0
   -7.2339   -1.1454    2.1946 H   0  0  0  0  0  0  0  0  0  0  0  0
   -4.8723   -0.4322    2.1272 H   0  0  0  0  0  0  0  0  0  0  0  0
   -3.7113    1.7868    1.7591 H   0  0  0  0  0  0  0  0  0  0  0  0
   -3.6910    4.2288    1.4015 H   0  0  0  0  0  0  0  0  0  0  0  0
   -3.1237    5.1596   -0.8269 H   0  0  0  0  0  0  0  0  0  0  0  0
   -2.5877    3.6347   -2.7064 H   0  0  0  0  0  0  0  0  0  0  0  0
   -2.6196    1.1920   -2.3750 H   0  0  0  0  0  0  0  0  0  0  0  0
   -0.6499   -0.0662   -0.0619 H   0  0  0  0  0  0  0  0  0  0  0  0
   -0.9730    0.8331    1.4267 H   0  0  0  0  0  0  0  0  0  0  0  0
    1.0166   -0.5076    1.7348 H   0  0  0  0  0  0  0  0  0  0  0  0
   -0.2441   -1.1090    2.7795 H   0  0  0  0  0  0  0  0  0  0  0  0
  1  2  1  0
  2  3  1  0
  3  4  1  0
  4  5  1  0
  5  6  2  0
  6  7  1  0
  7  8  2  0
  8  9  1  0
  9 10  2  0
 10 11  1  0
 11 12  2  0
 12 13  1  0
 13 14  1  0
 14 15  2  0
 15 16  1  0
 16 17  2  0
  2 18  1  0
 18 19  1  0
 19 20  1  0
 20 21  1  0
 21 22  1  0
 22 23  1  0
 23 24  1  0
 24 25  2  0
 25 26  1  0
 26 27  2  0
 27 28  1  0
 28 29  2  0
 23 30  1  0
 30 31  2  0
 31 32  1  0
 32 33  2  0
 33 34  1  0
 34 35  2  0
 22 36  1  0
 36 37  1  0
 17  5  1  0
 37 19  1  0
 12  7  1  0
 17 13  1  0
 29 24  1  0
 35 30  1  0
  1 38  1  0
  2 39  1  0
  3 40  1  0
  3 41  1  0
  4 42  1  0
  8 43  1  0
  9 44  1  0
 10 45  1  0
 11 46  1  0
 14 47  1  0
 15 48  1  0
 16 49  1  0
 18 50  1  0
 18 51  1  0
 20 52  1  0
 20 53  1  0
 21 54  1  0
 21 55  1  0
 23 56  1  0
 25 57  1  0
 26 58  1  0
 27 59  1  0
 28 60  1  0
 29 61  1  0
 31 62  1  0
 32 63  1  0
 33 64  1  0
 34 65  1  0
 35 66  1  0
 36 67  1  0
 36 68  1  0
 37 69  1  0
 37 70  1  0
M  END
$$$$
