
     RDKit          3D

 64 69  0  0  0  0  0  0  0  0999 V2000
   -3.9880   -1.9411   -2.0505 C   0  0  0  0  0  0  0  0  0  0  0  0
   -2.7025   -1.9042   -1.4324 O   0  0  0  0  0  0  0  0  0  0  0  0
   -1.8760   -2.9199   -1.8386 C   0  0  0  0  0  0  0  0  0  0  0  0
   -1.6421   -3.1733   -3.1944 C   0  0  0  0  0  0  0  0  0  0  0  0
   -0.7838   -4.2036   -3.5773 C   0  0  0  0  0  0  0  0  0  0  0  0
   -0.1502   -4.9773   -2.6091 C   0  0  0  0  0  0  0  0  0  0  0  0
   -0.3649   -4.7140   -1.2552 C   0  0  0  0  0  0  0  0  0  0  0  0
   -1.2194   -3.6741   -0.8512 C   0  0  0  0  0  0  0  0  0  0  0  0
   -1.4266   -3.3993    0.6261 C   0  0  0  0  0  0  0  0  0  0  0  0
   -0.7605   -2.1565    1.0700 N   0  0  0  0  0  0  0  0  0  0  0  0
    0.6965   -2.3566    1.2147 C   0  0  0  0  0  0  0  0  0  0  0  0
    1.4593   -1.0601    1.1321 C   0  0  0  0  0  0  0  0  0  0  0  0
    1.5031   -0.3159    0.0115 C   0  0  0  0  0  0  0  0  0  0  0  0
    2.2488    0.9391   -0.0309 C   0  0  0  0  0  0  0  0  0  0  0  0
    2.2876    1.7258   -1.1849 C   0  0  0  0  0  0  0  0  0  0  0  0
    3.0176    2.9142   -1.1870 C   0  0  0  0  0  0  0  0  0  0  0  0
    3.6823    3.3363   -0.0295 C   0  0  0  0  0  0  0  0  0  0  0  0
    3.6573    2.5511    1.1222 C   0  0  0  0  0  0  0  0  0  0  0  0
    2.9389    1.3567    1.1152 C   0  0  0  0  0  0  0  0  0  0  0  0
    2.8944    0.5600    2.2660 N   0  0  0  0  0  0  0  0  0  0  0  0
    2.2050   -0.6209    2.3486 C   0  0  0  0  0  0  0  0  0  0  0  0
    2.1901   -1.2748    3.3873 O   0  0  0  0  0  0  0  0  0  0  0  0
    4.3876    4.5103    0.0437 O   0  0  0  0  0  0  0  0  0  0  0  0
    4.0694    5.3810   -1.0489 C   0  0  0  0  0  0  0  0  0  0  0  0
    4.0638    4.6174   -2.3626 C   0  0  0  0  0  0  0  0  0  0  0  0
    3.0350    3.6214   -2.3632 O   0  0  0  0  0  0  0  0  0  0  0  0
   -1.3420   -1.6760    2.3390 C   0  0  0  0  0  0  0  0  0  0  0  0
   -2.7339   -1.1657    2.1831 C   0  0  0  0  0  0  0  0  0  0  0  0
   -3.8127   -1.6280    2.7852 N   0  0  0  0  0  0  0  0  0  0  0  0
   -4.8644   -0.8777    2.3288 N   0  0  0  0  0  0  0  0  0  0  0  0
   -4.4555    0.0326    1.4600 N   0  0  0  0  0  0  0  0  0  0  0  0
   -3.1192   -0.1275    1.3750 N   0  0  0  0  0  0  0  0  0  0  0  0
   -2.3439    0.6847    0.4631 C   0  0  0  0  0  0  0  0  0  0  0  0
   -1.8600    1.9251    1.1217 C   0  0  0  0  0  0  0  0  0  0  0  0
   -0.8095    2.2133    1.9704 C   0  0  0  0  0  0  0  0  0  0  0  0
   -0.8567    3.6070    2.2113 C   0  0  0  0  0  0  0  0  0  0  0  0
   -1.9371    4.0806    1.5068 C   0  0  0  0  0  0  0  0  0  0  0  0
   -2.5473    3.0715    0.8364 O   0  0  0  0  0  0  0  0  0  0  0  0
   -3.9521   -1.4530   -3.0287 H   0  0  0  0  0  0  0  0  0  0  0  0
   -4.3728   -2.9634   -2.1413 H   0  0  0  0  0  0  0  0  0  0  0  0
   -4.6798   -1.3753   -1.4191 H   0  0  0  0  0  0  0  0  0  0  0  0
   -2.1109   -2.5675   -3.9636 H   0  0  0  0  0  0  0  0  0  0  0  0
   -0.6063   -4.4003   -4.6318 H   0  0  0  0  0  0  0  0  0  0  0  0
    0.5165   -5.7830   -2.9082 H   0  0  0  0  0  0  0  0  0  0  0  0
    0.1437   -5.3251   -0.5127 H   0  0  0  0  0  0  0  0  0  0  0  0
   -2.5125   -3.3524    0.7762 H   0  0  0  0  0  0  0  0  0  0  0  0
   -1.0932   -4.2542    1.2305 H   0  0  0  0  0  0  0  0  0  0  0  0
    0.9224   -2.9247    2.1267 H   0  0  0  0  0  0  0  0  0  0  0  0
    1.0855   -2.9765    0.3972 H   0  0  0  0  0  0  0  0  0  0  0  0
    0.9717   -0.6308   -0.8833 H   0  0  0  0  0  0  0  0  0  0  0  0
    1.7651    1.4204   -2.0878 H   0  0  0  0  0  0  0  0  0  0  0  0
    4.1900    2.8832    2.0079 H   0  0  0  0  0  0  0  0  0  0  0  0
    3.3948    0.8386    3.1001 H   0  0  0  0  0  0  0  0  0  0  0  0
    3.0954    5.8466   -0.8511 H   0  0  0  0  0  0  0  0  0  0  0  0
    4.8270    6.1702   -1.0720 H   0  0  0  0  0  0  0  0  0  0  0  0
    3.8656    5.2968   -3.1969 H   0  0  0  0  0  0  0  0  0  0  0  0
    5.0260    4.1240   -2.5461 H   0  0  0  0  0  0  0  0  0  0  0  0
   -1.3238   -2.4713    3.0948 H   0  0  0  0  0  0  0  0  0  0  0  0
   -0.7475   -0.8520    2.7477 H   0  0  0  0  0  0  0  0  0  0  0  0
   -1.5043    0.1031    0.0831 H   0  0  0  0  0  0  0  0  0  0  0  0
   -2.9825    0.9220   -0.3956 H   0  0  0  0  0  0  0  0  0  0  0  0
   -0.0887    1.5118    2.3630 H   0  0  0  0  0  0  0  0  0  0  0  0
   -0.1891    4.1933    2.8270 H   0  0  0  0  0  0  0  0  0  0  0  0
   -2.3805    5.0579    1.3813 H   0  0  0  0  0  0  0  0  0  0  0  0
  1  2  1  0
  2  3  1  0
  3  4  2  0
  4  5  1  0
  5  6  2  0
  6  7  1  0
  7  8  2  0
  8  9  1  0
  9 10  1  0
 10 11  1  0
 11 12  1  0
 12 13  2  0
 13 14  1  0
 14 15  2  0
 15 16  1  0
 16 17  2  0
 17 18  1  0
 18 19  2  0
 19 20  1  0
 20 21  1  0
 21 22  2  0
 17 23  1  0
 23 24  1  0
 24 25  1  0
 25 26  1  0
 10 27  1  0
 27 28  1  0
 28 29  2  0
 29 30  1  0
 30 31  2  0
 31 32  1  0
 32 33  1  0
 33 34  1  0
 34 35  2  0
 35 36  1  0
 36 37  2  0
 37 38  1  0
  8  3  1  0
 21 12  1  0
 32 28  1  0
 38 34  1  0
 19 14  1  0
 26 16  1  0
  1 39  1  0
  1 40  1  0
  1 41  1  0
  4 42  1  0
  5 43  1  0
  6 44  1  0
  7 45  1  0
  9 46  1  0
  9 47  1  0
 11 48  1  0
 11 49  1  0
 13 50  1  0
 15 51  1  0
 18 52  1  0
 20 53  1  0
 24 54  1  0
 24 55  1  0
 25 56  1  0
 25 57  1  0
 27 58  1  0
 27 59  1  0
 33 60  1  0
 33 61  1  0
 35 62  1  0
 36 63  1  0
 37 64  1  0
M  END
$$$$
