
     RDKit          3D

 37 39  0  0  0  0  0  0  0  0999 V2000
    4.7787    2.7890   -3.5820 C   0  0  0  0  0  0  0  0  0  0  0  0
    5.0984    2.1480   -2.3538 O   0  0  0  0  0  0  0  0  0  0  0  0
    4.0775    1.5176   -1.6939 C   0  0  0  0  0  0  0  0  0  0  0  0
    2.7528    1.4476   -2.1174 C   0  0  0  0  0  0  0  0  0  0  0  0
    1.7881    0.7705   -1.3530 C   0  0  0  0  0  0  0  0  0  0  0  0
    2.1528    0.1557   -0.1357 C   0  0  0  0  0  0  0  0  0  0  0  0
    1.4707   -0.5949    0.8736 C   0  0  0  0  0  0  0  0  0  0  0  0
    0.0929   -0.9571    0.9786 C   0  0  0  0  0  0  0  0  0  0  0  0
   -0.9417   -0.2039    0.5695 C   0  0  0  0  0  0  0  0  0  0  0  0
   -2.3486   -0.5967    0.7052 C   0  0  0  0  0  0  0  0  0  0  0  0
   -2.8442   -1.2079    1.8561 C   0  0  0  0  0  0  0  0  0  0  0  0
   -4.1940   -1.5310    1.9393 C   0  0  0  0  0  0  0  0  0  0  0  0
   -5.0346   -1.2461    0.9200 N   0  0  0  0  0  4  0  0  0  0  0  0
   -6.4579   -1.6097    1.0264 C   0  0  0  0  0  0  0  0  0  0  0  0
   -4.5790   -0.6475   -0.2028 C   0  0  0  0  0  0  0  0  0  0  0  0
   -3.2372   -0.3045   -0.3279 C   0  0  0  0  0  0  0  0  0  0  0  0
    2.4065   -0.9803    1.8097 C   0  0  0  0  0  0  0  0  0  0  0  0
    3.6181   -0.4630    1.4343 N   0  0  0  0  0  0  0  0  0  0  0  0
    3.4921    0.2292    0.2526 C   0  0  0  0  0  0  0  0  0  0  0  0
    4.4643    0.9029   -0.4980 C   0  0  0  0  0  0  0  0  0  0  0  0
    5.6963    3.2387   -3.9733 H   0  0  0  0  0  0  0  0  0  0  0  0
    4.4200    2.0664   -4.3224 H   0  0  0  0  0  0  0  0  0  0  0  0
    4.0520    3.5937   -3.4296 H   0  0  0  0  0  0  0  0  0  0  0  0
    2.4293    1.9061   -3.0461 H   0  0  0  0  0  0  0  0  0  0  0  0
    0.7678    0.7169   -1.7170 H   0  0  0  0  0  0  0  0  0  0  0  0
   -0.0991   -1.9162    1.4554 H   0  0  0  0  0  0  0  0  0  0  0  0
   -0.7607    0.7654    0.1099 H   0  0  0  0  0  0  0  0  0  0  0  0
   -2.1908   -1.4277    2.6984 H   0  0  0  0  0  0  0  0  0  0  0  0
   -4.6108   -2.0141    2.8187 H   0  0  0  0  0  0  0  0  0  0  0  0
   -7.0535   -0.9026    0.4433 H   0  0  0  0  0  0  0  0  0  0  0  0
   -6.5659   -2.6248    0.6363 H   0  0  0  0  0  0  0  0  0  0  0  0
   -6.7628   -1.5602    2.0749 H   0  0  0  0  0  0  0  0  0  0  0  0
   -5.2947   -0.4467   -0.9952 H   0  0  0  0  0  0  0  0  0  0  0  0
   -2.8905    0.1801   -1.2391 H   0  0  0  0  0  0  0  0  0  0  0  0
    2.3221   -1.5620    2.7179 H   0  0  0  0  0  0  0  0  0  0  0  0
    4.4870   -0.5780    1.9389 H   0  0  0  0  0  0  0  0  0  0  0  0
    5.4987    0.9474   -0.1703 H   0  0  0  0  0  0  0  0  0  0  0  0
  1  2  1  0
  2  3  1  0
  3  4  2  0
  4  5  1  0
  5  6  2  0
  6  7  1  0
  7  8  1  0
  8  9  2  3
  9 10  1  0
 10 11  2  0
 11 12  1  0
 12 13  2  0
 13 14  1  0
 13 15  1  0
 15 16  2  0
  7 17  2  0
 17 18  1  0
 18 19  1  0
 19 20  2  0
 20  3  1  0
 19  6  1  0
 16 10  1  0
  1 21  1  0
  1 22  1  0
  1 23  1  0
  4 24  1  0
  5 25  1  0
  8 26  1  0
  9 27  1  0
 11 28  1  0
 12 29  1  0
 14 30  1  0
 14 31  1  0
 14 32  1  0
 15 33  1  0
 16 34  1  0
 17 35  1  0
 18 36  1  0
 20 37  1  0
M  CHG  1  13   1
M  END
$$$$
