
     RDKit          3D

 39 40  0  0  0  0  0  0  0  0999 V2000
   -2.3402   -0.4469    2.6566 C   0  0  0  0  0  0  0  0  0  0  0  0
   -3.0425    0.0506    1.4045 C   0  0  0  0  0  0  0  0  0  0  0  0
   -2.0478    0.2586    0.3924 O   0  0  0  0  0  0  0  0  0  0  0  0
   -2.6369    0.6042   -0.7988 C   0  0  0  0  0  0  0  0  0  0  0  0
   -3.1649    1.8813   -0.9862 C   0  0  0  0  0  0  0  0  0  0  0  0
   -3.7607    2.2088   -2.2043 C   0  0  0  0  0  0  0  0  0  0  0  0
   -3.8194    1.2642   -3.2280 C   0  0  0  0  0  0  0  0  0  0  0  0
   -3.2516   -0.0004   -3.0549 C   0  0  0  0  0  0  0  0  0  0  0  0
   -2.6251   -0.3154   -1.8489 C   0  0  0  0  0  0  0  0  0  0  0  0
   -2.0700   -1.5500   -1.6347 O   0  0  0  0  0  0  0  0  0  0  0  0
   -0.9271   -1.7906   -2.4559 C   0  0  0  0  0  0  0  0  0  0  0  0
    0.4323   -1.4954   -1.7994 C   0  0  0  0  0  0  0  0  0  0  0  0
    1.4642   -1.6012   -2.4586 O   0  0  0  0  0  0  0  0  0  0  0  0
    0.3332   -1.1655   -0.4698 N   0  0  0  0  0  0  0  0  0  0  0  0
    1.3486   -0.8622    0.3970 C   0  0  0  0  0  0  0  0  0  0  0  0
    1.1262   -0.5471    1.6538 N   0  0  0  0  0  0  0  0  0  0  0  0
    2.2918   -0.2809    2.3415 N   0  0  0  0  0  0  0  0  0  0  0  0
    3.3537   -0.3979    1.5690 C   0  0  0  0  0  0  0  0  0  0  0  0
    4.7584   -0.1843    2.0180 C   0  0  0  0  0  0  0  0  0  0  0  0
    5.2406    1.0175    1.4097 O   0  0  0  0  0  0  0  0  0  0  0  0
    6.5779    1.2975    1.7892 C   0  0  0  0  0  0  0  0  0  0  0  0
    2.9937   -0.8790   -0.0408 S   0  0  0  0  0  0  0  0  0  0  0  0
   -1.6041    0.2863    3.0061 H   0  0  0  0  0  0  0  0  0  0  0  0
   -3.0598   -0.6329    3.4575 H   0  0  0  0  0  0  0  0  0  0  0  0
   -1.7947   -1.3716    2.4481 H   0  0  0  0  0  0  0  0  0  0  0  0
   -3.5668    0.9874    1.6291 H   0  0  0  0  0  0  0  0  0  0  0  0
   -3.7659   -0.7005    1.0733 H   0  0  0  0  0  0  0  0  0  0  0  0
   -3.1034    2.6210   -0.1964 H   0  0  0  0  0  0  0  0  0  0  0  0
   -4.1835    3.2003   -2.3531 H   0  0  0  0  0  0  0  0  0  0  0  0
   -4.3063    1.5154   -4.1672 H   0  0  0  0  0  0  0  0  0  0  0  0
   -3.3044   -0.7292   -3.8576 H   0  0  0  0  0  0  0  0  0  0  0  0
   -0.9327   -2.8616   -2.6856 H   0  0  0  0  0  0  0  0  0  0  0  0
   -0.9656   -1.2547   -3.4124 H   0  0  0  0  0  0  0  0  0  0  0  0
   -0.5958   -1.0510   -0.0729 H   0  0  0  0  0  0  0  0  0  0  0  0
    4.7818   -0.0788    3.1094 H   0  0  0  0  0  0  0  0  0  0  0  0
    5.3875   -1.0335    1.7316 H   0  0  0  0  0  0  0  0  0  0  0  0
    7.2444    0.4868    1.4779 H   0  0  0  0  0  0  0  0  0  0  0  0
    6.8896    2.2182    1.2903 H   0  0  0  0  0  0  0  0  0  0  0  0
    6.6450    1.4460    2.8708 H   0  0  0  0  0  0  0  0  0  0  0  0
  1  2  1  0
  2  3  1  0
  3  4  1  0
  4  5  2  0
  5  6  1  0
  6  7  2  0
  7  8  1  0
  8  9  2  0
  9 10  1  0
 10 11  1  0
 11 12  1  0
 12 13  2  0
 12 14  1  0
 14 15  1  0
 15 16  2  0
 16 17  1  0
 17 18  2  0
 18 19  1  0
 19 20  1  0
 20 21  1  0
 18 22  1  0
  9  4  1  0
 22 15  1  0
  1 23  1  0
  1 24  1  0
  1 25  1  0
  2 26  1  0
  2 27  1  0
  5 28  1  0
  6 29  1  0
  7 30  1  0
  8 31  1  0
 11 32  1  0
 11 33  1  0
 14 34  1  0
 19 35  1  0
 19 36  1  0
 21 37  1  0
 21 38  1  0
 21 39  1  0
M  END
$$$$
