
     RDKit          3D

 29 30  0  0  0  0  0  0  0  0999 V2000
    4.2458    1.0695   -0.0049 C   0  0  0  0  0  0  0  0  0  0  0  0
    2.9432    0.4047    0.4026 C   0  0  0  0  0  0  0  0  0  0  0  0
    2.6902   -0.7286   -0.4835 N   0  0  0  0  0  0  0  0  0  0  0  0
    1.6940   -1.9793    0.0271 S   0  0  0  0  0  6  0  0  0  0  0  0
    1.4943   -2.8383   -1.1184 O   0  0  0  0  0  0  0  0  0  0  0  0
    2.2160   -2.4819    1.2786 O   0  0  0  0  0  0  0  0  0  0  0  0
    0.1645   -1.1415    0.3567 C   0  0  0  0  0  0  0  0  0  0  0  0
   -0.2262   -0.8984    1.6869 C   0  0  0  0  0  0  0  0  0  0  0  0
   -1.4251   -0.2343    1.9510 C   0  0  0  0  0  0  0  0  0  0  0  0
   -2.2100    0.1469    0.8748 C   0  0  0  0  0  0  0  0  0  0  0  0
   -1.8322   -0.1207   -0.4404 C   0  0  0  0  0  0  0  0  0  0  0  0
   -0.6376   -0.7531   -0.7224 C   0  0  0  0  0  0  0  0  0  0  0  0
   -2.7410    0.3777   -1.4077 N   0  0  0  0  0  0  0  0  0  0  0  0
   -3.9118    0.7736   -0.5937 C   0  0  0  0  0  0  0  0  0  0  0  0
   -3.4813    0.9193    0.8756 C   0  0  0  0  0  0  0  0  0  0  0  0
    4.1995    1.4253   -1.0397 H   0  0  0  0  0  0  0  0  0  0  0  0
    5.0841    0.3687    0.0703 H   0  0  0  0  0  0  0  0  0  0  0  0
    4.4558    1.9265    0.6425 H   0  0  0  0  0  0  0  0  0  0  0  0
    2.1248    1.1262    0.3155 H   0  0  0  0  0  0  0  0  0  0  0  0
    3.0168    0.0793    1.4446 H   0  0  0  0  0  0  0  0  0  0  0  0
    2.6719   -0.5772   -1.4904 H   0  0  0  0  0  0  0  0  0  0  0  0
    0.4029   -1.2196    2.5150 H   0  0  0  0  0  0  0  0  0  0  0  0
   -1.7286   -0.0229    2.9715 H   0  0  0  0  0  0  0  0  0  0  0  0
   -0.3493   -0.9596   -1.7479 H   0  0  0  0  0  0  0  0  0  0  0  0
   -2.3150    1.1765   -1.8758 H   0  0  0  0  0  0  0  0  0  0  0  0
   -4.3564    1.6995   -0.9745 H   0  0  0  0  0  0  0  0  0  0  0  0
   -4.6720   -0.0130   -0.6827 H   0  0  0  0  0  0  0  0  0  0  0  0
   -3.2868    1.9678    1.1239 H   0  0  0  0  0  0  0  0  0  0  0  0
   -4.2305    0.5065    1.5567 H   0  0  0  0  0  0  0  0  0  0  0  0
  1  2  1  0
  2  3  1  0
  3  4  1  0
  4  5  2  0
  4  6  2  0
  4  7  1  0
  7  8  2  0
  8  9  1  0
  9 10  2  0
 10 11  1  0
 11 12  2  0
 11 13  1  0
 13 14  1  0
 14 15  1  0
 12  7  1  0
 15 10  1  0
  1 16  1  0
  1 17  1  0
  1 18  1  0
  2 19  1  0
  2 20  1  0
  3 21  1  0
  8 22  1  0
  9 23  1  0
 12 24  1  0
 13 25  1  0
 14 26  1  0
 14 27  1  0
 15 28  1  0
 15 29  1  0
M  END
$$$$
