
     RDKit          3D

 49 53  0  0  0  0  0  0  0  0999 V2000
   -0.3886    2.9656    2.1007 O   0  0  0  0  0  0  0  0  0  0  0  0
   -0.6068    1.8906    1.5399 C   0  0  0  0  0  0  0  0  0  0  0  0
   -1.8874    1.6117    0.9167 C   0  0  0  0  0  0  0  0  0  0  0  0
   -2.7180    0.5039    0.9271 C   0  0  0  0  0  0  0  0  0  0  0  0
   -3.8661    0.8265    0.1487 C   0  0  0  0  0  0  0  0  0  0  0  0
   -3.6674    2.1362   -0.2689 C   0  0  0  0  0  0  0  0  0  0  0  0
   -4.5608    2.8552   -1.0572 C   0  0  0  0  0  0  0  0  0  0  0  0
   -5.7310    2.1929   -1.4447 C   0  0  0  0  0  0  0  0  0  0  0  0
   -5.9939    0.8684   -1.0560 C   0  0  0  0  0  0  0  0  0  0  0  0
   -7.1704    0.2120   -1.4485 C   0  0  0  0  0  0  0  0  0  0  0  0
   -7.4217   -1.1054   -1.0542 C   0  0  0  0  0  0  0  0  0  0  0  0
   -6.5030   -1.7898   -0.2603 C   0  0  0  0  0  0  0  0  0  0  0  0
   -5.3253   -1.1621    0.1447 C   0  0  0  0  0  0  0  0  0  0  0  0
   -5.0606    0.1656   -0.2481 C   0  0  0  0  0  0  0  0  0  0  0  0
   -2.4848    2.6144    0.2007 O   0  0  0  0  0  0  0  0  0  0  0  0
    0.3769    0.8986    1.5074 N   0  0  0  0  0  0  0  0  0  0  0  0
    1.5469    1.0236    2.3871 C   0  0  0  0  0  0  0  0  0  0  0  0
    2.8717    0.7752    1.6432 C   0  0  0  0  0  0  0  0  0  0  0  0
    2.8082   -0.5295    0.9404 N   0  0  0  0  0  0  0  0  0  0  0  0
    4.0570   -0.8501    0.3625 C   0  0  0  0  0  0  0  0  0  0  0  0
    4.2308   -0.6324   -0.9651 N   0  0  0  0  0  0  0  0  0  0  0  0
    5.4276   -0.9326   -1.5238 C   0  0  0  0  0  0  0  0  0  0  0  0
    6.4985   -1.4658   -0.8271 C   0  0  0  0  0  0  0  0  0  0  0  0
    7.7882   -1.7452   -1.5317 C   0  0  0  0  0  0  0  0  0  0  0  0
    8.5351   -0.6207   -1.7064 F   0  0  0  0  0  0  0  0  0  0  0  0
    8.5856   -2.6247   -0.8645 F   0  0  0  0  0  0  0  0  0  0  0  0
    7.6078   -2.2730   -2.7739 F   0  0  0  0  0  0  0  0  0  0  0  0
    6.3214   -1.6963    0.5381 C   0  0  0  0  0  0  0  0  0  0  0  0
    5.0972   -1.3947    1.1398 C   0  0  0  0  0  0  0  0  0  0  0  0
    4.9170   -1.7629    2.8201 Cl  0  0  0  0  0  0  0  0  0  0  0  0
    1.7029   -0.5509   -0.0423 C   0  0  0  0  0  0  0  0  0  0  0  0
    0.3554   -0.3128    0.6714 C   0  0  0  0  0  0  0  0  0  0  0  0
   -2.5224   -0.4236    1.4459 H   0  0  0  0  0  0  0  0  0  0  0  0
   -4.3550    3.8775   -1.3514 H   0  0  0  0  0  0  0  0  0  0  0  0
   -6.4481    2.7320   -2.0620 H   0  0  0  0  0  0  0  0  0  0  0  0
   -7.9055    0.7231   -2.0670 H   0  0  0  0  0  0  0  0  0  0  0  0
   -8.3395   -1.5973   -1.3675 H   0  0  0  0  0  0  0  0  0  0  0  0
   -6.7056   -2.8135    0.0447 H   0  0  0  0  0  0  0  0  0  0  0  0
   -4.6225   -1.7114    0.7652 H   0  0  0  0  0  0  0  0  0  0  0  0
    1.4213    0.2708    3.1754 H   0  0  0  0  0  0  0  0  0  0  0  0
    1.5790    2.0022    2.8757 H   0  0  0  0  0  0  0  0  0  0  0  0
    3.6875    0.8044    2.3738 H   0  0  0  0  0  0  0  0  0  0  0  0
    3.0429    1.5845    0.9201 H   0  0  0  0  0  0  0  0  0  0  0  0
    5.4920   -0.7228   -2.5903 H   0  0  0  0  0  0  0  0  0  0  0  0
    7.1300   -2.1195    1.1316 H   0  0  0  0  0  0  0  0  0  0  0  0
    1.6602   -1.5225   -0.5500 H   0  0  0  0  0  0  0  0  0  0  0  0
    1.8389    0.2319   -0.8008 H   0  0  0  0  0  0  0  0  0  0  0  0
   -0.4237   -0.2541   -0.0912 H   0  0  0  0  0  0  0  0  0  0  0  0
    0.1280   -1.1538    1.3368 H   0  0  0  0  0  0  0  0  0  0  0  0
  1  2  2  0
  2  3  1  0
  3  4  2  0
  4  5  1  0
  5  6  2  0
  6  7  1  0
  7  8  2  0
  8  9  1  0
  9 10  2  0
 10 11  1  0
 11 12  2  0
 12 13  1  0
 13 14  2  0
  6 15  1  0
  2 16  1  0
 16 17  1  0
 17 18  1  0
 18 19  1  0
 19 20  1  0
 20 21  2  0
 21 22  1  0
 22 23  2  0
 23 24  1  0
 24 25  1  0
 24 26  1  0
 24 27  1  0
 23 28  1  0
 28 29  2  0
 29 30  1  0
 19 31  1  0
 31 32  1  0
 15  3  1  0
 32 16  1  0
 14  5  1  0
 29 20  1  0
 14  9  1  0
  4 33  1  0
  7 34  1  0
  8 35  1  0
 10 36  1  0
 11 37  1  0
 12 38  1  0
 13 39  1  0
 17 40  1  0
 17 41  1  0
 18 42  1  0
 18 43  1  0
 22 44  1  0
 28 45  1  0
 31 46  1  0
 31 47  1  0
 32 48  1  0
 32 49  1  0
M  END
$$$$
