
     RDKit          3D

 42 44  0  0  0  0  0  0  0  0999 V2000
   -4.6779    3.1053   -2.1587 C   0  0  0  0  0  0  0  0  0  0  0  0
   -4.8245    1.8640   -1.3006 C   0  0  0  0  0  0  0  0  0  0  0  0
   -5.9239    1.3043   -1.2705 O   0  0  0  0  0  0  0  0  0  0  0  0
   -3.6673    1.4403   -0.5946 N   0  0  0  0  0  0  0  0  0  0  0  0
   -2.6057    2.3326   -0.4016 C   0  0  0  0  0  0  0  0  0  0  0  0
   -1.2903    2.0801   -0.2868 C   0  0  0  0  0  0  0  0  0  0  0  0
   -0.6007    0.8185   -0.4562 C   0  0  0  0  0  0  0  0  0  0  0  0
    0.7142    0.6733   -0.2268 C   0  0  0  0  0  0  0  0  0  0  0  0
    1.4026   -0.5891   -0.4044 C   0  0  0  0  0  0  0  0  0  0  0  0
    2.7071   -0.8365   -0.2074 C   0  0  0  0  0  0  0  0  0  0  0  0
    3.3831   -2.4312   -0.4659 S   0  0  0  0  0  0  0  0  0  0  0  0
    5.0029   -1.8852   -0.0100 C   0  0  0  0  0  0  0  0  0  0  0  0
    6.1508   -2.6645    0.0266 C   0  0  0  0  0  0  0  0  0  0  0  0
    7.3585   -2.0721    0.4120 C   0  0  0  0  0  0  0  0  0  0  0  0
    7.4103   -0.7133    0.7560 C   0  0  0  0  0  0  0  0  0  0  0  0
    6.2542    0.0669    0.7181 C   0  0  0  0  0  0  0  0  0  0  0  0
    5.0649   -0.5397    0.3329 C   0  0  0  0  0  0  0  0  0  0  0  0
    3.7624    0.1311    0.2389 C   0  0  0  0  0  0  0  0  0  0  0  0
    3.6132    1.3130    0.4984 O   0  0  0  0  0  0  0  0  0  0  0  0
   -3.7247    0.1519    0.0657 C   0  0  0  0  0  0  0  0  0  0  0  0
   -3.1342   -0.0410    1.3269 C   0  0  0  0  0  0  0  0  0  0  0  0
   -3.1772   -1.2855    1.9635 C   0  0  0  0  0  0  0  0  0  0  0  0
   -3.8168   -2.3594    1.3525 C   0  0  0  0  0  0  0  0  0  0  0  0
   -4.4164   -2.1879    0.1084 C   0  0  0  0  0  0  0  0  0  0  0  0
   -4.3724   -0.9427   -0.5276 C   0  0  0  0  0  0  0  0  0  0  0  0
   -4.7793    4.0012   -1.5409 H   0  0  0  0  0  0  0  0  0  0  0  0
   -5.4720    3.1118   -2.9124 H   0  0  0  0  0  0  0  0  0  0  0  0
   -3.7247    3.1089   -2.6940 H   0  0  0  0  0  0  0  0  0  0  0  0
   -2.8951    3.3817   -0.3821 H   0  0  0  0  0  0  0  0  0  0  0  0
   -0.6413    2.9405   -0.1170 H   0  0  0  0  0  0  0  0  0  0  0  0
   -1.1825   -0.0303   -0.8066 H   0  0  0  0  0  0  0  0  0  0  0  0
    1.2955    1.5274    0.1127 H   0  0  0  0  0  0  0  0  0  0  0  0
    0.7697   -1.4146   -0.7316 H   0  0  0  0  0  0  0  0  0  0  0  0
    6.1193   -3.7175   -0.2384 H   0  0  0  0  0  0  0  0  0  0  0  0
    8.2668   -2.6707    0.4453 H   0  0  0  0  0  0  0  0  0  0  0  0
    8.3564   -0.2662    1.0538 H   0  0  0  0  0  0  0  0  0  0  0  0
    6.2800    1.1204    0.9819 H   0  0  0  0  0  0  0  0  0  0  0  0
   -2.6502    0.7820    1.8458 H   0  0  0  0  0  0  0  0  0  0  0  0
   -2.7167   -1.4097    2.9401 H   0  0  0  0  0  0  0  0  0  0  0  0
   -3.8553   -3.3260    1.8476 H   0  0  0  0  0  0  0  0  0  0  0  0
   -4.9236   -3.0206   -0.3720 H   0  0  0  0  0  0  0  0  0  0  0  0
   -4.8395   -0.8515   -1.5052 H   0  0  0  0  0  0  0  0  0  0  0  0
  1  2  1  0
  2  3  2  0
  2  4  1  0
  4  5  1  0
  5  6  2  3
  6  7  1  0
  7  8  2  3
  8  9  1  0
  9 10  2  3
 10 11  1  0
 11 12  1  0
 12 13  2  0
 13 14  1  0
 14 15  2  0
 15 16  1  0
 16 17  2  0
 17 18  1  0
 18 19  2  0
  4 20  1  0
 20 21  2  0
 21 22  1  0
 22 23  2  0
 23 24  1  0
 24 25  2  0
 18 10  1  0
 25 20  1  0
 17 12  1  0
  1 26  1  0
  1 27  1  0
  1 28  1  0
  5 29  1  0
  6 30  1  0
  7 31  1  0
  8 32  1  0
  9 33  1  0
 13 34  1  0
 14 35  1  0
 15 36  1  0
 16 37  1  0
 21 38  1  0
 22 39  1  0
 23 40  1  0
 24 41  1  0
 25 42  1  0
M  END
$$$$
