
     RDKit          3D

 58 61  0  0  0  0  0  0  0  0999 V2000
   -5.4815    4.9998   -0.0883 C   0  0  0  0  0  0  0  0  0  0  0  0
   -5.2587    3.6159   -0.3264 O   0  0  0  0  0  0  0  0  0  0  0  0
   -4.3121    2.9996    0.4457 C   0  0  0  0  0  0  0  0  0  0  0  0
   -3.5452    3.6050    1.4414 C   0  0  0  0  0  0  0  0  0  0  0  0
   -2.6059    2.8566    2.1551 C   0  0  0  0  0  0  0  0  0  0  0  0
   -2.4296    1.5008    1.8770 C   0  0  0  0  0  0  0  0  0  0  0  0
   -3.1923    0.8783    0.8823 C   0  0  0  0  0  0  0  0  0  0  0  0
   -2.9929   -0.5438    0.5765 C   0  0  0  0  0  0  0  0  0  0  0  0
   -4.2853   -1.6262    0.8715 S   0  0  0  0  0  0  0  0  0  0  0  0
   -3.3835   -2.9904    0.3515 C   0  0  0  0  0  0  0  0  0  0  0  0
   -3.8246   -4.3270    0.3068 C   0  0  0  0  0  0  0  0  0  0  0  0
   -2.9534   -5.3212   -0.1529 C   0  0  0  0  0  0  0  0  0  0  0  0
   -1.6678   -4.9990   -0.5650 C   0  0  0  0  0  0  0  0  0  0  0  0
   -0.7288   -5.8768   -1.0337 O   0  0  0  0  0  0  0  0  0  0  0  0
   -1.1167   -7.2410   -1.1380 C   0  0  0  0  0  0  0  0  0  0  0  0
   -1.2422   -3.6661   -0.5148 C   0  0  0  0  0  0  0  0  0  0  0  0
   -2.0961   -2.6318   -0.0478 C   0  0  0  0  0  0  0  0  0  0  0  0
   -1.8753   -1.2074    0.0914 C   0  0  0  0  0  0  0  0  0  0  0  0
   -0.6374   -0.5018   -0.2295 C   0  0  0  0  0  0  0  0  0  0  0  0
   -0.5941    0.4224   -1.2769 C   0  0  0  0  0  0  0  0  0  0  0  0
    0.5977    1.0892   -1.5714 C   0  0  0  0  0  0  0  0  0  0  0  0
    1.7570    0.8396   -0.8326 C   0  0  0  0  0  0  0  0  0  0  0  0
    2.8503    1.5599   -1.2274 O   0  0  0  0  0  0  0  0  0  0  0  0
    4.0724    1.3329   -0.5181 C   0  0  0  0  0  0  0  0  0  0  0  0
    5.1552    2.2373   -1.1341 C   0  0  0  0  0  0  0  0  0  0  0  0
    6.5105    2.1722   -0.5622 N   0  0  0  0  0  0  0  0  0  0  0  0
    7.1286    0.8605   -0.7307 C   0  0  0  0  0  0  0  0  0  0  0  0
    6.5534    2.5997    0.8328 C   0  0  0  0  0  0  0  0  0  0  0  0
    1.7161   -0.0869    0.2098 C   0  0  0  0  0  0  0  0  0  0  0  0
    0.5235   -0.7555    0.5096 C   0  0  0  0  0  0  0  0  0  0  0  0
   -4.1313    1.6400    0.1720 C   0  0  0  0  0  0  0  0  0  0  0  0
   -6.2605    5.3366   -0.7791 H   0  0  0  0  0  0  0  0  0  0  0  0
   -5.8433    5.1720    0.9307 H   0  0  0  0  0  0  0  0  0  0  0  0
   -4.5794    5.5858   -0.2928 H   0  0  0  0  0  0  0  0  0  0  0  0
   -3.6511    4.6564    1.6861 H   0  0  0  0  0  0  0  0  0  0  0  0
   -2.0076    3.3318    2.9284 H   0  0  0  0  0  0  0  0  0  0  0  0
   -1.6930    0.9330    2.4407 H   0  0  0  0  0  0  0  0  0  0  0  0
   -4.8312   -4.5857    0.6241 H   0  0  0  0  0  0  0  0  0  0  0  0
   -3.3220   -6.3416   -0.1750 H   0  0  0  0  0  0  0  0  0  0  0  0
   -1.3567   -7.6588   -0.1548 H   0  0  0  0  0  0  0  0  0  0  0  0
   -1.9526   -7.3621   -1.8348 H   0  0  0  0  0  0  0  0  0  0  0  0
   -0.2659   -7.8006   -1.5385 H   0  0  0  0  0  0  0  0  0  0  0  0
   -0.2356   -3.4217   -0.8471 H   0  0  0  0  0  0  0  0  0  0  0  0
   -1.4819    0.6320   -1.8687 H   0  0  0  0  0  0  0  0  0  0  0  0
    0.6215    1.8096   -2.3856 H   0  0  0  0  0  0  0  0  0  0  0  0
    3.9335    1.5870    0.5386 H   0  0  0  0  0  0  0  0  0  0  0  0
    4.3638    0.2816   -0.6200 H   0  0  0  0  0  0  0  0  0  0  0  0
    5.2158    2.0255   -2.2104 H   0  0  0  0  0  0  0  0  0  0  0  0
    4.8049    3.2778   -1.0926 H   0  0  0  0  0  0  0  0  0  0  0  0
    7.1151    0.5574   -1.7834 H   0  0  0  0  0  0  0  0  0  0  0  0
    8.1815    0.8950   -0.4291 H   0  0  0  0  0  0  0  0  0  0  0  0
    6.6338    0.0826   -0.1393 H   0  0  0  0  0  0  0  0  0  0  0  0
    6.1089    3.5944    0.9479 H   0  0  0  0  0  0  0  0  0  0  0  0
    7.5917    2.6801    1.1739 H   0  0  0  0  0  0  0  0  0  0  0  0
    6.0315    1.9071    1.5018 H   0  0  0  0  0  0  0  0  0  0  0  0
    2.5903   -0.3143    0.8101 H   0  0  0  0  0  0  0  0  0  0  0  0
    0.5070   -1.4732    1.3270 H   0  0  0  0  0  0  0  0  0  0  0  0
   -4.7280    1.1777   -0.6115 H   0  0  0  0  0  0  0  0  0  0  0  0
  1  2  1  0
  2  3  1  0
  3  4  2  0
  4  5  1  0
  5  6  2  0
  6  7  1  0
  7  8  1  0
  8  9  1  0
  9 10  1  0
 10 11  2  0
 11 12  1  0
 12 13  2  0
 13 14  1  0
 14 15  1  0
 13 16  1  0
 16 17  2  0
 17 18  1  0
 18 19  1  0
 19 20  2  0
 20 21  1  0
 21 22  2  0
 22 23  1  0
 23 24  1  0
 24 25  1  0
 25 26  1  0
 26 27  1  0
 26 28  1  0
 22 29  1  0
 29 30  2  0
  7 31  2  0
 31  3  1  0
 18  8  2  0
 30 19  1  0
 17 10  1  0
  1 32  1  0
  1 33  1  0
  1 34  1  0
  4 35  1  0
  5 36  1  0
  6 37  1  0
 11 38  1  0
 12 39  1  0
 15 40  1  0
 15 41  1  0
 15 42  1  0
 16 43  1  0
 20 44  1  0
 21 45  1  0
 24 46  1  0
 24 47  1  0
 25 48  1  0
 25 49  1  0
 27 50  1  0
 27 51  1  0
 27 52  1  0
 28 53  1  0
 28 54  1  0
 28 55  1  0
 29 56  1  0
 30 57  1  0
 31 58  1  0
M  END
$$$$
