
     RDKit          3D

 57 60  0  0  0  0  0  0  0  0999 V2000
   -6.8697   -1.7398   -0.4407 C   0  0  0  0  0  0  0  0  0  0  0  0
   -5.5271   -1.3187    0.1595 C   0  0  0  0  0  0  0  0  0  0  0  0
   -5.2701   -2.0853    1.4553 C   0  0  0  0  0  0  0  0  0  0  0  0
   -4.3881   -1.5795   -0.8294 C   0  0  0  0  0  0  0  0  0  0  0  0
   -4.4832   -2.4718   -1.6745 O   0  0  0  0  0  0  0  0  0  0  0  0
   -3.2370   -0.8133   -0.7123 N   0  0  0  0  0  0  0  0  0  0  0  0
   -2.1415   -1.0412   -1.6676 C   0  0  0  0  0  0  0  0  0  0  0  0
   -1.4312    0.2670   -2.0547 C   0  0  0  0  0  0  0  0  0  0  0  0
   -0.8533    0.9301   -0.8610 N   0  0  0  0  0  0  0  0  0  0  0  0
   -0.5011    2.2880   -1.0795 C   0  0  0  0  0  0  0  0  0  0  0  0
   -1.4365    3.2582   -1.4674 C   0  0  0  0  0  0  0  0  0  0  0  0
   -1.0475    4.5871   -1.6440 C   0  0  0  0  0  0  0  0  0  0  0  0
    0.2771    4.9617   -1.4290 C   0  0  0  0  0  0  0  0  0  0  0  0
    1.2221    4.0122   -1.0345 C   0  0  0  0  0  0  0  0  0  0  0  0
    0.8415    2.6826   -0.8554 C   0  0  0  0  0  0  0  0  0  0  0  0
    1.7229    1.6528   -0.4650 N   0  0  0  0  0  0  0  0  0  0  0  0
    3.0500    1.7485   -0.1144 C   0  0  0  0  0  0  0  0  0  0  0  0
    3.7114    2.7754   -0.0197 O   0  0  0  0  0  0  0  0  0  0  0  0
    3.7043    0.4491    0.2109 C   0  0  0  0  0  0  0  0  0  0  0  0
    3.3705   -0.7342   -0.4653 C   0  0  0  0  0  0  0  0  0  0  0  0
    4.0055   -1.9327   -0.1307 C   0  0  0  0  0  0  0  0  0  0  0  0
    4.9729   -1.9507    0.8723 C   0  0  0  0  0  0  0  0  0  0  0  0
    5.3346   -0.7646    1.5204 C   0  0  0  0  0  0  0  0  0  0  0  0
    4.6976    0.4320    1.1981 C   0  0  0  0  0  0  0  0  0  0  0  0
    6.3024   -0.7059    2.4906 O   0  0  0  0  0  0  0  0  0  0  0  0
    7.1204   -1.8811    2.4821 C   0  0  0  0  0  0  0  0  0  0  0  0
    6.2598   -3.1308    2.3962 C   0  0  0  0  0  0  0  0  0  0  0  0
    5.5376   -3.1669    1.1594 O   0  0  0  0  0  0  0  0  0  0  0  0
   -1.6033    0.7376    0.4051 C   0  0  0  0  0  0  0  0  0  0  0  0
   -3.0749    0.3447    0.1809 C   0  0  0  0  0  0  0  0  0  0  0  0
   -7.6938   -1.4800    0.2332 H   0  0  0  0  0  0  0  0  0  0  0  0
   -7.0418   -1.2326   -1.3966 H   0  0  0  0  0  0  0  0  0  0  0  0
   -6.9115   -2.8193   -0.6258 H   0  0  0  0  0  0  0  0  0  0  0  0
   -5.5920   -0.2453    0.3666 H   0  0  0  0  0  0  0  0  0  0  0  0
   -5.2666   -3.1677    1.2781 H   0  0  0  0  0  0  0  0  0  0  0  0
   -6.0471   -1.8663    2.1956 H   0  0  0  0  0  0  0  0  0  0  0  0
   -4.3013   -1.8310    1.8972 H   0  0  0  0  0  0  0  0  0  0  0  0
   -2.5116   -1.5370   -2.5711 H   0  0  0  0  0  0  0  0  0  0  0  0
   -1.4355   -1.7242   -1.1790 H   0  0  0  0  0  0  0  0  0  0  0  0
   -0.6222    0.0455   -2.7612 H   0  0  0  0  0  0  0  0  0  0  0  0
   -2.1559    0.9114   -2.5678 H   0  0  0  0  0  0  0  0  0  0  0  0
   -2.4769    2.9939   -1.6292 H   0  0  0  0  0  0  0  0  0  0  0  0
   -1.7784    5.3321   -1.9478 H   0  0  0  0  0  0  0  0  0  0  0  0
    0.5808    5.9964   -1.5670 H   0  0  0  0  0  0  0  0  0  0  0  0
    2.2463    4.3355   -0.8776 H   0  0  0  0  0  0  0  0  0  0  0  0
    1.2461    0.7582   -0.3961 H   0  0  0  0  0  0  0  0  0  0  0  0
    2.6386   -0.7341   -1.2687 H   0  0  0  0  0  0  0  0  0  0  0  0
    3.7466   -2.8520   -0.6496 H   0  0  0  0  0  0  0  0  0  0  0  0
    4.9791    1.3501    1.7092 H   0  0  0  0  0  0  0  0  0  0  0  0
    7.7038   -1.8858    3.4083 H   0  0  0  0  0  0  0  0  0  0  0  0
    7.8186   -1.8145    1.6385 H   0  0  0  0  0  0  0  0  0  0  0  0
    5.5383   -3.1797    3.2218 H   0  0  0  0  0  0  0  0  0  0  0  0
    6.8884   -4.0260    2.4390 H   0  0  0  0  0  0  0  0  0  0  0  0
   -1.5500    1.6195    1.0572 H   0  0  0  0  0  0  0  0  0  0  0  0
   -1.1048   -0.0760    0.9479 H   0  0  0  0  0  0  0  0  0  0  0  0
   -3.5419    0.1429    1.1476 H   0  0  0  0  0  0  0  0  0  0  0  0
   -3.6212    1.1754   -0.2815 H   0  0  0  0  0  0  0  0  0  0  0  0
  1  2  1  0
  2  3  1  0
  2  4  1  0
  4  5  2  0
  4  6  1  0
  6  7  1  0
  7  8  1  0
  8  9  1  0
  9 10  1  0
 10 11  2  0
 11 12  1  0
 12 13  2  0
 13 14  1  0
 14 15  2  0
 15 16  1  0
 16 17  1  0
 17 18  2  0
 17 19  1  0
 19 20  2  0
 20 21  1  0
 21 22  2  0
 22 23  1  0
 23 24  2  0
 23 25  1  0
 25 26  1  0
 26 27  1  0
 27 28  1  0
  9 29  1  0
 29 30  1  0
 30  6  1  0
 15 10  1  0
 24 19  1  0
 28 22  1  0
  1 31  1  0
  1 32  1  0
  1 33  1  0
  2 34  1  0
  3 35  1  0
  3 36  1  0
  3 37  1  0
  7 38  1  0
  7 39  1  0
  8 40  1  0
  8 41  1  0
 11 42  1  0
 12 43  1  0
 13 44  1  0
 14 45  1  0
 16 46  1  0
 20 47  1  0
 21 48  1  0
 24 49  1  0
 26 50  1  0
 26 51  1  0
 27 52  1  0
 27 53  1  0
 29 54  1  0
 29 55  1  0
 30 56  1  0
 30 57  1  0
M  END
$$$$
