
     RDKit          3D

 40 41  0  0  0  0  0  0  0  0999 V2000
    6.4212   -1.1813    1.1291 C   0  0  0  0  0  0  0  0  0  0  0  0
    6.8005   -0.2955   -0.4020 S   0  0  0  0  0  0  0  0  0  0  0  0
    5.8148    1.2107   -0.1332 C   0  0  0  0  0  0  0  0  0  0  0  0
    4.3268    0.9618   -0.1148 C   0  0  0  0  0  0  0  0  0  0  0  0
    3.5962    1.0887    1.0761 C   0  0  0  0  0  0  0  0  0  0  0  0
    2.2161    0.8627    1.0931 C   0  0  0  0  0  0  0  0  0  0  0  0
    1.5502    0.5007   -0.0838 C   0  0  0  0  0  0  0  0  0  0  0  0
    0.0830    0.2531   -0.1157 C   0  0  0  0  0  0  0  0  0  0  0  0
   -0.5560    0.4387   -1.1454 O   0  0  0  0  0  0  0  0  0  0  0  0
   -0.4842   -0.2290    1.0470 N   0  0  0  0  0  0  0  0  0  0  0  0
   -1.9006   -0.5507    1.1101 C   0  0  0  0  0  0  0  0  0  0  0  0
   -2.2341   -1.8449    0.3646 C   0  0  0  0  0  0  0  0  0  0  0  0
   -4.0032   -2.2899    0.4882 S   0  0  0  0  0  0  0  0  0  0  0  0
   -4.8134   -0.9711   -0.4069 C   0  0  0  0  0  0  0  0  0  0  0  0
   -4.2608   -0.3308   -1.5215 C   0  0  0  0  0  0  0  0  0  0  0  0
   -4.9597    0.6898   -2.1755 C   0  0  0  0  0  0  0  0  0  0  0  0
   -6.2221    1.0654   -1.7246 C   0  0  0  0  0  0  0  0  0  0  0  0
   -7.1661    2.4428   -2.6090 Br  0  0  0  0  0  0  0  0  0  0  0  0
   -6.7941    0.4277   -0.6277 C   0  0  0  0  0  0  0  0  0  0  0  0
   -6.0912   -0.5896    0.0250 C   0  0  0  0  0  0  0  0  0  0  0  0
    2.2694    0.3909   -1.2785 C   0  0  0  0  0  0  0  0  0  0  0  0
    3.6480    0.6151   -1.2925 C   0  0  0  0  0  0  0  0  0  0  0  0
    6.6392   -0.5564    1.9991 H   0  0  0  0  0  0  0  0  0  0  0  0
    7.0444   -2.0781    1.1844 H   0  0  0  0  0  0  0  0  0  0  0  0
    5.3742   -1.4934    1.1483 H   0  0  0  0  0  0  0  0  0  0  0  0
    6.1464    1.6893    0.7950 H   0  0  0  0  0  0  0  0  0  0  0  0
    6.0441    1.9171   -0.9394 H   0  0  0  0  0  0  0  0  0  0  0  0
    4.0963    1.3751    1.9993 H   0  0  0  0  0  0  0  0  0  0  0  0
    1.6739    1.0035    2.0236 H   0  0  0  0  0  0  0  0  0  0  0  0
    0.1125   -0.5538    1.7956 H   0  0  0  0  0  0  0  0  0  0  0  0
   -2.4498    0.3016    0.6967 H   0  0  0  0  0  0  0  0  0  0  0  0
   -2.1547   -0.6376    2.1722 H   0  0  0  0  0  0  0  0  0  0  0  0
   -1.9259   -1.8101   -0.6840 H   0  0  0  0  0  0  0  0  0  0  0  0
   -1.6678   -2.6691    0.8140 H   0  0  0  0  0  0  0  0  0  0  0  0
   -3.2832   -0.6054   -1.9086 H   0  0  0  0  0  0  0  0  0  0  0  0
   -4.5064    1.1796   -3.0338 H   0  0  0  0  0  0  0  0  0  0  0  0
   -7.7816    0.7096   -0.2729 H   0  0  0  0  0  0  0  0  0  0  0  0
   -6.5528   -1.0817    0.8788 H   0  0  0  0  0  0  0  0  0  0  0  0
    1.7586    0.1272   -2.2027 H   0  0  0  0  0  0  0  0  0  0  0  0
    4.1918    0.5173   -2.2309 H   0  0  0  0  0  0  0  0  0  0  0  0
  1  2  1  0
  2  3  1  0
  3  4  1  0
  4  5  2  0
  5  6  1  0
  6  7  2  0
  7  8  1  0
  8  9  2  0
  8 10  1  0
 10 11  1  0
 11 12  1  0
 12 13  1  0
 13 14  1  0
 14 15  2  0
 15 16  1  0
 16 17  2  0
 17 18  1  0
 17 19  1  0
 19 20  2  0
  7 21  1  0
 21 22  2  0
 22  4  1  0
 20 14  1  0
  1 23  1  0
  1 24  1  0
  1 25  1  0
  3 26  1  0
  3 27  1  0
  5 28  1  0
  6 29  1  0
 10 30  1  0
 11 31  1  0
 11 32  1  0
 12 33  1  0
 12 34  1  0
 15 35  1  0
 16 36  1  0
 19 37  1  0
 20 38  1  0
 21 39  1  0
 22 40  1  0
M  END
$$$$
