
     RDKit          3D

 35 37  0  0  0  0  0  0  0  0999 V2000
   -1.2926   -1.7480    2.5755 C   0  0  0  0  0  0  0  0  0  0  0  0
   -1.6853   -0.8904    1.3738 C   0  0  0  0  0  0  0  0  0  0  0  0
   -2.9618   -1.3576    0.9298 O   0  0  0  0  0  0  0  0  0  0  0  0
   -3.6965   -0.3433    0.3803 C   0  0  0  0  0  0  0  0  0  0  0  0
   -3.6437   -0.1177   -0.9935 C   0  0  0  0  0  0  0  0  0  0  0  0
   -4.4139    0.9016   -1.5551 C   0  0  0  0  0  0  0  0  0  0  0  0
   -5.2422    1.6716   -0.7377 C   0  0  0  0  0  0  0  0  0  0  0  0
   -6.2871    3.0526   -1.4974 Br  0  0  0  0  0  0  0  0  0  0  0  0
   -5.3144    1.4265    0.6343 C   0  0  0  0  0  0  0  0  0  0  0  0
   -4.5427    0.4077    1.1954 C   0  0  0  0  0  0  0  0  0  0  0  0
   -0.5772   -0.9918    0.2993 C   0  0  0  0  0  0  0  0  0  0  0  0
   -0.7158   -1.6595   -0.7202 O   0  0  0  0  0  0  0  0  0  0  0  0
    0.5451   -0.2568    0.6346 N   0  0  0  0  0  0  0  0  0  0  0  0
    1.6432   -0.1988   -0.1793 C   0  0  0  0  0  0  0  0  0  0  0  0
    1.8815   -0.7656   -1.3358 N   0  0  0  0  0  0  0  0  0  0  0  0
    3.1356   -0.4329   -1.8204 N   0  0  0  0  0  0  0  0  0  0  0  0
    3.7776    0.3616   -0.9942 C   0  0  0  0  0  0  0  0  0  0  0  0
    5.2125    0.8937   -1.2948 C   0  0  0  0  0  0  0  0  0  0  0  0
    6.3846    0.3230   -0.5380 C   0  0  0  0  0  0  0  0  0  0  0  0
    6.2002   -0.0089   -1.9895 C   0  0  0  0  0  0  0  0  0  0  0  0
    2.9101    0.7797    0.4207 S   0  0  0  0  0  0  0  0  0  0  0  0
   -0.3354   -1.4367    3.0048 H   0  0  0  0  0  0  0  0  0  0  0  0
   -2.0592   -1.6888    3.3549 H   0  0  0  0  0  0  0  0  0  0  0  0
   -1.2092   -2.8026    2.2887 H   0  0  0  0  0  0  0  0  0  0  0  0
   -1.7461    0.1554    1.7100 H   0  0  0  0  0  0  0  0  0  0  0  0
   -3.0117   -0.7357   -1.6277 H   0  0  0  0  0  0  0  0  0  0  0  0
   -4.3684    1.0776   -2.6267 H   0  0  0  0  0  0  0  0  0  0  0  0
   -5.9731    2.0137    1.2688 H   0  0  0  0  0  0  0  0  0  0  0  0
   -4.6099    0.1955    2.2580 H   0  0  0  0  0  0  0  0  0  0  0  0
    0.5859    0.2799    1.4872 H   0  0  0  0  0  0  0  0  0  0  0  0
    5.2461    1.9449   -1.5609 H   0  0  0  0  0  0  0  0  0  0  0  0
    6.2124   -0.4709    0.1804 H   0  0  0  0  0  0  0  0  0  0  0  0
    7.1913    0.9951   -0.2704 H   0  0  0  0  0  0  0  0  0  0  0  0
    6.8734    0.4414   -2.7093 H   0  0  0  0  0  0  0  0  0  0  0  0
    5.8867   -1.0152   -2.2476 H   0  0  0  0  0  0  0  0  0  0  0  0
  1  2  1  0
  2  3  1  0
  3  4  1  0
  4  5  2  0
  5  6  1  0
  6  7  2  0
  7  8  1  0
  7  9  1  0
  9 10  2  0
  2 11  1  0
 11 12  2  0
 11 13  1  0
 13 14  1  0
 14 15  2  0
 15 16  1  0
 16 17  2  0
 17 18  1  0
 18 19  1  0
 19 20  1  0
 17 21  1  0
 10  4  1  0
 21 14  1  0
 20 18  1  0
  1 22  1  0
  1 23  1  0
  1 24  1  0
  2 25  1  0
  5 26  1  0
  6 27  1  0
  9 28  1  0
 10 29  1  0
 13 30  1  0
 18 31  1  0
 19 32  1  0
 19 33  1  0
 20 34  1  0
 20 35  1  0
M  END
$$$$
