
     RDKit          3D

 39 40  0  0  0  0  0  0  0  0999 V2000
   -1.3776   -2.9152    1.4114 C   0  0  0  0  0  0  0  0  0  0  0  0
   -1.4225   -1.4308    1.0740 C   0  0  0  0  0  0  0  0  0  0  0  0
   -1.7677   -1.3106   -0.3151 O   0  0  0  0  0  0  0  0  0  0  0  0
   -2.8336   -0.4879   -0.5686 C   0  0  0  0  0  0  0  0  0  0  0  0
   -4.0809   -0.7163    0.0213 C   0  0  0  0  0  0  0  0  0  0  0  0
   -5.1647    0.1088   -0.2911 C   0  0  0  0  0  0  0  0  0  0  0  0
   -4.9986    1.1523   -1.2129 C   0  0  0  0  0  0  0  0  0  0  0  0
   -6.1379    2.0181   -1.5433 N   0  0  0  0  0  4  0  0  0  0  0  0
   -7.2155    1.7906   -0.9767 O   0  0  0  0  0  0  0  0  0  0  0  0
   -5.9517    2.9229   -2.3681 O   0  0  0  0  0  1  0  0  0  0  0  0
   -3.7611    1.3706   -1.8304 C   0  0  0  0  0  0  0  0  0  0  0  0
   -2.6857    0.5399   -1.5115 C   0  0  0  0  0  0  0  0  0  0  0  0
   -1.1735    0.8137   -2.2994 Cl  0  0  0  0  0  0  0  0  0  0  0  0
   -0.0362   -0.8164    1.3431 C   0  0  0  0  0  0  0  0  0  0  0  0
    0.2869   -0.4810    2.4798 O   0  0  0  0  0  0  0  0  0  0  0  0
    0.7548   -0.7496    0.2102 N   0  0  0  0  0  0  0  0  0  0  0  0
    2.0823   -0.2981    0.1033 C   0  0  0  0  0  0  0  0  0  0  0  0
    2.8706    0.0702    1.1952 C   0  0  0  0  0  0  0  0  0  0  0  0
    4.1892    0.5070    1.0085 C   0  0  0  0  0  0  0  0  0  0  0  0
    4.7303    0.5848   -0.2786 C   0  0  0  0  0  0  0  0  0  0  0  0
    6.1235    1.0406   -0.5302 C   0  0  0  0  0  0  0  0  0  0  0  0
    6.7204    1.8116    0.4287 N   0  0  0  0  0  0  0  0  0  0  0  0
    6.7106    0.7697   -1.5701 O   0  0  0  0  0  0  0  0  0  0  0  0
    3.9490    0.2005   -1.3728 C   0  0  0  0  0  0  0  0  0  0  0  0
    2.6337   -0.2350   -1.1819 C   0  0  0  0  0  0  0  0  0  0  0  0
   -1.0882   -3.0779    2.4543 H   0  0  0  0  0  0  0  0  0  0  0  0
   -2.3550   -3.3785    1.2419 H   0  0  0  0  0  0  0  0  0  0  0  0
   -0.6601   -3.4426    0.7724 H   0  0  0  0  0  0  0  0  0  0  0  0
   -2.1310   -0.9120    1.7322 H   0  0  0  0  0  0  0  0  0  0  0  0
   -4.2272   -1.5432    0.7123 H   0  0  0  0  0  0  0  0  0  0  0  0
   -6.1274   -0.0796    0.1819 H   0  0  0  0  0  0  0  0  0  0  0  0
   -3.6277    2.1709   -2.5554 H   0  0  0  0  0  0  0  0  0  0  0  0
    0.2809   -0.9858   -0.6581 H   0  0  0  0  0  0  0  0  0  0  0  0
    2.4940    0.0176    2.2123 H   0  0  0  0  0  0  0  0  0  0  0  0
    4.7805    0.7548    1.8850 H   0  0  0  0  0  0  0  0  0  0  0  0
    7.6151    2.2120    0.1757 H   0  0  0  0  0  0  0  0  0  0  0  0
    6.1900    2.2829    1.1468 H   0  0  0  0  0  0  0  0  0  0  0  0
    4.3611    0.2414   -2.3796 H   0  0  0  0  0  0  0  0  0  0  0  0
    2.0508   -0.5206   -2.0545 H   0  0  0  0  0  0  0  0  0  0  0  0
  1  2  1  0
  2  3  1  0
  3  4  1  0
  4  5  2  0
  5  6  1  0
  6  7  2  0
  7  8  1  0
  8  9  2  0
  8 10  1  0
  7 11  1  0
 11 12  2  0
 12 13  1  0
  2 14  1  0
 14 15  2  0
 14 16  1  0
 16 17  1  0
 17 18  2  0
 18 19  1  0
 19 20  2  0
 20 21  1  0
 21 22  1  0
 21 23  2  0
 20 24  1  0
 24 25  2  0
 12  4  1  0
 25 17  1  0
  1 26  1  0
  1 27  1  0
  1 28  1  0
  2 29  1  0
  5 30  1  0
  6 31  1  0
 11 32  1  0
 16 33  1  0
 18 34  1  0
 19 35  1  0
 22 36  1  0
 22 37  1  0
 24 38  1  0
 25 39  1  0
M  CHG  2   8   1  10  -1
M  END
$$$$
