
     RDKit          3D

 59 62  0  0  0  0  0  0  0  0999 V2000
   -2.1317    1.2075   -2.9296 C   0  0  0  0  0  0  0  0  0  0  0  0
   -2.2006    0.2558   -1.8613 O   0  0  0  0  0  0  0  0  0  0  0  0
   -3.5055    0.0769   -1.4683 C   0  0  0  0  0  0  0  0  0  0  0  0
   -4.2029   -1.0242   -2.0011 C   0  0  0  0  0  0  0  0  0  0  0  0
   -3.5440   -1.9762   -2.9601 C   0  0  0  0  0  0  0  0  0  0  0  0
   -5.5452   -1.2138   -1.6440 C   0  0  0  0  0  0  0  0  0  0  0  0
   -6.1644   -0.3414   -0.7496 C   0  0  0  0  0  0  0  0  0  0  0  0
   -7.9760   -0.6143   -0.2806 Br  0  0  0  0  0  0  0  0  0  0  0  0
   -5.4584    0.7191   -0.1870 C   0  0  0  0  0  0  0  0  0  0  0  0
   -4.1127    0.9277   -0.5250 C   0  0  0  0  0  0  0  0  0  0  0  0
   -3.4096    2.0524    0.1677 C   0  0  0  0  0  0  0  0  0  0  0  0
   -4.0834    2.9811    0.6034 O   0  0  0  0  0  0  0  0  0  0  0  0
   -2.0465    1.9183    0.2817 N   0  0  0  0  0  0  0  0  0  0  0  0
   -1.1143    2.7880    0.8838 C   0  0  0  0  0  0  0  0  0  0  0  0
   -1.4532    3.9926    1.5001 C   0  0  0  0  0  0  0  0  0  0  0  0
   -0.4576    4.7901    2.0685 C   0  0  0  0  0  0  0  0  0  0  0  0
    0.8758    4.3863    2.0262 C   0  0  0  0  0  0  0  0  0  0  0  0
    1.2231    3.1818    1.4118 C   0  0  0  0  0  0  0  0  0  0  0  0
    0.2394    2.3712    0.8281 C   0  0  0  0  0  0  0  0  0  0  0  0
    0.5413    1.1317    0.2189 N   0  0  0  0  0  0  0  0  0  0  0  0
    1.5093    1.2086   -0.8961 C   0  0  0  0  0  0  0  0  0  0  0  0
    1.9809   -0.1959   -1.3019 C   0  0  0  0  0  0  0  0  0  0  0  0
    2.6306   -0.9006   -0.1911 N   0  0  0  0  0  0  0  0  0  0  0  0
    3.4276   -1.9984   -0.4933 C   0  0  0  0  0  0  0  0  0  0  0  0
    3.5570   -2.4401   -1.6334 O   0  0  0  0  0  0  0  0  0  0  0  0
    4.1617   -2.6749    0.5998 C   0  0  0  0  0  0  0  0  0  0  0  0
    4.0166   -4.0572    0.7514 C   0  0  0  0  0  0  0  0  0  0  0  0
    4.7111   -4.7182    1.7648 C   0  0  0  0  0  0  0  0  0  0  0  0
    5.5583   -4.0016    2.6125 C   0  0  0  0  0  0  0  0  0  0  0  0
    5.7213   -2.6252    2.4451 C   0  0  0  0  0  0  0  0  0  0  0  0
    5.0291   -1.9589    1.4330 C   0  0  0  0  0  0  0  0  0  0  0  0
    2.1972   -0.5159    1.1627 C   0  0  0  0  0  0  0  0  0  0  0  0
    0.7607    0.0403    1.1974 C   0  0  0  0  0  0  0  0  0  0  0  0
   -1.0921    1.2535   -3.2666 H   0  0  0  0  0  0  0  0  0  0  0  0
   -2.7510    0.9030   -3.7798 H   0  0  0  0  0  0  0  0  0  0  0  0
   -2.4229    2.2073   -2.5910 H   0  0  0  0  0  0  0  0  0  0  0  0
   -4.1552   -2.8729   -3.1160 H   0  0  0  0  0  0  0  0  0  0  0  0
   -3.3961   -1.4937   -3.9317 H   0  0  0  0  0  0  0  0  0  0  0  0
   -2.5767   -2.3091   -2.5674 H   0  0  0  0  0  0  0  0  0  0  0  0
   -6.1061   -2.0469   -2.0625 H   0  0  0  0  0  0  0  0  0  0  0  0
   -5.9464    1.3804    0.5272 H   0  0  0  0  0  0  0  0  0  0  0  0
   -1.5996    1.1011   -0.1356 H   0  0  0  0  0  0  0  0  0  0  0  0
   -2.4822    4.3334    1.5515 H   0  0  0  0  0  0  0  0  0  0  0  0
   -0.7288    5.7278    2.5476 H   0  0  0  0  0  0  0  0  0  0  0  0
    1.6452    5.0086    2.4760 H   0  0  0  0  0  0  0  0  0  0  0  0
    2.2658    2.8790    1.4050 H   0  0  0  0  0  0  0  0  0  0  0  0
    2.3894    1.8051   -0.6250 H   0  0  0  0  0  0  0  0  0  0  0  0
    1.0287    1.6926   -1.7549 H   0  0  0  0  0  0  0  0  0  0  0  0
    1.1272   -0.8082   -1.6188 H   0  0  0  0  0  0  0  0  0  0  0  0
    2.6762   -0.1312   -2.1462 H   0  0  0  0  0  0  0  0  0  0  0  0
    3.3680   -4.6149    0.0796 H   0  0  0  0  0  0  0  0  0  0  0  0
    4.5997   -5.7924    1.8877 H   0  0  0  0  0  0  0  0  0  0  0  0
    6.1038   -4.5208    3.3977 H   0  0  0  0  0  0  0  0  0  0  0  0
    6.3978   -2.0765    3.0959 H   0  0  0  0  0  0  0  0  0  0  0  0
    5.1797   -0.8930    1.2864 H   0  0  0  0  0  0  0  0  0  0  0  0
    2.8974    0.2534    1.5085 H   0  0  0  0  0  0  0  0  0  0  0  0
    2.2665   -1.3710    1.8411 H   0  0  0  0  0  0  0  0  0  0  0  0
    0.0659   -0.7680    0.9347 H   0  0  0  0  0  0  0  0  0  0  0  0
    0.5107    0.3449    2.2225 H   0  0  0  0  0  0  0  0  0  0  0  0
  1  2  1  0
  2  3  1  0
  3  4  2  0
  4  5  1  0
  4  6  1  0
  6  7  2  0
  7  8  1  0
  7  9  1  0
  9 10  2  0
 10 11  1  0
 11 12  2  0
 11 13  1  0
 13 14  1  0
 14 15  2  0
 15 16  1  0
 16 17  2  0
 17 18  1  0
 18 19  2  0
 19 20  1  0
 20 21  1  0
 21 22  1  0
 22 23  1  0
 23 24  1  0
 24 25  2  0
 24 26  1  0
 26 27  2  0
 27 28  1  0
 28 29  2  0
 29 30  1  0
 30 31  2  0
 23 32  1  0
 32 33  1  0
 10  3  1  0
 19 14  1  0
 33 20  1  0
 31 26  1  0
  1 34  1  0
  1 35  1  0
  1 36  1  0
  5 37  1  0
  5 38  1  0
  5 39  1  0
  6 40  1  0
  9 41  1  0
 13 42  1  0
 15 43  1  0
 16 44  1  0
 17 45  1  0
 18 46  1  0
 21 47  1  0
 21 48  1  0
 22 49  1  0
 22 50  1  0
 27 51  1  0
 28 52  1  0
 29 53  1  0
 30 54  1  0
 31 55  1  0
 32 56  1  0
 32 57  1  0
 33 58  1  0
 33 59  1  0
M  END
$$$$
