
     RDKit          3D

 72 77  0  0  0  0  0  0  0  0999 V2000
  -10.2147    0.7356    0.0082 C   0  0  0  0  0  0  0  0  0  0  0  0
   -8.8159    0.4883   -0.4726 C   0  0  0  0  0  0  0  0  0  0  0  0
   -8.5446   -0.5630   -1.3473 C   0  0  0  0  0  0  0  0  0  0  0  0
   -7.2359   -0.8164   -1.7600 C   0  0  0  0  0  0  0  0  0  0  0  0
   -6.1648   -0.0311   -1.3020 C   0  0  0  0  0  0  0  0  0  0  0  0
   -4.7777   -0.3632   -1.7792 C   0  0  0  0  0  0  0  0  0  0  0  0
   -6.4225    1.0270   -0.4054 C   0  0  0  0  0  0  0  0  0  0  0  0
   -5.3317    1.9166    0.1550 C   0  0  0  0  0  0  0  0  0  0  0  0
   -4.9948    1.5707    1.5226 N   0  0  0  0  0  0  0  0  0  0  0  0
   -5.7436    2.0286    2.5597 N   0  0  0  0  0  0  0  0  0  0  0  0
   -5.2038    1.5682    3.6873 N   0  0  0  0  0  0  0  0  0  0  0  0
   -4.0951    0.8603    3.3439 C   0  0  0  0  0  0  0  0  0  0  0  0
   -3.1388    0.1621    4.1574 C   0  0  0  0  0  0  0  0  0  0  0  0
   -3.1662    0.0629    5.3793 O   0  0  0  0  0  0  0  0  0  0  0  0
   -2.1307   -0.4153    3.3960 N   0  0  0  0  0  0  0  0  0  0  0  0
   -2.0432   -0.3220    2.0073 C   0  0  0  0  0  0  0  0  0  0  0  0
   -0.8215   -1.0078    1.4098 C   0  0  0  0  0  0  0  0  0  0  0  0
    0.4649   -0.2754    1.8320 C   0  0  0  0  0  0  0  0  0  0  0  0
    1.3287    0.1506    0.6507 C   0  0  0  0  0  0  0  0  0  0  0  0
    1.5745   -0.9682   -0.2891 N   0  0  0  0  0  0  0  0  0  0  0  0
    2.9719   -1.9160   -0.0378 S   0  0  0  0  0  6  0  0  0  0  0  0
    3.0709   -2.8716   -1.1200 O   0  0  0  0  0  0  0  0  0  0  0  0
    2.9551   -2.3484    1.3442 O   0  0  0  0  0  0  0  0  0  0  0  0
    4.2980   -0.7523   -0.2505 C   0  0  0  0  0  0  0  0  0  0  0  0
    4.5336   -0.2184   -1.5234 C   0  0  0  0  0  0  0  0  0  0  0  0
    5.5808    0.6859   -1.7061 C   0  0  0  0  0  0  0  0  0  0  0  0
    6.3885    1.0336   -0.6164 C   0  0  0  0  0  0  0  0  0  0  0  0
    7.7105    2.2068   -0.8281 S   0  0  0  0  0  6  0  0  0  0  0  0
    7.7841    2.9895    0.3868 O   0  0  0  0  0  0  0  0  0  0  0  0
    7.5557    2.8261   -2.1264 O   0  0  0  0  0  0  0  0  0  0  0  0
    9.0778    1.2293   -0.8616 N   0  0  0  0  0  0  0  0  0  0  0  0
    9.1574    0.1582   -1.8442 C   0  0  0  0  0  0  0  0  0  0  0  0
   10.2772   -0.8425   -1.7836 C   0  0  0  0  0  0  0  0  0  0  0  0
    8.8719   -1.2696   -1.4787 C   0  0  0  0  0  0  0  0  0  0  0  0
    6.1494    0.5020    0.6576 C   0  0  0  0  0  0  0  0  0  0  0  0
    5.1041   -0.4039    0.8394 C   0  0  0  0  0  0  0  0  0  0  0  0
    0.3704   -1.7599   -0.6627 C   0  0  0  0  0  0  0  0  0  0  0  0
   -0.9137   -1.1550   -0.1114 C   0  0  0  0  0  0  0  0  0  0  0  0
   -2.9048    0.3153    1.2635 N   0  0  0  0  0  0  0  0  0  0  0  0
   -3.9138    0.8705    1.9808 C   0  0  0  0  0  0  0  0  0  0  0  0
   -7.7527    1.2665   -0.0008 C   0  0  0  0  0  0  0  0  0  0  0  0
  -10.9409    0.5259   -0.7838 H   0  0  0  0  0  0  0  0  0  0  0  0
  -10.4331    0.0966    0.8695 H   0  0  0  0  0  0  0  0  0  0  0  0
  -10.3504    1.7813    0.3019 H   0  0  0  0  0  0  0  0  0  0  0  0
   -9.3507   -1.1962   -1.7111 H   0  0  0  0  0  0  0  0  0  0  0  0
   -7.0579   -1.6437   -2.4445 H   0  0  0  0  0  0  0  0  0  0  0  0
   -4.1539   -0.6815   -0.9400 H   0  0  0  0  0  0  0  0  0  0  0  0
   -4.3241    0.4996   -2.2759 H   0  0  0  0  0  0  0  0  0  0  0  0
   -4.7895   -1.1830   -2.5053 H   0  0  0  0  0  0  0  0  0  0  0  0
   -5.6561    2.9649    0.1492 H   0  0  0  0  0  0  0  0  0  0  0  0
   -4.4164    1.8770   -0.4420 H   0  0  0  0  0  0  0  0  0  0  0  0
   -1.4407   -0.9260    3.9285 H   0  0  0  0  0  0  0  0  0  0  0  0
   -0.7910   -2.0160    1.8486 H   0  0  0  0  0  0  0  0  0  0  0  0
    0.2433    0.6148    2.4346 H   0  0  0  0  0  0  0  0  0  0  0  0
    1.0430   -0.9410    2.4857 H   0  0  0  0  0  0  0  0  0  0  0  0
    0.8439    0.9634    0.0956 H   0  0  0  0  0  0  0  0  0  0  0  0
    2.2691    0.5728    1.0174 H   0  0  0  0  0  0  0  0  0  0  0  0
    3.9058   -0.5034   -2.3658 H   0  0  0  0  0  0  0  0  0  0  0  0
    5.7612    1.1111   -2.6919 H   0  0  0  0  0  0  0  0  0  0  0  0
    9.5493    1.1292    0.0347 H   0  0  0  0  0  0  0  0  0  0  0  0
    8.8732    0.4881   -2.8426 H   0  0  0  0  0  0  0  0  0  0  0  0
   10.9804   -0.7902   -0.9621 H   0  0  0  0  0  0  0  0  0  0  0  0
   10.7165   -1.1631   -2.7215 H   0  0  0  0  0  0  0  0  0  0  0  0
    8.3581   -1.8853   -2.2080 H   0  0  0  0  0  0  0  0  0  0  0  0
    8.6286   -1.5077   -0.4502 H   0  0  0  0  0  0  0  0  0  0  0  0
    6.7691    0.7892    1.5053 H   0  0  0  0  0  0  0  0  0  0  0  0
    4.9230   -0.8276    1.8255 H   0  0  0  0  0  0  0  0  0  0  0  0
    0.4594   -2.7909   -0.2958 H   0  0  0  0  0  0  0  0  0  0  0  0
    0.3138   -1.8000   -1.7572 H   0  0  0  0  0  0  0  0  0  0  0  0
   -1.1035   -0.1852   -0.5905 H   0  0  0  0  0  0  0  0  0  0  0  0
   -1.7632   -1.7976   -0.3741 H   0  0  0  0  0  0  0  0  0  0  0  0
   -7.9614    2.0704    0.7062 H   0  0  0  0  0  0  0  0  0  0  0  0
  1  2  1  0
  2  3  2  0
  3  4  1  0
  4  5  2  0
  5  6  1  0
  5  7  1  0
  7  8  1  0
  8  9  1  0
  9 10  1  0
 10 11  2  0
 11 12  1  0
 12 13  1  0
 13 14  2  0
 13 15  1  0
 15 16  1  0
 16 17  1  0
 17 18  1  0
 18 19  1  0
 19 20  1  0
 20 21  1  0
 21 22  2  0
 21 23  2  0
 21 24  1  0
 24 25  2  0
 25 26  1  0
 26 27  2  0
 27 28  1  0
 28 29  2  0
 28 30  2  0
 28 31  1  0
 31 32  1  0
 32 33  1  0
 33 34  1  0
 27 35  1  0
 35 36  2  0
 20 37  1  0
 37 38  1  0
 16 39  2  0
 39 40  1  0
  7 41  2  0
 41  2  1  0
 40  9  1  0
 40 12  2  0
 38 17  1  0
 36 24  1  0
 34 32  1  0
  1 42  1  0
  1 43  1  0
  1 44  1  0
  3 45  1  0
  4 46  1  0
  6 47  1  0
  6 48  1  0
  6 49  1  0
  8 50  1  0
  8 51  1  0
 15 52  1  0
 17 53  1  0
 18 54  1  0
 18 55  1  0
 19 56  1  0
 19 57  1  0
 25 58  1  0
 26 59  1  0
 31 60  1  0
 32 61  1  0
 33 62  1  0
 33 63  1  0
 34 64  1  0
 34 65  1  0
 35 66  1  0
 36 67  1  0
 37 68  1  0
 37 69  1  0
 38 70  1  0
 38 71  1  0
 41 72  1  0
M  END
$$$$
