
     RDKit          3D

 55 58  0  0  0  0  0  0  0  0999 V2000
    3.1391   -2.4719   -0.2280 C   0  0  0  0  0  0  0  0  0  0  0  0
    2.8061   -1.4201    0.6990 N   0  0  0  0  0  0  0  0  0  0  0  0
    2.7603   -0.0673    0.4380 C   0  0  0  0  0  0  0  0  0  0  0  0
    3.0708    0.5755   -0.8745 C   0  0  0  0  0  0  0  0  0  0  0  0
    4.5114    0.4160   -1.3110 C   0  0  0  0  0  0  0  0  0  0  0  0
    4.8140   -0.0726   -2.5904 C   0  0  0  0  0  0  0  0  0  0  0  0
    6.1408   -0.2114   -3.0002 C   0  0  0  0  0  0  0  0  0  0  0  0
    7.1775    0.1448   -2.1411 C   0  0  0  0  0  0  0  0  0  0  0  0
    6.8905    0.6455   -0.8741 C   0  0  0  0  0  0  0  0  0  0  0  0
    5.5651    0.7860   -0.4618 C   0  0  0  0  0  0  0  0  0  0  0  0
    2.3981    0.5674    1.5385 N   0  0  0  0  0  0  0  0  0  0  0  0
    2.2219   -0.3598    2.5310 N   0  0  0  0  0  0  0  0  0  0  0  0
    2.4687   -1.5437    2.0169 C   0  0  0  0  0  0  0  0  0  0  0  0
    2.2712   -3.0457    2.8454 S   0  0  0  0  0  0  0  0  0  0  0  0
    0.8900   -2.6149    3.9545 C   0  0  0  0  0  0  0  0  0  0  0  0
   -0.3905   -2.3990    3.1543 C   0  0  0  0  0  0  0  0  0  0  0  0
   -1.1666   -3.3298    2.9510 O   0  0  0  0  0  0  0  0  0  0  0  0
   -0.5380   -1.0979    2.7006 N   0  0  0  0  0  0  0  0  0  0  0  0
   -1.5608   -0.5753    1.8877 C   0  0  0  0  0  0  0  0  0  0  0  0
   -1.4104    0.7364    1.4365 C   0  0  0  0  0  0  0  0  0  0  0  0
   -2.3820    1.3281    0.6168 C   0  0  0  0  0  0  0  0  0  0  0  0
   -3.5365    0.6399    0.2150 C   0  0  0  0  0  0  0  0  0  0  0  0
   -4.4860    1.2268   -0.6003 N   0  0  0  0  0  0  0  0  0  0  0  0
   -5.5159    0.4441   -1.2970 C   0  0  0  0  0  0  0  0  0  0  0  0
   -6.0514    1.2370   -2.5015 C   0  0  0  0  0  0  0  0  0  0  0  0
   -6.6371    2.5021   -2.1610 O   0  0  0  0  0  0  0  0  0  0  0  0
   -6.1176    3.0552   -0.9448 C   0  0  0  0  0  0  0  0  0  0  0  0
   -4.6494    2.6907   -0.6642 C   0  0  0  0  0  0  0  0  0  0  0  0
   -3.6598   -0.6785    0.6779 C   0  0  0  0  0  0  0  0  0  0  0  0
   -2.6949   -1.2796    1.5028 C   0  0  0  0  0  0  0  0  0  0  0  0
    2.8933   -2.1609   -1.2445 H   0  0  0  0  0  0  0  0  0  0  0  0
    2.5551   -3.3678   -0.0019 H   0  0  0  0  0  0  0  0  0  0  0  0
    4.2074   -2.6820   -0.1419 H   0  0  0  0  0  0  0  0  0  0  0  0
    2.8526    1.6489   -0.8157 H   0  0  0  0  0  0  0  0  0  0  0  0
    2.3918    0.1693   -1.6342 H   0  0  0  0  0  0  0  0  0  0  0  0
    4.0188   -0.3444   -3.2808 H   0  0  0  0  0  0  0  0  0  0  0  0
    6.3673   -0.5899   -3.9926 H   0  0  0  0  0  0  0  0  0  0  0  0
    8.2110    0.0416   -2.4630 H   0  0  0  0  0  0  0  0  0  0  0  0
    7.6994    0.9314   -0.2062 H   0  0  0  0  0  0  0  0  0  0  0  0
    5.3590    1.1872    0.5301 H   0  0  0  0  0  0  0  0  0  0  0  0
    1.1247   -1.7340    4.5612 H   0  0  0  0  0  0  0  0  0  0  0  0
    0.7244   -3.4467    4.6488 H   0  0  0  0  0  0  0  0  0  0  0  0
    0.2525   -0.4711    2.8589 H   0  0  0  0  0  0  0  0  0  0  0  0
   -0.5298    1.3192    1.7043 H   0  0  0  0  0  0  0  0  0  0  0  0
   -2.1951    2.3433    0.2751 H   0  0  0  0  0  0  0  0  0  0  0  0
   -5.1067   -0.5023   -1.6703 H   0  0  0  0  0  0  0  0  0  0  0  0
   -6.3345    0.2247   -0.6006 H   0  0  0  0  0  0  0  0  0  0  0  0
   -6.8151    0.6532   -3.0249 H   0  0  0  0  0  0  0  0  0  0  0  0
   -5.2424    1.4297   -3.2151 H   0  0  0  0  0  0  0  0  0  0  0  0
   -6.2299    4.1413   -1.0070 H   0  0  0  0  0  0  0  0  0  0  0  0
   -6.7577    2.7097   -0.1238 H   0  0  0  0  0  0  0  0  0  0  0  0
   -4.0095    3.0788   -1.4653 H   0  0  0  0  0  0  0  0  0  0  0  0
   -4.3621    3.1674    0.2797 H   0  0  0  0  0  0  0  0  0  0  0  0
   -4.5306   -1.2764    0.4251 H   0  0  0  0  0  0  0  0  0  0  0  0
   -2.8726   -2.2979    1.8305 H   0  0  0  0  0  0  0  0  0  0  0  0
  1  2  1  0
  2  3  1  0
  3  4  1  0
  4  5  1  0
  5  6  2  0
  6  7  1  0
  7  8  2  0
  8  9  1  0
  9 10  2  0
  3 11  2  0
 11 12  1  0
 12 13  2  0
 13 14  1  0
 14 15  1  0
 15 16  1  0
 16 17  2  0
 16 18  1  0
 18 19  1  0
 19 20  2  0
 20 21  1  0
 21 22  2  0
 22 23  1  0
 23 24  1  0
 24 25  1  0
 25 26  1  0
 26 27  1  0
 27 28  1  0
 22 29  1  0
 29 30  2  0
 13  2  1  0
 30 19  1  0
 10  5  1  0
 28 23  1  0
  1 31  1  0
  1 32  1  0
  1 33  1  0
  4 34  1  0
  4 35  1  0
  6 36  1  0
  7 37  1  0
  8 38  1  0
  9 39  1  0
 10 40  1  0
 15 41  1  0
 15 42  1  0
 18 43  1  0
 20 44  1  0
 21 45  1  0
 24 46  1  0
 24 47  1  0
 25 48  1  0
 25 49  1  0
 27 50  1  0
 27 51  1  0
 28 52  1  0
 28 53  1  0
 29 54  1  0
 30 55  1  0
M  END
$$$$
