
     RDKit          3D

 35 37  0  0  0  0  0  0  0  0999 V2000
   -5.2671   -0.3945    0.7494 C   0  0  0  0  0  0  0  0  0  0  0  0
   -4.3831    0.2081   -0.3025 C   0  0  0  0  0  0  0  0  0  0  0  0
   -4.6187   -0.0577   -1.6588 C   0  0  0  0  0  0  0  0  0  0  0  0
   -3.8173    0.5211   -2.6457 C   0  0  0  0  0  0  0  0  0  0  0  0
   -2.7745    1.3756   -2.2899 C   0  0  0  0  0  0  0  0  0  0  0  0
   -2.5281    1.6474   -0.9459 C   0  0  0  0  0  0  0  0  0  0  0  0
   -3.3095    1.0422    0.0398 C   0  0  0  0  0  0  0  0  0  0  0  0
   -3.0586    1.3286    1.3577 O   0  0  0  0  0  0  0  0  0  0  0  0
   -2.0384    0.4793    1.8755 C   0  0  0  0  0  0  0  0  0  0  0  0
   -0.5974    0.9436    1.6121 C   0  0  0  0  0  0  0  0  0  0  0  0
   -0.2942    2.1329    1.5945 O   0  0  0  0  0  0  0  0  0  0  0  0
    0.2672   -0.1151    1.4130 N   0  0  0  0  0  0  0  0  0  0  0  0
    1.5930    0.0767    1.1329 C   0  0  0  0  0  0  0  0  0  0  0  0
    2.2897    1.1801    1.0212 N   0  0  0  0  0  0  0  0  0  0  0  0
    3.6148    0.9177    0.7177 N   0  0  0  0  0  0  0  0  0  0  0  0
    3.8541   -0.3757    0.6204 C   0  0  0  0  0  0  0  0  0  0  0  0
    5.1486   -0.9123    0.3153 C   0  0  0  0  0  0  0  0  0  0  0  0
    6.3261   -0.2203    0.0725 C   0  0  0  0  0  0  0  0  0  0  0  0
    7.3366   -1.1771   -0.1830 C   0  0  0  0  0  0  0  0  0  0  0  0
    6.7288   -2.4034   -0.0813 C   0  0  0  0  0  0  0  0  0  0  0  0
    5.4136   -2.2585    0.2178 O   0  0  0  0  0  0  0  0  0  0  0  0
    2.4750   -1.3655    0.8877 S   0  0  0  0  0  0  0  0  0  0  0  0
   -6.1208   -0.9188    0.3051 H   0  0  0  0  0  0  0  0  0  0  0  0
   -4.7053   -1.1145    1.3523 H   0  0  0  0  0  0  0  0  0  0  0  0
   -5.6705    0.3875    1.4017 H   0  0  0  0  0  0  0  0  0  0  0  0
   -5.4386   -0.7072   -1.9594 H   0  0  0  0  0  0  0  0  0  0  0  0
   -4.0160    0.3166   -3.6946 H   0  0  0  0  0  0  0  0  0  0  0  0
   -2.1631    1.8419   -3.0586 H   0  0  0  0  0  0  0  0  0  0  0  0
   -1.7345    2.3392   -0.6721 H   0  0  0  0  0  0  0  0  0  0  0  0
   -2.1800   -0.5572    1.5397 H   0  0  0  0  0  0  0  0  0  0  0  0
   -2.1602    0.4689    2.9660 H   0  0  0  0  0  0  0  0  0  0  0  0
   -0.0571   -1.0707    1.4272 H   0  0  0  0  0  0  0  0  0  0  0  0
    6.4304    0.8575    0.0808 H   0  0  0  0  0  0  0  0  0  0  0  0
    8.3782   -0.9936   -0.4107 H   0  0  0  0  0  0  0  0  0  0  0  0
    7.0769   -3.4227   -0.1860 H   0  0  0  0  0  0  0  0  0  0  0  0
  1  2  1  0
  2  3  2  0
  3  4  1  0
  4  5  2  0
  5  6  1  0
  6  7  2  0
  7  8  1  0
  8  9  1  0
  9 10  1  0
 10 11  2  0
 10 12  1  0
 12 13  1  0
 13 14  2  0
 14 15  1  0
 15 16  2  0
 16 17  1  0
 17 18  2  0
 18 19  1  0
 19 20  2  0
 20 21  1  0
 16 22  1  0
  7  2  1  0
 22 13  1  0
 21 17  1  0
  1 23  1  0
  1 24  1  0
  1 25  1  0
  3 26  1  0
  4 27  1  0
  5 28  1  0
  6 29  1  0
  9 30  1  0
  9 31  1  0
 12 32  1  0
 18 33  1  0
 19 34  1  0
 20 35  1  0
M  END
$$$$
