
     RDKit          3D

 29 30  0  0  0  0  0  0  0  0999 V2000
   -0.7282    3.1478    0.8884 C   0  0  0  0  0  0  0  0  0  0  0  0
    0.5210    3.3022    0.4253 C   0  0  0  0  0  0  0  0  0  0  0  0
    1.3689    2.3184   -0.3436 C   0  0  0  0  0  0  0  0  0  0  0  0
    0.7537    0.9939   -0.4348 N   0  0  0  0  0  0  0  0  0  0  0  0
    0.8614    0.0248    0.5524 C   0  0  0  0  0  0  0  0  0  0  0  0
    1.8060    0.3905    1.9861 S   0  0  0  0  0  0  0  0  0  0  0  0
    1.2932   -0.9738    3.0725 C   0  0  0  0  0  0  0  0  0  0  0  0
    1.8807   -0.8598    4.4144 C   0  0  0  0  0  0  0  0  0  0  0  0
    2.3350   -0.7859    5.4809 N   0  0  0  0  0  0  0  0  0  0  0  0
    0.3127   -1.1441    0.4865 N   0  0  0  0  0  0  0  0  0  0  0  0
   -0.4427   -1.4687   -0.6429 C   0  0  0  0  0  0  0  0  0  0  0  0
   -1.0445   -2.7276   -0.7142 C   0  0  0  0  0  0  0  0  0  0  0  0
   -1.8079   -3.0898   -1.8276 C   0  0  0  0  0  0  0  0  0  0  0  0
   -1.9752   -2.1923   -2.8813 C   0  0  0  0  0  0  0  0  0  0  0  0
   -1.3785   -0.9338   -2.8207 C   0  0  0  0  0  0  0  0  0  0  0  0
   -0.6160   -0.5823   -1.7000 C   0  0  0  0  0  0  0  0  0  0  0  0
    0.0292    0.7368   -1.5990 C   0  0  0  0  0  0  0  0  0  0  0  0
   -0.0982    1.5289   -2.5299 O   0  0  0  0  0  0  0  0  0  0  0  0
   -1.2179    3.9553    1.4259 H   0  0  0  0  0  0  0  0  0  0  0  0
   -1.3031    2.2402    0.7406 H   0  0  0  0  0  0  0  0  0  0  0  0
    1.0094    4.2584    0.6102 H   0  0  0  0  0  0  0  0  0  0  0  0
    2.3542    2.2426    0.1266 H   0  0  0  0  0  0  0  0  0  0  0  0
    1.5465    2.7267   -1.3452 H   0  0  0  0  0  0  0  0  0  0  0  0
    1.6023   -1.9254    2.6276 H   0  0  0  0  0  0  0  0  0  0  0  0
    0.2014   -0.9735    3.1595 H   0  0  0  0  0  0  0  0  0  0  0  0
   -0.9167   -3.4325    0.1035 H   0  0  0  0  0  0  0  0  0  0  0  0
   -2.2709   -4.0729   -1.8713 H   0  0  0  0  0  0  0  0  0  0  0  0
   -2.5686   -2.4725   -3.7486 H   0  0  0  0  0  0  0  0  0  0  0  0
   -1.5070   -0.2314   -3.6415 H   0  0  0  0  0  0  0  0  0  0  0  0
  1  2  2  0
  2  3  1  0
  3  4  1  0
  4  5  1  0
  5  6  1  0
  6  7  1  0
  7  8  1  0
  8  9  3  0
  5 10  2  0
 10 11  1  0
 11 12  2  0
 12 13  1  0
 13 14  2  0
 14 15  1  0
 15 16  2  0
 16 17  1  0
 17 18  2  0
 17  4  1  0
 16 11  1  0
  1 19  1  0
  1 20  1  0
  2 21  1  0
  3 22  1  0
  3 23  1  0
  7 24  1  0
  7 25  1  0
 12 26  1  0
 13 27  1  0
 14 28  1  0
 15 29  1  0
M  END
$$$$
