
     RDKit          3D

 59 62  0  0  0  0  0  0  0  0999 V2000
    6.6955    0.3112    4.8614 C   0  0  0  0  0  0  0  0  0  0  0  0
    6.2608    1.4186    4.0823 O   0  0  0  0  0  0  0  0  0  0  0  0
    5.6058    1.1322    2.9164 C   0  0  0  0  0  0  0  0  0  0  0  0
    5.3900   -0.1399    2.3870 C   0  0  0  0  0  0  0  0  0  0  0  0
    4.7022   -0.2889    1.1775 C   0  0  0  0  0  0  0  0  0  0  0  0
    4.2184    0.8323    0.4924 C   0  0  0  0  0  0  0  0  0  0  0  0
    3.5075    0.6169   -0.7998 C   0  0  0  0  0  0  0  0  0  0  0  0
    3.8235   -0.3483   -1.4990 O   0  0  0  0  0  0  0  0  0  0  0  0
    2.4649    1.6082   -1.2695 C   0  0  0  0  0  0  0  0  0  0  0  0
    1.0725    1.7972   -0.1248 S   0  0  0  0  0  0  0  0  0  0  0  0
    0.5332    0.1620   -0.0026 C   0  0  0  0  0  0  0  0  0  0  0  0
    1.0801   -0.7537    0.7581 N   0  0  0  0  0  0  0  0  0  0  0  0
    0.3669   -1.9127    0.5912 N   0  0  0  0  0  0  0  0  0  0  0  0
   -0.6056   -1.6803   -0.2709 C   0  0  0  0  0  0  0  0  0  0  0  0
   -1.6325   -2.6802   -0.6976 C   0  0  0  0  0  0  0  0  0  0  0  0
   -2.7302   -2.8823    0.2597 N   0  0  0  0  0  0  0  0  0  0  0  0
   -3.7244   -1.8862    0.2430 C   0  0  0  0  0  0  0  0  0  0  0  0
   -4.5721   -1.7914   -0.8713 C   0  0  0  0  0  0  0  0  0  0  0  0
   -5.5231   -0.7753   -0.9763 C   0  0  0  0  0  0  0  0  0  0  0  0
   -5.6563    0.1675    0.0425 C   0  0  0  0  0  0  0  0  0  0  0  0
   -6.6528    1.2829   -0.0697 C   0  0  0  0  0  0  0  0  0  0  0  0
   -4.8139    0.0829    1.1572 C   0  0  0  0  0  0  0  0  0  0  0  0
   -3.8537   -0.9391    1.2759 C   0  0  0  0  0  0  0  0  0  0  0  0
   -2.9929   -0.9786    2.5097 C   0  0  0  0  0  0  0  0  0  0  0  0
   -0.5385   -0.3631   -0.6718 N   0  0  0  0  0  0  0  0  0  0  0  0
   -1.4266    0.3264   -1.5853 C   0  0  0  0  0  0  0  0  0  0  0  0
   -0.8219    0.4257   -2.9383 C   0  0  0  0  0  0  0  0  0  0  0  0
   -0.3487   -0.5004   -3.8476 C   0  0  0  0  0  0  0  0  0  0  0  0
    0.1089    0.2355   -4.9675 C   0  0  0  0  0  0  0  0  0  0  0  0
   -0.1210    1.5598   -4.6767 C   0  0  0  0  0  0  0  0  0  0  0  0
   -0.6849    1.6850   -3.4483 O   0  0  0  0  0  0  0  0  0  0  0  0
    4.4408    2.1077    1.0164 C   0  0  0  0  0  0  0  0  0  0  0  0
    5.1309    2.2503    2.2244 C   0  0  0  0  0  0  0  0  0  0  0  0
    5.8500   -0.3143    5.1669 H   0  0  0  0  0  0  0  0  0  0  0  0
    7.1645    0.7041    5.7692 H   0  0  0  0  0  0  0  0  0  0  0  0
    7.4487   -0.2756    4.3251 H   0  0  0  0  0  0  0  0  0  0  0  0
    5.7393   -1.0379    2.8864 H   0  0  0  0  0  0  0  0  0  0  0  0
    4.5258   -1.2871    0.7823 H   0  0  0  0  0  0  0  0  0  0  0  0
    2.9370    2.5782   -1.4488 H   0  0  0  0  0  0  0  0  0  0  0  0
    2.0778    1.2643   -2.2343 H   0  0  0  0  0  0  0  0  0  0  0  0
   -2.0093   -2.4644   -1.7038 H   0  0  0  0  0  0  0  0  0  0  0  0
   -1.1197   -3.6458   -0.7925 H   0  0  0  0  0  0  0  0  0  0  0  0
   -2.3372   -3.0053    1.1921 H   0  0  0  0  0  0  0  0  0  0  0  0
   -4.5009   -2.5294   -1.6665 H   0  0  0  0  0  0  0  0  0  0  0  0
   -6.1626   -0.7337   -1.8546 H   0  0  0  0  0  0  0  0  0  0  0  0
   -7.0985    1.5039    0.9078 H   0  0  0  0  0  0  0  0  0  0  0  0
   -6.1625    2.1856   -0.4512 H   0  0  0  0  0  0  0  0  0  0  0  0
   -7.4715    1.0152   -0.7479 H   0  0  0  0  0  0  0  0  0  0  0  0
   -4.9158    0.8185    1.9544 H   0  0  0  0  0  0  0  0  0  0  0  0
   -3.2874   -0.2081    3.2306 H   0  0  0  0  0  0  0  0  0  0  0  0
   -1.9445   -0.8056    2.2530 H   0  0  0  0  0  0  0  0  0  0  0  0
   -3.0927   -1.9461    3.0127 H   0  0  0  0  0  0  0  0  0  0  0  0
   -1.6539    1.3115   -1.1637 H   0  0  0  0  0  0  0  0  0  0  0  0
   -2.3708   -0.2144   -1.6472 H   0  0  0  0  0  0  0  0  0  0  0  0
   -0.3228   -1.5746   -3.7196 H   0  0  0  0  0  0  0  0  0  0  0  0
    0.5522   -0.1536   -5.8743 H   0  0  0  0  0  0  0  0  0  0  0  0
    0.0526    2.4853   -5.2088 H   0  0  0  0  0  0  0  0  0  0  0  0
    4.1000    3.0031    0.5075 H   0  0  0  0  0  0  0  0  0  0  0  0
    5.2993    3.2440    2.6351 H   0  0  0  0  0  0  0  0  0  0  0  0
  1  2  1  0
  2  3  1  0
  3  4  2  0
  4  5  1  0
  5  6  2  0
  6  7  1  0
  7  8  2  0
  7  9  1  0
  9 10  1  0
 10 11  1  0
 11 12  2  0
 12 13  1  0
 13 14  2  0
 14 15  1  0
 15 16  1  0
 16 17  1  0
 17 18  2  0
 18 19  1  0
 19 20  2  0
 20 21  1  0
 20 22  1  0
 22 23  2  0
 23 24  1  0
 14 25  1  0
 25 26  1  0
 26 27  1  0
 27 28  2  0
 28 29  1  0
 29 30  2  0
 30 31  1  0
  6 32  1  0
 32 33  2  0
 33  3  1  0
 25 11  1  0
 31 27  1  0
 23 17  1  0
  1 34  1  0
  1 35  1  0
  1 36  1  0
  4 37  1  0
  5 38  1  0
  9 39  1  0
  9 40  1  0
 15 41  1  0
 15 42  1  0
 16 43  1  0
 18 44  1  0
 19 45  1  0
 21 46  1  0
 21 47  1  0
 21 48  1  0
 22 49  1  0
 24 50  1  0
 24 51  1  0
 24 52  1  0
 26 53  1  0
 26 54  1  0
 28 55  1  0
 29 56  1  0
 30 57  1  0
 32 58  1  0
 33 59  1  0
M  END
$$$$
