
     RDKit          3D

 36 37  0  0  0  0  0  0  0  0999 V2000
   -2.4135    0.5192    2.3504 C   0  0  0  0  0  0  0  0  0  0  0  0
   -2.6440    1.3882    0.7732 S   0  0  0  0  0  0  0  0  0  0  0  0
   -3.3154    0.0399   -0.2000 C   0  0  0  0  0  0  0  0  0  0  0  0
   -4.6777    0.1453   -0.5300 C   0  0  0  0  0  0  0  0  0  0  0  0
   -5.3244   -0.8606   -1.2511 C   0  0  0  0  0  0  0  0  0  0  0  0
   -4.6195   -1.9891   -1.6536 C   0  0  0  0  0  0  0  0  0  0  0  0
   -3.2642   -2.1041   -1.3460 C   0  0  0  0  0  0  0  0  0  0  0  0
   -2.5962   -1.0904   -0.6341 C   0  0  0  0  0  0  0  0  0  0  0  0
   -1.1385   -1.3189   -0.3976 C   0  0  0  0  0  0  0  0  0  0  0  0
   -0.7696   -2.4641   -0.1609 O   0  0  0  0  0  0  0  0  0  0  0  0
   -0.3364   -0.2013   -0.5090 N   0  0  0  0  0  0  0  0  0  0  0  0
    1.0622   -0.1201   -0.3537 C   0  0  0  0  0  0  0  0  0  0  0  0
    1.8847   -1.2151   -0.1072 C   0  0  0  0  0  0  0  0  0  0  0  0
    3.2655   -1.0446    0.0352 C   0  0  0  0  0  0  0  0  0  0  0  0
    3.8524    0.2243   -0.0661 C   0  0  0  0  0  0  0  0  0  0  0  0
    5.3412    0.3632    0.0932 C   0  0  0  0  0  0  0  0  0  0  0  0
    3.0306    1.3382   -0.3166 C   0  0  0  0  0  0  0  0  0  0  0  0
    3.6031    2.7240   -0.4356 C   0  0  0  0  0  0  0  0  0  0  0  0
    1.6437    1.1505   -0.4576 C   0  0  0  0  0  0  0  0  0  0  0  0
   -1.6742   -0.2798    2.2559 H   0  0  0  0  0  0  0  0  0  0  0  0
   -2.0575    1.2311    3.0999 H   0  0  0  0  0  0  0  0  0  0  0  0
   -3.3616    0.0970    2.6948 H   0  0  0  0  0  0  0  0  0  0  0  0
   -5.2556    1.0134   -0.2165 H   0  0  0  0  0  0  0  0  0  0  0  0
   -6.3806   -0.7637   -1.4911 H   0  0  0  0  0  0  0  0  0  0  0  0
   -5.1201   -2.7789   -2.2085 H   0  0  0  0  0  0  0  0  0  0  0  0
   -2.7194   -2.9899   -1.6710 H   0  0  0  0  0  0  0  0  0  0  0  0
   -0.8127    0.6789   -0.6752 H   0  0  0  0  0  0  0  0  0  0  0  0
    1.4862   -2.2208   -0.0215 H   0  0  0  0  0  0  0  0  0  0  0  0
    3.8798   -1.9220    0.2270 H   0  0  0  0  0  0  0  0  0  0  0  0
    5.7850    0.7709   -0.8205 H   0  0  0  0  0  0  0  0  0  0  0  0
    5.8170   -0.6040    0.2875 H   0  0  0  0  0  0  0  0  0  0  0  0
    5.5739    1.0196    0.9376 H   0  0  0  0  0  0  0  0  0  0  0  0
    2.8231    3.4664   -0.6353 H   0  0  0  0  0  0  0  0  0  0  0  0
    4.3197    2.7699   -1.2617 H   0  0  0  0  0  0  0  0  0  0  0  0
    4.1000    3.0113    0.4963 H   0  0  0  0  0  0  0  0  0  0  0  0
    1.0130    2.0160   -0.6493 H   0  0  0  0  0  0  0  0  0  0  0  0
  1  2  1  0
  2  3  1  0
  3  4  2  0
  4  5  1  0
  5  6  2  0
  6  7  1  0
  7  8  2  0
  8  9  1  0
  9 10  2  0
  9 11  1  0
 11 12  1  0
 12 13  2  0
 13 14  1  0
 14 15  2  0
 15 16  1  0
 15 17  1  0
 17 18  1  0
 17 19  2  0
  8  3  1  0
 19 12  1  0
  1 20  1  0
  1 21  1  0
  1 22  1  0
  4 23  1  0
  5 24  1  0
  6 25  1  0
  7 26  1  0
 11 27  1  0
 13 28  1  0
 14 29  1  0
 16 30  1  0
 16 31  1  0
 16 32  1  0
 18 33  1  0
 18 34  1  0
 18 35  1  0
 19 36  1  0
M  END
$$$$
