
     RDKit          3D

 39 41  0  0  0  0  0  0  0  0999 V2000
    4.6348    2.5343    0.2168 C   0  0  0  0  0  0  0  0  0  0  0  0
    4.3391    1.7427    1.4779 C   0  0  0  0  0  0  0  0  0  0  0  0
    3.8957    0.3927    1.1856 N   0  0  0  0  0  0  0  0  0  0  0  0
    4.6513   -0.7401    1.2375 C   0  0  0  0  0  0  0  0  0  0  0  0
    3.8119   -1.7704    0.8896 C   0  0  0  0  0  0  0  0  0  0  0  0
    2.5530   -1.1651    0.6419 C   0  0  0  0  0  0  0  0  0  0  0  0
    1.3041   -1.8393    0.2320 C   0  0  0  0  0  0  0  0  0  0  0  0
    1.2653   -3.0530    0.0733 O   0  0  0  0  0  0  0  0  0  0  0  0
    0.2804   -0.9267    0.0731 N   0  0  0  0  0  0  0  0  0  0  0  0
   -1.0323   -1.1483   -0.2998 C   0  0  0  0  0  0  0  0  0  0  0  0
   -1.5858   -2.7427   -0.6251 S   0  0  0  0  0  0  0  0  0  0  0  0
   -3.1149   -2.1809   -0.9649 C   0  0  0  0  0  0  0  0  0  0  0  0
   -3.2442   -0.8275   -0.8482 C   0  0  0  0  0  0  0  0  0  0  0  0
   -2.0347   -0.1847   -0.4540 C   0  0  0  0  0  0  0  0  0  0  0  0
   -1.8931    1.2566   -0.2490 C   0  0  0  0  0  0  0  0  0  0  0  0
   -2.8203    2.0467   -0.3893 O   0  0  0  0  0  0  0  0  0  0  0  0
   -0.6288    1.6305    0.1126 O   0  0  0  0  0  0  0  0  0  0  0  0
   -0.4671    3.0342    0.3159 C   0  0  0  0  0  0  0  0  0  0  0  0
   -4.6318   -0.3970   -1.1630 C   0  0  0  0  0  0  0  0  0  0  0  0
   -5.2348   -1.6761   -1.8252 C   0  0  0  0  0  0  0  0  0  0  0  0
   -4.3564   -2.8799   -1.3660 C   0  0  0  0  0  0  0  0  0  0  0  0
    2.6147    0.1721    0.8298 N   0  0  0  0  0  0  0  0  0  0  0  0
    3.7428    2.6251   -0.4121 H   0  0  0  0  0  0  0  0  0  0  0  0
    4.9759    3.5423    0.4719 H   0  0  0  0  0  0  0  0  0  0  0  0
    5.4151    2.0489   -0.3790 H   0  0  0  0  0  0  0  0  0  0  0  0
    5.2346    1.6729    2.1048 H   0  0  0  0  0  0  0  0  0  0  0  0
    3.5528    2.2272    2.0672 H   0  0  0  0  0  0  0  0  0  0  0  0
    5.6977   -0.7232    1.5088 H   0  0  0  0  0  0  0  0  0  0  0  0
    4.0543   -2.8221    0.8176 H   0  0  0  0  0  0  0  0  0  0  0  0
    0.5553    0.0387    0.2590 H   0  0  0  0  0  0  0  0  0  0  0  0
    0.5741    3.2169    0.5963 H   0  0  0  0  0  0  0  0  0  0  0  0
   -0.6780    3.5826   -0.6074 H   0  0  0  0  0  0  0  0  0  0  0  0
   -1.1107    3.3805    1.1305 H   0  0  0  0  0  0  0  0  0  0  0  0
   -4.6688    0.4537   -1.8488 H   0  0  0  0  0  0  0  0  0  0  0  0
   -5.1733   -0.1497   -0.2440 H   0  0  0  0  0  0  0  0  0  0  0  0
   -5.1632   -1.5787   -2.9167 H   0  0  0  0  0  0  0  0  0  0  0  0
   -6.2918   -1.8135   -1.5770 H   0  0  0  0  0  0  0  0  0  0  0  0
   -4.2090   -3.5958   -2.1791 H   0  0  0  0  0  0  0  0  0  0  0  0
   -4.8142   -3.3841   -0.5088 H   0  0  0  0  0  0  0  0  0  0  0  0
  1  2  1  0
  2  3  1  0
  3  4  1  0
  4  5  2  0
  5  6  1  0
  6  7  1  0
  7  8  2  0
  7  9  1  0
  9 10  1  0
 10 11  1  0
 11 12  1  0
 12 13  2  0
 13 14  1  0
 14 15  1  0
 15 16  2  0
 15 17  1  0
 17 18  1  0
 13 19  1  0
 19 20  1  0
 20 21  1  0
  6 22  2  0
 22  3  1  0
 14 10  2  0
 21 12  1  0
  1 23  1  0
  1 24  1  0
  1 25  1  0
  2 26  1  0
  2 27  1  0
  4 28  1  0
  5 29  1  0
  9 30  1  0
 18 31  1  0
 18 32  1  0
 18 33  1  0
 19 34  1  0
 19 35  1  0
 20 36  1  0
 20 37  1  0
 21 38  1  0
 21 39  1  0
M  END
$$$$
