
     RDKit          3D

 54 56  0  0  0  0  0  0  0  0999 V2000
    7.7647   -1.2006   -2.5435 C   0  0  0  0  0  0  0  0  0  0  0  0
    6.9213   -1.7624   -1.5470 O   0  0  0  0  0  0  0  0  0  0  0  0
    6.0057   -0.9252   -0.9711 C   0  0  0  0  0  0  0  0  0  0  0  0
    5.7232    0.3799   -1.3709 C   0  0  0  0  0  0  0  0  0  0  0  0
    4.7572    1.1310   -0.6916 C   0  0  0  0  0  0  0  0  0  0  0  0
    4.0626    0.5877    0.3957 C   0  0  0  0  0  0  0  0  0  0  0  0
    3.0156    1.3966    1.1176 C   0  0  0  0  0  0  0  0  0  0  0  0
    1.6904    1.5009    0.3494 C   0  0  0  0  0  0  0  0  0  0  0  0
    0.9463    0.1732    0.1746 C   0  0  0  0  0  0  0  0  0  0  0  0
    0.5231   -0.4157    1.4659 C   0  0  0  0  0  0  0  0  0  0  0  0
    0.9447   -1.5038    2.0676 N   0  0  0  0  0  0  0  0  0  0  0  0
    0.2322   -1.5916    3.2452 N   0  0  0  0  0  0  0  0  0  0  0  0
   -0.5829   -0.5573    3.2786 C   0  0  0  0  0  0  0  0  0  0  0  0
   -1.6869   -0.2365    4.5787 S   0  0  0  0  0  0  0  0  0  0  0  0
   -2.7394    1.0436    3.8492 C   0  0  0  0  0  0  0  0  0  0  0  0
   -3.5883    0.4761    2.7197 C   0  0  0  0  0  0  0  0  0  0  0  0
   -4.4899   -0.3232    2.9454 O   0  0  0  0  0  0  0  0  0  0  0  0
   -3.2382    0.9719    1.4763 N   0  0  0  0  0  0  0  0  0  0  0  0
   -3.7560    0.6027    0.2125 C   0  0  0  0  0  0  0  0  0  0  0  0
   -4.6462   -0.4598    0.0317 C   0  0  0  0  0  0  0  0  0  0  0  0
   -5.1266   -0.8089   -1.2465 C   0  0  0  0  0  0  0  0  0  0  0  0
   -6.0866   -1.9621   -1.3760 C   0  0  0  0  0  0  0  0  0  0  0  0
   -4.7243   -0.0609   -2.3686 C   0  0  0  0  0  0  0  0  0  0  0  0
   -5.2127   -0.3873   -3.7546 C   0  0  0  0  0  0  0  0  0  0  0  0
   -3.8180    0.9945   -2.1933 C   0  0  0  0  0  0  0  0  0  0  0  0
   -3.3408    1.3205   -0.9204 C   0  0  0  0  0  0  0  0  0  0  0  0
   -2.1257    2.7804   -0.7792 Br  0  0  0  0  0  0  0  0  0  0  0  0
   -0.4413    0.2467    2.1762 O   0  0  0  0  0  0  0  0  0  0  0  0
    4.3470   -0.7239    0.7907 C   0  0  0  0  0  0  0  0  0  0  0  0
    5.3077   -1.4727    0.1078 C   0  0  0  0  0  0  0  0  0  0  0  0
    8.4809   -1.9701   -2.8494 H   0  0  0  0  0  0  0  0  0  0  0  0
    7.1891   -0.9110   -3.4278 H   0  0  0  0  0  0  0  0  0  0  0  0
    8.3349   -0.3544   -2.1477 H   0  0  0  0  0  0  0  0  0  0  0  0
    6.2361    0.8445   -2.2053 H   0  0  0  0  0  0  0  0  0  0  0  0
    4.5550    2.1481   -1.0163 H   0  0  0  0  0  0  0  0  0  0  0  0
    2.8483    0.9909    2.1238 H   0  0  0  0  0  0  0  0  0  0  0  0
    3.4133    2.4084    1.2756 H   0  0  0  0  0  0  0  0  0  0  0  0
    1.8735    1.9297   -0.6444 H   0  0  0  0  0  0  0  0  0  0  0  0
    1.0431    2.2128    0.8779 H   0  0  0  0  0  0  0  0  0  0  0  0
    1.5605   -0.5450   -0.3773 H   0  0  0  0  0  0  0  0  0  0  0  0
    0.0542    0.3434   -0.4384 H   0  0  0  0  0  0  0  0  0  0  0  0
   -3.4229    1.4232    4.6167 H   0  0  0  0  0  0  0  0  0  0  0  0
   -2.1306    1.8913    3.5175 H   0  0  0  0  0  0  0  0  0  0  0  0
   -2.5371    1.7037    1.4424 H   0  0  0  0  0  0  0  0  0  0  0  0
   -4.9804   -1.0541    0.8787 H   0  0  0  0  0  0  0  0  0  0  0  0
   -6.1516   -2.5353   -0.4446 H   0  0  0  0  0  0  0  0  0  0  0  0
   -7.0877   -1.5909   -1.6150 H   0  0  0  0  0  0  0  0  0  0  0  0
   -5.7570   -2.6517   -2.1578 H   0  0  0  0  0  0  0  0  0  0  0  0
   -4.9766    0.4201   -4.4570 H   0  0  0  0  0  0  0  0  0  0  0  0
   -4.7365   -1.3039   -4.1163 H   0  0  0  0  0  0  0  0  0  0  0  0
   -6.3005   -0.5114   -3.7627 H   0  0  0  0  0  0  0  0  0  0  0  0
   -3.4878    1.5676   -3.0577 H   0  0  0  0  0  0  0  0  0  0  0  0
    3.8238   -1.1781    1.6302 H   0  0  0  0  0  0  0  0  0  0  0  0
    5.5183   -2.4916    0.4250 H   0  0  0  0  0  0  0  0  0  0  0  0
  1  2  1  0
  2  3  1  0
  3  4  2  0
  4  5  1  0
  5  6  2  0
  6  7  1  0
  7  8  1  0
  8  9  1  0
  9 10  1  0
 10 11  2  0
 11 12  1  0
 12 13  2  0
 13 14  1  0
 14 15  1  0
 15 16  1  0
 16 17  2  0
 16 18  1  0
 18 19  1  0
 19 20  2  0
 20 21  1  0
 21 22  1  0
 21 23  2  0
 23 24  1  0
 23 25  1  0
 25 26  2  0
 26 27  1  0
 13 28  1  0
  6 29  1  0
 29 30  2  0
 30  3  1  0
 28 10  1  0
 26 19  1  0
  1 31  1  0
  1 32  1  0
  1 33  1  0
  4 34  1  0
  5 35  1  0
  7 36  1  0
  7 37  1  0
  8 38  1  0
  8 39  1  0
  9 40  1  0
  9 41  1  0
 15 42  1  0
 15 43  1  0
 18 44  1  0
 20 45  1  0
 22 46  1  0
 22 47  1  0
 22 48  1  0
 24 49  1  0
 24 50  1  0
 24 51  1  0
 25 52  1  0
 29 53  1  0
 30 54  1  0
M  END
$$$$
