
     RDKit          3D

 57 60  0  0  0  0  0  0  0  0999 V2000
   -7.0645   -0.5064    2.4993 C   0  0  0  0  0  0  0  0  0  0  0  0
   -6.3996    0.7399    2.3357 O   0  0  0  0  0  0  0  0  0  0  0  0
   -5.3672    0.7854    1.4392 C   0  0  0  0  0  0  0  0  0  0  0  0
   -4.7714    2.0414    1.3084 C   0  0  0  0  0  0  0  0  0  0  0  0
   -3.7073    2.2437    0.4261 C   0  0  0  0  0  0  0  0  0  0  0  0
   -3.2253    1.1811   -0.3336 C   0  0  0  0  0  0  0  0  0  0  0  0
   -2.1536    1.2871   -1.2464 N   0  0  0  0  0  0  0  0  0  0  0  0
   -1.3520    2.3794   -1.5108 C   0  0  0  0  0  0  0  0  0  0  0  0
   -1.4469    3.4897   -0.9929 O   0  0  0  0  0  0  0  0  0  0  0  0
   -0.3027    2.1211   -2.5766 C   0  0  0  0  0  0  0  0  0  0  0  0
    0.5946    1.0341   -2.2110 N   0  0  0  0  0  0  0  0  0  0  0  0
    1.6102    1.1585   -1.2939 C   0  0  0  0  0  0  0  0  0  0  0  0
    2.2100   -0.0769   -1.1640 C   0  0  0  0  0  0  0  0  0  0  0  0
    3.5403   -0.4989   -0.1372 S   0  0  0  0  0  6  0  0  0  0  0  0
    3.0567   -1.6600    0.5847 O   0  0  0  0  0  0  0  0  0  0  0  0
    4.6596   -0.5565   -1.0569 O   0  0  0  0  0  0  0  0  0  0  0  0
    3.7238    0.8851    0.9777 C   0  0  0  0  0  0  0  0  0  0  0  0
    4.8419    0.5991    1.9463 C   0  0  0  0  0  0  0  0  0  0  0  0
    6.1684    0.9139    1.6167 C   0  0  0  0  0  0  0  0  0  0  0  0
    7.2032    0.6448    2.5135 C   0  0  0  0  0  0  0  0  0  0  0  0
    6.9246    0.0574    3.7457 C   0  0  0  0  0  0  0  0  0  0  0  0
    5.6114   -0.2657    4.0813 C   0  0  0  0  0  0  0  0  0  0  0  0
    4.5743    0.0018    3.1866 C   0  0  0  0  0  0  0  0  0  0  0  0
    1.5548   -0.9788   -2.0523 C   0  0  0  0  0  0  0  0  0  0  0  0
    1.7182   -2.3449   -2.3685 C   0  0  0  0  0  0  0  0  0  0  0  0
    0.8824   -2.9461   -3.3138 C   0  0  0  0  0  0  0  0  0  0  0  0
   -0.1089   -2.2078   -3.9491 C   0  0  0  0  0  0  0  0  0  0  0  0
   -0.2940   -0.8534   -3.6586 C   0  0  0  0  0  0  0  0  0  0  0  0
    0.5481   -0.2552   -2.7048 C   0  0  0  0  0  0  0  0  0  0  0  0
   -3.8191   -0.0929   -0.2029 C   0  0  0  0  0  0  0  0  0  0  0  0
   -3.2755   -1.0722   -1.0052 O   0  0  0  0  0  0  0  0  0  0  0  0
   -3.6481   -2.4169   -0.7294 C   0  0  0  0  0  0  0  0  0  0  0  0
   -4.8898   -0.2845    0.6792 C   0  0  0  0  0  0  0  0  0  0  0  0
   -7.5312   -0.8311    1.5634 H   0  0  0  0  0  0  0  0  0  0  0  0
   -6.3815   -1.2693    2.8870 H   0  0  0  0  0  0  0  0  0  0  0  0
   -7.8605   -0.3663    3.2371 H   0  0  0  0  0  0  0  0  0  0  0  0
   -5.1408    2.8771    1.8993 H   0  0  0  0  0  0  0  0  0  0  0  0
   -3.2814    3.2393    0.3584 H   0  0  0  0  0  0  0  0  0  0  0  0
   -1.9305    0.3997   -1.6936 H   0  0  0  0  0  0  0  0  0  0  0  0
   -0.7874    1.8976   -3.5306 H   0  0  0  0  0  0  0  0  0  0  0  0
    0.3124    3.0176   -2.7126 H   0  0  0  0  0  0  0  0  0  0  0  0
    1.8028    2.1097   -0.8137 H   0  0  0  0  0  0  0  0  0  0  0  0
    3.9472    1.7816    0.3913 H   0  0  0  0  0  0  0  0  0  0  0  0
    2.7775    1.0310    1.5081 H   0  0  0  0  0  0  0  0  0  0  0  0
    6.4095    1.3604    0.6534 H   0  0  0  0  0  0  0  0  0  0  0  0
    8.2288    0.8868    2.2468 H   0  0  0  0  0  0  0  0  0  0  0  0
    7.7321   -0.1565    4.4410 H   0  0  0  0  0  0  0  0  0  0  0  0
    5.3953   -0.7336    5.0384 H   0  0  0  0  0  0  0  0  0  0  0  0
    3.5573   -0.2708    3.4630 H   0  0  0  0  0  0  0  0  0  0  0  0
    2.4906   -2.9342   -1.8791 H   0  0  0  0  0  0  0  0  0  0  0  0
    1.0150   -3.9984   -3.5529 H   0  0  0  0  0  0  0  0  0  0  0  0
   -0.7473   -2.6904   -4.6860 H   0  0  0  0  0  0  0  0  0  0  0  0
   -1.0712   -0.2956   -4.1712 H   0  0  0  0  0  0  0  0  0  0  0  0
   -4.6966   -2.5935   -0.9892 H   0  0  0  0  0  0  0  0  0  0  0  0
   -3.0355   -3.0681   -1.3603 H   0  0  0  0  0  0  0  0  0  0  0  0
   -3.4490   -2.6810    0.3146 H   0  0  0  0  0  0  0  0  0  0  0  0
   -5.3521   -1.2584    0.7668 H   0  0  0  0  0  0  0  0  0  0  0  0
  1  2  1  0
  2  3  1  0
  3  4  2  0
  4  5  1  0
  5  6  2  0
  6  7  1  0
  7  8  1  0
  8  9  2  0
  8 10  1  0
 10 11  1  0
 11 12  1  0
 12 13  2  0
 13 14  1  0
 14 15  2  0
 14 16  2  0
 14 17  1  0
 17 18  1  0
 18 19  2  0
 19 20  1  0
 20 21  2  0
 21 22  1  0
 22 23  2  0
 13 24  1  0
 24 25  2  0
 25 26  1  0
 26 27  2  0
 27 28  1  0
 28 29  2  0
  6 30  1  0
 30 31  1  0
 31 32  1  0
 30 33  2  0
 33  3  1  0
 29 11  1  0
 23 18  1  0
 29 24  1  0
  1 34  1  0
  1 35  1  0
  1 36  1  0
  4 37  1  0
  5 38  1  0
  7 39  1  0
 10 40  1  0
 10 41  1  0
 12 42  1  0
 17 43  1  0
 17 44  1  0
 19 45  1  0
 20 46  1  0
 21 47  1  0
 22 48  1  0
 23 49  1  0
 25 50  1  0
 26 51  1  0
 27 52  1  0
 28 53  1  0
 32 54  1  0
 32 55  1  0
 32 56  1  0
 33 57  1  0
M  END
$$$$
