
     RDKit          3D

 47 50  0  0  0  0  0  0  0  0999 V2000
   -8.3106   -3.4871    0.7761 C   0  0  0  0  0  0  0  0  0  0  0  0
   -7.4042   -2.6018    0.1221 O   0  0  0  0  0  0  0  0  0  0  0  0
   -6.2951   -2.3114    0.8481 C   0  0  0  0  0  0  0  0  0  0  0  0
   -6.0279   -2.7542    1.9536 O   0  0  0  0  0  0  0  0  0  0  0  0
   -5.4252   -1.3507    0.1145 C   0  0  0  0  0  0  0  0  0  0  0  0
   -5.7652   -0.8536   -1.1464 C   0  0  0  0  0  0  0  0  0  0  0  0
   -4.9157    0.0464   -1.7892 C   0  0  0  0  0  0  0  0  0  0  0  0
   -3.7285    0.4691   -1.1769 C   0  0  0  0  0  0  0  0  0  0  0  0
   -3.3822    0.0057    0.0969 C   0  0  0  0  0  0  0  0  0  0  0  0
   -2.2028    0.4261    0.7800 N   0  0  0  0  0  0  0  0  0  0  0  0
   -1.8005   -0.2358    1.9022 N   0  0  0  0  0  0  0  0  0  0  0  0
   -0.6649    0.3180    2.2874 N   0  0  0  0  0  0  0  0  0  0  0  0
   -0.3339    1.3674    1.4832 N   0  0  0  0  0  0  0  0  0  0  0  0
   -1.2781    1.4495    0.5729 C   0  0  0  0  0  0  0  0  0  0  0  0
   -1.3770    2.7365   -0.5809 S   0  0  0  0  0  0  0  0  0  0  0  0
    0.0869    3.7293   -0.1627 C   0  0  0  0  0  0  0  0  0  0  0  0
    1.3373    3.1402   -0.7997 C   0  0  0  0  0  0  0  0  0  0  0  0
    1.6728    3.4852   -1.9296 O   0  0  0  0  0  0  0  0  0  0  0  0
    1.9823    2.2395    0.0170 N   0  0  0  0  0  0  0  0  0  0  0  0
    3.1519    1.5736   -0.2366 C   0  0  0  0  0  0  0  0  0  0  0  0
    3.6135    0.6777    0.6081 N   0  0  0  0  0  0  0  0  0  0  0  0
    4.8038    0.1767    0.1346 C   0  0  0  0  0  0  0  0  0  0  0  0
    5.2277    0.7061   -1.0668 C   0  0  0  0  0  0  0  0  0  0  0  0
    4.1125    1.8603   -1.6200 S   0  0  0  0  0  0  0  0  0  0  0  0
    6.4963    0.3554   -1.7683 C   0  0  0  0  0  0  0  0  0  0  0  0
    7.0953   -0.9313   -1.1700 C   0  0  0  0  0  0  0  0  0  0  0  0
    7.0154   -0.9566    0.3686 C   0  0  0  0  0  0  0  0  0  0  0  0
    5.5612   -0.8761    0.8694 C   0  0  0  0  0  0  0  0  0  0  0  0
   -4.2319   -0.9259    0.7266 C   0  0  0  0  0  0  0  0  0  0  0  0
   -7.8409   -4.4579    0.9610 H   0  0  0  0  0  0  0  0  0  0  0  0
   -9.1678   -3.6382    0.1156 H   0  0  0  0  0  0  0  0  0  0  0  0
   -8.6717   -3.0467    1.7100 H   0  0  0  0  0  0  0  0  0  0  0  0
   -6.6853   -1.1563   -1.6417 H   0  0  0  0  0  0  0  0  0  0  0  0
   -5.1767    0.4176   -2.7773 H   0  0  0  0  0  0  0  0  0  0  0  0
   -3.1041    1.1369   -1.7536 H   0  0  0  0  0  0  0  0  0  0  0  0
   -0.0518    4.7360   -0.5716 H   0  0  0  0  0  0  0  0  0  0  0  0
    0.2073    3.8464    0.9169 H   0  0  0  0  0  0  0  0  0  0  0  0
    1.5399    1.9371    0.8786 H   0  0  0  0  0  0  0  0  0  0  0  0
    7.2143    1.1778   -1.6460 H   0  0  0  0  0  0  0  0  0  0  0  0
    6.3294    0.2151   -2.8430 H   0  0  0  0  0  0  0  0  0  0  0  0
    8.1394   -1.0291   -1.4919 H   0  0  0  0  0  0  0  0  0  0  0  0
    6.5567   -1.8025   -1.5672 H   0  0  0  0  0  0  0  0  0  0  0  0
    7.4853   -1.8688    0.7521 H   0  0  0  0  0  0  0  0  0  0  0  0
    7.5890   -0.1093    0.7693 H   0  0  0  0  0  0  0  0  0  0  0  0
    5.5499   -0.6732    1.9481 H   0  0  0  0  0  0  0  0  0  0  0  0
    5.0655   -1.8415    0.7082 H   0  0  0  0  0  0  0  0  0  0  0  0
   -3.9913   -1.3214    1.7142 H   0  0  0  0  0  0  0  0  0  0  0  0
  1  2  1  0
  2  3  1  0
  3  4  2  0
  3  5  1  0
  5  6  2  0
  6  7  1  0
  7  8  2  0
  8  9  1  0
  9 10  1  0
 10 11  1  0
 11 12  2  0
 12 13  1  0
 13 14  2  0
 14 15  1  0
 15 16  1  0
 16 17  1  0
 17 18  2  0
 17 19  1  0
 19 20  1  0
 20 21  2  0
 21 22  1  0
 22 23  2  0
 23 24  1  0
 23 25  1  0
 25 26  1  0
 26 27  1  0
 27 28  1  0
  9 29  2  0
 29  5  1  0
 14 10  1  0
 24 20  1  0
 28 22  1  0
  1 30  1  0
  1 31  1  0
  1 32  1  0
  6 33  1  0
  7 34  1  0
  8 35  1  0
 16 36  1  0
 16 37  1  0
 19 38  1  0
 25 39  1  0
 25 40  1  0
 26 41  1  0
 26 42  1  0
 27 43  1  0
 27 44  1  0
 28 45  1  0
 28 46  1  0
 29 47  1  0
M  END
$$$$
