
     RDKit          3D

 35 37  0  0  0  0  0  0  0  0999 V2000
   -3.6743   -0.4542   -2.1037 C   0  0  0  0  0  0  0  0  0  0  0  0
   -3.5813    0.1158   -0.7147 C   0  0  0  0  0  0  0  0  0  0  0  0
   -4.1276    1.3800   -0.4470 C   0  0  0  0  0  0  0  0  0  0  0  0
   -4.0532    1.9265    0.8324 C   0  0  0  0  0  0  0  0  0  0  0  0
   -3.4329    1.2149    1.8542 C   0  0  0  0  0  0  0  0  0  0  0  0
   -2.8853   -0.0454    1.6020 C   0  0  0  0  0  0  0  0  0  0  0  0
   -2.9570   -0.6034    0.3216 C   0  0  0  0  0  0  0  0  0  0  0  0
   -2.4311   -1.8173   -0.0401 O   0  0  0  0  0  0  0  0  0  0  0  0
   -1.8711   -2.6445    0.9732 C   0  0  0  0  0  0  0  0  0  0  0  0
   -0.4420   -2.2729    1.3837 C   0  0  0  0  0  0  0  0  0  0  0  0
    0.0343   -2.6867    2.4357 O   0  0  0  0  0  0  0  0  0  0  0  0
    0.1888   -1.4886    0.4452 N   0  0  0  0  0  0  0  0  0  0  0  0
    1.4624   -1.0274    0.6088 C   0  0  0  0  0  0  0  0  0  0  0  0
    2.3277   -1.2448    1.5678 N   0  0  0  0  0  0  0  0  0  0  0  0
    3.5179   -0.5750    1.3404 N   0  0  0  0  0  0  0  0  0  0  0  0
    3.4900    0.1157    0.2176 C   0  0  0  0  0  0  0  0  0  0  0  0
    4.5983    0.8979   -0.2470 C   0  0  0  0  0  0  0  0  0  0  0  0
    5.8356    1.0713    0.3560 C   0  0  0  0  0  0  0  0  0  0  0  0
    6.5970    1.9277   -0.4747 C   0  0  0  0  0  0  0  0  0  0  0  0
    5.7891    2.2340   -1.5411 C   0  0  0  0  0  0  0  0  0  0  0  0
    4.5853    1.6215   -1.4167 O   0  0  0  0  0  0  0  0  0  0  0  0
    2.0076   -0.0042   -0.6426 S   0  0  0  0  0  0  0  0  0  0  0  0
   -4.2320   -1.3962   -2.0901 H   0  0  0  0  0  0  0  0  0  0  0  0
   -2.6723   -0.6295   -2.5087 H   0  0  0  0  0  0  0  0  0  0  0  0
   -4.1928    0.2285   -2.7852 H   0  0  0  0  0  0  0  0  0  0  0  0
   -4.6168    1.9474   -1.2358 H   0  0  0  0  0  0  0  0  0  0  0  0
   -4.4794    2.9065    1.0318 H   0  0  0  0  0  0  0  0  0  0  0  0
   -3.3726    1.6414    2.8529 H   0  0  0  0  0  0  0  0  0  0  0  0
   -2.4073   -0.5534    2.4339 H   0  0  0  0  0  0  0  0  0  0  0  0
   -1.8184   -3.6578    0.5585 H   0  0  0  0  0  0  0  0  0  0  0  0
   -2.5201   -2.6990    1.8546 H   0  0  0  0  0  0  0  0  0  0  0  0
   -0.3310   -1.1712   -0.3630 H   0  0  0  0  0  0  0  0  0  0  0  0
    6.1420    0.6233    1.2926 H   0  0  0  0  0  0  0  0  0  0  0  0
    7.6075    2.2769   -0.3147 H   0  0  0  0  0  0  0  0  0  0  0  0
    5.9151    2.8422   -2.4263 H   0  0  0  0  0  0  0  0  0  0  0  0
  1  2  1  0
  2  3  2  0
  3  4  1  0
  4  5  2  0
  5  6  1  0
  6  7  2  0
  7  8  1  0
  8  9  1  0
  9 10  1  0
 10 11  2  0
 10 12  1  0
 12 13  1  0
 13 14  2  0
 14 15  1  0
 15 16  2  0
 16 17  1  0
 17 18  2  0
 18 19  1  0
 19 20  2  0
 20 21  1  0
 16 22  1  0
  7  2  1  0
 22 13  1  0
 21 17  1  0
  1 23  1  0
  1 24  1  0
  1 25  1  0
  3 26  1  0
  4 27  1  0
  5 28  1  0
  6 29  1  0
  9 30  1  0
  9 31  1  0
 12 32  1  0
 18 33  1  0
 19 34  1  0
 20 35  1  0
M  END
$$$$
