
     RDKit          3D

 37 39  0  0  0  0  0  0  0  0999 V2000
    7.0595    1.3163    0.5880 O   0  0  0  0  0  0  0  0  0  0  0  0
    5.6456    1.2234    0.5268 C   0  0  0  0  0  0  0  0  0  0  0  0
    5.2083   -0.1071    1.1323 C   0  0  0  0  0  0  0  0  0  0  0  0
    3.7348   -0.2293    1.0817 N   0  0  0  0  0  4  0  0  0  0  0  0
    2.9901    0.2130    2.1207 C   0  0  0  0  0  0  0  0  0  0  0  0
    1.6045    0.1034    2.0962 C   0  0  0  0  0  0  0  0  0  0  0  0
    0.9749   -0.4594    0.9879 C   0  0  0  0  0  0  0  0  0  0  0  0
   -0.4858   -0.5916    0.9842 C   0  0  0  0  0  0  0  0  0  0  0  0
   -1.2549   -0.3244   -0.0856 C   0  0  0  0  0  0  0  0  0  0  0  0
   -2.6807   -0.4316   -0.1442 C   0  0  0  0  0  0  0  0  0  0  0  0
   -3.5057   -0.9089    0.8521 C   0  0  0  0  0  0  0  0  0  0  0  0
   -4.7980   -0.8508    0.3967 N   0  0  0  0  0  0  0  0  0  0  0  0
   -4.8312   -0.3441   -0.8815 C   0  0  0  0  0  0  0  0  0  0  0  0
   -5.9231   -0.1123   -1.7268 C   0  0  0  0  0  0  0  0  0  0  0  0
   -5.6628    0.4180   -2.9929 C   0  0  0  0  0  0  0  0  0  0  0  0
   -4.3616    0.7046   -3.3954 C   0  0  0  0  0  0  0  0  0  0  0  0
   -3.2807    0.4665   -2.5378 C   0  0  0  0  0  0  0  0  0  0  0  0
   -3.5131   -0.0697   -1.2520 C   0  0  0  0  0  0  0  0  0  0  0  0
    1.7642   -0.9285   -0.0611 C   0  0  0  0  0  0  0  0  0  0  0  0
    3.1468   -0.8015    0.0062 C   0  0  0  0  0  0  0  0  0  0  0  0
    7.3316    2.1699    0.1990 H   0  0  0  0  0  0  0  0  0  0  0  0
    5.3320    1.2972   -0.5194 H   0  0  0  0  0  0  0  0  0  0  0  0
    5.2126    2.0637    1.0786 H   0  0  0  0  0  0  0  0  0  0  0  0
    5.5307   -0.1966    2.1761 H   0  0  0  0  0  0  0  0  0  0  0  0
    5.6480   -0.9550    0.5944 H   0  0  0  0  0  0  0  0  0  0  0  0
    3.5117    0.6529    2.9666 H   0  0  0  0  0  0  0  0  0  0  0  0
    1.0218    0.4673    2.9410 H   0  0  0  0  0  0  0  0  0  0  0  0
   -0.9381   -0.9043    1.9226 H   0  0  0  0  0  0  0  0  0  0  0  0
   -0.7783    0.0201   -1.0006 H   0  0  0  0  0  0  0  0  0  0  0  0
   -3.3043   -1.2901    1.8435 H   0  0  0  0  0  0  0  0  0  0  0  0
   -5.6153   -1.1388    0.9175 H   0  0  0  0  0  0  0  0  0  0  0  0
   -6.9397   -0.3338   -1.4173 H   0  0  0  0  0  0  0  0  0  0  0  0
   -6.4905    0.6095   -3.6726 H   0  0  0  0  0  0  0  0  0  0  0  0
   -4.1832    1.1178   -4.3853 H   0  0  0  0  0  0  0  0  0  0  0  0
   -2.2740    0.6982   -2.8696 H   0  0  0  0  0  0  0  0  0  0  0  0
    1.3130   -1.4064   -0.9290 H   0  0  0  0  0  0  0  0  0  0  0  0
    3.7909   -1.1575   -0.7935 H   0  0  0  0  0  0  0  0  0  0  0  0
  1  2  1  0
  2  3  1  0
  3  4  1  0
  4  5  2  0
  5  6  1  0
  6  7  2  0
  7  8  1  0
  8  9  2  3
  9 10  1  0
 10 11  2  0
 11 12  1  0
 12 13  1  0
 13 14  2  0
 14 15  1  0
 15 16  2  0
 16 17  1  0
 17 18  2  0
  7 19  1  0
 19 20  2  0
 20  4  1  0
 18 10  1  0
 18 13  1  0
  1 21  1  0
  2 22  1  0
  2 23  1  0
  3 24  1  0
  3 25  1  0
  5 26  1  0
  6 27  1  0
  8 28  1  0
  9 29  1  0
 11 30  1  0
 12 31  1  0
 14 32  1  0
 15 33  1  0
 16 34  1  0
 17 35  1  0
 19 36  1  0
 20 37  1  0
M  CHG  1   4   1
M  END
$$$$
