
     RDKit          3D

 41 42  0  0  0  0  0  0  0  0999 V2000
    5.8214    2.6923    0.3676 C   0  0  0  0  0  0  0  0  0  0  0  0
    5.1872    1.4964   -0.0848 O   0  0  0  0  0  0  0  0  0  0  0  0
    4.1183    1.1134    0.6702 C   0  0  0  0  0  0  0  0  0  0  0  0
    3.7093    1.7239    1.6493 O   0  0  0  0  0  0  0  0  0  0  0  0
    3.5451   -0.1083    0.1329 C   0  0  0  0  0  0  0  0  0  0  0  0
    3.9280   -0.8132   -0.9980 C   0  0  0  0  0  0  0  0  0  0  0  0
    3.0700   -1.9196   -1.1396 C   0  0  0  0  0  0  0  0  0  0  0  0
    2.1549   -1.9016   -0.0983 C   0  0  0  0  0  0  0  0  0  0  0  0
    0.8055   -3.0105    0.2361 S   0  0  0  0  0  6  0  0  0  0  0  0
    0.6943   -3.8523   -0.9324 O   0  0  0  0  0  0  0  0  0  0  0  0
    1.0627   -3.5444    1.5521 O   0  0  0  0  0  0  0  0  0  0  0  0
   -0.5804   -2.0690    0.3322 N   0  0  0  0  0  0  0  0  0  0  0  0
   -1.0646   -1.5211   -0.9418 C   0  0  0  0  0  0  0  0  0  0  0  0
   -2.1769   -0.5312   -0.6982 C   0  0  0  0  0  0  0  0  0  0  0  0
   -1.8867    0.7532   -0.2215 C   0  0  0  0  0  0  0  0  0  0  0  0
   -2.9166    1.6641    0.0237 C   0  0  0  0  0  0  0  0  0  0  0  0
   -4.2493    1.3101   -0.1955 C   0  0  0  0  0  0  0  0  0  0  0  0
   -5.1556    2.2951    0.0842 O   0  0  0  0  0  0  0  0  0  0  0  0
   -6.5276    1.9855   -0.1245 C   0  0  0  0  0  0  0  0  0  0  0  0
   -4.5453    0.0293   -0.6617 C   0  0  0  0  0  0  0  0  0  0  0  0
   -3.5157   -0.8869   -0.9083 C   0  0  0  0  0  0  0  0  0  0  0  0
    2.4747   -0.8049    0.6866 N   0  0  0  0  0  0  0  0  0  0  0  0
    1.8126   -0.4056    1.9154 C   0  0  0  0  0  0  0  0  0  0  0  0
    5.1249    3.5356    0.3253 H   0  0  0  0  0  0  0  0  0  0  0  0
    6.2111    2.5605    1.3818 H   0  0  0  0  0  0  0  0  0  0  0  0
    6.6610    2.9039   -0.3003 H   0  0  0  0  0  0  0  0  0  0  0  0
    4.7443   -0.5447   -1.6584 H   0  0  0  0  0  0  0  0  0  0  0  0
    3.0936   -2.6664   -1.9247 H   0  0  0  0  0  0  0  0  0  0  0  0
   -1.3034   -2.5618    0.8565 H   0  0  0  0  0  0  0  0  0  0  0  0
   -1.4319   -2.3344   -1.5782 H   0  0  0  0  0  0  0  0  0  0  0  0
   -0.2574   -1.0134   -1.4815 H   0  0  0  0  0  0  0  0  0  0  0  0
   -0.8576    1.0517   -0.0349 H   0  0  0  0  0  0  0  0  0  0  0  0
   -2.6785    2.6593    0.3919 H   0  0  0  0  0  0  0  0  0  0  0  0
   -6.7254    1.7582   -1.1773 H   0  0  0  0  0  0  0  0  0  0  0  0
   -7.1141    2.8704    0.1407 H   0  0  0  0  0  0  0  0  0  0  0  0
   -6.8503    1.1652    0.5251 H   0  0  0  0  0  0  0  0  0  0  0  0
   -5.5661   -0.2906   -0.8428 H   0  0  0  0  0  0  0  0  0  0  0  0
   -3.7717   -1.8815   -1.2680 H   0  0  0  0  0  0  0  0  0  0  0  0
    1.0674   -1.1338    2.2264 H   0  0  0  0  0  0  0  0  0  0  0  0
    2.5661   -0.3285    2.7036 H   0  0  0  0  0  0  0  0  0  0  0  0
    1.3230    0.5560    1.7413 H   0  0  0  0  0  0  0  0  0  0  0  0
  1  2  1  0
  2  3  1  0
  3  4  2  0
  3  5  1  0
  5  6  2  0
  6  7  1  0
  7  8  2  0
  8  9  1  0
  9 10  2  0
  9 11  2  0
  9 12  1  0
 12 13  1  0
 13 14  1  0
 14 15  2  0
 15 16  1  0
 16 17  2  0
 17 18  1  0
 18 19  1  0
 17 20  1  0
 20 21  2  0
  8 22  1  0
 22 23  1  0
 22  5  1  0
 21 14  1  0
  1 24  1  0
  1 25  1  0
  1 26  1  0
  6 27  1  0
  7 28  1  0
 12 29  1  0
 13 30  1  0
 13 31  1  0
 15 32  1  0
 16 33  1  0
 19 34  1  0
 19 35  1  0
 19 36  1  0
 20 37  1  0
 21 38  1  0
 23 39  1  0
 23 40  1  0
 23 41  1  0
M  END
$$$$
