
     RDKit          3D

 49 51  0  0  0  0  0  0  0  0999 V2000
    4.0567    5.0376    0.7253 C   0  0  0  0  0  0  0  0  0  0  0  0
    4.3209    4.0546   -0.2651 O   0  0  0  0  0  0  0  0  0  0  0  0
    3.2525    3.3595   -0.7761 C   0  0  0  0  0  0  0  0  0  0  0  0
    1.9331    3.4991   -0.3267 C   0  0  0  0  0  0  0  0  0  0  0  0
    0.9088    2.7446   -0.9009 C   0  0  0  0  0  0  0  0  0  0  0  0
    1.2103    1.8424   -1.9208 C   0  0  0  0  0  0  0  0  0  0  0  0
   -0.0821    0.8742   -2.6579 S   0  0  0  0  0  6  0  0  0  0  0  0
   -1.3537    1.3132   -2.1256 O   0  0  0  0  0  0  0  0  0  0  0  0
    0.1678    0.8582   -4.0842 O   0  0  0  0  0  0  0  0  0  0  0  0
    0.2628   -0.6865   -2.0999 N   0  0  0  0  0  0  0  0  0  0  0  0
   -0.2057   -1.0450   -0.8032 C   0  0  0  0  0  0  0  0  0  0  0  0
    0.5274   -0.6925    0.3209 C   0  0  0  0  0  0  0  0  0  0  0  0
    0.0254   -0.9921    1.5826 C   0  0  0  0  0  0  0  0  0  0  0  0
   -1.2067   -1.6573    1.7273 C   0  0  0  0  0  0  0  0  0  0  0  0
   -1.9609   -2.0227    0.5891 C   0  0  0  0  0  0  0  0  0  0  0  0
   -1.4406   -1.6870   -0.6712 C   0  0  0  0  0  0  0  0  0  0  0  0
   -3.2395   -2.6791    0.7435 N   0  0  0  0  0  0  0  0  0  0  0  0
   -3.9483   -3.2215   -0.3401 C   0  0  0  0  0  0  0  0  0  0  0  0
   -5.4202   -3.4916   -0.1173 C   0  0  0  0  0  0  0  0  0  0  0  0
   -3.4639   -3.5075   -1.4363 O   0  0  0  0  0  0  0  0  0  0  0  0
   -3.7902   -2.7384    2.1033 C   0  0  0  0  0  0  0  0  0  0  0  0
   -2.7286   -3.0237    3.1492 C   0  0  0  0  0  0  0  0  0  0  0  0
   -1.6967   -1.9165    3.1273 C   0  0  0  0  0  0  0  0  0  0  0  0
    2.5193    1.6980   -2.3913 C   0  0  0  0  0  0  0  0  0  0  0  0
    3.5465    2.4538   -1.8197 C   0  0  0  0  0  0  0  0  0  0  0  0
    4.8642    2.3781   -2.1984 O   0  0  0  0  0  0  0  0  0  0  0  0
    5.1805    1.5779   -3.3291 C   0  0  0  0  0  0  0  0  0  0  0  0
    3.6550    4.5809    1.6358 H   0  0  0  0  0  0  0  0  0  0  0  0
    5.0066    5.5147    0.9849 H   0  0  0  0  0  0  0  0  0  0  0  0
    3.3877    5.8158    0.3434 H   0  0  0  0  0  0  0  0  0  0  0  0
    1.6698    4.1872    0.4699 H   0  0  0  0  0  0  0  0  0  0  0  0
   -0.1127    2.8622   -0.5444 H   0  0  0  0  0  0  0  0  0  0  0  0
    0.1007   -1.3661   -2.8444 H   0  0  0  0  0  0  0  0  0  0  0  0
    1.4882   -0.1949    0.2294 H   0  0  0  0  0  0  0  0  0  0  0  0
    0.6012   -0.7067    2.4610 H   0  0  0  0  0  0  0  0  0  0  0  0
   -1.9982   -1.8822   -1.5804 H   0  0  0  0  0  0  0  0  0  0  0  0
   -5.5511   -4.4532    0.3852 H   0  0  0  0  0  0  0  0  0  0  0  0
   -5.9256   -3.5332   -1.0876 H   0  0  0  0  0  0  0  0  0  0  0  0
   -5.8882   -2.6873    0.4563 H   0  0  0  0  0  0  0  0  0  0  0  0
   -4.2953   -1.7841    2.2979 H   0  0  0  0  0  0  0  0  0  0  0  0
   -4.5426   -3.5286    2.1764 H   0  0  0  0  0  0  0  0  0  0  0  0
   -3.1815   -3.0942    4.1443 H   0  0  0  0  0  0  0  0  0  0  0  0
   -2.2503   -3.9888    2.9380 H   0  0  0  0  0  0  0  0  0  0  0  0
   -0.8604   -2.1976    3.7783 H   0  0  0  0  0  0  0  0  0  0  0  0
   -2.1303   -0.9892    3.5218 H   0  0  0  0  0  0  0  0  0  0  0  0
    2.7090    0.9916   -3.1930 H   0  0  0  0  0  0  0  0  0  0  0  0
    4.6452    1.9208   -4.2208 H   0  0  0  0  0  0  0  0  0  0  0  0
    6.2522    1.6833   -3.5239 H   0  0  0  0  0  0  0  0  0  0  0  0
    4.9819    0.5200   -3.1294 H   0  0  0  0  0  0  0  0  0  0  0  0
  1  2  1  0
  2  3  1  0
  3  4  2  0
  4  5  1  0
  5  6  2  0
  6  7  1  0
  7  8  2  0
  7  9  2  0
  7 10  1  0
 10 11  1  0
 11 12  2  0
 12 13  1  0
 13 14  2  0
 14 15  1  0
 15 16  2  0
 15 17  1  0
 17 18  1  0
 18 19  1  0
 18 20  2  0
 17 21  1  0
 21 22  1  0
 22 23  1  0
  6 24  1  0
 24 25  2  0
 25 26  1  0
 26 27  1  0
 25  3  1  0
 16 11  1  0
 23 14  1  0
  1 28  1  0
  1 29  1  0
  1 30  1  0
  4 31  1  0
  5 32  1  0
 10 33  1  0
 12 34  1  0
 13 35  1  0
 16 36  1  0
 19 37  1  0
 19 38  1  0
 19 39  1  0
 21 40  1  0
 21 41  1  0
 22 42  1  0
 22 43  1  0
 23 44  1  0
 23 45  1  0
 24 46  1  0
 27 47  1  0
 27 48  1  0
 27 49  1  0
M  END
$$$$
