
     RDKit          3D

 46 48  0  0  0  0  0  0  0  0999 V2000
   -6.0917   -2.9995   -1.5728 C   0  0  0  0  0  0  0  0  0  0  0  0
   -6.4625   -1.6362   -1.4288 O   0  0  0  0  0  0  0  0  0  0  0  0
   -5.6362   -0.8298   -0.6910 C   0  0  0  0  0  0  0  0  0  0  0  0
   -4.4467   -1.2416   -0.0814 C   0  0  0  0  0  0  0  0  0  0  0  0
   -3.6684   -0.3310    0.6477 C   0  0  0  0  0  0  0  0  0  0  0  0
   -2.4243   -0.7837    1.2712 C   0  0  0  0  0  0  0  0  0  0  0  0
   -1.2098   -0.4089    0.8476 C   0  0  0  0  0  0  0  0  0  0  0  0
   -0.8179    0.4769   -0.2943 C   0  0  0  0  0  0  0  0  0  0  0  0
    0.6275    0.0968   -0.6139 C   0  0  0  0  0  0  0  0  0  0  0  0
    1.1645   -0.5006    0.6502 C   0  0  0  0  0  0  0  0  0  0  0  0
    2.4282   -0.6523    1.0703 C   0  0  0  0  0  0  0  0  0  0  0  0
    3.6096   -0.2523    0.3005 C   0  0  0  0  0  0  0  0  0  0  0  0
    3.8586   -0.7795   -0.9740 C   0  0  0  0  0  0  0  0  0  0  0  0
    4.9946   -0.3943   -1.6839 C   0  0  0  0  0  0  0  0  0  0  0  0
    5.8791    0.5088   -1.1097 C   0  0  0  0  0  0  0  0  0  0  0  0
    6.9865    0.8719   -1.8270 O   0  0  0  0  0  0  0  0  0  0  0  0
    5.6620    1.0390    0.1670 C   0  0  0  0  0  0  0  0  0  0  0  0
    6.6247    1.9143    0.6007 O   0  0  0  0  0  0  0  0  0  0  0  0
    6.4471    2.4639    1.9014 C   0  0  0  0  0  0  0  0  0  0  0  0
    4.5223    0.6492    0.8725 C   0  0  0  0  0  0  0  0  0  0  0  0
    0.0218   -0.9115    1.5040 C   0  0  0  0  0  0  0  0  0  0  0  0
    0.0836   -1.5354    2.5457 O   0  0  0  0  0  0  0  0  0  0  0  0
   -4.0880    0.9970    0.7770 C   0  0  0  0  0  0  0  0  0  0  0  0
   -5.2738    1.4185    0.1762 C   0  0  0  0  0  0  0  0  0  0  0  0
   -6.0375    0.5071   -0.5530 C   0  0  0  0  0  0  0  0  0  0  0  0
   -7.2016    0.9197   -1.1461 O   0  0  0  0  0  0  0  0  0  0  0  0
   -6.8580   -3.4926   -2.1789 H   0  0  0  0  0  0  0  0  0  0  0  0
   -6.0592   -3.5051   -0.6022 H   0  0  0  0  0  0  0  0  0  0  0  0
   -5.1378   -3.0954   -2.1017 H   0  0  0  0  0  0  0  0  0  0  0  0
   -4.1003   -2.2668   -0.1633 H   0  0  0  0  0  0  0  0  0  0  0  0
   -2.5339   -1.4686    2.1106 H   0  0  0  0  0  0  0  0  0  0  0  0
   -1.4557    0.3461   -1.1740 H   0  0  0  0  0  0  0  0  0  0  0  0
   -0.8693    1.5261    0.0195 H   0  0  0  0  0  0  0  0  0  0  0  0
    0.6477   -0.6531   -1.4134 H   0  0  0  0  0  0  0  0  0  0  0  0
    1.1934    0.9732   -0.9446 H   0  0  0  0  0  0  0  0  0  0  0  0
    2.6294   -1.0816    2.0508 H   0  0  0  0  0  0  0  0  0  0  0  0
    3.1772   -1.5000   -1.4190 H   0  0  0  0  0  0  0  0  0  0  0  0
    5.1929   -0.7979   -2.6721 H   0  0  0  0  0  0  0  0  0  0  0  0
    7.4707    1.4907   -1.2463 H   0  0  0  0  0  0  0  0  0  0  0  0
    7.2924    3.1296    2.1004 H   0  0  0  0  0  0  0  0  0  0  0  0
    6.4533    1.6800    2.6657 H   0  0  0  0  0  0  0  0  0  0  0  0
    5.5318    3.0626    1.9542 H   0  0  0  0  0  0  0  0  0  0  0  0
    4.3158    1.0353    1.8653 H   0  0  0  0  0  0  0  0  0  0  0  0
   -3.4983    1.7080    1.3512 H   0  0  0  0  0  0  0  0  0  0  0  0
   -5.5858    2.4522    0.2871 H   0  0  0  0  0  0  0  0  0  0  0  0
   -7.3578    1.8512   -0.9278 H   0  0  0  0  0  0  0  0  0  0  0  0
  1  2  1  0
  2  3  1  0
  3  4  2  0
  4  5  1  0
  5  6  1  0
  6  7  2  3
  7  8  1  0
  8  9  1  0
  9 10  1  0
 10 11  2  3
 11 12  1  0
 12 13  2  0
 13 14  1  0
 14 15  2  0
 15 16  1  0
 15 17  1  0
 17 18  1  0
 18 19  1  0
 17 20  2  0
 10 21  1  0
 21 22  2  0
  5 23  2  0
 23 24  1  0
 24 25  2  0
 25 26  1  0
 25  3  1  0
 21  7  1  0
 20 12  1  0
  1 27  1  0
  1 28  1  0
  1 29  1  0
  4 30  1  0
  6 31  1  0
  8 32  1  0
  8 33  1  0
  9 34  1  0
  9 35  1  0
 11 36  1  0
 13 37  1  0
 14 38  1  0
 16 39  1  0
 19 40  1  0
 19 41  1  0
 19 42  1  0
 20 43  1  0
 23 44  1  0
 24 45  1  0
 26 46  1  0
M  END
$$$$
