
     RDKit          3D

 28 28  0  0  0  0  0  0  0  0999 V2000
   -1.7094   -1.8594   -1.0337 C   0  0  0  0  0  0  0  0  0  0  0  0
   -1.8489   -0.8317    0.1051 C   0  0  0  0  0  0  0  0  0  0  0  0
   -2.6661   -1.4623    1.2410 C   0  0  0  0  0  0  0  0  0  0  0  0
   -2.5779    0.3982   -0.4489 C   0  0  0  0  0  0  0  0  0  0  0  0
   -0.4450   -0.4776    0.6464 C   0  0  0  0  0  0  0  0  0  0  0  0
    0.5375   -1.1719    0.3633 O   0  0  0  0  0  0  0  0  0  0  0  0
   -0.2955    0.7042    1.5917 C   0  0  0  0  0  0  0  0  0  0  0  0
    0.2116    2.2018    0.7085 S   0  0  0  0  0  0  0  0  0  0  0  0
    1.8337    1.6846    0.2204 C   0  0  0  0  0  0  0  0  0  0  0  0
    2.1064    1.7009   -1.0947 N   0  0  0  0  0  0  0  0  0  0  0  0
    3.3366    1.2864   -1.4466 C   0  0  0  0  0  0  0  0  0  0  0  0
    4.2890    0.8801   -0.5426 C   0  0  0  0  0  0  0  0  0  0  0  0
    3.9093    0.9241    0.7778 C   0  0  0  0  0  0  0  0  0  0  0  0
    2.6944    1.3296    1.1897 N   0  0  0  0  0  0  0  0  0  0  0  0
   -2.6870   -2.1306   -1.4482 H   0  0  0  0  0  0  0  0  0  0  0  0
   -1.0966   -1.4615   -1.8509 H   0  0  0  0  0  0  0  0  0  0  0  0
   -1.2316   -2.7822   -0.6847 H   0  0  0  0  0  0  0  0  0  0  0  0
   -2.8474   -0.7509    2.0536 H   0  0  0  0  0  0  0  0  0  0  0  0
   -3.6419   -1.8090    0.8827 H   0  0  0  0  0  0  0  0  0  0  0  0
   -2.1414   -2.3217    1.6743 H   0  0  0  0  0  0  0  0  0  0  0  0
   -2.7884    1.1364    0.3318 H   0  0  0  0  0  0  0  0  0  0  0  0
   -1.9839    0.8933   -1.2252 H   0  0  0  0  0  0  0  0  0  0  0  0
   -3.5400    0.1195   -0.8941 H   0  0  0  0  0  0  0  0  0  0  0  0
   -1.2420    0.8973    2.1025 H   0  0  0  0  0  0  0  0  0  0  0  0
    0.4249    0.4426    2.3740 H   0  0  0  0  0  0  0  0  0  0  0  0
    3.5390    1.2893   -2.5135 H   0  0  0  0  0  0  0  0  0  0  0  0
    5.2700    0.5467   -0.8496 H   0  0  0  0  0  0  0  0  0  0  0  0
    4.5906    0.6236    1.5683 H   0  0  0  0  0  0  0  0  0  0  0  0
  1  2  1  0
  2  3  1  0
  2  4  1  0
  2  5  1  0
  5  6  2  0
  5  7  1  0
  7  8  1  0
  8  9  1  0
  9 10  2  0
 10 11  1  0
 11 12  2  0
 12 13  1  0
 13 14  2  0
 14  9  1  0
  1 15  1  0
  1 16  1  0
  1 17  1  0
  3 18  1  0
  3 19  1  0
  3 20  1  0
  4 21  1  0
  4 22  1  0
  4 23  1  0
  7 24  1  0
  7 25  1  0
 11 26  1  0
 12 27  1  0
 13 28  1  0
M  END
$$$$
