
     RDKit          3D

 33 35  0  0  0  0  0  0  0  0999 V2000
    5.0204    1.0075   -1.4283 C   0  0  0  0  0  0  0  0  0  0  0  0
    4.3075    0.3051   -0.3863 N   0  0  0  0  0  0  0  0  0  0  0  0
    4.8511   -0.3845    0.6542 C   0  0  0  0  0  0  0  0  0  0  0  0
    3.7795   -0.8633    1.3796 C   0  0  0  0  0  0  0  0  0  0  0  0
    3.8626   -1.6120    2.5872 N   0  0  0  0  0  4  0  0  0  0  0  0
    3.2763   -1.1476    3.5705 O   0  0  0  0  0  0  0  0  0  0  0  0
    4.5790   -2.6204    2.5617 O   0  0  0  0  0  1  0  0  0  0  0  0
    2.6236   -0.4466    0.6856 C   0  0  0  0  0  0  0  0  0  0  0  0
    1.2155   -0.7538    0.9878 C   0  0  0  0  0  0  0  0  0  0  0  0
    0.9163   -1.5674    1.8492 O   0  0  0  0  0  0  0  0  0  0  0  0
    0.3660   -0.0410    0.1607 N   0  0  0  0  0  0  0  0  0  0  0  0
   -1.0178   -0.0584    0.1391 C   0  0  0  0  0  0  0  0  0  0  0  0
   -1.9131   -1.0141    1.2548 S   0  0  0  0  0  0  0  0  0  0  0  0
   -3.3559   -0.4945    0.5987 C   0  0  0  0  0  0  0  0  0  0  0  0
   -3.2114    0.3812   -0.4395 C   0  0  0  0  0  0  0  0  0  0  0  0
   -1.8526    0.6481   -0.7217 C   0  0  0  0  0  0  0  0  0  0  0  0
   -1.3869    1.5238   -1.7521 C   0  0  0  0  0  0  0  0  0  0  0  0
   -0.9913    2.2310   -2.5830 N   0  0  0  0  0  0  0  0  0  0  0  0
   -4.5325    0.7976   -0.9741 C   0  0  0  0  0  0  0  0  0  0  0  0
   -5.5111    0.3014    0.1376 C   0  0  0  0  0  0  0  0  0  0  0  0
   -4.7628   -0.8107    0.9362 C   0  0  0  0  0  0  0  0  0  0  0  0
    2.9587    0.3021   -0.3927 N   0  0  0  0  0  0  0  0  0  0  0  0
    6.0959    0.8937   -1.2726 H   0  0  0  0  0  0  0  0  0  0  0  0
    4.7444    2.0638   -1.3804 H   0  0  0  0  0  0  0  0  0  0  0  0
    4.7339    0.5768   -2.3909 H   0  0  0  0  0  0  0  0  0  0  0  0
    5.9192   -0.4695    0.8036 H   0  0  0  0  0  0  0  0  0  0  0  0
    0.8522    0.5437   -0.5184 H   0  0  0  0  0  0  0  0  0  0  0  0
   -4.6122    1.8788   -1.1165 H   0  0  0  0  0  0  0  0  0  0  0  0
   -4.7399    0.2886   -1.9212 H   0  0  0  0  0  0  0  0  0  0  0  0
   -5.7334    1.1372    0.8143 H   0  0  0  0  0  0  0  0  0  0  0  0
   -6.4627   -0.0501   -0.2731 H   0  0  0  0  0  0  0  0  0  0  0  0
   -4.9789   -0.7440    2.0058 H   0  0  0  0  0  0  0  0  0  0  0  0
   -5.0394   -1.8025    0.5643 H   0  0  0  0  0  0  0  0  0  0  0  0
  1  2  1  0
  2  3  1  0
  3  4  2  0
  4  5  1  0
  5  6  2  0
  5  7  1  0
  4  8  1  0
  8  9  1  0
  9 10  2  0
  9 11  1  0
 11 12  1  0
 12 13  1  0
 13 14  1  0
 14 15  2  0
 15 16  1  0
 16 17  1  0
 17 18  3  0
 15 19  1  0
 19 20  1  0
 20 21  1  0
  8 22  2  0
 22  2  1  0
 16 12  2  0
 21 14  1  0
  1 23  1  0
  1 24  1  0
  1 25  1  0
  3 26  1  0
 11 27  1  0
 19 28  1  0
 19 29  1  0
 20 30  1  0
 20 31  1  0
 21 32  1  0
 21 33  1  0
M  CHG  2   5   1   7  -1
M  END
$$$$
