
     RDKit          3D

 40 41  0  0  0  0  0  0  0  0999 V2000
   -6.7903    1.2338   -0.4453 C   0  0  0  0  0  0  0  0  0  0  0  0
   -6.1655    2.3263    0.2183 O   0  0  0  0  0  0  0  0  0  0  0  0
   -4.7996    2.3249    0.2668 C   0  0  0  0  0  0  0  0  0  0  0  0
   -4.2377    3.4448    0.8852 C   0  0  0  0  0  0  0  0  0  0  0  0
   -2.8511    3.5749    1.0026 C   0  0  0  0  0  0  0  0  0  0  0  0
   -2.0072    2.5765    0.5030 C   0  0  0  0  0  0  0  0  0  0  0  0
   -0.5379    2.7602    0.6461 C   0  0  0  0  0  0  0  0  0  0  0  0
   -0.0181    3.7947    1.0319 O   0  0  0  0  0  0  0  0  0  0  0  0
    0.1212    1.6240    0.3081 O   0  0  0  0  0  0  0  0  0  0  0  0
    1.5456    1.7439    0.3900 C   0  0  0  0  0  0  0  0  0  0  0  0
    2.2211    0.3946    0.1568 C   0  0  0  0  0  0  0  0  0  0  0  0
    3.4221    0.2772   -0.0846 O   0  0  0  0  0  0  0  0  0  0  0  0
    1.3892   -0.7010    0.2567 N   0  0  0  0  0  0  0  0  0  0  0  0
    1.9269   -2.0475    0.2424 C   0  0  0  0  0  0  0  0  0  0  0  0
    2.5184   -2.4444   -1.1191 C   0  0  0  0  0  0  0  0  0  0  0  0
    3.7071   -3.2568   -0.9709 N   0  0  0  0  0  0  0  0  0  0  0  0
    4.9960   -2.7776   -0.9382 C   0  0  0  0  0  0  0  0  0  0  0  0
    5.2807   -1.4478   -1.0354 O   0  0  0  0  0  0  0  0  0  0  0  0
    5.9325   -3.7212   -0.8014 C   0  0  0  0  0  0  0  0  0  0  0  0
    5.2312   -5.3042   -0.6727 S   0  0  0  0  0  0  0  0  0  0  0  0
    3.5986   -4.6312   -0.8065 C   0  0  0  0  0  0  0  0  0  0  0  0
    2.5772   -5.2965   -0.7448 O   0  0  0  0  0  0  0  0  0  0  0  0
   -2.5690    1.4535   -0.1190 C   0  0  0  0  0  0  0  0  0  0  0  0
   -3.9601    1.3289   -0.2345 C   0  0  0  0  0  0  0  0  0  0  0  0
   -6.4869    1.1850   -1.4967 H   0  0  0  0  0  0  0  0  0  0  0  0
   -7.8713    1.3998   -0.4172 H   0  0  0  0  0  0  0  0  0  0  0  0
   -6.5843    0.2899    0.0706 H   0  0  0  0  0  0  0  0  0  0  0  0
   -4.8868    4.2257    1.2770 H   0  0  0  0  0  0  0  0  0  0  0  0
   -2.4376    4.4589    1.4849 H   0  0  0  0  0  0  0  0  0  0  0  0
    1.8454    2.0923    1.3846 H   0  0  0  0  0  0  0  0  0  0  0  0
    1.8935    2.4339   -0.3867 H   0  0  0  0  0  0  0  0  0  0  0  0
    0.4461   -0.5406    0.5956 H   0  0  0  0  0  0  0  0  0  0  0  0
    2.6869   -2.0967    1.0324 H   0  0  0  0  0  0  0  0  0  0  0  0
    1.1165   -2.7313    0.5178 H   0  0  0  0  0  0  0  0  0  0  0  0
    1.7657   -3.0220   -1.6707 H   0  0  0  0  0  0  0  0  0  0  0  0
    2.7512   -1.5826   -1.7544 H   0  0  0  0  0  0  0  0  0  0  0  0
    4.5304   -0.9160   -0.6930 H   0  0  0  0  0  0  0  0  0  0  0  0
    6.9960   -3.5370   -0.7542 H   0  0  0  0  0  0  0  0  0  0  0  0
   -1.9410    0.6675   -0.5298 H   0  0  0  0  0  0  0  0  0  0  0  0
   -4.3552    0.4435   -0.7225 H   0  0  0  0  0  0  0  0  0  0  0  0
  1  2  1  0
  2  3  1  0
  3  4  2  0
  4  5  1  0
  5  6  2  0
  6  7  1  0
  7  8  2  0
  7  9  1  0
  9 10  1  0
 10 11  1  0
 11 12  2  0
 11 13  1  0
 13 14  1  0
 14 15  1  0
 15 16  1  0
 16 17  1  0
 17 18  1  0
 17 19  2  0
 19 20  1  0
 20 21  1  0
 21 22  2  0
  6 23  1  0
 23 24  2  0
 24  3  1  0
 21 16  1  0
  1 25  1  0
  1 26  1  0
  1 27  1  0
  4 28  1  0
  5 29  1  0
 10 30  1  0
 10 31  1  0
 13 32  1  0
 14 33  1  0
 14 34  1  0
 15 35  1  0
 15 36  1  0
 18 37  1  0
 19 38  1  0
 23 39  1  0
 24 40  1  0
M  END
$$$$
