
     RDKit          3D

 26 27  0  0  0  0  0  0  0  0999 V2000
    0.6846    2.0204   -1.1802 O   0  0  0  0  0  0  0  0  0  0  0  0
    1.2440    1.2437   -0.4121 C   0  0  0  0  0  0  0  0  0  0  0  0
    2.6587    1.4846    0.0678 C   0  0  0  0  0  0  0  0  0  0  0  0
    3.5086    0.2353   -0.1256 C   0  0  0  0  0  0  0  0  0  0  0  0
    2.8977   -0.9733    0.5718 C   0  0  0  0  0  0  0  0  0  0  0  0
    1.4839   -1.2060    0.0854 C   0  0  0  0  0  0  0  0  0  0  0  0
    1.1132   -2.3081   -0.3064 O   0  0  0  0  0  0  0  0  0  0  0  0
    0.5930   -0.0048    0.0922 C   0  0  0  0  0  0  0  0  0  0  0  0
   -0.6496   -0.0157    0.6234 C   0  0  0  0  0  0  0  0  0  0  0  0
   -1.3406   -1.4559    1.3552 S   0  0  0  0  0  0  0  0  0  0  0  0
   -3.1217   -1.2037    1.0770 C   0  0  0  0  0  0  0  0  0  0  0  0
   -3.4135   -0.4983   -0.2410 C   0  0  0  0  0  0  0  0  0  0  0  0
   -3.0234    0.9804   -0.2657 C   0  0  0  0  0  0  0  0  0  0  0  0
   -1.6105    1.4399    0.7817 S   0  0  0  0  0  0  0  0  0  0  0  0
    3.0893    2.3143   -0.5034 H   0  0  0  0  0  0  0  0  0  0  0  0
    2.6225    1.7847    1.1209 H   0  0  0  0  0  0  0  0  0  0  0  0
    3.6009    0.0243   -1.1988 H   0  0  0  0  0  0  0  0  0  0  0  0
    4.5191    0.4125    0.2589 H   0  0  0  0  0  0  0  0  0  0  0  0
    2.8746   -0.8390    1.6589 H   0  0  0  0  0  0  0  0  0  0  0  0
    3.4971   -1.8645    0.3561 H   0  0  0  0  0  0  0  0  0  0  0  0
   -3.5490   -0.6514    1.9212 H   0  0  0  0  0  0  0  0  0  0  0  0
   -3.5900   -2.1935    1.0718 H   0  0  0  0  0  0  0  0  0  0  0  0
   -2.9125   -1.0242   -1.0649 H   0  0  0  0  0  0  0  0  0  0  0  0
   -4.4864   -0.5722   -0.4590 H   0  0  0  0  0  0  0  0  0  0  0  0
   -2.8170    1.2894   -1.2962 H   0  0  0  0  0  0  0  0  0  0  0  0
   -3.8728    1.5809    0.0781 H   0  0  0  0  0  0  0  0  0  0  0  0
  1  2  2  0
  2  3  1  0
  3  4  1  0
  4  5  1  0
  5  6  1  0
  6  7  2  0
  6  8  1  0
  8  9  2  3
  9 10  1  0
 10 11  1  0
 11 12  1  0
 12 13  1  0
 13 14  1  0
  8  2  1  0
 14  9  1  0
  3 15  1  0
  3 16  1  0
  4 17  1  0
  4 18  1  0
  5 19  1  0
  5 20  1  0
 11 21  1  0
 11 22  1  0
 12 23  1  0
 12 24  1  0
 13 25  1  0
 13 26  1  0
M  END
$$$$
