
     RDKit          3D

 29 30  0  0  0  0  0  0  0  0999 V2000
   -3.1808   -1.4412   -0.4626 C   0  0  0  0  0  0  0  0  0  0  0  0
   -2.1985   -0.3488   -0.1472 C   0  0  0  0  0  0  0  0  0  0  0  0
   -1.1032   -0.4643    0.6306 C   0  0  0  0  0  0  0  0  0  0  0  0
   -0.7297   -1.7108    1.3895 C   0  0  0  0  0  0  0  0  0  0  0  0
   -0.1472    0.6992    0.8189 C   0  0  0  0  0  0  0  0  0  0  0  0
    1.2374    0.4388    0.2466 C   0  0  0  0  0  0  0  0  0  0  0  0
    1.4346    0.2764   -1.1352 C   0  0  0  0  0  0  0  0  0  0  0  0
    2.7093    0.0351   -1.6498 C   0  0  0  0  0  0  0  0  0  0  0  0
    3.8034   -0.0479   -0.7916 C   0  0  0  0  0  0  0  0  0  0  0  0
    3.6249    0.1106    0.5811 C   0  0  0  0  0  0  0  0  0  0  0  0
    2.3506    0.3527    1.0984 C   0  0  0  0  0  0  0  0  0  0  0  0
   -0.6848    1.9301    0.2775 N   0  0  0  0  0  0  0  0  0  0  0  0
   -1.7486    1.9992   -0.5539 C   0  0  0  0  0  0  0  0  0  0  0  0
   -2.1733    3.4242   -1.2954 S   0  0  0  0  0  0  0  0  0  0  0  0
   -2.4649    0.8612   -0.7437 N   0  0  0  0  0  0  0  0  0  0  0  0
   -3.4289   -1.4357   -1.5303 H   0  0  0  0  0  0  0  0  0  0  0  0
   -4.1058   -1.2920    0.1037 H   0  0  0  0  0  0  0  0  0  0  0  0
   -2.7975   -2.4403   -0.2418 H   0  0  0  0  0  0  0  0  0  0  0  0
   -1.5572   -2.4177    1.4875 H   0  0  0  0  0  0  0  0  0  0  0  0
    0.1023   -2.2247    0.8981 H   0  0  0  0  0  0  0  0  0  0  0  0
   -0.4238   -1.4562    2.4104 H   0  0  0  0  0  0  0  0  0  0  0  0
   -0.0578    0.8956    1.8953 H   0  0  0  0  0  0  0  0  0  0  0  0
    0.5893    0.3399   -1.8181 H   0  0  0  0  0  0  0  0  0  0  0  0
    2.8468   -0.0864   -2.7211 H   0  0  0  0  0  0  0  0  0  0  0  0
    4.7958   -0.2349   -1.1935 H   0  0  0  0  0  0  0  0  0  0  0  0
    4.4796    0.0466    1.2497 H   0  0  0  0  0  0  0  0  0  0  0  0
    2.2337    0.4734    2.1731 H   0  0  0  0  0  0  0  0  0  0  0  0
   -0.1282    2.7690    0.3685 H   0  0  0  0  0  0  0  0  0  0  0  0
   -3.2775    0.9486   -1.3449 H   0  0  0  0  0  0  0  0  0  0  0  0
  1  2  1  0
  2  3  2  0
  3  4  1  0
  3  5  1  0
  5  6  1  0
  6  7  2  0
  7  8  1  0
  8  9  2  0
  9 10  1  0
 10 11  2  0
  5 12  1  0
 12 13  1  0
 13 14  2  0
 13 15  1  0
 15  2  1  0
 11  6  1  0
  1 16  1  0
  1 17  1  0
  1 18  1  0
  4 19  1  0
  4 20  1  0
  4 21  1  0
  5 22  1  0
  7 23  1  0
  8 24  1  0
  9 25  1  0
 10 26  1  0
 11 27  1  0
 12 28  1  0
 15 29  1  0
M  END
$$$$
