
     RDKit          3D

 43 45  0  0  0  0  0  0  0  0999 V2000
    1.8330   -1.0192   -2.0171 O   0  0  0  0  0  0  0  0  0  0  0  0
    2.0531   -0.2977   -1.0469 C   0  0  0  0  0  0  0  0  0  0  0  0
    3.4725    0.1700   -0.7454 C   0  0  0  0  0  0  0  0  0  0  0  0
    3.8481    0.0573    1.0413 S   0  0  0  0  0  0  0  0  0  0  0  0
    5.6144    0.3244    1.0183 C   0  0  0  0  0  0  0  0  0  0  0  0
    6.4277   -0.5683    1.7275 C   0  0  0  0  0  0  0  0  0  0  0  0
    7.8158   -0.3985    1.7529 C   0  0  0  0  0  0  0  0  0  0  0  0
    8.4042    0.6700    1.0769 C   0  0  0  0  0  0  0  0  0  0  0  0
    7.6040    1.5723    0.3794 C   0  0  0  0  0  0  0  0  0  0  0  0
    6.2213    1.3981    0.3575 C   0  0  0  0  0  0  0  0  0  0  0  0
    5.4816    2.3003   -0.3051 F   0  0  0  0  0  0  0  0  0  0  0  0
    1.1018    0.2317   -0.1911 N   0  0  0  0  0  0  0  0  0  0  0  0
   -0.2943    0.0597   -0.2328 C   0  0  0  0  0  0  0  0  0  0  0  0
   -1.0431    0.6367    0.7927 C   0  0  0  0  0  0  0  0  0  0  0  0
   -2.4405    0.5126    0.8183 C   0  0  0  0  0  0  0  0  0  0  0  0
   -3.1441   -0.1877   -0.1717 C   0  0  0  0  0  0  0  0  0  0  0  0
   -4.5202   -0.3114   -0.1421 N   0  0  0  0  0  0  0  0  0  0  0  0
   -5.2299   -1.3422   -0.9168 C   0  0  0  0  0  0  0  0  0  0  0  0
   -6.5742   -1.6733   -0.2458 C   0  0  0  0  0  0  0  0  0  0  0  0
   -7.4566   -0.5498   -0.1126 O   0  0  0  0  0  0  0  0  0  0  0  0
   -6.7657    0.7029   -0.0105 C   0  0  0  0  0  0  0  0  0  0  0  0
   -5.3734    0.6007    0.6360 C   0  0  0  0  0  0  0  0  0  0  0  0
   -2.3674   -0.7572   -1.1914 C   0  0  0  0  0  0  0  0  0  0  0  0
   -0.9683   -0.6376   -1.2279 C   0  0  0  0  0  0  0  0  0  0  0  0
    4.1696   -0.4678   -1.2986 H   0  0  0  0  0  0  0  0  0  0  0  0
    3.5665    1.2006   -1.0984 H   0  0  0  0  0  0  0  0  0  0  0  0
    5.9890   -1.4068    2.2650 H   0  0  0  0  0  0  0  0  0  0  0  0
    8.4367   -1.1014    2.3040 H   0  0  0  0  0  0  0  0  0  0  0  0
    9.4834    0.8015    1.0990 H   0  0  0  0  0  0  0  0  0  0  0  0
    8.0460    2.4146   -0.1438 H   0  0  0  0  0  0  0  0  0  0  0  0
    1.4691    0.7461    0.6026 H   0  0  0  0  0  0  0  0  0  0  0  0
   -0.5595    1.1877    1.5950 H   0  0  0  0  0  0  0  0  0  0  0  0
   -2.9671    0.9618    1.6556 H   0  0  0  0  0  0  0  0  0  0  0  0
   -4.6470   -2.2686   -0.9734 H   0  0  0  0  0  0  0  0  0  0  0  0
   -5.4020   -0.9687   -1.9328 H   0  0  0  0  0  0  0  0  0  0  0  0
   -7.1031   -2.4396   -0.8216 H   0  0  0  0  0  0  0  0  0  0  0  0
   -6.4050   -2.0797    0.7586 H   0  0  0  0  0  0  0  0  0  0  0  0
   -6.6835    1.1178   -1.0223 H   0  0  0  0  0  0  0  0  0  0  0  0
   -7.4004    1.3814    0.5685 H   0  0  0  0  0  0  0  0  0  0  0  0
   -4.9474    1.6098    0.6740 H   0  0  0  0  0  0  0  0  0  0  0  0
   -5.4638    0.2161    1.6585 H   0  0  0  0  0  0  0  0  0  0  0  0
   -2.8372   -1.2975   -2.0089 H   0  0  0  0  0  0  0  0  0  0  0  0
   -0.4441   -1.1011   -2.0575 H   0  0  0  0  0  0  0  0  0  0  0  0
  1  2  2  0
  2  3  1  0
  3  4  1  0
  4  5  1  0
  5  6  2  0
  6  7  1  0
  7  8  2  0
  8  9  1  0
  9 10  2  0
 10 11  1  0
  2 12  1  0
 12 13  1  0
 13 14  2  0
 14 15  1  0
 15 16  2  0
 16 17  1  0
 17 18  1  0
 18 19  1  0
 19 20  1  0
 20 21  1  0
 21 22  1  0
 16 23  1  0
 23 24  2  0
 10  5  1  0
 24 13  1  0
 22 17  1  0
  3 25  1  0
  3 26  1  0
  6 27  1  0
  7 28  1  0
  8 29  1  0
  9 30  1  0
 12 31  1  0
 14 32  1  0
 15 33  1  0
 18 34  1  0
 18 35  1  0
 19 36  1  0
 19 37  1  0
 21 38  1  0
 21 39  1  0
 22 40  1  0
 22 41  1  0
 23 42  1  0
 24 43  1  0
M  END
$$$$
