
     RDKit          3D

 55 60  0  0  0  0  0  0  0  0999 V2000
   -4.5835    0.2993    2.1664 O   0  0  0  0  0  0  0  0  0  0  0  0
   -4.0862    0.7076    1.1184 C   0  0  0  0  0  0  0  0  0  0  0  0
   -4.7494    1.7670    0.3711 C   0  0  0  0  0  0  0  0  0  0  0  0
   -5.5227    2.8403    0.9066 C   0  0  0  0  0  0  0  0  0  0  0  0
   -5.9863    3.5676   -0.1630 C   0  0  0  0  0  0  0  0  0  0  0  0
   -5.5786    3.0035   -1.3277 O   0  0  0  0  0  0  0  0  0  0  0  0
   -4.8530    1.9036   -0.9992 C   0  0  0  0  0  0  0  0  0  0  0  0
   -2.8922    0.1751    0.6193 N   0  0  0  0  0  0  0  0  0  0  0  0
   -2.0115    0.8737   -0.3157 C   0  0  0  0  0  0  0  0  0  0  0  0
   -0.5402    0.5784   -0.0284 C   0  0  0  0  0  0  0  0  0  0  0  0
   -0.2196   -0.9356   -0.1670 C   0  0  0  0  0  0  0  0  0  0  0  0
   -1.4153   -1.7749    0.3840 C   0  0  0  0  0  0  0  0  0  0  0  0
   -2.3271   -0.9791    1.3101 C   0  0  0  0  0  0  0  0  0  0  0  0
   -0.1240   -1.1494   -1.6023 O   0  0  0  0  0  0  0  0  0  0  0  0
    0.3801   -2.3561   -1.9979 C   0  0  0  0  0  0  0  0  0  0  0  0
    0.1120   -2.7314   -3.3153 C   0  0  0  0  0  0  0  0  0  0  0  0
    0.5738   -3.9570   -3.7976 C   0  0  0  0  0  0  0  0  0  0  0  0
    1.3047   -4.7947   -2.9609 C   0  0  0  0  0  0  0  0  0  0  0  0
    1.7451   -5.9691   -3.4287 F   0  0  0  0  0  0  0  0  0  0  0  0
    1.5922   -4.4275   -1.6528 C   0  0  0  0  0  0  0  0  0  0  0  0
    1.1330   -3.1961   -1.1781 C   0  0  0  0  0  0  0  0  0  0  0  0
    1.4631   -2.7535    0.1888 C   0  0  0  0  0  0  0  0  0  0  0  0
    2.0153   -3.5322    0.9591 O   0  0  0  0  0  0  0  0  0  0  0  0
    1.1304   -1.3004    0.5141 C   0  0  0  0  0  0  0  0  0  0  0  0
    2.3327   -0.4550    0.1108 C   0  0  0  0  0  0  0  0  0  0  0  0
    2.4683    0.3765    1.3381 C   0  0  0  0  0  0  0  0  0  0  0  0
    3.3732    1.5480    1.3953 C   0  0  0  0  0  0  0  0  0  0  0  0
    3.3684    2.3526    2.5416 C   0  0  0  0  0  0  0  0  0  0  0  0
    4.2049    3.4673    2.6223 C   0  0  0  0  0  0  0  0  0  0  0  0
    5.0507    3.7820    1.5604 C   0  0  0  0  0  0  0  0  0  0  0  0
    5.0633    2.9823    0.4182 C   0  0  0  0  0  0  0  0  0  0  0  0
    4.2274    1.8656    0.3330 C   0  0  0  0  0  0  0  0  0  0  0  0
    1.7368   -0.0033    2.3357 N   0  0  0  0  0  0  0  0  0  0  0  0
    1.0214   -1.1534    1.9339 O   0  0  0  0  0  0  0  0  0  0  0  0
   -5.7093    3.0452    1.9522 H   0  0  0  0  0  0  0  0  0  0  0  0
   -6.5963    4.4551   -0.2593 H   0  0  0  0  0  0  0  0  0  0  0  0
   -4.4961    1.3242   -1.8388 H   0  0  0  0  0  0  0  0  0  0  0  0
   -2.2734    0.5448   -1.3272 H   0  0  0  0  0  0  0  0  0  0  0  0
   -2.1767    1.9536   -0.2488 H   0  0  0  0  0  0  0  0  0  0  0  0
   -0.3200    0.9384    0.9823 H   0  0  0  0  0  0  0  0  0  0  0  0
    0.0684    1.1652   -0.7268 H   0  0  0  0  0  0  0  0  0  0  0  0
   -2.0201   -2.1512   -0.4523 H   0  0  0  0  0  0  0  0  0  0  0  0
   -1.0647   -2.6622    0.9232 H   0  0  0  0  0  0  0  0  0  0  0  0
   -3.1382   -1.6231    1.6686 H   0  0  0  0  0  0  0  0  0  0  0  0
   -1.7845   -0.6181    2.1917 H   0  0  0  0  0  0  0  0  0  0  0  0
   -0.4665   -2.0777   -3.9638 H   0  0  0  0  0  0  0  0  0  0  0  0
    0.3658   -4.2662   -4.8178 H   0  0  0  0  0  0  0  0  0  0  0  0
    2.1743   -5.0945   -1.0228 H   0  0  0  0  0  0  0  0  0  0  0  0
    3.2496   -1.0409   -0.0179 H   0  0  0  0  0  0  0  0  0  0  0  0
    2.1643    0.1463   -0.7853 H   0  0  0  0  0  0  0  0  0  0  0  0
    2.7157    2.1168    3.3803 H   0  0  0  0  0  0  0  0  0  0  0  0
    4.1973    4.0868    3.5158 H   0  0  0  0  0  0  0  0  0  0  0  0
    5.7039    4.6489    1.6256 H   0  0  0  0  0  0  0  0  0  0  0  0
    5.7296    3.2278   -0.4056 H   0  0  0  0  0  0  0  0  0  0  0  0
    4.2695    1.2588   -0.5661 H   0  0  0  0  0  0  0  0  0  0  0  0
  1  2  2  0
  2  3  1  0
  3  4  1  0
  4  5  2  0
  5  6  1  0
  6  7  1  0
  2  8  1  0
  8  9  1  0
  9 10  1  0
 10 11  1  0
 11 12  1  0
 12 13  1  0
 11 14  1  0
 14 15  1  0
 15 16  2  0
 16 17  1  0
 17 18  2  0
 18 19  1  0
 18 20  1  0
 20 21  2  0
 21 22  1  0
 22 23  2  0
 22 24  1  0
 24 25  1  0
 25 26  1  0
 26 27  1  0
 27 28  2  0
 28 29  1  0
 29 30  2  0
 30 31  1  0
 31 32  2  0
 26 33  2  0
 33 34  1  0
  7  3  2  0
 13  8  1  0
 21 15  1  0
 34 24  1  0
 24 11  1  0
 32 27  1  0
  4 35  1  0
  5 36  1  0
  7 37  1  0
  9 38  1  0
  9 39  1  0
 10 40  1  0
 10 41  1  0
 12 42  1  0
 12 43  1  0
 13 44  1  0
 13 45  1  0
 16 46  1  0
 17 47  1  0
 20 48  1  0
 25 49  1  0
 25 50  1  0
 28 51  1  0
 29 52  1  0
 30 53  1  0
 31 54  1  0
 32 55  1  0
M  END
$$$$
