
     RDKit          3D

 32 34  0  0  0  0  0  0  0  0999 V2000
    5.0742   -0.3863    1.1733 C   0  0  0  0  0  0  0  0  0  0  0  0
    4.4084    0.1160   -0.0929 C   0  0  0  0  0  0  0  0  0  0  0  0
    2.9914    0.0121    0.0762 O   0  0  0  0  0  0  0  0  0  0  0  0
    2.2762    0.4167   -1.0056 C   0  0  0  0  0  0  0  0  0  0  0  0
    2.7290    0.8687   -2.0474 O   0  0  0  0  0  0  0  0  0  0  0  0
    0.8446    0.2426   -0.7257 C   0  0  0  0  0  0  0  0  0  0  0  0
    0.0756    1.3438   -0.5782 C   0  0  0  0  0  0  0  0  0  0  0  0
    0.5914    2.6215   -0.6707 O   0  0  0  0  0  0  0  0  0  0  0  0
   -1.3648    1.2098   -0.2983 C   0  0  0  0  0  0  0  0  0  0  0  0
   -2.2940    2.2249   -0.0625 C   0  0  0  0  0  0  0  0  0  0  0  0
   -3.6484    1.9097    0.1945 C   0  0  0  0  0  0  0  0  0  0  0  0
   -4.0977    0.5806    0.2306 C   0  0  0  0  0  0  0  0  0  0  0  0
   -3.1748   -0.4217    0.0156 C   0  0  0  0  0  0  0  0  0  0  0  0
   -1.8553   -0.0813   -0.2362 C   0  0  0  0  0  0  0  0  0  0  0  0
   -1.0683   -1.2074   -0.4029 N   0  0  0  0  0  0  0  0  0  0  0  0
    0.2814   -1.1430   -0.6366 C   0  0  0  0  0  0  0  0  0  0  0  0
    0.9811   -2.1414   -0.7800 O   0  0  0  0  0  0  0  0  0  0  0  0
   -1.8934   -2.4054   -0.2585 C   0  0  0  0  0  0  0  0  0  0  0  0
   -3.3372   -1.9116    0.0082 C   0  0  0  0  0  0  0  0  0  0  0  0
    4.7911   -1.4253    1.3714 H   0  0  0  0  0  0  0  0  0  0  0  0
    6.1631   -0.3261    1.0919 H   0  0  0  0  0  0  0  0  0  0  0  0
    4.7510    0.2023    2.0383 H   0  0  0  0  0  0  0  0  0  0  0  0
    4.7263   -0.4953   -0.9451 H   0  0  0  0  0  0  0  0  0  0  0  0
    4.6845    1.1623   -0.2658 H   0  0  0  0  0  0  0  0  0  0  0  0
   -0.0888    3.2086   -1.0405 H   0  0  0  0  0  0  0  0  0  0  0  0
   -2.0003    3.2706   -0.0536 H   0  0  0  0  0  0  0  0  0  0  0  0
   -4.3570    2.7165    0.3759 H   0  0  0  0  0  0  0  0  0  0  0  0
   -5.1401    0.3546    0.4327 H   0  0  0  0  0  0  0  0  0  0  0  0
   -1.5067   -3.0067    0.5717 H   0  0  0  0  0  0  0  0  0  0  0  0
   -1.8255   -3.0013   -1.1751 H   0  0  0  0  0  0  0  0  0  0  0  0
   -4.0131   -2.2311   -0.7909 H   0  0  0  0  0  0  0  0  0  0  0  0
   -3.7037   -2.2776    0.9719 H   0  0  0  0  0  0  0  0  0  0  0  0
  1  2  1  0
  2  3  1  0
  3  4  1  0
  4  5  2  0
  4  6  1  0
  6  7  2  0
  7  8  1  0
  7  9  1  0
  9 10  2  0
 10 11  1  0
 11 12  2  0
 12 13  1  0
 13 14  2  0
 14 15  1  0
 15 16  1  0
 16 17  2  0
 15 18  1  0
 18 19  1  0
 16  6  1  0
 14  9  1  0
 19 13  1  0
  1 20  1  0
  1 21  1  0
  1 22  1  0
  2 23  1  0
  2 24  1  0
  8 25  1  0
 10 26  1  0
 11 27  1  0
 12 28  1  0
 18 29  1  0
 18 30  1  0
 19 31  1  0
 19 32  1  0
M  END
$$$$
