
     RDKit          3D

 38 39  0  0  0  0  0  0  0  0999 V2000
    0.8412    2.0953   -0.8203 C   0  0  0  0  0  0  0  0  0  0  0  0
    0.5950    2.1033    0.6744 C   0  0  0  0  0  0  0  0  0  0  0  0
    1.7592    2.1470    1.6048 C   0  0  0  0  0  0  0  0  0  0  0  0
    2.9057    1.4559    1.5166 C   0  0  0  0  0  0  0  0  0  0  0  0
    3.2670    0.4383    0.5254 C   0  0  0  0  0  0  0  0  0  0  0  0
    2.4377   -0.6603    0.2702 C   0  0  0  0  0  0  0  0  0  0  0  0
    2.8177   -1.6315   -0.6586 C   0  0  0  0  0  0  0  0  0  0  0  0
    4.0351   -1.5196   -1.3276 C   0  0  0  0  0  0  0  0  0  0  0  0
    4.8754   -0.4388   -1.0663 C   0  0  0  0  0  0  0  0  0  0  0  0
    4.4954    0.5340   -0.1388 C   0  0  0  0  0  0  0  0  0  0  0  0
   -0.5924    2.1344    1.2179 N   0  0  0  0  0  0  0  0  0  0  0  0
   -1.6514    2.0743    0.3495 N   0  0  0  0  0  0  0  0  0  0  0  0
   -2.2654    0.8106    0.1646 C   0  0  0  0  0  0  0  0  0  0  0  0
   -1.5355   -0.3208    0.1654 N   0  0  0  0  0  0  0  0  0  0  0  0
   -2.1885   -1.4843   -0.0189 C   0  0  0  0  0  0  0  0  0  0  0  0
   -1.3732   -2.7414   -0.0109 C   0  0  0  0  0  0  0  0  0  0  0  0
   -3.5515   -1.5425   -0.2197 C   0  0  0  0  0  0  0  0  0  0  0  0
   -4.2244   -0.3392   -0.2148 C   0  0  0  0  0  0  0  0  0  0  0  0
   -5.7080   -0.3021   -0.4244 C   0  0  0  0  0  0  0  0  0  0  0  0
   -3.5966    0.8381   -0.0251 N   0  0  0  0  0  0  0  0  0  0  0  0
    0.5823    1.1193   -1.2378 H   0  0  0  0  0  0  0  0  0  0  0  0
    1.8829    2.3251   -1.0565 H   0  0  0  0  0  0  0  0  0  0  0  0
    0.2259    2.8629   -1.2998 H   0  0  0  0  0  0  0  0  0  0  0  0
    1.6032    2.8039    2.4565 H   0  0  0  0  0  0  0  0  0  0  0  0
    3.6623    1.6206    2.2819 H   0  0  0  0  0  0  0  0  0  0  0  0
    1.4851   -0.7647    0.7873 H   0  0  0  0  0  0  0  0  0  0  0  0
    2.1614   -2.4740   -0.8581 H   0  0  0  0  0  0  0  0  0  0  0  0
    4.3297   -2.2757   -2.0505 H   0  0  0  0  0  0  0  0  0  0  0  0
    5.8270   -0.3525   -1.5841 H   0  0  0  0  0  0  0  0  0  0  0  0
    5.1623    1.3711    0.0540 H   0  0  0  0  0  0  0  0  0  0  0  0
   -2.4477    2.6534    0.6156 H   0  0  0  0  0  0  0  0  0  0  0  0
   -1.7630   -3.4425    0.7338 H   0  0  0  0  0  0  0  0  0  0  0  0
   -1.3988   -3.2137   -0.9978 H   0  0  0  0  0  0  0  0  0  0  0  0
   -0.3299   -2.5289    0.2401 H   0  0  0  0  0  0  0  0  0  0  0  0
   -4.0655   -2.4829   -0.3717 H   0  0  0  0  0  0  0  0  0  0  0  0
   -6.2154   -0.8732    0.3594 H   0  0  0  0  0  0  0  0  0  0  0  0
   -5.9630   -0.7258   -1.4008 H   0  0  0  0  0  0  0  0  0  0  0  0
   -6.0810    0.7267   -0.3917 H   0  0  0  0  0  0  0  0  0  0  0  0
  1  2  1  0
  2  3  1  0
  3  4  2  3
  4  5  1  0
  5  6  2  0
  6  7  1  0
  7  8  2  0
  8  9  1  0
  9 10  2  0
  2 11  2  3
 11 12  1  0
 12 13  1  0
 13 14  2  0
 14 15  1  0
 15 16  1  0
 15 17  2  0
 17 18  1  0
 18 19  1  0
 18 20  2  0
 10  5  1  0
 20 13  1  0
  1 21  1  0
  1 22  1  0
  1 23  1  0
  3 24  1  0
  4 25  1  0
  6 26  1  0
  7 27  1  0
  8 28  1  0
  9 29  1  0
 10 30  1  0
 12 31  1  0
 16 32  1  0
 16 33  1  0
 16 34  1  0
 17 35  1  0
 19 36  1  0
 19 37  1  0
 19 38  1  0
M  END
$$$$
