
     RDKit          3D

 62 67  0  0  0  0  0  0  0  0999 V2000
   -2.2399   -3.4373   -0.5922 C   0  0  0  0  0  0  0  0  0  0  0  0
   -2.7900   -2.3585    0.1504 O   0  0  0  0  0  0  0  0  0  0  0  0
   -2.4837   -2.2949    1.4872 C   0  0  0  0  0  0  0  0  0  0  0  0
   -1.9045   -3.3446    2.2107 C   0  0  0  0  0  0  0  0  0  0  0  0
   -1.6408   -3.2061    3.5764 C   0  0  0  0  0  0  0  0  0  0  0  0
   -1.9559   -2.0213    4.2344 C   0  0  0  0  0  0  0  0  0  0  0  0
   -2.5376   -0.9707    3.5270 C   0  0  0  0  0  0  0  0  0  0  0  0
   -2.8093   -1.0954    2.1535 C   0  0  0  0  0  0  0  0  0  0  0  0
   -3.4011    0.0463    1.4400 C   0  0  0  0  0  0  0  0  0  0  0  0
   -5.0564    0.3893    1.6904 S   0  0  0  0  0  0  0  0  0  0  0  0
   -5.0393    1.7237    0.6061 C   0  0  0  0  0  0  0  0  0  0  0  0
   -6.1365    2.5528    0.2841 C   0  0  0  0  0  0  0  0  0  0  0  0
   -5.8971    3.5737   -0.6122 C   0  0  0  0  0  0  0  0  0  0  0  0
   -4.6654    3.7843   -1.1683 C   0  0  0  0  0  0  0  0  0  0  0  0
   -3.5791    2.9863   -0.8677 C   0  0  0  0  0  0  0  0  0  0  0  0
   -3.7644    1.9140    0.0491 C   0  0  0  0  0  0  0  0  0  0  0  0
   -2.8239    0.9322    0.5450 C   0  0  0  0  0  0  0  0  0  0  0  0
   -1.4178    0.8332    0.1695 C   0  0  0  0  0  0  0  0  0  0  0  0
   -1.0659    0.3713   -1.1031 C   0  0  0  0  0  0  0  0  0  0  0  0
    0.2796    0.2747   -1.4746 C   0  0  0  0  0  0  0  0  0  0  0  0
    1.2818    0.6414   -0.5760 C   0  0  0  0  0  0  0  0  0  0  0  0
    2.6279    0.5951   -0.8089 O   0  0  0  0  0  0  0  0  0  0  0  0
    3.0561    0.0518   -2.0599 C   0  0  0  0  0  0  0  0  0  0  0  0
    4.5968    0.0161   -2.1064 C   0  0  0  0  0  0  0  0  0  0  0  0
    5.2017   -1.1565   -1.4421 N   0  0  0  0  0  0  0  0  0  0  0  0
    4.8794   -1.2027    0.0031 C   0  0  0  0  0  0  0  0  0  0  0  0
    5.8977   -2.0429    0.7893 C   0  0  0  0  0  0  0  0  0  0  0  0
    7.2222   -1.4912    0.7511 O   0  0  0  0  0  0  0  0  0  0  0  0
    7.4756   -0.7244   -0.4335 C   0  0  0  0  0  0  0  0  0  0  0  0
    6.6665   -1.2077   -1.6474 C   0  0  0  0  0  0  0  0  0  0  0  0
    0.9269    1.1099    0.6921 C   0  0  0  0  0  0  0  0  0  0  0  0
   -0.4151    1.2076    1.0669 C   0  0  0  0  0  0  0  0  0  0  0  0
   -4.6527    4.8434   -2.0224 O   0  0  0  0  0  0  0  0  0  0  0  0
   -6.0252    5.2776   -1.9359 C   0  0  0  0  0  0  0  0  0  0  0  0
   -6.8230    4.4737   -1.0432 O   0  0  0  0  0  0  0  0  0  0  0  0
   -2.4669   -3.2649   -1.6486 H   0  0  0  0  0  0  0  0  0  0  0  0
   -2.7027   -4.3865   -0.3041 H   0  0  0  0  0  0  0  0  0  0  0  0
   -1.1503   -3.4792   -0.4896 H   0  0  0  0  0  0  0  0  0  0  0  0
   -1.6539   -4.2902    1.7419 H   0  0  0  0  0  0  0  0  0  0  0  0
   -1.1916   -4.0289    4.1271 H   0  0  0  0  0  0  0  0  0  0  0  0
   -1.7512   -1.9149    5.2965 H   0  0  0  0  0  0  0  0  0  0  0  0
   -2.7770   -0.0471    4.0495 H   0  0  0  0  0  0  0  0  0  0  0  0
   -7.1161    2.3952    0.7194 H   0  0  0  0  0  0  0  0  0  0  0  0
   -2.6114    3.1778   -1.3196 H   0  0  0  0  0  0  0  0  0  0  0  0
   -1.8391    0.0722   -1.8075 H   0  0  0  0  0  0  0  0  0  0  0  0
    0.5064   -0.0909   -2.4701 H   0  0  0  0  0  0  0  0  0  0  0  0
    2.6558   -0.9587   -2.2093 H   0  0  0  0  0  0  0  0  0  0  0  0
    2.7054    0.7049   -2.8685 H   0  0  0  0  0  0  0  0  0  0  0  0
    5.0057    0.9448   -1.6887 H   0  0  0  0  0  0  0  0  0  0  0  0
    4.8753   -0.0245   -3.1668 H   0  0  0  0  0  0  0  0  0  0  0  0
    4.8818   -0.1905    0.4281 H   0  0  0  0  0  0  0  0  0  0  0  0
    3.8809   -1.6319    0.1381 H   0  0  0  0  0  0  0  0  0  0  0  0
    5.9417   -3.0675    0.4014 H   0  0  0  0  0  0  0  0  0  0  0  0
    5.6009   -2.1065    1.8412 H   0  0  0  0  0  0  0  0  0  0  0  0
    8.5474   -0.7956   -0.6444 H   0  0  0  0  0  0  0  0  0  0  0  0
    7.2572    0.3272   -0.2143 H   0  0  0  0  0  0  0  0  0  0  0  0
    6.9704   -0.6560   -2.5448 H   0  0  0  0  0  0  0  0  0  0  0  0
    6.9224   -2.2586   -1.8331 H   0  0  0  0  0  0  0  0  0  0  0  0
    1.7028    1.3995    1.3964 H   0  0  0  0  0  0  0  0  0  0  0  0
   -0.6684    1.5735    2.0585 H   0  0  0  0  0  0  0  0  0  0  0  0
   -6.0433    6.3157   -1.5844 H   0  0  0  0  0  0  0  0  0  0  0  0
   -6.4700    5.2374   -2.9370 H   0  0  0  0  0  0  0  0  0  0  0  0
  1  2  1  0
  2  3  1  0
  3  4  2  0
  4  5  1  0
  5  6  2  0
  6  7  1  0
  7  8  2  0
  8  9  1  0
  9 10  1  0
 10 11  1  0
 11 12  2  0
 12 13  1  0
 13 14  2  0
 14 15  1  0
 15 16  2  0
 16 17  1  0
 17 18  1  0
 18 19  2  0
 19 20  1  0
 20 21  2  0
 21 22  1  0
 22 23  1  0
 23 24  1  0
 24 25  1  0
 25 26  1  0
 26 27  1  0
 27 28  1  0
 28 29  1  0
 29 30  1  0
 21 31  1  0
 31 32  2  0
 14 33  1  0
 33 34  1  0
 34 35  1  0
  8  3  1  0
 17  9  2  0
 32 18  1  0
 16 11  1  0
 30 25  1  0
 35 13  1  0
  1 36  1  0
  1 37  1  0
  1 38  1  0
  4 39  1  0
  5 40  1  0
  6 41  1  0
  7 42  1  0
 12 43  1  0
 15 44  1  0
 19 45  1  0
 20 46  1  0
 23 47  1  0
 23 48  1  0
 24 49  1  0
 24 50  1  0
 26 51  1  0
 26 52  1  0
 27 53  1  0
 27 54  1  0
 29 55  1  0
 29 56  1  0
 30 57  1  0
 30 58  1  0
 31 59  1  0
 32 60  1  0
 34 61  1  0
 34 62  1  0
M  END
$$$$
