
     RDKit          3D

 59 62  0  0  0  0  0  0  0  0999 V2000
   -5.1566   -2.5538    2.6656 C   0  0  0  0  0  0  0  0  0  0  0  0
   -5.7096   -1.3023    2.0050 C   0  0  0  0  0  0  0  0  0  0  0  0
   -5.2078   -1.1347    0.6498 N   0  0  0  0  0  0  0  0  0  0  0  0
   -5.8329   -1.6131   -0.4849 C   0  0  0  0  0  0  0  0  0  0  0  0
   -7.0261   -2.3334   -0.6515 C   0  0  0  0  0  0  0  0  0  0  0  0
   -7.4121   -2.6887   -1.9481 C   0  0  0  0  0  0  0  0  0  0  0  0
   -6.6353   -2.3387   -3.0459 C   0  0  0  0  0  0  0  0  0  0  0  0
   -5.4462   -1.6273   -2.8715 C   0  0  0  0  0  0  0  0  0  0  0  0
   -5.0334   -1.2576   -1.5730 C   0  0  0  0  0  0  0  0  0  0  0  0
   -3.9003   -0.5523   -1.0648 C   0  0  0  0  0  0  0  0  0  0  0  0
   -2.7664    0.0312   -1.6768 C   0  0  0  0  0  0  0  0  0  0  0  0
   -1.8040    0.6782   -0.8962 C   0  0  0  0  0  0  0  0  0  0  0  0
   -0.6401    1.2788   -1.4184 N   0  0  0  0  0  0  0  0  0  0  0  0
   -0.1444    1.1993   -2.7146 C   0  0  0  0  0  0  0  0  0  0  0  0
   -0.6677    0.6052   -3.6518 O   0  0  0  0  0  0  0  0  0  0  0  0
    1.1789    1.9780   -2.8686 C   0  0  0  0  0  0  0  0  0  0  0  0
    1.9017    1.5552   -4.1436 C   0  0  0  0  0  0  0  0  0  0  0  0
    1.9797    1.6775   -1.7071 O   0  0  0  0  0  0  0  0  0  0  0  0
    3.0522    2.4746   -1.4867 C   0  0  0  0  0  0  0  0  0  0  0  0
    3.3648    3.4539   -2.1371 O   0  0  0  0  0  0  0  0  0  0  0  0
    3.8443    1.9399   -0.3506 C   0  0  0  0  0  0  0  0  0  0  0  0
    3.2606    1.1880    0.6732 C   0  0  0  0  0  0  0  0  0  0  0  0
    4.0523    0.6900    1.7147 C   0  0  0  0  0  0  0  0  0  0  0  0
    5.4337    0.9348    1.7493 C   0  0  0  0  0  0  0  0  0  0  0  0
    6.1594    0.3712    2.8245 N   0  0  0  0  0  0  0  0  0  0  0  0
    7.5283    0.4462    3.0448 C   0  0  0  0  0  0  0  0  0  0  0  0
    8.3388    1.0516    2.3476 O   0  0  0  0  0  0  0  0  0  0  0  0
    7.9929   -0.3200    4.2672 C   0  0  0  0  0  0  0  0  0  0  0  0
    8.8298   -1.4442    3.8574 C   0  0  0  0  0  0  0  0  0  0  0  0
    9.5076   -2.3388    3.5505 N   0  0  0  0  0  0  0  0  0  0  0  0
    6.0055    1.6958    0.7280 C   0  0  0  0  0  0  0  0  0  0  0  0
    5.2158    2.1988   -0.3136 C   0  0  0  0  0  0  0  0  0  0  0  0
   -1.9795    0.7456    0.4881 C   0  0  0  0  0  0  0  0  0  0  0  0
   -3.0840    0.1638    1.1203 C   0  0  0  0  0  0  0  0  0  0  0  0
   -4.0372   -0.4794    0.3215 C   0  0  0  0  0  0  0  0  0  0  0  0
   -5.4051   -3.4513    2.0871 H   0  0  0  0  0  0  0  0  0  0  0  0
   -4.0654   -2.5039    2.7507 H   0  0  0  0  0  0  0  0  0  0  0  0
   -5.5728   -2.6657    3.6725 H   0  0  0  0  0  0  0  0  0  0  0  0
   -5.4423   -0.4106    2.5839 H   0  0  0  0  0  0  0  0  0  0  0  0
   -6.8036   -1.3377    1.9684 H   0  0  0  0  0  0  0  0  0  0  0  0
   -7.6442   -2.6142    0.1953 H   0  0  0  0  0  0  0  0  0  0  0  0
   -8.3352   -3.2435   -2.0977 H   0  0  0  0  0  0  0  0  0  0  0  0
   -6.9519   -2.6210   -4.0466 H   0  0  0  0  0  0  0  0  0  0  0  0
   -4.8423   -1.3587   -3.7335 H   0  0  0  0  0  0  0  0  0  0  0  0
   -2.6777   -0.0353   -2.7548 H   0  0  0  0  0  0  0  0  0  0  0  0
   -0.0240    1.7291   -0.7538 H   0  0  0  0  0  0  0  0  0  0  0  0
    0.9358    3.0460   -2.8958 H   0  0  0  0  0  0  0  0  0  0  0  0
    1.2737    1.7176   -5.0254 H   0  0  0  0  0  0  0  0  0  0  0  0
    2.8333    2.1136   -4.2839 H   0  0  0  0  0  0  0  0  0  0  0  0
    2.1691    0.4917   -4.0975 H   0  0  0  0  0  0  0  0  0  0  0  0
    2.1948    0.9747    0.6728 H   0  0  0  0  0  0  0  0  0  0  0  0
    3.5729    0.0938    2.4892 H   0  0  0  0  0  0  0  0  0  0  0  0
    5.6093   -0.1687    3.4825 H   0  0  0  0  0  0  0  0  0  0  0  0
    8.5521    0.3744    4.9034 H   0  0  0  0  0  0  0  0  0  0  0  0
    7.1385   -0.6697    4.8545 H   0  0  0  0  0  0  0  0  0  0  0  0
    7.0693    1.9151    0.7002 H   0  0  0  0  0  0  0  0  0  0  0  0
    5.6844    2.7937   -1.0976 H   0  0  0  0  0  0  0  0  0  0  0  0
   -1.2437    1.2452    1.1123 H   0  0  0  0  0  0  0  0  0  0  0  0
   -3.1874    0.2122    2.1979 H   0  0  0  0  0  0  0  0  0  0  0  0
  1  2  1  0
  2  3  1  0
  3  4  1  0
  4  5  2  0
  5  6  1  0
  6  7  2  0
  7  8  1  0
  8  9  2  0
  9 10  1  0
 10 11  2  0
 11 12  1  0
 12 13  1  0
 13 14  1  0
 14 15  2  0
 14 16  1  0
 16 17  1  0
 16 18  1  0
 18 19  1  0
 19 20  2  0
 19 21  1  0
 21 22  2  0
 22 23  1  0
 23 24  2  0
 24 25  1  0
 25 26  1  0
 26 27  2  0
 26 28  1  0
 28 29  1  0
 29 30  3  0
 24 31  1  0
 31 32  2  0
 12 33  2  0
 33 34  1  0
 34 35  2  0
 35  3  1  0
  9  4  1  0
 35 10  1  0
 32 21  1  0
  1 36  1  0
  1 37  1  0
  1 38  1  0
  2 39  1  0
  2 40  1  0
  5 41  1  0
  6 42  1  0
  7 43  1  0
  8 44  1  0
 11 45  1  0
 13 46  1  0
 16 47  1  0
 17 48  1  0
 17 49  1  0
 17 50  1  0
 22 51  1  0
 23 52  1  0
 25 53  1  0
 28 54  1  0
 28 55  1  0
 31 56  1  0
 32 57  1  0
 33 58  1  0
 34 59  1  0
M  END
$$$$
