
     RDKit          3D

 46 47  0  0  0  0  0  0  0  0999 V2000
    0.6426    4.1523    0.2678 C   0  0  0  0  0  0  0  0  0  0  0  0
    1.9500    3.5916   -0.2345 C   0  0  0  0  0  0  0  0  0  0  0  0
    2.6942    4.2674   -0.9374 O   0  0  0  0  0  0  0  0  0  0  0  0
    2.1480    2.2874    0.1669 N   0  0  0  0  0  0  0  0  0  0  0  0
    3.2457    1.4454   -0.1102 C   0  0  0  0  0  0  0  0  0  0  0  0
    4.3656    1.8447   -0.8415 C   0  0  0  0  0  0  0  0  0  0  0  0
    5.4245    0.9558   -1.0613 C   0  0  0  0  0  0  0  0  0  0  0  0
    5.3792   -0.3393   -0.5466 C   0  0  0  0  0  0  0  0  0  0  0  0
    4.2700   -0.7533    0.1857 C   0  0  0  0  0  0  0  0  0  0  0  0
    3.2049    0.1292    0.3818 C   0  0  0  0  0  0  0  0  0  0  0  0
    2.1364   -0.2916    1.1360 O   0  0  0  0  0  0  0  0  0  0  0  0
    1.2029   -1.0477    0.3513 C   0  0  0  0  0  0  0  0  0  0  0  0
    0.8631   -2.3072    1.1418 C   0  0  0  0  0  0  0  0  0  0  0  0
   -0.0712   -0.2153    0.1122 C   0  0  0  0  0  0  0  0  0  0  0  0
   -0.2515    0.8863    0.6321 O   0  0  0  0  0  0  0  0  0  0  0  0
   -0.9756   -0.7891   -0.7599 N   0  0  0  0  0  0  0  0  0  0  0  0
   -2.3021   -0.2268   -0.9641 C   0  0  0  0  0  0  0  0  0  0  0  0
   -2.6820   -0.3101   -2.4435 C   0  0  0  0  0  0  0  0  0  0  0  0
   -3.2810   -0.9168   -0.0258 C   0  0  0  0  0  0  0  0  0  0  0  0
   -3.9446   -2.1089   -0.3644 C   0  0  0  0  0  0  0  0  0  0  0  0
   -4.8089   -2.7244    0.5449 C   0  0  0  0  0  0  0  0  0  0  0  0
   -5.0064   -2.1590    1.7979 C   0  0  0  0  0  0  0  0  0  0  0  0
   -5.8307   -2.7561    2.6678 F   0  0  0  0  0  0  0  0  0  0  0  0
   -4.3525   -0.9906    2.1637 C   0  0  0  0  0  0  0  0  0  0  0  0
   -3.4898   -0.3734    1.2567 C   0  0  0  0  0  0  0  0  0  0  0  0
    0.4384    3.8119    1.2867 H   0  0  0  0  0  0  0  0  0  0  0  0
   -0.1670    3.8385   -0.3964 H   0  0  0  0  0  0  0  0  0  0  0  0
    0.6976    5.2449    0.2817 H   0  0  0  0  0  0  0  0  0  0  0  0
    1.3937    1.8532    0.7020 H   0  0  0  0  0  0  0  0  0  0  0  0
    4.4518    2.8482   -1.2471 H   0  0  0  0  0  0  0  0  0  0  0  0
    6.2920    1.2862   -1.6280 H   0  0  0  0  0  0  0  0  0  0  0  0
    6.2135   -1.0176   -0.7070 H   0  0  0  0  0  0  0  0  0  0  0  0
    4.2407   -1.7521    0.6098 H   0  0  0  0  0  0  0  0  0  0  0  0
    1.6137   -1.3323   -0.6278 H   0  0  0  0  0  0  0  0  0  0  0  0
    0.1780   -2.9623    0.5955 H   0  0  0  0  0  0  0  0  0  0  0  0
    1.7723   -2.8724    1.3729 H   0  0  0  0  0  0  0  0  0  0  0  0
    0.3951   -2.0498    2.0993 H   0  0  0  0  0  0  0  0  0  0  0  0
   -0.8495   -1.7580   -1.0193 H   0  0  0  0  0  0  0  0  0  0  0  0
   -2.2798    0.8407   -0.7091 H   0  0  0  0  0  0  0  0  0  0  0  0
   -1.9961    0.2970   -3.0454 H   0  0  0  0  0  0  0  0  0  0  0  0
   -3.6985    0.0603   -2.6123 H   0  0  0  0  0  0  0  0  0  0  0  0
   -2.6201   -1.3332   -2.8305 H   0  0  0  0  0  0  0  0  0  0  0  0
   -3.7982   -2.5782   -1.3338 H   0  0  0  0  0  0  0  0  0  0  0  0
   -5.3279   -3.6412    0.2836 H   0  0  0  0  0  0  0  0  0  0  0  0
   -4.5123   -0.5690    3.1511 H   0  0  0  0  0  0  0  0  0  0  0  0
   -2.9681    0.5345    1.5580 H   0  0  0  0  0  0  0  0  0  0  0  0
  1  2  1  0
  2  3  2  0
  2  4  1  0
  4  5  1  0
  5  6  2  0
  6  7  1  0
  7  8  2  0
  8  9  1  0
  9 10  2  0
 10 11  1  0
 11 12  1  0
 12 13  1  0
 12 14  1  0
 14 15  2  0
 14 16  1  0
 16 17  1  0
 17 18  1  0
 17 19  1  0
 19 20  2  0
 20 21  1  0
 21 22  2  0
 22 23  1  0
 22 24  1  0
 24 25  2  0
 10  5  1  0
 25 19  1  0
  1 26  1  0
  1 27  1  0
  1 28  1  0
  4 29  1  0
  6 30  1  0
  7 31  1  0
  8 32  1  0
  9 33  1  0
 12 34  1  0
 13 35  1  0
 13 36  1  0
 13 37  1  0
 16 38  1  0
 17 39  1  0
 18 40  1  0
 18 41  1  0
 18 42  1  0
 20 43  1  0
 21 44  1  0
 24 45  1  0
 25 46  1  0
M  END
$$$$
