
     RDKit          3D

 40 42  0  0  0  0  0  0  0  0999 V2000
   -6.4709    0.0721    0.0407 C   0  0  0  0  0  0  0  0  0  0  0  0
   -5.2166    0.1077    0.9406 C   0  0  0  0  0  0  0  0  0  0  0  0
   -5.2752   -1.1070    1.8849 C   0  0  0  0  0  0  0  0  0  0  0  0
   -5.2597    1.4082    1.7638 C   0  0  0  0  0  0  0  0  0  0  0  0
   -3.9623    0.0585    0.0804 C   0  0  0  0  0  0  0  0  0  0  0  0
   -3.9587   -0.0050   -1.2379 N   0  0  0  0  0  0  0  0  0  0  0  0
   -2.6829   -0.0385   -1.7676 N   0  0  0  0  0  0  0  0  0  0  0  0
   -1.7690    0.0009   -0.8329 C   0  0  0  0  0  0  0  0  0  0  0  0
   -0.4081   -0.0119   -0.9226 N   0  0  0  0  0  0  0  0  0  0  0  0
    0.2593   -0.0738   -2.1233 C   0  0  0  0  0  0  0  0  0  0  0  0
   -0.2438   -0.1246   -3.2413 O   0  0  0  0  0  0  0  0  0  0  0  0
    1.7808   -0.0752   -1.9565 C   0  0  0  0  0  0  0  0  0  0  0  0
    2.1471   -0.0111   -0.5779 O   0  0  0  0  0  0  0  0  0  0  0  0
    3.4873   -0.0059   -0.2963 C   0  0  0  0  0  0  0  0  0  0  0  0
    3.7920    0.0585    1.0790 C   0  0  0  0  0  0  0  0  0  0  0  0
    5.1170    0.0718    1.5265 C   0  0  0  0  0  0  0  0  0  0  0  0
    6.1096    0.0199    0.5750 C   0  0  0  0  0  0  0  0  0  0  0  0
    5.8181   -0.0430   -0.7668 C   0  0  0  0  0  0  0  0  0  0  0  0
    4.5195   -0.0576   -1.2372 C   0  0  0  0  0  0  0  0  0  0  0  0
    6.9384   -0.0870   -1.5378 O   0  0  0  0  0  0  0  0  0  0  0  0
    7.9672   -0.0447   -0.5265 C   0  0  0  0  0  0  0  0  0  0  0  0
    7.4467    0.0233    0.8175 O   0  0  0  0  0  0  0  0  0  0  0  0
   -2.3713    0.0814    0.7601 S   0  0  0  0  0  0  0  0  0  0  0  0
   -7.3894    0.1066    0.6379 H   0  0  0  0  0  0  0  0  0  0  0  0
   -6.4929    0.9246   -0.6487 H   0  0  0  0  0  0  0  0  0  0  0  0
   -6.5039   -0.8423   -0.5636 H   0  0  0  0  0  0  0  0  0  0  0  0
   -4.4520   -1.1031    2.6082 H   0  0  0  0  0  0  0  0  0  0  0  0
   -6.2093   -1.1162    2.4585 H   0  0  0  0  0  0  0  0  0  0  0  0
   -5.2175   -2.0482    1.3255 H   0  0  0  0  0  0  0  0  0  0  0  0
   -4.4361    1.4636    2.4845 H   0  0  0  0  0  0  0  0  0  0  0  0
   -6.1932    1.4841    2.3333 H   0  0  0  0  0  0  0  0  0  0  0  0
   -5.1906    2.2905    1.1165 H   0  0  0  0  0  0  0  0  0  0  0  0
    0.1304    0.0260   -0.0673 H   0  0  0  0  0  0  0  0  0  0  0  0
    2.1631    0.8028   -2.4898 H   0  0  0  0  0  0  0  0  0  0  0  0
    2.1519   -1.0051   -2.4027 H   0  0  0  0  0  0  0  0  0  0  0  0
    2.9859    0.0986    1.8081 H   0  0  0  0  0  0  0  0  0  0  0  0
    5.3552    0.1212    2.5828 H   0  0  0  0  0  0  0  0  0  0  0  0
    4.3512   -0.1080   -2.3053 H   0  0  0  0  0  0  0  0  0  0  0  0
    8.5859   -0.9449   -0.6180 H   0  0  0  0  0  0  0  0  0  0  0  0
    8.5969    0.8348   -0.7037 H   0  0  0  0  0  0  0  0  0  0  0  0
  1  2  1  0
  2  3  1  0
  2  4  1  0
  2  5  1  0
  5  6  2  0
  6  7  1  0
  7  8  2  0
  8  9  1  0
  9 10  1  0
 10 11  2  0
 10 12  1  0
 12 13  1  0
 13 14  1  0
 14 15  2  0
 15 16  1  0
 16 17  2  0
 17 18  1  0
 18 19  2  0
 18 20  1  0
 20 21  1  0
 21 22  1  0
  8 23  1  0
 23  5  1  0
 19 14  1  0
 22 17  1  0
  1 24  1  0
  1 25  1  0
  1 26  1  0
  3 27  1  0
  3 28  1  0
  3 29  1  0
  4 30  1  0
  4 31  1  0
  4 32  1  0
  9 33  1  0
 12 34  1  0
 12 35  1  0
 15 36  1  0
 16 37  1  0
 19 38  1  0
 21 39  1  0
 21 40  1  0
M  END
$$$$
