
     RDKit          3D

 68 71  0  0  0  0  0  0  0  0999 V2000
   -1.0457   -6.3324   -1.5976 C   0  0  0  0  0  0  0  0  0  0  0  0
   -1.2579   -4.8471   -1.6064 C   0  0  0  0  0  0  0  0  0  0  0  0
   -1.7002   -4.1745   -0.4628 C   0  0  0  0  0  0  0  0  0  0  0  0
   -1.8953   -2.7883   -0.4830 C   0  0  0  0  0  0  0  0  0  0  0  0
   -1.6496   -2.0381   -1.6449 C   0  0  0  0  0  0  0  0  0  0  0  0
   -1.8480   -0.5191   -1.6914 C   0  0  0  0  0  0  0  0  0  0  0  0
   -3.1524   -0.0121   -1.0004 C   0  0  0  0  0  0  0  0  0  0  0  0
   -4.1945   -0.6658   -0.9698 O   0  0  0  0  0  0  0  0  0  0  0  0
   -3.1089    1.3046   -0.5674 N   0  0  0  0  0  0  0  0  0  0  0  0
   -4.2194    1.8936    0.1444 C   0  0  0  0  0  0  0  0  0  0  0  0
   -4.1219    3.4128    0.2166 C   0  0  0  0  0  0  0  0  0  0  0  0
   -5.0585    3.7904    1.3584 C   0  0  0  0  0  0  0  0  0  0  0  0
   -5.1494    2.5568    2.2589 C   0  0  0  0  0  0  0  0  0  0  0  0
   -4.2654    1.4946    1.6157 C   0  0  0  0  0  0  0  0  0  0  0  0
   -0.6143    0.2299   -1.3064 N   0  0  0  0  0  0  0  0  0  0  0  0
   -0.1371    0.0843   -0.0025 C   0  0  0  0  0  0  0  0  0  0  0  0
   -0.8558   -0.2877    0.9258 O   0  0  0  0  0  0  0  0  0  0  0  0
    1.3319    0.3944    0.2454 C   0  0  0  0  0  0  0  0  0  0  0  0
    1.8961   -0.4896    1.3551 C   0  0  0  0  0  0  0  0  0  0  0  0
    3.3430   -0.1503    1.6551 C   0  0  0  0  0  0  0  0  0  0  0  0
    3.9520    0.7220    1.0444 O   0  0  0  0  0  0  0  0  0  0  0  0
    3.8524   -0.9223    2.6740 N   0  0  0  0  0  0  0  0  0  0  0  0
    5.1248   -0.8135    3.1924 C   0  0  0  0  0  0  0  0  0  0  0  0
    6.1822    0.0402    2.8094 C   0  0  0  0  0  0  0  0  0  0  0  0
    7.2024   -0.2605    3.6787 C   0  0  0  0  0  0  0  0  0  0  0  0
    8.5731    0.2440    3.8687 C   0  0  0  0  0  0  0  0  0  0  0  0
    6.7896   -1.2385    4.5281 O   0  0  0  0  0  0  0  0  0  0  0  0
    5.4889   -1.5922    4.2192 N   0  0  0  0  0  0  0  0  0  0  0  0
   -0.0848    1.1870   -2.2333 C   0  0  0  0  0  0  0  0  0  0  0  0
    0.3164    2.4587   -1.7988 C   0  0  0  0  0  0  0  0  0  0  0  0
    0.8070    3.4076   -2.7015 C   0  0  0  0  0  0  0  0  0  0  0  0
    0.8975    3.1010   -4.0551 C   0  0  0  0  0  0  0  0  0  0  0  0
    0.5026    1.8441   -4.5053 C   0  0  0  0  0  0  0  0  0  0  0  0
    0.0153    0.8951   -3.6025 C   0  0  0  0  0  0  0  0  0  0  0  0
   -1.1918   -2.7242   -2.7853 C   0  0  0  0  0  0  0  0  0  0  0  0
   -1.0005   -4.1099   -2.7668 C   0  0  0  0  0  0  0  0  0  0  0  0
    0.0257   -6.5590   -1.6103 H   0  0  0  0  0  0  0  0  0  0  0  0
   -1.5174   -6.7887   -2.4737 H   0  0  0  0  0  0  0  0  0  0  0  0
   -1.4841   -6.7952   -0.7064 H   0  0  0  0  0  0  0  0  0  0  0  0
   -1.9054   -4.7221    0.4566 H   0  0  0  0  0  0  0  0  0  0  0  0
   -2.2628   -2.3051    0.4226 H   0  0  0  0  0  0  0  0  0  0  0  0
   -2.0741   -0.2814   -2.7408 H   0  0  0  0  0  0  0  0  0  0  0  0
   -2.1827    1.6548   -0.3543 H   0  0  0  0  0  0  0  0  0  0  0  0
   -5.1553    1.6002   -0.3492 H   0  0  0  0  0  0  0  0  0  0  0  0
   -3.0978    3.7289    0.4566 H   0  0  0  0  0  0  0  0  0  0  0  0
   -4.3996    3.8942   -0.7267 H   0  0  0  0  0  0  0  0  0  0  0  0
   -4.6918    4.6657    1.9041 H   0  0  0  0  0  0  0  0  0  0  0  0
   -6.0529    4.0385    0.9696 H   0  0  0  0  0  0  0  0  0  0  0  0
   -6.1879    2.2088    2.3064 H   0  0  0  0  0  0  0  0  0  0  0  0
   -4.8295    2.7746    3.2821 H   0  0  0  0  0  0  0  0  0  0  0  0
   -4.6593    0.4849    1.7672 H   0  0  0  0  0  0  0  0  0  0  0  0
   -3.2617    1.5269    2.0596 H   0  0  0  0  0  0  0  0  0  0  0  0
    1.4167    1.4408    0.5498 H   0  0  0  0  0  0  0  0  0  0  0  0
    1.9143    0.2460   -0.6686 H   0  0  0  0  0  0  0  0  0  0  0  0
    1.8349   -1.5453    1.0638 H   0  0  0  0  0  0  0  0  0  0  0  0
    1.3170   -0.3595    2.2776 H   0  0  0  0  0  0  0  0  0  0  0  0
    3.2785   -1.6164    3.1357 H   0  0  0  0  0  0  0  0  0  0  0  0
    6.2043    0.7767    2.0199 H   0  0  0  0  0  0  0  0  0  0  0  0
    8.5872    1.0271    4.6332 H   0  0  0  0  0  0  0  0  0  0  0  0
    9.2460   -0.5588    4.1858 H   0  0  0  0  0  0  0  0  0  0  0  0
    8.9640    0.6660    2.9374 H   0  0  0  0  0  0  0  0  0  0  0  0
    0.2130    2.7604   -0.7598 H   0  0  0  0  0  0  0  0  0  0  0  0
    1.1060    4.3906   -2.3456 H   0  0  0  0  0  0  0  0  0  0  0  0
    1.2693    3.8405   -4.7579 H   0  0  0  0  0  0  0  0  0  0  0  0
    0.5724    1.6003   -5.5621 H   0  0  0  0  0  0  0  0  0  0  0  0
   -0.2518   -0.0818   -3.9938 H   0  0  0  0  0  0  0  0  0  0  0  0
   -0.9979   -2.1963   -3.7156 H   0  0  0  0  0  0  0  0  0  0  0  0
   -0.6610   -4.6113   -3.6723 H   0  0  0  0  0  0  0  0  0  0  0  0
  1  2  1  0
  2  3  2  0
  3  4  1  0
  4  5  2  0
  5  6  1  0
  6  7  1  0
  7  8  2  0
  7  9  1  0
  9 10  1  0
 10 11  1  0
 11 12  1  0
 12 13  1  0
 13 14  1  0
  6 15  1  0
 15 16  1  0
 16 17  2  0
 16 18  1  0
 18 19  1  0
 19 20  1  0
 20 21  2  0
 20 22  1  0
 22 23  1  0
 23 24  1  0
 24 25  2  0
 25 26  1  0
 25 27  1  0
 27 28  1  0
 15 29  1  0
 29 30  2  0
 30 31  1  0
 31 32  2  0
 32 33  1  0
 33 34  2  0
  5 35  1  0
 35 36  2  0
 36  2  1  0
 14 10  1  0
 28 23  2  0
 34 29  1  0
  1 37  1  0
  1 38  1  0
  1 39  1  0
  3 40  1  0
  4 41  1  0
  6 42  1  0
  9 43  1  0
 10 44  1  0
 11 45  1  0
 11 46  1  0
 12 47  1  0
 12 48  1  0
 13 49  1  0
 13 50  1  0
 14 51  1  0
 14 52  1  0
 18 53  1  0
 18 54  1  0
 19 55  1  0
 19 56  1  0
 22 57  1  0
 24 58  1  0
 26 59  1  0
 26 60  1  0
 26 61  1  0
 30 62  1  0
 31 63  1  0
 32 64  1  0
 33 65  1  0
 34 66  1  0
 35 67  1  0
 36 68  1  0
M  END
$$$$
