
     RDKit          3D

 59 62  0  0  0  0  0  0  0  0999 V2000
    5.5760   -4.2855   -0.7380 C   0  0  0  0  0  0  0  0  0  0  0  0
    4.2466   -3.7896   -0.1973 C   0  0  0  0  0  0  0  0  0  0  0  0
    4.4006   -2.5557    0.5022 O   0  0  0  0  0  0  0  0  0  0  0  0
    4.4670   -1.3977   -0.3256 C   0  0  0  0  0  0  0  0  0  0  0  0
    3.1121   -0.9919   -0.8974 C   0  0  0  0  0  0  0  0  0  0  0  0
    2.0422   -0.8855    0.1900 C   0  0  0  0  0  0  0  0  0  0  0  0
    0.7737   -0.3851   -0.3804 N   0  0  0  0  0  0  0  0  0  0  0  0
   -0.1266   -1.3091   -0.9378 C   0  0  0  0  0  0  0  0  0  0  0  0
    0.1947   -2.5700   -0.9868 N   0  0  0  0  0  0  0  0  0  0  0  0
   -1.4322   -0.8065   -1.4684 C   0  0  0  0  0  0  0  0  0  0  0  0
   -2.7075   -1.8506   -1.9726 S   0  0  0  0  0  6  0  0  0  0  0  0
   -2.1913   -3.1825   -2.2409 O   0  0  0  0  0  0  0  0  0  0  0  0
   -3.5347   -1.1880   -2.9661 O   0  0  0  0  0  0  0  0  0  0  0  0
   -3.6797   -1.9793   -0.4824 C   0  0  0  0  0  0  0  0  0  0  0  0
   -4.8572   -1.2389   -0.3536 C   0  0  0  0  0  0  0  0  0  0  0  0
   -5.6062   -1.3402    0.8199 C   0  0  0  0  0  0  0  0  0  0  0  0
   -5.1947   -2.1905    1.8550 C   0  0  0  0  0  0  0  0  0  0  0  0
   -5.9820   -2.2749    3.1300 C   0  0  0  0  0  0  0  0  0  0  0  0
   -4.0124   -2.9298    1.7088 C   0  0  0  0  0  0  0  0  0  0  0  0
   -3.2577   -2.8351    0.5391 C   0  0  0  0  0  0  0  0  0  0  0  0
   -1.6236    0.5231   -1.4692 C   0  0  0  0  0  0  0  0  0  0  0  0
   -0.6164    1.4520   -0.9793 C   0  0  0  0  0  0  0  0  0  0  0  0
   -0.8765    2.9183   -1.0441 C   0  0  0  0  0  0  0  0  0  0  0  0
   -1.9431    3.3280   -1.5084 O   0  0  0  0  0  0  0  0  0  0  0  0
    0.1272    3.7365   -0.5586 N   0  0  0  0  0  0  0  0  0  0  0  0
   -0.0379    5.1177   -0.5922 C   0  0  0  0  0  0  0  0  0  0  0  0
    0.8997    5.9608   -0.1317 C   0  0  0  0  0  0  0  0  0  0  0  0
    0.7481    7.4508   -0.1557 C   0  0  0  0  0  0  0  0  0  0  0  0
    2.1212    5.4176    0.4183 C   0  0  0  0  0  0  0  0  0  0  0  0
    2.3188    4.0953    0.4703 C   0  0  0  0  0  0  0  0  0  0  0  0
    1.2741    3.1668   -0.0416 C   0  0  0  0  0  0  0  0  0  0  0  0
    1.4935    1.8934    0.0248 N   0  0  0  0  0  0  0  0  0  0  0  0
    0.5451    1.0125   -0.4431 C   0  0  0  0  0  0  0  0  0  0  0  0
    6.3256   -4.3210    0.0590 H   0  0  0  0  0  0  0  0  0  0  0  0
    5.4675   -5.2860   -1.1670 H   0  0  0  0  0  0  0  0  0  0  0  0
    5.9642   -3.6206   -1.5156 H   0  0  0  0  0  0  0  0  0  0  0  0
    3.8703   -4.5176    0.5292 H   0  0  0  0  0  0  0  0  0  0  0  0
    3.4985   -3.7119   -0.9921 H   0  0  0  0  0  0  0  0  0  0  0  0
    4.8417   -0.5846    0.3063 H   0  0  0  0  0  0  0  0  0  0  0  0
    5.1995   -1.5336   -1.1277 H   0  0  0  0  0  0  0  0  0  0  0  0
    3.2233   -0.0348   -1.4210 H   0  0  0  0  0  0  0  0  0  0  0  0
    2.7919   -1.7171   -1.6535 H   0  0  0  0  0  0  0  0  0  0  0  0
    1.8823   -1.8563    0.6748 H   0  0  0  0  0  0  0  0  0  0  0  0
    2.3878   -0.2253    0.9954 H   0  0  0  0  0  0  0  0  0  0  0  0
   -0.5169   -3.1492   -1.4632 H   0  0  0  0  0  0  0  0  0  0  0  0
   -5.1999   -0.5835   -1.1511 H   0  0  0  0  0  0  0  0  0  0  0  0
   -6.5178   -0.7540    0.9210 H   0  0  0  0  0  0  0  0  0  0  0  0
   -5.5426   -1.6144    3.8849 H   0  0  0  0  0  0  0  0  0  0  0  0
   -5.9876   -3.3010    3.5129 H   0  0  0  0  0  0  0  0  0  0  0  0
   -7.0256   -1.9803    2.9709 H   0  0  0  0  0  0  0  0  0  0  0  0
   -3.6757   -3.5879    2.5075 H   0  0  0  0  0  0  0  0  0  0  0  0
   -2.3499   -3.4270    0.4395 H   0  0  0  0  0  0  0  0  0  0  0  0
   -2.5567    0.9550   -1.8282 H   0  0  0  0  0  0  0  0  0  0  0  0
   -0.9713    5.4849   -1.0138 H   0  0  0  0  0  0  0  0  0  0  0  0
    0.8019    7.8594    0.8589 H   0  0  0  0  0  0  0  0  0  0  0  0
   -0.2121    7.7556   -0.5853 H   0  0  0  0  0  0  0  0  0  0  0  0
    1.5407    7.9088   -0.7569 H   0  0  0  0  0  0  0  0  0  0  0  0
    2.8792    6.1005    0.7906 H   0  0  0  0  0  0  0  0  0  0  0  0
    3.2211    3.6555    0.8764 H   0  0  0  0  0  0  0  0  0  0  0  0
  1  2  1  0
  2  3  1  0
  3  4  1  0
  4  5  1  0
  5  6  1  0
  6  7  1  0
  7  8  1  0
  8  9  2  3
  8 10  1  0
 10 11  1  0
 11 12  2  0
 11 13  2  0
 11 14  1  0
 14 15  2  0
 15 16  1  0
 16 17  2  0
 17 18  1  0
 17 19  1  0
 19 20  2  0
 10 21  2  0
 21 22  1  0
 22 23  1  0
 23 24  2  0
 23 25  1  0
 25 26  1  0
 26 27  2  0
 27 28  1  0
 27 29  1  0
 29 30  2  0
 30 31  1  0
 31 32  2  0
 32 33  1  0
 33  7  1  0
 20 14  1  0
 33 22  2  0
 31 25  1  0
  1 34  1  0
  1 35  1  0
  1 36  1  0
  2 37  1  0
  2 38  1  0
  4 39  1  0
  4 40  1  0
  5 41  1  0
  5 42  1  0
  6 43  1  0
  6 44  1  0
  9 45  1  0
 15 46  1  0
 16 47  1  0
 18 48  1  0
 18 49  1  0
 18 50  1  0
 19 51  1  0
 20 52  1  0
 21 53  1  0
 26 54  1  0
 28 55  1  0
 28 56  1  0
 28 57  1  0
 29 58  1  0
 30 59  1  0
M  END
$$$$
