
     RDKit          3D

 38 40  0  0  0  0  0  0  0  0999 V2000
    2.0277   -2.0607    0.4190 C   0  0  0  0  0  0  0  0  0  0  0  0
    0.6828   -1.3953    0.3220 C   0  0  0  0  0  0  0  0  0  0  0  0
   -0.3691   -2.0731   -0.3164 C   0  0  0  0  0  0  0  0  0  0  0  0
   -1.6338   -1.4888   -0.4114 C   0  0  0  0  0  0  0  0  0  0  0  0
   -2.6400   -2.1596   -1.0528 O   0  0  0  0  0  0  0  0  0  0  0  0
   -1.8804   -0.2266    0.1398 C   0  0  0  0  0  0  0  0  0  0  0  0
   -3.4820    0.5553    0.0443 S   0  0  0  0  0  0  0  0  0  0  0  0
   -4.2652   -0.0582    1.4797 C   0  0  0  0  0  0  0  0  0  0  0  0
   -3.6545   -0.8458    2.4245 N   0  0  0  0  0  0  0  0  0  0  0  0
   -4.5985   -1.0300    3.3169 C   0  0  0  0  0  0  0  0  0  0  0  0
   -5.7218   -0.3745    2.9275 N   0  0  0  0  0  0  0  0  0  0  0  0
   -5.5363    0.2574    1.7600 N   0  0  0  0  0  0  0  0  0  0  0  0
   -0.8320    0.4530    0.7727 C   0  0  0  0  0  0  0  0  0  0  0  0
    0.4415   -0.1179    0.8586 C   0  0  0  0  0  0  0  0  0  0  0  0
    1.5004    0.6052    1.4823 N   0  0  0  0  0  0  0  0  0  0  0  0
    2.0059    2.0902    0.8638 S   0  0  0  0  0  6  0  0  0  0  0  0
    0.9189    3.0426    0.9242 O   0  0  0  0  0  0  0  0  0  0  0  0
    3.2806    2.3687    1.4934 O   0  0  0  0  0  0  0  0  0  0  0  0
    2.3284    1.7317   -0.8515 C   0  0  0  0  0  0  0  0  0  0  0  0
    3.5939    1.2746   -1.2351 C   0  0  0  0  0  0  0  0  0  0  0  0
    3.8474    1.0038   -2.5817 C   0  0  0  0  0  0  0  0  0  0  0  0
    2.8434    1.2018   -3.5315 C   0  0  0  0  0  0  0  0  0  0  0  0
    3.1593    0.8599   -5.1879 Cl  0  0  0  0  0  0  0  0  0  0  0  0
    1.5889    1.6790   -3.1505 C   0  0  0  0  0  0  0  0  0  0  0  0
    1.3295    1.9542   -1.8063 C   0  0  0  0  0  0  0  0  0  0  0  0
    2.2770   -2.2546    1.4679 H   0  0  0  0  0  0  0  0  0  0  0  0
    2.8027   -1.4316   -0.0293 H   0  0  0  0  0  0  0  0  0  0  0  0
    2.0424   -3.0206   -0.1094 H   0  0  0  0  0  0  0  0  0  0  0  0
   -0.1927   -3.0587   -0.7403 H   0  0  0  0  0  0  0  0  0  0  0  0
   -2.3289   -3.0416   -1.3113 H   0  0  0  0  0  0  0  0  0  0  0  0
   -4.5258   -1.6018    4.2311 H   0  0  0  0  0  0  0  0  0  0  0  0
   -6.6213   -0.3091    3.3910 H   0  0  0  0  0  0  0  0  0  0  0  0
   -1.0209    1.4279    1.2182 H   0  0  0  0  0  0  0  0  0  0  0  0
    2.2577    0.0870    1.9207 H   0  0  0  0  0  0  0  0  0  0  0  0
    4.3820    1.1312   -0.4990 H   0  0  0  0  0  0  0  0  0  0  0  0
    4.8279    0.6460   -2.8855 H   0  0  0  0  0  0  0  0  0  0  0  0
    0.8114    1.8425   -3.8937 H   0  0  0  0  0  0  0  0  0  0  0  0
    0.3532    2.3364   -1.5140 H   0  0  0  0  0  0  0  0  0  0  0  0
  1  2  1  0
  2  3  2  0
  3  4  1  0
  4  5  1  0
  4  6  2  0
  6  7  1  0
  7  8  1  0
  8  9  1  0
  9 10  2  0
 10 11  1  0
 11 12  1  0
  6 13  1  0
 13 14  2  0
 14 15  1  0
 15 16  1  0
 16 17  2  0
 16 18  2  0
 16 19  1  0
 19 20  2  0
 20 21  1  0
 21 22  2  0
 22 23  1  0
 22 24  1  0
 24 25  2  0
 14  2  1  0
 25 19  1  0
 12  8  2  0
  1 26  1  0
  1 27  1  0
  1 28  1  0
  3 29  1  0
  5 30  1  0
 10 31  1  0
 11 32  1  0
 13 33  1  0
 15 34  1  0
 20 35  1  0
 21 36  1  0
 24 37  1  0
 25 38  1  0
M  END
$$$$
