
     RDKit          3D

 38 40  0  0  0  0  0  0  0  0999 V2000
   -1.9978   -0.6445   -2.5146 C   0  0  0  0  0  0  0  0  0  0  0  0
   -1.3781   -0.4983   -1.1213 C   0  0  0  0  0  0  0  0  0  0  0  0
   -1.6648   -1.7528   -0.2602 C   0  0  0  0  0  0  0  0  0  0  0  0
   -1.6938   -1.2452    1.1847 C   0  0  0  0  0  0  0  0  0  0  0  0
   -1.3697    0.2514    1.0718 C   0  0  0  0  0  0  0  0  0  0  0  0
    0.1482    0.3785    1.1251 C   0  0  0  0  0  0  0  0  0  0  0  0
    0.6603    0.7473    2.1830 O   0  0  0  0  0  0  0  0  0  0  0  0
    0.8353   -0.0454   -0.0287 N   0  0  0  0  0  0  0  0  0  0  0  0
    2.2852   -0.0387   -0.0384 C   0  0  0  0  0  0  0  0  0  0  0  0
    3.0002   -0.9790   -0.8044 C   0  0  0  0  0  0  0  0  0  0  0  0
    4.3994   -1.0000   -0.8217 C   0  0  0  0  0  0  0  0  0  0  0  0
    5.1177   -0.0773   -0.0701 C   0  0  0  0  0  0  0  0  0  0  0  0
    4.4313    0.8604    0.6930 C   0  0  0  0  0  0  0  0  0  0  0  0
    5.3167    2.0158    1.6135 Cl  0  0  0  0  0  0  0  0  0  0  0  0
    3.0332    0.8822    0.7133 C   0  0  0  0  0  0  0  0  0  0  0  0
    0.1585   -0.3581   -1.2296 C   0  0  0  0  0  0  0  0  0  0  0  0
    0.7054   -0.4818   -2.3279 O   0  0  0  0  0  0  0  0  0  0  0  0
   -1.9382    0.6787   -0.2882 C   0  0  0  0  0  0  0  0  0  0  0  0
   -3.4848    0.7202   -0.2406 C   0  0  0  0  0  0  0  0  0  0  0  0
   -1.4801    2.0777   -0.7416 C   0  0  0  0  0  0  0  0  0  0  0  0
   -1.8172    0.2469   -3.1250 H   0  0  0  0  0  0  0  0  0  0  0  0
   -1.5682   -1.4998   -3.0492 H   0  0  0  0  0  0  0  0  0  0  0  0
   -3.0792   -0.8081   -2.4678 H   0  0  0  0  0  0  0  0  0  0  0  0
   -0.8983   -2.5264   -0.3866 H   0  0  0  0  0  0  0  0  0  0  0  0
   -2.6297   -2.2100   -0.5091 H   0  0  0  0  0  0  0  0  0  0  0  0
   -2.6897   -1.3956    1.6166 H   0  0  0  0  0  0  0  0  0  0  0  0
   -0.9812   -1.7920    1.8122 H   0  0  0  0  0  0  0  0  0  0  0  0
   -1.7992    0.8246    1.9010 H   0  0  0  0  0  0  0  0  0  0  0  0
    2.4828   -1.7360   -1.3906 H   0  0  0  0  0  0  0  0  0  0  0  0
    4.9225   -1.7398   -1.4229 H   0  0  0  0  0  0  0  0  0  0  0  0
    6.2039   -0.0916   -0.0852 H   0  0  0  0  0  0  0  0  0  0  0  0
    2.5493    1.6569    1.3013 H   0  0  0  0  0  0  0  0  0  0  0  0
   -3.9362   -0.2486   -0.0083 H   0  0  0  0  0  0  0  0  0  0  0  0
   -3.9008    1.0476   -1.2001 H   0  0  0  0  0  0  0  0  0  0  0  0
   -3.8275    1.4293    0.5220 H   0  0  0  0  0  0  0  0  0  0  0  0
   -0.3947    2.1891   -0.8063 H   0  0  0  0  0  0  0  0  0  0  0  0
   -1.8359    2.8431   -0.0421 H   0  0  0  0  0  0  0  0  0  0  0  0
   -1.8848    2.3188   -1.7309 H   0  0  0  0  0  0  0  0  0  0  0  0
  1  2  1  0
  2  3  1  0
  3  4  1  0
  4  5  1  0
  5  6  1  0
  6  7  2  0
  6  8  1  0
  8  9  1  0
  9 10  2  0
 10 11  1  0
 11 12  2  0
 12 13  1  0
 13 14  1  0
 13 15  2  0
  8 16  1  0
 16 17  2  0
  5 18  1  0
 18 19  1  0
 18 20  1  0
 16  2  1  0
 18  2  1  0
 15  9  1  0
  1 21  1  0
  1 22  1  0
  1 23  1  0
  3 24  1  0
  3 25  1  0
  4 26  1  0
  4 27  1  0
  5 28  1  0
 10 29  1  0
 11 30  1  0
 12 31  1  0
 15 32  1  0
 19 33  1  0
 19 34  1  0
 19 35  1  0
 20 36  1  0
 20 37  1  0
 20 38  1  0
M  END
$$$$
