
     RDKit          3D

 46 48  0  0  0  0  0  0  0  0999 V2000
   -3.0225   -1.8006    2.0813 O   0  0  0  0  0  0  0  0  0  0  0  0
   -3.1167   -0.8819    1.2776 C   0  0  0  0  0  0  0  0  0  0  0  0
   -4.2845   -0.3245    0.7877 N   0  0  0  0  0  0  0  0  0  0  0  0
   -5.6056   -0.6485    1.1687 C   0  0  0  0  0  0  0  0  0  0  0  0
   -6.6444   -0.0134    0.4770 C   0  0  0  0  0  0  0  0  0  0  0  0
   -7.9721   -0.2833    0.8046 C   0  0  0  0  0  0  0  0  0  0  0  0
   -8.9510    0.3331    0.1296 F   0  0  0  0  0  0  0  0  0  0  0  0
   -8.2959   -1.1746    1.8138 C   0  0  0  0  0  0  0  0  0  0  0  0
   -7.2649   -1.7982    2.4991 C   0  0  0  0  0  0  0  0  0  0  0  0
   -7.5600   -2.6602    3.4812 F   0  0  0  0  0  0  0  0  0  0  0  0
   -5.9283   -1.5451    2.1896 C   0  0  0  0  0  0  0  0  0  0  0  0
   -1.8592   -0.3071    0.7235 C   0  0  0  0  0  0  0  0  0  0  0  0
   -0.7680   -1.1544    0.5208 C   0  0  0  0  0  0  0  0  0  0  0  0
    0.4361   -0.6577    0.0009 C   0  0  0  0  0  0  0  0  0  0  0  0
    0.6096    0.7037   -0.2987 C   0  0  0  0  0  0  0  0  0  0  0  0
    1.7807    1.1759   -0.9125 N   0  0  0  0  0  0  0  0  0  0  0  0
    3.0329    0.4212   -0.8036 C   0  0  0  0  0  0  0  0  0  0  0  0
    4.1785    1.2121   -1.4479 C   0  0  0  0  0  0  0  0  0  0  0  0
    5.4874    0.4674   -1.3654 C   0  0  0  0  0  0  0  0  0  0  0  0
    5.8653   -0.4185   -2.3833 C   0  0  0  0  0  0  0  0  0  0  0  0
    7.0656   -1.1250   -2.2953 C   0  0  0  0  0  0  0  0  0  0  0  0
    7.8961   -0.9556   -1.1891 C   0  0  0  0  0  0  0  0  0  0  0  0
    7.5275   -0.0799   -0.1697 C   0  0  0  0  0  0  0  0  0  0  0  0
    6.3276    0.6279   -0.2553 C   0  0  0  0  0  0  0  0  0  0  0  0
   -0.5176    1.5350   -0.0921 C   0  0  0  0  0  0  0  0  0  0  0  0
   -0.4598    2.9643   -0.4047 N   0  0  0  0  0  4  0  0  0  0  0  0
   -1.5057    3.4990   -0.8032 O   0  0  0  0  0  0  0  0  0  0  0  0
    0.6164    3.5561   -0.2288 O   0  0  0  0  0  1  0  0  0  0  0  0
   -1.7342    1.0492    0.4271 C   0  0  0  0  0  0  0  0  0  0  0  0
   -4.2001    0.3378    0.0264 H   0  0  0  0  0  0  0  0  0  0  0  0
   -6.4482    0.6944   -0.3225 H   0  0  0  0  0  0  0  0  0  0  0  0
   -9.3297   -1.3794    2.0639 H   0  0  0  0  0  0  0  0  0  0  0  0
   -5.1734   -2.0641    2.7700 H   0  0  0  0  0  0  0  0  0  0  0  0
   -0.8505   -2.2155    0.7552 H   0  0  0  0  0  0  0  0  0  0  0  0
    1.2357   -1.3754   -0.1653 H   0  0  0  0  0  0  0  0  0  0  0  0
    1.9208    2.1771   -0.7300 H   0  0  0  0  0  0  0  0  0  0  0  0
    3.2630    0.2287    0.2518 H   0  0  0  0  0  0  0  0  0  0  0  0
    2.9359   -0.5433   -1.3162 H   0  0  0  0  0  0  0  0  0  0  0  0
    3.9432    1.4293   -2.4981 H   0  0  0  0  0  0  0  0  0  0  0  0
    4.2833    2.1911   -0.9622 H   0  0  0  0  0  0  0  0  0  0  0  0
    5.2280   -0.5625   -3.2532 H   0  0  0  0  0  0  0  0  0  0  0  0
    7.3536   -1.8075   -3.0907 H   0  0  0  0  0  0  0  0  0  0  0  0
    8.8314   -1.5052   -1.1221 H   0  0  0  0  0  0  0  0  0  0  0  0
    8.1758    0.0527    0.6927 H   0  0  0  0  0  0  0  0  0  0  0  0
    6.0550    1.3072    0.5495 H   0  0  0  0  0  0  0  0  0  0  0  0
   -2.5570    1.7343    0.6179 H   0  0  0  0  0  0  0  0  0  0  0  0
  1  2  2  0
  2  3  1  0
  3  4  1  0
  4  5  2  0
  5  6  1  0
  6  7  1  0
  6  8  2  0
  8  9  1  0
  9 10  1  0
  9 11  2  0
  2 12  1  0
 12 13  2  0
 13 14  1  0
 14 15  2  0
 15 16  1  0
 16 17  1  0
 17 18  1  0
 18 19  1  0
 19 20  2  0
 20 21  1  0
 21 22  2  0
 22 23  1  0
 23 24  2  0
 15 25  1  0
 25 26  1  0
 26 27  2  0
 26 28  1  0
 25 29  2  0
 11  4  1  0
 29 12  1  0
 24 19  1  0
  3 30  1  0
  5 31  1  0
  8 32  1  0
 11 33  1  0
 13 34  1  0
 14 35  1  0
 16 36  1  0
 17 37  1  0
 17 38  1  0
 18 39  1  0
 18 40  1  0
 20 41  1  0
 21 42  1  0
 22 43  1  0
 23 44  1  0
 24 45  1  0
 29 46  1  0
M  CHG  2  26   1  28  -1
M  END
$$$$
