
     RDKit          3D

 40 42  0  0  0  0  0  0  0  0999 V2000
    2.2372    4.2256    0.4080 C   0  0  0  0  0  0  0  0  0  0  0  0
    2.3118    3.7556   -1.0349 C   0  0  0  0  0  0  0  0  0  0  0  0
    0.6573    3.4067   -1.7204 S   0  0  0  0  0  0  0  0  0  0  0  0
    0.2766    1.8316   -0.9630 C   0  0  0  0  0  0  0  0  0  0  0  0
   -1.0158    1.3600   -1.0470 C   0  0  0  0  0  0  0  0  0  0  0  0
   -1.2875    0.1356   -0.4711 C   0  0  0  0  0  0  0  0  0  0  0  0
   -2.5709   -0.3997   -0.4943 N   0  0  0  0  0  0  0  0  0  0  0  0
   -2.7810   -1.6359    0.2782 C   0  0  0  0  0  0  0  0  0  0  0  0
   -4.2645   -2.0306    0.2114 C   0  0  0  0  0  0  0  0  0  0  0  0
   -4.7432   -2.2794   -1.1203 O   0  0  0  0  0  0  0  0  0  0  0  0
   -3.9532   -1.6462   -2.1355 C   0  0  0  0  0  0  0  0  0  0  0  0
   -3.3867   -0.2784   -1.7165 C   0  0  0  0  0  0  0  0  0  0  0  0
   -0.3184   -0.5404    0.1678 N   0  0  0  0  0  0  0  0  0  0  0  0
    0.9209   -0.0154    0.1995 C   0  0  0  0  0  0  0  0  0  0  0  0
    1.9765   -0.7807    0.8954 C   0  0  0  0  0  0  0  0  0  0  0  0
    1.7077   -2.0255    1.4980 C   0  0  0  0  0  0  0  0  0  0  0  0
    2.7051   -2.7515    2.1576 C   0  0  0  0  0  0  0  0  0  0  0  0
    4.0000   -2.2480    2.2310 C   0  0  0  0  0  0  0  0  0  0  0  0
    4.2976   -1.0214    1.6458 C   0  0  0  0  0  0  0  0  0  0  0  0
    3.2974   -0.2987    0.9869 C   0  0  0  0  0  0  0  0  0  0  0  0
    1.2608    1.1560   -0.3577 N   0  0  0  0  0  0  0  0  0  0  0  0
    1.8242    3.4598    1.0715 H   0  0  0  0  0  0  0  0  0  0  0  0
    1.6274    5.1305    0.5022 H   0  0  0  0  0  0  0  0  0  0  0  0
    3.2422    4.4668    0.7702 H   0  0  0  0  0  0  0  0  0  0  0  0
    2.9693    2.8867   -1.1364 H   0  0  0  0  0  0  0  0  0  0  0  0
    2.7497    4.5540   -1.6434 H   0  0  0  0  0  0  0  0  0  0  0  0
   -1.7896    1.9452   -1.5252 H   0  0  0  0  0  0  0  0  0  0  0  0
   -2.1694   -2.4479   -0.1354 H   0  0  0  0  0  0  0  0  0  0  0  0
   -2.5037   -1.4840    1.3281 H   0  0  0  0  0  0  0  0  0  0  0  0
   -4.8873   -1.2360    0.6385 H   0  0  0  0  0  0  0  0  0  0  0  0
   -4.4417   -2.9371    0.7987 H   0  0  0  0  0  0  0  0  0  0  0  0
   -3.1402   -2.3308   -2.4049 H   0  0  0  0  0  0  0  0  0  0  0  0
   -4.5871   -1.5328   -3.0209 H   0  0  0  0  0  0  0  0  0  0  0  0
   -4.2135    0.4080   -1.5004 H   0  0  0  0  0  0  0  0  0  0  0  0
   -2.8197    0.1266   -2.5623 H   0  0  0  0  0  0  0  0  0  0  0  0
    0.7030   -2.4434    1.4559 H   0  0  0  0  0  0  0  0  0  0  0  0
    2.4662   -3.7094    2.6123 H   0  0  0  0  0  0  0  0  0  0  0  0
    4.7759   -2.8108    2.7430 H   0  0  0  0  0  0  0  0  0  0  0  0
    5.3074   -0.6228    1.6995 H   0  0  0  0  0  0  0  0  0  0  0  0
    3.5594    0.6582    0.5381 H   0  0  0  0  0  0  0  0  0  0  0  0
  1  2  1  0
  2  3  1  0
  3  4  1  0
  4  5  2  0
  5  6  1  0
  6  7  1  0
  7  8  1  0
  8  9  1  0
  9 10  1  0
 10 11  1  0
 11 12  1  0
  6 13  2  0
 13 14  1  0
 14 15  1  0
 15 16  2  0
 16 17  1  0
 17 18  2  0
 18 19  1  0
 19 20  2  0
 14 21  2  0
 21  4  1  0
 12  7  1  0
 20 15  1  0
  1 22  1  0
  1 23  1  0
  1 24  1  0
  2 25  1  0
  2 26  1  0
  5 27  1  0
  8 28  1  0
  8 29  1  0
  9 30  1  0
  9 31  1  0
 11 32  1  0
 11 33  1  0
 12 34  1  0
 12 35  1  0
 16 36  1  0
 17 37  1  0
 18 38  1  0
 19 39  1  0
 20 40  1  0
M  END
$$$$
