
     RDKit          3D

 67 72  0  0  0  0  0  0  0  0999 V2000
   -3.8948    5.1017   -0.8682 C   0  0  0  0  0  0  0  0  0  0  0  0
   -3.1799    3.8678   -1.3184 C   0  0  0  0  0  0  0  0  0  0  0  0
   -3.1048    3.5258   -2.6772 C   0  0  0  0  0  0  0  0  0  0  0  0
   -2.4240    2.3695   -3.1032 C   0  0  0  0  0  0  0  0  0  0  0  0
   -1.8057    1.5227   -2.1818 C   0  0  0  0  0  0  0  0  0  0  0  0
   -1.8835    1.8516   -0.8379 C   0  0  0  0  0  0  0  0  0  0  0  0
   -2.5537    3.0111   -0.4266 C   0  0  0  0  0  0  0  0  0  0  0  0
   -2.4665    3.1498    0.9573 N   0  0  0  0  0  0  0  0  0  0  0  0
   -1.7432    2.1020    1.5327 C   0  0  0  0  0  0  0  0  0  0  0  0
   -1.4850    2.0014    2.7237 O   0  0  0  0  0  0  0  0  0  0  0  0
   -1.3229    1.1664    0.3703 C   0  0  1  0  0  0  0  0  0  0  0  0
   -1.8878   -0.2015    0.4950 C   0  0  0  0  0  0  0  0  0  0  0  0
   -0.8792   -1.1220    0.8256 C   0  0  0  0  0  0  0  0  0  0  0  0
   -1.4303   -2.3732    0.9022 C   0  0  0  0  0  0  0  0  0  0  0  0
   -0.8725   -3.5388    1.2177 O   0  0  0  0  0  0  0  0  0  0  0  0
   -2.8143   -2.2306    0.6682 N   0  0  0  0  0  0  0  0  0  0  0  0
   -3.7975   -3.2667    0.7647 C   0  0  0  0  0  0  0  0  0  0  0  0
   -3.4787   -4.5880    0.4274 C   0  0  0  0  0  0  0  0  0  0  0  0
   -4.4486   -5.5903    0.5132 C   0  0  0  0  0  0  0  0  0  0  0  0
   -5.7372   -5.2847    0.9464 C   0  0  0  0  0  0  0  0  0  0  0  0
   -6.0580   -3.9769    1.3027 C   0  0  0  0  0  0  0  0  0  0  0  0
   -5.0932   -2.9701    1.2155 C   0  0  0  0  0  0  0  0  0  0  0  0
   -3.0691   -0.8781    0.3558 C   0  0  0  0  0  0  0  0  0  0  0  0
   -4.2440   -0.4011   -0.0525 O   0  0  0  0  0  0  0  0  0  0  0  0
    0.4099   -0.4189    1.0070 C   0  0  1  0  0  0  0  0  0  0  0  0
    1.6563   -1.0262    0.3650 C   0  0  0  0  0  0  0  0  0  0  0  0
    2.7542   -0.0537    0.2359 N   0  0  0  0  0  0  0  0  0  0  0  0
    3.9758   -0.5118   -0.2149 C   0  0  0  0  0  0  0  0  0  0  0  0
    4.1632   -1.6643   -0.5841 O   0  0  0  0  0  0  0  0  0  0  0  0
    4.9282    0.4538   -0.1875 O   0  0  0  0  0  0  0  0  0  0  0  0
    6.2827    0.1830   -0.6298 C   0  0  0  0  0  0  0  0  0  0  0  0
    6.9529   -0.8840    0.2423 C   0  0  0  0  0  0  0  0  0  0  0  0
    7.0268    1.5130   -0.4348 C   0  0  0  0  0  0  0  0  0  0  0  0
    6.3194   -0.1849   -2.1171 C   0  0  0  0  0  0  0  0  0  0  0  0
    2.5414    1.2991    0.7781 C   0  0  0  0  0  0  0  0  0  0  0  0
    1.1259    1.8841    0.5079 C   0  0  0  0  0  0  0  0  0  0  0  0
    0.1216    0.8584    0.3117 N   0  0  0  0  0  0  0  0  0  0  0  0
   -4.3505    5.6316   -1.7116 H   0  0  0  0  0  0  0  0  0  0  0  0
   -3.1953    5.7888   -0.3804 H   0  0  0  0  0  0  0  0  0  0  0  0
   -4.6955    4.8432   -0.1672 H   0  0  0  0  0  0  0  0  0  0  0  0
   -3.5762    4.1583   -3.4271 H   0  0  0  0  0  0  0  0  0  0  0  0
   -2.3795    2.1327   -4.1639 H   0  0  0  0  0  0  0  0  0  0  0  0
   -1.2799    0.6303   -2.5071 H   0  0  0  0  0  0  0  0  0  0  0  0
   -2.8639    3.9002    1.4999 H   0  0  0  0  0  0  0  0  0  0  0  0
    0.0692   -3.3876    1.4064 H   0  0  0  0  0  0  0  0  0  0  0  0
   -2.4907   -4.8589    0.0647 H   0  0  0  0  0  0  0  0  0  0  0  0
   -4.1937   -6.6114    0.2399 H   0  0  0  0  0  0  0  0  0  0  0  0
   -6.4878   -6.0678    1.0178 H   0  0  0  0  0  0  0  0  0  0  0  0
   -7.0558   -3.7425    1.6652 H   0  0  0  0  0  0  0  0  0  0  0  0
   -5.3606   -1.9727    1.5586 H   0  0  0  0  0  0  0  0  0  0  0  0
   -4.7583   -1.1325   -0.4387 H   0  0  0  0  0  0  0  0  0  0  0  0
    0.5736   -0.2387    2.0785 H   0  0  0  0  0  0  0  0  0  0  0  0
    2.0131   -1.8757    0.9604 H   0  0  0  0  0  0  0  0  0  0  0  0
    1.4431   -1.4103   -0.6415 H   0  0  0  0  0  0  0  0  0  0  0  0
    6.5202   -1.8757    0.0794 H   0  0  0  0  0  0  0  0  0  0  0  0
    6.8237   -0.6556    1.3064 H   0  0  0  0  0  0  0  0  0  0  0  0
    8.0245   -0.9568    0.0288 H   0  0  0  0  0  0  0  0  0  0  0  0
    6.5527    2.3140   -1.0142 H   0  0  0  0  0  0  0  0  0  0  0  0
    6.9915    1.8289    0.6144 H   0  0  0  0  0  0  0  0  0  0  0  0
    8.0766    1.4412   -0.7388 H   0  0  0  0  0  0  0  0  0  0  0  0
    5.7602    0.5456   -2.7118 H   0  0  0  0  0  0  0  0  0  0  0  0
    5.8628   -1.1602   -2.3084 H   0  0  0  0  0  0  0  0  0  0  0  0
    7.3475   -0.2261   -2.4926 H   0  0  0  0  0  0  0  0  0  0  0  0
    2.6935    1.2112    1.8612 H   0  0  0  0  0  0  0  0  0  0  0  0
    3.2973    1.9953    0.4020 H   0  0  0  0  0  0  0  0  0  0  0  0
    1.1726    2.4969   -0.3997 H   0  0  0  0  0  0  0  0  0  0  0  0
    0.8813    2.5588    1.3353 H   0  0  0  0  0  0  0  0  0  0  0  0
  1  2  1  0
  2  3  2  0
  3  4  1  0
  4  5  2  0
  5  6  1  0
  6  7  2  0
  7  8  1  0
  8  9  1  0
  9 10  2  0
  9 11  1  0
 11 12  1  0
 12 13  1  0
 13 14  2  0
 14 15  1  0
 14 16  1  0
 16 17  1  0
 17 18  2  0
 18 19  1  0
 19 20  2  0
 20 21  1  0
 21 22  2  0
 16 23  1  0
 23 24  1  0
 13 25  1  0
 25 26  1  0
 26 27  1  0
 27 28  1  0
 28 29  2  0
 28 30  1  0
 30 31  1  0
 31 32  1  0
 31 33  1  0
 31 34  1  0
 27 35  1  0
 35 36  1  0
 36 37  1  0
  7  2  1  0
 11 37  1  6
 11  6  1  0
 23 12  2  0
 37 25  1  0
 22 17  1  0
  1 38  1  0
  1 39  1  0
  1 40  1  0
  3 41  1  0
  4 42  1  0
  5 43  1  0
  8 44  1  0
 15 45  1  0
 18 46  1  0
 19 47  1  0
 20 48  1  0
 21 49  1  0
 22 50  1  0
 24 51  1  0
 25 52  1  1
 26 53  1  0
 26 54  1  0
 32 55  1  0
 32 56  1  0
 32 57  1  0
 33 58  1  0
 33 59  1  0
 33 60  1  0
 34 61  1  0
 34 62  1  0
 34 63  1  0
 35 64  1  0
 35 65  1  0
 36 66  1  0
 36 67  1  0
M  END
$$$$
