
     RDKit          3D

 40 42  0  0  0  0  0  0  0  0999 V2000
   -5.8262    1.2078    1.2315 C   0  0  0  0  0  0  0  0  0  0  0  0
   -5.4327   -0.1598    0.6437 C   0  0  0  0  0  0  0  0  0  0  0  0
   -6.0658   -1.2572    1.5264 C   0  0  0  0  0  0  0  0  0  0  0  0
   -6.0111   -0.3006   -0.7764 C   0  0  0  0  0  0  0  0  0  0  0  0
   -3.9198   -0.3212    0.6258 C   0  0  0  0  0  0  0  0  0  0  0  0
   -3.2559   -1.2613    1.2722 N   0  0  0  0  0  0  0  0  0  0  0  0
   -1.8932   -1.1728    1.0802 N   0  0  0  0  0  0  0  0  0  0  0  0
   -1.5663   -0.1712    0.2963 C   0  0  0  0  0  0  0  0  0  0  0  0
   -0.2657    0.1045   -0.0310 N   0  0  0  0  0  0  0  0  0  0  0  0
    0.2027    1.1163   -0.8356 C   0  0  0  0  0  0  0  0  0  0  0  0
   -0.4641    1.9685   -1.4156 O   0  0  0  0  0  0  0  0  0  0  0  0
    1.7290    1.1084   -0.9704 C   0  0  0  0  0  0  0  0  0  0  0  0
    2.3072    0.0416   -0.2208 O   0  0  0  0  0  0  0  0  0  0  0  0
    3.6709   -0.0733   -0.2604 C   0  0  0  0  0  0  0  0  0  0  0  0
    4.1855   -1.1448    0.4982 C   0  0  0  0  0  0  0  0  0  0  0  0
    5.5604   -1.3938    0.5585 C   0  0  0  0  0  0  0  0  0  0  0  0
    6.3897   -0.5546   -0.1495 C   0  0  0  0  0  0  0  0  0  0  0  0
    5.8931    0.4913   -0.8905 C   0  0  0  0  0  0  0  0  0  0  0  0
    4.5407    0.7607   -0.9682 C   0  0  0  0  0  0  0  0  0  0  0  0
    6.8763    1.1972   -1.5125 O   0  0  0  0  0  0  0  0  0  0  0  0
    8.0474    0.4745   -1.0771 C   0  0  0  0  0  0  0  0  0  0  0  0
    7.7446   -0.6390   -0.2113 O   0  0  0  0  0  0  0  0  0  0  0  0
   -2.8886    0.7377   -0.2660 S   0  0  0  0  0  0  0  0  0  0  0  0
   -5.4028    1.3462    2.2334 H   0  0  0  0  0  0  0  0  0  0  0  0
   -6.9152    1.3038    1.3129 H   0  0  0  0  0  0  0  0  0  0  0  0
   -5.4744    2.0376    0.6082 H   0  0  0  0  0  0  0  0  0  0  0  0
   -5.8310   -2.2595    1.1485 H   0  0  0  0  0  0  0  0  0  0  0  0
   -7.1575   -1.1628    1.5559 H   0  0  0  0  0  0  0  0  0  0  0  0
   -5.7013   -1.1998    2.5590 H   0  0  0  0  0  0  0  0  0  0  0  0
   -5.7215   -1.2558   -1.2302 H   0  0  0  0  0  0  0  0  0  0  0  0
   -7.1062   -0.2558   -0.7627 H   0  0  0  0  0  0  0  0  0  0  0  0
   -5.6633    0.4982   -1.4409 H   0  0  0  0  0  0  0  0  0  0  0  0
    0.4160   -0.5243    0.3795 H   0  0  0  0  0  0  0  0  0  0  0  0
    1.9560    0.9877   -2.0360 H   0  0  0  0  0  0  0  0  0  0  0  0
    2.0889    2.0729   -0.5940 H   0  0  0  0  0  0  0  0  0  0  0  0
    3.5045   -1.7915    1.0477 H   0  0  0  0  0  0  0  0  0  0  0  0
    5.9590   -2.2166    1.1407 H   0  0  0  0  0  0  0  0  0  0  0  0
    4.2081    1.5982   -1.5676 H   0  0  0  0  0  0  0  0  0  0  0  0
    8.5757    0.0983   -1.9608 H   0  0  0  0  0  0  0  0  0  0  0  0
    8.7070    1.1666   -0.5410 H   0  0  0  0  0  0  0  0  0  0  0  0
  1  2  1  0
  2  3  1  0
  2  4  1  0
  2  5  1  0
  5  6  2  0
  6  7  1  0
  7  8  2  0
  8  9  1  0
  9 10  1  0
 10 11  2  0
 10 12  1  0
 12 13  1  0
 13 14  1  0
 14 15  2  0
 15 16  1  0
 16 17  2  0
 17 18  1  0
 18 19  2  0
 18 20  1  0
 20 21  1  0
 21 22  1  0
  8 23  1  0
 23  5  1  0
 19 14  1  0
 22 17  1  0
  1 24  1  0
  1 25  1  0
  1 26  1  0
  3 27  1  0
  3 28  1  0
  3 29  1  0
  4 30  1  0
  4 31  1  0
  4 32  1  0
  9 33  1  0
 12 34  1  0
 12 35  1  0
 15 36  1  0
 16 37  1  0
 19 38  1  0
 21 39  1  0
 21 40  1  0
M  END
$$$$
