
     RDKit          3D

 55 60  0  0  0  0  0  0  0  0999 V2000
   -3.3561    3.2103   -1.2462 O   0  0  0  0  0  0  0  0  0  0  0  0
   -3.5992    2.1725   -0.6311 C   0  0  0  0  0  0  0  0  0  0  0  0
   -4.8799    2.0013    0.0406 C   0  0  0  0  0  0  0  0  0  0  0  0
   -5.6743    0.8419    0.2865 C   0  0  0  0  0  0  0  0  0  0  0  0
   -6.8105    1.2698    0.9327 C   0  0  0  0  0  0  0  0  0  0  0  0
   -6.7875    2.6168    1.0852 O   0  0  0  0  0  0  0  0  0  0  0  0
   -5.6312    3.0547    0.5273 C   0  0  0  0  0  0  0  0  0  0  0  0
   -2.6624    1.1336   -0.5712 N   0  0  0  0  0  0  0  0  0  0  0  0
   -2.6315    0.1227    0.4862 C   0  0  0  0  0  0  0  0  0  0  0  0
   -1.2000   -0.2276    0.8864 C   0  0  0  0  0  0  0  0  0  0  0  0
   -0.4031   -0.8042   -0.3146 C   0  0  0  0  0  0  0  0  0  0  0  0
   -0.7910   -0.0821   -1.6346 C   0  0  0  0  0  0  0  0  0  0  0  0
   -1.4746    1.2603   -1.4053 C   0  0  0  0  0  0  0  0  0  0  0  0
   -0.9054   -2.1697   -0.4048 O   0  0  0  0  0  0  0  0  0  0  0  0
   -0.1450   -3.0889   -1.0629 C   0  0  0  0  0  0  0  0  0  0  0  0
   -0.7715   -4.3009   -1.3607 C   0  0  0  0  0  0  0  0  0  0  0  0
   -0.0777   -5.2953   -2.0523 C   0  0  0  0  0  0  0  0  0  0  0  0
    1.2397   -5.0717   -2.4389 C   0  0  0  0  0  0  0  0  0  0  0  0
    1.9003   -6.0259   -3.1063 F   0  0  0  0  0  0  0  0  0  0  0  0
    1.8797   -3.8766   -2.1400 C   0  0  0  0  0  0  0  0  0  0  0  0
    1.1796   -2.8912   -1.4385 C   0  0  0  0  0  0  0  0  0  0  0  0
    1.8309   -1.6244   -1.0854 C   0  0  0  0  0  0  0  0  0  0  0  0
    2.8742   -1.3014   -1.6476 O   0  0  0  0  0  0  0  0  0  0  0  0
    1.1259   -0.7788   -0.0296 C   0  0  0  0  0  0  0  0  0  0  0  0
    1.7494    0.6074    0.0612 C   0  0  0  0  0  0  0  0  0  0  0  0
    2.6870    0.3647    1.1953 C   0  0  0  0  0  0  0  0  0  0  0  0
    3.7605    1.3237    1.5480 C   0  0  0  0  0  0  0  0  0  0  0  0
    3.8990    2.5471    0.8824 C   0  0  0  0  0  0  0  0  0  0  0  0
    4.9205    3.4293    1.2454 C   0  0  0  0  0  0  0  0  0  0  0  0
    5.8037    3.0954    2.2713 C   0  0  0  0  0  0  0  0  0  0  0  0
    5.6690    1.8794    2.9384 C   0  0  0  0  0  0  0  0  0  0  0  0
    4.6500    0.9954    2.5790 C   0  0  0  0  0  0  0  0  0  0  0  0
    2.4625   -0.7235    1.8612 N   0  0  0  0  0  0  0  0  0  0  0  0
    1.3820   -1.3898    1.2457 O   0  0  0  0  0  0  0  0  0  0  0  0
   -5.4593   -0.1801    0.0107 H   0  0  0  0  0  0  0  0  0  0  0  0
   -7.6903    0.7708    1.3152 H   0  0  0  0  0  0  0  0  0  0  0  0
   -5.4762    4.1252    0.5498 H   0  0  0  0  0  0  0  0  0  0  0  0
   -3.1649    0.4870    1.3696 H   0  0  0  0  0  0  0  0  0  0  0  0
   -3.1510   -0.7650    0.1094 H   0  0  0  0  0  0  0  0  0  0  0  0
   -1.2387   -0.9599    1.7030 H   0  0  0  0  0  0  0  0  0  0  0  0
   -0.7276    0.6743    1.2890 H   0  0  0  0  0  0  0  0  0  0  0  0
   -1.4730   -0.7158   -2.2179 H   0  0  0  0  0  0  0  0  0  0  0  0
    0.0864    0.0754   -2.2723 H   0  0  0  0  0  0  0  0  0  0  0  0
   -1.7557    1.6967   -2.3710 H   0  0  0  0  0  0  0  0  0  0  0  0
   -0.7979    1.9712   -0.9184 H   0  0  0  0  0  0  0  0  0  0  0  0
   -1.8026   -4.4701   -1.0597 H   0  0  0  0  0  0  0  0  0  0  0  0
   -0.5552   -6.2405   -2.2927 H   0  0  0  0  0  0  0  0  0  0  0  0
    2.9121   -3.7278   -2.4428 H   0  0  0  0  0  0  0  0  0  0  0  0
    2.2602    0.9292   -0.8491 H   0  0  0  0  0  0  0  0  0  0  0  0
    1.0508    1.3879    0.3698 H   0  0  0  0  0  0  0  0  0  0  0  0
    3.2278    2.8400    0.0813 H   0  0  0  0  0  0  0  0  0  0  0  0
    5.0287    4.3789    0.7267 H   0  0  0  0  0  0  0  0  0  0  0  0
    6.5983    3.7830    2.5509 H   0  0  0  0  0  0  0  0  0  0  0  0
    6.3572    1.6167    3.7380 H   0  0  0  0  0  0  0  0  0  0  0  0
    4.5577    0.0484    3.1075 H   0  0  0  0  0  0  0  0  0  0  0  0
  1  2  2  0
  2  3  1  0
  3  4  1  0
  4  5  2  0
  5  6  1  0
  6  7  1  0
  2  8  1  0
  8  9  1  0
  9 10  1  0
 10 11  1  0
 11 12  1  0
 12 13  1  0
 11 14  1  0
 14 15  1  0
 15 16  2  0
 16 17  1  0
 17 18  2  0
 18 19  1  0
 18 20  1  0
 20 21  2  0
 21 22  1  0
 22 23  2  0
 22 24  1  0
 24 25  1  0
 25 26  1  0
 26 27  1  0
 27 28  2  0
 28 29  1  0
 29 30  2  0
 30 31  1  0
 31 32  2  0
 26 33  2  0
 33 34  1  0
  7  3  2  0
 13  8  1  0
 21 15  1  0
 34 24  1  0
 24 11  1  0
 32 27  1  0
  4 35  1  0
  5 36  1  0
  7 37  1  0
  9 38  1  0
  9 39  1  0
 10 40  1  0
 10 41  1  0
 12 42  1  0
 12 43  1  0
 13 44  1  0
 13 45  1  0
 16 46  1  0
 17 47  1  0
 20 48  1  0
 25 49  1  0
 25 50  1  0
 28 51  1  0
 29 52  1  0
 30 53  1  0
 31 54  1  0
 32 55  1  0
M  END
$$$$
