
     RDKit          3D

 36 37  0  0  0  0  0  0  0  0999 V2000
   -2.0245    1.9194    2.6833 O   0  0  0  0  0  0  0  0  0  0  0  0
   -1.1922    1.2745    2.0497 C   0  0  0  0  0  0  0  0  0  0  0  0
   -0.4670    0.0643    2.6343 C   0  0  0  0  0  0  0  0  0  0  0  0
    0.7145   -0.2285    1.8801 O   0  0  0  0  0  0  0  0  0  0  0  0
    1.2483   -1.4427    2.1347 C   0  0  0  0  0  0  0  0  0  0  0  0
    0.8708   -2.2438    2.9725 O   0  0  0  0  0  0  0  0  0  0  0  0
    2.4696   -1.6345    1.3255 C   0  0  0  0  0  0  0  0  0  0  0  0
    3.5923   -2.1227    2.0164 C   0  0  0  0  0  0  0  0  0  0  0  0
    4.7969   -2.3288    1.3488 C   0  0  0  0  0  0  0  0  0  0  0  0
    4.8841   -2.0554   -0.0138 C   0  0  0  0  0  0  0  0  0  0  0  0
    3.7652   -1.5875   -0.7140 C   0  0  0  0  0  0  0  0  0  0  0  0
    3.9695   -1.2920   -2.4080 Cl  0  0  0  0  0  0  0  0  0  0  0  0
    2.5426   -1.3787   -0.0533 C   0  0  0  0  0  0  0  0  0  0  0  0
    1.1490   -0.8654   -0.9541 Cl  0  0  0  0  0  0  0  0  0  0  0  0
   -0.8640    1.5626    0.7396 N   0  0  0  0  0  0  0  0  0  0  0  0
   -1.6276    2.5193   -0.0342 C   0  0  0  0  0  0  0  0  0  0  0  0
   -2.9899    1.9698   -0.4871 C   0  0  0  0  0  0  0  0  0  0  0  0
   -2.8658    0.8918   -1.4589 N   0  0  0  0  0  0  0  0  0  0  0  0
   -2.6647    1.0650   -2.8084 C   0  0  0  0  0  0  0  0  0  0  0  0
   -2.7106    2.2999   -3.3805 O   0  0  0  0  0  0  0  0  0  0  0  0
   -2.4237   -0.0583   -3.4894 C   0  0  0  0  0  0  0  0  0  0  0  0
   -2.4481   -1.4469   -2.4522 S   0  0  0  0  0  0  0  0  0  0  0  0
   -2.7404   -0.4280   -1.0305 C   0  0  0  0  0  0  0  0  0  0  0  0
   -2.7849   -0.8621    0.1085 O   0  0  0  0  0  0  0  0  0  0  0  0
   -0.1781    0.3040    3.6629 H   0  0  0  0  0  0  0  0  0  0  0  0
   -1.1652   -0.7799    2.6136 H   0  0  0  0  0  0  0  0  0  0  0  0
    3.5262   -2.3412    3.0821 H   0  0  0  0  0  0  0  0  0  0  0  0
    5.6642   -2.7029    1.8888 H   0  0  0  0  0  0  0  0  0  0  0  0
    5.8276   -2.2178   -0.5314 H   0  0  0  0  0  0  0  0  0  0  0  0
   -0.2892    0.8790    0.2554 H   0  0  0  0  0  0  0  0  0  0  0  0
   -1.0131    2.8037   -0.8945 H   0  0  0  0  0  0  0  0  0  0  0  0
   -1.7858    3.4107    0.5828 H   0  0  0  0  0  0  0  0  0  0  0  0
   -3.5463    1.5896    0.3779 H   0  0  0  0  0  0  0  0  0  0  0  0
   -3.5939    2.7755   -0.9162 H   0  0  0  0  0  0  0  0  0  0  0  0
   -3.4068    2.8038   -2.9308 H   0  0  0  0  0  0  0  0  0  0  0  0
   -2.2388   -0.1161   -4.5526 H   0  0  0  0  0  0  0  0  0  0  0  0
  1  2  2  0
  2  3  1  0
  3  4  1  0
  4  5  1  0
  5  6  2  0
  5  7  1  0
  7  8  2  0
  8  9  1  0
  9 10  2  0
 10 11  1  0
 11 12  1  0
 11 13  2  0
 13 14  1  0
  2 15  1  0
 15 16  1  0
 16 17  1  0
 17 18  1  0
 18 19  1  0
 19 20  1  0
 19 21  2  0
 21 22  1  0
 22 23  1  0
 23 24  2  0
 13  7  1  0
 23 18  1  0
  3 25  1  0
  3 26  1  0
  8 27  1  0
  9 28  1  0
 10 29  1  0
 15 30  1  0
 16 31  1  0
 16 32  1  0
 17 33  1  0
 17 34  1  0
 20 35  1  0
 21 36  1  0
M  END
$$$$
