
     RDKit          3D

 52 54  0  0  0  0  0  0  0  0999 V2000
   -0.8978   -0.9964   -1.5513 C   0  0  0  0  0  0  0  0  0  0  0  0
   -1.6217   -0.7368   -0.3134 N   0  0  0  0  0  0  0  0  0  0  0  0
   -1.7663    0.6633    0.0825 C   0  0  0  0  0  0  0  0  0  0  0  0
   -2.8505    1.3759   -0.6901 C   0  0  0  0  0  0  0  0  0  0  0  0
   -4.2013    1.1138   -0.4282 C   0  0  0  0  0  0  0  0  0  0  0  0
   -5.2018    1.7771   -1.1382 C   0  0  0  0  0  0  0  0  0  0  0  0
   -4.8598    2.7059   -2.1201 C   0  0  0  0  0  0  0  0  0  0  0  0
   -3.5184    2.9742   -2.3915 C   0  0  0  0  0  0  0  0  0  0  0  0
   -2.5172    2.3112   -1.6816 C   0  0  0  0  0  0  0  0  0  0  0  0
   -2.0700   -1.7198    0.5623 C   0  0  0  0  0  0  0  0  0  0  0  0
   -2.7241   -1.4487    1.5692 O   0  0  0  0  0  0  0  0  0  0  0  0
   -1.7423   -3.1841    0.2323 C   0  0  0  0  0  0  0  0  0  0  0  0
   -0.3690   -3.4628   -0.0521 O   0  0  0  0  0  0  0  0  0  0  0  0
    0.4698   -3.3164    1.0080 C   0  0  0  0  0  0  0  0  0  0  0  0
    0.1310   -3.0030    2.1452 O   0  0  0  0  0  0  0  0  0  0  0  0
    1.9003   -3.6166    0.5961 C   0  0  0  0  0  0  0  0  0  0  0  0
    2.8064   -3.1659    1.6525 N   0  0  0  0  0  0  0  0  0  0  0  0
    4.1796   -2.3016    1.2983 S   0  0  0  0  0  6  0  0  0  0  0  0
    4.8064   -1.9644    2.5551 O   0  0  0  0  0  0  0  0  0  0  0  0
    4.8790   -3.0225    0.2589 O   0  0  0  0  0  0  0  0  0  0  0  0
    3.5375   -0.7997    0.5981 C   0  0  0  0  0  0  0  0  0  0  0  0
    3.8731   -0.4367   -0.7060 C   0  0  0  0  0  0  0  0  0  0  0  0
    3.3717    0.7531   -1.2373 C   0  0  0  0  0  0  0  0  0  0  0  0
    2.5419    1.5892   -0.4698 C   0  0  0  0  0  0  0  0  0  0  0  0
    2.0350    2.7923   -0.9894 C   0  0  0  0  0  0  0  0  0  0  0  0
    1.2231    3.6183   -0.2114 C   0  0  0  0  0  0  0  0  0  0  0  0
    0.9102    3.2554    1.0952 C   0  0  0  0  0  0  0  0  0  0  0  0
    1.3995    2.0626    1.6280 C   0  0  0  0  0  0  0  0  0  0  0  0
    2.2136    1.2182    0.8578 C   0  0  0  0  0  0  0  0  0  0  0  0
    2.7095    0.0165    1.3807 C   0  0  0  0  0  0  0  0  0  0  0  0
   -1.1278   -1.9867   -1.9468 H   0  0  0  0  0  0  0  0  0  0  0  0
    0.1747   -0.9201   -1.3396 H   0  0  0  0  0  0  0  0  0  0  0  0
   -1.1729   -0.2586   -2.3107 H   0  0  0  0  0  0  0  0  0  0  0  0
   -0.7961    1.1514   -0.0777 H   0  0  0  0  0  0  0  0  0  0  0  0
   -1.9786    0.7549    1.1559 H   0  0  0  0  0  0  0  0  0  0  0  0
   -4.4776    0.3928    0.3362 H   0  0  0  0  0  0  0  0  0  0  0  0
   -6.2480    1.5708   -0.9227 H   0  0  0  0  0  0  0  0  0  0  0  0
   -5.6394    3.2262   -2.6678 H   0  0  0  0  0  0  0  0  0  0  0  0
   -3.2543    3.7024   -3.1534 H   0  0  0  0  0  0  0  0  0  0  0  0
   -1.4764    2.5330   -1.8991 H   0  0  0  0  0  0  0  0  0  0  0  0
   -2.3348   -3.4713   -0.6430 H   0  0  0  0  0  0  0  0  0  0  0  0
   -2.0784   -3.8247    1.0577 H   0  0  0  0  0  0  0  0  0  0  0  0
    2.0057   -4.7003    0.4756 H   0  0  0  0  0  0  0  0  0  0  0  0
    2.1123   -3.1202   -0.3560 H   0  0  0  0  0  0  0  0  0  0  0  0
    2.4640   -3.1407    2.6197 H   0  0  0  0  0  0  0  0  0  0  0  0
    4.5309   -1.0585   -1.3087 H   0  0  0  0  0  0  0  0  0  0  0  0
    3.6453    1.0318   -2.2537 H   0  0  0  0  0  0  0  0  0  0  0  0
    2.2760    3.1015   -2.0045 H   0  0  0  0  0  0  0  0  0  0  0  0
    0.8387    4.5494   -0.6265 H   0  0  0  0  0  0  0  0  0  0  0  0
    0.2814    3.8987    1.7034 H   0  0  0  0  0  0  0  0  0  0  0  0
    1.1402    1.7965    2.6513 H   0  0  0  0  0  0  0  0  0  0  0  0
    2.4677   -0.2797    2.4013 H   0  0  0  0  0  0  0  0  0  0  0  0
  1  2  1  0
  2  3  1  0
  3  4  1  0
  4  5  2  0
  5  6  1  0
  6  7  2  0
  7  8  1  0
  8  9  2  0
  2 10  1  0
 10 11  2  0
 10 12  1  0
 12 13  1  0
 13 14  1  0
 14 15  2  0
 14 16  1  0
 16 17  1  0
 17 18  1  0
 18 19  2  0
 18 20  2  0
 18 21  1  0
 21 22  2  0
 22 23  1  0
 23 24  2  0
 24 25  1  0
 25 26  2  0
 26 27  1  0
 27 28  2  0
 28 29  1  0
 29 30  2  0
  9  4  1  0
 30 21  1  0
 29 24  1  0
  1 31  1  0
  1 32  1  0
  1 33  1  0
  3 34  1  0
  3 35  1  0
  5 36  1  0
  6 37  1  0
  7 38  1  0
  8 39  1  0
  9 40  1  0
 12 41  1  0
 12 42  1  0
 16 43  1  0
 16 44  1  0
 17 45  1  0
 22 46  1  0
 23 47  1  0
 25 48  1  0
 26 49  1  0
 27 50  1  0
 28 51  1  0
 30 52  1  0
M  END
$$$$
