
     RDKit          3D

 47 48  0  0  0  0  0  0  0  0999 V2000
    4.3353    3.1252    4.4207 C   0  0  0  0  0  0  0  0  0  0  0  0
    3.5965    1.8716    3.9952 C   0  0  0  0  0  0  0  0  0  0  0  0
    2.9948    2.1197    2.7178 O   0  0  0  0  0  0  0  0  0  0  0  0
    2.2927    1.0744    2.2095 C   0  0  0  0  0  0  0  0  0  0  0  0
    2.1597   -0.0098    2.7603 O   0  0  0  0  0  0  0  0  0  0  0  0
    1.7071    1.4280    0.8852 C   0  0  0  0  0  0  0  0  0  0  0  0
    1.8978    2.7421    0.3822 C   0  0  0  0  0  0  0  0  0  0  0  0
    2.0549    3.8116   -0.0423 N   0  0  0  0  0  0  0  0  0  0  0  0
    0.9928    0.4666    0.2643 C   0  0  0  0  0  0  0  0  0  0  0  0
    0.2901    0.4666   -1.0271 C   0  0  0  0  0  0  0  0  0  0  0  0
   -0.7355   -0.3968   -1.2714 C   0  0  0  0  0  0  0  0  0  0  0  0
   -1.2800   -1.2078   -0.2535 N   0  0  0  0  0  0  0  0  0  0  0  0
   -1.3978   -2.6748   -0.3492 C   0  0  0  0  0  0  0  0  0  0  0  0
   -1.5721   -3.2818    1.0516 C   0  0  0  0  0  0  0  0  0  0  0  0
   -2.7639   -2.8377    1.7196 O   0  0  0  0  0  0  0  0  0  0  0  0
   -3.1821   -1.5244    1.3163 C   0  0  0  0  0  0  0  0  0  0  0  0
   -2.0220   -0.6135    0.8867 C   0  0  0  0  0  0  0  0  0  0  0  0
   -1.4125   -0.4410   -2.6788 C   0  0  0  0  0  0  0  0  0  0  0  0
   -1.0890   -1.7314   -3.4517 C   0  0  0  0  0  0  0  0  0  0  0  0
   -2.9378   -0.2862   -2.5639 C   0  0  0  0  0  0  0  0  0  0  0  0
   -1.0175    0.6747   -3.5093 O   0  0  0  0  0  0  0  0  0  0  0  0
    0.3817    0.9135   -3.5024 C   0  0  0  0  0  0  0  0  0  0  0  0
    0.7998    1.3789   -2.1195 C   0  0  0  0  0  0  0  0  0  0  0  0
    4.8135    2.9850    5.3941 H   0  0  0  0  0  0  0  0  0  0  0  0
    5.1018    3.3894    3.6847 H   0  0  0  0  0  0  0  0  0  0  0  0
    3.6478    3.9752    4.4833 H   0  0  0  0  0  0  0  0  0  0  0  0
    4.3003    1.0355    3.9155 H   0  0  0  0  0  0  0  0  0  0  0  0
    2.8191    1.6322    4.7293 H   0  0  0  0  0  0  0  0  0  0  0  0
    0.8947   -0.4893    0.7856 H   0  0  0  0  0  0  0  0  0  0  0  0
   -2.2691   -2.9325   -0.9599 H   0  0  0  0  0  0  0  0  0  0  0  0
   -0.4994   -3.0926   -0.8161 H   0  0  0  0  0  0  0  0  0  0  0  0
   -0.7176   -3.0272    1.6896 H   0  0  0  0  0  0  0  0  0  0  0  0
   -1.6207   -4.3733    0.9871 H   0  0  0  0  0  0  0  0  0  0  0  0
   -3.9008   -1.6412    0.4970 H   0  0  0  0  0  0  0  0  0  0  0  0
   -3.7191   -1.0782    2.1594 H   0  0  0  0  0  0  0  0  0  0  0  0
   -1.3321   -0.4882    1.7287 H   0  0  0  0  0  0  0  0  0  0  0  0
   -2.4164    0.3724    0.6153 H   0  0  0  0  0  0  0  0  0  0  0  0
   -1.3252   -1.6148   -4.5162 H   0  0  0  0  0  0  0  0  0  0  0  0
   -1.6504   -2.5935   -3.0828 H   0  0  0  0  0  0  0  0  0  0  0  0
   -0.0239   -1.9806   -3.3912 H   0  0  0  0  0  0  0  0  0  0  0  0
   -3.1964    0.6412   -2.0389 H   0  0  0  0  0  0  0  0  0  0  0  0
   -3.4086   -1.1216   -2.0376 H   0  0  0  0  0  0  0  0  0  0  0  0
   -3.3963   -0.2144   -3.5577 H   0  0  0  0  0  0  0  0  0  0  0  0
    0.9348    0.0230   -3.8202 H   0  0  0  0  0  0  0  0  0  0  0  0
    0.5921    1.6994   -4.2355 H   0  0  0  0  0  0  0  0  0  0  0  0
    1.8934    1.4462   -2.1046 H   0  0  0  0  0  0  0  0  0  0  0  0
    0.3857    2.3800   -1.9492 H   0  0  0  0  0  0  0  0  0  0  0  0
  1  2  1  0
  2  3  1  0
  3  4  1  0
  4  5  2  0
  4  6  1  0
  6  7  1  0
  7  8  3  0
  6  9  2  3
  9 10  1  0
 10 11  2  0
 11 12  1  0
 12 13  1  0
 13 14  1  0
 14 15  1  0
 15 16  1  0
 16 17  1  0
 11 18  1  0
 18 19  1  0
 18 20  1  0
 18 21  1  0
 21 22  1  0
 22 23  1  0
 23 10  1  0
 17 12  1  0
  1 24  1  0
  1 25  1  0
  1 26  1  0
  2 27  1  0
  2 28  1  0
  9 29  1  0
 13 30  1  0
 13 31  1  0
 14 32  1  0
 14 33  1  0
 16 34  1  0
 16 35  1  0
 17 36  1  0
 17 37  1  0
 19 38  1  0
 19 39  1  0
 19 40  1  0
 20 41  1  0
 20 42  1  0
 20 43  1  0
 22 44  1  0
 22 45  1  0
 23 46  1  0
 23 47  1  0
M  END
$$$$
