
     RDKit          3D

 36 37  0  0  0  0  0  0  0  0999 V2000
    6.5108    0.5643    1.4711 C   0  0  0  0  0  0  0  0  0  0  0  0
    5.1103    0.4579    1.2136 O   0  0  0  0  0  0  0  0  0  0  0  0
    4.8078    0.1731   -0.0781 C   0  0  0  0  0  0  0  0  0  0  0  0
    5.6152    0.0119   -0.9802 O   0  0  0  0  0  0  0  0  0  0  0  0
    3.3345    0.0785   -0.2669 C   0  0  0  0  0  0  0  0  0  0  0  0
    2.8496   -0.2111   -1.5492 C   0  0  0  0  0  0  0  0  0  0  0  0
    1.4742   -0.3112   -1.7813 C   0  0  0  0  0  0  0  0  0  0  0  0
    0.5593   -0.1234   -0.7350 C   0  0  0  0  0  0  0  0  0  0  0  0
   -0.9305   -0.2305   -0.9801 C   0  0  0  0  0  0  0  0  0  0  0  0
   -1.4396   -1.2830   -0.1636 O   0  0  0  0  0  0  0  0  0  0  0  0
   -2.8443   -1.4334   -0.3402 C   0  0  0  0  0  0  0  0  0  0  0  0
   -3.5814   -0.1252   -0.0193 C   0  0  0  0  0  0  0  0  0  0  0  0
   -3.4393    0.1978    1.4803 C   0  0  0  0  0  0  0  0  0  0  0  0
   -5.0682   -0.2545   -0.3698 C   0  0  0  0  0  0  0  0  0  0  0  0
   -2.9340    0.9897   -0.8535 C   0  0  0  0  0  0  0  0  0  0  0  0
   -1.5250    1.0236   -0.6523 O   0  0  0  0  0  0  0  0  0  0  0  0
    1.0532    0.1666    0.5477 C   0  0  0  0  0  0  0  0  0  0  0  0
    2.4277    0.2673    0.7826 C   0  0  0  0  0  0  0  0  0  0  0  0
    7.0134   -0.3840    1.2566 H   0  0  0  0  0  0  0  0  0  0  0  0
    6.9482    1.3776    0.8834 H   0  0  0  0  0  0  0  0  0  0  0  0
    6.6435    0.7940    2.5319 H   0  0  0  0  0  0  0  0  0  0  0  0
    3.5427   -0.3604   -2.3753 H   0  0  0  0  0  0  0  0  0  0  0  0
    1.1249   -0.5370   -2.7863 H   0  0  0  0  0  0  0  0  0  0  0  0
   -1.1159   -0.4615   -2.0379 H   0  0  0  0  0  0  0  0  0  0  0  0
   -3.1785   -2.2418    0.3197 H   0  0  0  0  0  0  0  0  0  0  0  0
   -3.0374   -1.7605   -1.3699 H   0  0  0  0  0  0  0  0  0  0  0  0
   -3.8837   -0.5930    2.0952 H   0  0  0  0  0  0  0  0  0  0  0  0
   -2.3916    0.3006    1.7822 H   0  0  0  0  0  0  0  0  0  0  0  0
   -3.9478    1.1362    1.7289 H   0  0  0  0  0  0  0  0  0  0  0  0
   -5.6064    0.6762   -0.1582 H   0  0  0  0  0  0  0  0  0  0  0  0
   -5.2067   -0.4847   -1.4321 H   0  0  0  0  0  0  0  0  0  0  0  0
   -5.5423   -1.0553    0.2086 H   0  0  0  0  0  0  0  0  0  0  0  0
   -3.1343    0.8571   -1.9244 H   0  0  0  0  0  0  0  0  0  0  0  0
   -3.3345    1.9702   -0.5726 H   0  0  0  0  0  0  0  0  0  0  0  0
    0.3545    0.3148    1.3696 H   0  0  0  0  0  0  0  0  0  0  0  0
    2.7716    0.4931    1.7885 H   0  0  0  0  0  0  0  0  0  0  0  0
  1  2  1  0
  2  3  1  0
  3  4  2  0
  3  5  1  0
  5  6  2  0
  6  7  1  0
  7  8  2  0
  8  9  1  0
  9 10  1  0
 10 11  1  0
 11 12  1  0
 12 13  1  0
 12 14  1  0
 12 15  1  0
 15 16  1  0
  8 17  1  0
 17 18  2  0
 18  5  1  0
 16  9  1  0
  1 19  1  0
  1 20  1  0
  1 21  1  0
  6 22  1  0
  7 23  1  0
  9 24  1  0
 11 25  1  0
 11 26  1  0
 13 27  1  0
 13 28  1  0
 13 29  1  0
 14 30  1  0
 14 31  1  0
 14 32  1  0
 15 33  1  0
 15 34  1  0
 17 35  1  0
 18 36  1  0
M  END
$$$$
