
     RDKit          3D

 34 35  0  0  0  0  0  0  0  0999 V2000
    4.9772    0.0080    0.1389 C   0  0  0  0  0  0  0  0  0  0  0  0
    3.9379   -0.9042   -0.4854 C   0  0  0  0  0  0  0  0  0  0  0  0
    2.6363   -0.3111   -0.3810 O   0  0  0  0  0  0  0  0  0  0  0  0
    1.9691   -0.5787    0.7589 C   0  0  0  0  0  0  0  0  0  0  0  0
    2.3388   -1.2156    1.7265 O   0  0  0  0  0  0  0  0  0  0  0  0
    0.6197    0.1190    0.7126 C   0  0  0  0  0  0  0  0  0  0  0  0
   -0.3057   -0.4558    0.0190 N   0  0  0  0  0  0  0  0  0  0  0  0
   -1.5503    0.1351   -0.0560 N   0  0  0  0  0  0  0  0  0  0  0  0
   -2.4879   -0.6119   -0.8638 C   0  0  0  0  0  0  0  0  0  0  0  0
   -3.8104   -0.2013   -1.0889 C   0  0  0  0  0  0  0  0  0  0  0  0
   -4.6885   -0.9560   -1.8803 C   0  0  0  0  0  0  0  0  0  0  0  0
   -4.2650   -2.1424   -2.4671 C   0  0  0  0  0  0  0  0  0  0  0  0
   -2.9620   -2.5760   -2.2632 C   0  0  0  0  0  0  0  0  0  0  0  0
   -2.0880   -1.8200   -1.4728 C   0  0  0  0  0  0  0  0  0  0  0  0
   -1.8468    1.3406    0.5965 C   0  0  0  0  0  0  0  0  0  0  0  0
   -2.9244    1.9330    0.5807 O   0  0  0  0  0  0  0  0  0  0  0  0
   -0.7316    1.9539    1.3823 C   0  0  0  0  0  0  0  0  0  0  0  0
   -1.0173    3.1801    2.0493 C   0  0  0  0  0  0  0  0  0  0  0  0
   -1.1773    4.1807    2.6155 N   0  0  0  0  0  0  0  0  0  0  0  0
    0.4828    1.3857    1.4608 C   0  0  0  0  0  0  0  0  0  0  0  0
    1.6712    1.9110    2.2114 C   0  0  0  0  0  0  0  0  0  0  0  0
    4.9438    1.0008   -0.3218 H   0  0  0  0  0  0  0  0  0  0  0  0
    5.9817   -0.4058    0.0144 H   0  0  0  0  0  0  0  0  0  0  0  0
    4.7861    0.1469    1.2078 H   0  0  0  0  0  0  0  0  0  0  0  0
    3.9584   -1.9023   -0.0327 H   0  0  0  0  0  0  0  0  0  0  0  0
    4.1494   -1.0290   -1.5524 H   0  0  0  0  0  0  0  0  0  0  0  0
   -4.2153    0.7114   -0.6663 H   0  0  0  0  0  0  0  0  0  0  0  0
   -5.7073   -0.6076   -2.0333 H   0  0  0  0  0  0  0  0  0  0  0  0
   -4.9480   -2.7250   -3.0791 H   0  0  0  0  0  0  0  0  0  0  0  0
   -2.6181   -3.5026   -2.7155 H   0  0  0  0  0  0  0  0  0  0  0  0
   -1.0784   -2.2021   -1.3421 H   0  0  0  0  0  0  0  0  0  0  0  0
    1.9620    1.2140    3.0041 H   0  0  0  0  0  0  0  0  0  0  0  0
    2.5218    2.0487    1.5355 H   0  0  0  0  0  0  0  0  0  0  0  0
    1.4862    2.8781    2.6873 H   0  0  0  0  0  0  0  0  0  0  0  0
  1  2  1  0
  2  3  1  0
  3  4  1  0
  4  5  2  0
  4  6  1  0
  6  7  2  0
  7  8  1  0
  8  9  1  0
  9 10  2  0
 10 11  1  0
 11 12  2  0
 12 13  1  0
 13 14  2  0
  8 15  1  0
 15 16  2  0
 15 17  1  0
 17 18  1  0
 18 19  3  0
 17 20  2  0
 20 21  1  0
 20  6  1  0
 14  9  1  0
  1 22  1  0
  1 23  1  0
  1 24  1  0
  2 25  1  0
  2 26  1  0
 10 27  1  0
 11 28  1  0
 12 29  1  0
 13 30  1  0
 14 31  1  0
 21 32  1  0
 21 33  1  0
 21 34  1  0
M  END
$$$$
