
     RDKit          3D

 38 41  0  0  0  0  0  0  0  0999 V2000
   -5.4354    0.7144    3.7448 O   0  0  0  0  0  0  0  0  0  0  0  0
   -5.2808    0.1434    2.6689 C   0  0  0  0  0  0  0  0  0  0  0  0
   -4.1330    0.3391    1.8036 C   0  0  0  0  0  0  0  0  0  0  0  0
   -3.0500    1.1450    2.0955 C   0  0  0  0  0  0  0  0  0  0  0  0
   -2.1632    1.0748    1.0547 N   0  0  0  0  0  0  0  0  0  0  0  0
   -0.9231    1.8334    0.9835 C   0  0  0  0  0  0  0  0  0  0  0  0
    0.3019    0.9552    1.1734 C   0  0  0  0  0  0  0  0  0  0  0  0
    0.4366    0.2586    2.1750 O   0  0  0  0  0  0  0  0  0  0  0  0
    1.2128    1.0635    0.1296 N   0  0  0  0  0  0  0  0  0  0  0  0
    2.4338    0.3695   -0.0214 C   0  0  0  0  0  0  0  0  0  0  0  0
    2.9083   -0.5941    0.8893 C   0  0  0  0  0  0  0  0  0  0  0  0
    4.1292   -1.2501    0.6780 C   0  0  0  0  0  0  0  0  0  0  0  0
    4.8491   -0.9241   -0.4479 C   0  0  0  0  0  0  0  0  0  0  0  0
    4.3939    0.0122   -1.3423 C   0  0  0  0  0  0  0  0  0  0  0  0
    3.1962    0.6734   -1.1599 C   0  0  0  0  0  0  0  0  0  0  0  0
    5.2471    0.1905   -2.3867 O   0  0  0  0  0  0  0  0  0  0  0  0
    6.2935   -0.7434   -2.0434 C   0  0  0  0  0  0  0  0  0  0  0  0
    6.0453   -1.4547   -0.8134 O   0  0  0  0  0  0  0  0  0  0  0  0
   -2.6546    0.2444    0.0667 C   0  0  0  0  0  0  0  0  0  0  0  0
   -2.1200   -0.1314   -1.1770 C   0  0  0  0  0  0  0  0  0  0  0  0
   -2.8576   -1.0097   -1.9753 C   0  0  0  0  0  0  0  0  0  0  0  0
   -4.0880   -1.4987   -1.5519 C   0  0  0  0  0  0  0  0  0  0  0  0
   -4.6142   -1.1211   -0.3123 C   0  0  0  0  0  0  0  0  0  0  0  0
   -3.8910   -0.2356    0.5167 C   0  0  0  0  0  0  0  0  0  0  0  0
   -6.0398   -0.5649    2.2980 H   0  0  0  0  0  0  0  0  0  0  0  0
   -2.8483    1.7483    2.9728 H   0  0  0  0  0  0  0  0  0  0  0  0
   -0.9297    2.5945    1.7713 H   0  0  0  0  0  0  0  0  0  0  0  0
   -0.9172    2.3536    0.0200 H   0  0  0  0  0  0  0  0  0  0  0  0
    0.9938    1.7153   -0.6137 H   0  0  0  0  0  0  0  0  0  0  0  0
    2.3460   -0.8627    1.7789 H   0  0  0  0  0  0  0  0  0  0  0  0
    4.4923   -1.9920    1.3806 H   0  0  0  0  0  0  0  0  0  0  0  0
    2.8763    1.4055   -1.8922 H   0  0  0  0  0  0  0  0  0  0  0  0
    7.2364   -0.1930   -1.9466 H   0  0  0  0  0  0  0  0  0  0  0  0
    6.3930   -1.4720   -2.8563 H   0  0  0  0  0  0  0  0  0  0  0  0
   -1.1577    0.2314   -1.5206 H   0  0  0  0  0  0  0  0  0  0  0  0
   -2.4602   -1.3190   -2.9396 H   0  0  0  0  0  0  0  0  0  0  0  0
   -4.6453   -2.1835   -2.1866 H   0  0  0  0  0  0  0  0  0  0  0  0
   -5.5762   -1.5162    0.0013 H   0  0  0  0  0  0  0  0  0  0  0  0
  1  2  2  0
  2  3  1  0
  3  4  2  0
  4  5  1  0
  5  6  1  0
  6  7  1  0
  7  8  2  0
  7  9  1  0
  9 10  1  0
 10 11  2  0
 11 12  1  0
 12 13  2  0
 13 14  1  0
 14 15  2  0
 14 16  1  0
 16 17  1  0
 17 18  1  0
  5 19  1  0
 19 20  2  0
 20 21  1  0
 21 22  2  0
 22 23  1  0
 23 24  2  0
 24  3  1  0
 15 10  1  0
 24 19  1  0
 18 13  1  0
  2 25  1  0
  4 26  1  0
  6 27  1  0
  6 28  1  0
  9 29  1  0
 11 30  1  0
 12 31  1  0
 15 32  1  0
 17 33  1  0
 17 34  1  0
 20 35  1  0
 21 36  1  0
 22 37  1  0
 23 38  1  0
M  END
$$$$
