
     RDKit          3D

 42 44  0  0  0  0  0  0  0  0999 V2000
   -3.3373   -2.3350    1.0314 C   0  0  0  0  0  0  0  0  0  0  0  0
   -2.7890   -0.9448    1.2877 C   0  0  0  0  0  0  0  0  0  0  0  0
   -1.9561   -0.7864    2.1833 O   0  0  0  0  0  0  0  0  0  0  0  0
   -3.2461    0.0689    0.4256 N   0  0  0  0  0  0  0  0  0  0  0  0
   -2.4316    1.1576    0.0948 C   0  0  0  0  0  0  0  0  0  0  0  0
   -1.0965    1.2503   -0.0206 C   0  0  0  0  0  0  0  0  0  0  0  0
   -0.0873    0.2175    0.0662 C   0  0  0  0  0  0  0  0  0  0  0  0
    1.2245    0.4757   -0.0645 C   0  0  0  0  0  0  0  0  0  0  0  0
    2.2376   -0.5559    0.0273 C   0  0  0  0  0  0  0  0  0  0  0  0
    3.5636   -0.4067   -0.1179 C   0  0  0  0  0  0  0  0  0  0  0  0
    4.6575   -1.7655    0.0407 S   0  0  0  0  0  0  0  0  0  0  0  0
    6.0690   -0.7424   -0.2593 C   0  0  0  0  0  0  0  0  0  0  0  0
    7.3930   -1.1585   -0.2840 C   0  0  0  0  0  0  0  0  0  0  0  0
    8.3942   -0.2146   -0.5384 C   0  0  0  0  0  0  0  0  0  0  0  0
    8.0672    1.1303   -0.7653 C   0  0  0  0  0  0  0  0  0  0  0  0
    6.7352    1.5448   -0.7398 C   0  0  0  0  0  0  0  0  0  0  0  0
    5.7557    0.5926   -0.4849 C   0  0  0  0  0  0  0  0  0  0  0  0
    4.3127    0.8561   -0.4232 C   0  0  0  0  0  0  0  0  0  0  0  0
    3.8417    1.9653   -0.6083 O   0  0  0  0  0  0  0  0  0  0  0  0
   -4.6475    0.1311    0.0762 C   0  0  0  0  0  0  0  0  0  0  0  0
   -5.6455   -0.3141    0.9568 C   0  0  0  0  0  0  0  0  0  0  0  0
   -6.9968   -0.2375    0.6060 C   0  0  0  0  0  0  0  0  0  0  0  0
   -7.3705    0.2901   -0.6271 C   0  0  0  0  0  0  0  0  0  0  0  0
   -6.3952    0.7489   -1.5080 C   0  0  0  0  0  0  0  0  0  0  0  0
   -5.0444    0.6754   -1.1569 C   0  0  0  0  0  0  0  0  0  0  0  0
   -2.5017   -3.0422    1.0490 H   0  0  0  0  0  0  0  0  0  0  0  0
   -3.8093   -2.4212    0.0495 H   0  0  0  0  0  0  0  0  0  0  0  0
   -4.0463   -2.6081    1.8163 H   0  0  0  0  0  0  0  0  0  0  0  0
   -2.9885    2.0679   -0.1282 H   0  0  0  0  0  0  0  0  0  0  0  0
   -0.7093    2.2389   -0.2734 H   0  0  0  0  0  0  0  0  0  0  0  0
   -0.4141   -0.8037    0.2305 H   0  0  0  0  0  0  0  0  0  0  0  0
    1.5537    1.4980   -0.2355 H   0  0  0  0  0  0  0  0  0  0  0  0
    1.8564   -1.5530    0.2487 H   0  0  0  0  0  0  0  0  0  0  0  0
    7.6544   -2.1983   -0.1090 H   0  0  0  0  0  0  0  0  0  0  0  0
    9.4366   -0.5262   -0.5604 H   0  0  0  0  0  0  0  0  0  0  0  0
    8.8561    1.8534   -0.9616 H   0  0  0  0  0  0  0  0  0  0  0  0
    6.4675    2.5832   -0.9134 H   0  0  0  0  0  0  0  0  0  0  0  0
   -5.3961   -0.6839    1.9481 H   0  0  0  0  0  0  0  0  0  0  0  0
   -7.7579   -0.5791    1.3035 H   0  0  0  0  0  0  0  0  0  0  0  0
   -8.4216    0.3500   -0.8983 H   0  0  0  0  0  0  0  0  0  0  0  0
   -6.6836    1.1617   -2.4715 H   0  0  0  0  0  0  0  0  0  0  0  0
   -4.3045    1.0193   -1.8760 H   0  0  0  0  0  0  0  0  0  0  0  0
  1  2  1  0
  2  3  2  0
  2  4  1  0
  4  5  1  0
  5  6  2  3
  6  7  1  0
  7  8  2  3
  8  9  1  0
  9 10  2  3
 10 11  1  0
 11 12  1  0
 12 13  2  0
 13 14  1  0
 14 15  2  0
 15 16  1  0
 16 17  2  0
 17 18  1  0
 18 19  2  0
  4 20  1  0
 20 21  2  0
 21 22  1  0
 22 23  2  0
 23 24  1  0
 24 25  2  0
 18 10  1  0
 25 20  1  0
 17 12  1  0
  1 26  1  0
  1 27  1  0
  1 28  1  0
  5 29  1  0
  6 30  1  0
  7 31  1  0
  8 32  1  0
  9 33  1  0
 13 34  1  0
 14 35  1  0
 15 36  1  0
 16 37  1  0
 21 38  1  0
 22 39  1  0
 23 40  1  0
 24 41  1  0
 25 42  1  0
M  END
$$$$
