
     RDKit          3D

 30 31  0  0  0  0  0  0  0  0999 V2000
   -2.8569    0.9504    1.2767 C   0  0  0  0  0  0  0  0  0  0  0  0
   -3.2950   -0.2669    0.4567 C   0  0  0  0  0  0  0  0  0  0  0  0
   -4.8232   -0.3175    0.4103 C   0  0  0  0  0  0  0  0  0  0  0  0
   -2.8608   -0.1458   -0.9059 O   0  0  0  0  0  0  0  0  0  0  0  0
   -1.6015   -0.4856   -1.2135 C   0  0  0  0  0  0  0  0  0  0  0  0
   -1.0979   -0.3607   -2.3176 O   0  0  0  0  0  0  0  0  0  0  0  0
   -0.8387   -1.0635   -0.0538 C   0  0  0  0  0  0  0  0  0  0  0  0
    0.4131   -0.8112    0.2062 N   0  0  0  0  0  0  0  0  0  0  0  0
    1.0774    0.0046   -0.6628 N   0  0  0  0  0  0  0  0  0  0  0  0
    2.4618    0.2054   -0.4584 C   0  0  0  0  0  0  0  0  0  0  0  0
    3.1000   -0.1253    0.7439 C   0  0  0  0  0  0  0  0  0  0  0  0
    4.4573    0.1484    0.9369 C   0  0  0  0  0  0  0  0  0  0  0  0
    5.1907    0.7795   -0.0646 C   0  0  0  0  0  0  0  0  0  0  0  0
    4.5653    1.1442   -1.2541 C   0  0  0  0  0  0  0  0  0  0  0  0
    3.2081    0.8681   -1.4438 C   0  0  0  0  0  0  0  0  0  0  0  0
   -1.6234   -1.9243    0.8974 C   0  0  0  0  0  0  0  0  0  0  0  0
   -1.1640   -2.9316    1.4028 O   0  0  0  0  0  0  0  0  0  0  0  0
   -2.8769   -1.4842    1.0904 O   0  0  0  0  0  0  0  0  0  0  0  0
   -1.7669    1.0277    1.3384 H   0  0  0  0  0  0  0  0  0  0  0  0
   -3.2140    1.8807    0.8221 H   0  0  0  0  0  0  0  0  0  0  0  0
   -3.2274    0.8864    2.3054 H   0  0  0  0  0  0  0  0  0  0  0  0
   -5.2394    0.5749   -0.0694 H   0  0  0  0  0  0  0  0  0  0  0  0
   -5.1581   -1.1833   -0.1733 H   0  0  0  0  0  0  0  0  0  0  0  0
   -5.2516   -0.4198    1.4132 H   0  0  0  0  0  0  0  0  0  0  0  0
    0.8332   -0.0313   -1.6610 H   0  0  0  0  0  0  0  0  0  0  0  0
    2.5415   -0.6085    1.5415 H   0  0  0  0  0  0  0  0  0  0  0  0
    4.9359   -0.1293    1.8720 H   0  0  0  0  0  0  0  0  0  0  0  0
    6.2454    0.9936    0.0857 H   0  0  0  0  0  0  0  0  0  0  0  0
    5.1304    1.6487   -2.0333 H   0  0  0  0  0  0  0  0  0  0  0  0
    2.7358    1.1763   -2.3730 H   0  0  0  0  0  0  0  0  0  0  0  0
  1  2  1  0
  2  3  1  0
  2  4  1  0
  4  5  1  0
  5  6  2  0
  5  7  1  0
  7  8  2  3
  8  9  1  0
  9 10  1  0
 10 11  2  0
 11 12  1  0
 12 13  2  0
 13 14  1  0
 14 15  2  0
  7 16  1  0
 16 17  2  0
 16 18  1  0
 18  2  1  0
 15 10  1  0
  1 19  1  0
  1 20  1  0
  1 21  1  0
  3 22  1  0
  3 23  1  0
  3 24  1  0
  9 25  1  0
 11 26  1  0
 12 27  1  0
 13 28  1  0
 14 29  1  0
 15 30  1  0
M  END
$$$$
