
     RDKit          3D

 61 67  0  0  0  0  0  0  0  0999 V2000
    3.7448    0.5670   -2.7117 O   0  0  0  0  0  0  0  0  0  0  0  0
    3.3357    0.3054   -1.5837 C   0  0  0  0  0  0  0  0  0  0  0  0
    4.3046    0.3843   -0.4685 C   0  0  0  0  0  0  0  0  0  0  0  0
    4.5637   -0.7490    0.3318 C   0  0  0  0  0  0  0  0  0  0  0  0
    5.4935   -0.6767    1.3726 C   0  0  0  0  0  0  0  0  0  0  0  0
    6.1432    0.5245    1.5667 C   0  0  0  0  0  0  0  0  0  0  0  0
    5.9028    1.6218    0.7700 C   0  0  0  0  0  0  0  0  0  0  0  0
    4.9938    1.5853   -0.2645 C   0  0  0  0  0  0  0  0  0  0  0  0
    6.6552    2.6961    1.1289 O   0  0  0  0  0  0  0  0  0  0  0  0
    7.4122    2.1458    2.2269 C   0  0  0  0  0  0  0  0  0  0  0  0
    7.0758    0.7739    2.5242 O   0  0  0  0  0  0  0  0  0  0  0  0
    2.0213   -0.0656   -1.3038 N   0  0  0  0  0  0  0  0  0  0  0  0
    1.4445   -0.0897    0.0395 C   0  0  0  0  0  0  0  0  0  0  0  0
   -0.0588    0.1757    0.0107 C   0  0  0  0  0  0  0  0  0  0  0  0
   -0.8134   -0.8928   -0.8272 C   0  0  0  0  0  0  0  0  0  0  0  0
    0.0270   -1.2590   -2.0922 C   0  0  0  0  0  0  0  0  0  0  0  0
    1.0978   -0.2258   -2.4214 C   0  0  0  0  0  0  0  0  0  0  0  0
   -0.8706   -2.0544    0.0467 O   0  0  0  0  0  0  0  0  0  0  0  0
   -1.6830   -3.0733   -0.3638 C   0  0  0  0  0  0  0  0  0  0  0  0
   -1.4442   -4.3208    0.2154 C   0  0  0  0  0  0  0  0  0  0  0  0
   -2.2143   -5.4219   -0.1617 C   0  0  0  0  0  0  0  0  0  0  0  0
   -3.2210   -5.2655   -1.1096 C   0  0  0  0  0  0  0  0  0  0  0  0
   -3.9561   -6.3253   -1.4676 F   0  0  0  0  0  0  0  0  0  0  0  0
   -3.4802   -4.0269   -1.6823 C   0  0  0  0  0  0  0  0  0  0  0  0
   -2.7097   -2.9272   -1.2960 C   0  0  0  0  0  0  0  0  0  0  0  0
   -2.9893   -1.5891   -1.8485 C   0  0  0  0  0  0  0  0  0  0  0  0
   -3.8082   -1.4689   -2.7540 O   0  0  0  0  0  0  0  0  0  0  0  0
   -2.2549   -0.4290   -1.1828 C   0  0  0  0  0  0  0  0  0  0  0  0
   -3.1117    0.0440   -0.0145 C   0  0  0  0  0  0  0  0  0  0  0  0
   -3.0759    1.5110   -0.2641 C   0  0  0  0  0  0  0  0  0  0  0  0
   -3.5831    2.4886    0.7270 C   0  0  0  0  0  0  0  0  0  0  0  0
   -4.1996    2.0758    1.9140 C   0  0  0  0  0  0  0  0  0  0  0  0
   -4.6579    3.0262    2.8309 C   0  0  0  0  0  0  0  0  0  0  0  0
   -4.5047    4.3865    2.5666 C   0  0  0  0  0  0  0  0  0  0  0  0
   -3.8968    4.8024    1.3837 C   0  0  0  0  0  0  0  0  0  0  0  0
   -3.4382    3.8568    0.4646 C   0  0  0  0  0  0  0  0  0  0  0  0
   -2.5697    1.8562   -1.4039 N   0  0  0  0  0  0  0  0  0  0  0  0
   -2.2075    0.6762   -2.0914 O   0  0  0  0  0  0  0  0  0  0  0  0
    4.0528   -1.6871    0.1294 H   0  0  0  0  0  0  0  0  0  0  0  0
    5.7085   -1.5355    1.9986 H   0  0  0  0  0  0  0  0  0  0  0  0
    4.8226    2.4498   -0.8966 H   0  0  0  0  0  0  0  0  0  0  0  0
    7.2264    2.7533    3.1203 H   0  0  0  0  0  0  0  0  0  0  0  0
    8.4792    2.2000    1.9800 H   0  0  0  0  0  0  0  0  0  0  0  0
    1.9349    0.6634    0.6645 H   0  0  0  0  0  0  0  0  0  0  0  0
    1.6494   -1.0751    0.4716 H   0  0  0  0  0  0  0  0  0  0  0  0
   -0.4233    0.1816    1.0446 H   0  0  0  0  0  0  0  0  0  0  0  0
   -0.2143    1.1796   -0.3985 H   0  0  0  0  0  0  0  0  0  0  0  0
    0.5229   -2.2274   -1.9397 H   0  0  0  0  0  0  0  0  0  0  0  0
   -0.6127   -1.3844   -2.9730 H   0  0  0  0  0  0  0  0  0  0  0  0
    0.6540    0.7528   -2.6382 H   0  0  0  0  0  0  0  0  0  0  0  0
    1.6477   -0.5380   -3.3160 H   0  0  0  0  0  0  0  0  0  0  0  0
   -0.6505   -4.4405    0.9491 H   0  0  0  0  0  0  0  0  0  0  0  0
   -2.0346   -6.4009    0.2731 H   0  0  0  0  0  0  0  0  0  0  0  0
   -4.2788   -3.9286   -2.4126 H   0  0  0  0  0  0  0  0  0  0  0  0
   -4.1518   -0.2954   -0.0760 H   0  0  0  0  0  0  0  0  0  0  0  0
   -2.7058   -0.2250    0.9630 H   0  0  0  0  0  0  0  0  0  0  0  0
   -4.3421    1.0251    2.1473 H   0  0  0  0  0  0  0  0  0  0  0  0
   -5.1389    2.7060    3.7521 H   0  0  0  0  0  0  0  0  0  0  0  0
   -4.8629    5.1243    3.2811 H   0  0  0  0  0  0  0  0  0  0  0  0
   -3.7812    5.8630    1.1731 H   0  0  0  0  0  0  0  0  0  0  0  0
   -2.9679    4.1962   -0.4565 H   0  0  0  0  0  0  0  0  0  0  0  0
  1  2  2  0
  2  3  1  0
  3  4  2  0
  4  5  1  0
  5  6  2  0
  6  7  1  0
  7  8  2  0
  7  9  1  0
  9 10  1  0
 10 11  1  0
  2 12  1  0
 12 13  1  0
 13 14  1  0
 14 15  1  0
 15 16  1  0
 16 17  1  0
 15 18  1  0
 18 19  1  0
 19 20  2  0
 20 21  1  0
 21 22  2  0
 22 23  1  0
 22 24  1  0
 24 25  2  0
 25 26  1  0
 26 27  2  0
 26 28  1  0
 28 29  1  0
 29 30  1  0
 30 31  1  0
 31 32  2  0
 32 33  1  0
 33 34  2  0
 34 35  1  0
 35 36  2  0
 30 37  2  0
 37 38  1  0
  8  3  1  0
 17 12  1  0
 25 19  1  0
 38 28  1  0
 11  6  1  0
 28 15  1  0
 36 31  1  0
  4 39  1  0
  5 40  1  0
  8 41  1  0
 10 42  1  0
 10 43  1  0
 13 44  1  0
 13 45  1  0
 14 46  1  0
 14 47  1  0
 16 48  1  0
 16 49  1  0
 17 50  1  0
 17 51  1  0
 20 52  1  0
 21 53  1  0
 24 54  1  0
 29 55  1  0
 29 56  1  0
 32 57  1  0
 33 58  1  0
 34 59  1  0
 35 60  1  0
 36 61  1  0
M  END
$$$$
