
     RDKit          3D

 53 54  0  0  0  0  0  0  0  0999 V2000
   -4.8900   -3.1928   -0.7579 C   0  0  0  0  0  0  0  0  0  0  0  0
   -3.9580   -2.0318   -0.4461 C   0  0  0  0  0  0  0  0  0  0  0  0
   -4.1408   -1.5830    0.9546 N   0  0  0  0  0  0  0  0  0  0  0  0
   -5.3845   -0.8164    1.2112 C   0  0  0  0  0  0  0  0  0  0  0  0
   -6.2718   -1.5976    2.1661 C   0  0  0  0  0  0  0  0  0  0  0  0
   -2.7484   -1.1140    1.8141 S   0  0  0  0  0  6  0  0  0  0  0  0
   -3.1379   -0.7527    3.1601 O   0  0  0  0  0  0  0  0  0  0  0  0
   -1.7080   -2.0918    1.5741 O   0  0  0  0  0  0  0  0  0  0  0  0
   -2.2462    0.3859    0.9868 C   0  0  0  0  0  0  0  0  0  0  0  0
   -2.6632    1.6255    1.4810 C   0  0  0  0  0  0  0  0  0  0  0  0
   -2.2332    2.7956    0.8568 C   0  0  0  0  0  0  0  0  0  0  0  0
   -1.3753    2.7252   -0.2434 C   0  0  0  0  0  0  0  0  0  0  0  0
   -0.9316    1.4838   -0.7237 C   0  0  0  0  0  0  0  0  0  0  0  0
    0.0028    1.4742   -1.8823 C   0  0  0  0  0  0  0  0  0  0  0  0
    0.3644    2.4821   -2.4638 O   0  0  0  0  0  0  0  0  0  0  0  0
    0.3928    0.2073   -2.1680 O   0  0  0  0  0  0  0  0  0  0  0  0
    1.2893    0.0916   -3.2787 C   0  0  0  0  0  0  0  0  0  0  0  0
    2.7502    0.3798   -2.9269 C   0  0  0  0  0  0  0  0  0  0  0  0
    3.5703    0.7384   -3.7672 O   0  0  0  0  0  0  0  0  0  0  0  0
    3.0730    0.1295   -1.6063 N   0  0  0  0  0  0  0  0  0  0  0  0
    4.3863    0.4743   -1.0912 C   0  0  0  0  0  0  0  0  0  0  0  0
    4.6517   -0.1377    0.2863 C   0  0  0  0  0  0  0  0  0  0  0  0
    5.9572    0.2196    0.8071 N   0  0  0  0  0  0  0  0  0  0  0  0
    6.2206    1.4092    1.4413 C   0  0  0  0  0  0  0  0  0  0  0  0
    5.1997    2.2895    1.6411 O   0  0  0  0  0  0  0  0  0  0  0  0
    7.4988    1.5789    1.7981 C   0  0  0  0  0  0  0  0  0  0  0  0
    8.4681    0.2137    1.3293 S   0  0  0  0  0  0  0  0  0  0  0  0
    7.0613   -0.5935    0.6073 C   0  0  0  0  0  0  0  0  0  0  0  0
    7.1151   -1.6721    0.0422 O   0  0  0  0  0  0  0  0  0  0  0  0
   -1.3669    0.3077   -0.1003 C   0  0  0  0  0  0  0  0  0  0  0  0
   -4.7378   -4.0178   -0.0527 H   0  0  0  0  0  0  0  0  0  0  0  0
   -4.7028   -3.5675   -1.7696 H   0  0  0  0  0  0  0  0  0  0  0  0
   -5.9394   -2.8896   -0.7034 H   0  0  0  0  0  0  0  0  0  0  0  0
   -4.1391   -1.1998   -1.1360 H   0  0  0  0  0  0  0  0  0  0  0  0
   -2.9319   -2.3750   -0.6141 H   0  0  0  0  0  0  0  0  0  0  0  0
   -5.1658    0.1667    1.6373 H   0  0  0  0  0  0  0  0  0  0  0  0
   -5.9252   -0.6263    0.2772 H   0  0  0  0  0  0  0  0  0  0  0  0
   -5.7652   -1.7807    3.1189 H   0  0  0  0  0  0  0  0  0  0  0  0
   -6.5485   -2.5694    1.7449 H   0  0  0  0  0  0  0  0  0  0  0  0
   -7.1911   -1.0409    2.3711 H   0  0  0  0  0  0  0  0  0  0  0  0
   -3.3115    1.6885    2.3530 H   0  0  0  0  0  0  0  0  0  0  0  0
   -2.5559    3.7647    1.2327 H   0  0  0  0  0  0  0  0  0  0  0  0
   -1.0416    3.6480   -0.7178 H   0  0  0  0  0  0  0  0  0  0  0  0
    1.2347   -0.9425   -3.6343 H   0  0  0  0  0  0  0  0  0  0  0  0
    0.9757    0.7436   -4.1024 H   0  0  0  0  0  0  0  0  0  0  0  0
    2.2965    0.0686   -0.9577 H   0  0  0  0  0  0  0  0  0  0  0  0
    5.1455    0.1429   -1.8100 H   0  0  0  0  0  0  0  0  0  0  0  0
    4.4405    1.5685   -1.0478 H   0  0  0  0  0  0  0  0  0  0  0  0
    3.8809    0.1715    1.0040 H   0  0  0  0  0  0  0  0  0  0  0  0
    4.5863   -1.2308    0.2133 H   0  0  0  0  0  0  0  0  0  0  0  0
    5.5579    3.0756    2.0893 H   0  0  0  0  0  0  0  0  0  0  0  0
    7.9154    2.4386    2.3034 H   0  0  0  0  0  0  0  0  0  0  0  0
   -1.0233   -0.6653   -0.4446 H   0  0  0  0  0  0  0  0  0  0  0  0
  1  2  1  0
  2  3  1  0
  3  4  1  0
  4  5  1  0
  3  6  1  0
  6  7  2  0
  6  8  2  0
  6  9  1  0
  9 10  2  0
 10 11  1  0
 11 12  2  0
 12 13  1  0
 13 14  1  0
 14 15  2  0
 14 16  1  0
 16 17  1  0
 17 18  1  0
 18 19  2  0
 18 20  1  0
 20 21  1  0
 21 22  1  0
 22 23  1  0
 23 24  1  0
 24 25  1  0
 24 26  2  0
 26 27  1  0
 27 28  1  0
 28 29  2  0
 13 30  2  0
 30  9  1  0
 28 23  1  0
  1 31  1  0
  1 32  1  0
  1 33  1  0
  2 34  1  0
  2 35  1  0
  4 36  1  0
  4 37  1  0
  5 38  1  0
  5 39  1  0
  5 40  1  0
 10 41  1  0
 11 42  1  0
 12 43  1  0
 17 44  1  0
 17 45  1  0
 20 46  1  0
 21 47  1  0
 21 48  1  0
 22 49  1  0
 22 50  1  0
 25 51  1  0
 26 52  1  0
 30 53  1  0
M  END
$$$$
