
     RDKit          3D

 57 60  0  0  0  0  0  0  0  0999 V2000
    5.5102    3.2796   -0.3995 C   0  0  0  0  0  0  0  0  0  0  0  0
    4.4036    2.2964   -0.2102 C   0  0  0  0  0  0  0  0  0  0  0  0
    3.0492    2.5487   -0.2889 C   0  0  0  0  0  0  0  0  0  0  0  0
    2.3632    1.3224   -0.1671 C   0  0  0  0  0  0  0  0  0  0  0  0
    0.9403    1.2049   -0.2243 C   0  0  0  0  0  0  0  0  0  0  0  0
    0.2505    0.1316   -0.6443 C   0  0  0  0  0  0  0  0  0  0  0  0
   -1.2135    0.1244   -0.7240 C   0  0  0  0  0  0  0  0  0  0  0  0
   -1.8260    0.9180   -1.6952 C   0  0  0  0  0  0  0  0  0  0  0  0
   -3.2017    0.9022   -1.8365 C   0  0  0  0  0  0  0  0  0  0  0  0
   -3.9669    0.0795   -1.0161 C   0  0  0  0  0  0  0  0  0  0  0  0
   -5.3686    0.0390   -1.1648 C   0  0  0  0  0  0  0  0  0  0  0  0
   -6.1990   -0.7740   -0.3759 C   0  0  0  0  0  0  0  0  0  0  0  0
   -7.5786   -0.8202   -0.5549 N   0  0  0  0  0  0  0  0  0  0  0  0
   -8.2520    0.2095   -1.3500 C   0  0  0  0  0  0  0  0  0  0  0  0
   -8.4261   -1.5173    0.4153 C   0  0  0  0  0  0  0  0  0  0  0  0
   -5.5425   -1.5693    0.5719 C   0  0  0  0  0  0  0  0  0  0  0  0
   -4.1482   -1.5463    0.7425 C   0  0  0  0  0  0  0  0  0  0  0  0
   -3.3300   -0.7200   -0.0399 C   0  0  0  0  0  0  0  0  0  0  0  0
   -1.9636   -0.6656    0.0968 N   0  0  0  0  0  4  0  0  0  0  0  0
   -1.3124   -1.4599    1.1660 C   0  0  0  0  0  0  0  0  0  0  0  0
    3.3098    0.3345    0.0601 C   0  0  0  0  0  0  0  0  0  0  0  0
    3.1232   -1.0987    0.4437 C   0  0  0  0  0  0  0  0  0  0  0  0
    4.5777    0.9284   -0.0241 N   0  0  0  0  0  0  0  0  0  0  0  0
    5.8276    0.2472    0.0575 C   0  0  0  0  0  0  0  0  0  0  0  0
    6.0290   -0.9325   -0.6711 C   0  0  0  0  0  0  0  0  0  0  0  0
    7.2540   -1.5983   -0.5965 C   0  0  0  0  0  0  0  0  0  0  0  0
    8.2768   -1.0928    0.2043 C   0  0  0  0  0  0  0  0  0  0  0  0
    8.0792    0.0805    0.9309 C   0  0  0  0  0  0  0  0  0  0  0  0
    6.8579    0.7536    0.8584 C   0  0  0  0  0  0  0  0  0  0  0  0
    5.9193    3.5939    0.5649 H   0  0  0  0  0  0  0  0  0  0  0  0
    5.1389    4.1783   -0.9046 H   0  0  0  0  0  0  0  0  0  0  0  0
    6.3133    2.8732   -1.0217 H   0  0  0  0  0  0  0  0  0  0  0  0
    2.6157    3.5273   -0.4585 H   0  0  0  0  0  0  0  0  0  0  0  0
    0.3934    2.1059    0.0572 H   0  0  0  0  0  0  0  0  0  0  0  0
    0.7510   -0.7708   -0.9819 H   0  0  0  0  0  0  0  0  0  0  0  0
   -1.2297    1.5455   -2.3570 H   0  0  0  0  0  0  0  0  0  0  0  0
   -3.6665    1.5250   -2.6005 H   0  0  0  0  0  0  0  0  0  0  0  0
   -5.8133    0.6644   -1.9367 H   0  0  0  0  0  0  0  0  0  0  0  0
   -8.0831    1.2044   -0.9236 H   0  0  0  0  0  0  0  0  0  0  0  0
   -9.3349    0.0468   -1.3874 H   0  0  0  0  0  0  0  0  0  0  0  0
   -7.9077    0.1914   -2.3896 H   0  0  0  0  0  0  0  0  0  0  0  0
   -8.1591   -2.5774    0.4826 H   0  0  0  0  0  0  0  0  0  0  0  0
   -8.3475   -1.0543    1.4049 H   0  0  0  0  0  0  0  0  0  0  0  0
   -9.4809   -1.4910    0.1201 H   0  0  0  0  0  0  0  0  0  0  0  0
   -6.1059   -2.2446    1.2126 H   0  0  0  0  0  0  0  0  0  0  0  0
   -3.7485   -2.2103    1.5032 H   0  0  0  0  0  0  0  0  0  0  0  0
   -1.4124   -2.5164    0.9032 H   0  0  0  0  0  0  0  0  0  0  0  0
   -1.8073   -1.2301    2.1139 H   0  0  0  0  0  0  0  0  0  0  0  0
   -0.2584   -1.2138    1.2828 H   0  0  0  0  0  0  0  0  0  0  0  0
    3.0716   -1.7327   -0.4465 H   0  0  0  0  0  0  0  0  0  0  0  0
    2.1961   -1.2312    1.0097 H   0  0  0  0  0  0  0  0  0  0  0  0
    3.9238   -1.4612    1.0954 H   0  0  0  0  0  0  0  0  0  0  0  0
    5.2634   -1.3237   -1.3350 H   0  0  0  0  0  0  0  0  0  0  0  0
    7.4171   -2.5061   -1.1724 H   0  0  0  0  0  0  0  0  0  0  0  0
    9.2310   -1.6114    0.2600 H   0  0  0  0  0  0  0  0  0  0  0  0
    8.8772    0.4689    1.5594 H   0  0  0  0  0  0  0  0  0  0  0  0
    6.7199    1.6443    1.4643 H   0  0  0  0  0  0  0  0  0  0  0  0
  1  2  1  0
  2  3  2  0
  3  4  1  0
  4  5  1  0
  5  6  2  3
  6  7  1  0
  7  8  2  0
  8  9  1  0
  9 10  2  0
 10 11  1  0
 11 12  2  0
 12 13  1  0
 13 14  1  0
 13 15  1  0
 12 16  1  0
 16 17  2  0
 17 18  1  0
 18 19  2  0
 19 20  1  0
  4 21  2  0
 21 22  1  0
 21 23  1  0
 23 24  1  0
 24 25  2  0
 25 26  1  0
 26 27  2  0
 27 28  1  0
 28 29  2  0
 23  2  1  0
 29 24  1  0
 19  7  1  0
 18 10  1  0
  1 30  1  0
  1 31  1  0
  1 32  1  0
  3 33  1  0
  5 34  1  0
  6 35  1  0
  8 36  1  0
  9 37  1  0
 11 38  1  0
 14 39  1  0
 14 40  1  0
 14 41  1  0
 15 42  1  0
 15 43  1  0
 15 44  1  0
 16 45  1  0
 17 46  1  0
 20 47  1  0
 20 48  1  0
 20 49  1  0
 22 50  1  0
 22 51  1  0
 22 52  1  0
 25 53  1  0
 26 54  1  0
 27 55  1  0
 28 56  1  0
 29 57  1  0
M  CHG  1  19   1
M  END
$$$$
