
     RDKit          3D

 57 59  0  0  0  0  0  0  0  0999 V2000
   -2.8683   -1.9703   -2.6895 C   0  0  0  0  0  0  0  0  0  0  0  0
   -2.8605   -1.9156   -1.1653 C   0  0  0  0  0  0  0  0  0  0  0  0
   -3.7472   -0.8703   -0.6198 N   0  0  0  0  0  0  0  0  0  0  0  0
   -5.1729   -1.2030   -0.7816 C   0  0  0  0  0  0  0  0  0  0  0  0
   -6.0689    0.0136   -0.5520 C   0  0  0  0  0  0  0  0  0  0  0  0
   -3.3968   -0.5859    0.7937 C   0  0  0  0  0  0  0  0  0  0  0  0
   -2.8144    0.8282    0.9305 C   0  0  0  0  0  0  0  0  0  0  0  0
   -1.5029    0.8677    0.3457 O   0  0  0  0  0  0  0  0  0  0  0  0
   -0.9212    2.1073    0.4517 C   0  0  0  0  0  0  0  0  0  0  0  0
   -1.3825    3.2083   -0.1797 C   0  0  0  0  0  0  0  0  0  0  0  0
   -0.6367    4.4950    0.0247 C   0  0  2  0  0  0  0  0  0  0  0  0
   -0.8363    5.4721   -0.9851 O   0  0  0  0  0  0  0  0  0  0  0  0
    0.1710    6.3971   -0.8174 C   0  0  0  0  0  0  0  0  0  0  0  0
    0.1901    7.4808   -1.3775 O   0  0  0  0  0  0  0  0  0  0  0  0
    1.4916    5.8587    0.2497 S   0  0  0  0  0  0  0  0  0  0  0  0
    0.8681    4.2002    0.0596 C   0  0  1  0  0  0  0  0  0  0  0  0
    1.1916    3.1775    1.0952 C   0  0  0  0  0  0  0  0  0  0  0  0
    0.3141    2.1578    1.2425 C   0  0  0  0  0  0  0  0  0  0  0  0
    0.6087    1.1015    2.2478 C   0  0  0  0  0  0  0  0  0  0  0  0
   -0.0052    1.0522    3.3115 O   0  0  0  0  0  0  0  0  0  0  0  0
    1.6857    0.1155    1.9590 C   0  0  0  0  0  0  0  0  0  0  0  0
    2.2564   -0.0729    0.7584 C   0  0  0  0  0  0  0  0  0  0  0  0
    3.3197   -1.0566    0.5082 C   0  0  0  0  0  0  0  0  0  0  0  0
    3.3366   -2.3183    1.1145 C   0  0  0  0  0  0  0  0  0  0  0  0
    4.3531   -3.2397    0.8293 C   0  0  0  0  0  0  0  0  0  0  0  0
    5.3621   -2.9140   -0.0766 C   0  0  0  0  0  0  0  0  0  0  0  0
    6.4100   -3.7141   -0.4406 O   0  0  0  0  0  0  0  0  0  0  0  0
    6.4953   -4.9872    0.1873 C   0  0  0  0  0  0  0  0  0  0  0  0
    5.3371   -1.6658   -0.6997 C   0  0  0  0  0  0  0  0  0  0  0  0
    4.3225   -0.7460   -0.4162 C   0  0  0  0  0  0  0  0  0  0  0  0
   -3.8112   -2.3589   -3.0854 H   0  0  0  0  0  0  0  0  0  0  0  0
   -2.0677   -2.6306   -3.0415 H   0  0  0  0  0  0  0  0  0  0  0  0
   -2.6916   -0.9784   -3.1204 H   0  0  0  0  0  0  0  0  0  0  0  0
   -1.8218   -1.7009   -0.8744 H   0  0  0  0  0  0  0  0  0  0  0  0
   -3.1118   -2.9011   -0.7521 H   0  0  0  0  0  0  0  0  0  0  0  0
   -5.3743   -1.5403   -1.8045 H   0  0  0  0  0  0  0  0  0  0  0  0
   -5.4655   -2.0237   -0.1154 H   0  0  0  0  0  0  0  0  0  0  0  0
   -5.7796    0.8398   -1.2112 H   0  0  0  0  0  0  0  0  0  0  0  0
   -6.0296    0.3700    0.4820 H   0  0  0  0  0  0  0  0  0  0  0  0
   -7.1118   -0.2410   -0.7733 H   0  0  0  0  0  0  0  0  0  0  0  0
   -4.2744   -0.6623    1.4477 H   0  0  0  0  0  0  0  0  0  0  0  0
   -2.6733   -1.3162    1.1833 H   0  0  0  0  0  0  0  0  0  0  0  0
   -2.7360    1.0748    1.9971 H   0  0  0  0  0  0  0  0  0  0  0  0
   -3.4835    1.5548    0.4529 H   0  0  0  0  0  0  0  0  0  0  0  0
   -2.2747    3.1895   -0.7922 H   0  0  0  0  0  0  0  0  0  0  0  0
   -1.0165    4.9179    0.9704 H   0  0  0  0  0  0  0  0  0  0  0  0
    1.2294    3.8433   -0.9145 H   0  0  0  0  0  0  0  0  0  0  0  0
    2.1130    3.2379    1.6653 H   0  0  0  0  0  0  0  0  0  0  0  0
    1.9748   -0.4670    2.8280 H   0  0  0  0  0  0  0  0  0  0  0  0
    1.9545    0.5061   -0.1101 H   0  0  0  0  0  0  0  0  0  0  0  0
    2.5514   -2.6122    1.8082 H   0  0  0  0  0  0  0  0  0  0  0  0
    4.3215   -4.2024    1.3280 H   0  0  0  0  0  0  0  0  0  0  0  0
    6.6150   -4.8853    1.2712 H   0  0  0  0  0  0  0  0  0  0  0  0
    7.3859   -5.4926   -0.1995 H   0  0  0  0  0  0  0  0  0  0  0  0
    5.6263   -5.6071   -0.0596 H   0  0  0  0  0  0  0  0  0  0  0  0
    6.1170   -1.4042   -1.4112 H   0  0  0  0  0  0  0  0  0  0  0  0
    4.3344    0.2166   -0.9216 H   0  0  0  0  0  0  0  0  0  0  0  0
  1  2  1  0
  2  3  1  0
  3  4  1  0
  4  5  1  0
  3  6  1  0
  6  7  1  0
  7  8  1  0
  8  9  1  0
  9 10  2  0
 10 11  1  0
 11 12  1  0
 12 13  1  0
 13 14  2  0
 13 15  1  0
 15 16  1  0
 16 17  1  0
 17 18  2  0
 18 19  1  0
 19 20  2  0
 19 21  1  0
 21 22  2  0
 22 23  1  0
 23 24  2  0
 24 25  1  0
 25 26  2  0
 26 27  1  0
 27 28  1  0
 26 29  1  0
 29 30  2  0
 18  9  1  0
 30 23  1  0
 16 11  1  0
  1 31  1  0
  1 32  1  0
  1 33  1  0
  2 34  1  0
  2 35  1  0
  4 36  1  0
  4 37  1  0
  5 38  1  0
  5 39  1  0
  5 40  1  0
  6 41  1  0
  6 42  1  0
  7 43  1  0
  7 44  1  0
 10 45  1  0
 11 46  1  1
 16 47  1  6
 17 48  1  0
 21 49  1  0
 22 50  1  0
 24 51  1  0
 25 52  1  0
 28 53  1  0
 28 54  1  0
 28 55  1  0
 29 56  1  0
 30 57  1  0
M  END
$$$$
