
     RDKit          3D

 53 56  0  0  0  0  0  0  0  0999 V2000
    8.1720    0.1585   -2.3719 C   0  0  0  0  0  0  0  0  0  0  0  0
    7.0777   -0.5940   -1.8668 O   0  0  0  0  0  0  0  0  0  0  0  0
    6.0678    0.1029   -1.2616 C   0  0  0  0  0  0  0  0  0  0  0  0
    5.9655    1.4918   -1.1904 C   0  0  0  0  0  0  0  0  0  0  0  0
    4.8753    2.0782   -0.5412 C   0  0  0  0  0  0  0  0  0  0  0  0
    3.8915    1.2779    0.0434 C   0  0  0  0  0  0  0  0  0  0  0  0
    3.9802   -0.1167   -0.0250 C   0  0  0  0  0  0  0  0  0  0  0  0
    2.9605   -0.8528    0.6125 N   0  0  0  0  0  0  0  0  0  0  0  0
    2.7427   -2.2186    0.5648 C   0  0  0  0  0  0  0  0  0  0  0  0
    3.3586   -3.0267   -0.1279 O   0  0  0  0  0  0  0  0  0  0  0  0
    1.6341   -2.6859    1.4967 C   0  0  0  0  0  0  0  0  0  0  0  0
   -0.0012   -2.4781    0.7364 S   0  0  0  0  0  0  0  0  0  0  0  0
   -0.3661   -0.8296    1.1423 C   0  0  0  0  0  0  0  0  0  0  0  0
    0.5080   -0.0002    1.6640 N   0  0  0  0  0  0  0  0  0  0  0  0
   -0.1357    1.1630    1.9578 N   0  0  0  0  0  0  0  0  0  0  0  0
   -1.4030    1.0390    1.6038 C   0  0  0  0  0  0  0  0  0  0  0  0
   -2.3896    2.1644    1.6229 C   0  0  0  0  0  0  0  0  0  0  0  0
   -2.8076    2.6182    0.2495 C   0  0  0  0  0  0  0  0  0  0  0  0
   -4.0190    2.4230   -0.3899 C   0  0  0  0  0  0  0  0  0  0  0  0
   -4.0531    3.0153   -1.6871 C   0  0  0  0  0  0  0  0  0  0  0  0
   -2.8705    3.6515   -1.9952 C   0  0  0  0  0  0  0  0  0  0  0  0
   -1.7280    3.5310   -0.7271 S   0  0  0  0  0  0  0  0  0  0  0  0
   -1.6247   -0.2476    1.1181 N   0  0  0  0  0  0  0  0  0  0  0  0
   -2.8592   -0.8257    0.7239 C   0  0  0  0  0  0  0  0  0  0  0  0
   -3.9941   -0.6721    1.5292 C   0  0  0  0  0  0  0  0  0  0  0  0
   -5.2109   -1.2423    1.1409 C   0  0  0  0  0  0  0  0  0  0  0  0
   -5.3078   -1.9699   -0.0503 C   0  0  0  0  0  0  0  0  0  0  0  0
   -6.6046   -2.6024   -0.4647 C   0  0  0  0  0  0  0  0  0  0  0  0
   -4.1636   -2.1394   -0.8373 C   0  0  0  0  0  0  0  0  0  0  0  0
   -2.9462   -1.5642   -0.4608 C   0  0  0  0  0  0  0  0  0  0  0  0
    5.0707   -0.6946   -0.6830 C   0  0  0  0  0  0  0  0  0  0  0  0
    8.9238   -0.5505   -2.7349 H   0  0  0  0  0  0  0  0  0  0  0  0
    8.6406    0.7598   -1.5854 H   0  0  0  0  0  0  0  0  0  0  0  0
    7.8666    0.7838   -3.2188 H   0  0  0  0  0  0  0  0  0  0  0  0
    6.7116    2.1444   -1.6320 H   0  0  0  0  0  0  0  0  0  0  0  0
    4.7922    3.1612   -0.4886 H   0  0  0  0  0  0  0  0  0  0  0  0
    3.0491    1.7585    0.5423 H   0  0  0  0  0  0  0  0  0  0  0  0
    2.2510   -0.3004    1.0972 H   0  0  0  0  0  0  0  0  0  0  0  0
    1.7877   -3.7535    1.6917 H   0  0  0  0  0  0  0  0  0  0  0  0
    1.7054   -2.1792    2.4657 H   0  0  0  0  0  0  0  0  0  0  0  0
   -1.9357    3.0151    2.1502 H   0  0  0  0  0  0  0  0  0  0  0  0
   -3.2682    1.9042    2.2212 H   0  0  0  0  0  0  0  0  0  0  0  0
   -4.8498    1.8789    0.0465 H   0  0  0  0  0  0  0  0  0  0  0  0
   -4.9041    2.9796   -2.3593 H   0  0  0  0  0  0  0  0  0  0  0  0
   -2.6216    4.1843   -2.9039 H   0  0  0  0  0  0  0  0  0  0  0  0
   -3.9522   -0.1596    2.4863 H   0  0  0  0  0  0  0  0  0  0  0  0
   -6.0842   -1.1212    1.7784 H   0  0  0  0  0  0  0  0  0  0  0  0
   -6.8115   -2.3862   -1.5178 H   0  0  0  0  0  0  0  0  0  0  0  0
   -7.4440   -2.2124    0.1208 H   0  0  0  0  0  0  0  0  0  0  0  0
   -6.5584   -3.6868   -0.3210 H   0  0  0  0  0  0  0  0  0  0  0  0
   -4.2073   -2.7169   -1.7572 H   0  0  0  0  0  0  0  0  0  0  0  0
   -2.0929   -1.6849   -1.1245 H   0  0  0  0  0  0  0  0  0  0  0  0
    5.1821   -1.7724   -0.7516 H   0  0  0  0  0  0  0  0  0  0  0  0
  1  2  1  0
  2  3  1  0
  3  4  2  0
  4  5  1  0
  5  6  2  0
  6  7  1  0
  7  8  1  0
  8  9  1  0
  9 10  2  0
  9 11  1  0
 11 12  1  0
 12 13  1  0
 13 14  2  0
 14 15  1  0
 15 16  2  0
 16 17  1  0
 17 18  1  0
 18 19  2  0
 19 20  1  0
 20 21  2  0
 21 22  1  0
 16 23  1  0
 23 24  1  0
 24 25  2  0
 25 26  1  0
 26 27  2  0
 27 28  1  0
 27 29  1  0
 29 30  2  0
  7 31  2  0
 31  3  1  0
 23 13  1  0
 30 24  1  0
 22 18  1  0
  1 32  1  0
  1 33  1  0
  1 34  1  0
  4 35  1  0
  5 36  1  0
  6 37  1  0
  8 38  1  0
 11 39  1  0
 11 40  1  0
 17 41  1  0
 17 42  1  0
 19 43  1  0
 20 44  1  0
 21 45  1  0
 25 46  1  0
 26 47  1  0
 28 48  1  0
 28 49  1  0
 28 50  1  0
 29 51  1  0
 30 52  1  0
 31 53  1  0
M  END
$$$$
