
     RDKit          3D

 53 54  0  0  0  0  0  0  0  0999 V2000
   -4.1047   -3.4018    1.1553 C   0  0  0  0  0  0  0  0  0  0  0  0
   -3.5731   -2.1433    0.4905 C   0  0  0  0  0  0  0  0  0  0  0  0
   -4.0400   -0.9508    1.2236 N   0  0  0  0  0  0  0  0  0  0  0  0
   -5.3341   -0.3711    0.8174 C   0  0  0  0  0  0  0  0  0  0  0  0
   -5.2568    0.3757   -0.4976 C   0  0  0  0  0  0  0  0  0  0  0  0
   -2.9696   -0.0788    2.1921 S   0  0  0  0  0  6  0  0  0  0  0  0
   -1.9618   -0.9869    2.6977 O   0  0  0  0  0  0  0  0  0  0  0  0
   -3.7442    0.7558    3.0869 O   0  0  0  0  0  0  0  0  0  0  0  0
   -2.1355    1.0004    1.0458 C   0  0  0  0  0  0  0  0  0  0  0  0
   -2.4092    2.3717    1.0530 C   0  0  0  0  0  0  0  0  0  0  0  0
   -1.6996    3.2200    0.1997 C   0  0  0  0  0  0  0  0  0  0  0  0
   -0.7201    2.6996   -0.6522 C   0  0  0  0  0  0  0  0  0  0  0  0
   -0.4416    1.3250   -0.6578 C   0  0  0  0  0  0  0  0  0  0  0  0
    0.5886    0.8104   -1.5993 C   0  0  0  0  0  0  0  0  0  0  0  0
    1.3682    1.5144   -2.2227 O   0  0  0  0  0  0  0  0  0  0  0  0
    0.5075   -0.5435   -1.6811 O   0  0  0  0  0  0  0  0  0  0  0  0
    1.3491   -1.1265   -2.6751 C   0  0  0  0  0  0  0  0  0  0  0  0
    2.8263   -1.2075   -2.3025 C   0  0  0  0  0  0  0  0  0  0  0  0
    3.7125   -1.3068   -3.1421 O   0  0  0  0  0  0  0  0  0  0  0  0
    3.0822   -1.2138   -0.9528 N   0  0  0  0  0  0  0  0  0  0  0  0
    4.4231   -1.4229   -0.4451 C   0  0  0  0  0  0  0  0  0  0  0  0
    5.3454   -0.2099   -0.6270 C   0  0  0  0  0  0  0  0  0  0  0  0
    5.2980    0.7166    0.4875 N   0  0  0  0  0  0  0  0  0  0  0  0
    4.2814    1.5945    0.7677 C   0  0  0  0  0  0  0  0  0  0  0  0
    3.1957    1.7217   -0.0353 O   0  0  0  0  0  0  0  0  0  0  0  0
    4.4365    2.2867    1.9022 C   0  0  0  0  0  0  0  0  0  0  0  0
    5.9065    1.8765    2.7119 S   0  0  0  0  0  0  0  0  0  0  0  0
    6.2894    0.6728    1.4634 C   0  0  0  0  0  0  0  0  0  0  0  0
    7.2687   -0.0595    1.5099 O   0  0  0  0  0  0  0  0  0  0  0  0
   -1.1416    0.4758    0.2080 C   0  0  0  0  0  0  0  0  0  0  0  0
   -5.1999   -3.4265    1.1468 H   0  0  0  0  0  0  0  0  0  0  0  0
   -3.7757   -3.4629    2.1973 H   0  0  0  0  0  0  0  0  0  0  0  0
   -3.7399   -4.2903    0.6272 H   0  0  0  0  0  0  0  0  0  0  0  0
   -2.4816   -2.1950    0.4692 H   0  0  0  0  0  0  0  0  0  0  0  0
   -3.8934   -2.1096   -0.5521 H   0  0  0  0  0  0  0  0  0  0  0  0
   -6.0655   -1.1781    0.7351 H   0  0  0  0  0  0  0  0  0  0  0  0
   -5.7214    0.2916    1.5967 H   0  0  0  0  0  0  0  0  0  0  0  0
   -4.8548   -0.2518   -1.2971 H   0  0  0  0  0  0  0  0  0  0  0  0
   -4.6234    1.2607   -0.4217 H   0  0  0  0  0  0  0  0  0  0  0  0
   -6.2554    0.7068   -0.7974 H   0  0  0  0  0  0  0  0  0  0  0  0
   -3.1579    2.7885    1.7243 H   0  0  0  0  0  0  0  0  0  0  0  0
   -1.9021    4.2891    0.2044 H   0  0  0  0  0  0  0  0  0  0  0  0
   -0.1716    3.3735   -1.3080 H   0  0  0  0  0  0  0  0  0  0  0  0
    0.9972   -2.1517   -2.8332 H   0  0  0  0  0  0  0  0  0  0  0  0
    1.2406   -0.5878   -3.6245 H   0  0  0  0  0  0  0  0  0  0  0  0
    2.3175   -1.0913   -0.2958 H   0  0  0  0  0  0  0  0  0  0  0  0
    4.8429   -2.2754   -0.9866 H   0  0  0  0  0  0  0  0  0  0  0  0
    4.3326   -1.7057    0.6127 H   0  0  0  0  0  0  0  0  0  0  0  0
    6.3701   -0.5864   -0.7011 H   0  0  0  0  0  0  0  0  0  0  0  0
    5.1547    0.3349   -1.5549 H   0  0  0  0  0  0  0  0  0  0  0  0
    3.4184    1.4494   -0.9446 H   0  0  0  0  0  0  0  0  0  0  0  0
    3.7288    3.0074    2.2877 H   0  0  0  0  0  0  0  0  0  0  0  0
   -0.9079   -0.5839    0.2505 H   0  0  0  0  0  0  0  0  0  0  0  0
  1  2  1  0
  2  3  1  0
  3  4  1  0
  4  5  1  0
  3  6  1  0
  6  7  2  0
  6  8  2  0
  6  9  1  0
  9 10  2  0
 10 11  1  0
 11 12  2  0
 12 13  1  0
 13 14  1  0
 14 15  2  0
 14 16  1  0
 16 17  1  0
 17 18  1  0
 18 19  2  0
 18 20  1  0
 20 21  1  0
 21 22  1  0
 22 23  1  0
 23 24  1  0
 24 25  1  0
 24 26  2  0
 26 27  1  0
 27 28  1  0
 28 29  2  0
 13 30  2  0
 30  9  1  0
 28 23  1  0
  1 31  1  0
  1 32  1  0
  1 33  1  0
  2 34  1  0
  2 35  1  0
  4 36  1  0
  4 37  1  0
  5 38  1  0
  5 39  1  0
  5 40  1  0
 10 41  1  0
 11 42  1  0
 12 43  1  0
 17 44  1  0
 17 45  1  0
 20 46  1  0
 21 47  1  0
 21 48  1  0
 22 49  1  0
 22 50  1  0
 25 51  1  0
 26 52  1  0
 30 53  1  0
M  END
$$$$
