
     RDKit          3D

 44 46  0  0  0  0  0  0  0  0999 V2000
   -0.8719    2.3164   -1.7776 C   0  0  0  0  0  0  0  0  0  0  0  0
   -1.9990    1.5458   -1.1469 C   0  0  0  0  0  0  0  0  0  0  0  0
   -3.3201    1.9716   -1.3358 C   0  0  0  0  0  0  0  0  0  0  0  0
   -4.3816    1.2717   -0.7616 C   0  0  0  0  0  0  0  0  0  0  0  0
   -4.1467    0.1293    0.0127 C   0  0  0  0  0  0  0  0  0  0  0  0
   -5.2867   -0.6483    0.6489 C   0  0  0  0  0  0  0  0  0  0  0  0
   -6.2454   -1.2088   -0.4047 C   0  0  0  0  0  0  0  0  0  0  0  0
   -6.0402    0.2014    1.6751 C   0  0  0  0  0  0  0  0  0  0  0  0
   -2.8199   -0.2967    0.2000 C   0  0  0  0  0  0  0  0  0  0  0  0
   -1.7486    0.4003   -0.3724 C   0  0  0  0  0  0  0  0  0  0  0  0
   -0.4289    0.0548   -0.2413 O   0  0  0  0  0  0  0  0  0  0  0  0
   -0.1241   -1.1017    0.5331 C   0  0  0  0  0  0  0  0  0  0  0  0
    1.3880   -1.3421    0.5820 C   0  0  0  0  0  0  0  0  0  0  0  0
    1.8419   -2.3053    1.1931 O   0  0  0  0  0  0  0  0  0  0  0  0
    2.0999   -0.3880   -0.1065 N   0  0  0  0  0  0  0  0  0  0  0  0
    3.4580   -0.3024   -0.2587 C   0  0  0  0  0  0  0  0  0  0  0  0
    4.0268    0.6649   -0.9461 N   0  0  0  0  0  0  0  0  0  0  0  0
    5.4042    0.5490   -0.9658 N   0  0  0  0  0  0  0  0  0  0  0  0
    5.8057   -0.4989   -0.2818 C   0  0  0  0  0  0  0  0  0  0  0  0
    7.3125   -0.8755   -0.1432 C   0  0  0  0  0  0  0  0  0  0  0  0
    7.9948   -0.7147    1.1918 C   0  0  0  0  0  0  0  0  0  0  0  0
    8.3278    0.2194    0.0655 C   0  0  0  0  0  0  0  0  0  0  0  0
    4.5506   -1.4240    0.4149 S   0  0  0  0  0  0  0  0  0  0  0  0
   -0.1800    2.6741   -1.0083 H   0  0  0  0  0  0  0  0  0  0  0  0
   -1.2383    3.1910   -2.3254 H   0  0  0  0  0  0  0  0  0  0  0  0
   -0.3302    1.6818   -2.4865 H   0  0  0  0  0  0  0  0  0  0  0  0
   -3.5336    2.8553   -1.9339 H   0  0  0  0  0  0  0  0  0  0  0  0
   -5.3953    1.6301   -0.9266 H   0  0  0  0  0  0  0  0  0  0  0  0
   -4.8661   -1.5073    1.1885 H   0  0  0  0  0  0  0  0  0  0  0  0
   -5.7080   -1.8215   -1.1368 H   0  0  0  0  0  0  0  0  0  0  0  0
   -7.0073   -1.8398    0.0657 H   0  0  0  0  0  0  0  0  0  0  0  0
   -6.7644   -0.4139   -0.9510 H   0  0  0  0  0  0  0  0  0  0  0  0
   -5.3570    0.5926    2.4372 H   0  0  0  0  0  0  0  0  0  0  0  0
   -6.5442    1.0551    1.2089 H   0  0  0  0  0  0  0  0  0  0  0  0
   -6.8032   -0.3974    2.1845 H   0  0  0  0  0  0  0  0  0  0  0  0
   -2.6507   -1.1840    0.8023 H   0  0  0  0  0  0  0  0  0  0  0  0
   -0.5764   -1.9909    0.0796 H   0  0  0  0  0  0  0  0  0  0  0  0
   -0.4602   -0.9653    1.5673 H   0  0  0  0  0  0  0  0  0  0  0  0
    1.5738    0.3495   -0.5632 H   0  0  0  0  0  0  0  0  0  0  0  0
    7.6146   -1.7126   -0.7638 H   0  0  0  0  0  0  0  0  0  0  0  0
    8.7337   -1.4560    1.4739 H   0  0  0  0  0  0  0  0  0  0  0  0
    7.4277   -0.3160    2.0254 H   0  0  0  0  0  0  0  0  0  0  0  0
    9.2907    0.1133   -0.4203 H   0  0  0  0  0  0  0  0  0  0  0  0
    7.9771    1.2437    0.1310 H   0  0  0  0  0  0  0  0  0  0  0  0
  1  2  1  0
  2  3  2  0
  3  4  1  0
  4  5  2  0
  5  6  1  0
  6  7  1  0
  6  8  1  0
  5  9  1  0
  9 10  2  0
 10 11  1  0
 11 12  1  0
 12 13  1  0
 13 14  2  0
 13 15  1  0
 15 16  1  0
 16 17  2  0
 17 18  1  0
 18 19  2  0
 19 20  1  0
 20 21  1  0
 21 22  1  0
 19 23  1  0
 10  2  1  0
 23 16  1  0
 22 20  1  0
  1 24  1  0
  1 25  1  0
  1 26  1  0
  3 27  1  0
  4 28  1  0
  6 29  1  0
  7 30  1  0
  7 31  1  0
  7 32  1  0
  8 33  1  0
  8 34  1  0
  8 35  1  0
  9 36  1  0
 12 37  1  0
 12 38  1  0
 15 39  1  0
 20 40  1  0
 21 41  1  0
 21 42  1  0
 22 43  1  0
 22 44  1  0
M  END
$$$$
