
     RDKit          3D

 38 38  0  0  0  0  0  0  0  0999 V2000
    5.0584   -0.1937   -3.6178 C   0  0  0  0  0  0  0  0  0  0  0  0
    4.7082   -1.3875   -2.7493 C   0  0  0  0  0  0  0  0  0  0  0  0
    4.0769   -0.9503   -1.5361 O   0  0  0  0  0  0  0  0  0  0  0  0
    2.7310   -0.7481   -1.6084 C   0  0  0  0  0  0  0  0  0  0  0  0
    2.0356   -0.9604   -2.5926 O   0  0  0  0  0  0  0  0  0  0  0  0
    2.2009   -0.3088   -0.2752 C   0  0  0  0  0  0  0  0  0  0  0  0
    1.1718    0.7821   -0.4107 C   0  0  0  0  0  0  0  0  0  0  0  0
    1.3937    1.8078   -1.0519 O   0  0  0  0  0  0  0  0  0  0  0  0
   -0.1493    0.6256    0.2558 C   0  0  0  0  0  0  0  0  0  0  0  0
   -1.2644    1.2159   -0.3575 C   0  0  0  0  0  0  0  0  0  0  0  0
   -2.5281    1.1020    0.2212 C   0  0  0  0  0  0  0  0  0  0  0  0
   -3.6785    1.6352   -0.2991 O   0  0  0  0  0  0  0  0  0  0  0  0
   -3.5463    2.5163   -1.4071 C   0  0  0  0  0  0  0  0  0  0  0  0
   -2.6598    0.3785    1.4190 C   0  0  0  0  0  0  0  0  0  0  0  0
   -3.8945    0.2917    2.0250 O   0  0  0  0  0  0  0  0  0  0  0  0
   -4.5919   -0.8549    1.5413 C   0  0  0  0  0  0  0  0  0  0  0  0
   -1.5425   -0.1836    2.0632 C   0  0  0  0  0  0  0  0  0  0  0  0
   -1.7897   -0.8394    3.2415 O   0  0  0  0  0  0  0  0  0  0  0  0
   -0.6725   -1.2080    4.0382 C   0  0  0  0  0  0  0  0  0  0  0  0
   -0.2841   -0.0599    1.4702 C   0  0  0  0  0  0  0  0  0  0  0  0
    5.5944   -0.5121   -4.5166 H   0  0  0  0  0  0  0  0  0  0  0  0
    5.6851    0.5138   -3.0645 H   0  0  0  0  0  0  0  0  0  0  0  0
    4.1577    0.3492   -3.9220 H   0  0  0  0  0  0  0  0  0  0  0  0
    5.6242   -1.9137   -2.4611 H   0  0  0  0  0  0  0  0  0  0  0  0
    4.0804   -2.1068   -3.2877 H   0  0  0  0  0  0  0  0  0  0  0  0
    1.7978   -1.2029    0.2081 H   0  0  0  0  0  0  0  0  0  0  0  0
    3.0098    0.0838    0.3510 H   0  0  0  0  0  0  0  0  0  0  0  0
   -1.1159    1.7526   -1.2905 H   0  0  0  0  0  0  0  0  0  0  0  0
   -4.5391    2.9156   -1.6363 H   0  0  0  0  0  0  0  0  0  0  0  0
   -3.1912    1.9804   -2.2934 H   0  0  0  0  0  0  0  0  0  0  0  0
   -2.8942    3.3628   -1.1672 H   0  0  0  0  0  0  0  0  0  0  0  0
   -5.5556   -0.9025    2.0575 H   0  0  0  0  0  0  0  0  0  0  0  0
   -4.7882   -0.7804    0.4662 H   0  0  0  0  0  0  0  0  0  0  0  0
   -4.0447   -1.7778    1.7631 H   0  0  0  0  0  0  0  0  0  0  0  0
   -0.0880   -1.9950    3.5509 H   0  0  0  0  0  0  0  0  0  0  0  0
   -0.0476   -0.3402    4.2744 H   0  0  0  0  0  0  0  0  0  0  0  0
   -1.0526   -1.6118    4.9814 H   0  0  0  0  0  0  0  0  0  0  0  0
    0.5927   -0.4754    1.9520 H   0  0  0  0  0  0  0  0  0  0  0  0
  1  2  1  0
  2  3  1  0
  3  4  1  0
  4  5  2  0
  4  6  1  0
  6  7  1  0
  7  8  2  0
  7  9  1  0
  9 10  2  0
 10 11  1  0
 11 12  1  0
 12 13  1  0
 11 14  2  0
 14 15  1  0
 15 16  1  0
 14 17  1  0
 17 18  1  0
 18 19  1  0
 17 20  2  0
 20  9  1  0
  1 21  1  0
  1 22  1  0
  1 23  1  0
  2 24  1  0
  2 25  1  0
  6 26  1  0
  6 27  1  0
 10 28  1  0
 13 29  1  0
 13 30  1  0
 13 31  1  0
 16 32  1  0
 16 33  1  0
 16 34  1  0
 19 35  1  0
 19 36  1  0
 19 37  1  0
 20 38  1  0
M  END
$$$$
