
     RDKit          3D

 50 53  0  0  0  0  0  0  0  0999 V2000
   -2.8119    2.8088    1.8177 C   0  0  0  0  0  0  0  0  0  0  0  0
   -3.5682    1.9722    0.9086 N   0  0  0  0  0  0  0  0  0  0  0  0
   -4.8936    1.6632    1.0817 C   0  0  0  0  0  0  0  0  0  0  0  0
   -5.2897    0.8616    0.0366 C   0  0  0  0  0  0  0  0  0  0  0  0
   -4.1629    0.6712   -0.7940 C   0  0  0  0  0  0  0  0  0  0  0  0
   -3.0966    1.3552   -0.2332 C   0  0  0  0  0  0  0  0  0  0  0  0
   -1.6791    1.4578   -0.7165 C   0  0  0  0  0  0  0  0  0  0  0  0
   -0.7069    0.7711    0.1885 C   0  0  0  0  0  0  0  0  0  0  0  0
    0.1325    1.4092    0.9862 N   0  0  0  0  0  0  0  0  0  0  0  0
    0.7058    0.4992    1.8210 N   0  0  0  0  0  0  0  0  0  0  0  0
    0.2516   -0.6908    1.4958 C   0  0  0  0  0  0  0  0  0  0  0  0
    0.8916   -2.1684    2.1453 S   0  0  0  0  0  0  0  0  0  0  0  0
    2.5179   -1.6101    2.7388 C   0  0  0  0  0  0  0  0  0  0  0  0
    3.4602   -1.3514    1.5703 C   0  0  0  0  0  0  0  0  0  0  0  0
    4.1893   -2.2440    1.1453 O   0  0  0  0  0  0  0  0  0  0  0  0
    3.3769   -0.0590    1.0783 N   0  0  0  0  0  0  0  0  0  0  0  0
    4.1132    0.5142    0.0232 C   0  0  0  0  0  0  0  0  0  0  0  0
    5.1750   -0.1188   -0.6249 C   0  0  0  0  0  0  0  0  0  0  0  0
    5.8573    0.5270   -1.6619 C   0  0  0  0  0  0  0  0  0  0  0  0
    5.4836    1.8094   -2.0579 C   0  0  0  0  0  0  0  0  0  0  0  0
    4.4271    2.4501   -1.4156 C   0  0  0  0  0  0  0  0  0  0  0  0
    3.7468    1.8054   -0.3791 C   0  0  0  0  0  0  0  0  0  0  0  0
   -0.6489   -0.5961    0.4483 N   0  0  0  0  0  0  0  0  0  0  0  0
   -1.3529   -1.6381   -0.2102 C   0  0  0  0  0  0  0  0  0  0  0  0
   -1.4208   -1.6637   -1.6111 C   0  0  0  0  0  0  0  0  0  0  0  0
   -2.1226   -2.6856   -2.2548 C   0  0  0  0  0  0  0  0  0  0  0  0
   -2.7500   -3.6709   -1.5017 C   0  0  0  0  0  0  0  0  0  0  0  0
   -3.4240   -4.6471   -2.1236 F   0  0  0  0  0  0  0  0  0  0  0  0
   -2.6845   -3.6598   -0.1133 C   0  0  0  0  0  0  0  0  0  0  0  0
   -1.9823   -2.6435    0.5386 C   0  0  0  0  0  0  0  0  0  0  0  0
   -3.5042    3.4012    2.4224 H   0  0  0  0  0  0  0  0  0  0  0  0
   -2.1752    3.4828    1.2411 H   0  0  0  0  0  0  0  0  0  0  0  0
   -2.2166    2.1591    2.4632 H   0  0  0  0  0  0  0  0  0  0  0  0
   -5.4498    2.0379    1.9323 H   0  0  0  0  0  0  0  0  0  0  0  0
   -6.2828    0.4560   -0.1086 H   0  0  0  0  0  0  0  0  0  0  0  0
   -4.1323    0.0850   -1.7041 H   0  0  0  0  0  0  0  0  0  0  0  0
   -1.4074    2.5192   -0.7873 H   0  0  0  0  0  0  0  0  0  0  0  0
   -1.5965    1.0801   -1.7397 H   0  0  0  0  0  0  0  0  0  0  0  0
    2.9553   -2.4017    3.3569 H   0  0  0  0  0  0  0  0  0  0  0  0
    2.4302   -0.7241    3.3764 H   0  0  0  0  0  0  0  0  0  0  0  0
    2.6200    0.5179    1.4476 H   0  0  0  0  0  0  0  0  0  0  0  0
    5.5028   -1.1147   -0.3435 H   0  0  0  0  0  0  0  0  0  0  0  0
    6.6829    0.0232   -2.1569 H   0  0  0  0  0  0  0  0  0  0  0  0
    6.0177    2.3080   -2.8627 H   0  0  0  0  0  0  0  0  0  0  0  0
    4.1335    3.4520   -1.7170 H   0  0  0  0  0  0  0  0  0  0  0  0
    2.9248    2.3246    0.1087 H   0  0  0  0  0  0  0  0  0  0  0  0
   -0.8982   -0.9336   -2.2238 H   0  0  0  0  0  0  0  0  0  0  0  0
   -2.1760   -2.7263   -3.3390 H   0  0  0  0  0  0  0  0  0  0  0  0
   -3.1859   -4.4387    0.4532 H   0  0  0  0  0  0  0  0  0  0  0  0
   -1.9758   -2.6360    1.6264 H   0  0  0  0  0  0  0  0  0  0  0  0
  1  2  1  0
  2  3  1  0
  3  4  2  0
  4  5  1  0
  5  6  2  0
  6  7  1  0
  7  8  1  0
  8  9  2  0
  9 10  1  0
 10 11  2  0
 11 12  1  0
 12 13  1  0
 13 14  1  0
 14 15  2  0
 14 16  1  0
 16 17  1  0
 17 18  2  0
 18 19  1  0
 19 20  2  0
 20 21  1  0
 21 22  2  0
 11 23  1  0
 23 24  1  0
 24 25  2  0
 25 26  1  0
 26 27  2  0
 27 28  1  0
 27 29  1  0
 29 30  2  0
  6  2  1  0
 23  8  1  0
 30 24  1  0
 22 17  1  0
  1 31  1  0
  1 32  1  0
  1 33  1  0
  3 34  1  0
  4 35  1  0
  5 36  1  0
  7 37  1  0
  7 38  1  0
 13 39  1  0
 13 40  1  0
 16 41  1  0
 18 42  1  0
 19 43  1  0
 20 44  1  0
 21 45  1  0
 22 46  1  0
 25 47  1  0
 26 48  1  0
 29 49  1  0
 30 50  1  0
M  END
$$$$
