
     RDKit          3D

 36 37  0  0  0  0  0  0  0  0999 V2000
   -0.0019    1.2687   -1.2230 O   0  0  0  0  0  0  0  0  0  0  0  0
   -0.4048    0.5572   -0.3059 C   0  0  0  0  0  0  0  0  0  0  0  0
    0.2156    0.5688    1.0949 C   0  0  0  0  0  0  0  0  0  0  0  0
    1.5597    1.0403    1.1031 O   0  0  0  0  0  0  0  0  0  0  0  0
    2.4404    0.1584    0.5731 C   0  0  0  0  0  0  0  0  0  0  0  0
    2.2087   -0.9747    0.1882 O   0  0  0  0  0  0  0  0  0  0  0  0
    3.7463    0.8185    0.4489 C   0  0  0  0  0  0  0  0  0  0  0  0
    4.2068    1.0805   -0.8483 C   0  0  0  0  0  0  0  0  0  0  0  0
    5.4395    1.7055   -1.0350 C   0  0  0  0  0  0  0  0  0  0  0  0
    6.2134    2.0610    0.0696 C   0  0  0  0  0  0  0  0  0  0  0  0
    5.7599    1.7883    1.3631 C   0  0  0  0  0  0  0  0  0  0  0  0
    4.5245    1.1623    1.5580 C   0  0  0  0  0  0  0  0  0  0  0  0
    3.9976    0.7788    3.3404 Br  0  0  0  0  0  0  0  0  0  0  0  0
   -1.4672   -0.3091   -0.4398 N   0  0  0  0  0  0  0  0  0  0  0  0
   -2.1662   -0.4631   -1.7027 C   0  0  0  0  0  0  0  0  0  0  0  0
   -3.1817   -1.6092   -1.6769 C   0  0  0  0  0  0  0  0  0  0  0  0
   -4.2879   -1.3650   -0.7647 N   0  0  0  0  0  0  0  0  0  0  0  0
   -4.2747   -1.6878    0.5701 C   0  0  0  0  0  0  0  0  0  0  0  0
   -3.1590   -2.2661    1.1019 O   0  0  0  0  0  0  0  0  0  0  0  0
   -5.3933   -1.3690    1.2312 C   0  0  0  0  0  0  0  0  0  0  0  0
   -6.5488   -0.6064    0.1814 S   0  0  0  0  0  0  0  0  0  0  0  0
   -5.4405   -0.7281   -1.1988 C   0  0  0  0  0  0  0  0  0  0  0  0
   -5.6976   -0.3091   -2.3147 O   0  0  0  0  0  0  0  0  0  0  0  0
    0.1536   -0.4220    1.5609 H   0  0  0  0  0  0  0  0  0  0  0  0
   -0.3768    1.2567    1.7077 H   0  0  0  0  0  0  0  0  0  0  0  0
    3.6007    0.8055   -1.7098 H   0  0  0  0  0  0  0  0  0  0  0  0
    5.7952    1.9158   -2.0411 H   0  0  0  0  0  0  0  0  0  0  0  0
    7.1750    2.5482   -0.0765 H   0  0  0  0  0  0  0  0  0  0  0  0
    6.3817    2.0641    2.2117 H   0  0  0  0  0  0  0  0  0  0  0  0
   -1.7028   -0.9492    0.3128 H   0  0  0  0  0  0  0  0  0  0  0  0
   -2.6541    0.4914   -1.9306 H   0  0  0  0  0  0  0  0  0  0  0  0
   -1.4174   -0.6499   -2.4807 H   0  0  0  0  0  0  0  0  0  0  0  0
   -3.5904   -1.7344   -2.6867 H   0  0  0  0  0  0  0  0  0  0  0  0
   -2.6964   -2.5549   -1.4077 H   0  0  0  0  0  0  0  0  0  0  0  0
   -3.3711   -2.5436    2.0115 H   0  0  0  0  0  0  0  0  0  0  0  0
   -5.5859   -1.5283    2.2818 H   0  0  0  0  0  0  0  0  0  0  0  0
  1  2  2  0
  2  3  1  0
  3  4  1  0
  4  5  1  0
  5  6  2  0
  5  7  1  0
  7  8  2  0
  8  9  1  0
  9 10  2  0
 10 11  1  0
 11 12  2  0
 12 13  1  0
  2 14  1  0
 14 15  1  0
 15 16  1  0
 16 17  1  0
 17 18  1  0
 18 19  1  0
 18 20  2  0
 20 21  1  0
 21 22  1  0
 22 23  2  0
 12  7  1  0
 22 17  1  0
  3 24  1  0
  3 25  1  0
  8 26  1  0
  9 27  1  0
 10 28  1  0
 11 29  1  0
 14 30  1  0
 15 31  1  0
 15 32  1  0
 16 33  1  0
 16 34  1  0
 19 35  1  0
 20 36  1  0
M  END
$$$$
