
     RDKit          3D

 40 42  0  0  0  0  0  0  0  0999 V2000
   -2.1972    4.1608    2.0850 C   0  0  0  0  0  0  0  0  0  0  0  0
   -2.9150    3.2229    2.8745 O   0  0  0  0  0  0  0  0  0  0  0  0
   -2.6453    1.8964    2.6691 C   0  0  0  0  0  0  0  0  0  0  0  0
   -3.3553    1.0300    3.4977 C   0  0  0  0  0  0  0  0  0  0  0  0
   -3.1948   -0.3561    3.4175 C   0  0  0  0  0  0  0  0  0  0  0  0
   -2.2918   -0.8581    2.4699 C   0  0  0  0  0  0  0  0  0  0  0  0
   -1.5634   -0.0209    1.6189 C   0  0  0  0  0  0  0  0  0  0  0  0
   -1.7487    1.3798    1.7267 C   0  0  0  0  0  0  0  0  0  0  0  0
   -0.7507   -0.8628    0.7926 C   0  0  0  0  0  0  0  0  0  0  0  0
    0.1518   -0.4331   -0.2320 C   0  0  0  0  0  0  0  0  0  0  0  0
    1.0055   -1.2189   -0.9111 C   0  0  0  0  0  0  0  0  0  0  0  0
    1.9136   -0.7245   -1.9510 C   0  0  0  0  0  0  0  0  0  0  0  0
    1.4901    0.1528   -2.9482 C   0  0  0  0  0  0  0  0  0  0  0  0
    2.3856    0.5677   -3.9279 C   0  0  0  0  0  0  0  0  0  0  0  0
    3.6619    0.1232   -3.9256 N   0  0  0  0  0  4  0  0  0  0  0  0
    4.6045    0.5665   -4.9669 C   0  0  0  0  0  0  0  0  0  0  0  0
    4.0902   -0.7407   -2.9779 C   0  0  0  0  0  0  0  0  0  0  0  0
    3.2285   -1.1838   -1.9813 C   0  0  0  0  0  0  0  0  0  0  0  0
   -1.0041   -2.1678    1.1582 C   0  0  0  0  0  0  0  0  0  0  0  0
   -1.9319   -2.1537    2.1676 N   0  0  0  0  0  0  0  0  0  0  0  0
   -2.4597   -3.3323    2.8201 C   0  0  0  0  0  0  0  0  0  0  0  0
   -2.4308    4.0415    1.0220 H   0  0  0  0  0  0  0  0  0  0  0  0
   -1.1196    4.0854    2.2636 H   0  0  0  0  0  0  0  0  0  0  0  0
   -2.5146    5.1638    2.3853 H   0  0  0  0  0  0  0  0  0  0  0  0
   -4.0513    1.4407    4.2269 H   0  0  0  0  0  0  0  0  0  0  0  0
   -3.7577   -1.0115    4.0746 H   0  0  0  0  0  0  0  0  0  0  0  0
   -1.1846    2.0296    1.0706 H   0  0  0  0  0  0  0  0  0  0  0  0
    0.1355    0.6322   -0.4501 H   0  0  0  0  0  0  0  0  0  0  0  0
    1.0717   -2.2814   -0.6881 H   0  0  0  0  0  0  0  0  0  0  0  0
    0.4620    0.5097   -2.9781 H   0  0  0  0  0  0  0  0  0  0  0  0
    2.0857    1.2505   -4.7180 H   0  0  0  0  0  0  0  0  0  0  0  0
    5.4842    0.9849   -4.4695 H   0  0  0  0  0  0  0  0  0  0  0  0
    4.8706   -0.3078   -5.5675 H   0  0  0  0  0  0  0  0  0  0  0  0
    4.1372    1.3286   -5.5956 H   0  0  0  0  0  0  0  0  0  0  0  0
    5.1241   -1.0711   -3.0292 H   0  0  0  0  0  0  0  0  0  0  0  0
    3.5922   -1.8788   -1.2262 H   0  0  0  0  0  0  0  0  0  0  0  0
   -0.6133   -3.1064    0.7890 H   0  0  0  0  0  0  0  0  0  0  0  0
   -3.5426   -3.3531    2.6733 H   0  0  0  0  0  0  0  0  0  0  0  0
   -2.2125   -3.2782    3.8833 H   0  0  0  0  0  0  0  0  0  0  0  0
   -2.0101   -4.2265    2.3809 H   0  0  0  0  0  0  0  0  0  0  0  0
  1  2  1  0
  2  3  1  0
  3  4  2  0
  4  5  1  0
  5  6  2  0
  6  7  1  0
  7  8  2  0
  7  9  1  0
  9 10  1  0
 10 11  2  3
 11 12  1  0
 12 13  2  0
 13 14  1  0
 14 15  2  0
 15 16  1  0
 15 17  1  0
 17 18  2  0
  9 19  2  0
 19 20  1  0
 20 21  1  0
  8  3  1  0
 18 12  1  0
 20  6  1  0
  1 22  1  0
  1 23  1  0
  1 24  1  0
  4 25  1  0
  5 26  1  0
  8 27  1  0
 10 28  1  0
 11 29  1  0
 13 30  1  0
 14 31  1  0
 16 32  1  0
 16 33  1  0
 16 34  1  0
 17 35  1  0
 18 36  1  0
 19 37  1  0
 21 38  1  0
 21 39  1  0
 21 40  1  0
M  CHG  1  15   1
M  END
$$$$
