
     RDKit          3D

 84 89  0  0  0  0  0  0  0  0999 V2000
    6.9915    5.2037    2.4127 C   0  0  0  0  0  0  0  0  0  0  0  0
    7.8544    4.6154    1.4387 O   0  0  0  0  0  0  0  0  0  0  0  0
    7.2773    4.4483    0.2169 C   0  0  0  0  0  0  0  0  0  0  0  0
    6.1300    4.7616   -0.0725 O   0  0  0  0  0  0  0  0  0  0  0  0
    8.2488    3.8125   -0.7455 C   0  0  0  0  0  0  0  0  0  0  0  0
    8.5288    2.3477   -0.4137 C   0  0  0  0  0  0  0  0  0  0  0  0
    7.2958    1.4357   -0.4404 C   0  0  0  0  0  0  0  0  0  0  0  0
    6.7037    1.2532   -1.8406 C   0  0  0  0  0  0  0  0  0  0  0  0
    5.3774    0.4858   -1.8354 C   0  0  0  0  0  0  0  0  0  0  0  0
    5.5045   -0.9609   -1.3516 C   0  0  0  0  0  0  0  0  0  0  0  0
    4.2014   -1.7581   -1.4851 C   0  0  0  0  0  0  0  0  0  0  0  0
    3.0706   -1.2099   -0.6119 C   0  0  0  0  0  0  0  0  0  0  0  0
    1.8210   -2.0749   -0.6533 C   0  0  0  0  0  0  0  0  0  0  0  0
    1.7728   -3.1131   -1.3140 O   0  0  0  0  0  0  0  0  0  0  0  0
    0.7330   -1.6326    0.0861 N   0  0  0  0  0  0  0  0  0  0  0  0
    0.7418   -0.4904    1.0227 C   0  0  0  0  0  0  0  0  0  0  0  0
   -0.5726    0.3414    1.0164 C   0  0  0  0  0  0  0  0  0  0  0  0
   -1.7194   -0.4405    0.6030 N   0  0  0  0  0  0  0  0  0  0  0  0
   -1.6151   -1.8861    0.9223 C   0  0  2  0  0  0  0  0  0  0  0  0
   -0.4860   -2.4696    0.0697 C   0  0  0  0  0  0  0  0  0  0  0  0
   -2.9996   -2.3254    0.6385 C   0  0  0  0  0  0  0  0  0  0  0  0
   -3.8618   -1.2167    0.6070 C   0  0  0  0  0  0  0  0  0  0  0  0
   -5.1308   -1.6575    0.3487 C   0  0  0  0  0  0  0  0  0  0  0  0
   -6.2200   -0.9246    0.1163 O   0  0  0  0  0  0  0  0  0  0  0  0
   -5.0824   -3.0680    0.3013 N   0  0  0  0  0  0  0  0  0  0  0  0
   -6.2120   -3.9411    0.1791 C   0  0  0  0  0  0  0  0  0  0  0  0
   -6.0959   -5.1750   -0.4742 C   0  0  0  0  0  0  0  0  0  0  0  0
   -7.2072   -6.0141   -0.5989 C   0  0  0  0  0  0  0  0  0  0  0  0
   -8.4378   -5.6332   -0.0687 C   0  0  0  0  0  0  0  0  0  0  0  0
   -8.5588   -4.4160    0.5978 C   0  0  0  0  0  0  0  0  0  0  0  0
   -7.4513   -3.5737    0.7268 C   0  0  0  0  0  0  0  0  0  0  0  0
   -3.7329   -3.4622    0.4259 C   0  0  0  0  0  0  0  0  0  0  0  0
   -3.3525   -4.7370    0.4113 O   0  0  0  0  0  0  0  0  0  0  0  0
   -3.1005    0.0409    0.8106 C   0  0  1  0  0  0  0  0  0  0  0  0
   -3.3607    0.6950    2.1887 C   0  0  0  0  0  0  0  0  0  0  0  0
   -3.1136    0.2523    3.3016 O   0  0  0  0  0  0  0  0  0  0  0  0
   -3.9102    1.9544    1.9340 N   0  0  0  0  0  0  0  0  0  0  0  0
   -4.0334    2.1988    0.5653 C   0  0  0  0  0  0  0  0  0  0  0  0
   -3.5597    1.0916   -0.1562 C   0  0  0  0  0  0  0  0  0  0  0  0
   -3.5407    1.1015   -1.5412 C   0  0  0  0  0  0  0  0  0  0  0  0
   -4.0170    2.2388   -2.1930 C   0  0  0  0  0  0  0  0  0  0  0  0
   -4.4979    3.3429   -1.4607 C   0  0  0  0  0  0  0  0  0  0  0  0
   -5.0482    4.7119   -2.3670 Cl  0  0  0  0  0  0  0  0  0  0  0  0
   -4.5208    3.3444   -0.0522 C   0  0  0  0  0  0  0  0  0  0  0  0
   -5.0118    4.5283    0.7244 C   0  0  0  0  0  0  0  0  0  0  0  0
    6.1102    4.5745    2.5756 H   0  0  0  0  0  0  0  0  0  0  0  0
    7.5430    5.2778    3.3543 H   0  0  0  0  0  0  0  0  0  0  0  0
    6.6964    6.2121    2.1045 H   0  0  0  0  0  0  0  0  0  0  0  0
    7.8542    3.9248   -1.7609 H   0  0  0  0  0  0  0  0  0  0  0  0
    9.1804    4.3910   -0.7206 H   0  0  0  0  0  0  0  0  0  0  0  0
    8.9753    2.2866    0.5870 H   0  0  0  0  0  0  0  0  0  0  0  0
    9.2783    1.9620   -1.1152 H   0  0  0  0  0  0  0  0  0  0  0  0
    6.5311    1.8214    0.2434 H   0  0  0  0  0  0  0  0  0  0  0  0
    7.5988    0.4573   -0.0485 H   0  0  0  0  0  0  0  0  0  0  0  0
    6.5141    2.2300   -2.2975 H   0  0  0  0  0  0  0  0  0  0  0  0
    7.4276    0.7374   -2.4822 H   0  0  0  0  0  0  0  0  0  0  0  0
    4.9750    0.4877   -2.8554 H   0  0  0  0  0  0  0  0  0  0  0  0
    4.6605    1.0313   -1.2122 H   0  0  0  0  0  0  0  0  0  0  0  0
    6.2808   -1.4676   -1.9379 H   0  0  0  0  0  0  0  0  0  0  0  0
    5.8288   -0.9848   -0.3049 H   0  0  0  0  0  0  0  0  0  0  0  0
    3.8835   -1.7765   -2.5354 H   0  0  0  0  0  0  0  0  0  0  0  0
    4.4048   -2.7994   -1.2058 H   0  0  0  0  0  0  0  0  0  0  0  0
    3.4139   -1.1499    0.4271 H   0  0  0  0  0  0  0  0  0  0  0  0
    2.7938   -0.2105   -0.9632 H   0  0  0  0  0  0  0  0  0  0  0  0
    1.5871    0.1764    0.8402 H   0  0  0  0  0  0  0  0  0  0  0  0
    0.8885   -0.9265    2.0188 H   0  0  0  0  0  0  0  0  0  0  0  0
   -0.4519    1.1755    0.3154 H   0  0  0  0  0  0  0  0  0  0  0  0
   -0.6971    0.7762    2.0138 H   0  0  0  0  0  0  0  0  0  0  0  0
   -1.4052   -2.0219    1.9918 H   0  0  0  0  0  0  0  0  0  0  0  0
   -0.2189   -3.4709    0.4295 H   0  0  0  0  0  0  0  0  0  0  0  0
   -0.7935   -2.5786   -0.9786 H   0  0  0  0  0  0  0  0  0  0  0  0
   -6.8410   -1.4541   -0.4161 H   0  0  0  0  0  0  0  0  0  0  0  0
   -5.1590   -5.4985   -0.9186 H   0  0  0  0  0  0  0  0  0  0  0  0
   -7.1067   -6.9685   -1.1086 H   0  0  0  0  0  0  0  0  0  0  0  0
   -9.2980   -6.2909   -0.1639 H   0  0  0  0  0  0  0  0  0  0  0  0
   -9.5129   -4.1263    1.0291 H   0  0  0  0  0  0  0  0  0  0  0  0
   -7.5681   -2.6615    1.3092 H   0  0  0  0  0  0  0  0  0  0  0  0
   -2.3949   -4.7747    0.5776 H   0  0  0  0  0  0  0  0  0  0  0  0
   -4.1761    2.5817    2.6771 H   0  0  0  0  0  0  0  0  0  0  0  0
   -3.1660    0.2497   -2.1009 H   0  0  0  0  0  0  0  0  0  0  0  0
   -4.0117    2.2680   -3.2807 H   0  0  0  0  0  0  0  0  0  0  0  0
   -4.3301    5.3750    0.5924 H   0  0  0  0  0  0  0  0  0  0  0  0
   -6.0165    4.8148    0.3961 H   0  0  0  0  0  0  0  0  0  0  0  0
   -5.0813    4.3248    1.7970 H   0  0  0  0  0  0  0  0  0  0  0  0
  1  2  1  0
  2  3  1  0
  3  4  2  0
  3  5  1  0
  5  6  1  0
  6  7  1  0
  7  8  1  0
  8  9  1  0
  9 10  1  0
 10 11  1  0
 11 12  1  0
 12 13  1  0
 13 14  2  0
 13 15  1  0
 15 16  1  0
 16 17  1  0
 17 18  1  0
 18 19  1  0
 19 20  1  0
 19 21  1  0
 21 22  1  0
 22 23  2  0
 23 24  1  0
 23 25  1  0
 25 26  1  0
 26 27  2  0
 27 28  1  0
 28 29  2  0
 29 30  1  0
 30 31  2  0
 25 32  1  0
 32 33  1  0
 22 34  1  0
 34 35  1  0
 35 36  2  0
 35 37  1  0
 37 38  1  0
 38 39  2  0
 39 40  1  0
 40 41  2  0
 41 42  1  0
 42 43  1  0
 42 44  2  0
 44 45  1  0
 20 15  1  0
 32 21  2  0
 39 34  1  0
 34 18  1  6
 44 38  1  0
 31 26  1  0
  1 46  1  0
  1 47  1  0
  1 48  1  0
  5 49  1  0
  5 50  1  0
  6 51  1  0
  6 52  1  0
  7 53  1  0
  7 54  1  0
  8 55  1  0
  8 56  1  0
  9 57  1  0
  9 58  1  0
 10 59  1  0
 10 60  1  0
 11 61  1  0
 11 62  1  0
 12 63  1  0
 12 64  1  0
 16 65  1  0
 16 66  1  0
 17 67  1  0
 17 68  1  0
 19 69  1  1
 20 70  1  0
 20 71  1  0
 24 72  1  0
 27 73  1  0
 28 74  1  0
 29 75  1  0
 30 76  1  0
 31 77  1  0
 33 78  1  0
 37 79  1  0
 40 80  1  0
 41 81  1  0
 45 82  1  0
 45 83  1  0
 45 84  1  0
M  END
$$$$
