
     RDKit          3D

 61 64  0  0  0  0  0  0  0  0999 V2000
    6.8487    4.1585    0.2123 C   0  0  0  0  0  0  0  0  0  0  0  0
    7.2127    2.9170   -0.3830 O   0  0  0  0  0  0  0  0  0  0  0  0
    6.1764    2.0192   -0.4267 C   0  0  0  0  0  0  0  0  0  0  0  0
    4.9257    2.3539   -0.9511 C   0  0  0  0  0  0  0  0  0  0  0  0
    3.9111    1.3940   -1.0047 C   0  0  0  0  0  0  0  0  0  0  0  0
    4.1393    0.0876   -0.5560 C   0  0  0  0  0  0  0  0  0  0  0  0
    3.0754   -0.8274   -0.6866 N   0  0  0  0  0  0  0  0  0  0  0  0
    2.9997   -2.1141   -0.1755 C   0  0  0  0  0  0  0  0  0  0  0  0
    3.8145   -2.6444    0.5767 O   0  0  0  0  0  0  0  0  0  0  0  0
    1.7845   -2.8851   -0.6659 C   0  0  0  0  0  0  0  0  0  0  0  0
    0.3195   -2.5298    0.3441 S   0  0  0  0  0  0  0  0  0  0  0  0
   -0.3461   -1.1693   -0.5015 C   0  0  0  0  0  0  0  0  0  0  0  0
    0.3762   -0.3538   -1.2385 N   0  0  0  0  0  0  0  0  0  0  0  0
   -0.4700    0.5200   -1.8497 N   0  0  0  0  0  0  0  0  0  0  0  0
   -1.7080    0.2291   -1.4832 C   0  0  0  0  0  0  0  0  0  0  0  0
   -2.9032    1.0644   -1.8254 C   0  0  0  0  0  0  0  0  0  0  0  0
   -3.5649    1.6912   -0.6307 C   0  0  0  0  0  0  0  0  0  0  0  0
   -2.9957    2.2514    0.5032 C   0  0  0  0  0  0  0  0  0  0  0  0
   -4.0367    2.6958    1.3437 C   0  0  0  0  0  0  0  0  0  0  0  0
   -5.2187    2.4246    0.6988 C   0  0  0  0  0  0  0  0  0  0  0  0
   -4.9287    1.8420   -0.5072 N   0  0  0  0  0  0  0  0  0  0  0  0
   -5.9255    1.4747   -1.4885 C   0  0  0  0  0  0  0  0  0  0  0  0
   -1.6952   -0.8807   -0.6392 N   0  0  0  0  0  0  0  0  0  0  0  0
   -2.8079   -1.5637   -0.0861 C   0  0  0  0  0  0  0  0  0  0  0  0
   -2.8130   -1.9279    1.2644 C   0  0  0  0  0  0  0  0  0  0  0  0
   -3.9139   -2.6017    1.8000 C   0  0  0  0  0  0  0  0  0  0  0  0
   -5.0073   -2.9370    0.9927 C   0  0  0  0  0  0  0  0  0  0  0  0
   -6.1915   -3.6500    1.5721 C   0  0  0  0  0  0  0  0  0  0  0  0
   -4.9976   -2.5612   -0.3538 C   0  0  0  0  0  0  0  0  0  0  0  0
   -3.9033   -1.8828   -0.8954 C   0  0  0  0  0  0  0  0  0  0  0  0
    5.3999   -0.2489   -0.0553 C   0  0  0  0  0  0  0  0  0  0  0  0
    6.4143    0.7152    0.0232 C   0  0  0  0  0  0  0  0  0  0  0  0
    7.6783    0.4142    0.4724 O   0  0  0  0  0  0  0  0  0  0  0  0
    7.6822   -0.2860    1.7143 C   0  0  0  0  0  0  0  0  0  0  0  0
    6.3123    4.7896   -0.5013 H   0  0  0  0  0  0  0  0  0  0  0  0
    6.2548    4.0182    1.1199 H   0  0  0  0  0  0  0  0  0  0  0  0
    7.7678    4.6770    0.4876 H   0  0  0  0  0  0  0  0  0  0  0  0
    4.7294    3.3475   -1.3465 H   0  0  0  0  0  0  0  0  0  0  0  0
    2.9434    1.6751   -1.4159 H   0  0  0  0  0  0  0  0  0  0  0  0
    2.2210   -0.4622   -1.1039 H   0  0  0  0  0  0  0  0  0  0  0  0
    1.6082   -2.6901   -1.7311 H   0  0  0  0  0  0  0  0  0  0  0  0
    2.0113   -3.9536   -0.5786 H   0  0  0  0  0  0  0  0  0  0  0  0
   -3.6068    0.4753   -2.4198 H   0  0  0  0  0  0  0  0  0  0  0  0
   -2.5743    1.8800   -2.4829 H   0  0  0  0  0  0  0  0  0  0  0  0
   -1.9361    2.3208    0.7061 H   0  0  0  0  0  0  0  0  0  0  0  0
   -3.9374    3.1680    2.3128 H   0  0  0  0  0  0  0  0  0  0  0  0
   -6.2394    2.6085    0.9978 H   0  0  0  0  0  0  0  0  0  0  0  0
   -6.9039    1.8344   -1.1722 H   0  0  0  0  0  0  0  0  0  0  0  0
   -5.6582    1.9304   -2.4450 H   0  0  0  0  0  0  0  0  0  0  0  0
   -5.9446    0.3876   -1.5690 H   0  0  0  0  0  0  0  0  0  0  0  0
   -1.9921   -1.6662    1.9319 H   0  0  0  0  0  0  0  0  0  0  0  0
   -3.9113   -2.8656    2.8575 H   0  0  0  0  0  0  0  0  0  0  0  0
   -6.6723   -4.2750    0.8129 H   0  0  0  0  0  0  0  0  0  0  0  0
   -5.8933   -4.3173    2.3923 H   0  0  0  0  0  0  0  0  0  0  0  0
   -6.9166   -2.9228    1.9483 H   0  0  0  0  0  0  0  0  0  0  0  0
   -5.8411   -2.8121   -0.9957 H   0  0  0  0  0  0  0  0  0  0  0  0
   -3.9112   -1.6645   -1.9590 H   0  0  0  0  0  0  0  0  0  0  0  0
    5.6205   -1.2706    0.2366 H   0  0  0  0  0  0  0  0  0  0  0  0
    8.7047   -0.2667    2.1053 H   0  0  0  0  0  0  0  0  0  0  0  0
    7.4011   -1.3340    1.5849 H   0  0  0  0  0  0  0  0  0  0  0  0
    7.0329    0.1991    2.4494 H   0  0  0  0  0  0  0  0  0  0  0  0
  1  2  1  0
  2  3  1  0
  3  4  2  0
  4  5  1  0
  5  6  2  0
  6  7  1  0
  7  8  1  0
  8  9  2  0
  8 10  1  0
 10 11  1  0
 11 12  1  0
 12 13  2  0
 13 14  1  0
 14 15  2  0
 15 16  1  0
 16 17  1  0
 17 18  2  0
 18 19  1  0
 19 20  2  0
 20 21  1  0
 21 22  1  0
 15 23  1  0
 23 24  1  0
 24 25  2  0
 25 26  1  0
 26 27  2  0
 27 28  1  0
 27 29  1  0
 29 30  2  0
  6 31  1  0
 31 32  2  0
 32 33  1  0
 33 34  1  0
 32  3  1  0
 23 12  1  0
 30 24  1  0
 21 17  1  0
  1 35  1  0
  1 36  1  0
  1 37  1  0
  4 38  1  0
  5 39  1  0
  7 40  1  0
 10 41  1  0
 10 42  1  0
 16 43  1  0
 16 44  1  0
 18 45  1  0
 19 46  1  0
 20 47  1  0
 22 48  1  0
 22 49  1  0
 22 50  1  0
 25 51  1  0
 26 52  1  0
 28 53  1  0
 28 54  1  0
 28 55  1  0
 29 56  1  0
 30 57  1  0
 31 58  1  0
 34 59  1  0
 34 60  1  0
 34 61  1  0
M  END
$$$$
