
     RDKit          3D

 51 55  0  0  0  0  0  0  0  0999 V2000
    8.9541   -1.8494    0.0138 F   0  0  0  0  0  0  0  0  0  0  0  0
    7.7471   -1.4224    0.4075 C   0  0  0  0  0  0  0  0  0  0  0  0
    6.7006   -2.3307    0.5117 C   0  0  0  0  0  0  0  0  0  0  0  0
    5.4422   -1.8876    0.9206 C   0  0  0  0  0  0  0  0  0  0  0  0
    5.2340   -0.5344    1.2288 C   0  0  0  0  0  0  0  0  0  0  0  0
    3.8666   -0.0484    1.6523 C   0  0  0  0  0  0  0  0  0  0  0  0
    3.0120    0.3591    0.4397 C   0  0  0  0  0  0  0  0  0  0  0  0
    1.6958    0.8888    0.8310 N   0  0  0  0  0  0  0  0  0  0  0  0
    0.7485   -0.1576    1.2737 C   0  0  0  0  0  0  0  0  0  0  0  0
   -0.2680   -0.6358    0.2105 C   0  0  0  0  0  0  0  0  0  0  0  0
   -1.0419    0.4769   -0.3574 N   0  0  0  0  0  0  0  0  0  0  0  0
   -2.4162    0.3878   -0.5595 C   0  0  0  0  0  0  0  0  0  0  0  0
   -3.1424    1.4521   -0.3161 N   0  0  0  0  0  0  0  0  0  0  0  0
   -4.5420    1.4228   -0.4582 C   0  0  0  0  0  0  0  0  0  0  0  0
   -5.2625    2.5826   -0.1661 C   0  0  0  0  0  0  0  0  0  0  0  0
   -6.6553    2.6053   -0.2782 C   0  0  0  0  0  0  0  0  0  0  0  0
   -7.3430    1.4617   -0.6852 C   0  0  0  0  0  0  0  0  0  0  0  0
   -6.6431    0.2918   -0.9826 C   0  0  0  0  0  0  0  0  0  0  0  0
   -5.2497    0.2847   -0.8650 C   0  0  0  0  0  0  0  0  0  0  0  0
   -4.4659   -0.8428   -1.1579 N   0  0  0  0  0  0  0  0  0  0  0  0
   -4.8577   -2.0834   -1.6027 C   0  0  0  0  0  0  0  0  0  0  0  0
   -3.7273   -2.8368   -1.8279 C   0  0  0  0  0  0  0  0  0  0  0  0
   -2.6149   -2.0307   -1.4923 C   0  0  0  0  0  0  0  0  0  0  0  0
   -3.0919   -0.8124   -1.0382 C   0  0  0  0  0  0  0  0  0  0  0  0
   -0.4219    1.8055   -0.2064 C   0  0  0  0  0  0  0  0  0  0  0  0
    1.1139    1.6931   -0.2694 C   0  0  0  0  0  0  0  0  0  0  0  0
    6.3024    0.3681    1.1127 C   0  0  0  0  0  0  0  0  0  0  0  0
    7.5596   -0.0778    0.7034 C   0  0  0  0  0  0  0  0  0  0  0  0
    6.8716   -3.3757    0.2744 H   0  0  0  0  0  0  0  0  0  0  0  0
    4.6265   -2.6028    0.9997 H   0  0  0  0  0  0  0  0  0  0  0  0
    3.3804   -0.8367    2.2385 H   0  0  0  0  0  0  0  0  0  0  0  0
    3.9809    0.8045    2.3342 H   0  0  0  0  0  0  0  0  0  0  0  0
    3.5648    1.1393   -0.1018 H   0  0  0  0  0  0  0  0  0  0  0  0
    2.9000   -0.4815   -0.2580 H   0  0  0  0  0  0  0  0  0  0  0  0
    0.1823    0.2648    2.1146 H   0  0  0  0  0  0  0  0  0  0  0  0
    1.2680   -1.0306    1.6832 H   0  0  0  0  0  0  0  0  0  0  0  0
   -0.9301   -1.3632    0.6937 H   0  0  0  0  0  0  0  0  0  0  0  0
    0.2652   -1.1479   -0.5985 H   0  0  0  0  0  0  0  0  0  0  0  0
   -4.7292    3.4739    0.1537 H   0  0  0  0  0  0  0  0  0  0  0  0
   -7.2009    3.5164   -0.0467 H   0  0  0  0  0  0  0  0  0  0  0  0
   -8.4267    1.4838   -0.7717 H   0  0  0  0  0  0  0  0  0  0  0  0
   -7.1996   -0.5836   -1.2999 H   0  0  0  0  0  0  0  0  0  0  0  0
   -5.8983   -2.3350   -1.7466 H   0  0  0  0  0  0  0  0  0  0  0  0
   -3.7077   -3.8512   -2.2053 H   0  0  0  0  0  0  0  0  0  0  0  0
   -1.5765   -2.3166   -1.5800 H   0  0  0  0  0  0  0  0  0  0  0  0
   -0.7540    2.4620   -1.0197 H   0  0  0  0  0  0  0  0  0  0  0  0
   -0.7293    2.2617    0.7430 H   0  0  0  0  0  0  0  0  0  0  0  0
    1.5503    2.6979   -0.2346 H   0  0  0  0  0  0  0  0  0  0  0  0
    1.3783    1.2554   -1.2423 H   0  0  0  0  0  0  0  0  0  0  0  0
    6.1596    1.4223    1.3413 H   0  0  0  0  0  0  0  0  0  0  0  0
    8.3915    0.6132    0.6136 H   0  0  0  0  0  0  0  0  0  0  0  0
  1  2  1  0
  2  3  2  0
  3  4  1  0
  4  5  2  0
  5  6  1  0
  6  7  1  0
  7  8  1  0
  8  9  1  0
  9 10  1  0
 10 11  1  0
 11 12  1  0
 12 13  2  0
 13 14  1  0
 14 15  2  0
 15 16  1  0
 16 17  2  0
 17 18  1  0
 18 19  2  0
 19 20  1  0
 20 21  1  0
 21 22  2  0
 22 23  1  0
 23 24  2  0
 11 25  1  0
 25 26  1  0
  5 27  1  0
 27 28  2  0
 28  2  1  0
 26  8  1  0
 24 12  1  0
 19 14  1  0
 24 20  1  0
  3 29  1  0
  4 30  1  0
  6 31  1  0
  6 32  1  0
  7 33  1  0
  7 34  1  0
  9 35  1  0
  9 36  1  0
 10 37  1  0
 10 38  1  0
 15 39  1  0
 16 40  1  0
 17 41  1  0
 18 42  1  0
 21 43  1  0
 22 44  1  0
 23 45  1  0
 25 46  1  0
 25 47  1  0
 26 48  1  0
 26 49  1  0
 27 50  1  0
 28 51  1  0
M  END
$$$$
