
     RDKit          3D

 34 35  0  0  0  0  0  0  0  0999 V2000
   -4.6824   -0.6715   -0.9631 O   0  0  0  0  0  0  0  0  0  0  0  0
   -3.9731   -0.3883    0.0088 C   0  0  0  0  0  0  0  0  0  0  0  0
   -4.5481    0.2658    1.2727 C   0  0  0  0  0  0  0  0  0  0  0  0
   -6.1182    1.0379    0.9421 Cl  0  0  0  0  0  0  0  0  0  0  0  0
   -4.7413   -0.9776    2.5312 Cl  0  0  0  0  0  0  0  0  0  0  0  0
   -2.6014   -0.6582   -0.0307 N   0  0  0  0  0  0  0  0  0  0  0  0
   -1.6676   -0.5560    1.0930 C   0  0  0  0  0  0  0  0  0  0  0  0
   -0.2426   -0.1260    0.6699 C   0  0  0  0  0  0  0  0  0  0  0  0
    0.2153   -0.6146   -0.6451 N   0  0  0  0  0  0  0  0  0  0  0  0
    1.6477   -0.9391   -0.6641 C   0  0  0  0  0  0  0  0  0  0  0  0
    2.5374    0.2612   -0.4156 C   0  0  0  0  0  0  0  0  0  0  0  0
    3.4711    0.2548    0.6307 C   0  0  0  0  0  0  0  0  0  0  0  0
    4.2984    1.3584    0.8486 C   0  0  0  0  0  0  0  0  0  0  0  0
    4.2040    2.4769    0.0223 C   0  0  0  0  0  0  0  0  0  0  0  0
    3.2837    2.4937   -1.0238 C   0  0  0  0  0  0  0  0  0  0  0  0
    2.4567    1.3914   -1.2435 C   0  0  0  0  0  0  0  0  0  0  0  0
   -0.6030   -1.7328   -1.1268 C   0  0  0  0  0  0  0  0  0  0  0  0
   -2.0842   -1.3260   -1.2290 C   0  0  0  0  0  0  0  0  0  0  0  0
   -3.8899    1.0563    1.6380 H   0  0  0  0  0  0  0  0  0  0  0  0
   -2.0321    0.1309    1.8586 H   0  0  0  0  0  0  0  0  0  0  0  0
   -1.6278   -1.5536    1.5483 H   0  0  0  0  0  0  0  0  0  0  0  0
    0.4354   -0.4311    1.4774 H   0  0  0  0  0  0  0  0  0  0  0  0
   -0.2157    0.9700    0.6330 H   0  0  0  0  0  0  0  0  0  0  0  0
    1.9272   -1.3347   -1.6498 H   0  0  0  0  0  0  0  0  0  0  0  0
    1.8672   -1.7351    0.0598 H   0  0  0  0  0  0  0  0  0  0  0  0
    3.5613   -0.6100    1.2836 H   0  0  0  0  0  0  0  0  0  0  0  0
    5.0188    1.3451    1.6623 H   0  0  0  0  0  0  0  0  0  0  0  0
    4.8487    3.3350    0.1922 H   0  0  0  0  0  0  0  0  0  0  0  0
    3.2088    3.3645   -1.6697 H   0  0  0  0  0  0  0  0  0  0  0  0
    1.7380    1.4144   -2.0605 H   0  0  0  0  0  0  0  0  0  0  0  0
   -0.5007   -2.5968   -0.4568 H   0  0  0  0  0  0  0  0  0  0  0  0
   -0.2695   -2.0526   -2.1213 H   0  0  0  0  0  0  0  0  0  0  0  0
   -2.2281   -0.6365   -2.0703 H   0  0  0  0  0  0  0  0  0  0  0  0
   -2.6942   -2.2159   -1.4251 H   0  0  0  0  0  0  0  0  0  0  0  0
  1  2  2  0
  2  3  1  0
  3  4  1  0
  3  5  1  0
  2  6  1  0
  6  7  1  0
  7  8  1  0
  8  9  1  0
  9 10  1  0
 10 11  1  0
 11 12  2  0
 12 13  1  0
 13 14  2  0
 14 15  1  0
 15 16  2  0
  9 17  1  0
 17 18  1  0
 18  6  1  0
 16 11  1  0
  3 19  1  0
  7 20  1  0
  7 21  1  0
  8 22  1  0
  8 23  1  0
 10 24  1  0
 10 25  1  0
 12 26  1  0
 13 27  1  0
 14 28  1  0
 15 29  1  0
 16 30  1  0
 17 31  1  0
 17 32  1  0
 18 33  1  0
 18 34  1  0
M  END
$$$$
