
     RDKit          3D

 26 27  0  0  0  0  0  0  0  0999 V2000
   -2.5648   -1.8358   -1.7980 C   0  0  0  0  0  0  0  0  0  0  0  0
   -2.2235   -1.8352   -0.4102 O   0  0  0  0  0  0  0  0  0  0  0  0
   -0.9879   -1.2801   -0.2116 C   0  0  0  0  0  0  0  0  0  0  0  0
    0.1267   -2.0999   -0.4030 C   0  0  0  0  0  0  0  0  0  0  0  0
    1.3986   -1.6184   -0.1122 C   0  0  0  0  0  0  0  0  0  0  0  0
    1.5563   -0.3171    0.3702 C   0  0  0  0  0  0  0  0  0  0  0  0
    2.8151    0.0720    0.7420 O   0  0  0  0  0  0  0  0  0  0  0  0
    3.5760    0.4886   -0.3938 C   0  0  0  0  0  0  0  0  0  0  0  0
    0.4386    0.5048    0.5908 C   0  0  0  0  0  0  0  0  0  0  0  0
   -0.8408    0.0205    0.2983 C   0  0  0  0  0  0  0  0  0  0  0  0
   -2.0127    0.8966    0.5284 C   0  0  0  0  0  0  0  0  0  0  0  0
   -3.0729    0.7183   -0.0575 O   0  0  0  0  0  0  0  0  0  0  0  0
   -1.8343    2.0204    1.4828 C   0  0  0  0  0  0  0  0  0  0  0  0
   -3.2824    2.7018    2.1389 Cl  0  0  0  0  0  0  0  0  0  0  0  0
   -0.6124    2.4829    1.7622 C   0  0  0  0  0  0  0  0  0  0  0  0
   -0.3204    3.8229    2.8162 Cl  0  0  0  0  0  0  0  0  0  0  0  0
    0.5844    1.8796    1.1222 C   0  0  0  0  0  0  0  0  0  0  0  0
    1.6348    2.5002    1.0190 O   0  0  0  0  0  0  0  0  0  0  0  0
   -2.4150   -0.8513   -2.2552 H   0  0  0  0  0  0  0  0  0  0  0  0
   -3.6247   -2.0933   -1.8825 H   0  0  0  0  0  0  0  0  0  0  0  0
   -1.9864   -2.5940   -2.3362 H   0  0  0  0  0  0  0  0  0  0  0  0
    0.0005   -3.1242   -0.7463 H   0  0  0  0  0  0  0  0  0  0  0  0
    2.2634   -2.2676   -0.2289 H   0  0  0  0  0  0  0  0  0  0  0  0
    3.8727   -0.3762   -0.9964 H   0  0  0  0  0  0  0  0  0  0  0  0
    4.4845    0.9762   -0.0282 H   0  0  0  0  0  0  0  0  0  0  0  0
    3.0266    1.2085   -1.0109 H   0  0  0  0  0  0  0  0  0  0  0  0
  1  2  1  0
  2  3  1  0
  3  4  2  0
  4  5  1  0
  5  6  2  0
  6  7  1  0
  7  8  1  0
  6  9  1  0
  9 10  2  0
 10 11  1  0
 11 12  2  0
 11 13  1  0
 13 14  1  0
 13 15  2  0
 15 16  1  0
 15 17  1  0
 17 18  2  0
 10  3  1  0
 17  9  1  0
  1 19  1  0
  1 20  1  0
  1 21  1  0
  4 22  1  0
  5 23  1  0
  8 24  1  0
  8 25  1  0
  8 26  1  0
M  END
$$$$
