
     RDKit          3D

 46 48  0  0  0  0  0  0  0  0999 V2000
   -4.5595   -1.5941   -0.9399 C   0  0  0  0  0  0  0  0  0  0  0  0
   -3.9238   -0.2197   -0.8180 C   0  0  0  0  0  0  0  0  0  0  0  0
   -3.5737    0.0970    0.5742 N   0  0  0  0  0  4  0  0  0  0  0  0
   -2.3670   -0.1280    1.0810 C   0  0  0  0  0  0  0  0  0  0  0  0
   -1.2800   -0.7446    0.4110 C   0  0  0  0  0  0  0  0  0  0  0  0
   -0.0765   -0.1571    0.3153 C   0  0  0  0  0  0  0  0  0  0  0  0
    1.0098   -0.7642   -0.4265 C   0  0  0  0  0  0  0  0  0  0  0  0
    2.1741   -0.1434   -0.6706 C   0  0  0  0  0  0  0  0  0  0  0  0
    3.2557   -0.6342   -1.4189 N   0  0  0  0  0  0  0  0  0  0  0  0
    3.1267   -1.7865   -2.2288 C   0  0  0  0  0  0  0  0  0  0  0  0
    4.3960   -2.5511   -2.5534 C   0  0  0  0  0  0  0  0  0  0  0  0
    2.0500   -2.2389   -2.6348 O   0  0  0  0  0  0  0  0  0  0  0  0
    4.4686    0.1465   -1.4497 C   0  0  0  0  0  0  0  0  0  0  0  0
    5.1396    0.3942   -2.6571 C   0  0  0  0  0  0  0  0  0  0  0  0
    6.3001    1.1729   -2.6823 C   0  0  0  0  0  0  0  0  0  0  0  0
    6.8010    1.7188   -1.5031 C   0  0  0  0  0  0  0  0  0  0  0  0
    6.1395    1.4934   -0.2984 C   0  0  0  0  0  0  0  0  0  0  0  0
    4.9768    0.7187   -0.2719 C   0  0  0  0  0  0  0  0  0  0  0  0
   -2.2837    0.3910    2.7154 S   0  0  0  0  0  0  0  0  0  0  0  0
   -3.9225    0.9106    2.7101 C   0  0  0  0  0  0  0  0  0  0  0  0
   -4.6637    1.4849    3.7547 C   0  0  0  0  0  0  0  0  0  0  0  0
   -5.9950    1.8279    3.5049 C   0  0  0  0  0  0  0  0  0  0  0  0
   -6.5696    1.6061    2.2569 C   0  0  0  0  0  0  0  0  0  0  0  0
   -5.8259    1.0305    1.2191 C   0  0  0  0  0  0  0  0  0  0  0  0
   -4.4801    0.6793    1.4538 C   0  0  0  0  0  0  0  0  0  0  0  0
   -3.8838   -2.3724   -0.5737 H   0  0  0  0  0  0  0  0  0  0  0  0
   -5.4829   -1.6550   -0.3549 H   0  0  0  0  0  0  0  0  0  0  0  0
   -4.8004   -1.8117   -1.9854 H   0  0  0  0  0  0  0  0  0  0  0  0
   -4.6027    0.5477   -1.2055 H   0  0  0  0  0  0  0  0  0  0  0  0
   -3.0308   -0.1622   -1.4513 H   0  0  0  0  0  0  0  0  0  0  0  0
   -1.4567   -1.6958   -0.0838 H   0  0  0  0  0  0  0  0  0  0  0  0
    0.1227    0.8130    0.7692 H   0  0  0  0  0  0  0  0  0  0  0  0
    0.8355   -1.7716   -0.7938 H   0  0  0  0  0  0  0  0  0  0  0  0
    2.3254    0.8563   -0.2678 H   0  0  0  0  0  0  0  0  0  0  0  0
    4.7155   -2.3304   -3.5751 H   0  0  0  0  0  0  0  0  0  0  0  0
    5.2020   -2.3458   -1.8448 H   0  0  0  0  0  0  0  0  0  0  0  0
    4.1801   -3.6227   -2.4796 H   0  0  0  0  0  0  0  0  0  0  0  0
    4.7510    0.0227   -3.6021 H   0  0  0  0  0  0  0  0  0  0  0  0
    6.8087    1.3619   -3.6253 H   0  0  0  0  0  0  0  0  0  0  0  0
    7.7068    2.3219   -1.5230 H   0  0  0  0  0  0  0  0  0  0  0  0
    6.5343    1.9166    0.6227 H   0  0  0  0  0  0  0  0  0  0  0  0
    4.4986    0.5372    0.6875 H   0  0  0  0  0  0  0  0  0  0  0  0
   -4.2220    1.6580    4.7352 H   0  0  0  0  0  0  0  0  0  0  0  0
   -6.5910    2.2744    4.3025 H   0  0  0  0  0  0  0  0  0  0  0  0
   -7.6113    1.8814    2.0905 H   0  0  0  0  0  0  0  0  0  0  0  0
   -6.3160    0.8666    0.2631 H   0  0  0  0  0  0  0  0  0  0  0  0
  1  2  1  0
  2  3  1  0
  3  4  2  0
  4  5  1  0
  5  6  2  3
  6  7  1  0
  7  8  2  3
  8  9  1  0
  9 10  1  0
 10 11  1  0
 10 12  2  0
  9 13  1  0
 13 14  2  0
 14 15  1  0
 15 16  2  0
 16 17  1  0
 17 18  2  0
  4 19  1  0
 19 20  1  0
 20 21  2  0
 21 22  1  0
 22 23  2  0
 23 24  1  0
 24 25  2  0
 25  3  1  0
 18 13  1  0
 25 20  1  0
  1 26  1  0
  1 27  1  0
  1 28  1  0
  2 29  1  0
  2 30  1  0
  5 31  1  0
  6 32  1  0
  7 33  1  0
  8 34  1  0
 11 35  1  0
 11 36  1  0
 11 37  1  0
 14 38  1  0
 15 39  1  0
 16 40  1  0
 17 41  1  0
 18 42  1  0
 21 43  1  0
 22 44  1  0
 23 45  1  0
 24 46  1  0
M  CHG  1   3   1
M  END
$$$$
