
     RDKit          3D

 25 26  0  0  0  0  0  0  0  0999 V2000
    4.9448    1.7510    0.9800 O   0  0  0  0  0  0  0  0  0  0  0  0
    4.7693    0.5530    0.7193 N   0  0  0  0  0  4  0  0  0  0  0  0
    5.6743   -0.2891    0.6346 O   0  0  0  0  0  1  0  0  0  0  0  0
    3.4048    0.0994    0.4985 C   0  0  0  0  0  0  0  0  0  0  0  0
    3.1273   -1.2281    0.1840 C   0  0  0  0  0  0  0  0  0  0  0  0
    1.7967   -1.6015   -0.0168 C   0  0  0  0  0  0  0  0  0  0  0  0
    0.7761   -0.6521    0.1031 C   0  0  0  0  0  0  0  0  0  0  0  0
   -0.5485   -1.0883   -0.1251 N   0  0  0  0  0  0  0  0  0  0  0  0
   -1.7283   -0.3240   -0.2667 C   0  0  0  0  0  0  0  0  0  0  0  0
   -2.9692   -0.9506   -0.0637 C   0  0  0  0  0  0  0  0  0  0  0  0
   -4.1702   -0.2589   -0.2494 C   0  0  0  0  0  0  0  0  0  0  0  0
   -4.1507    1.0685   -0.6657 C   0  0  0  0  0  0  0  0  0  0  0  0
   -2.9322    1.6963   -0.9065 C   0  0  0  0  0  0  0  0  0  0  0  0
   -1.7334    0.9998   -0.7198 C   0  0  0  0  0  0  0  0  0  0  0  0
    1.0582    0.6355    0.4016 N   0  0  0  0  0  0  0  0  0  0  0  0
    2.3534    0.9919    0.5964 C   0  0  0  0  0  0  0  0  0  0  0  0
    3.9159   -1.9700    0.0867 H   0  0  0  0  0  0  0  0  0  0  0  0
    1.5608   -2.6287   -0.2797 H   0  0  0  0  0  0  0  0  0  0  0  0
   -0.7219   -1.9447    0.3888 H   0  0  0  0  0  0  0  0  0  0  0  0
   -3.0152   -1.9911    0.2467 H   0  0  0  0  0  0  0  0  0  0  0  0
   -5.1184   -0.7598   -0.0743 H   0  0  0  0  0  0  0  0  0  0  0  0
   -5.0813    1.6097   -0.8128 H   0  0  0  0  0  0  0  0  0  0  0  0
   -2.9077    2.7279   -1.2474 H   0  0  0  0  0  0  0  0  0  0  0  0
   -0.8013    1.5115   -0.9418 H   0  0  0  0  0  0  0  0  0  0  0  0
    2.4964    2.0426    0.8362 H   0  0  0  0  0  0  0  0  0  0  0  0
  1  2  2  0
  2  3  1  0
  2  4  1  0
  4  5  2  0
  5  6  1  0
  6  7  2  0
  7  8  1  0
  8  9  1  0
  9 10  2  0
 10 11  1  0
 11 12  2  0
 12 13  1  0
 13 14  2  0
  7 15  1  0
 15 16  2  0
 16  4  1  0
 14  9  1  0
  5 17  1  0
  6 18  1  0
  8 19  1  0
 10 20  1  0
 11 21  1  0
 12 22  1  0
 13 23  1  0
 14 24  1  0
 16 25  1  0
M  CHG  2   2   1   3  -1
M  END
$$$$
