
     RDKit          3D

 54 57  0  0  0  0  0  0  0  0999 V2000
    8.9040   -0.0699    2.4414 C   0  0  0  0  0  0  0  0  0  0  0  0
    8.6069   -0.8442    1.1548 C   0  0  0  0  0  0  0  0  0  0  0  0
    8.8276   -2.3452    1.3583 C   0  0  0  0  0  0  0  0  0  0  0  0
    7.2105   -0.5507    0.6368 C   0  0  0  0  0  0  0  0  0  0  0  0
    6.0659   -0.8657    1.3807 C   0  0  0  0  0  0  0  0  0  0  0  0
    4.7848   -0.5878    0.8874 C   0  0  0  0  0  0  0  0  0  0  0  0
    4.6207    0.0109   -0.3603 C   0  0  0  0  0  0  0  0  0  0  0  0
    3.3693    0.3248   -0.9308 N   0  0  0  0  0  0  0  0  0  0  0  0
    2.1107    0.1081   -0.3836 C   0  0  0  0  0  0  0  0  0  0  0  0
    1.8690   -0.4015    0.7061 O   0  0  0  0  0  0  0  0  0  0  0  0
    0.9980    0.5908   -1.3181 C   0  0  0  0  0  0  0  0  0  0  0  0
   -0.2880    0.3668   -0.7446 O   0  0  0  0  0  0  0  0  0  0  0  0
   -1.3152    0.7741   -1.5218 C   0  0  0  0  0  0  0  0  0  0  0  0
   -1.2138    1.2920   -2.6219 O   0  0  0  0  0  0  0  0  0  0  0  0
   -2.6166    0.5060   -0.8518 C   0  0  0  0  0  0  0  0  0  0  0  0
   -2.7038   -0.0914    0.4113 C   0  0  0  0  0  0  0  0  0  0  0  0
   -3.9551   -0.3215    0.9976 C   0  0  0  0  0  0  0  0  0  0  0  0
   -5.1408    0.0392    0.3367 C   0  0  0  0  0  0  0  0  0  0  0  0
   -5.0388    0.6302   -0.9143 C   0  0  0  0  0  0  0  0  0  0  0  0
   -3.7931    0.8678   -1.5160 C   0  0  0  0  0  0  0  0  0  0  0  0
   -6.4753    1.1036   -1.7913 S   0  0  0  0  0  6  0  0  0  0  0  0
   -6.4362    2.5491   -1.8830 O   0  0  0  0  0  0  0  0  0  0  0  0
   -6.5269    0.2614   -2.9693 O   0  0  0  0  0  0  0  0  0  0  0  0
   -7.8818    0.7049   -0.8342 C   0  0  0  0  0  0  0  0  0  0  0  0
   -9.1451    1.0067   -1.3619 C   0  0  0  0  0  0  0  0  0  0  0  0
  -10.2896    0.7039   -0.6285 C   0  0  0  0  0  0  0  0  0  0  0  0
  -10.1693    0.1039    0.6225 C   0  0  0  0  0  0  0  0  0  0  0  0
   -8.9043   -0.1925    1.1387 C   0  0  0  0  0  0  0  0  0  0  0  0
   -7.7412    0.1072    0.4105 C   0  0  0  0  0  0  0  0  0  0  0  0
   -6.4311   -0.2323    1.0136 C   0  0  0  0  0  0  0  0  0  0  0  0
   -6.4111   -0.7612    2.1220 O   0  0  0  0  0  0  0  0  0  0  0  0
    5.7607    0.3276   -1.1079 C   0  0  0  0  0  0  0  0  0  0  0  0
    7.0409    0.0504   -0.6160 C   0  0  0  0  0  0  0  0  0  0  0  0
    8.7581    1.0060    2.2934 H   0  0  0  0  0  0  0  0  0  0  0  0
    9.9419   -0.2273    2.7542 H   0  0  0  0  0  0  0  0  0  0  0  0
    8.2568   -0.3838    3.2676 H   0  0  0  0  0  0  0  0  0  0  0  0
    9.3349   -0.5108    0.4033 H   0  0  0  0  0  0  0  0  0  0  0  0
    8.6273   -2.8991    0.4344 H   0  0  0  0  0  0  0  0  0  0  0  0
    8.1770   -2.7530    2.1396 H   0  0  0  0  0  0  0  0  0  0  0  0
    9.8640   -2.5454    1.6511 H   0  0  0  0  0  0  0  0  0  0  0  0
    6.1538   -1.3337    2.3589 H   0  0  0  0  0  0  0  0  0  0  0  0
    3.9373   -0.8552    1.5104 H   0  0  0  0  0  0  0  0  0  0  0  0
    3.4032    0.7583   -1.8454 H   0  0  0  0  0  0  0  0  0  0  0  0
    1.0822    0.0365   -2.2604 H   0  0  0  0  0  0  0  0  0  0  0  0
    1.1419    1.6639   -1.4910 H   0  0  0  0  0  0  0  0  0  0  0  0
   -1.8080   -0.3859    0.9569 H   0  0  0  0  0  0  0  0  0  0  0  0
   -3.9932   -0.7884    1.9824 H   0  0  0  0  0  0  0  0  0  0  0  0
   -3.7442    1.3342   -2.5006 H   0  0  0  0  0  0  0  0  0  0  0  0
   -9.2380    1.4758   -2.3403 H   0  0  0  0  0  0  0  0  0  0  0  0
  -11.2736    0.9347   -1.0307 H   0  0  0  0  0  0  0  0  0  0  0  0
  -11.0598   -0.1351    1.2002 H   0  0  0  0  0  0  0  0  0  0  0  0
   -8.8346   -0.6620    2.1198 H   0  0  0  0  0  0  0  0  0  0  0  0
    5.6755    0.7951   -2.0853 H   0  0  0  0  0  0  0  0  0  0  0  0
    7.9055    0.3098   -1.2233 H   0  0  0  0  0  0  0  0  0  0  0  0
  1  2  1  0
  2  3  1  0
  2  4  1  0
  4  5  2  0
  5  6  1  0
  6  7  2  0
  7  8  1  0
  8  9  1  0
  9 10  2  0
  9 11  1  0
 11 12  1  0
 12 13  1  0
 13 14  2  0
 13 15  1  0
 15 16  2  0
 16 17  1  0
 17 18  2  0
 18 19  1  0
 19 20  2  0
 19 21  1  0
 21 22  2  0
 21 23  2  0
 21 24  1  0
 24 25  2  0
 25 26  1  0
 26 27  2  0
 27 28  1  0
 28 29  2  0
 29 30  1  0
 30 31  2  0
  7 32  1  0
 32 33  2  0
 33  4  1  0
 20 15  1  0
 29 24  1  0
 30 18  1  0
  1 34  1  0
  1 35  1  0
  1 36  1  0
  2 37  1  0
  3 38  1  0
  3 39  1  0
  3 40  1  0
  5 41  1  0
  6 42  1  0
  8 43  1  0
 11 44  1  0
 11 45  1  0
 16 46  1  0
 17 47  1  0
 20 48  1  0
 25 49  1  0
 26 50  1  0
 27 51  1  0
 28 52  1  0
 32 53  1  0
 33 54  1  0
M  END
$$$$
