
     RDKit          3D

 53 55  0  0  0  0  0  0  0  0999 V2000
   -4.1261   -3.8188   -3.0544 C   0  0  0  0  0  0  0  0  0  0  0  0
   -5.1952   -3.2224   -2.3306 O   0  0  0  0  0  0  0  0  0  0  0  0
   -4.8977   -2.1130   -1.5782 C   0  0  0  0  0  0  0  0  0  0  0  0
   -3.6746   -1.4379   -1.5540 C   0  0  0  0  0  0  0  0  0  0  0  0
   -3.4812   -0.3496   -0.6919 C   0  0  0  0  0  0  0  0  0  0  0  0
   -2.2013    0.2509   -0.6849 N   0  0  0  0  0  0  0  0  0  0  0  0
   -1.7379    1.2342    0.1720 C   0  0  0  0  0  0  0  0  0  0  0  0
   -2.3727    1.7745    1.0673 O   0  0  0  0  0  0  0  0  0  0  0  0
   -0.2980    1.6127   -0.1234 C   0  0  0  0  0  0  0  0  0  0  0  0
    0.3682    2.3043    1.0613 C   0  0  0  0  0  0  0  0  0  0  0  0
    0.6015    1.3240    2.1329 N   0  0  0  0  0  0  0  0  0  0  0  0
    1.9479    1.5069    3.1221 S   0  0  0  0  0  6  0  0  0  0  0  0
    2.2005    2.9201    3.2906 O   0  0  0  0  0  0  0  0  0  0  0  0
    1.7567    0.6227    4.2481 O   0  0  0  0  0  0  0  0  0  0  0  0
    3.2258    0.8025    2.1111 C   0  0  0  0  0  0  0  0  0  0  0  0
    3.2938   -0.5880    1.9734 C   0  0  0  0  0  0  0  0  0  0  0  0
    4.2901   -1.1552    1.1802 C   0  0  0  0  0  0  0  0  0  0  0  0
    5.2068   -0.3285    0.5289 C   0  0  0  0  0  0  0  0  0  0  0  0
    5.1559    1.0625    0.6823 C   0  0  0  0  0  0  0  0  0  0  0  0
    4.1638    1.6314    1.4885 C   0  0  0  0  0  0  0  0  0  0  0  0
    6.2356    1.9079    0.0689 C   0  0  0  0  0  0  0  0  0  0  0  0
    6.7562    1.2903   -1.2166 C   0  0  0  0  0  0  0  0  0  0  0  0
    7.0534   -0.1832   -1.0647 C   0  0  0  0  0  0  0  0  0  0  0  0
    7.9438   -0.7430   -1.6992 O   0  0  0  0  0  0  0  0  0  0  0  0
    6.2012   -0.8985   -0.2670 N   0  0  0  0  0  0  0  0  0  0  0  0
   -4.5425    0.0806    0.1065 C   0  0  0  0  0  0  0  0  0  0  0  0
   -5.7812   -0.5685    0.0662 C   0  0  0  0  0  0  0  0  0  0  0  0
   -6.7336   -0.0350    0.8904 O   0  0  0  0  0  0  0  0  0  0  0  0
   -7.9652   -0.7293    0.9863 C   0  0  0  0  0  0  0  0  0  0  0  0
   -5.9497   -1.6672   -0.7731 C   0  0  0  0  0  0  0  0  0  0  0  0
   -4.4977   -4.7535   -3.4896 H   0  0  0  0  0  0  0  0  0  0  0  0
   -3.8056   -3.1687   -3.8757 H   0  0  0  0  0  0  0  0  0  0  0  0
   -3.2869   -4.0676   -2.3962 H   0  0  0  0  0  0  0  0  0  0  0  0
   -2.8582   -1.7675   -2.1853 H   0  0  0  0  0  0  0  0  0  0  0  0
   -1.5359   -0.1337   -1.3427 H   0  0  0  0  0  0  0  0  0  0  0  0
   -0.3123    2.2960   -0.9818 H   0  0  0  0  0  0  0  0  0  0  0  0
    0.2721    0.7200   -0.4074 H   0  0  0  0  0  0  0  0  0  0  0  0
   -0.2404    3.1247    1.4517 H   0  0  0  0  0  0  0  0  0  0  0  0
    1.3199    2.7226    0.7164 H   0  0  0  0  0  0  0  0  0  0  0  0
   -0.2240    1.0420    2.6693 H   0  0  0  0  0  0  0  0  0  0  0  0
    2.5755   -1.2300    2.4790 H   0  0  0  0  0  0  0  0  0  0  0  0
    4.3416   -2.2362    1.0772 H   0  0  0  0  0  0  0  0  0  0  0  0
    4.1249    2.7089    1.6372 H   0  0  0  0  0  0  0  0  0  0  0  0
    5.8538    2.9121   -0.1445 H   0  0  0  0  0  0  0  0  0  0  0  0
    7.0489    2.0061    0.7968 H   0  0  0  0  0  0  0  0  0  0  0  0
    6.0139    1.3931   -2.0169 H   0  0  0  0  0  0  0  0  0  0  0  0
    7.6680    1.8083   -1.5292 H   0  0  0  0  0  0  0  0  0  0  0  0
    6.3385   -1.8997   -0.2743 H   0  0  0  0  0  0  0  0  0  0  0  0
   -4.4457    0.9233    0.7821 H   0  0  0  0  0  0  0  0  0  0  0  0
   -8.4753   -0.7799    0.0171 H   0  0  0  0  0  0  0  0  0  0  0  0
   -8.6102   -0.1702    1.6746 H   0  0  0  0  0  0  0  0  0  0  0  0
   -7.8194   -1.7304    1.4041 H   0  0  0  0  0  0  0  0  0  0  0  0
   -6.8897   -2.2073   -0.8217 H   0  0  0  0  0  0  0  0  0  0  0  0
  1  2  1  0
  2  3  1  0
  3  4  2  0
  4  5  1  0
  5  6  1  0
  6  7  1  0
  7  8  2  0
  7  9  1  0
  9 10  1  0
 10 11  1  0
 11 12  1  0
 12 13  2  0
 12 14  2  0
 12 15  1  0
 15 16  2  0
 16 17  1  0
 17 18  2  0
 18 19  1  0
 19 20  2  0
 19 21  1  0
 21 22  1  0
 22 23  1  0
 23 24  2  0
 23 25  1  0
  5 26  2  0
 26 27  1  0
 27 28  1  0
 28 29  1  0
 27 30  2  0
 30  3  1  0
 20 15  1  0
 25 18  1  0
  1 31  1  0
  1 32  1  0
  1 33  1  0
  4 34  1  0
  6 35  1  0
  9 36  1  0
  9 37  1  0
 10 38  1  0
 10 39  1  0
 11 40  1  0
 16 41  1  0
 17 42  1  0
 20 43  1  0
 21 44  1  0
 21 45  1  0
 22 46  1  0
 22 47  1  0
 25 48  1  0
 26 49  1  0
 29 50  1  0
 29 51  1  0
 29 52  1  0
 30 53  1  0
M  END
$$$$
