
     RDKit          3D

 38 39  0  0  0  0  0  0  0  0999 V2000
   -4.3910    2.2623    3.4033 C   0  0  0  0  0  0  0  0  0  0  0  0
   -3.2855    1.9861    2.6989 C   0  0  0  0  0  0  0  0  0  0  0  0
   -3.2614    1.7505    1.2151 C   0  0  0  0  0  0  0  0  0  0  0  0
   -2.7100    0.3903    0.8599 C   0  0  0  0  0  0  0  0  0  0  0  0
   -3.5322   -0.7399    0.9011 C   0  0  0  0  0  0  0  0  0  0  0  0
   -3.0115   -1.9951    0.5970 C   0  0  0  0  0  0  0  0  0  0  0  0
   -1.6653   -2.1311    0.2571 C   0  0  0  0  0  0  0  0  0  0  0  0
   -1.2466   -3.4118    0.0102 O   0  0  0  0  0  0  0  0  0  0  0  0
   -0.8033   -1.0220    0.1823 C   0  0  0  0  0  0  0  0  0  0  0  0
    0.6150   -1.0988   -0.2506 C   0  0  0  0  0  0  0  0  0  0  0  0
    1.0720   -0.2551   -1.2846 C   0  0  0  0  0  0  0  0  0  0  0  0
    2.4100   -0.2584   -1.7151 C   0  0  0  0  0  0  0  0  0  0  0  0
    2.8651    0.6707   -2.8158 C   0  0  0  0  0  0  0  0  0  0  0  0
    3.5009    1.9211   -2.2772 C   0  0  0  0  0  0  0  0  0  0  0  0
    4.7573    2.3047   -2.5398 C   0  0  0  0  0  0  0  0  0  0  0  0
    3.3201   -1.1179   -1.0914 C   0  0  0  0  0  0  0  0  0  0  0  0
    2.8975   -1.9719   -0.0749 C   0  0  0  0  0  0  0  0  0  0  0  0
    1.5611   -1.9600    0.3313 C   0  0  0  0  0  0  0  0  0  0  0  0
    1.1599   -2.8376    1.3062 O   0  0  0  0  0  0  0  0  0  0  0  0
   -1.3572    0.2355    0.5074 C   0  0  0  0  0  0  0  0  0  0  0  0
   -5.3667    2.3317    2.9326 H   0  0  0  0  0  0  0  0  0  0  0  0
   -4.3391    2.4205    4.4762 H   0  0  0  0  0  0  0  0  0  0  0  0
   -2.3313    1.9263    3.2188 H   0  0  0  0  0  0  0  0  0  0  0  0
   -2.6503    2.5309    0.7446 H   0  0  0  0  0  0  0  0  0  0  0  0
   -4.2633    1.8555    0.7793 H   0  0  0  0  0  0  0  0  0  0  0  0
   -4.5793   -0.6500    1.1804 H   0  0  0  0  0  0  0  0  0  0  0  0
   -3.6484   -2.8742    0.6379 H   0  0  0  0  0  0  0  0  0  0  0  0
   -0.3065   -3.4391    0.2746 H   0  0  0  0  0  0  0  0  0  0  0  0
    0.3653    0.4155   -1.7730 H   0  0  0  0  0  0  0  0  0  0  0  0
    2.0086    0.9521   -3.4410 H   0  0  0  0  0  0  0  0  0  0  0  0
    3.5516    0.1292   -3.4793 H   0  0  0  0  0  0  0  0  0  0  0  0
    2.8821    2.5479   -1.6381 H   0  0  0  0  0  0  0  0  0  0  0  0
    5.4144    1.7175   -3.1736 H   0  0  0  0  0  0  0  0  0  0  0  0
    5.1555    3.2233   -2.1195 H   0  0  0  0  0  0  0  0  0  0  0  0
    4.3629   -1.1284   -1.4016 H   0  0  0  0  0  0  0  0  0  0  0  0
    3.6177   -2.6456    0.3793 H   0  0  0  0  0  0  0  0  0  0  0  0
    1.9494   -3.1520    1.7805 H   0  0  0  0  0  0  0  0  0  0  0  0
   -0.7177    1.1173    0.4896 H   0  0  0  0  0  0  0  0  0  0  0  0
  1  2  2  0
  2  3  1  0
  3  4  1  0
  4  5  2  0
  5  6  1  0
  6  7  2  0
  7  8  1  0
  7  9  1  0
  9 10  1  0
 10 11  2  0
 11 12  1  0
 12 13  1  0
 13 14  1  0
 14 15  2  0
 12 16  2  0
 16 17  1  0
 17 18  2  0
 18 19  1  0
  9 20  2  0
 20  4  1  0
 18 10  1  0
  1 21  1  0
  1 22  1  0
  2 23  1  0
  3 24  1  0
  3 25  1  0
  5 26  1  0
  6 27  1  0
  8 28  1  0
 11 29  1  0
 13 30  1  0
 13 31  1  0
 14 32  1  0
 15 33  1  0
 15 34  1  0
 16 35  1  0
 17 36  1  0
 19 37  1  0
 20 38  1  0
M  END
$$$$
