
     RDKit          3D

 28 28  0  0  0  0  0  0  0  0999 V2000
   -1.2468   -2.1902   -0.2228 C   0  0  0  0  0  0  0  0  0  0  0  0
   -2.1738   -1.1228    0.3723 C   0  0  0  0  0  0  0  0  0  0  0  0
   -2.1914   -1.2281    1.9032 C   0  0  0  0  0  0  0  0  0  0  0  0
   -3.5986   -1.3735   -0.1557 C   0  0  0  0  0  0  0  0  0  0  0  0
   -1.7237    0.3008   -0.0251 C   0  0  0  0  0  0  0  0  0  0  0  0
   -2.5266    1.1196   -0.4859 O   0  0  0  0  0  0  0  0  0  0  0  0
   -0.2770    0.7015    0.2007 C   0  0  0  0  0  0  0  0  0  0  0  0
    0.6203    0.6567   -1.3743 S   0  0  0  0  0  0  0  0  0  0  0  0
    2.1986    1.2600   -0.8354 C   0  0  0  0  0  0  0  0  0  0  0  0
    2.4517    1.3357    0.4835 N   0  0  0  0  0  0  0  0  0  0  0  0
    3.6700    1.7911    0.8326 C   0  0  0  0  0  0  0  0  0  0  0  0
    4.6315    2.1630   -0.0755 C   0  0  0  0  0  0  0  0  0  0  0  0
    4.2739    2.0407   -1.3958 C   0  0  0  0  0  0  0  0  0  0  0  0
    3.0721    1.5918   -1.8004 N   0  0  0  0  0  0  0  0  0  0  0  0
   -0.2308   -2.1221    0.1795 H   0  0  0  0  0  0  0  0  0  0  0  0
   -1.1789   -2.0912   -1.3119 H   0  0  0  0  0  0  0  0  0  0  0  0
   -1.6134   -3.1993   -0.0017 H   0  0  0  0  0  0  0  0  0  0  0  0
   -1.1882   -1.1245    2.3299 H   0  0  0  0  0  0  0  0  0  0  0  0
   -2.8140   -0.4415    2.3451 H   0  0  0  0  0  0  0  0  0  0  0  0
   -2.5887   -2.1958    2.2296 H   0  0  0  0  0  0  0  0  0  0  0  0
   -3.9490   -2.3789    0.1040 H   0  0  0  0  0  0  0  0  0  0  0  0
   -4.3130   -0.6557    0.2640 H   0  0  0  0  0  0  0  0  0  0  0  0
   -3.6384   -1.2759   -1.2469 H   0  0  0  0  0  0  0  0  0  0  0  0
   -0.2756    1.7155    0.6155 H   0  0  0  0  0  0  0  0  0  0  0  0
    0.1894    0.0399    0.9344 H   0  0  0  0  0  0  0  0  0  0  0  0
    3.8556    1.8498    1.9013 H   0  0  0  0  0  0  0  0  0  0  0  0
    5.6032    2.5265    0.2275 H   0  0  0  0  0  0  0  0  0  0  0  0
    4.9615    2.3068   -2.1935 H   0  0  0  0  0  0  0  0  0  0  0  0
  1  2  1  0
  2  3  1  0
  2  4  1  0
  2  5  1  0
  5  6  2  0
  5  7  1  0
  7  8  1  0
  8  9  1  0
  9 10  2  0
 10 11  1  0
 11 12  2  0
 12 13  1  0
 13 14  2  0
 14  9  1  0
  1 15  1  0
  1 16  1  0
  1 17  1  0
  3 18  1  0
  3 19  1  0
  3 20  1  0
  4 21  1  0
  4 22  1  0
  4 23  1  0
  7 24  1  0
  7 25  1  0
 11 26  1  0
 12 27  1  0
 13 28  1  0
M  END
$$$$
