
     RDKit          3D

 38 40  0  0  0  0  0  0  0  0999 V2000
   -0.0428    3.4004   -1.1397 S   0  0  0  0  0  0  0  0  0  0  0  0
    0.0359    1.9421   -0.3075 C   0  0  0  0  0  0  0  0  0  0  0  0
    1.2088    1.2272   -0.1685 N   0  0  0  0  0  0  0  0  0  0  0  0
    2.5136    1.6122   -0.6868 C   0  0  0  0  0  0  0  0  0  0  0  0
    3.5162    0.5149   -0.4416 C   0  0  0  0  0  0  0  0  0  0  0  0
    3.5133   -0.6359   -1.2433 C   0  0  0  0  0  0  0  0  0  0  0  0
    4.4227   -1.6671   -1.0049 C   0  0  0  0  0  0  0  0  0  0  0  0
    5.3389   -1.5609    0.0398 C   0  0  0  0  0  0  0  0  0  0  0  0
    5.3451   -0.4255    0.8485 C   0  0  0  0  0  0  0  0  0  0  0  0
    4.4361    0.6071    0.6119 C   0  0  0  0  0  0  0  0  0  0  0  0
   -1.0632    1.3193    0.2947 N   0  0  0  0  0  0  0  0  0  0  0  0
   -2.3177    2.0205    0.6013 C   0  0  0  0  0  0  0  0  0  0  0  0
   -3.4631    1.4613   -0.2374 C   0  0  0  0  0  0  0  0  0  0  0  0
   -3.5667   -0.0335   -0.0627 C   0  0  0  0  0  0  0  0  0  0  0  0
   -4.7780   -0.6878   -0.3244 C   0  0  0  0  0  0  0  0  0  0  0  0
   -4.8774   -2.0709   -0.1796 C   0  0  0  0  0  0  0  0  0  0  0  0
   -3.7675   -2.8113    0.2192 C   0  0  0  0  0  0  0  0  0  0  0  0
   -2.5533   -2.1706    0.4674 C   0  0  0  0  0  0  0  0  0  0  0  0
   -2.4360   -0.7795    0.3209 C   0  0  0  0  0  0  0  0  0  0  0  0
   -1.0984   -0.1203    0.5930 C   0  0  0  0  0  0  0  0  0  0  0  0
    1.2539    0.6395    0.6506 H   0  0  0  0  0  0  0  0  0  0  0  0
    2.4375    1.8174   -1.7606 H   0  0  0  0  0  0  0  0  0  0  0  0
    2.8237    2.5395   -0.1914 H   0  0  0  0  0  0  0  0  0  0  0  0
    2.7975   -0.7313   -2.0576 H   0  0  0  0  0  0  0  0  0  0  0  0
    4.4159   -2.5531   -1.6345 H   0  0  0  0  0  0  0  0  0  0  0  0
    6.0483   -2.3635    0.2241 H   0  0  0  0  0  0  0  0  0  0  0  0
    6.0593   -0.3441    1.6639 H   0  0  0  0  0  0  0  0  0  0  0  0
    4.4518    1.4852    1.2541 H   0  0  0  0  0  0  0  0  0  0  0  0
   -2.5143    1.8677    1.6709 H   0  0  0  0  0  0  0  0  0  0  0  0
   -2.2366    3.1002    0.4566 H   0  0  0  0  0  0  0  0  0  0  0  0
   -3.2973    1.6763   -1.2998 H   0  0  0  0  0  0  0  0  0  0  0  0
   -4.3985    1.9436    0.0685 H   0  0  0  0  0  0  0  0  0  0  0  0
   -5.6506   -0.1214   -0.6418 H   0  0  0  0  0  0  0  0  0  0  0  0
   -5.8211   -2.5711   -0.3806 H   0  0  0  0  0  0  0  0  0  0  0  0
   -3.8461   -3.8896    0.3311 H   0  0  0  0  0  0  0  0  0  0  0  0
   -1.6938   -2.7647    0.7703 H   0  0  0  0  0  0  0  0  0  0  0  0
   -0.8571   -0.2285    1.6570 H   0  0  0  0  0  0  0  0  0  0  0  0
   -0.3391   -0.6438    0.0022 H   0  0  0  0  0  0  0  0  0  0  0  0
  1  2  2  0
  2  3  1  0
  3  4  1  0
  4  5  1  0
  5  6  2  0
  6  7  1  0
  7  8  2  0
  8  9  1  0
  9 10  2  0
  2 11  1  0
 11 12  1  0
 12 13  1  0
 13 14  1  0
 14 15  2  0
 15 16  1  0
 16 17  2  0
 17 18  1  0
 18 19  2  0
 19 20  1  0
 10  5  1  0
 20 11  1  0
 19 14  1  0
  3 21  1  0
  4 22  1  0
  4 23  1  0
  6 24  1  0
  7 25  1  0
  8 26  1  0
  9 27  1  0
 10 28  1  0
 12 29  1  0
 12 30  1  0
 13 31  1  0
 13 32  1  0
 15 33  1  0
 16 34  1  0
 17 35  1  0
 18 36  1  0
 20 37  1  0
 20 38  1  0
M  END
$$$$
