
     RDKit          3D

 64 67  0  0  0  0  0  0  0  0999 V2000
    9.1804   -1.1832    0.1832 C   0  0  0  0  0  0  0  0  0  0  0  0
    8.0139   -1.6456   -0.4886 O   0  0  0  0  0  0  0  0  0  0  0  0
    6.8088   -1.3741    0.1051 C   0  0  0  0  0  0  0  0  0  0  0  0
    6.6224   -0.6769    1.2964 C   0  0  0  0  0  0  0  0  0  0  0  0
    5.3312   -0.4575    1.7955 C   0  0  0  0  0  0  0  0  0  0  0  0
    4.2156   -0.9486    1.1137 C   0  0  0  0  0  0  0  0  0  0  0  0
    2.8879   -0.7871    1.5714 N   0  0  0  0  0  0  0  0  0  0  0  0
    2.4428   -0.1360    2.7042 C   0  0  0  0  0  0  0  0  0  0  0  0
    3.1265    0.5534    3.4581 O   0  0  0  0  0  0  0  0  0  0  0  0
    0.9727   -0.3893    3.0113 C   0  0  0  0  0  0  0  0  0  0  0  0
   -0.0826    0.9759    2.4496 S   0  0  0  0  0  0  0  0  0  0  0  0
   -0.3962    0.4712    0.8295 C   0  0  0  0  0  0  0  0  0  0  0  0
    0.4365   -0.1939    0.0601 N   0  0  0  0  0  0  0  0  0  0  0  0
   -0.1808   -0.3856   -1.1490 N   0  0  0  0  0  0  0  0  0  0  0  0
   -1.3861    0.1575   -1.0926 C   0  0  0  0  0  0  0  0  0  0  0  0
   -2.3906    0.1742   -2.1993 C   0  0  0  0  0  0  0  0  0  0  0  0
   -3.3540   -0.9725   -2.1282 C   0  0  0  0  0  0  0  0  0  0  0  0
   -4.7055   -0.9698   -1.8246 C   0  0  0  0  0  0  0  0  0  0  0  0
   -5.1705   -2.3030   -1.9099 C   0  0  0  0  0  0  0  0  0  0  0  0
   -4.1006   -3.0901   -2.2723 C   0  0  0  0  0  0  0  0  0  0  0  0
   -3.0041   -2.2794   -2.4142 N   0  0  0  0  0  0  0  0  0  0  0  0
   -1.6924   -2.7448   -2.8323 C   0  0  0  0  0  0  0  0  0  0  0  0
   -1.5608    0.7177    0.1558 N   0  0  0  0  0  0  0  0  0  0  0  0
   -2.7427    1.4025    0.6421 C   0  0  0  0  0  0  0  0  0  0  0  0
   -2.6967    2.9019    0.3522 C   0  0  0  0  0  0  0  0  0  0  0  0
   -3.9867    3.5801    0.7430 C   0  0  0  0  0  0  0  0  0  0  0  0
   -4.1852    4.0170    2.0599 C   0  0  0  0  0  0  0  0  0  0  0  0
   -5.3773    4.6459    2.4197 C   0  0  0  0  0  0  0  0  0  0  0  0
   -6.3827    4.8364    1.4734 C   0  0  0  0  0  0  0  0  0  0  0  0
   -6.1988    4.3954    0.1644 C   0  0  0  0  0  0  0  0  0  0  0  0
   -5.0078    3.7659   -0.1997 C   0  0  0  0  0  0  0  0  0  0  0  0
    4.4050   -1.6876   -0.0719 C   0  0  0  0  0  0  0  0  0  0  0  0
    3.2643   -2.1812   -0.6581 O   0  0  0  0  0  0  0  0  0  0  0  0
    3.4362   -3.2908   -1.5361 C   0  0  0  0  0  0  0  0  0  0  0  0
    5.6959   -1.8763   -0.5752 C   0  0  0  0  0  0  0  0  0  0  0  0
   10.0482   -1.4139   -0.4466 H   0  0  0  0  0  0  0  0  0  0  0  0
    9.1539   -0.0985    0.3356 H   0  0  0  0  0  0  0  0  0  0  0  0
    9.3118   -1.7075    1.1386 H   0  0  0  0  0  0  0  0  0  0  0  0
    7.4565   -0.2795    1.8658 H   0  0  0  0  0  0  0  0  0  0  0  0
    5.2306    0.0953    2.7248 H   0  0  0  0  0  0  0  0  0  0  0  0
    2.1823   -1.1605    0.9309 H   0  0  0  0  0  0  0  0  0  0  0  0
    0.8772   -0.4778    4.0991 H   0  0  0  0  0  0  0  0  0  0  0  0
    0.6377   -1.3463    2.5929 H   0  0  0  0  0  0  0  0  0  0  0  0
   -1.8661    0.1431   -3.1592 H   0  0  0  0  0  0  0  0  0  0  0  0
   -2.9367    1.1219   -2.1993 H   0  0  0  0  0  0  0  0  0  0  0  0
   -5.2936   -0.0940   -1.5781 H   0  0  0  0  0  0  0  0  0  0  0  0
   -6.1799   -2.6496   -1.7312 H   0  0  0  0  0  0  0  0  0  0  0  0
   -4.0280   -4.1554   -2.4580 H   0  0  0  0  0  0  0  0  0  0  0  0
   -1.8016   -3.6920   -3.3710 H   0  0  0  0  0  0  0  0  0  0  0  0
   -1.2411   -2.0091   -3.5055 H   0  0  0  0  0  0  0  0  0  0  0  0
   -1.0784   -2.8907   -1.9395 H   0  0  0  0  0  0  0  0  0  0  0  0
   -3.6175    0.9390    0.1726 H   0  0  0  0  0  0  0  0  0  0  0  0
   -2.8431    1.2079    1.7135 H   0  0  0  0  0  0  0  0  0  0  0  0
   -2.5039    3.0825   -0.7130 H   0  0  0  0  0  0  0  0  0  0  0  0
   -1.8577    3.3706    0.8826 H   0  0  0  0  0  0  0  0  0  0  0  0
   -3.4098    3.8796    2.8099 H   0  0  0  0  0  0  0  0  0  0  0  0
   -5.5221    4.9878    3.4407 H   0  0  0  0  0  0  0  0  0  0  0  0
   -7.3065    5.3346    1.7528 H   0  0  0  0  0  0  0  0  0  0  0  0
   -6.9816    4.5454   -0.5743 H   0  0  0  0  0  0  0  0  0  0  0  0
   -4.8845    3.4327   -1.2275 H   0  0  0  0  0  0  0  0  0  0  0  0
    3.8641   -2.9811   -2.4918 H   0  0  0  0  0  0  0  0  0  0  0  0
    2.4437   -3.7163   -1.7352 H   0  0  0  0  0  0  0  0  0  0  0  0
    4.0398   -4.0765   -1.0662 H   0  0  0  0  0  0  0  0  0  0  0  0
    5.8682   -2.4137   -1.4998 H   0  0  0  0  0  0  0  0  0  0  0  0
  1  2  1  0
  2  3  1  0
  3  4  2  0
  4  5  1  0
  5  6  2  0
  6  7  1  0
  7  8  1  0
  8  9  2  0
  8 10  1  0
 10 11  1  0
 11 12  1  0
 12 13  2  0
 13 14  1  0
 14 15  2  0
 15 16  1  0
 16 17  1  0
 17 18  2  0
 18 19  1  0
 19 20  2  0
 20 21  1  0
 21 22  1  0
 15 23  1  0
 23 24  1  0
 24 25  1  0
 25 26  1  0
 26 27  2  0
 27 28  1  0
 28 29  2  0
 29 30  1  0
 30 31  2  0
  6 32  1  0
 32 33  1  0
 33 34  1  0
 32 35  2  0
 35  3  1  0
 23 12  1  0
 31 26  1  0
 21 17  1  0
  1 36  1  0
  1 37  1  0
  1 38  1  0
  4 39  1  0
  5 40  1  0
  7 41  1  0
 10 42  1  0
 10 43  1  0
 16 44  1  0
 16 45  1  0
 18 46  1  0
 19 47  1  0
 20 48  1  0
 22 49  1  0
 22 50  1  0
 22 51  1  0
 24 52  1  0
 24 53  1  0
 25 54  1  0
 25 55  1  0
 27 56  1  0
 28 57  1  0
 29 58  1  0
 30 59  1  0
 31 60  1  0
 34 61  1  0
 34 62  1  0
 34 63  1  0
 35 64  1  0
M  END
$$$$
