
     RDKit          3D

 68 70  0  0  0  0  0  0  0  0999 V2000
   -6.1206    4.4014   -0.0629 C   0  0  0  0  0  0  0  0  0  0  0  0
   -5.0738    4.3737    0.8993 O   0  0  0  0  0  0  0  0  0  0  0  0
   -4.2277    3.3005    0.8600 C   0  0  0  0  0  0  0  0  0  0  0  0
   -4.3334    2.2029    0.0078 C   0  0  0  0  0  0  0  0  0  0  0  0
   -3.3927    1.1690    0.0704 C   0  0  0  0  0  0  0  0  0  0  0  0
   -2.3324    1.2144    0.9908 C   0  0  0  0  0  0  0  0  0  0  0  0
   -1.2784    0.1086    1.0662 C   0  0  0  0  0  0  0  0  0  0  0  0
   -1.9003   -1.3139    0.8929 C   0  0  0  0  0  0  0  0  0  0  0  0
   -1.6347   -2.0623   -0.0448 O   0  0  0  0  0  0  0  0  0  0  0  0
   -2.8036   -1.6513    1.8934 N   0  0  0  0  0  0  0  0  0  0  0  0
   -3.6012   -2.8861    1.9275 C   0  0  0  0  0  0  0  0  0  0  0  0
   -4.5637   -2.9411    0.7319 C   0  0  0  0  0  0  0  0  0  0  0  0
   -2.7029   -4.1325    1.9432 C   0  0  0  0  0  0  0  0  0  0  0  0
   -4.4316   -2.8765    3.2240 C   0  0  0  0  0  0  0  0  0  0  0  0
   -0.0941    0.3225    0.2025 N   0  0  0  0  0  0  0  0  0  0  0  0
    1.0980   -0.2678    0.6298 C   0  0  0  0  0  0  0  0  0  0  0  0
    1.1860   -0.8515    1.7131 O   0  0  0  0  0  0  0  0  0  0  0  0
    2.3177   -0.1073   -0.2671 C   0  0  0  0  0  0  0  0  0  0  0  0
    3.5849   -0.5843    0.4369 C   0  0  0  0  0  0  0  0  0  0  0  0
    4.8225   -0.3628   -0.4087 C   0  0  0  0  0  0  0  0  0  0  0  0
    4.7820    0.1833   -1.5064 O   0  0  0  0  0  0  0  0  0  0  0  0
    5.9548   -0.8386    0.2131 N   0  0  0  0  0  0  0  0  0  0  0  0
    7.2315   -0.7716   -0.2980 C   0  0  0  0  0  0  0  0  0  0  0  0
    7.6859   -0.2189   -1.5150 C   0  0  0  0  0  0  0  0  0  0  0  0
    9.0426   -0.4268   -1.5041 C   0  0  0  0  0  0  0  0  0  0  0  0
   10.1381   -0.1178   -2.4383 C   0  0  0  0  0  0  0  0  0  0  0  0
    9.3843   -1.0674   -0.3559 O   0  0  0  0  0  0  0  0  0  0  0  0
    8.2494   -1.2823    0.4043 N   0  0  0  0  0  0  0  0  0  0  0  0
   -0.2911    0.7319   -1.1435 C   0  0  0  0  0  0  0  0  0  0  0  0
   -0.3042   -0.2028   -2.1866 C   0  0  0  0  0  0  0  0  0  0  0  0
   -0.4921    0.2149   -3.5066 C   0  0  0  0  0  0  0  0  0  0  0  0
   -0.6609    1.5686   -3.7887 C   0  0  0  0  0  0  0  0  0  0  0  0
   -0.6397    2.4921   -2.7499 C   0  0  0  0  0  0  0  0  0  0  0  0
   -0.7977    3.7935   -3.0238 F   0  0  0  0  0  0  0  0  0  0  0  0
   -0.4547    2.0890   -1.4322 C   0  0  0  0  0  0  0  0  0  0  0  0
   -2.2321    2.3257    1.8409 C   0  0  0  0  0  0  0  0  0  0  0  0
   -3.1751    3.3538    1.7753 C   0  0  0  0  0  0  0  0  0  0  0  0
   -6.6826    5.3290    0.0822 H   0  0  0  0  0  0  0  0  0  0  0  0
   -6.8131    3.5663    0.0848 H   0  0  0  0  0  0  0  0  0  0  0  0
   -5.7216    4.4090   -1.0826 H   0  0  0  0  0  0  0  0  0  0  0  0
   -5.1305    2.1211   -0.7235 H   0  0  0  0  0  0  0  0  0  0  0  0
   -3.4901    0.3344   -0.6233 H   0  0  0  0  0  0  0  0  0  0  0  0
   -0.9147    0.1114    2.1048 H   0  0  0  0  0  0  0  0  0  0  0  0
   -3.0778   -0.9109    2.5291 H   0  0  0  0  0  0  0  0  0  0  0  0
   -5.2236   -3.8135    0.7947 H   0  0  0  0  0  0  0  0  0  0  0  0
   -5.1924   -2.0438    0.6928 H   0  0  0  0  0  0  0  0  0  0  0  0
   -4.0276   -3.0032   -0.2211 H   0  0  0  0  0  0  0  0  0  0  0  0
   -1.9688   -4.0775    2.7544 H   0  0  0  0  0  0  0  0  0  0  0  0
   -3.2950   -5.0437    2.0856 H   0  0  0  0  0  0  0  0  0  0  0  0
   -2.1482   -4.2538    1.0087 H   0  0  0  0  0  0  0  0  0  0  0  0
   -5.0951   -2.0050    3.2632 H   0  0  0  0  0  0  0  0  0  0  0  0
   -5.0533   -3.7748    3.3092 H   0  0  0  0  0  0  0  0  0  0  0  0
   -3.7827   -2.8299    4.1058 H   0  0  0  0  0  0  0  0  0  0  0  0
    2.4223    0.9482   -0.5409 H   0  0  0  0  0  0  0  0  0  0  0  0
    2.1782   -0.6961   -1.1783 H   0  0  0  0  0  0  0  0  0  0  0  0
    3.7161   -0.0444    1.3828 H   0  0  0  0  0  0  0  0  0  0  0  0
    3.5076   -1.6540    0.6660 H   0  0  0  0  0  0  0  0  0  0  0  0
    5.8973   -1.2877    1.1175 H   0  0  0  0  0  0  0  0  0  0  0  0
    7.1128    0.2635   -2.2923 H   0  0  0  0  0  0  0  0  0  0  0  0
   10.4175   -1.0112   -3.0054 H   0  0  0  0  0  0  0  0  0  0  0  0
    9.8387    0.6596   -3.1493 H   0  0  0  0  0  0  0  0  0  0  0  0
   11.0210    0.2395   -1.8989 H   0  0  0  0  0  0  0  0  0  0  0  0
   -0.1844   -1.2648   -1.9802 H   0  0  0  0  0  0  0  0  0  0  0  0
   -0.5077   -0.5169   -4.3105 H   0  0  0  0  0  0  0  0  0  0  0  0
   -0.8060    1.9092   -4.8088 H   0  0  0  0  0  0  0  0  0  0  0  0
   -0.4359    2.8406   -0.6502 H   0  0  0  0  0  0  0  0  0  0  0  0
   -1.4148    2.4059    2.5550 H   0  0  0  0  0  0  0  0  0  0  0  0
   -3.0845    4.2114    2.4381 H   0  0  0  0  0  0  0  0  0  0  0  0
  1  2  1  0
  2  3  1  0
  3  4  2  0
  4  5  1  0
  5  6  2  0
  6  7  1  0
  7  8  1  0
  8  9  2  0
  8 10  1  0
 10 11  1  0
 11 12  1  0
 11 13  1  0
 11 14  1  0
  7 15  1  0
 15 16  1  0
 16 17  2  0
 16 18  1  0
 18 19  1  0
 19 20  1  0
 20 21  2  0
 20 22  1  0
 22 23  1  0
 23 24  1  0
 24 25  2  0
 25 26  1  0
 25 27  1  0
 27 28  1  0
 15 29  1  0
 29 30  2  0
 30 31  1  0
 31 32  2  0
 32 33  1  0
 33 34  1  0
 33 35  2  0
  6 36  1  0
 36 37  2  0
 37  3  1  0
 28 23  2  0
 35 29  1  0
  1 38  1  0
  1 39  1  0
  1 40  1  0
  4 41  1  0
  5 42  1  0
  7 43  1  0
 10 44  1  0
 12 45  1  0
 12 46  1  0
 12 47  1  0
 13 48  1  0
 13 49  1  0
 13 50  1  0
 14 51  1  0
 14 52  1  0
 14 53  1  0
 18 54  1  0
 18 55  1  0
 19 56  1  0
 19 57  1  0
 22 58  1  0
 24 59  1  0
 26 60  1  0
 26 61  1  0
 26 62  1  0
 30 63  1  0
 31 64  1  0
 32 65  1  0
 35 66  1  0
 36 67  1  0
 37 68  1  0
M  END
$$$$
