
     RDKit          3D

 87 91  0  0  0  0  0  0  0  0999 V2000
    4.0734    5.6422    1.3939 C   0  0  0  0  0  0  0  0  0  0  0  0
    2.9134    5.5928    0.4167 C   0  0  0  0  0  0  0  0  0  0  0  0
    2.7354    4.2171   -0.1844 C   0  0  0  0  0  0  0  0  0  0  0  0
    3.4853    3.2653   -0.0071 O   0  0  0  0  0  0  0  0  0  0  0  0
    1.6199    4.2099   -0.9723 O   0  0  0  0  0  0  0  0  0  0  0  0
    1.4121    3.0086   -1.7313 C   0  0  0  0  0  0  0  0  0  0  0  0
   -0.0865    2.8444   -2.0123 C   0  0  1  0  0  0  0  0  0  0  0  0
   -0.3647    1.7400   -3.0529 C   0  0  0  0  0  0  0  0  0  0  0  0
   -0.8937    0.5283   -2.2525 C   0  0  2  0  0  0  0  0  0  0  0  0
    0.2009   -0.0694   -1.5425 O   0  0  0  0  0  0  0  0  0  0  0  0
    1.1623   -0.7008   -2.2565 C   0  0  0  0  0  0  0  0  0  0  0  0
    1.2086   -0.8086   -3.4709 O   0  0  0  0  0  0  0  0  0  0  0  0
    2.1817   -1.3032   -1.3767 C   0  0  0  0  0  0  0  0  0  0  0  0
    2.2726   -1.0759   -0.0545 C   0  0  0  0  0  0  0  0  0  0  0  0
    3.2712   -1.7329    0.7922 C   0  0  0  0  0  0  0  0  0  0  0  0
    4.6260   -1.7933    0.4394 C   0  0  0  0  0  0  0  0  0  0  0  0
    5.5455   -2.4388    1.2684 C   0  0  0  0  0  0  0  0  0  0  0  0
    5.1176   -3.0178    2.4587 C   0  0  0  0  0  0  0  0  0  0  0  0
    3.7724   -2.9410    2.8349 C   0  0  0  0  0  0  0  0  0  0  0  0
    2.8564   -2.2955    2.0043 C   0  0  0  0  0  0  0  0  0  0  0  0
   -1.7873   -0.4027   -3.1223 C   0  0  0  0  0  0  0  0  0  0  0  0
   -2.5732    0.0985   -3.9379 O   0  0  0  0  0  0  0  0  0  0  0  0
   -1.6716   -1.9097   -3.1016 C   0  0  0  0  0  0  0  0  0  0  0  0
   -1.7169   -2.4690   -4.5049 C   0  0  0  0  0  0  0  0  0  0  0  0
   -1.5480   -2.7891   -2.0828 C   0  0  0  0  0  0  0  0  0  0  0  0
   -1.4750   -2.6833   -0.6081 C   0  0  0  0  0  0  0  0  0  0  0  0
   -2.7049   -2.7630    0.2892 C   0  0  2  0  0  0  0  0  0  0  0  0
   -2.8354   -1.9755    1.5816 C   0  0  0  0  0  0  0  0  0  0  0  0
   -3.8872   -0.8439    1.5572 C   0  0  0  0  0  0  0  0  0  0  0  0
   -3.6338    0.2802    0.5669 C   0  0  2  0  0  0  0  0  0  0  0  0
   -4.5628    1.4510    0.6148 C   0  0  0  0  0  0  0  0  0  0  0  0
   -3.4887   -0.2690   -0.7340 O   0  0  0  0  0  0  0  0  0  0  0  0
   -2.3149    0.3730   -0.2034 C   0  0  1  0  0  0  0  0  0  0  0  0
   -1.8111    1.3021   -1.2521 C   0  0  1  0  0  0  0  0  0  0  0  0
   -0.9567    2.4853   -0.7763 C   0  0  1  0  0  0  0  0  0  0  0  0
   -0.1313    2.1329    0.3490 O   0  0  0  0  0  0  0  0  0  0  0  0
   -0.5614    2.5857    1.5740 C   0  0  0  0  0  0  0  0  0  0  0  0
   -1.6280    3.1529    1.7703 O   0  0  0  0  0  0  0  0  0  0  0  0
    0.4821    2.2649    2.6210 C   0  0  0  0  0  0  0  0  0  0  0  0
    0.1781    2.9403    3.9442 C   0  0  0  0  0  0  0  0  0  0  0  0
   -1.7561   -3.9461    0.2215 C   0  0  0  0  0  0  0  0  0  0  0  0
   -0.7883   -4.2311    1.3477 C   0  0  0  0  0  0  0  0  0  0  0  0
   -2.3223   -5.2095   -0.3915 C   0  0  0  0  0  0  0  0  0  0  0  0
    4.2297    6.6685    1.7446 H   0  0  0  0  0  0  0  0  0  0  0  0
    5.0009    5.2973    0.9254 H   0  0  0  0  0  0  0  0  0  0  0  0
    3.8855    5.0056    2.2655 H   0  0  0  0  0  0  0  0  0  0  0  0
    1.9934    5.8865    0.9351 H   0  0  0  0  0  0  0  0  0  0  0  0
    3.1039    6.2936   -0.4028 H   0  0  0  0  0  0  0  0  0  0  0  0
    1.8249    2.1290   -1.2257 H   0  0  0  0  0  0  0  0  0  0  0  0
    1.9485    3.1371   -2.6760 H   0  0  0  0  0  0  0  0  0  0  0  0
   -0.4566    3.7876   -2.4337 H   0  0  0  0  0  0  0  0  0  0  0  0
    0.5216    1.5225   -3.6537 H   0  0  0  0  0  0  0  0  0  0  0  0
   -1.1223    2.1052   -3.7600 H   0  0  0  0  0  0  0  0  0  0  0  0
    2.8637   -1.9710   -1.9003 H   0  0  0  0  0  0  0  0  0  0  0  0
    1.5848   -0.4066    0.4613 H   0  0  0  0  0  0  0  0  0  0  0  0
    4.9811   -1.3341   -0.4772 H   0  0  0  0  0  0  0  0  0  0  0  0
    6.5959   -2.4893    0.9781 H   0  0  0  0  0  0  0  0  0  0  0  0
    5.8305   -3.5200    3.1085 H   0  0  0  0  0  0  0  0  0  0  0  0
    3.4385   -3.3888    3.7721 H   0  0  0  0  0  0  0  0  0  0  0  0
    1.8146   -2.2462    2.3079 H   0  0  0  0  0  0  0  0  0  0  0  0
   -1.4286   -1.7229   -5.2516 H   0  0  0  0  0  0  0  0  0  0  0  0
   -1.0131   -3.3016   -4.6192 H   0  0  0  0  0  0  0  0  0  0  0  0
   -2.7258   -2.8200   -4.7481 H   0  0  0  0  0  0  0  0  0  0  0  0
   -1.4575   -3.8249   -2.4166 H   0  0  0  0  0  0  0  0  0  0  0  0
   -0.6197   -2.1077   -0.2624 H   0  0  0  0  0  0  0  0  0  0  0  0
   -3.6758   -2.8916   -0.1853 H   0  0  0  0  0  0  0  0  0  0  0  0
   -3.1456   -2.6810    2.3633 H   0  0  0  0  0  0  0  0  0  0  0  0
   -1.8646   -1.5682    1.8957 H   0  0  0  0  0  0  0  0  0  0  0  0
   -4.8712   -1.2759    1.3450 H   0  0  0  0  0  0  0  0  0  0  0  0
   -3.9380   -0.4125    2.5633 H   0  0  0  0  0  0  0  0  0  0  0  0
   -5.3092    1.3873   -0.1930 H   0  0  0  0  0  0  0  0  0  0  0  0
   -5.1103    1.4803    1.5670 H   0  0  0  0  0  0  0  0  0  0  0  0
   -4.0187    2.3975    0.5086 H   0  0  0  0  0  0  0  0  0  0  0  0
   -1.5017   -0.1926    0.2331 H   0  0  0  0  0  0  0  0  0  0  0  0
   -2.6628    1.7199   -1.8134 H   0  0  0  0  0  0  0  0  0  0  0  0
   -1.5995    3.3415   -0.5419 H   0  0  0  0  0  0  0  0  0  0  0  0
    1.4621    2.6123    2.2603 H   0  0  0  0  0  0  0  0  0  0  0  0
    0.5218    1.1769    2.7641 H   0  0  0  0  0  0  0  0  0  0  0  0
   -0.7299    2.5259    4.3952 H   0  0  0  0  0  0  0  0  0  0  0  0
    1.0032    2.7740    4.6442 H   0  0  0  0  0  0  0  0  0  0  0  0
    0.0400    4.0245    3.8301 H   0  0  0  0  0  0  0  0  0  0  0  0
   -0.4299   -3.3210    1.8306 H   0  0  0  0  0  0  0  0  0  0  0  0
   -1.2645   -4.8494    2.1112 H   0  0  0  0  0  0  0  0  0  0  0  0
    0.0889   -4.7610    0.9699 H   0  0  0  0  0  0  0  0  0  0  0  0
   -1.5296   -5.7918   -0.8699 H   0  0  0  0  0  0  0  0  0  0  0  0
   -3.0904   -5.0049   -1.1481 H   0  0  0  0  0  0  0  0  0  0  0  0
   -2.7834   -5.8361    0.3813 H   0  0  0  0  0  0  0  0  0  0  0  0
  1  2  1  0
  2  3  1  0
  3  4  2  0
  3  5  1  0
  5  6  1  0
  6  7  1  0
  7  8  1  0
  8  9  1  0
  9 10  1  1
 10 11  1  0
 11 12  2  0
 11 13  1  0
 13 14  2  0
 14 15  1  0
 15 16  2  0
 16 17  1  0
 17 18  2  0
 18 19  1  0
 19 20  2  0
  9 21  1  0
 21 22  2  0
 21 23  1  0
 23 24  1  0
 23 25  2  3
 25 26  1  0
 26 27  1  0
 27 28  1  0
 28 29  1  0
 29 30  1  0
 30 31  1  6
 30 32  1  0
 32 33  1  0
 33 34  1  0
 34 35  1  0
 35 36  1  0
 36 37  1  0
 37 38  2  0
 37 39  1  0
 39 40  1  0
 27 41  1  0
 41 42  1  0
 41 43  1  0
 35  7  1  0
 34  9  1  0
 20 15  1  0
 41 26  1  0
 33 30  1  0
  1 44  1  0
  1 45  1  0
  1 46  1  0
  2 47  1  0
  2 48  1  0
  6 49  1  0
  6 50  1  0
  7 51  1  6
  8 52  1  0
  8 53  1  0
 13 54  1  0
 14 55  1  0
 16 56  1  0
 17 57  1  0
 18 58  1  0
 19 59  1  0
 20 60  1  0
 24 61  1  0
 24 62  1  0
 24 63  1  0
 25 64  1  0
 26 65  1  0
 27 66  1  6
 28 67  1  0
 28 68  1  0
 29 69  1  0
 29 70  1  0
 31 71  1  0
 31 72  1  0
 31 73  1  0
 33 74  1  1
 34 75  1  6
 35 76  1  1
 39 77  1  0
 39 78  1  0
 40 79  1  0
 40 80  1  0
 40 81  1  0
 42 82  1  0
 42 83  1  0
 42 84  1  0
 43 85  1  0
 43 86  1  0
 43 87  1  0
M  END
$$$$
