
     RDKit          3D

 43 46  0  0  0  0  0  0  0  0999 V2000
    2.1194   -2.3390    0.1105 O   0  0  0  0  0  0  0  0  0  0  0  0
    2.8417   -1.3431    0.1644 C   0  0  0  0  0  0  0  0  0  0  0  0
    3.2830   -0.5750   -1.0710 C   0  0  0  0  0  0  0  0  0  0  0  0
    1.8912   -0.3639   -2.2271 S   0  0  0  0  0  0  0  0  0  0  0  0
    0.8282    0.5712   -1.2334 C   0  0  0  0  0  0  0  0  0  0  0  0
    1.2050    1.3442   -0.2444 N   0  0  0  0  0  0  0  0  0  0  0  0
    0.0775    1.9095    0.2902 N   0  0  0  0  0  0  0  0  0  0  0  0
   -0.9762    1.4527   -0.3647 C   0  0  0  0  0  0  0  0  0  0  0  0
   -2.3515    1.8541   -0.1066 C   0  0  0  0  0  0  0  0  0  0  0  0
   -2.7128    3.2025   -0.1698 C   0  0  0  0  0  0  0  0  0  0  0  0
   -4.0276    3.5825    0.0905 C   0  0  0  0  0  0  0  0  0  0  0  0
   -4.9429    2.5962    0.4173 C   0  0  0  0  0  0  0  0  0  0  0  0
   -4.6310    1.2858    0.5057 N   0  0  0  0  0  0  0  0  0  0  0  0
   -3.3423    0.9471    0.2540 C   0  0  0  0  0  0  0  0  0  0  0  0
   -0.5340    0.5982   -1.3574 N   0  0  0  0  0  0  0  0  0  0  0  0
   -1.3378   -0.0428   -2.3806 C   0  0  0  0  0  0  0  0  0  0  0  0
   -1.8451   -1.3617   -1.9276 C   0  0  0  0  0  0  0  0  0  0  0  0
   -1.2631   -2.4899   -1.3842 C   0  0  0  0  0  0  0  0  0  0  0  0
   -2.3108   -3.4179   -1.1685 C   0  0  0  0  0  0  0  0  0  0  0  0
   -3.4621   -2.8042   -1.5993 C   0  0  0  0  0  0  0  0  0  0  0  0
   -3.1888   -1.5594   -2.0654 O   0  0  0  0  0  0  0  0  0  0  0  0
    3.3070   -0.8783    1.5005 C   0  0  0  0  0  0  0  0  0  0  0  0
    2.4942   -1.1366    2.6117 C   0  0  0  0  0  0  0  0  0  0  0  0
    2.8881   -0.7198    3.8856 C   0  0  0  0  0  0  0  0  0  0  0  0
    4.1013   -0.0498    4.0593 C   0  0  0  0  0  0  0  0  0  0  0  0
    4.5321    0.4348    5.6599 Cl  0  0  0  0  0  0  0  0  0  0  0  0
    4.9216    0.1984    2.9519 C   0  0  0  0  0  0  0  0  0  0  0  0
    6.4435    1.0067    3.0923 Cl  0  0  0  0  0  0  0  0  0  0  0  0
    4.5271   -0.2172    1.6737 C   0  0  0  0  0  0  0  0  0  0  0  0
    4.0771   -1.1443   -1.5633 H   0  0  0  0  0  0  0  0  0  0  0  0
    3.6726    0.4150   -0.8212 H   0  0  0  0  0  0  0  0  0  0  0  0
   -1.9708    3.9596   -0.4143 H   0  0  0  0  0  0  0  0  0  0  0  0
   -4.3277    4.6235    0.0459 H   0  0  0  0  0  0  0  0  0  0  0  0
   -5.9798    2.8414    0.6294 H   0  0  0  0  0  0  0  0  0  0  0  0
   -3.1299   -0.1120    0.3713 H   0  0  0  0  0  0  0  0  0  0  0  0
   -2.1610    0.6355   -2.6318 H   0  0  0  0  0  0  0  0  0  0  0  0
   -0.7405   -0.1524   -3.2907 H   0  0  0  0  0  0  0  0  0  0  0  0
   -0.2135   -2.6335   -1.1606 H   0  0  0  0  0  0  0  0  0  0  0  0
   -2.2341   -4.4120   -0.7504 H   0  0  0  0  0  0  0  0  0  0  0  0
   -4.5012   -3.1015   -1.6390 H   0  0  0  0  0  0  0  0  0  0  0  0
    1.5437   -1.6544    2.4882 H   0  0  0  0  0  0  0  0  0  0  0  0
    2.2411   -0.9199    4.7369 H   0  0  0  0  0  0  0  0  0  0  0  0
    5.1890   -0.0302    0.8330 H   0  0  0  0  0  0  0  0  0  0  0  0
  1  2  2  0
  2  3  1  0
  3  4  1  0
  4  5  1  0
  5  6  2  0
  6  7  1  0
  7  8  2  0
  8  9  1  0
  9 10  2  0
 10 11  1  0
 11 12  2  0
 12 13  1  0
 13 14  2  0
  8 15  1  0
 15 16  1  0
 16 17  1  0
 17 18  2  0
 18 19  1  0
 19 20  2  0
 20 21  1  0
  2 22  1  0
 22 23  2  0
 23 24  1  0
 24 25  2  0
 25 26  1  0
 25 27  1  0
 27 28  1  0
 27 29  2  0
 15  5  1  0
 21 17  1  0
 29 22  1  0
 14  9  1  0
  3 30  1  0
  3 31  1  0
 10 32  1  0
 11 33  1  0
 12 34  1  0
 14 35  1  0
 16 36  1  0
 16 37  1  0
 18 38  1  0
 19 39  1  0
 20 40  1  0
 23 41  1  0
 24 42  1  0
 29 43  1  0
M  END
$$$$
