
     RDKit          3D

 54 57  0  0  0  0  0  0  0  0999 V2000
   -1.8934   -5.0128   -0.5911 C   0  0  0  0  0  0  0  0  0  0  0  0
   -1.6289   -4.3884    0.6596 O   0  0  0  0  0  0  0  0  0  0  0  0
   -1.6256   -3.0209    0.6714 C   0  0  0  0  0  0  0  0  0  0  0  0
   -1.5791   -2.1960   -0.4553 C   0  0  0  0  0  0  0  0  0  0  0  0
   -1.5807   -0.8055   -0.3071 C   0  0  0  0  0  0  0  0  0  0  0  0
   -1.6128   -0.2463    0.9717 C   0  0  0  0  0  0  0  0  0  0  0  0
   -1.6555    1.2240    1.1173 C   0  0  0  0  0  0  0  0  0  0  0  0
   -2.7851    1.8089    0.8752 N   0  0  0  0  0  0  0  0  0  0  0  0
   -2.8689    3.1971    1.0168 C   0  0  0  0  0  0  0  0  0  0  0  0
   -4.0991    3.8244    0.8037 C   0  0  0  0  0  0  0  0  0  0  0  0
   -4.2247    5.2104    0.9340 C   0  0  0  0  0  0  0  0  0  0  0  0
   -3.1155    5.9830    1.2766 C   0  0  0  0  0  0  0  0  0  0  0  0
   -1.8824    5.3684    1.4922 C   0  0  0  0  0  0  0  0  0  0  0  0
   -1.7706    3.9783    1.3628 C   0  0  0  0  0  0  0  0  0  0  0  0
   -0.4863    3.2937    1.5819 C   0  0  0  0  0  0  0  0  0  0  0  0
    0.5230    3.9583    1.8050 O   0  0  0  0  0  0  0  0  0  0  0  0
   -0.4983    1.9014    1.4932 N   0  0  0  0  0  0  0  0  0  0  0  0
    0.7987    1.2373    1.6657 C   0  0  0  0  0  0  0  0  0  0  0  0
    1.6155    1.2147    0.3722 C   0  0  0  0  0  0  0  0  0  0  0  0
    2.7890    0.4168    0.5904 O   0  0  0  0  0  0  0  0  0  0  0  0
    2.9139   -0.5416   -0.3801 C   0  0  0  0  0  0  0  0  0  0  0  0
    2.4092   -1.8168   -0.1110 C   0  0  0  0  0  0  0  0  0  0  0  0
    2.5390   -2.8379   -1.0576 C   0  0  0  0  0  0  0  0  0  0  0  0
    2.0388   -4.2220   -0.7693 C   0  0  0  0  0  0  0  0  0  0  0  0
    3.1946   -2.5645   -2.2646 C   0  0  0  0  0  0  0  0  0  0  0  0
    3.7115   -1.2900   -2.5216 C   0  0  0  0  0  0  0  0  0  0  0  0
    3.5940   -0.2664   -1.5723 C   0  0  0  0  0  0  0  0  0  0  0  0
    4.1697    1.0906   -1.8505 C   0  0  0  0  0  0  0  0  0  0  0  0
   -1.6708   -1.0602    2.1045 C   0  0  0  0  0  0  0  0  0  0  0  0
   -1.6637   -2.4468    1.9476 C   0  0  0  0  0  0  0  0  0  0  0  0
   -1.0700   -4.8522   -1.2937 H   0  0  0  0  0  0  0  0  0  0  0  0
   -2.8443   -4.6699   -1.0132 H   0  0  0  0  0  0  0  0  0  0  0  0
   -1.9745   -6.0899   -0.4160 H   0  0  0  0  0  0  0  0  0  0  0  0
   -1.5418   -2.6010   -1.4610 H   0  0  0  0  0  0  0  0  0  0  0  0
   -1.5657   -0.1658   -1.1859 H   0  0  0  0  0  0  0  0  0  0  0  0
   -4.9653    3.2239    0.5359 H   0  0  0  0  0  0  0  0  0  0  0  0
   -5.1894    5.6844    0.7674 H   0  0  0  0  0  0  0  0  0  0  0  0
   -3.2121    7.0614    1.3773 H   0  0  0  0  0  0  0  0  0  0  0  0
   -1.0153    5.9671    1.7613 H   0  0  0  0  0  0  0  0  0  0  0  0
    1.3726    1.7544    2.4454 H   0  0  0  0  0  0  0  0  0  0  0  0
    0.6687    0.2183    2.0388 H   0  0  0  0  0  0  0  0  0  0  0  0
    1.0020    0.8471   -0.4615 H   0  0  0  0  0  0  0  0  0  0  0  0
    1.9433    2.2275    0.1128 H   0  0  0  0  0  0  0  0  0  0  0  0
    1.9218   -2.0088    0.8417 H   0  0  0  0  0  0  0  0  0  0  0  0
    1.4862   -4.6156   -1.6290 H   0  0  0  0  0  0  0  0  0  0  0  0
    1.3629   -4.2311    0.0914 H   0  0  0  0  0  0  0  0  0  0  0  0
    2.8813   -4.8864   -0.5516 H   0  0  0  0  0  0  0  0  0  0  0  0
    3.3246   -3.3494   -3.0080 H   0  0  0  0  0  0  0  0  0  0  0  0
    4.2259   -1.1101   -3.4637 H   0  0  0  0  0  0  0  0  0  0  0  0
    3.3712    1.7972   -2.0947 H   0  0  0  0  0  0  0  0  0  0  0  0
    4.8692    1.0627   -2.6933 H   0  0  0  0  0  0  0  0  0  0  0  0
    4.7256    1.4588   -0.9825 H   0  0  0  0  0  0  0  0  0  0  0  0
   -1.7273   -0.6250    3.0980 H   0  0  0  0  0  0  0  0  0  0  0  0
   -1.7051   -3.0889    2.8245 H   0  0  0  0  0  0  0  0  0  0  0  0
  1  2  1  0
  2  3  1  0
  3  4  2  0
  4  5  1  0
  5  6  2  0
  6  7  1  0
  7  8  2  0
  8  9  1  0
  9 10  2  0
 10 11  1  0
 11 12  2  0
 12 13  1  0
 13 14  2  0
 14 15  1  0
 15 16  2  0
 15 17  1  0
 17 18  1  0
 18 19  1  0
 19 20  1  0
 20 21  1  0
 21 22  2  0
 22 23  1  0
 23 24  1  0
 23 25  2  0
 25 26  1  0
 26 27  2  0
 27 28  1  0
  6 29  1  0
 29 30  2  0
 30  3  1  0
 17  7  1  0
 27 21  1  0
 14  9  1  0
  1 31  1  0
  1 32  1  0
  1 33  1  0
  4 34  1  0
  5 35  1  0
 10 36  1  0
 11 37  1  0
 12 38  1  0
 13 39  1  0
 18 40  1  0
 18 41  1  0
 19 42  1  0
 19 43  1  0
 22 44  1  0
 24 45  1  0
 24 46  1  0
 24 47  1  0
 25 48  1  0
 26 49  1  0
 28 50  1  0
 28 51  1  0
 28 52  1  0
 29 53  1  0
 30 54  1  0
M  END
$$$$
