
     RDKit          3D

 37 39  0  0  0  0  0  0  0  0999 V2000
   -0.5990   -1.6658    4.5107 C   0  0  0  0  0  0  0  0  0  0  0  0
    1.0319   -1.6241    3.7218 S   0  0  0  0  0  0  0  0  0  0  0  0
    0.6203   -0.8662    2.1552 C   0  0  0  0  0  0  0  0  0  0  0  0
    1.6181   -0.7140    1.2156 C   0  0  0  0  0  0  0  0  0  0  0  0
    1.2798   -0.1237    0.0142 C   0  0  0  0  0  0  0  0  0  0  0  0
    2.2334    0.0820   -0.9793 N   0  0  0  0  0  0  0  0  0  0  0  0
    1.7811    0.8392   -2.1610 C   0  0  0  0  0  0  0  0  0  0  0  0
    2.9611    1.0246   -3.1277 C   0  0  0  0  0  0  0  0  0  0  0  0
    3.5267   -0.2074   -3.6050 O   0  0  0  0  0  0  0  0  0  0  0  0
    3.2344   -1.3291   -2.7614 C   0  0  0  0  0  0  0  0  0  0  0  0
    3.2138   -0.9835   -1.2623 C   0  0  0  0  0  0  0  0  0  0  0  0
    0.0266    0.3101   -0.1948 N   0  0  0  0  0  0  0  0  0  0  0  0
   -0.8914    0.1015    0.7627 C   0  0  0  0  0  0  0  0  0  0  0  0
   -2.2532    0.5951    0.5302 C   0  0  0  0  0  0  0  0  0  0  0  0
   -2.8869    1.3604    1.5343 C   0  0  0  0  0  0  0  0  0  0  0  0
   -4.1762    1.8719    1.3647 C   0  0  0  0  0  0  0  0  0  0  0  0
   -4.8686    1.6256    0.1851 C   0  0  0  0  0  0  0  0  0  0  0  0
   -4.2737    0.8628   -0.8180 C   0  0  0  0  0  0  0  0  0  0  0  0
   -2.9796    0.3479   -0.6494 C   0  0  0  0  0  0  0  0  0  0  0  0
   -2.3707   -0.6407   -1.9365 Cl  0  0  0  0  0  0  0  0  0  0  0  0
   -0.6414   -0.4652    1.9519 N   0  0  0  0  0  0  0  0  0  0  0  0
   -1.3007   -2.2617    3.9204 H   0  0  0  0  0  0  0  0  0  0  0  0
   -0.5033   -2.1275    5.4973 H   0  0  0  0  0  0  0  0  0  0  0  0
   -0.9926   -0.6542    4.6432 H   0  0  0  0  0  0  0  0  0  0  0  0
    2.6324   -1.0240    1.4276 H   0  0  0  0  0  0  0  0  0  0  0  0
    1.4104    1.8274   -1.8636 H   0  0  0  0  0  0  0  0  0  0  0  0
    0.9750    0.2979   -2.6727 H   0  0  0  0  0  0  0  0  0  0  0  0
    2.6462    1.6018   -4.0029 H   0  0  0  0  0  0  0  0  0  0  0  0
    3.7668    1.5841   -2.6383 H   0  0  0  0  0  0  0  0  0  0  0  0
    2.2686   -1.7444   -3.0734 H   0  0  0  0  0  0  0  0  0  0  0  0
    3.9935   -2.0931   -2.9581 H   0  0  0  0  0  0  0  0  0  0  0  0
    4.2014   -0.6161   -0.9603 H   0  0  0  0  0  0  0  0  0  0  0  0
    3.0087   -1.9044   -0.7049 H   0  0  0  0  0  0  0  0  0  0  0  0
   -2.3595    1.5678    2.4654 H   0  0  0  0  0  0  0  0  0  0  0  0
   -4.6346    2.4619    2.1547 H   0  0  0  0  0  0  0  0  0  0  0  0
   -5.8721    2.0203    0.0474 H   0  0  0  0  0  0  0  0  0  0  0  0
   -4.8269    0.6630   -1.7329 H   0  0  0  0  0  0  0  0  0  0  0  0
  1  2  1  0
  2  3  1  0
  3  4  2  0
  4  5  1  0
  5  6  1  0
  6  7  1  0
  7  8  1  0
  8  9  1  0
  9 10  1  0
 10 11  1  0
  5 12  2  0
 12 13  1  0
 13 14  1  0
 14 15  2  0
 15 16  1  0
 16 17  2  0
 17 18  1  0
 18 19  2  0
 19 20  1  0
 13 21  2  0
 21  3  1  0
 11  6  1  0
 19 14  1  0
  1 22  1  0
  1 23  1  0
  1 24  1  0
  4 25  1  0
  7 26  1  0
  7 27  1  0
  8 28  1  0
  8 29  1  0
 10 30  1  0
 10 31  1  0
 11 32  1  0
 11 33  1  0
 15 34  1  0
 16 35  1  0
 17 36  1  0
 18 37  1  0
M  END
$$$$
