
     RDKit          3D

 37 38  0  0  0  0  0  0  0  0999 V2000
    5.8824   -1.2290   -0.9478 C   0  0  0  0  0  0  0  0  0  0  0  0
    4.7241   -0.3759   -1.4326 C   0  0  0  0  0  0  0  0  0  0  0  0
    3.6223   -0.3635   -0.4901 N   0  0  0  0  0  0  0  0  0  0  0  0
    2.5014   -1.1387   -0.5324 C   0  0  0  0  0  0  0  0  0  0  0  0
    1.7464   -0.7922    0.5706 C   0  0  0  0  0  0  0  0  0  0  0  0
    0.4350   -1.3437    0.9905 C   0  0  0  0  0  0  0  0  0  0  0  0
   -0.5975   -0.4653    0.4937 N   0  0  0  0  0  0  0  0  0  0  0  0
   -1.9009   -0.6314    0.9009 C   0  0  0  0  0  0  0  0  0  0  0  0
   -2.2491   -1.4610    1.7320 O   0  0  0  0  0  0  0  0  0  0  0  0
   -2.9149    0.2410    0.2485 C   0  0  0  0  0  0  0  0  0  0  0  0
   -2.5871    1.5133   -0.2435 C   0  0  0  0  0  0  0  0  0  0  0  0
   -3.5668    2.3117   -0.8399 C   0  0  0  0  0  0  0  0  0  0  0  0
   -4.8793    1.8488   -0.9428 C   0  0  0  0  0  0  0  0  0  0  0  0
   -5.2085    0.5827   -0.4383 C   0  0  0  0  0  0  0  0  0  0  0  0
   -6.5902    0.0979   -0.5435 N   0  0  0  0  0  4  0  0  0  0  0  0
   -7.4448    0.8869   -0.9713 O   0  0  0  0  0  0  0  0  0  0  0  0
   -6.8189   -1.0715   -0.2061 O   0  0  0  0  0  1  0  0  0  0  0  0
   -4.2336   -0.2235    0.1618 C   0  0  0  0  0  0  0  0  0  0  0  0
    2.5101    0.2230    1.2116 C   0  0  0  0  0  0  0  0  0  0  0  0
    2.1778    0.9665    2.4528 C   0  0  0  0  0  0  0  0  0  0  0  0
    3.6429    0.4867    0.5494 N   0  0  0  0  0  0  0  0  0  0  0  0
    6.2798   -0.8541    0.0014 H   0  0  0  0  0  0  0  0  0  0  0  0
    6.6927   -1.2232   -1.6832 H   0  0  0  0  0  0  0  0  0  0  0  0
    5.5691   -2.2667   -0.7915 H   0  0  0  0  0  0  0  0  0  0  0  0
    4.3425   -0.7552   -2.3868 H   0  0  0  0  0  0  0  0  0  0  0  0
    5.0410    0.6614   -1.5864 H   0  0  0  0  0  0  0  0  0  0  0  0
    2.3398   -1.8649   -1.3169 H   0  0  0  0  0  0  0  0  0  0  0  0
    0.3585   -1.4197    2.0804 H   0  0  0  0  0  0  0  0  0  0  0  0
    0.2679   -2.3408    0.5684 H   0  0  0  0  0  0  0  0  0  0  0  0
   -0.4038    0.0336   -0.3636 H   0  0  0  0  0  0  0  0  0  0  0  0
   -1.5793    1.9102   -0.1439 H   0  0  0  0  0  0  0  0  0  0  0  0
   -3.3086    3.3001   -1.2154 H   0  0  0  0  0  0  0  0  0  0  0  0
   -5.6307    2.4842   -1.4087 H   0  0  0  0  0  0  0  0  0  0  0  0
   -4.4839   -1.2051    0.5624 H   0  0  0  0  0  0  0  0  0  0  0  0
    2.0984    0.2772    3.2993 H   0  0  0  0  0  0  0  0  0  0  0  0
    1.2223    1.4886    2.3404 H   0  0  0  0  0  0  0  0  0  0  0  0
    2.9433    1.7114    2.6937 H   0  0  0  0  0  0  0  0  0  0  0  0
  1  2  1  0
  2  3  1  0
  3  4  1  0
  4  5  2  0
  5  6  1  0
  6  7  1  0
  7  8  1  0
  8  9  2  0
  8 10  1  0
 10 11  2  0
 11 12  1  0
 12 13  2  0
 13 14  1  0
 14 15  1  0
 15 16  2  0
 15 17  1  0
 14 18  2  0
  5 19  1  0
 19 20  1  0
 19 21  2  0
 21  3  1  0
 18 10  1  0
  1 22  1  0
  1 23  1  0
  1 24  1  0
  2 25  1  0
  2 26  1  0
  4 27  1  0
  6 28  1  0
  6 29  1  0
  7 30  1  0
 11 31  1  0
 12 32  1  0
 13 33  1  0
 18 34  1  0
 20 35  1  0
 20 36  1  0
 20 37  1  0
M  CHG  2  15   1  17  -1
M  END
$$$$
