
     RDKit          3D

 36 37  0  0  0  0  0  0  0  0999 V2000
   -2.0454   -1.2707    2.3418 O   0  0  0  0  0  0  0  0  0  0  0  0
   -1.2276   -0.3578    2.2711 C   0  0  0  0  0  0  0  0  0  0  0  0
   -0.0391   -0.2490    3.2296 C   0  0  0  0  0  0  0  0  0  0  0  0
    1.1463   -0.8510    2.7022 O   0  0  0  0  0  0  0  0  0  0  0  0
    1.7724   -0.1285    1.7437 C   0  0  0  0  0  0  0  0  0  0  0  0
    1.4541    0.9784    1.3440 O   0  0  0  0  0  0  0  0  0  0  0  0
    2.8997   -0.9182    1.2202 C   0  0  0  0  0  0  0  0  0  0  0  0
    3.8867   -1.3433    2.1239 C   0  0  0  0  0  0  0  0  0  0  0  0
    4.9842   -2.0678    1.6658 C   0  0  0  0  0  0  0  0  0  0  0  0
    5.0971   -2.3663    0.3087 C   0  0  0  0  0  0  0  0  0  0  0  0
    4.1117   -1.9465   -0.5943 C   0  0  0  0  0  0  0  0  0  0  0  0
    4.3347   -2.3733   -2.2567 Cl  0  0  0  0  0  0  0  0  0  0  0  0
    3.0002   -1.2171   -0.1461 C   0  0  0  0  0  0  0  0  0  0  0  0
    1.7532   -0.7389   -1.2545 Cl  0  0  0  0  0  0  0  0  0  0  0  0
   -1.2814    0.6449    1.3225 N   0  0  0  0  0  0  0  0  0  0  0  0
   -2.2185    0.5535    0.2176 C   0  0  0  0  0  0  0  0  0  0  0  0
   -2.2829    1.8465   -0.5978 C   0  0  0  0  0  0  0  0  0  0  0  0
   -3.1746    1.7352   -1.7372 N   0  0  0  0  0  0  0  0  0  0  0  0
   -2.8029    1.1759   -2.9345 C   0  0  0  0  0  0  0  0  0  0  0  0
   -1.5209    0.7432   -3.0868 O   0  0  0  0  0  0  0  0  0  0  0  0
   -3.7801    1.1099   -3.8455 C   0  0  0  0  0  0  0  0  0  0  0  0
   -5.2667    1.7576   -3.2197 S   0  0  0  0  0  0  0  0  0  0  0  0
   -4.5062    2.1068   -1.6536 C   0  0  0  0  0  0  0  0  0  0  0  0
   -5.1021    2.5857   -0.7037 O   0  0  0  0  0  0  0  0  0  0  0  0
   -0.2993   -0.7780    4.1528 H   0  0  0  0  0  0  0  0  0  0  0  0
    0.1390    0.7973    3.5063 H   0  0  0  0  0  0  0  0  0  0  0  0
    3.8037   -1.1068    3.1833 H   0  0  0  0  0  0  0  0  0  0  0  0
    5.7516   -2.3987    2.3628 H   0  0  0  0  0  0  0  0  0  0  0  0
    5.9574   -2.9329   -0.0430 H   0  0  0  0  0  0  0  0  0  0  0  0
   -0.3960    1.1223    1.1425 H   0  0  0  0  0  0  0  0  0  0  0  0
   -1.8988   -0.2865   -0.4101 H   0  0  0  0  0  0  0  0  0  0  0  0
   -3.2084    0.2998    0.6149 H   0  0  0  0  0  0  0  0  0  0  0  0
   -1.2849    2.1372   -0.9482 H   0  0  0  0  0  0  0  0  0  0  0  0
   -2.6337    2.6612    0.0478 H   0  0  0  0  0  0  0  0  0  0  0  0
   -1.4232    0.3692   -3.9790 H   0  0  0  0  0  0  0  0  0  0  0  0
   -3.6993    0.7067   -4.8440 H   0  0  0  0  0  0  0  0  0  0  0  0
  1  2  2  0
  2  3  1  0
  3  4  1  0
  4  5  1  0
  5  6  2  0
  5  7  1  0
  7  8  2  0
  8  9  1  0
  9 10  2  0
 10 11  1  0
 11 12  1  0
 11 13  2  0
 13 14  1  0
  2 15  1  0
 15 16  1  0
 16 17  1  0
 17 18  1  0
 18 19  1  0
 19 20  1  0
 19 21  2  0
 21 22  1  0
 22 23  1  0
 23 24  2  0
 13  7  1  0
 23 18  1  0
  3 25  1  0
  3 26  1  0
  8 27  1  0
  9 28  1  0
 10 29  1  0
 15 30  1  0
 16 31  1  0
 16 32  1  0
 17 33  1  0
 17 34  1  0
 20 35  1  0
 21 36  1  0
M  END
$$$$
