
     RDKit          3D

 60 63  0  0  0  0  0  0  0  0999 V2000
    3.8750   -5.3221    0.5905 C   0  0  0  0  0  0  0  0  0  0  0  0
    3.2600   -4.2237   -0.0660 O   0  0  0  0  0  0  0  0  0  0  0  0
    3.5684   -2.9776    0.4155 C   0  0  0  0  0  0  0  0  0  0  0  0
    3.1590   -1.9217   -0.3982 C   0  0  0  0  0  0  0  0  0  0  0  0
    3.4061   -0.6018   -0.0233 C   0  0  0  0  0  0  0  0  0  0  0  0
    4.0454   -0.3129    1.1912 C   0  0  0  0  0  0  0  0  0  0  0  0
    4.3007    1.1148    1.6088 C   0  0  0  0  0  0  0  0  0  0  0  0
    3.0931    1.8963    1.5150 N   0  0  0  0  0  0  0  0  0  0  0  0
    3.1010    3.2435    1.2204 C   0  0  0  0  0  0  0  0  0  0  0  0
    4.1414    3.8959    1.1871 O   0  0  0  0  0  0  0  0  0  0  0  0
    1.7035    3.8833    1.0723 C   0  0  0  0  0  0  0  0  0  0  0  0
    1.7768    5.2305    0.3637 C   0  0  0  0  0  0  0  0  0  0  0  0
    0.7810    2.9620    0.3856 N   0  0  0  0  0  0  0  0  0  0  0  0
    1.0717    2.6839   -0.9601 N   0  0  0  0  0  0  0  0  0  0  0  0
    0.3507    1.8484   -1.6534 C   0  0  0  0  0  0  0  0  0  0  0  0
    0.7193    1.5978   -3.0866 C   0  0  0  0  0  0  0  0  0  0  0  0
   -0.7613    1.1877   -1.0222 C   0  0  0  0  0  0  0  0  0  0  0  0
   -1.6615    0.2182   -1.4275 C   0  0  0  0  0  0  0  0  0  0  0  0
   -1.6804   -0.6080   -2.6635 C   0  0  0  0  0  0  0  0  0  0  0  0
   -2.5758    0.0956   -0.3691 N   0  0  0  0  0  0  0  0  0  0  0  0
   -3.8609   -0.5320   -0.3158 C   0  0  0  0  0  0  0  0  0  0  0  0
   -4.4473   -0.7876    0.9348 C   0  0  0  0  0  0  0  0  0  0  0  0
   -5.7183   -1.3582    1.0223 C   0  0  0  0  0  0  0  0  0  0  0  0
   -6.4273   -1.6885   -0.1345 C   0  0  0  0  0  0  0  0  0  0  0  0
   -7.8028   -2.2789   -0.0602 C   0  0  0  0  0  0  0  0  0  0  0  0
   -5.8551   -1.4118   -1.3794 C   0  0  0  0  0  0  0  0  0  0  0  0
   -4.5853   -0.8356   -1.4724 C   0  0  0  0  0  0  0  0  0  0  0  0
   -2.1072    0.7303    0.7417 N   0  0  0  0  0  0  0  0  0  0  0  0
   -1.0679    1.4495    0.3166 C   0  0  0  0  0  0  0  0  0  0  0  0
   -0.2705    2.3710    1.1157 C   0  0  0  0  0  0  0  0  0  0  0  0
   -0.4747    2.5900    2.3070 O   0  0  0  0  0  0  0  0  0  0  0  0
    4.4624   -1.3765    1.9983 C   0  0  0  0  0  0  0  0  0  0  0  0
    4.2231   -2.7004    1.6156 C   0  0  0  0  0  0  0  0  0  0  0  0
    3.4698   -5.4538    1.5954 H   0  0  0  0  0  0  0  0  0  0  0  0
    4.9596   -5.2113    0.6193 H   0  0  0  0  0  0  0  0  0  0  0  0
    3.6435   -6.2236    0.0111 H   0  0  0  0  0  0  0  0  0  0  0  0
    2.6504   -2.1333   -1.3349 H   0  0  0  0  0  0  0  0  0  0  0  0
    3.0921    0.2017   -0.6817 H   0  0  0  0  0  0  0  0  0  0  0  0
    5.0849    1.5510    0.9846 H   0  0  0  0  0  0  0  0  0  0  0  0
    4.6343    1.1672    2.6533 H   0  0  0  0  0  0  0  0  0  0  0  0
    2.2085    1.4250    1.6175 H   0  0  0  0  0  0  0  0  0  0  0  0
    1.3448    4.0571    2.0924 H   0  0  0  0  0  0  0  0  0  0  0  0
    2.2511    5.1368   -0.6187 H   0  0  0  0  0  0  0  0  0  0  0  0
    0.7720    5.6503    0.2192 H   0  0  0  0  0  0  0  0  0  0  0  0
    2.3684    5.9443    0.9506 H   0  0  0  0  0  0  0  0  0  0  0  0
    1.1512    0.5974   -3.1793 H   0  0  0  0  0  0  0  0  0  0  0  0
    1.4572    2.3351   -3.4249 H   0  0  0  0  0  0  0  0  0  0  0  0
   -0.1692    1.6740   -3.7282 H   0  0  0  0  0  0  0  0  0  0  0  0
   -2.1737   -0.0728   -3.4860 H   0  0  0  0  0  0  0  0  0  0  0  0
   -0.6624   -0.8514   -2.9808 H   0  0  0  0  0  0  0  0  0  0  0  0
   -2.1751   -1.5716   -2.5086 H   0  0  0  0  0  0  0  0  0  0  0  0
   -3.9247   -0.5510    1.8569 H   0  0  0  0  0  0  0  0  0  0  0  0
   -6.1499   -1.5381    2.0002 H   0  0  0  0  0  0  0  0  0  0  0  0
   -8.5504   -1.5250   -0.3384 H   0  0  0  0  0  0  0  0  0  0  0  0
   -7.8816   -3.1395   -0.7358 H   0  0  0  0  0  0  0  0  0  0  0  0
   -8.0332   -2.6296    0.9446 H   0  0  0  0  0  0  0  0  0  0  0  0
   -6.4074   -1.6301   -2.2908 H   0  0  0  0  0  0  0  0  0  0  0  0
   -4.2277   -0.5942   -2.4648 H   0  0  0  0  0  0  0  0  0  0  0  0
    4.9721   -1.1856    2.9387 H   0  0  0  0  0  0  0  0  0  0  0  0
    4.5531   -3.4906    2.2819 H   0  0  0  0  0  0  0  0  0  0  0  0
  1  2  1  0
  2  3  1  0
  3  4  2  0
  4  5  1  0
  5  6  2  0
  6  7  1  0
  7  8  1  0
  8  9  1  0
  9 10  2  0
  9 11  1  0
 11 12  1  0
 11 13  1  0
 13 14  1  0
 14 15  2  0
 15 16  1  0
 15 17  1  0
 17 18  2  0
 18 19  1  0
 18 20  1  0
 20 21  1  0
 21 22  2  0
 22 23  1  0
 23 24  2  0
 24 25  1  0
 24 26  1  0
 26 27  2  0
 20 28  1  0
 28 29  2  0
 29 30  1  0
 30 31  2  0
  6 32  1  0
 32 33  2  0
 33  3  1  0
 30 13  1  0
 29 17  1  0
 27 21  1  0
  1 34  1  0
  1 35  1  0
  1 36  1  0
  4 37  1  0
  5 38  1  0
  7 39  1  0
  7 40  1  0
  8 41  1  0
 11 42  1  0
 12 43  1  0
 12 44  1  0
 12 45  1  0
 16 46  1  0
 16 47  1  0
 16 48  1  0
 19 49  1  0
 19 50  1  0
 19 51  1  0
 22 52  1  0
 23 53  1  0
 25 54  1  0
 25 55  1  0
 25 56  1  0
 26 57  1  0
 27 58  1  0
 32 59  1  0
 33 60  1  0
M  END
$$$$
