
     RDKit          3D

 51 55  0  0  0  0  0  0  0  0999 V2000
    2.0472    3.3737   -1.3376 O   0  0  0  0  0  0  0  0  0  0  0  0
    1.2438    2.5794   -0.8517 C   0  0  0  0  0  0  0  0  0  0  0  0
   -0.2635    2.8698   -0.9429 C   0  0  0  0  0  0  0  0  0  0  0  0
   -1.1721    1.7681   -0.5762 N   0  0  0  0  0  0  0  0  0  0  0  0
   -1.5703    1.6699    0.7536 C   0  0  0  0  0  0  0  0  0  0  0  0
   -1.1903    2.4620    1.6155 O   0  0  0  0  0  0  0  0  0  0  0  0
   -2.4036    0.4750    1.1426 C   0  0  0  0  0  0  0  0  0  0  0  0
   -3.8838    0.7549    0.9621 C   0  0  0  0  0  0  0  0  0  0  0  0
   -4.6888   -0.4616    1.2944 C   0  0  0  0  0  0  0  0  0  0  0  0
   -4.8877   -1.6872    0.6852 C   0  0  0  0  0  0  0  0  0  0  0  0
   -5.7515   -2.4217    1.5324 C   0  0  0  0  0  0  0  0  0  0  0  0
   -6.0253   -1.6044    2.6030 C   0  0  0  0  0  0  0  0  0  0  0  0
   -5.3814   -0.4182    2.4711 O   0  0  0  0  0  0  0  0  0  0  0  0
   -4.3513    1.3956   -0.6919 S   0  0  0  0  0  0  0  0  0  0  0  0
   -3.0916    0.6655   -1.7328 C   0  0  0  0  0  0  0  0  0  0  0  0
   -3.5557   -0.1170   -2.8039 C   0  0  0  0  0  0  0  0  0  0  0  0
   -2.6759   -0.6021   -3.7693 C   0  0  0  0  0  0  0  0  0  0  0  0
   -1.3257   -0.2843   -3.6928 C   0  0  0  0  0  0  0  0  0  0  0  0
   -0.8512    0.5046   -2.6415 C   0  0  0  0  0  0  0  0  0  0  0  0
   -1.7164    0.9747   -1.6373 C   0  0  0  0  0  0  0  0  0  0  0  0
    1.5653    1.4175   -0.1767 N   0  0  0  0  0  0  0  0  0  0  0  0
    2.8424    0.8665    0.0491 C   0  0  0  0  0  0  0  0  0  0  0  0
    4.0295    1.4242   -0.4299 C   0  0  0  0  0  0  0  0  0  0  0  0
    5.2611    0.8154   -0.1612 C   0  0  0  0  0  0  0  0  0  0  0  0
    5.3124   -0.3551    0.5879 C   0  0  0  0  0  0  0  0  0  0  0  0
    4.1291   -0.9371    1.0446 C   0  0  0  0  0  0  0  0  0  0  0  0
    2.9025   -0.3219    0.7900 C   0  0  0  0  0  0  0  0  0  0  0  0
    4.0945   -2.1087    1.7599 O   0  0  0  0  0  0  0  0  0  0  0  0
    5.3446   -2.8052    1.6861 C   0  0  0  0  0  0  0  0  0  0  0  0
    6.5055   -1.8471    1.8903 C   0  0  0  0  0  0  0  0  0  0  0  0
    6.5535   -0.8837    0.8319 O   0  0  0  0  0  0  0  0  0  0  0  0
   -0.4612    3.7292   -0.2914 H   0  0  0  0  0  0  0  0  0  0  0  0
   -0.4863    3.1896   -1.9689 H   0  0  0  0  0  0  0  0  0  0  0  0
   -2.0649   -0.4197    0.6043 H   0  0  0  0  0  0  0  0  0  0  0  0
   -2.1912    0.2556    2.1974 H   0  0  0  0  0  0  0  0  0  0  0  0
   -4.1692    1.5547    1.6570 H   0  0  0  0  0  0  0  0  0  0  0  0
   -4.4579   -2.0130   -0.2533 H   0  0  0  0  0  0  0  0  0  0  0  0
   -6.1291   -3.4233    1.3836 H   0  0  0  0  0  0  0  0  0  0  0  0
   -6.6220   -1.7161    3.4971 H   0  0  0  0  0  0  0  0  0  0  0  0
   -4.6171   -0.3353   -2.9092 H   0  0  0  0  0  0  0  0  0  0  0  0
   -3.0494   -1.2017   -4.5969 H   0  0  0  0  0  0  0  0  0  0  0  0
   -0.6380   -0.6464   -4.4530 H   0  0  0  0  0  0  0  0  0  0  0  0
    0.2141    0.7164   -2.6176 H   0  0  0  0  0  0  0  0  0  0  0  0
    0.7866    0.9174    0.2305 H   0  0  0  0  0  0  0  0  0  0  0  0
    4.0368    2.3393   -1.0123 H   0  0  0  0  0  0  0  0  0  0  0  0
    6.1779    1.2676   -0.5285 H   0  0  0  0  0  0  0  0  0  0  0  0
    1.9994   -0.7895    1.1725 H   0  0  0  0  0  0  0  0  0  0  0  0
    5.4053   -3.3077    0.7132 H   0  0  0  0  0  0  0  0  0  0  0  0
    5.3438   -3.5705    2.4681 H   0  0  0  0  0  0  0  0  0  0  0  0
    7.4537   -2.3936    1.8846 H   0  0  0  0  0  0  0  0  0  0  0  0
    6.4236   -1.3141    2.8441 H   0  0  0  0  0  0  0  0  0  0  0  0
  1  2  2  0
  2  3  1  0
  3  4  1  0
  4  5  1  0
  5  6  2  0
  5  7  1  0
  7  8  1  0
  8  9  1  0
  9 10  2  0
 10 11  1  0
 11 12  2  0
 12 13  1  0
  8 14  1  0
 14 15  1  0
 15 16  2  0
 16 17  1  0
 17 18  2  0
 18 19  1  0
 19 20  2  0
  2 21  1  0
 21 22  1  0
 22 23  2  0
 23 24  1  0
 24 25  2  0
 25 26  1  0
 26 27  2  0
 26 28  1  0
 28 29  1  0
 29 30  1  0
 30 31  1  0
 20  4  1  0
 27 22  1  0
 13  9  1  0
 20 15  1  0
 31 25  1  0
  3 32  1  0
  3 33  1  0
  7 34  1  0
  7 35  1  0
  8 36  1  0
 10 37  1  0
 11 38  1  0
 12 39  1  0
 16 40  1  0
 17 41  1  0
 18 42  1  0
 19 43  1  0
 21 44  1  0
 23 45  1  0
 24 46  1  0
 27 47  1  0
 29 48  1  0
 29 49  1  0
 30 50  1  0
 30 51  1  0
M  END
$$$$
