
     RDKit          3D

 57 61  0  0  0  0  0  0  0  0999 V2000
    0.5563    2.8741   -2.3495 O   0  0  0  0  0  0  0  0  0  0  0  0
    1.0785    2.1907   -1.4769 C   0  0  0  0  0  0  0  0  0  0  0  0
    0.4053    1.1707   -0.8152 N   0  0  0  0  0  0  0  0  0  0  0  0
    0.9645    0.3860    0.1927 C   0  0  0  0  0  0  0  0  0  0  0  0
    0.0624   -0.6832    0.7965 C   0  0  0  0  0  0  0  0  0  0  0  0
   -1.1326   -0.0081    1.4936 C   0  0  0  0  0  0  0  0  0  0  0  0
   -2.3533   -0.9005    1.6445 C   0  0  0  0  0  0  0  0  0  0  0  0
   -2.6534   -1.6420    0.3957 N   0  0  0  0  0  0  0  0  0  0  0  0
   -3.3218   -0.7721   -0.9218 S   0  0  0  0  0  6  0  0  0  0  0  0
   -3.6392   -1.7183   -1.9670 O   0  0  0  0  0  0  0  0  0  0  0  0
   -2.4222    0.3364   -1.1618 O   0  0  0  0  0  0  0  0  0  0  0  0
   -4.8721   -0.1785   -0.2746 C   0  0  0  0  0  0  0  0  0  0  0  0
   -5.6651   -1.1172    0.4103 C   0  0  0  0  0  0  0  0  0  0  0  0
   -6.8772   -0.7340    0.9791 C   0  0  0  0  0  0  0  0  0  0  0  0
   -7.3069    0.5835    0.8642 C   0  0  0  0  0  0  0  0  0  0  0  0
   -6.5315    1.5144    0.1689 C   0  0  0  0  0  0  0  0  0  0  0  0
   -5.3050    1.1508   -0.4251 C   0  0  0  0  0  0  0  0  0  0  0  0
   -4.5348    2.1956   -1.1966 C   0  0  0  0  0  0  0  0  0  0  0  0
   -5.2693    3.3260   -1.4206 F   0  0  0  0  0  0  0  0  0  0  0  0
   -3.4256    2.6200   -0.5341 F   0  0  0  0  0  0  0  0  0  0  0  0
   -4.1508    1.7746   -2.4290 F   0  0  0  0  0  0  0  0  0  0  0  0
   -1.5245   -2.5390    0.0432 C   0  0  0  0  0  0  0  0  0  0  0  0
   -0.2822   -1.7264   -0.2822 C   0  0  0  0  0  0  0  0  0  0  0  0
    2.1867    0.5150    0.6325 N   0  0  0  0  0  0  0  0  0  0  0  0
    2.8696    1.4950   -0.0089 C   0  0  0  0  0  0  0  0  0  0  0  0
    2.4312    2.3316   -1.0071 C   0  0  0  0  0  0  0  0  0  0  0  0
    3.4204    3.1889   -1.3821 N   0  0  0  0  0  0  0  0  0  0  0  0
    4.4917    2.9082   -0.6394 N   0  0  0  0  0  0  0  0  0  0  0  0
    4.1674    1.8753    0.1771 N   0  0  0  0  0  0  0  0  0  0  0  0
    5.1262    1.3482    1.1249 C   0  0  0  0  0  0  0  0  0  0  0  0
    5.7994    0.1057    0.5970 C   0  0  0  0  0  0  0  0  0  0  0  0
    6.8836    0.2016   -0.2917 C   0  0  0  0  0  0  0  0  0  0  0  0
    7.4971   -0.9496   -0.7936 C   0  0  0  0  0  0  0  0  0  0  0  0
    7.0307   -2.2075   -0.4166 C   0  0  0  0  0  0  0  0  0  0  0  0
    5.9521   -2.3044    0.4544 C   0  0  0  0  0  0  0  0  0  0  0  0
    5.4975   -3.5131    0.8107 F   0  0  0  0  0  0  0  0  0  0  0  0
    5.3335   -1.1658    0.9614 C   0  0  0  0  0  0  0  0  0  0  0  0
   -0.5613    1.0360   -1.1097 H   0  0  0  0  0  0  0  0  0  0  0  0
    0.6332   -1.2071    1.5761 H   0  0  0  0  0  0  0  0  0  0  0  0
   -1.4276    0.9165    0.9868 H   0  0  0  0  0  0  0  0  0  0  0  0
   -0.8147    0.3275    2.4899 H   0  0  0  0  0  0  0  0  0  0  0  0
   -2.1809   -1.6317    2.4445 H   0  0  0  0  0  0  0  0  0  0  0  0
   -3.2189   -0.3126    1.9652 H   0  0  0  0  0  0  0  0  0  0  0  0
   -5.3395   -2.1530    0.4999 H   0  0  0  0  0  0  0  0  0  0  0  0
   -7.4872   -1.4633    1.5077 H   0  0  0  0  0  0  0  0  0  0  0  0
   -8.2543    0.8871    1.3054 H   0  0  0  0  0  0  0  0  0  0  0  0
   -6.9021    2.5367    0.0807 H   0  0  0  0  0  0  0  0  0  0  0  0
   -1.3275   -3.2098    0.8888 H   0  0  0  0  0  0  0  0  0  0  0  0
   -1.7990   -3.1865   -0.7967 H   0  0  0  0  0  0  0  0  0  0  0  0
    0.5707   -2.4067   -0.4042 H   0  0  0  0  0  0  0  0  0  0  0  0
   -0.4060   -1.2604   -1.2659 H   0  0  0  0  0  0  0  0  0  0  0  0
    5.8669    2.1282    1.3383 H   0  0  0  0  0  0  0  0  0  0  0  0
    4.5970    1.1456    2.0635 H   0  0  0  0  0  0  0  0  0  0  0  0
    7.2508    1.1775   -0.6073 H   0  0  0  0  0  0  0  0  0  0  0  0
    8.3338   -0.8630   -1.4829 H   0  0  0  0  0  0  0  0  0  0  0  0
    7.4954   -3.1099   -0.8008 H   0  0  0  0  0  0  0  0  0  0  0  0
    4.4844   -1.2837    1.6298 H   0  0  0  0  0  0  0  0  0  0  0  0
  1  2  2  0
  2  3  1  0
  3  4  1  0
  4  5  1  0
  5  6  1  0
  6  7  1  0
  7  8  1  0
  8  9  1  0
  9 10  2  0
  9 11  2  0
  9 12  1  0
 12 13  2  0
 13 14  1  0
 14 15  2  0
 15 16  1  0
 16 17  2  0
 17 18  1  0
 18 19  1  0
 18 20  1  0
 18 21  1  0
  8 22  1  0
 22 23  1  0
  4 24  2  0
 24 25  1  0
 25 26  2  0
 26 27  1  0
 27 28  2  0
 28 29  1  0
 29 30  1  0
 30 31  1  0
 31 32  2  0
 32 33  1  0
 33 34  2  0
 34 35  1  0
 35 36  1  0
 35 37  2  0
 26  2  1  0
 37 31  1  0
 23  5  1  0
 29 25  1  0
 17 12  1  0
  3 38  1  0
  5 39  1  0
  6 40  1  0
  6 41  1  0
  7 42  1  0
  7 43  1  0
 13 44  1  0
 14 45  1  0
 15 46  1  0
 16 47  1  0
 22 48  1  0
 22 49  1  0
 23 50  1  0
 23 51  1  0
 30 52  1  0
 30 53  1  0
 32 54  1  0
 33 55  1  0
 34 56  1  0
 37 57  1  0
M  END
$$$$
