
     RDKit          3D

 59 61  0  0  0  0  0  0  0  0999 V2000
   -4.7699    2.0544   -2.6740 C   0  0  0  0  0  0  0  0  0  0  0  0
   -5.0516    0.8415   -2.1747 C   0  0  0  0  0  0  0  0  0  0  0  0
   -5.5824    0.4898   -0.7724 C   0  0  0  0  0  0  0  0  0  0  0  0
   -5.8089    1.7338    0.1161 C   0  0  0  0  0  0  0  0  0  0  0  0
   -6.9634   -0.1519   -1.0527 C   0  0  0  0  0  0  0  0  0  0  0  0
   -4.5861   -0.4308   -0.0221 C   0  0  0  0  0  0  0  0  0  0  0  0
   -3.1943   -0.2666   -0.2340 C   0  0  0  0  0  0  0  0  0  0  0  0
   -2.2192   -1.0528    0.4147 C   0  0  0  0  0  0  0  0  0  0  0  0
   -0.7613   -0.8489    0.0440 C   0  0  2  0  0  0  0  0  0  0  0  0
   -0.3780   -1.7588   -1.1150 C   0  0  0  0  0  0  0  0  0  0  0  0
    1.0601   -1.4979   -1.4580 C   0  0  0  0  0  0  0  0  0  0  0  0
    1.5091   -1.6295   -2.5940 O   0  0  0  0  0  0  0  0  0  0  0  0
    1.9589   -1.1300   -0.3459 C   0  0  0  0  0  0  0  0  0  0  0  0
    1.4049   -0.9773    0.9255 C   0  0  0  0  0  0  0  0  0  0  0  0
    2.2251   -0.6967    2.0152 C   0  0  0  0  0  0  0  0  0  0  0  0
    3.5983   -0.5367    1.8211 C   0  0  0  0  0  0  0  0  0  0  0  0
    4.3991   -0.2526    2.8922 O   0  0  0  0  0  0  0  0  0  0  0  0
    4.1801   -0.6666    0.5498 C   0  0  0  0  0  0  0  0  0  0  0  0
    5.6660   -0.4551    0.3468 C   0  0  0  0  0  0  0  0  0  0  0  0
    5.9870    0.9434   -0.1158 C   0  0  0  0  0  0  0  0  0  0  0  0
    6.6291    1.9232    0.5512 C   0  0  0  0  0  0  0  0  0  0  0  0
    6.8660    3.2616   -0.0984 C   0  0  0  0  0  0  0  0  0  0  0  0
    7.1541    1.8178    1.9558 C   0  0  0  0  0  0  0  0  0  0  0  0
    3.3391   -0.9678   -0.5356 C   0  0  0  0  0  0  0  0  0  0  0  0
    3.9131   -1.1016   -1.7754 O   0  0  0  0  0  0  0  0  0  0  0  0
    0.0664   -1.1171    1.1921 O   0  0  0  0  0  0  0  0  0  0  0  0
   -2.6624   -2.0182    1.3190 C   0  0  0  0  0  0  0  0  0  0  0  0
   -1.8098   -2.8314    2.0107 O   0  0  0  0  0  0  0  0  0  0  0  0
   -4.0177   -2.1933    1.5733 C   0  0  0  0  0  0  0  0  0  0  0  0
   -4.9646   -1.3983    0.9210 C   0  0  0  0  0  0  0  0  0  0  0  0
   -6.2795   -1.5680    1.2493 O   0  0  0  0  0  0  0  0  0  0  0  0
   -4.4071    2.1590   -3.6931 H   0  0  0  0  0  0  0  0  0  0  0  0
   -4.8934    2.9678   -2.1014 H   0  0  0  0  0  0  0  0  0  0  0  0
   -4.9012   -0.0167   -2.8329 H   0  0  0  0  0  0  0  0  0  0  0  0
   -6.5234    2.4298   -0.3394 H   0  0  0  0  0  0  0  0  0  0  0  0
   -4.8752    2.2803    0.2982 H   0  0  0  0  0  0  0  0  0  0  0  0
   -6.2123    1.4534    1.0969 H   0  0  0  0  0  0  0  0  0  0  0  0
   -7.5452    0.4481   -1.7649 H   0  0  0  0  0  0  0  0  0  0  0  0
   -7.5840   -0.2187   -0.1530 H   0  0  0  0  0  0  0  0  0  0  0  0
   -6.8628   -1.1590   -1.4760 H   0  0  0  0  0  0  0  0  0  0  0  0
   -2.8526    0.4991   -0.9306 H   0  0  0  0  0  0  0  0  0  0  0  0
   -0.6168    0.2093   -0.2204 H   0  0  0  0  0  0  0  0  0  0  0  0
   -0.4747   -2.8198   -0.8564 H   0  0  0  0  0  0  0  0  0  0  0  0
   -0.9956   -1.5492   -1.9954 H   0  0  0  0  0  0  0  0  0  0  0  0
    1.7848   -0.5958    3.0028 H   0  0  0  0  0  0  0  0  0  0  0  0
    3.8497   -0.0941    3.6779 H   0  0  0  0  0  0  0  0  0  0  0  0
    6.2140   -0.7302    1.2527 H   0  0  0  0  0  0  0  0  0  0  0  0
    6.0364   -1.1629   -0.4063 H   0  0  0  0  0  0  0  0  0  0  0  0
    5.6536    1.1447   -1.1345 H   0  0  0  0  0  0  0  0  0  0  0  0
    7.9393    3.4735   -0.1481 H   0  0  0  0  0  0  0  0  0  0  0  0
    6.3803    4.0549    0.4796 H   0  0  0  0  0  0  0  0  0  0  0  0
    6.4718    3.3044   -1.1190 H   0  0  0  0  0  0  0  0  0  0  0  0
    6.6767    2.5708    2.5920 H   0  0  0  0  0  0  0  0  0  0  0  0
    6.9795    0.8446    2.4179 H   0  0  0  0  0  0  0  0  0  0  0  0
    8.2351    1.9937    1.9662 H   0  0  0  0  0  0  0  0  0  0  0  0
    3.2127   -1.3349   -2.4255 H   0  0  0  0  0  0  0  0  0  0  0  0
   -0.9208   -2.4308    1.9780 H   0  0  0  0  0  0  0  0  0  0  0  0
   -4.3181   -2.9454    2.2968 H   0  0  0  0  0  0  0  0  0  0  0  0
   -6.3577   -2.2939    1.8897 H   0  0  0  0  0  0  0  0  0  0  0  0
  1  2  2  0
  2  3  1  0
  3  4  1  0
  3  5  1  0
  3  6  1  0
  6  7  2  0
  7  8  1  0
  8  9  1  0
  9 10  1  0
 10 11  1  0
 11 12  2  0
 11 13  1  0
 13 14  2  0
 14 15  1  0
 15 16  2  0
 16 17  1  0
 16 18  1  0
 18 19  1  0
 19 20  1  0
 20 21  2  3
 21 22  1  0
 21 23  1  0
 18 24  2  0
 24 25  1  0
 14 26  1  0
  8 27  2  0
 27 28  1  0
 27 29  1  0
 29 30  2  0
 30 31  1  0
 30  6  1  0
 26  9  1  0
 24 13  1  0
  1 32  1  0
  1 33  1  0
  2 34  1  0
  4 35  1  0
  4 36  1  0
  4 37  1  0
  5 38  1  0
  5 39  1  0
  5 40  1  0
  7 41  1  0
  9 42  1  6
 10 43  1  0
 10 44  1  0
 15 45  1  0
 17 46  1  0
 19 47  1  0
 19 48  1  0
 20 49  1  0
 22 50  1  0
 22 51  1  0
 22 52  1  0
 23 53  1  0
 23 54  1  0
 23 55  1  0
 25 56  1  0
 28 57  1  0
 29 58  1  0
 31 59  1  0
M  END
$$$$
