
     RDKit          3D

 60 63  0  0  0  0  0  0  0  0999 V2000
    9.6381   -0.5731   -2.1556 C   0  0  0  0  0  0  0  0  0  0  0  0
    8.6251   -0.2503   -1.0744 C   0  0  0  0  0  0  0  0  0  0  0  0
    7.4304   -0.9902   -1.3410 O   0  0  0  0  0  0  0  0  0  0  0  0
    6.4093   -0.8483   -0.4378 C   0  0  0  0  0  0  0  0  0  0  0  0
    6.4209   -0.0211    0.6895 C   0  0  0  0  0  0  0  0  0  0  0  0
    5.3062    0.0297    1.5375 C   0  0  0  0  0  0  0  0  0  0  0  0
    4.1667   -0.7517    1.2769 C   0  0  0  0  0  0  0  0  0  0  0  0
    2.9653   -0.6705    2.1882 C   0  0  0  0  0  0  0  0  0  0  0  0
    1.9945    0.2679    1.6818 N   0  0  0  0  0  0  0  0  0  0  0  0
    2.0577    1.6156    1.9709 C   0  0  0  0  0  0  0  0  0  0  0  0
    2.8831    2.0980    2.7447 O   0  0  0  0  0  0  0  0  0  0  0  0
    1.1214    2.4946    1.1400 C   0  0  0  0  0  0  0  0  0  0  0  0
   -0.0272    1.7599    0.6093 N   0  0  0  0  0  0  0  0  0  0  0  0
    0.1787    1.0576   -0.5887 N   0  0  0  0  0  0  0  0  0  0  0  0
   -0.7968    0.4025   -1.1598 C   0  0  0  0  0  0  0  0  0  0  0  0
   -0.5187   -0.3104   -2.4547 C   0  0  0  0  0  0  0  0  0  0  0  0
   -2.0940    0.3757   -0.5302 C   0  0  0  0  0  0  0  0  0  0  0  0
   -3.2969   -0.2435   -0.8245 C   0  0  0  0  0  0  0  0  0  0  0  0
   -3.6237   -1.2405   -1.8772 C   0  0  0  0  0  0  0  0  0  0  0  0
   -4.1994    0.2202    0.1422 N   0  0  0  0  0  0  0  0  0  0  0  0
   -5.6205    0.0991    0.2211 C   0  0  0  0  0  0  0  0  0  0  0  0
   -6.2587    0.3396    1.4502 C   0  0  0  0  0  0  0  0  0  0  0  0
   -7.6477    0.2268    1.5681 C   0  0  0  0  0  0  0  0  0  0  0  0
   -8.4259   -0.1187    0.4592 C   0  0  0  0  0  0  0  0  0  0  0  0
   -9.9188   -0.2050    0.5806 C   0  0  0  0  0  0  0  0  0  0  0  0
   -7.7963   -0.3138   -0.7753 C   0  0  0  0  0  0  0  0  0  0  0  0
   -6.4060   -0.2032   -0.8966 C   0  0  0  0  0  0  0  0  0  0  0  0
   -3.5464    0.8875    1.1307 N   0  0  0  0  0  0  0  0  0  0  0  0
   -2.3010    1.0433    0.6809 C   0  0  0  0  0  0  0  0  0  0  0  0
   -1.2324    1.7834    1.3391 C   0  0  0  0  0  0  0  0  0  0  0  0
   -1.3664    2.3703    2.4082 O   0  0  0  0  0  0  0  0  0  0  0  0
    4.1546   -1.5713    0.1370 C   0  0  0  0  0  0  0  0  0  0  0  0
    5.2693   -1.6177   -0.7104 C   0  0  0  0  0  0  0  0  0  0  0  0
    9.8720   -1.6436   -2.1658 H   0  0  0  0  0  0  0  0  0  0  0  0
   10.5671   -0.0165   -1.9906 H   0  0  0  0  0  0  0  0  0  0  0  0
    9.2418   -0.3217   -3.1445 H   0  0  0  0  0  0  0  0  0  0  0  0
    9.0432   -0.5374   -0.0972 H   0  0  0  0  0  0  0  0  0  0  0  0
    8.4162    0.8265   -1.0940 H   0  0  0  0  0  0  0  0  0  0  0  0
    7.2739    0.6030    0.9409 H   0  0  0  0  0  0  0  0  0  0  0  0
    5.3281    0.6949    2.4057 H   0  0  0  0  0  0  0  0  0  0  0  0
    3.2664   -0.3887    3.2032 H   0  0  0  0  0  0  0  0  0  0  0  0
    2.4776   -1.6480    2.2508 H   0  0  0  0  0  0  0  0  0  0  0  0
    1.4846    0.0297    0.8365 H   0  0  0  0  0  0  0  0  0  0  0  0
    1.6882    2.9089    0.2989 H   0  0  0  0  0  0  0  0  0  0  0  0
    0.7760    3.3200    1.7718 H   0  0  0  0  0  0  0  0  0  0  0  0
   -1.2857   -0.0659   -3.1970 H   0  0  0  0  0  0  0  0  0  0  0  0
   -0.5052   -1.3889   -2.2787 H   0  0  0  0  0  0  0  0  0  0  0  0
    0.4579   -0.0109   -2.8530 H   0  0  0  0  0  0  0  0  0  0  0  0
   -3.9337   -0.7421   -2.8024 H   0  0  0  0  0  0  0  0  0  0  0  0
   -4.4059   -1.9377   -1.5552 H   0  0  0  0  0  0  0  0  0  0  0  0
   -2.7560   -1.8643   -2.1097 H   0  0  0  0  0  0  0  0  0  0  0  0
   -5.6855    0.6091    2.3382 H   0  0  0  0  0  0  0  0  0  0  0  0
   -8.1153    0.4124    2.5347 H   0  0  0  0  0  0  0  0  0  0  0  0
  -10.2074   -0.6460    1.5376 H   0  0  0  0  0  0  0  0  0  0  0  0
  -10.3411   -0.8374   -0.2090 H   0  0  0  0  0  0  0  0  0  0  0  0
  -10.3600    0.7910    0.4984 H   0  0  0  0  0  0  0  0  0  0  0  0
   -8.3863   -0.5432   -1.6606 H   0  0  0  0  0  0  0  0  0  0  0  0
   -5.9862   -0.3096   -1.8899 H   0  0  0  0  0  0  0  0  0  0  0  0
    3.2805   -2.1779   -0.1008 H   0  0  0  0  0  0  0  0  0  0  0  0
    5.2505   -2.2583   -1.5923 H   0  0  0  0  0  0  0  0  0  0  0  0
  1  2  1  0
  2  3  1  0
  3  4  1  0
  4  5  2  0
  5  6  1  0
  6  7  2  0
  7  8  1  0
  8  9  1  0
  9 10  1  0
 10 11  2  0
 10 12  1  0
 12 13  1  0
 13 14  1  0
 14 15  2  0
 15 16  1  0
 15 17  1  0
 17 18  2  0
 18 19  1  0
 18 20  1  0
 20 21  1  0
 21 22  2  0
 22 23  1  0
 23 24  2  0
 24 25  1  0
 24 26  1  0
 26 27  2  0
 20 28  1  0
 28 29  2  0
 29 30  1  0
 30 31  2  0
  7 32  1  0
 32 33  2  0
 33  4  1  0
 30 13  1  0
 29 17  1  0
 27 21  1  0
  1 34  1  0
  1 35  1  0
  1 36  1  0
  2 37  1  0
  2 38  1  0
  5 39  1  0
  6 40  1  0
  8 41  1  0
  8 42  1  0
  9 43  1  0
 12 44  1  0
 12 45  1  0
 16 46  1  0
 16 47  1  0
 16 48  1  0
 19 49  1  0
 19 50  1  0
 19 51  1  0
 22 52  1  0
 23 53  1  0
 25 54  1  0
 25 55  1  0
 25 56  1  0
 26 57  1  0
 27 58  1  0
 32 59  1  0
 33 60  1  0
M  END
$$$$
