
     RDKit          3D

 42 44  0  0  0  0  0  0  0  0999 V2000
   -5.3940    2.9321   -0.4449 C   0  0  0  0  0  0  0  0  0  0  0  0
   -5.4411    1.5403   -0.7307 O   0  0  0  0  0  0  0  0  0  0  0  0
   -4.4035    0.7690   -0.2833 C   0  0  0  0  0  0  0  0  0  0  0  0
   -4.5206   -0.5873   -0.5849 C   0  0  0  0  0  0  0  0  0  0  0  0
   -3.5328   -1.4805   -0.1852 C   0  0  0  0  0  0  0  0  0  0  0  0
   -3.7461   -2.8011   -0.4848 O   0  0  0  0  0  0  0  0  0  0  0  0
   -2.3905   -1.0275    0.4898 C   0  0  0  0  0  0  0  0  0  0  0  0
   -1.3548   -2.0287    0.8368 C   0  0  0  0  0  0  0  0  0  0  0  0
   -1.7158   -3.1396    1.2278 O   0  0  0  0  0  0  0  0  0  0  0  0
    0.0935   -1.7633    0.6407 C   0  0  0  0  0  0  0  0  0  0  0  0
    0.5851   -0.9531   -0.3104 C   0  0  0  0  0  0  0  0  0  0  0  0
    1.9991   -0.6789   -0.5467 C   0  0  0  0  0  0  0  0  0  0  0  0
    2.9445   -1.6321   -0.3427 C   0  0  0  0  0  0  0  0  0  0  0  0
    4.3535   -1.3326   -0.7408 C   0  0  2  0  0  0  0  0  0  0  0  0
    5.4030   -1.9957   -0.0500 O   0  0  0  0  0  0  0  0  0  0  0  0
    6.5244   -1.1210   -0.3330 C   0  0  0  0  0  0  0  0  0  0  0  0
    6.0520    0.1616   -0.8182 O   0  0  0  0  0  0  0  0  0  0  0  0
    4.6860    0.1160   -0.4352 C   0  0  1  0  0  0  0  0  0  0  0  0
    3.7199    0.9971   -1.1511 C   0  0  0  0  0  0  0  0  0  0  0  0
    2.4328    0.5917   -1.1804 C   0  0  0  0  0  0  0  0  0  0  0  0
   -2.2837    0.3318    0.8379 C   0  0  0  0  0  0  0  0  0  0  0  0
   -1.1966    0.6953    1.5897 O   0  0  0  0  0  0  0  0  0  0  0  0
   -1.0499    2.0637    1.9468 C   0  0  0  0  0  0  0  0  0  0  0  0
   -3.2922    1.2233    0.4358 C   0  0  0  0  0  0  0  0  0  0  0  0
   -4.5219    3.4013   -0.9121 H   0  0  0  0  0  0  0  0  0  0  0  0
   -6.2895    3.3922   -0.8735 H   0  0  0  0  0  0  0  0  0  0  0  0
   -5.4103    3.1134    0.6348 H   0  0  0  0  0  0  0  0  0  0  0  0
   -5.3920   -0.9526   -1.1229 H   0  0  0  0  0  0  0  0  0  0  0  0
   -3.1501   -3.3398    0.0828 H   0  0  0  0  0  0  0  0  0  0  0  0
    0.7364   -2.3356    1.3009 H   0  0  0  0  0  0  0  0  0  0  0  0
   -0.0947   -0.4177   -0.9703 H   0  0  0  0  0  0  0  0  0  0  0  0
    2.7215   -2.6273    0.0225 H   0  0  0  0  0  0  0  0  0  0  0  0
    4.4749   -1.5793   -1.8067 H   0  0  0  0  0  0  0  0  0  0  0  0
    7.1595   -1.5777   -1.0981 H   0  0  0  0  0  0  0  0  0  0  0  0
    7.1002   -0.9738    0.5858 H   0  0  0  0  0  0  0  0  0  0  0  0
    4.6491    0.3445    0.6406 H   0  0  0  0  0  0  0  0  0  0  0  0
    4.0459    1.9381   -1.5753 H   0  0  0  0  0  0  0  0  0  0  0  0
    1.6735    1.2101   -1.6514 H   0  0  0  0  0  0  0  0  0  0  0  0
   -0.9547    2.6951    1.0574 H   0  0  0  0  0  0  0  0  0  0  0  0
   -0.1250    2.1605    2.5234 H   0  0  0  0  0  0  0  0  0  0  0  0
   -1.8759    2.3953    2.5841 H   0  0  0  0  0  0  0  0  0  0  0  0
   -3.2190    2.2726    0.6911 H   0  0  0  0  0  0  0  0  0  0  0  0
  1  2  1  0
  2  3  1  0
  3  4  2  0
  4  5  1  0
  5  6  1  0
  5  7  2  0
  7  8  1  0
  8  9  2  0
  8 10  1  0
 10 11  2  0
 11 12  1  0
 12 13  2  0
 13 14  1  0
 14 15  1  0
 15 16  1  0
 16 17  1  0
 17 18  1  0
 18 19  1  0
 19 20  2  0
  7 21  1  0
 21 22  1  0
 22 23  1  0
 21 24  2  0
 24  3  1  0
 20 12  1  0
 18 14  1  0
  1 25  1  0
  1 26  1  0
  1 27  1  0
  4 28  1  0
  6 29  1  0
 10 30  1  0
 11 31  1  0
 13 32  1  0
 14 33  1  6
 16 34  1  0
 16 35  1  0
 18 36  1  1
 19 37  1  0
 20 38  1  0
 23 39  1  0
 23 40  1  0
 23 41  1  0
 24 42  1  0
M  END
$$$$
