
     RDKit          3D

 58 60  0  0  0  0  0  0  0  0999 V2000
   -0.9288   -3.3405   -2.3451 C   0  0  0  0  0  0  0  0  0  0  0  0
   -1.7551   -2.1239   -2.0158 C   0  0  0  0  0  0  0  0  0  0  0  0
   -2.9723   -1.9466   -2.6997 C   0  0  0  0  0  0  0  0  0  0  0  0
   -3.7807   -0.8429   -2.4425 C   0  0  0  0  0  0  0  0  0  0  0  0
   -3.3704    0.0959   -1.4986 C   0  0  0  0  0  0  0  0  0  0  0  0
   -4.3744    1.5333   -1.2167 S   0  0  0  0  0  6  0  0  0  0  0  0
   -3.5670    2.5516   -0.5807 O   0  0  0  0  0  0  0  0  0  0  0  0
   -5.0823    1.8127   -2.4494 O   0  0  0  0  0  0  0  0  0  0  0  0
   -5.5196    0.9798   -0.0747 N   0  0  0  0  0  0  0  0  0  0  0  0
   -4.9539    0.6351    1.2725 C   0  0  0  0  0  0  0  0  0  0  0  0
   -6.0656    0.0758    2.1691 C   0  0  0  0  0  0  0  0  0  0  0  0
   -7.1413    1.0137    2.3168 O   0  0  0  0  0  0  0  0  0  0  0  0
   -7.7087    1.3271    1.0363 C   0  0  0  0  0  0  0  0  0  0  0  0
   -6.6621    1.9380    0.0989 C   0  0  0  0  0  0  0  0  0  0  0  0
   -2.1556   -0.0520   -0.8204 C   0  0  0  0  0  0  0  0  0  0  0  0
   -1.3457   -1.1681   -1.0571 C   0  0  0  0  0  0  0  0  0  0  0  0
   -0.1203   -1.3654   -0.3809 N   0  0  0  0  0  0  0  0  0  0  0  0
    0.3887   -0.6508    0.6907 C   0  0  0  0  0  0  0  0  0  0  0  0
   -0.1776    0.2572    1.2928 O   0  0  0  0  0  0  0  0  0  0  0  0
    1.7798   -1.1282    1.1250 C   0  0  0  0  0  0  0  0  0  0  0  0
    2.8187   -0.7733    0.2121 O   0  0  0  0  0  0  0  0  0  0  0  0
    2.9816   -1.6090   -0.8506 C   0  0  0  0  0  0  0  0  0  0  0  0
    2.2372   -2.5544   -1.0946 O   0  0  0  0  0  0  0  0  0  0  0  0
    4.1353   -1.1782   -1.7544 C   0  0  0  0  0  0  0  0  0  0  0  0
    4.9591   -0.1111   -1.2048 N   0  0  0  0  0  0  0  0  0  0  0  0
    5.9867   -0.4220   -0.3366 C   0  0  0  0  0  0  0  0  0  0  0  0
    6.3065   -1.5755   -0.0734 O   0  0  0  0  0  0  0  0  0  0  0  0
    6.6674    0.7251    0.3260 C   0  0  0  0  0  0  0  0  0  0  0  0
    7.2975    0.5037    1.5572 C   0  0  0  0  0  0  0  0  0  0  0  0
    7.9433    1.5522    2.2146 C   0  0  0  0  0  0  0  0  0  0  0  0
    7.9699    2.8227    1.6411 C   0  0  0  0  0  0  0  0  0  0  0  0
    7.3587    3.0462    0.4072 C   0  0  0  0  0  0  0  0  0  0  0  0
    6.7106    1.9999   -0.2541 C   0  0  0  0  0  0  0  0  0  0  0  0
    0.0137   -3.0405   -2.8136 H   0  0  0  0  0  0  0  0  0  0  0  0
   -1.4485   -4.0044   -3.0442 H   0  0  0  0  0  0  0  0  0  0  0  0
   -0.7250   -3.9219   -1.4402 H   0  0  0  0  0  0  0  0  0  0  0  0
   -3.2975   -2.6720   -3.4435 H   0  0  0  0  0  0  0  0  0  0  0  0
   -4.7162   -0.7164   -2.9831 H   0  0  0  0  0  0  0  0  0  0  0  0
   -4.5319    1.5367    1.7312 H   0  0  0  0  0  0  0  0  0  0  0  0
   -4.1730   -0.1231    1.1779 H   0  0  0  0  0  0  0  0  0  0  0  0
   -6.4639   -0.8632    1.7658 H   0  0  0  0  0  0  0  0  0  0  0  0
   -5.6679   -0.1314    3.1677 H   0  0  0  0  0  0  0  0  0  0  0  0
   -8.1428    0.4168    0.6058 H   0  0  0  0  0  0  0  0  0  0  0  0
   -8.5224    2.0404    1.2007 H   0  0  0  0  0  0  0  0  0  0  0  0
   -7.1324    2.1434   -0.8676 H   0  0  0  0  0  0  0  0  0  0  0  0
   -6.2846    2.8751    0.5245 H   0  0  0  0  0  0  0  0  0  0  0  0
   -1.8583    0.7241   -0.1216 H   0  0  0  0  0  0  0  0  0  0  0  0
    0.4593   -2.1398   -0.7045 H   0  0  0  0  0  0  0  0  0  0  0  0
    2.0151   -0.6490    2.0818 H   0  0  0  0  0  0  0  0  0  0  0  0
    1.7627   -2.2082    1.3169 H   0  0  0  0  0  0  0  0  0  0  0  0
    3.7077   -0.7975   -2.6865 H   0  0  0  0  0  0  0  0  0  0  0  0
    4.7592   -2.0531   -1.9608 H   0  0  0  0  0  0  0  0  0  0  0  0
    4.5322    0.8023   -1.1188 H   0  0  0  0  0  0  0  0  0  0  0  0
    7.2848   -0.4867    2.0081 H   0  0  0  0  0  0  0  0  0  0  0  0
    8.4281    1.3759    3.1716 H   0  0  0  0  0  0  0  0  0  0  0  0
    8.4758    3.6382    2.1527 H   0  0  0  0  0  0  0  0  0  0  0  0
    7.3954    4.0352   -0.0435 H   0  0  0  0  0  0  0  0  0  0  0  0
    6.2705    2.1910   -1.2283 H   0  0  0  0  0  0  0  0  0  0  0  0
  1  2  1  0
  2  3  2  0
  3  4  1  0
  4  5  2  0
  5  6  1  0
  6  7  2  0
  6  8  2  0
  6  9  1  0
  9 10  1  0
 10 11  1  0
 11 12  1  0
 12 13  1  0
 13 14  1  0
  5 15  1  0
 15 16  2  0
 16 17  1  0
 17 18  1  0
 18 19  2  0
 18 20  1  0
 20 21  1  0
 21 22  1  0
 22 23  2  0
 22 24  1  0
 24 25  1  0
 25 26  1  0
 26 27  2  0
 26 28  1  0
 28 29  2  0
 29 30  1  0
 30 31  2  0
 31 32  1  0
 32 33  2  0
 16  2  1  0
 33 28  1  0
 14  9  1  0
  1 34  1  0
  1 35  1  0
  1 36  1  0
  3 37  1  0
  4 38  1  0
 10 39  1  0
 10 40  1  0
 11 41  1  0
 11 42  1  0
 13 43  1  0
 13 44  1  0
 14 45  1  0
 14 46  1  0
 15 47  1  0
 17 48  1  0
 20 49  1  0
 20 50  1  0
 24 51  1  0
 24 52  1  0
 25 53  1  0
 29 54  1  0
 30 55  1  0
 31 56  1  0
 32 57  1  0
 33 58  1  0
M  END
$$$$
