
     RDKit          3D

 42 44  0  0  0  0  0  0  0  0999 V2000
    3.4685    1.8542   -0.3609 O   0  0  0  0  0  0  0  0  0  0  0  0
    2.3833    1.3596   -0.0698 C   0  0  0  0  0  0  0  0  0  0  0  0
    2.1709    0.0536    0.3243 N   0  0  0  0  0  0  0  0  0  0  0  0
    3.1199   -0.9946    0.4253 C   0  0  0  0  0  0  0  0  0  0  0  0
    4.4917   -0.8034    0.2313 C   0  0  0  0  0  0  0  0  0  0  0  0
    5.3895   -1.8710    0.3510 C   0  0  0  0  0  0  0  0  0  0  0  0
    4.9295   -3.1468    0.6640 C   0  0  0  0  0  0  0  0  0  0  0  0
    3.5668   -3.3597    0.8542 C   0  0  0  0  0  0  0  0  0  0  0  0
    2.6692   -2.2932    0.7339 C   0  0  0  0  0  0  0  0  0  0  0  0
    0.9846   -2.6422    0.9371 Cl  0  0  0  0  0  0  0  0  0  0  0  0
    1.1776    2.2470   -0.1401 C   0  0  0  0  0  0  0  0  0  0  0  0
    1.3973    3.6207    0.0646 C   0  0  0  0  0  0  0  0  0  0  0  0
    0.3480    4.5353   -0.0267 C   0  0  0  0  0  0  0  0  0  0  0  0
   -0.9311    4.0915   -0.3447 C   0  0  0  0  0  0  0  0  0  0  0  0
   -1.1661    2.7329   -0.5630 C   0  0  0  0  0  0  0  0  0  0  0  0
   -0.1226    1.7999   -0.4421 C   0  0  0  0  0  0  0  0  0  0  0  0
   -0.3104    0.4501   -0.6679 O   0  0  0  0  0  0  0  0  0  0  0  0
   -1.5556   -0.0918   -0.4610 C   0  0  0  0  0  0  0  0  0  0  0  0
   -2.1748   -0.6382   -1.5891 C   0  0  0  0  0  0  0  0  0  0  0  0
   -3.4364   -1.2329   -1.4866 C   0  0  0  0  0  0  0  0  0  0  0  0
   -4.0947   -1.3130   -0.2488 C   0  0  0  0  0  0  0  0  0  0  0  0
   -5.4694   -1.9348   -0.1464 C   0  0  0  0  0  0  0  0  0  0  0  0
   -5.6976   -2.8834   -1.0950 F   0  0  0  0  0  0  0  0  0  0  0  0
   -6.4585   -1.0122   -0.2874 F   0  0  0  0  0  0  0  0  0  0  0  0
   -5.6856   -2.5423    1.0518 F   0  0  0  0  0  0  0  0  0  0  0  0
   -3.4657   -0.7802    0.8888 C   0  0  0  0  0  0  0  0  0  0  0  0
   -2.1958   -0.1886    0.7800 C   0  0  0  0  0  0  0  0  0  0  0  0
   -1.5676    0.3089    1.9969 N   0  0  0  0  0  4  0  0  0  0  0  0
   -0.3508    0.1287    2.1350 O   0  0  0  0  0  0  0  0  0  0  0  0
   -2.3038    0.8687    2.8208 O   0  0  0  0  0  1  0  0  0  0  0  0
    1.2223   -0.2046    0.5863 H   0  0  0  0  0  0  0  0  0  0  0  0
    4.9037    0.1727   -0.0049 H   0  0  0  0  0  0  0  0  0  0  0  0
    6.4524   -1.6967    0.1997 H   0  0  0  0  0  0  0  0  0  0  0  0
    5.6307   -3.9722    0.7564 H   0  0  0  0  0  0  0  0  0  0  0  0
    3.2080   -4.3577    1.0911 H   0  0  0  0  0  0  0  0  0  0  0  0
    2.3984    3.9840    0.2938 H   0  0  0  0  0  0  0  0  0  0  0  0
    0.5357    5.5940    0.1367 H   0  0  0  0  0  0  0  0  0  0  0  0
   -1.7459    4.8067   -0.4341 H   0  0  0  0  0  0  0  0  0  0  0  0
   -2.1710    2.4297   -0.8438 H   0  0  0  0  0  0  0  0  0  0  0  0
   -1.6759   -0.5957   -2.5562 H   0  0  0  0  0  0  0  0  0  0  0  0
   -3.9042   -1.6419   -2.3830 H   0  0  0  0  0  0  0  0  0  0  0  0
   -3.9641   -0.8413    1.8574 H   0  0  0  0  0  0  0  0  0  0  0  0
  1  2  2  0
  2  3  1  0
  3  4  1  0
  4  5  2  0
  5  6  1  0
  6  7  2  0
  7  8  1  0
  8  9  2  0
  9 10  1  0
  2 11  1  0
 11 12  2  0
 12 13  1  0
 13 14  2  0
 14 15  1  0
 15 16  2  0
 16 17  1  0
 17 18  1  0
 18 19  2  0
 19 20  1  0
 20 21  2  0
 21 22  1  0
 22 23  1  0
 22 24  1  0
 22 25  1  0
 21 26  1  0
 26 27  2  0
 27 28  1  0
 28 29  2  0
 28 30  1  0
  9  4  1  0
 16 11  1  0
 27 18  1  0
  3 31  1  0
  5 32  1  0
  6 33  1  0
  7 34  1  0
  8 35  1  0
 12 36  1  0
 13 37  1  0
 14 38  1  0
 15 39  1  0
 19 40  1  0
 20 41  1  0
 26 42  1  0
M  CHG  2  28   1  30  -1
M  END
$$$$
