
     RDKit          3D

 48 50  0  0  0  0  0  0  0  0999 V2000
    8.9027    0.7173    1.6575 C   0  0  0  0  0  0  0  0  0  0  0  0
    7.6634    0.8368    0.8464 C   0  0  0  0  0  0  0  0  0  0  0  0
    7.3693    1.8343   -0.0635 C   0  0  0  0  0  0  0  0  0  0  0  0
    5.8292    1.5517   -0.7628 S   0  0  0  0  0  0  0  0  0  0  0  0
    5.6683    0.1459    0.1815 C   0  0  0  0  0  0  0  0  0  0  0  0
    4.5700   -0.6740    0.1365 N   0  0  0  0  0  0  0  0  0  0  0  0
    3.4471   -0.5223   -0.6448 C   0  0  0  0  0  0  0  0  0  0  0  0
    3.2246    0.3646   -1.4643 O   0  0  0  0  0  0  0  0  0  0  0  0
    2.4550   -1.6590   -0.4653 C   0  0  0  0  0  0  0  0  0  0  0  0
    1.0381   -1.1270   -0.2891 C   0  0  0  0  0  0  0  0  0  0  0  0
    0.6625   -1.1884    1.1275 N   0  0  0  0  0  0  0  0  0  0  0  0
   -0.0538    0.1267    1.8796 S   0  0  0  0  0  6  0  0  0  0  0  0
    0.8260    1.2610    1.7160 O   0  0  0  0  0  0  0  0  0  0  0  0
   -0.4840   -0.3290    3.1802 O   0  0  0  0  0  0  0  0  0  0  0  0
   -1.5097    0.3942    0.8999 C   0  0  0  0  0  0  0  0  0  0  0  0
   -1.6369    1.5448    0.1244 C   0  0  0  0  0  0  0  0  0  0  0  0
   -2.7946    1.7402   -0.6396 C   0  0  0  0  0  0  0  0  0  0  0  0
   -3.8345    0.7943   -0.6347 C   0  0  0  0  0  0  0  0  0  0  0  0
   -3.6842   -0.3457    0.1551 C   0  0  0  0  0  0  0  0  0  0  0  0
   -2.5318   -0.5519    0.9285 C   0  0  0  0  0  0  0  0  0  0  0  0
   -4.7525   -1.3551    0.1730 C   0  0  0  0  0  0  0  0  0  0  0  0
   -4.5650   -2.4068    0.7808 O   0  0  0  0  0  0  0  0  0  0  0  0
   -5.9093   -1.0514   -0.5249 N   0  0  0  0  0  0  0  0  0  0  0  0
   -6.9924   -2.0177   -0.4876 C   0  0  0  0  0  0  0  0  0  0  0  0
   -6.0625    0.0401   -1.3734 C   0  0  0  0  0  0  0  0  0  0  0  0
   -7.0739    0.1770   -2.0679 O   0  0  0  0  0  0  0  0  0  0  0  0
   -5.0162    0.9596   -1.4065 N   0  0  0  0  0  0  0  0  0  0  0  0
   -5.1549    2.1252   -2.2727 C   0  0  0  0  0  0  0  0  0  0  0  0
    6.6793   -0.1326    0.9739 N   0  0  0  0  0  0  0  0  0  0  0  0
    8.7345    0.0930    2.5399 H   0  0  0  0  0  0  0  0  0  0  0  0
    9.2405    1.7014    2.0013 H   0  0  0  0  0  0  0  0  0  0  0  0
    9.7020    0.2636    1.0616 H   0  0  0  0  0  0  0  0  0  0  0  0
    7.9654    2.6906   -0.3438 H   0  0  0  0  0  0  0  0  0  0  0  0
    4.6425   -1.4458    0.7843 H   0  0  0  0  0  0  0  0  0  0  0  0
    2.5109   -2.2502   -1.3879 H   0  0  0  0  0  0  0  0  0  0  0  0
    2.7449   -2.3223    0.3578 H   0  0  0  0  0  0  0  0  0  0  0  0
    0.3384   -1.7717   -0.8332 H   0  0  0  0  0  0  0  0  0  0  0  0
    0.9254   -0.1144   -0.6871 H   0  0  0  0  0  0  0  0  0  0  0  0
    0.4472   -2.0895    1.5550 H   0  0  0  0  0  0  0  0  0  0  0  0
   -0.8467    2.2941    0.1069 H   0  0  0  0  0  0  0  0  0  0  0  0
   -2.8543    2.6528   -1.2276 H   0  0  0  0  0  0  0  0  0  0  0  0
   -2.4407   -1.4409    1.5495 H   0  0  0  0  0  0  0  0  0  0  0  0
   -6.9258   -2.6457   -1.3823 H   0  0  0  0  0  0  0  0  0  0  0  0
   -6.9349   -2.6534    0.4007 H   0  0  0  0  0  0  0  0  0  0  0  0
   -7.9592   -1.5047   -0.4872 H   0  0  0  0  0  0  0  0  0  0  0  0
   -4.3403    2.1323   -3.0046 H   0  0  0  0  0  0  0  0  0  0  0  0
   -5.1300    3.0359   -1.6628 H   0  0  0  0  0  0  0  0  0  0  0  0
   -6.0994    2.1222   -2.8270 H   0  0  0  0  0  0  0  0  0  0  0  0
  1  2  1  0
  2  3  2  0
  3  4  1  0
  4  5  1  0
  5  6  1  0
  6  7  1  0
  7  8  2  0
  7  9  1  0
  9 10  1  0
 10 11  1  0
 11 12  1  0
 12 13  2  0
 12 14  2  0
 12 15  1  0
 15 16  2  0
 16 17  1  0
 17 18  2  0
 18 19  1  0
 19 20  2  0
 19 21  1  0
 21 22  2  0
 21 23  1  0
 23 24  1  0
 23 25  1  0
 25 26  2  0
 25 27  1  0
 27 28  1  0
  5 29  2  0
 29  2  1  0
 20 15  1  0
 27 18  1  0
  1 30  1  0
  1 31  1  0
  1 32  1  0
  3 33  1  0
  6 34  1  0
  9 35  1  0
  9 36  1  0
 10 37  1  0
 10 38  1  0
 11 39  1  0
 16 40  1  0
 17 41  1  0
 20 42  1  0
 24 43  1  0
 24 44  1  0
 24 45  1  0
 28 46  1  0
 28 47  1  0
 28 48  1  0
M  END
$$$$
