
     RDKit          3D

 46 48  0  0  0  0  0  0  0  0999 V2000
    0.2074    1.0403   -2.4736 C   0  0  0  0  0  0  0  0  0  0  0  0
   -0.8842    0.8412   -1.7231 C   0  0  0  0  0  0  0  0  0  0  0  0
   -1.9307   -0.1995   -2.0051 C   0  0  0  0  0  0  0  0  0  0  0  0
   -1.9854   -1.2120   -0.9679 N   0  0  0  0  0  0  0  0  0  0  0  0
   -1.3676   -2.4343   -0.9648 C   0  0  0  0  0  0  0  0  0  0  0  0
   -0.3890   -3.0451   -2.2517 S   0  0  0  0  0  0  0  0  0  0  0  0
    1.0879   -3.5426   -1.3102 C   0  0  0  0  0  0  0  0  0  0  0  0
    1.9030   -2.3517   -0.8636 C   0  0  0  0  0  0  0  0  0  0  0  0
    2.8262   -1.7545   -1.7333 C   0  0  0  0  0  0  0  0  0  0  0  0
    3.5492   -0.6274   -1.3338 C   0  0  0  0  0  0  0  0  0  0  0  0
    3.3567   -0.0756   -0.0605 C   0  0  0  0  0  0  0  0  0  0  0  0
    4.1371    1.1388    0.3028 C   0  0  0  0  0  0  0  0  0  0  0  0
    4.9486    1.6645   -0.4433 O   0  0  0  0  0  0  0  0  0  0  0  0
    3.8053    1.5724    1.5445 O   0  0  0  0  0  0  0  0  0  0  0  0
    4.4944    2.7579    1.9448 C   0  0  0  0  0  0  0  0  0  0  0  0
    2.4397   -0.6712    0.8136 C   0  0  0  0  0  0  0  0  0  0  0  0
    1.7198   -1.8011    0.4136 C   0  0  0  0  0  0  0  0  0  0  0  0
   -1.5729   -3.0391    0.1807 N   0  0  0  0  0  0  0  0  0  0  0  0
   -2.3202   -2.1988    0.9655 N   0  0  0  0  0  0  0  0  0  0  0  0
   -2.5846   -1.1113    0.2687 C   0  0  0  0  0  0  0  0  0  0  0  0
   -3.2958    0.0052    0.8042 C   0  0  0  0  0  0  0  0  0  0  0  0
   -4.7413    0.6107    0.1148 S   0  0  0  0  0  0  0  0  0  0  0  0
   -4.8410    1.7857    1.3569 C   0  0  0  0  0  0  0  0  0  0  0  0
   -5.8400    2.6815    1.4004 N   0  0  0  0  0  0  0  0  0  0  0  0
   -3.8705    1.7604    2.2337 N   0  0  0  0  0  0  0  0  0  0  0  0
   -2.9957    0.7211    1.9516 C   0  0  0  0  0  0  0  0  0  0  0  0
   -1.8507    0.4932    2.8734 C   0  0  0  0  0  0  0  0  0  0  0  0
    0.4221    0.4373   -3.3511 H   0  0  0  0  0  0  0  0  0  0  0  0
    0.9280    1.8103   -2.2124 H   0  0  0  0  0  0  0  0  0  0  0  0
   -1.0402    1.4785   -0.8543 H   0  0  0  0  0  0  0  0  0  0  0  0
   -1.7630   -0.6917   -2.9684 H   0  0  0  0  0  0  0  0  0  0  0  0
   -2.9136    0.2719   -2.0832 H   0  0  0  0  0  0  0  0  0  0  0  0
    1.7041   -4.1763   -1.9588 H   0  0  0  0  0  0  0  0  0  0  0  0
    0.8087   -4.1681   -0.4550 H   0  0  0  0  0  0  0  0  0  0  0  0
    2.9830   -2.1584   -2.7319 H   0  0  0  0  0  0  0  0  0  0  0  0
    4.2594   -0.1764   -2.0247 H   0  0  0  0  0  0  0  0  0  0  0  0
    5.5724    2.5736    1.9999 H   0  0  0  0  0  0  0  0  0  0  0  0
    4.2761    3.5789    1.2550 H   0  0  0  0  0  0  0  0  0  0  0  0
    4.1367    3.0379    2.9397 H   0  0  0  0  0  0  0  0  0  0  0  0
    2.2699   -0.2678    1.8082 H   0  0  0  0  0  0  0  0  0  0  0  0
    1.0033   -2.2447    1.1047 H   0  0  0  0  0  0  0  0  0  0  0  0
   -5.6680    3.4847    1.9939 H   0  0  0  0  0  0  0  0  0  0  0  0
   -6.3247    2.8963    0.5392 H   0  0  0  0  0  0  0  0  0  0  0  0
   -1.9551   -0.4684    3.3845 H   0  0  0  0  0  0  0  0  0  0  0  0
   -0.9037    0.4960    2.3248 H   0  0  0  0  0  0  0  0  0  0  0  0
   -1.8010    1.2778    3.6348 H   0  0  0  0  0  0  0  0  0  0  0  0
  1  2  2  0
  2  3  1  0
  3  4  1  0
  4  5  1  0
  5  6  1  0
  6  7  1  0
  7  8  1  0
  8  9  2  0
  9 10  1  0
 10 11  2  0
 11 12  1  0
 12 13  2  0
 12 14  1  0
 14 15  1  0
 11 16  1  0
 16 17  2  0
  5 18  2  0
 18 19  1  0
 19 20  2  0
 20 21  1  0
 21 22  1  0
 22 23  1  0
 23 24  1  0
 23 25  2  0
 25 26  1  0
 26 27  1  0
 20  4  1  0
 26 21  2  0
 17  8  1  0
  1 28  1  0
  1 29  1  0
  2 30  1  0
  3 31  1  0
  3 32  1  0
  7 33  1  0
  7 34  1  0
  9 35  1  0
 10 36  1  0
 15 37  1  0
 15 38  1  0
 15 39  1  0
 16 40  1  0
 17 41  1  0
 24 42  1  0
 24 43  1  0
 27 44  1  0
 27 45  1  0
 27 46  1  0
M  END
$$$$
