
     RDKit          3D

 38 38  0  0  0  0  0  0  0  0999 V2000
    4.2657    2.9154    2.0960 C   0  0  0  0  0  0  0  0  0  0  0  0
    2.9713    2.4913    2.5034 O   0  0  0  0  0  0  0  0  0  0  0  0
    2.9595    1.1720    3.0602 C   0  0  0  0  0  0  0  0  0  0  0  0
    2.9782    0.0987    1.9711 C   0  0  0  0  0  0  0  0  0  0  0  0
    1.8964    0.2916    1.0198 N   0  0  0  0  0  0  0  0  0  0  0  0
    1.5263   -0.7045    0.1470 C   0  0  0  0  0  0  0  0  0  0  0  0
    2.0232   -1.8281    0.1954 O   0  0  0  0  0  0  0  0  0  0  0  0
    0.4887   -0.3467   -0.8735 C   0  0  0  0  0  0  0  0  0  0  0  0
    0.0478    0.9982   -1.0046 C   0  0  0  0  0  0  0  0  0  0  0  0
   -0.2624    2.1138   -1.0964 N   0  0  0  0  0  0  0  0  0  0  0  0
    0.0397   -1.3416   -1.6660 C   0  0  0  0  0  0  0  0  0  0  0  0
   -0.9686   -1.2287   -2.7123 C   0  0  0  0  0  0  0  0  0  0  0  0
   -0.4474   -1.4584   -4.1055 C   0  0  0  0  0  0  0  0  0  0  0  0
   -2.2705   -0.9626   -2.4871 C   0  0  0  0  0  0  0  0  0  0  0  0
   -2.9031   -0.7823   -1.1740 C   0  0  0  0  0  0  0  0  0  0  0  0
   -2.9312   -1.8194   -0.2339 C   0  0  0  0  0  0  0  0  0  0  0  0
   -3.5387   -1.6283    1.0087 C   0  0  0  0  0  0  0  0  0  0  0  0
   -4.1269   -0.4026    1.3163 C   0  0  0  0  0  0  0  0  0  0  0  0
   -4.1119    0.6311    0.3812 C   0  0  0  0  0  0  0  0  0  0  0  0
   -3.5066    0.4406   -0.8625 C   0  0  0  0  0  0  0  0  0  0  0  0
    4.6416    2.2952    1.2781 H   0  0  0  0  0  0  0  0  0  0  0  0
    4.9618    2.8920    2.9399 H   0  0  0  0  0  0  0  0  0  0  0  0
    4.1898    3.9458    1.7380 H   0  0  0  0  0  0  0  0  0  0  0  0
    2.0302    1.0851    3.6340 H   0  0  0  0  0  0  0  0  0  0  0  0
    3.7924    1.0418    3.7603 H   0  0  0  0  0  0  0  0  0  0  0  0
    3.9107    0.1329    1.3987 H   0  0  0  0  0  0  0  0  0  0  0  0
    2.8940   -0.8974    2.4187 H   0  0  0  0  0  0  0  0  0  0  0  0
    1.5767    1.2496    0.9062 H   0  0  0  0  0  0  0  0  0  0  0  0
    0.4549   -2.3446   -1.5602 H   0  0  0  0  0  0  0  0  0  0  0  0
   -1.2374   -1.3706   -4.8592 H   0  0  0  0  0  0  0  0  0  0  0  0
    0.3266   -0.7235   -4.3523 H   0  0  0  0  0  0  0  0  0  0  0  0
   -0.0160   -2.4614   -4.1955 H   0  0  0  0  0  0  0  0  0  0  0  0
   -2.9596   -0.8714   -3.3249 H   0  0  0  0  0  0  0  0  0  0  0  0
   -2.4824   -2.7830   -0.4630 H   0  0  0  0  0  0  0  0  0  0  0  0
   -3.5540   -2.4366    1.7351 H   0  0  0  0  0  0  0  0  0  0  0  0
   -4.5983   -0.2527    2.2841 H   0  0  0  0  0  0  0  0  0  0  0  0
   -4.5677    1.5886    0.6201 H   0  0  0  0  0  0  0  0  0  0  0  0
   -3.4929    1.2606   -1.5776 H   0  0  0  0  0  0  0  0  0  0  0  0
  1  2  1  0
  2  3  1  0
  3  4  1  0
  4  5  1  0
  5  6  1  0
  6  7  2  0
  6  8  1  0
  8  9  1  0
  9 10  3  0
  8 11  2  3
 11 12  1  0
 12 13  1  0
 12 14  2  3
 14 15  1  0
 15 16  2  0
 16 17  1  0
 17 18  2  0
 18 19  1  0
 19 20  2  0
 20 15  1  0
  1 21  1  0
  1 22  1  0
  1 23  1  0
  3 24  1  0
  3 25  1  0
  4 26  1  0
  4 27  1  0
  5 28  1  0
 11 29  1  0
 13 30  1  0
 13 31  1  0
 13 32  1  0
 14 33  1  0
 16 34  1  0
 17 35  1  0
 18 36  1  0
 19 37  1  0
 20 38  1  0
M  END
$$$$
