
     RDKit          3D

 55 58  0  0  0  0  0  0  0  0999 V2000
    7.3487    1.2983   -0.5648 C   0  0  0  0  0  0  0  0  0  0  0  0
    6.7633    0.8730    0.7731 C   0  0  0  0  0  0  0  0  0  0  0  0
    5.9426   -0.3379    0.6384 N   0  0  0  0  0  0  0  0  0  0  0  0
    6.6495   -1.6228    0.7320 C   0  0  0  0  0  0  0  0  0  0  0  0
    6.7215   -2.3270   -0.6165 C   0  0  0  0  0  0  0  0  0  0  0  0
    4.5629   -0.2631    0.4707 C   0  0  0  0  0  0  0  0  0  0  0  0
    3.9152    0.9268    0.0982 C   0  0  0  0  0  0  0  0  0  0  0  0
    2.5231    1.0108   -0.0698 C   0  0  0  0  0  0  0  0  0  0  0  0
    1.7123   -0.1028    0.1403 C   0  0  0  0  0  0  0  0  0  0  0  0
    0.2561   -0.0727   -0.0536 C   0  0  0  0  0  0  0  0  0  0  0  0
   -0.5184    0.9724    0.2828 C   0  0  0  0  0  0  0  0  0  0  0  0
   -1.9726    1.0566    0.1014 C   0  0  0  0  0  0  0  0  0  0  0  0
   -2.8039   -0.0509    0.0704 C   0  0  0  0  0  0  0  0  0  0  0  0
   -4.1846    0.1304   -0.0816 C   0  0  0  0  0  0  0  0  0  0  0  0
   -5.0472   -1.0595   -0.1179 C   0  0  0  0  0  0  0  0  0  0  0  0
   -5.5879   -1.5881    1.0641 C   0  0  0  0  0  0  0  0  0  0  0  0
   -6.4046   -2.7203    1.0295 C   0  0  0  0  0  0  0  0  0  0  0  0
   -6.6884   -3.3384   -0.1868 C   0  0  0  0  0  0  0  0  0  0  0  0
   -6.1566   -2.8265   -1.3688 C   0  0  0  0  0  0  0  0  0  0  0  0
   -5.3398   -1.6943   -1.3347 C   0  0  0  0  0  0  0  0  0  0  0  0
   -4.6954    1.4481   -0.1898 C   0  0  0  0  0  0  0  0  0  0  0  0
   -6.0700    1.7538   -0.3481 C   0  0  0  0  0  0  0  0  0  0  0  0
   -6.5111    3.0725   -0.4452 C   0  0  0  0  0  0  0  0  0  0  0  0
   -5.5886    4.1064   -0.3852 C   0  0  0  0  0  0  0  0  0  0  0  0
   -4.2321    3.8135   -0.2291 C   0  0  0  0  0  0  0  0  0  0  0  0
   -3.7666    2.5088   -0.1309 C   0  0  0  0  0  0  0  0  0  0  0  0
   -2.4461    2.3180    0.0171 N   0  0  0  0  0  0  0  0  0  0  0  0
    2.3288   -1.3021    0.4916 C   0  0  0  0  0  0  0  0  0  0  0  0
    3.7220   -1.3730    0.6565 C   0  0  0  0  0  0  0  0  0  0  0  0
    6.5694    1.4677   -1.3139 H   0  0  0  0  0  0  0  0  0  0  0  0
    8.0289    0.5359   -0.9570 H   0  0  0  0  0  0  0  0  0  0  0  0
    7.9182    2.2259   -0.4492 H   0  0  0  0  0  0  0  0  0  0  0  0
    7.5872    0.6862    1.4736 H   0  0  0  0  0  0  0  0  0  0  0  0
    6.2010    1.6976    1.2263 H   0  0  0  0  0  0  0  0  0  0  0  0
    6.1958   -2.2716    1.4893 H   0  0  0  0  0  0  0  0  0  0  0  0
    7.6784   -1.4624    1.0780 H   0  0  0  0  0  0  0  0  0  0  0  0
    5.7294   -2.5822   -0.9999 H   0  0  0  0  0  0  0  0  0  0  0  0
    7.2147   -1.6996   -1.3653 H   0  0  0  0  0  0  0  0  0  0  0  0
    7.2933   -3.2560   -0.5246 H   0  0  0  0  0  0  0  0  0  0  0  0
    4.4816    1.8317   -0.0994 H   0  0  0  0  0  0  0  0  0  0  0  0
    2.0941    1.9598   -0.3821 H   0  0  0  0  0  0  0  0  0  0  0  0
   -0.1687   -0.9705   -0.4938 H   0  0  0  0  0  0  0  0  0  0  0  0
   -0.0829    1.8696    0.7161 H   0  0  0  0  0  0  0  0  0  0  0  0
   -2.4011   -1.0534    0.1733 H   0  0  0  0  0  0  0  0  0  0  0  0
   -5.3750   -1.1147    2.0206 H   0  0  0  0  0  0  0  0  0  0  0  0
   -6.8183   -3.1191    1.9521 H   0  0  0  0  0  0  0  0  0  0  0  0
   -7.3240   -4.2199   -0.2135 H   0  0  0  0  0  0  0  0  0  0  0  0
   -6.3768   -3.3080   -2.3180 H   0  0  0  0  0  0  0  0  0  0  0  0
   -4.9319   -1.3043   -2.2652 H   0  0  0  0  0  0  0  0  0  0  0  0
   -6.8108    0.9579   -0.3967 H   0  0  0  0  0  0  0  0  0  0  0  0
   -7.5696    3.2869   -0.5663 H   0  0  0  0  0  0  0  0  0  0  0  0
   -5.9158    5.1400   -0.4590 H   0  0  0  0  0  0  0  0  0  0  0  0
   -3.5139    4.6293   -0.1831 H   0  0  0  0  0  0  0  0  0  0  0  0
    1.7380   -2.2001    0.6552 H   0  0  0  0  0  0  0  0  0  0  0  0
    4.1267   -2.3363    0.9497 H   0  0  0  0  0  0  0  0  0  0  0  0
  1  2  1  0
  2  3  1  0
  3  4  1  0
  4  5  1  0
  3  6  1  0
  6  7  2  0
  7  8  1  0
  8  9  2  0
  9 10  1  0
 10 11  2  3
 11 12  1  0
 12 13  2  0
 13 14  1  0
 14 15  1  0
 15 16  2  0
 16 17  1  0
 17 18  2  0
 18 19  1  0
 19 20  2  0
 14 21  2  0
 21 22  1  0
 22 23  2  0
 23 24  1  0
 24 25  2  0
 25 26  1  0
 26 27  2  0
  9 28  1  0
 28 29  2  0
 29  6  1  0
 27 12  1  0
 20 15  1  0
 26 21  1  0
  1 30  1  0
  1 31  1  0
  1 32  1  0
  2 33  1  0
  2 34  1  0
  4 35  1  0
  4 36  1  0
  5 37  1  0
  5 38  1  0
  5 39  1  0
  7 40  1  0
  8 41  1  0
 10 42  1  0
 11 43  1  0
 13 44  1  0
 16 45  1  0
 17 46  1  0
 18 47  1  0
 19 48  1  0
 20 49  1  0
 22 50  1  0
 23 51  1  0
 24 52  1  0
 25 53  1  0
 28 54  1  0
 29 55  1  0
M  END
$$$$
