
     RDKit          3D

 33 35  0  0  0  0  0  0  0  0999 V2000
   -1.7079    2.2714    2.5791 C   0  0  0  0  0  0  0  0  0  0  0  0
   -2.8200    2.2672    1.6921 O   0  0  0  0  0  0  0  0  0  0  0  0
   -2.7011    1.4647    0.5605 C   0  0  0  0  0  0  0  0  0  0  0  0
   -3.8721    1.4159   -0.2071 C   0  0  0  0  0  0  0  0  0  0  0  0
   -3.9382    0.6620   -1.3744 C   0  0  0  0  0  0  0  0  0  0  0  0
   -2.8362   -0.0772   -1.8156 C   0  0  0  0  0  0  0  0  0  0  0  0
   -2.8290   -0.8241   -2.9654 O   0  0  0  0  0  0  0  0  0  0  0  0
   -4.0782   -1.3967   -3.3386 C   0  0  0  0  0  0  0  0  0  0  0  0
   -1.6509   -0.0054   -1.0530 C   0  0  0  0  0  0  0  0  0  0  0  0
   -0.1306   -0.7725   -1.3494 S   0  0  0  0  0  0  0  0  0  0  0  0
    0.5105   -0.0689    0.0503 C   0  0  0  0  0  0  0  0  0  0  0  0
    1.8022   -0.2527    0.4659 N   0  0  0  0  0  0  0  0  0  0  0  0
    2.7882   -1.0050   -0.1318 C   0  0  0  0  0  0  0  0  0  0  0  0
    2.6474   -1.6725   -1.1516 O   0  0  0  0  0  0  0  0  0  0  0  0
    4.0816   -0.9622    0.5568 C   0  0  0  0  0  0  0  0  0  0  0  0
    5.2431   -1.6140    0.1709 C   0  0  0  0  0  0  0  0  0  0  0  0
    6.3358   -1.3689    1.0551 C   0  0  0  0  0  0  0  0  0  0  0  0
    5.9615   -0.5393    2.0795 C   0  0  0  0  0  0  0  0  0  0  0  0
    7.1457    0.0177    3.4721 Br  0  0  0  0  0  0  0  0  0  0  0  0
    4.3405   -0.0575    1.9954 S   0  0  0  0  0  0  0  0  0  0  0  0
   -0.3029    0.6910    0.7383 N   0  0  0  0  0  0  0  0  0  0  0  0
   -1.5551    0.7448    0.1264 C   0  0  0  0  0  0  0  0  0  0  0  0
   -1.4875    1.2631    2.9472 H   0  0  0  0  0  0  0  0  0  0  0  0
   -0.8337    2.7386    2.1137 H   0  0  0  0  0  0  0  0  0  0  0  0
   -1.9788    2.8818    3.4480 H   0  0  0  0  0  0  0  0  0  0  0  0
   -4.7436    1.9811    0.1176 H   0  0  0  0  0  0  0  0  0  0  0  0
   -4.8666    0.6750   -1.9386 H   0  0  0  0  0  0  0  0  0  0  0  0
   -4.5740   -1.8767   -2.4873 H   0  0  0  0  0  0  0  0  0  0  0  0
   -4.7275   -0.6437   -3.7971 H   0  0  0  0  0  0  0  0  0  0  0  0
   -3.8809   -2.1672   -4.0903 H   0  0  0  0  0  0  0  0  0  0  0  0
    2.0309    0.2575    1.3081 H   0  0  0  0  0  0  0  0  0  0  0  0
    5.2976   -2.2443   -0.7113 H   0  0  0  0  0  0  0  0  0  0  0  0
    7.3297   -1.7830    0.9343 H   0  0  0  0  0  0  0  0  0  0  0  0
  1  2  1  0
  2  3  1  0
  3  4  2  0
  4  5  1  0
  5  6  2  0
  6  7  1  0
  7  8  1  0
  6  9  1  0
  9 10  1  0
 10 11  1  0
 11 12  1  0
 12 13  1  0
 13 14  2  0
 13 15  1  0
 15 16  2  0
 16 17  1  0
 17 18  2  0
 18 19  1  0
 18 20  1  0
 11 21  2  0
 21 22  1  0
 22  3  1  0
 22  9  2  0
 20 15  1  0
  1 23  1  0
  1 24  1  0
  1 25  1  0
  4 26  1  0
  5 27  1  0
  8 28  1  0
  8 29  1  0
  8 30  1  0
 12 31  1  0
 16 32  1  0
 17 33  1  0
M  END
$$$$
