
     RDKit          3D

 36 37  0  0  0  0  0  0  0  0999 V2000
   -1.1472   -0.3001    0.2078 O   0  0  0  0  0  0  0  0  0  0  0  0
   -0.9889   -0.7951   -0.8984 C   0  0  0  0  0  0  0  0  0  0  0  0
   -2.1010   -1.3371   -1.7202 C   0  0  0  0  0  0  0  0  0  0  0  0
   -3.3614   -0.8760   -1.7026 C   0  0  0  0  0  0  0  0  0  0  0  0
   -3.8477    0.2699   -0.9234 C   0  0  0  0  0  0  0  0  0  0  0  0
   -4.5113    0.0139    0.2851 C   0  0  0  0  0  0  0  0  0  0  0  0
   -4.9975    1.0657    1.0653 C   0  0  0  0  0  0  0  0  0  0  0  0
   -4.8270    2.3836    0.6462 C   0  0  0  0  0  0  0  0  0  0  0  0
   -4.1689    2.6523   -0.5541 C   0  0  0  0  0  0  0  0  0  0  0  0
   -3.6801    1.6018   -1.3372 C   0  0  0  0  0  0  0  0  0  0  0  0
   -2.8918    2.0032   -2.8252 Cl  0  0  0  0  0  0  0  0  0  0  0  0
    0.2304   -0.9315   -1.5176 N   0  0  0  0  0  0  0  0  0  0  0  0
    1.4440   -0.4174   -0.9107 C   0  0  0  0  0  0  0  0  0  0  0  0
    1.9724   -1.3327    0.1960 C   0  0  0  0  0  0  0  0  0  0  0  0
    3.2596   -0.8103    0.7832 C   0  0  0  0  0  0  0  0  0  0  0  0
    4.4978   -1.2641    0.3100 C   0  0  0  0  0  0  0  0  0  0  0  0
    5.6850   -0.7610    0.8446 C   0  0  0  0  0  0  0  0  0  0  0  0
    5.6452    0.2011    1.8524 C   0  0  0  0  0  0  0  0  0  0  0  0
    4.4184    0.6619    2.3266 C   0  0  0  0  0  0  0  0  0  0  0  0
    3.2304    0.1602    1.7938 C   0  0  0  0  0  0  0  0  0  0  0  0
   -1.8539   -2.1743   -2.3629 H   0  0  0  0  0  0  0  0  0  0  0  0
   -4.1131   -1.3482   -2.3300 H   0  0  0  0  0  0  0  0  0  0  0  0
   -4.6378   -1.0080    0.6359 H   0  0  0  0  0  0  0  0  0  0  0  0
   -5.4997    0.8544    2.0061 H   0  0  0  0  0  0  0  0  0  0  0  0
   -5.1997    3.2017    1.2573 H   0  0  0  0  0  0  0  0  0  0  0  0
   -4.0362    3.6826   -0.8732 H   0  0  0  0  0  0  0  0  0  0  0  0
    0.2780   -1.2787   -2.4654 H   0  0  0  0  0  0  0  0  0  0  0  0
    1.2383    0.5861   -0.5192 H   0  0  0  0  0  0  0  0  0  0  0  0
    2.1836   -0.3154   -1.7129 H   0  0  0  0  0  0  0  0  0  0  0  0
    2.1295   -2.3447   -0.1996 H   0  0  0  0  0  0  0  0  0  0  0  0
    1.2290   -1.4446    0.9953 H   0  0  0  0  0  0  0  0  0  0  0  0
    4.5460   -2.0135   -0.4764 H   0  0  0  0  0  0  0  0  0  0  0  0
    6.6419   -1.1199    0.4750 H   0  0  0  0  0  0  0  0  0  0  0  0
    6.5699    0.5919    2.2685 H   0  0  0  0  0  0  0  0  0  0  0  0
    4.3855    1.4127    3.1117 H   0  0  0  0  0  0  0  0  0  0  0  0
    2.2783    0.5297    2.1711 H   0  0  0  0  0  0  0  0  0  0  0  0
  1  2  2  0
  2  3  1  0
  3  4  2  3
  4  5  1  0
  5  6  2  0
  6  7  1  0
  7  8  2  0
  8  9  1  0
  9 10  2  0
 10 11  1  0
  2 12  1  0
 12 13  1  0
 13 14  1  0
 14 15  1  0
 15 16  2  0
 16 17  1  0
 17 18  2  0
 18 19  1  0
 19 20  2  0
 10  5  1  0
 20 15  1  0
  3 21  1  0
  4 22  1  0
  6 23  1  0
  7 24  1  0
  8 25  1  0
  9 26  1  0
 12 27  1  0
 13 28  1  0
 13 29  1  0
 14 30  1  0
 14 31  1  0
 16 32  1  0
 17 33  1  0
 18 34  1  0
 19 35  1  0
 20 36  1  0
M  END
$$$$
