
     RDKit          3D

 53 55  0  0  0  0  0  0  0  0999 V2000
    9.2536   -0.3914    1.2934 C   0  0  0  0  0  0  0  0  0  0  0  0
    8.3528    0.6472    1.6583 O   0  0  0  0  0  0  0  0  0  0  0  0
    7.0179    0.3517    1.6078 C   0  0  0  0  0  0  0  0  0  0  0  0
    6.1749    1.3870    2.0172 C   0  0  0  0  0  0  0  0  0  0  0  0
    4.7873    1.2224    2.0144 C   0  0  0  0  0  0  0  0  0  0  0  0
    4.2208    0.0095    1.6053 C   0  0  0  0  0  0  0  0  0  0  0  0
    2.7280   -0.1690    1.5676 C   0  0  0  0  0  0  0  0  0  0  0  0
    2.2084    0.1477    0.2647 N   0  0  0  0  0  0  0  0  0  0  0  0
    0.9279   -0.1846   -0.1033 C   0  0  0  0  0  0  0  0  0  0  0  0
    0.1461   -0.8737    0.5380 O   0  0  0  0  0  0  0  0  0  0  0  0
    0.5002    0.4153   -1.4612 C   0  0  0  0  0  0  0  0  0  0  0  0
    1.1791    1.2884   -1.9825 O   0  0  0  0  0  0  0  0  0  0  0  0
   -0.6624   -0.1271   -1.9558 N   0  0  0  0  0  0  0  0  0  0  0  0
   -1.4208    0.5221   -3.0167 C   0  0  0  0  0  0  0  0  0  0  0  0
   -2.5533    1.4126   -2.4642 C   0  0  0  0  0  0  0  0  0  0  0  0
   -2.0066    2.5270   -1.7381 O   0  0  0  0  0  0  0  0  0  0  0  0
   -2.9972    2.8596   -0.7647 C   0  0  0  0  0  0  0  0  0  0  0  0
   -3.4936    1.5130   -0.2898 C   0  0  0  0  0  0  0  0  0  0  0  0
   -3.3845    0.6568   -1.4891 N   0  0  0  0  0  0  0  0  0  0  0  0
   -4.8170    0.0637   -2.1559 S   0  0  0  0  0  6  0  0  0  0  0  0
   -5.7251    1.1849   -2.2757 O   0  0  0  0  0  0  0  0  0  0  0  0
   -4.4677   -0.7467   -3.3019 O   0  0  0  0  0  0  0  0  0  0  0  0
   -5.4123   -1.0238   -0.8894 C   0  0  0  0  0  0  0  0  0  0  0  0
   -6.6496   -0.7868   -0.2850 C   0  0  0  0  0  0  0  0  0  0  0  0
   -7.0975   -1.6492    0.7158 C   0  0  0  0  0  0  0  0  0  0  0  0
   -6.3149   -2.7400    1.1016 C   0  0  0  0  0  0  0  0  0  0  0  0
   -5.0829   -2.9766    0.4876 C   0  0  0  0  0  0  0  0  0  0  0  0
   -4.6268   -2.1184   -0.5124 C   0  0  0  0  0  0  0  0  0  0  0  0
    5.0692   -1.0226    1.1826 C   0  0  0  0  0  0  0  0  0  0  0  0
    6.4590   -0.8550    1.1877 C   0  0  0  0  0  0  0  0  0  0  0  0
    9.1185   -0.6828    0.2467 H   0  0  0  0  0  0  0  0  0  0  0  0
    9.1532   -1.2532    1.9620 H   0  0  0  0  0  0  0  0  0  0  0  0
   10.2716   -0.0034    1.4006 H   0  0  0  0  0  0  0  0  0  0  0  0
    6.6045    2.3333    2.3383 H   0  0  0  0  0  0  0  0  0  0  0  0
    4.1554    2.0488    2.3319 H   0  0  0  0  0  0  0  0  0  0  0  0
    2.2386    0.4874    2.2976 H   0  0  0  0  0  0  0  0  0  0  0  0
    2.4522   -1.1968    1.8330 H   0  0  0  0  0  0  0  0  0  0  0  0
    2.6810    0.8369   -0.3148 H   0  0  0  0  0  0  0  0  0  0  0  0
   -1.1750   -0.7240   -1.3122 H   0  0  0  0  0  0  0  0  0  0  0  0
   -0.7386    1.1235   -3.6264 H   0  0  0  0  0  0  0  0  0  0  0  0
   -1.8336   -0.2794   -3.6357 H   0  0  0  0  0  0  0  0  0  0  0  0
   -3.1487    1.8219   -3.2891 H   0  0  0  0  0  0  0  0  0  0  0  0
   -2.5558    3.4566    0.0375 H   0  0  0  0  0  0  0  0  0  0  0  0
   -3.7899    3.4388   -1.2515 H   0  0  0  0  0  0  0  0  0  0  0  0
   -2.8239    1.0982    0.4720 H   0  0  0  0  0  0  0  0  0  0  0  0
   -4.4968    1.5749    0.1376 H   0  0  0  0  0  0  0  0  0  0  0  0
   -7.2690    0.0537   -0.5881 H   0  0  0  0  0  0  0  0  0  0  0  0
   -8.0599   -1.4766    1.1930 H   0  0  0  0  0  0  0  0  0  0  0  0
   -6.6693   -3.4131    1.8793 H   0  0  0  0  0  0  0  0  0  0  0  0
   -4.4810   -3.8320    0.7870 H   0  0  0  0  0  0  0  0  0  0  0  0
   -3.6694   -2.3059   -0.9923 H   0  0  0  0  0  0  0  0  0  0  0  0
    4.6498   -1.9673    0.8406 H   0  0  0  0  0  0  0  0  0  0  0  0
    7.0729   -1.6833    0.8510 H   0  0  0  0  0  0  0  0  0  0  0  0
  1  2  1  0
  2  3  1  0
  3  4  2  0
  4  5  1  0
  5  6  2  0
  6  7  1  0
  7  8  1  0
  8  9  1  0
  9 10  2  0
  9 11  1  0
 11 12  2  0
 11 13  1  0
 13 14  1  0
 14 15  1  0
 15 16  1  0
 16 17  1  0
 17 18  1  0
 18 19  1  0
 19 20  1  0
 20 21  2  0
 20 22  2  0
 20 23  1  0
 23 24  2  0
 24 25  1  0
 25 26  2  0
 26 27  1  0
 27 28  2  0
  6 29  1  0
 29 30  2  0
 30  3  1  0
 19 15  1  0
 28 23  1  0
  1 31  1  0
  1 32  1  0
  1 33  1  0
  4 34  1  0
  5 35  1  0
  7 36  1  0
  7 37  1  0
  8 38  1  0
 13 39  1  0
 14 40  1  0
 14 41  1  0
 15 42  1  0
 17 43  1  0
 17 44  1  0
 18 45  1  0
 18 46  1  0
 24 47  1  0
 25 48  1  0
 26 49  1  0
 27 50  1  0
 28 51  1  0
 29 52  1  0
 30 53  1  0
M  END
$$$$
