
     RDKit          3D

 32 32  0  0  0  0  0  0  0  0999 V2000
   -3.4184   -1.8692    2.1507 C   0  0  0  0  0  0  0  0  0  0  0  0
   -3.0969   -1.6010    1.0247 C   0  0  0  0  0  0  0  0  0  0  0  0
   -2.6943   -1.2756   -0.3550 C   0  0  0  0  0  0  0  0  0  0  0  0
   -2.4504    0.1685   -0.5261 N   0  0  0  0  0  0  0  0  0  0  0  0
   -3.7107    0.9189   -0.4390 C   0  0  0  0  0  0  0  0  0  0  0  0
   -1.7946    0.4632   -1.8117 C   0  0  0  0  0  0  0  0  0  0  0  0
   -0.3450   -0.0213   -1.9162 C   0  0  0  0  0  0  0  0  0  0  0  0
    0.5372    0.4763   -0.7747 C   0  0  0  0  0  0  0  0  0  0  0  0
    1.8789    0.0375   -1.0429 O   0  0  0  0  0  0  0  0  0  0  0  0
    2.6478    0.1369    0.0869 C   0  0  0  0  0  0  0  0  0  0  0  0
    3.2510    1.3614    0.3804 C   0  0  0  0  0  0  0  0  0  0  0  0
    4.0683    1.4767    1.5057 C   0  0  0  0  0  0  0  0  0  0  0  0
    4.2864    0.3652    2.3209 C   0  0  0  0  0  0  0  0  0  0  0  0
    5.2949    0.5136    3.7075 Cl  0  0  0  0  0  0  0  0  0  0  0  0
    3.7011   -0.8646    2.0219 C   0  0  0  0  0  0  0  0  0  0  0  0
    2.8850   -0.9803    0.8964 C   0  0  0  0  0  0  0  0  0  0  0  0
    2.1784   -2.5141    0.5391 Cl  0  0  0  0  0  0  0  0  0  0  0  0
   -3.6976   -2.1008    3.1524 H   0  0  0  0  0  0  0  0  0  0  0  0
   -3.4472   -1.6360   -1.0669 H   0  0  0  0  0  0  0  0  0  0  0  0
   -1.7786   -1.8433   -0.5516 H   0  0  0  0  0  0  0  0  0  0  0  0
   -4.4207    0.6249   -1.2207 H   0  0  0  0  0  0  0  0  0  0  0  0
   -3.5221    1.9946   -0.5347 H   0  0  0  0  0  0  0  0  0  0  0  0
   -4.1926    0.7856    0.5352 H   0  0  0  0  0  0  0  0  0  0  0  0
   -2.3752    0.0502   -2.6473 H   0  0  0  0  0  0  0  0  0  0  0  0
   -1.7722    1.5518   -1.9582 H   0  0  0  0  0  0  0  0  0  0  0  0
    0.0753    0.3265   -2.8690 H   0  0  0  0  0  0  0  0  0  0  0  0
   -0.2943   -1.1152   -1.9700 H   0  0  0  0  0  0  0  0  0  0  0  0
    0.1811    0.0730    0.1816 H   0  0  0  0  0  0  0  0  0  0  0  0
    0.5184    1.5721   -0.7339 H   0  0  0  0  0  0  0  0  0  0  0  0
    3.0899    2.2196   -0.2659 H   0  0  0  0  0  0  0  0  0  0  0  0
    4.5356    2.4307    1.7370 H   0  0  0  0  0  0  0  0  0  0  0  0
    3.8816   -1.7258    2.6590 H   0  0  0  0  0  0  0  0  0  0  0  0
  1  2  3  0
  2  3  1  0
  3  4  1  0
  4  5  1  0
  4  6  1  0
  6  7  1  0
  7  8  1  0
  8  9  1  0
  9 10  1  0
 10 11  2  0
 11 12  1  0
 12 13  2  0
 13 14  1  0
 13 15  1  0
 15 16  2  0
 16 17  1  0
 16 10  1  0
  1 18  1  0
  3 19  1  0
  3 20  1  0
  5 21  1  0
  5 22  1  0
  5 23  1  0
  6 24  1  0
  6 25  1  0
  7 26  1  0
  7 27  1  0
  8 28  1  0
  8 29  1  0
 11 30  1  0
 12 31  1  0
 15 32  1  0
M  END
$$$$
