
     RDKit          3D

 59 64  0  0  0  0  0  0  0  0999 V2000
    2.7817   -2.9452   -0.8975 C   0  0  0  0  0  0  0  0  0  0  0  0
    2.5191   -1.6679   -0.3267 O   0  0  0  0  0  0  0  0  0  0  0  0
    3.4404   -0.6683   -0.5659 C   0  0  0  0  0  0  0  0  0  0  0  0
    4.6295   -0.8477   -1.2913 C   0  0  0  0  0  0  0  0  0  0  0  0
    5.4869    0.2557   -1.4715 C   0  0  0  0  0  0  0  0  0  0  0  0
    5.1230    1.4773   -0.9183 C   0  0  0  0  0  0  0  0  0  0  0  0
    3.9541    1.6958   -0.1911 C   0  0  0  0  0  0  0  0  0  0  0  0
    3.1063    0.5963   -0.0203 C   0  0  0  0  0  0  0  0  0  0  0  0
    1.8865    0.6689    0.6908 N   0  0  0  0  0  0  0  0  0  0  0  0
    1.2801    1.7766    1.2544 C   0  0  0  0  0  0  0  0  0  0  0  0
    1.7253    2.9204    1.2566 O   0  0  0  0  0  0  0  0  0  0  0  0
   -0.0387    1.4486    1.9373 C   0  0  0  0  0  0  0  0  0  0  0  0
   -1.2486    0.8771    0.7002 S   0  0  0  0  0  0  0  0  0  0  0  0
   -2.6212    0.6051    1.7122 C   0  0  0  0  0  0  0  0  0  0  0  0
   -2.6750    0.8174    3.0049 N   0  0  0  0  0  0  0  0  0  0  0  0
   -3.9346    0.4847    3.4302 N   0  0  0  0  0  0  0  0  0  0  0  0
   -4.6287    0.0669    2.3867 C   0  0  0  0  0  0  0  0  0  0  0  0
   -6.0488   -0.3960    2.4188 C   0  0  0  0  0  0  0  0  0  0  0  0
   -6.1598   -1.8801    2.6387 C   0  0  0  0  0  0  0  0  0  0  0  0
   -5.6662   -2.6270    3.6926 C   0  0  0  0  0  0  0  0  0  0  0  0
   -5.9794   -4.0105    3.5756 C   0  0  0  0  0  0  0  0  0  0  0  0
   -6.7172   -4.2744    2.4442 C   0  0  0  0  0  0  0  0  0  0  0  0
   -7.0146   -2.8640    1.5241 S   0  0  0  0  0  0  0  0  0  0  0  0
   -3.8254    0.1288    1.2674 N   0  0  0  0  0  0  0  0  0  0  0  0
   -4.1749   -0.2778   -0.0793 C   0  0  0  0  0  0  0  0  0  0  0  0
   -4.7816    0.8473   -0.8315 C   0  0  0  0  0  0  0  0  0  0  0  0
   -4.2634    1.9366   -1.5034 C   0  0  0  0  0  0  0  0  0  0  0  0
   -5.3702    2.6477   -2.0268 C   0  0  0  0  0  0  0  0  0  0  0  0
   -6.4902    1.9456   -1.6501 C   0  0  0  0  0  0  0  0  0  0  0  0
   -6.1431    0.8503   -0.9258 O   0  0  0  0  0  0  0  0  0  0  0  0
    6.0653    2.4230   -1.1875 O   0  0  0  0  0  0  0  0  0  0  0  0
    7.0420    1.8178   -1.9165 C   0  0  0  0  0  0  0  0  0  0  0  0
    8.1923    2.4413   -2.3956 C   0  0  0  0  0  0  0  0  0  0  0  0
    9.0775    1.6426   -3.1271 C   0  0  0  0  0  0  0  0  0  0  0  0
    8.8081    0.2914   -3.3593 C   0  0  0  0  0  0  0  0  0  0  0  0
    7.6408   -0.3083   -2.8640 C   0  0  0  0  0  0  0  0  0  0  0  0
    6.7366    0.4767   -2.1235 C   0  0  0  0  0  0  0  0  0  0  0  0
    2.8382   -2.8874   -1.9902 H   0  0  0  0  0  0  0  0  0  0  0  0
    1.9433   -3.6014   -0.6449 H   0  0  0  0  0  0  0  0  0  0  0  0
    3.6892   -3.3867   -0.4745 H   0  0  0  0  0  0  0  0  0  0  0  0
    4.9139   -1.8010   -1.7190 H   0  0  0  0  0  0  0  0  0  0  0  0
    3.7476    2.6795    0.2080 H   0  0  0  0  0  0  0  0  0  0  0  0
    1.3765   -0.2104    0.7188 H   0  0  0  0  0  0  0  0  0  0  0  0
    0.1365    0.6768    2.6936 H   0  0  0  0  0  0  0  0  0  0  0  0
   -0.4087    2.3507    2.4355 H   0  0  0  0  0  0  0  0  0  0  0  0
   -6.5736   -0.0861    1.5090 H   0  0  0  0  0  0  0  0  0  0  0  0
   -6.5624    0.1130    3.2451 H   0  0  0  0  0  0  0  0  0  0  0  0
   -5.1014   -2.1943    4.5117 H   0  0  0  0  0  0  0  0  0  0  0  0
   -5.6877   -4.7693    4.2927 H   0  0  0  0  0  0  0  0  0  0  0  0
   -7.0988   -5.2289    2.1120 H   0  0  0  0  0  0  0  0  0  0  0  0
   -4.8610   -1.1263   -0.0149 H   0  0  0  0  0  0  0  0  0  0  0  0
   -3.2783   -0.6479   -0.5859 H   0  0  0  0  0  0  0  0  0  0  0  0
   -3.2169    2.1928   -1.6018 H   0  0  0  0  0  0  0  0  0  0  0  0
   -5.3537    3.5591   -2.6087 H   0  0  0  0  0  0  0  0  0  0  0  0
   -7.5504    2.0859   -1.8099 H   0  0  0  0  0  0  0  0  0  0  0  0
    8.3844    3.4909   -2.2067 H   0  0  0  0  0  0  0  0  0  0  0  0
    9.9909    2.0840   -3.5210 H   0  0  0  0  0  0  0  0  0  0  0  0
    9.5147   -0.3062   -3.9315 H   0  0  0  0  0  0  0  0  0  0  0  0
    7.4436   -1.3593   -3.0503 H   0  0  0  0  0  0  0  0  0  0  0  0
  1  2  1  0
  2  3  1  0
  3  4  2  0
  4  5  1  0
  5  6  2  0
  6  7  1  0
  7  8  2  0
  8  9  1  0
  9 10  1  0
 10 11  2  0
 10 12  1  0
 12 13  1  0
 13 14  1  0
 14 15  2  0
 15 16  1  0
 16 17  2  0
 17 18  1  0
 18 19  1  0
 19 20  2  0
 20 21  1  0
 21 22  2  0
 22 23  1  0
 17 24  1  0
 24 25  1  0
 25 26  1  0
 26 27  2  0
 27 28  1  0
 28 29  2  0
 29 30  1  0
  6 31  1  0
 31 32  1  0
 32 33  2  0
 33 34  1  0
 34 35  2  0
 35 36  1  0
 36 37  2  0
  8  3  1  0
 24 14  1  0
 30 26  1  0
 37 32  1  0
 37  5  1  0
 23 19  1  0
  1 38  1  0
  1 39  1  0
  1 40  1  0
  4 41  1  0
  7 42  1  0
  9 43  1  0
 12 44  1  0
 12 45  1  0
 18 46  1  0
 18 47  1  0
 20 48  1  0
 21 49  1  0
 22 50  1  0
 25 51  1  0
 25 52  1  0
 27 53  1  0
 28 54  1  0
 29 55  1  0
 33 56  1  0
 34 57  1  0
 35 58  1  0
 36 59  1  0
M  END
$$$$
