
     RDKit          3D

 44 44  0  0  0  0  0  0  0  0999 V2000
   -1.9309    1.6325    2.2782 C   0  0  0  0  0  0  0  0  0  0  0  0
   -2.2649    0.2601    1.6600 C   0  0  0  0  0  0  0  0  0  0  0  0
   -1.2774   -0.7748    2.2018 C   0  0  0  0  0  0  0  0  0  0  0  0
   -2.3999    0.3218    0.0998 C   0  0  0  0  0  0  0  0  0  0  0  0
   -3.4375    1.2899   -0.1391 O   0  0  0  0  0  0  0  0  0  0  0  0
   -1.1611    0.8276   -0.5306 C   0  0  0  0  0  0  0  0  0  0  0  0
   -0.1385    1.2242   -1.0224 C   0  0  0  0  0  0  0  0  0  0  0  0
    1.1408    1.6787   -1.5898 C   0  0  0  0  0  0  0  0  0  0  0  0
    2.3112    0.9926   -1.0346 N   0  0  0  0  0  0  0  0  0  0  0  0
    2.3179   -0.4481   -1.2690 C   0  0  0  0  0  0  0  0  0  0  0  0
    3.7168   -1.0171   -1.0031 C   0  0  0  0  0  0  0  0  0  0  0  0
    4.4129   -0.3783    0.2015 C   0  0  0  0  0  0  0  0  0  0  0  0
    3.4099    0.3044    1.1201 C   0  0  0  0  0  0  0  0  0  0  0  0
    2.5784    1.3507    0.3647 C   0  0  0  0  0  0  0  0  0  0  0  0
   -2.8534   -1.0374   -0.5427 C   0  0  0  0  0  0  0  0  0  0  0  0
   -1.7203   -2.0347   -0.8398 C   0  0  0  0  0  0  0  0  0  0  0  0
   -3.6524   -0.8477   -1.8463 C   0  0  0  0  0  0  0  0  0  0  0  0
   -2.6445    2.4013    1.9657 H   0  0  0  0  0  0  0  0  0  0  0  0
   -0.9246    1.9656    2.0044 H   0  0  0  0  0  0  0  0  0  0  0  0
   -1.9739    1.5798    3.3720 H   0  0  0  0  0  0  0  0  0  0  0  0
   -3.2558   -0.0041    2.0575 H   0  0  0  0  0  0  0  0  0  0  0  0
   -1.6404   -1.7914    2.0281 H   0  0  0  0  0  0  0  0  0  0  0  0
   -0.2849   -0.6665    1.7536 H   0  0  0  0  0  0  0  0  0  0  0  0
   -1.1621   -0.6723    3.2870 H   0  0  0  0  0  0  0  0  0  0  0  0
   -3.2970    1.6467   -1.0325 H   0  0  0  0  0  0  0  0  0  0  0  0
    1.1258    1.5354   -2.6772 H   0  0  0  0  0  0  0  0  0  0  0  0
    1.2481    2.7600   -1.4394 H   0  0  0  0  0  0  0  0  0  0  0  0
    2.0522   -0.6780   -2.3083 H   0  0  0  0  0  0  0  0  0  0  0  0
    1.5829   -0.9579   -0.6326 H   0  0  0  0  0  0  0  0  0  0  0  0
    3.6303   -2.0991   -0.8462 H   0  0  0  0  0  0  0  0  0  0  0  0
    4.3514   -0.8826   -1.8879 H   0  0  0  0  0  0  0  0  0  0  0  0
    4.9838   -1.1357    0.7501 H   0  0  0  0  0  0  0  0  0  0  0  0
    5.1388    0.3645   -0.1528 H   0  0  0  0  0  0  0  0  0  0  0  0
    3.9294    0.7805    1.9593 H   0  0  0  0  0  0  0  0  0  0  0  0
    2.7422   -0.4541    1.5487 H   0  0  0  0  0  0  0  0  0  0  0  0
    1.6569    1.5108    0.9374 H   0  0  0  0  0  0  0  0  0  0  0  0
    3.1195    2.3047    0.3689 H   0  0  0  0  0  0  0  0  0  0  0  0
   -3.5443   -1.5195    0.1626 H   0  0  0  0  0  0  0  0  0  0  0  0
   -1.1022   -1.7014   -1.6809 H   0  0  0  0  0  0  0  0  0  0  0  0
   -2.1400   -3.0089   -1.1164 H   0  0  0  0  0  0  0  0  0  0  0  0
   -1.0590   -2.2022    0.0099 H   0  0  0  0  0  0  0  0  0  0  0  0
   -3.0683   -0.3051   -2.5971 H   0  0  0  0  0  0  0  0  0  0  0  0
   -4.5825   -0.2983   -1.6682 H   0  0  0  0  0  0  0  0  0  0  0  0
   -3.9334   -1.8165   -2.2744 H   0  0  0  0  0  0  0  0  0  0  0  0
  1  2  1  0
  2  3  1  0
  2  4  1  0
  4  5  1  0
  4  6  1  0
  6  7  3  0
  7  8  1  0
  8  9  1  0
  9 10  1  0
 10 11  1  0
 11 12  1  0
 12 13  1  0
 13 14  1  0
  4 15  1  0
 15 16  1  0
 15 17  1  0
 14  9  1  0
  1 18  1  0
  1 19  1  0
  1 20  1  0
  2 21  1  0
  3 22  1  0
  3 23  1  0
  3 24  1  0
  5 25  1  0
  8 26  1  0
  8 27  1  0
 10 28  1  0
 10 29  1  0
 11 30  1  0
 11 31  1  0
 12 32  1  0
 12 33  1  0
 13 34  1  0
 13 35  1  0
 14 36  1  0
 14 37  1  0
 15 38  1  0
 16 39  1  0
 16 40  1  0
 16 41  1  0
 17 42  1  0
 17 43  1  0
 17 44  1  0
M  END
$$$$
