
     RDKit          3D

 34 34  0  0  0  0  0  0  0  0999 V2000
    4.6052   -1.6262    0.3724 C   0  0  0  0  0  0  0  0  0  0  0  0
    4.0306   -0.3623    0.9925 C   0  0  0  0  0  0  0  0  0  0  0  0
    4.1737    0.8742    0.1002 C   0  0  0  0  0  0  0  0  0  0  0  0
    3.4338    0.7815   -1.2336 C   0  0  0  0  0  0  0  0  0  0  0  0
    2.0508    0.4518   -1.0391 O   0  0  0  0  0  0  0  0  0  0  0  0
    1.2239    1.4948   -0.7829 C   0  0  0  0  0  0  0  0  0  0  0  0
    1.5479    2.6698   -0.7138 O   0  0  0  0  0  0  0  0  0  0  0  0
   -0.1719    1.0183   -0.5847 C   0  0  0  0  0  0  0  0  0  0  0  0
   -1.1668    1.9685   -0.3298 C   0  0  0  0  0  0  0  0  0  0  0  0
   -2.4934    1.5683   -0.1347 C   0  0  0  0  0  0  0  0  0  0  0  0
   -2.8479    0.2144   -0.1899 C   0  0  0  0  0  0  0  0  0  0  0  0
   -4.2057   -0.1037    0.0170 N   0  0  0  0  0  0  0  0  0  0  0  0
   -4.7855   -1.3598    0.0197 C   0  0  0  0  0  0  0  0  0  0  0  0
   -6.2702   -1.3023    0.2811 C   0  0  0  0  0  0  0  0  0  0  0  0
   -4.2184   -2.4348   -0.1379 O   0  0  0  0  0  0  0  0  0  0  0  0
   -1.8531   -0.7315   -0.4443 C   0  0  0  0  0  0  0  0  0  0  0  0
   -0.5230   -0.3349   -0.6404 C   0  0  0  0  0  0  0  0  0  0  0  0
    4.0386   -1.9315   -0.5122 H   0  0  0  0  0  0  0  0  0  0  0  0
    4.5638   -2.4499    1.0923 H   0  0  0  0  0  0  0  0  0  0  0  0
    5.6507   -1.4817    0.0825 H   0  0  0  0  0  0  0  0  0  0  0  0
    2.9772   -0.5274    1.2460 H   0  0  0  0  0  0  0  0  0  0  0  0
    4.5526   -0.1686    1.9374 H   0  0  0  0  0  0  0  0  0  0  0  0
    3.7875    1.7329    0.6625 H   0  0  0  0  0  0  0  0  0  0  0  0
    5.2349    1.0716   -0.0914 H   0  0  0  0  0  0  0  0  0  0  0  0
    3.8673   -0.0064   -1.8581 H   0  0  0  0  0  0  0  0  0  0  0  0
    3.5369    1.7143   -1.8012 H   0  0  0  0  0  0  0  0  0  0  0  0
   -0.9144    3.0264   -0.2815 H   0  0  0  0  0  0  0  0  0  0  0  0
   -3.2400    2.3339    0.0609 H   0  0  0  0  0  0  0  0  0  0  0  0
   -4.8222    0.6801    0.1910 H   0  0  0  0  0  0  0  0  0  0  0  0
   -6.7208   -0.4347   -0.2095 H   0  0  0  0  0  0  0  0  0  0  0  0
   -6.7447   -2.2023   -0.1206 H   0  0  0  0  0  0  0  0  0  0  0  0
   -6.4463   -1.2488    1.3586 H   0  0  0  0  0  0  0  0  0  0  0  0
   -2.0752   -1.7932   -0.4981 H   0  0  0  0  0  0  0  0  0  0  0  0
    0.2241   -1.1008   -0.8347 H   0  0  0  0  0  0  0  0  0  0  0  0
  1  2  1  0
  2  3  1  0
  3  4  1  0
  4  5  1  0
  5  6  1  0
  6  7  2  0
  6  8  1  0
  8  9  2  0
  9 10  1  0
 10 11  2  0
 11 12  1  0
 12 13  1  0
 13 14  1  0
 13 15  2  0
 11 16  1  0
 16 17  2  0
 17  8  1  0
  1 18  1  0
  1 19  1  0
  1 20  1  0
  2 21  1  0
  2 22  1  0
  3 23  1  0
  3 24  1  0
  4 25  1  0
  4 26  1  0
  9 27  1  0
 10 28  1  0
 12 29  1  0
 14 30  1  0
 14 31  1  0
 14 32  1  0
 16 33  1  0
 17 34  1  0
M  END
$$$$
