
     RDKit          3D

 44 45  0  0  0  0  0  0  0  0999 V2000
    8.6543    0.6930    0.1245 C   0  0  0  0  0  0  0  0  0  0  0  0
    7.6042    1.6713    0.6143 C   0  0  0  0  0  0  0  0  0  0  0  0
    6.2992    1.2281    0.2125 O   0  0  0  0  0  0  0  0  0  0  0  0
    5.6687    0.3967    1.0779 C   0  0  0  0  0  0  0  0  0  0  0  0
    6.1030    0.0122    2.1507 O   0  0  0  0  0  0  0  0  0  0  0  0
    4.3387   -0.0089    0.5427 C   0  0  0  0  0  0  0  0  0  0  0  0
    3.8941    0.3690   -0.7325 C   0  0  0  0  0  0  0  0  0  0  0  0
    2.6422   -0.0487   -1.1957 C   0  0  0  0  0  0  0  0  0  0  0  0
    1.8305   -0.8397   -0.3755 C   0  0  0  0  0  0  0  0  0  0  0  0
    0.2570   -1.3977   -0.9759 S   0  0  0  0  0  6  0  0  0  0  0  0
    0.2737   -1.3587   -2.4191 O   0  0  0  0  0  0  0  0  0  0  0  0
   -0.1244   -2.5793   -0.2286 O   0  0  0  0  0  0  0  0  0  0  0  0
   -0.7673   -0.1112   -0.4351 N   0  0  0  0  0  0  0  0  0  0  0  0
   -2.0277   -0.6237    0.0518 N   0  0  0  0  0  0  0  0  0  0  0  0
   -3.1558   -0.8271   -1.2482 S   0  0  0  0  0  6  0  0  0  0  0  0
   -3.2251   -2.2410   -1.5351 O   0  0  0  0  0  0  0  0  0  0  0  0
   -2.8074    0.1539   -2.2574 O   0  0  0  0  0  0  0  0  0  0  0  0
   -4.6599   -0.3230   -0.4622 C   0  0  0  0  0  0  0  0  0  0  0  0
   -5.5073   -1.2854    0.0910 C   0  0  0  0  0  0  0  0  0  0  0  0
   -6.7013   -0.8835    0.6919 C   0  0  0  0  0  0  0  0  0  0  0  0
   -7.0528    0.4732    0.7405 C   0  0  0  0  0  0  0  0  0  0  0  0
   -8.3454    0.8871    1.3831 C   0  0  0  0  0  0  0  0  0  0  0  0
   -6.2007    1.4251    0.1661 C   0  0  0  0  0  0  0  0  0  0  0  0
   -5.0066    1.0310   -0.4413 C   0  0  0  0  0  0  0  0  0  0  0  0
    2.2665   -1.2346    0.8914 C   0  0  0  0  0  0  0  0  0  0  0  0
    3.5191   -0.8149    1.3482 C   0  0  0  0  0  0  0  0  0  0  0  0
    8.6018    0.5926   -0.9656 H   0  0  0  0  0  0  0  0  0  0  0  0
    9.6572    1.0312    0.4002 H   0  0  0  0  0  0  0  0  0  0  0  0
    8.4916   -0.3051    0.5438 H   0  0  0  0  0  0  0  0  0  0  0  0
    7.7674    2.6494    0.1524 H   0  0  0  0  0  0  0  0  0  0  0  0
    7.6645    1.8112    1.6985 H   0  0  0  0  0  0  0  0  0  0  0  0
    4.5182    0.9810   -1.3826 H   0  0  0  0  0  0  0  0  0  0  0  0
    2.3152    0.2419   -2.1912 H   0  0  0  0  0  0  0  0  0  0  0  0
   -0.9094    0.5210   -1.2445 H   0  0  0  0  0  0  0  0  0  0  0  0
   -1.9105   -1.5546    0.4938 H   0  0  0  0  0  0  0  0  0  0  0  0
   -5.2554   -2.3447    0.0535 H   0  0  0  0  0  0  0  0  0  0  0  0
   -7.3608   -1.6341    1.1199 H   0  0  0  0  0  0  0  0  0  0  0  0
   -9.1920    0.5049    0.8055 H   0  0  0  0  0  0  0  0  0  0  0  0
   -8.4012    0.4972    2.4054 H   0  0  0  0  0  0  0  0  0  0  0  0
   -8.4347    1.9782    1.4391 H   0  0  0  0  0  0  0  0  0  0  0  0
   -6.4651    2.4795    0.1833 H   0  0  0  0  0  0  0  0  0  0  0  0
   -4.3605    1.7800   -0.8942 H   0  0  0  0  0  0  0  0  0  0  0  0
    1.6465   -1.8684    1.5243 H   0  0  0  0  0  0  0  0  0  0  0  0
    3.8574   -1.1243    2.3376 H   0  0  0  0  0  0  0  0  0  0  0  0
  1  2  1  0
  2  3  1  0
  3  4  1  0
  4  5  2  0
  4  6  1  0
  6  7  2  0
  7  8  1  0
  8  9  2  0
  9 10  1  0
 10 11  2  0
 10 12  2  0
 10 13  1  0
 13 14  1  0
 14 15  1  0
 15 16  2  0
 15 17  2  0
 15 18  1  0
 18 19  2  0
 19 20  1  0
 20 21  2  0
 21 22  1  0
 21 23  1  0
 23 24  2  0
  9 25  1  0
 25 26  2  0
 26  6  1  0
 24 18  1  0
  1 27  1  0
  1 28  1  0
  1 29  1  0
  2 30  1  0
  2 31  1  0
  7 32  1  0
  8 33  1  0
 13 34  1  0
 14 35  1  0
 19 36  1  0
 20 37  1  0
 22 38  1  0
 22 39  1  0
 22 40  1  0
 23 41  1  0
 24 42  1  0
 25 43  1  0
 26 44  1  0
M  END
$$$$
