
     RDKit          3D

 43 44  0  0  0  0  0  0  0  0999 V2000
   -2.8857   -2.8421    0.3771 C   0  0  0  0  0  0  0  0  0  0  0  0
   -2.7927   -1.5304    1.1325 C   0  0  0  0  0  0  0  0  0  0  0  0
   -3.2953   -0.4234    0.2747 N   0  0  0  0  0  4  0  0  0  0  0  0
   -4.6258   -0.1555    0.3035 C   0  0  0  0  0  0  0  0  0  0  0  0
   -5.1805    0.8783   -0.4476 C   0  0  0  0  0  0  0  0  0  0  0  0
   -6.6500    1.1740   -0.3750 C   0  0  0  0  0  0  0  0  0  0  0  0
   -4.3366    1.6664   -1.2210 C   0  0  0  0  0  0  0  0  0  0  0  0
   -2.9762    1.3884   -1.2472 C   0  0  0  0  0  0  0  0  0  0  0  0
   -2.4564    0.3316   -0.4891 C   0  0  0  0  0  0  0  0  0  0  0  0
   -1.0243    0.0279   -0.5512 C   0  0  0  0  0  0  0  0  0  0  0  0
   -0.0834    0.9069   -0.1705 C   0  0  0  0  0  0  0  0  0  0  0  0
    1.3519    0.5992   -0.1966 C   0  0  0  0  0  0  0  0  0  0  0  0
    2.1599    1.0339    0.8523 C   0  0  0  0  0  0  0  0  0  0  0  0
    3.5374    0.7627    0.8552 C   0  0  0  0  0  0  0  0  0  0  0  0
    4.1719    0.0711   -0.1906 C   0  0  0  0  0  0  0  0  0  0  0  0
    5.5391   -0.2192   -0.1706 N   0  0  0  0  0  0  0  0  0  0  0  0
    6.1962   -0.6532   -1.4039 C   0  0  0  0  0  0  0  0  0  0  0  0
    6.4034    0.4668    0.7904 C   0  0  0  0  0  0  0  0  0  0  0  0
    3.3339   -0.3464   -1.2387 C   0  0  0  0  0  0  0  0  0  0  0  0
    1.9548   -0.0827   -1.2524 C   0  0  0  0  0  0  0  0  0  0  0  0
   -2.5183   -3.6642    0.9986 H   0  0  0  0  0  0  0  0  0  0  0  0
   -3.9210   -3.0630    0.0980 H   0  0  0  0  0  0  0  0  0  0  0  0
   -2.2943   -2.8176   -0.5429 H   0  0  0  0  0  0  0  0  0  0  0  0
   -1.7705   -1.3132    1.4536 H   0  0  0  0  0  0  0  0  0  0  0  0
   -3.4098   -1.5572    2.0381 H   0  0  0  0  0  0  0  0  0  0  0  0
   -5.2431   -0.7863    0.9389 H   0  0  0  0  0  0  0  0  0  0  0  0
   -7.0114    1.5904   -1.3212 H   0  0  0  0  0  0  0  0  0  0  0  0
   -7.2227    0.2607   -0.1823 H   0  0  0  0  0  0  0  0  0  0  0  0
   -6.8480    1.8917    0.4270 H   0  0  0  0  0  0  0  0  0  0  0  0
   -4.7298    2.4948   -1.8102 H   0  0  0  0  0  0  0  0  0  0  0  0
   -2.3206    1.9974   -1.8686 H   0  0  0  0  0  0  0  0  0  0  0  0
   -0.7555   -0.9633   -0.9061 H   0  0  0  0  0  0  0  0  0  0  0  0
   -0.3410    1.8923    0.2150 H   0  0  0  0  0  0  0  0  0  0  0  0
    1.7397    1.5808    1.6933 H   0  0  0  0  0  0  0  0  0  0  0  0
    4.1030    1.1150    1.7131 H   0  0  0  0  0  0  0  0  0  0  0  0
    7.2649   -0.8353   -1.2439 H   0  0  0  0  0  0  0  0  0  0  0  0
    6.1043    0.1077   -2.1868 H   0  0  0  0  0  0  0  0  0  0  0  0
    5.7811   -1.6017   -1.7609 H   0  0  0  0  0  0  0  0  0  0  0  0
    6.1092    0.2392    1.8206 H   0  0  0  0  0  0  0  0  0  0  0  0
    7.4442    0.1368    0.6966 H   0  0  0  0  0  0  0  0  0  0  0  0
    6.3842    1.5507    0.6320 H   0  0  0  0  0  0  0  0  0  0  0  0
    3.7357   -0.8940   -2.0865 H   0  0  0  0  0  0  0  0  0  0  0  0
    1.3779   -0.4161   -2.1110 H   0  0  0  0  0  0  0  0  0  0  0  0
  1  2  1  0
  2  3  1  0
  3  4  2  0
  4  5  1  0
  5  6  1  0
  5  7  2  0
  7  8  1  0
  8  9  2  0
  9 10  1  0
 10 11  2  3
 11 12  1  0
 12 13  2  0
 13 14  1  0
 14 15  2  0
 15 16  1  0
 16 17  1  0
 16 18  1  0
 15 19  1  0
 19 20  2  0
  9  3  1  0
 20 12  1  0
  1 21  1  0
  1 22  1  0
  1 23  1  0
  2 24  1  0
  2 25  1  0
  4 26  1  0
  6 27  1  0
  6 28  1  0
  6 29  1  0
  7 30  1  0
  8 31  1  0
 10 32  1  0
 11 33  1  0
 13 34  1  0
 14 35  1  0
 17 36  1  0
 17 37  1  0
 17 38  1  0
 18 39  1  0
 18 40  1  0
 18 41  1  0
 19 42  1  0
 20 43  1  0
M  CHG  1   3   1
M  END
$$$$
