
     RDKit          3D

 39 40  0  0  0  0  0  0  0  0999 V2000
   -5.7581    0.4729    1.4939 C   0  0  0  0  0  0  0  0  0  0  0  0
   -4.8344    0.5293    0.2886 C   0  0  0  0  0  0  0  0  0  0  0  0
   -3.7491   -0.3776    0.5250 O   0  0  0  0  0  0  0  0  0  0  0  0
   -3.0992   -0.6815   -0.6432 C   0  0  0  0  0  0  0  0  0  0  0  0
   -3.1919   -1.9978   -1.0961 C   0  0  0  0  0  0  0  0  0  0  0  0
   -2.5546   -2.3719   -2.2802 C   0  0  0  0  0  0  0  0  0  0  0  0
   -1.8149   -1.4347   -3.0029 C   0  0  0  0  0  0  0  0  0  0  0  0
   -1.7022   -0.1242   -2.5384 C   0  0  0  0  0  0  0  0  0  0  0  0
   -2.3218    0.2455   -1.3453 C   0  0  0  0  0  0  0  0  0  0  0  0
   -2.1672    1.5404   -0.9248 O   0  0  0  0  0  0  0  0  0  0  0  0
   -1.2501    1.6179    0.1615 C   0  0  0  0  0  0  0  0  0  0  0  0
    0.2319    1.6184   -0.2439 C   0  0  0  0  0  0  0  0  0  0  0  0
    0.6050    2.0161   -1.3429 O   0  0  0  0  0  0  0  0  0  0  0  0
    1.0460    1.1489    0.7694 N   0  0  0  0  0  0  0  0  0  0  0  0
    2.4049    1.0732    0.6294 C   0  0  0  0  0  0  0  0  0  0  0  0
    3.1796    1.4060   -0.3738 N   0  0  0  0  0  0  0  0  0  0  0  0
    4.5127    1.1648   -0.0939 N   0  0  0  0  0  0  0  0  0  0  0  0
    4.6838    0.6610    1.1141 C   0  0  0  0  0  0  0  0  0  0  0  0
    6.0062    0.2967    1.7049 C   0  0  0  0  0  0  0  0  0  0  0  0
    6.0966   -1.1306    1.8304 O   0  0  0  0  0  0  0  0  0  0  0  0
    6.5139   -1.7581    0.6199 C   0  0  0  0  0  0  0  0  0  0  0  0
    3.2195    0.4543    1.9989 S   0  0  0  0  0  0  0  0  0  0  0  0
   -5.2143    0.7333    2.4096 H   0  0  0  0  0  0  0  0  0  0  0  0
   -6.5973    1.1636    1.3709 H   0  0  0  0  0  0  0  0  0  0  0  0
   -6.1522   -0.5400    1.6304 H   0  0  0  0  0  0  0  0  0  0  0  0
   -5.3970    0.2498   -0.6120 H   0  0  0  0  0  0  0  0  0  0  0  0
   -4.4559    1.5513    0.1791 H   0  0  0  0  0  0  0  0  0  0  0  0
   -3.7719   -2.7259   -0.5369 H   0  0  0  0  0  0  0  0  0  0  0  0
   -2.6377   -3.3943   -2.6426 H   0  0  0  0  0  0  0  0  0  0  0  0
   -1.3200   -1.7251   -3.9263 H   0  0  0  0  0  0  0  0  0  0  0  0
   -1.1096    0.6025   -3.0918 H   0  0  0  0  0  0  0  0  0  0  0  0
   -1.4314    2.5763    0.6603 H   0  0  0  0  0  0  0  0  0  0  0  0
   -1.4376    0.8395    0.9105 H   0  0  0  0  0  0  0  0  0  0  0  0
    0.6613    0.8152    1.6422 H   0  0  0  0  0  0  0  0  0  0  0  0
    6.0962    0.7240    2.7117 H   0  0  0  0  0  0  0  0  0  0  0  0
    6.8371    0.6913    1.1051 H   0  0  0  0  0  0  0  0  0  0  0  0
    7.5239   -1.4331    0.3526 H   0  0  0  0  0  0  0  0  0  0  0  0
    6.5301   -2.8400    0.7859 H   0  0  0  0  0  0  0  0  0  0  0  0
    5.8196   -1.5439   -0.1990 H   0  0  0  0  0  0  0  0  0  0  0  0
  1  2  1  0
  2  3  1  0
  3  4  1  0
  4  5  2  0
  5  6  1  0
  6  7  2  0
  7  8  1  0
  8  9  2  0
  9 10  1  0
 10 11  1  0
 11 12  1  0
 12 13  2  0
 12 14  1  0
 14 15  1  0
 15 16  2  0
 16 17  1  0
 17 18  2  0
 18 19  1  0
 19 20  1  0
 20 21  1  0
 18 22  1  0
  9  4  1  0
 22 15  1  0
  1 23  1  0
  1 24  1  0
  1 25  1  0
  2 26  1  0
  2 27  1  0
  5 28  1  0
  6 29  1  0
  7 30  1  0
  8 31  1  0
 11 32  1  0
 11 33  1  0
 14 34  1  0
 19 35  1  0
 19 36  1  0
 21 37  1  0
 21 38  1  0
 21 39  1  0
M  END
$$$$
