
     RDKit          3D

 51 53  0  0  0  0  0  0  0  0999 V2000
    2.2124   -2.0069    0.8666 N   0  0  0  0  0  0  0  0  0  0  0  0
    2.3800   -0.8585    0.8196 C   0  0  0  0  0  0  0  0  0  0  0  0
    2.6615    0.5344    0.8405 C   0  0  0  0  0  0  0  0  0  0  0  0
    2.1121    1.4358    0.0036 C   0  0  0  0  0  0  0  0  0  0  0  0
    1.1723    1.1267   -1.0207 C   0  0  0  0  0  0  0  0  0  0  0  0
    0.5784    1.9958   -1.9299 C   0  0  0  0  0  0  0  0  0  0  0  0
   -0.2874    1.2430   -2.7575 C   0  0  0  0  0  0  0  0  0  0  0  0
   -0.1890   -0.0571   -2.3233 C   0  0  0  0  0  0  0  0  0  0  0  0
   -0.8304   -1.3253   -2.7450 C   0  0  0  0  0  0  0  0  0  0  0  0
   -2.0623   -1.4822   -2.0159 N   0  0  0  0  0  0  0  0  0  0  0  0
   -3.2535   -0.9736   -2.4710 C   0  0  0  0  0  0  0  0  0  0  0  0
   -3.4541   -0.4610   -3.5640 O   0  0  0  0  0  0  0  0  0  0  0  0
   -4.4116   -1.0762   -1.4550 C   0  0  0  0  0  0  0  0  0  0  0  0
   -4.1933   -1.5548   -0.3521 O   0  0  0  0  0  0  0  0  0  0  0  0
   -5.5898   -0.5795   -1.9720 N   0  0  0  0  0  0  0  0  0  0  0  0
   -6.8468   -0.5109   -1.3472 C   0  0  0  0  0  0  0  0  0  0  0  0
   -7.8960    0.0541   -2.0818 C   0  0  0  0  0  0  0  0  0  0  0  0
   -9.1716    0.1547   -1.5238 C   0  0  0  0  0  0  0  0  0  0  0  0
  -10.4484    0.8551   -2.4412 Cl  0  0  0  0  0  0  0  0  0  0  0  0
   -9.4208   -0.3045   -0.2370 C   0  0  0  0  0  0  0  0  0  0  0  0
   -8.3776   -0.8669    0.4922 C   0  0  0  0  0  0  0  0  0  0  0  0
   -8.6736   -1.4362    2.0897 Cl  0  0  0  0  0  0  0  0  0  0  0  0
   -7.0959   -0.9742   -0.0540 C   0  0  0  0  0  0  0  0  0  0  0  0
    0.6818   -0.1307   -1.2823 O   0  0  0  0  0  0  0  0  0  0  0  0
    3.6342    1.0737    1.8496 C   0  0  0  0  0  0  0  0  0  0  0  0
    3.8880    2.2743    1.9149 O   0  0  0  0  0  0  0  0  0  0  0  0
    4.2270    0.1528    2.6832 N   0  0  0  0  0  0  0  0  0  0  0  0
    5.2430    0.5342    3.6422 C   0  0  0  0  0  0  0  0  0  0  0  0
    6.6198    0.3042    3.0942 C   0  0  0  0  0  0  0  0  0  0  0  0
    7.2155    1.2121    2.2142 C   0  0  0  0  0  0  0  0  0  0  0  0
    8.4892    0.9582    1.7153 C   0  0  0  0  0  0  0  0  0  0  0  0
    9.1277   -0.2041    2.1111 C   0  0  0  0  0  0  0  0  0  0  0  0
    8.5840   -1.1091    2.9524 N   0  0  0  0  0  0  0  0  0  0  0  0
    7.3461   -0.8357    3.4217 C   0  0  0  0  0  0  0  0  0  0  0  0
    2.3884    2.4854    0.0901 H   0  0  0  0  0  0  0  0  0  0  0  0
    0.7540    3.0620   -1.9843 H   0  0  0  0  0  0  0  0  0  0  0  0
   -0.9117    1.5999   -3.5655 H   0  0  0  0  0  0  0  0  0  0  0  0
   -0.1936   -2.1846   -2.5122 H   0  0  0  0  0  0  0  0  0  0  0  0
   -1.0292   -1.3192   -3.8219 H   0  0  0  0  0  0  0  0  0  0  0  0
   -2.0253   -1.7619   -1.0390 H   0  0  0  0  0  0  0  0  0  0  0  0
   -5.5060   -0.2230   -2.9230 H   0  0  0  0  0  0  0  0  0  0  0  0
   -7.7289    0.4239   -3.0902 H   0  0  0  0  0  0  0  0  0  0  0  0
  -10.4142   -0.2248    0.1946 H   0  0  0  0  0  0  0  0  0  0  0  0
   -6.3127   -1.4219    0.5495 H   0  0  0  0  0  0  0  0  0  0  0  0
    4.0751   -0.8410    2.5603 H   0  0  0  0  0  0  0  0  0  0  0  0
    5.0813   -0.0723    4.5407 H   0  0  0  0  0  0  0  0  0  0  0  0
    5.1225    1.5833    3.9372 H   0  0  0  0  0  0  0  0  0  0  0  0
    6.6900    2.1171    1.9166 H   0  0  0  0  0  0  0  0  0  0  0  0
    8.9710    1.6521    1.0363 H   0  0  0  0  0  0  0  0  0  0  0  0
   10.1242   -0.4444    1.7509 H   0  0  0  0  0  0  0  0  0  0  0  0
    6.9443   -1.5920    4.0906 H   0  0  0  0  0  0  0  0  0  0  0  0
  1  2  3  0
  2  3  1  0
  3  4  2  3
  4  5  1  0
  5  6  2  0
  6  7  1  0
  7  8  2  0
  8  9  1  0
  9 10  1  0
 10 11  1  0
 11 12  2  0
 11 13  1  0
 13 14  2  0
 13 15  1  0
 15 16  1  0
 16 17  2  0
 17 18  1  0
 18 19  1  0
 18 20  2  0
 20 21  1  0
 21 22  1  0
 21 23  2  0
  8 24  1  0
  3 25  1  0
 25 26  2  0
 25 27  1  0
 27 28  1  0
 28 29  1  0
 29 30  2  0
 30 31  1  0
 31 32  2  0
 32 33  1  0
 33 34  2  0
 24  5  1  0
 34 29  1  0
 23 16  1  0
  4 35  1  0
  6 36  1  0
  7 37  1  0
  9 38  1  0
  9 39  1  0
 10 40  1  0
 15 41  1  0
 17 42  1  0
 20 43  1  0
 23 44  1  0
 27 45  1  0
 28 46  1  0
 28 47  1  0
 30 48  1  0
 31 49  1  0
 32 50  1  0
 34 51  1  0
M  END
$$$$
