
     RDKit          3D

 51 54  0  0  0  0  0  0  0  0999 V2000
   -3.8634   -4.1866    2.5531 C   0  0  0  0  0  0  0  0  0  0  0  0
   -2.4517   -4.2116    2.3804 O   0  0  0  0  0  0  0  0  0  0  0  0
   -1.9069   -3.2818    1.5379 C   0  0  0  0  0  0  0  0  0  0  0  0
   -2.5966   -2.2259    0.9499 C   0  0  0  0  0  0  0  0  0  0  0  0
   -1.9273   -1.3299    0.0935 C   0  0  0  0  0  0  0  0  0  0  0  0
   -2.6828   -0.2152   -0.5000 C   0  0  0  0  0  0  0  0  0  0  0  0
   -3.8983   -0.1589   -0.3231 O   0  0  0  0  0  0  0  0  0  0  0  0
   -1.9595    0.6995   -1.2479 N   0  0  0  0  0  0  0  0  0  0  0  0
   -2.6621    1.8815   -1.7280 C   0  0  0  0  0  0  0  0  0  0  0  0
   -2.4301    3.0106   -0.7812 C   0  0  0  0  0  0  0  0  0  0  0  0
   -1.4074    3.9267   -0.6276 C   0  0  0  0  0  0  0  0  0  0  0  0
   -1.7661    4.7486    0.4682 C   0  0  0  0  0  0  0  0  0  0  0  0
   -2.9834    4.2859    0.9100 C   0  0  0  0  0  0  0  0  0  0  0  0
   -3.3957    3.2337    0.1566 O   0  0  0  0  0  0  0  0  0  0  0  0
   -0.6274    0.5569   -1.5963 C   0  0  0  0  0  0  0  0  0  0  0  0
   -0.0527    1.3697   -2.3272 O   0  0  0  0  0  0  0  0  0  0  0  0
    0.0459   -0.5519   -1.0962 N   0  0  0  0  0  0  0  0  0  0  0  0
    1.4611   -0.6724   -1.4575 C   0  0  0  0  0  0  0  0  0  0  0  0
    2.3408    0.0693   -0.4513 C   0  0  0  0  0  0  0  0  0  0  0  0
    2.2311   -0.1087    0.7630 O   0  0  0  0  0  0  0  0  0  0  0  0
    3.4053    0.9955   -0.9344 C   0  0  0  0  0  0  0  0  0  0  0  0
    3.3165    1.6909   -2.1460 C   0  0  0  0  0  0  0  0  0  0  0  0
    4.3420    2.5578   -2.5357 C   0  0  0  0  0  0  0  0  0  0  0  0
    5.4557    2.7401   -1.7172 C   0  0  0  0  0  0  0  0  0  0  0  0
    5.5399    2.0589   -0.5052 C   0  0  0  0  0  0  0  0  0  0  0  0
    7.0428    2.3169    0.6127 Br  0  0  0  0  0  0  0  0  0  0  0  0
    4.5223    1.1927   -0.1080 C   0  0  0  0  0  0  0  0  0  0  0  0
   -0.5716   -1.4713   -0.2035 C   0  0  0  0  0  0  0  0  0  0  0  0
    0.1191   -2.5288    0.4003 C   0  0  0  0  0  0  0  0  0  0  0  0
   -0.5390   -3.4055    1.2711 C   0  0  0  0  0  0  0  0  0  0  0  0
    0.1886   -4.4388    1.8098 O   0  0  0  0  0  0  0  0  0  0  0  0
    0.7239   -4.0447    3.0762 C   0  0  0  0  0  0  0  0  0  0  0  0
   -4.3831   -4.3058    1.5960 H   0  0  0  0  0  0  0  0  0  0  0  0
   -4.1371   -5.0347    3.1878 H   0  0  0  0  0  0  0  0  0  0  0  0
   -4.1801   -3.2721    3.0654 H   0  0  0  0  0  0  0  0  0  0  0  0
   -3.6536   -2.0663    1.1435 H   0  0  0  0  0  0  0  0  0  0  0  0
   -2.2991    2.1555   -2.7259 H   0  0  0  0  0  0  0  0  0  0  0  0
   -3.7363    1.6849   -1.8231 H   0  0  0  0  0  0  0  0  0  0  0  0
   -0.5102    3.9838   -1.2297 H   0  0  0  0  0  0  0  0  0  0  0  0
   -1.2067    5.5741    0.8869 H   0  0  0  0  0  0  0  0  0  0  0  0
   -3.6529    4.5787    1.7071 H   0  0  0  0  0  0  0  0  0  0  0  0
    1.7742   -1.7199   -1.5009 H   0  0  0  0  0  0  0  0  0  0  0  0
    1.6053   -0.3018   -2.4744 H   0  0  0  0  0  0  0  0  0  0  0  0
    2.4479    1.6100   -2.7946 H   0  0  0  0  0  0  0  0  0  0  0  0
    4.2638    3.1025   -3.4746 H   0  0  0  0  0  0  0  0  0  0  0  0
    6.2456    3.4212   -2.0267 H   0  0  0  0  0  0  0  0  0  0  0  0
    4.5924    0.6729    0.8456 H   0  0  0  0  0  0  0  0  0  0  0  0
    1.1790   -2.6966    0.2442 H   0  0  0  0  0  0  0  0  0  0  0  0
    1.5767   -3.3710    2.9279 H   0  0  0  0  0  0  0  0  0  0  0  0
   -0.0227   -3.5706    3.7211 H   0  0  0  0  0  0  0  0  0  0  0  0
    1.0836   -4.9478    3.5808 H   0  0  0  0  0  0  0  0  0  0  0  0
  1  2  1  0
  2  3  1  0
  3  4  2  0
  4  5  1  0
  5  6  1  0
  6  7  2  0
  6  8  1  0
  8  9  1  0
  9 10  1  0
 10 11  2  0
 11 12  1  0
 12 13  2  0
 13 14  1  0
  8 15  1  0
 15 16  2  0
 15 17  1  0
 17 18  1  0
 18 19  1  0
 19 20  2  0
 19 21  1  0
 21 22  2  0
 22 23  1  0
 23 24  2  0
 24 25  1  0
 25 26  1  0
 25 27  2  0
 17 28  1  0
 28 29  1  0
 29 30  2  0
 30 31  1  0
 31 32  1  0
 30  3  1  0
 28  5  2  0
 14 10  1  0
 27 21  1  0
  1 33  1  0
  1 34  1  0
  1 35  1  0
  4 36  1  0
  9 37  1  0
  9 38  1  0
 11 39  1  0
 12 40  1  0
 13 41  1  0
 18 42  1  0
 18 43  1  0
 22 44  1  0
 23 45  1  0
 24 46  1  0
 27 47  1  0
 29 48  1  0
 32 49  1  0
 32 50  1  0
 32 51  1  0
M  END
$$$$
