
     RDKit          3D

 51 54  0  0  0  0  0  0  0  0999 V2000
   -7.0754   -0.3901   -0.9219 C   0  0  0  0  0  0  0  0  0  0  0  0
   -6.7311   -0.0653    0.5282 C   0  0  0  0  0  0  0  0  0  0  0  0
   -5.6689    0.9581    0.6324 N   0  0  0  0  0  0  0  0  0  0  0  0
   -6.0766    2.3361    0.3095 C   0  0  0  0  0  0  0  0  0  0  0  0
   -5.3217    3.3502    1.1572 C   0  0  0  0  0  0  0  0  0  0  0  0
   -4.3758    0.5174    0.3269 C   0  0  0  0  0  0  0  0  0  0  0  0
   -3.8034   -0.5343    1.0684 C   0  0  0  0  0  0  0  0  0  0  0  0
   -2.5025   -0.9971    0.8229 C   0  0  0  0  0  0  0  0  0  0  0  0
   -1.7379   -0.4162   -0.1849 C   0  0  0  0  0  0  0  0  0  0  0  0
   -0.3781   -0.8360   -0.4765 C   0  0  0  0  0  0  0  0  0  0  0  0
    0.3062   -0.2744   -1.4857 C   0  0  0  0  0  0  0  0  0  0  0  0
    1.6441   -0.7039   -1.7225 C   0  0  0  0  0  0  0  0  0  0  0  0
    2.6194   -0.7167   -0.8306 N   0  0  0  0  0  0  0  0  0  0  0  0
    3.8000   -1.1887   -1.3858 C   0  0  0  0  0  0  0  0  0  0  0  0
    5.0453   -1.1858   -0.6243 C   0  0  0  0  0  0  0  0  0  0  0  0
    5.2087   -0.2666    0.4191 C   0  0  0  0  0  0  0  0  0  0  0  0
    6.4023   -0.2056    1.1551 C   0  0  0  0  0  0  0  0  0  0  0  0
    7.4518   -1.0691    0.8535 C   0  0  0  0  0  0  0  0  0  0  0  0
    8.6704   -1.1051    1.4743 O   0  0  0  0  0  0  0  0  0  0  0  0
    8.8935   -0.1555    2.5113 C   0  0  0  0  0  0  0  0  0  0  0  0
    7.2888   -2.0011   -0.1744 C   0  0  0  0  0  0  0  0  0  0  0  0
    6.0968   -2.0635   -0.9068 C   0  0  0  0  0  0  0  0  0  0  0  0
    3.6890   -1.6093   -2.6941 C   0  0  0  0  0  0  0  0  0  0  0  0
    2.0897   -1.3760   -3.2534 S   0  0  0  0  0  0  0  0  0  0  0  0
   -0.2866    0.8051   -2.3152 C   0  0  0  0  0  0  0  0  0  0  0  0
    0.3051    1.3308   -3.2526 O   0  0  0  0  0  0  0  0  0  0  0  0
   -1.5749    1.2155   -1.9752 O   0  0  0  0  0  0  0  0  0  0  0  0
   -2.2975    0.6113   -0.9275 C   0  0  0  0  0  0  0  0  0  0  0  0
   -3.5881    1.0858   -0.6815 C   0  0  0  0  0  0  0  0  0  0  0  0
   -7.8816   -1.1258   -0.9632 H   0  0  0  0  0  0  0  0  0  0  0  0
   -6.2137   -0.8053   -1.4551 H   0  0  0  0  0  0  0  0  0  0  0  0
   -7.4062    0.5023   -1.4611 H   0  0  0  0  0  0  0  0  0  0  0  0
   -7.6320    0.3029    1.0357 H   0  0  0  0  0  0  0  0  0  0  0  0
   -6.4578   -0.9876    1.0576 H   0  0  0  0  0  0  0  0  0  0  0  0
   -7.1438    2.4596    0.5371 H   0  0  0  0  0  0  0  0  0  0  0  0
   -5.9723    2.5507   -0.7594 H   0  0  0  0  0  0  0  0  0  0  0  0
   -5.4566    3.1406    2.2218 H   0  0  0  0  0  0  0  0  0  0  0  0
   -5.6933    4.3607    0.9595 H   0  0  0  0  0  0  0  0  0  0  0  0
   -4.2483    3.3412    0.9487 H   0  0  0  0  0  0  0  0  0  0  0  0
   -4.3640   -0.9827    1.8876 H   0  0  0  0  0  0  0  0  0  0  0  0
   -2.1043   -1.7997    1.4355 H   0  0  0  0  0  0  0  0  0  0  0  0
    0.0646   -1.6074    0.1475 H   0  0  0  0  0  0  0  0  0  0  0  0
    4.4042    0.4227    0.6636 H   0  0  0  0  0  0  0  0  0  0  0  0
    6.4747    0.5316    1.9480 H   0  0  0  0  0  0  0  0  0  0  0  0
    9.9282   -0.2694    2.8512 H   0  0  0  0  0  0  0  0  0  0  0  0
    8.7786    0.8703    2.1441 H   0  0  0  0  0  0  0  0  0  0  0  0
    8.2347   -0.3496    3.3643 H   0  0  0  0  0  0  0  0  0  0  0  0
    8.0995   -2.6853   -0.4097 H   0  0  0  0  0  0  0  0  0  0  0  0
    6.0091   -2.8121   -1.6866 H   0  0  0  0  0  0  0  0  0  0  0  0
    4.4499   -2.0016   -3.3541 H   0  0  0  0  0  0  0  0  0  0  0  0
   -3.9623    1.8939   -1.3037 H   0  0  0  0  0  0  0  0  0  0  0  0
  1  2  1  0
  2  3  1  0
  3  4  1  0
  4  5  1  0
  3  6  1  0
  6  7  2  0
  7  8  1  0
  8  9  2  0
  9 10  1  0
 10 11  2  0
 11 12  1  0
 12 13  2  0
 13 14  1  0
 14 15  1  0
 15 16  2  0
 16 17  1  0
 17 18  2  0
 18 19  1  0
 19 20  1  0
 18 21  1  0
 21 22  2  0
 14 23  2  0
 23 24  1  0
 11 25  1  0
 25 26  2  0
 25 27  1  0
 27 28  1  0
 28 29  2  0
 29  6  1  0
 28  9  1  0
 24 12  1  0
 22 15  1  0
  1 30  1  0
  1 31  1  0
  1 32  1  0
  2 33  1  0
  2 34  1  0
  4 35  1  0
  4 36  1  0
  5 37  1  0
  5 38  1  0
  5 39  1  0
  7 40  1  0
  8 41  1  0
 10 42  1  0
 16 43  1  0
 17 44  1  0
 20 45  1  0
 20 46  1  0
 20 47  1  0
 21 48  1  0
 22 49  1  0
 23 50  1  0
 29 51  1  0
M  END
$$$$
