
     RDKit          3D

 52 53  0  0  0  0  0  0  0  0999 V2000
    5.3109   -2.1756   -2.9507 C   0  0  0  0  0  0  0  0  0  0  0  0
    4.1244   -2.2693   -2.0027 C   0  0  0  0  0  0  0  0  0  0  0  0
    3.5708   -0.8816   -1.6688 C   0  0  0  0  0  0  0  0  0  0  0  0
    2.3763   -0.9213   -0.8266 N   0  0  0  0  0  0  0  0  0  0  0  0
    2.6753   -1.1934    0.5847 C   0  0  0  0  0  0  0  0  0  0  0  0
    1.4121   -1.2956    1.4675 C   0  0  0  0  0  0  0  0  0  0  0  0
    0.5075   -2.2475    0.8878 O   0  0  0  0  0  0  0  0  0  0  0  0
    0.6956    0.0420    1.7174 C   0  0  0  0  0  0  0  0  0  0  0  0
    0.0153    0.4726    0.5256 O   0  0  0  0  0  0  0  0  0  0  0  0
    0.0318    1.8365    0.4226 C   0  0  0  0  0  0  0  0  0  0  0  0
    1.0415    2.4204   -0.3446 C   0  0  0  0  0  0  0  0  0  0  0  0
    1.0765    3.8050   -0.5211 C   0  0  0  0  0  0  0  0  0  0  0  0
    0.0933    4.6099    0.0556 C   0  0  0  0  0  0  0  0  0  0  0  0
   -0.9334    4.0297    0.8017 C   0  0  0  0  0  0  0  0  0  0  0  0
   -0.9657    2.6406    0.9760 C   0  0  0  0  0  0  0  0  0  0  0  0
   -2.0815    2.0579    1.7417 C   0  0  0  0  0  0  0  0  0  0  0  0
   -1.8808    1.6505    2.8817 O   0  0  0  0  0  0  0  0  0  0  0  0
   -3.4461    2.1042    1.0839 C   0  0  0  0  0  0  0  0  0  0  0  0
   -4.3275    0.9242    1.4836 C   0  0  0  0  0  0  0  0  0  0  0  0
   -3.9128   -0.3671    0.8211 C   0  0  0  0  0  0  0  0  0  0  0  0
   -3.1410   -1.3049    1.5179 C   0  0  0  0  0  0  0  0  0  0  0  0
   -2.7562   -2.4981    0.9058 C   0  0  0  0  0  0  0  0  0  0  0  0
   -3.1284   -2.7608   -0.4108 C   0  0  0  0  0  0  0  0  0  0  0  0
   -3.8902   -1.8314   -1.1160 C   0  0  0  0  0  0  0  0  0  0  0  0
   -4.2814   -0.6397   -0.5035 C   0  0  0  0  0  0  0  0  0  0  0  0
    6.1236   -1.5929   -2.5054 H   0  0  0  0  0  0  0  0  0  0  0  0
    5.6944   -3.1754   -3.1775 H   0  0  0  0  0  0  0  0  0  0  0  0
    5.0232   -1.7006   -3.8940 H   0  0  0  0  0  0  0  0  0  0  0  0
    3.3438   -2.8829   -2.4683 H   0  0  0  0  0  0  0  0  0  0  0  0
    4.4455   -2.7876   -1.0928 H   0  0  0  0  0  0  0  0  0  0  0  0
    3.2907   -0.3829   -2.6044 H   0  0  0  0  0  0  0  0  0  0  0  0
    4.3444   -0.2541   -1.2097 H   0  0  0  0  0  0  0  0  0  0  0  0
    1.7365   -1.6442   -1.1618 H   0  0  0  0  0  0  0  0  0  0  0  0
    3.1979   -2.1539    0.6585 H   0  0  0  0  0  0  0  0  0  0  0  0
    3.3374   -0.4191    0.9891 H   0  0  0  0  0  0  0  0  0  0  0  0
    1.7209   -1.7005    2.4384 H   0  0  0  0  0  0  0  0  0  0  0  0
   -0.0571   -1.7235    0.2827 H   0  0  0  0  0  0  0  0  0  0  0  0
    1.4114    0.7851    2.0932 H   0  0  0  0  0  0  0  0  0  0  0  0
   -0.0709   -0.1206    2.4826 H   0  0  0  0  0  0  0  0  0  0  0  0
    1.7995    1.7949   -0.8094 H   0  0  0  0  0  0  0  0  0  0  0  0
    1.8702    4.2539   -1.1135 H   0  0  0  0  0  0  0  0  0  0  0  0
    0.1253    5.6881   -0.0817 H   0  0  0  0  0  0  0  0  0  0  0  0
   -1.6973    4.6614    1.2477 H   0  0  0  0  0  0  0  0  0  0  0  0
   -3.9233    3.0361    1.4097 H   0  0  0  0  0  0  0  0  0  0  0  0
   -3.3330    2.1509   -0.0055 H   0  0  0  0  0  0  0  0  0  0  0  0
   -5.3653    1.1385    1.1971 H   0  0  0  0  0  0  0  0  0  0  0  0
   -4.3419    0.7970    2.5732 H   0  0  0  0  0  0  0  0  0  0  0  0
   -2.8290   -1.1078    2.5421 H   0  0  0  0  0  0  0  0  0  0  0  0
   -2.1527   -3.2173    1.4548 H   0  0  0  0  0  0  0  0  0  0  0  0
   -2.8220   -3.6889   -0.8856 H   0  0  0  0  0  0  0  0  0  0  0  0
   -4.1808   -2.0353   -2.1430 H   0  0  0  0  0  0  0  0  0  0  0  0
   -4.8780    0.0745   -1.0660 H   0  0  0  0  0  0  0  0  0  0  0  0
  1  2  1  0
  2  3  1  0
  3  4  1  0
  4  5  1  0
  5  6  1  0
  6  7  1  0
  6  8  1  0
  8  9  1  0
  9 10  1  0
 10 11  2  0
 11 12  1  0
 12 13  2  0
 13 14  1  0
 14 15  2  0
 15 16  1  0
 16 17  2  0
 16 18  1  0
 18 19  1  0
 19 20  1  0
 20 21  2  0
 21 22  1  0
 22 23  2  0
 23 24  1  0
 24 25  2  0
 15 10  1  0
 25 20  1  0
  1 26  1  0
  1 27  1  0
  1 28  1  0
  2 29  1  0
  2 30  1  0
  3 31  1  0
  3 32  1  0
  4 33  1  0
  5 34  1  0
  5 35  1  0
  6 36  1  0
  7 37  1  0
  8 38  1  0
  8 39  1  0
 11 40  1  0
 12 41  1  0
 13 42  1  0
 14 43  1  0
 18 44  1  0
 18 45  1  0
 19 46  1  0
 19 47  1  0
 21 48  1  0
 22 49  1  0
 23 50  1  0
 24 51  1  0
 25 52  1  0
M  END
$$$$
