
     RDKit          3D

 55 58  0  0  0  0  0  0  0  0999 V2000
    8.6245   -1.2895    1.3549 C   0  0  0  0  0  0  0  0  0  0  0  0
    7.9627   -0.0656    1.0688 O   0  0  0  0  0  0  0  0  0  0  0  0
    6.6309   -0.1217    0.7415 C   0  0  0  0  0  0  0  0  0  0  0  0
    5.8875   -1.3028    0.6575 C   0  0  0  0  0  0  0  0  0  0  0  0
    4.5350   -1.2606    0.3114 C   0  0  0  0  0  0  0  0  0  0  0  0
    3.9144   -0.0383    0.0360 C   0  0  0  0  0  0  0  0  0  0  0  0
    2.4693   -0.0456   -0.3314 C   0  0  0  0  0  0  0  0  0  0  0  0
    2.0218    0.9674   -1.3409 C   0  0  0  0  0  0  0  0  0  0  0  0
    0.7136    0.9546   -1.6639 C   0  0  0  0  0  0  0  0  0  0  0  0
    0.0966    1.8753   -2.6448 C   0  0  0  0  0  0  0  0  0  0  0  0
   -0.4297    1.2306   -3.7154 F   0  0  0  0  0  0  0  0  0  0  0  0
   -0.8814    2.6442   -2.1039 F   0  0  0  0  0  0  0  0  0  0  0  0
    1.0153    2.7475   -3.1506 F   0  0  0  0  0  0  0  0  0  0  0  0
   -0.1327    0.0268   -1.0687 N   0  0  0  0  0  0  0  0  0  0  0  0
   -1.4617   -0.1407   -1.2608 N   0  0  0  0  0  0  0  0  0  0  0  0
   -1.8274   -1.1591   -0.4631 C   0  0  0  0  0  0  0  0  0  0  0  0
   -3.2000   -1.7132   -0.3529 C   0  0  0  0  0  0  0  0  0  0  0  0
   -3.3616   -2.7830    0.2406 O   0  0  0  0  0  0  0  0  0  0  0  0
   -4.2914   -1.0319   -0.9118 N   0  0  0  0  0  0  0  0  0  0  0  0
   -4.2171    0.2973   -1.5014 C   0  0  0  0  0  0  0  0  0  0  0  0
   -5.6166   -1.6315   -0.7933 C   0  0  0  0  0  0  0  0  0  0  0  0
   -6.4331   -1.0214    0.3239 C   0  0  0  0  0  0  0  0  0  0  0  0
   -7.4932   -0.1468    0.0429 C   0  0  0  0  0  0  0  0  0  0  0  0
   -8.2383    0.4207    1.0783 C   0  0  0  0  0  0  0  0  0  0  0  0
   -7.9328    0.1205    2.4043 C   0  0  0  0  0  0  0  0  0  0  0  0
   -6.8827   -0.7475    2.6969 C   0  0  0  0  0  0  0  0  0  0  0  0
   -6.1368   -1.3154    1.6630 C   0  0  0  0  0  0  0  0  0  0  0  0
   -0.7015   -1.6629    0.2379 C   0  0  0  0  0  0  0  0  0  0  0  0
    0.3675   -0.8952   -0.1499 C   0  0  0  0  0  0  0  0  0  0  0  0
    1.6823   -0.9302    0.2127 N   0  0  0  0  0  0  0  0  0  0  0  0
    4.6466    1.1514    0.1389 C   0  0  0  0  0  0  0  0  0  0  0  0
    6.0037    1.1161    0.4847 C   0  0  0  0  0  0  0  0  0  0  0  0
    6.8024    2.2276    0.6011 O   0  0  0  0  0  0  0  0  0  0  0  0
    6.2112    3.5013    0.3892 C   0  0  0  0  0  0  0  0  0  0  0  0
    8.6280   -1.9497    0.4812 H   0  0  0  0  0  0  0  0  0  0  0  0
    9.6654   -1.0573    1.5996 H   0  0  0  0  0  0  0  0  0  0  0  0
    8.1816   -1.7847    2.2250 H   0  0  0  0  0  0  0  0  0  0  0  0
    6.3282   -2.2737    0.8574 H   0  0  0  0  0  0  0  0  0  0  0  0
    3.9700   -2.1898    0.2557 H   0  0  0  0  0  0  0  0  0  0  0  0
    2.7317    1.6437   -1.7990 H   0  0  0  0  0  0  0  0  0  0  0  0
   -5.2171    0.6858   -1.7148 H   0  0  0  0  0  0  0  0  0  0  0  0
   -3.6714    0.2398   -2.4472 H   0  0  0  0  0  0  0  0  0  0  0  0
   -3.7226    0.9839   -0.8086 H   0  0  0  0  0  0  0  0  0  0  0  0
   -6.1271   -1.5135   -1.7576 H   0  0  0  0  0  0  0  0  0  0  0  0
   -5.5448   -2.7131   -0.6267 H   0  0  0  0  0  0  0  0  0  0  0  0
   -7.7453    0.1005   -0.9859 H   0  0  0  0  0  0  0  0  0  0  0  0
   -9.0577    1.0975    0.8504 H   0  0  0  0  0  0  0  0  0  0  0  0
   -8.5126    0.5625    3.2099 H   0  0  0  0  0  0  0  0  0  0  0  0
   -6.6430   -0.9839    3.7302 H   0  0  0  0  0  0  0  0  0  0  0  0
   -5.3204   -1.9930    1.9062 H   0  0  0  0  0  0  0  0  0  0  0  0
   -0.6824   -2.4847    0.9401 H   0  0  0  0  0  0  0  0  0  0  0  0
    4.1480    2.0989   -0.0253 H   0  0  0  0  0  0  0  0  0  0  0  0
    5.4186    3.6952    1.1192 H   0  0  0  0  0  0  0  0  0  0  0  0
    6.9874    4.2589    0.5331 H   0  0  0  0  0  0  0  0  0  0  0  0
    5.8384    3.5981   -0.6356 H   0  0  0  0  0  0  0  0  0  0  0  0
  1  2  1  0
  2  3  1  0
  3  4  2  0
  4  5  1  0
  5  6  2  0
  6  7  1  0
  7  8  1  0
  8  9  2  0
  9 10  1  0
 10 11  1  0
 10 12  1  0
 10 13  1  0
  9 14  1  0
 14 15  1  0
 15 16  2  0
 16 17  1  0
 17 18  2  0
 17 19  1  0
 19 20  1  0
 19 21  1  0
 21 22  1  0
 22 23  2  0
 23 24  1  0
 24 25  2  0
 25 26  1  0
 26 27  2  0
 16 28  1  0
 28 29  2  0
 29 30  1  0
  6 31  1  0
 31 32  2  0
 32 33  1  0
 33 34  1  0
 32  3  1  0
 30  7  2  0
 29 14  1  0
 27 22  1  0
  1 35  1  0
  1 36  1  0
  1 37  1  0
  4 38  1  0
  5 39  1  0
  8 40  1  0
 20 41  1  0
 20 42  1  0
 20 43  1  0
 21 44  1  0
 21 45  1  0
 23 46  1  0
 24 47  1  0
 25 48  1  0
 26 49  1  0
 27 50  1  0
 28 51  1  0
 31 52  1  0
 34 53  1  0
 34 54  1  0
 34 55  1  0
M  END
$$$$
