
     RDKit          3D

 47 48  0  0  0  0  0  0  0  0999 V2000
    1.9986    1.1066    4.7441 C   0  0  0  0  0  0  0  0  0  0  0  0
    1.3636    2.2588    3.9890 C   0  0  0  0  0  0  0  0  0  0  0  0
    1.2417    1.9253    2.5971 O   0  0  0  0  0  0  0  0  0  0  0  0
    2.3186    2.2063    1.8156 C   0  0  0  0  0  0  0  0  0  0  0  0
    3.3527    2.7197    2.2178 O   0  0  0  0  0  0  0  0  0  0  0  0
    2.0966    1.8132    0.3923 C   0  0  0  0  0  0  0  0  0  0  0  0
    3.1486    2.1584   -0.5001 C   0  0  0  0  0  0  0  0  0  0  0  0
    3.9879    2.4381   -1.2525 N   0  0  0  0  0  0  0  0  0  0  0  0
    0.9861    1.1353    0.0288 C   0  0  0  0  0  0  0  0  0  0  0  0
    0.5362    0.6240   -1.2750 C   0  0  0  0  0  0  0  0  0  0  0  0
   -0.4014   -0.3596   -1.3708 C   0  0  0  0  0  0  0  0  0  0  0  0
   -0.9860   -0.9833   -0.2535 N   0  0  0  0  0  0  0  0  0  0  0  0
   -2.2063   -0.4633    0.3967 C   0  0  0  0  0  0  0  0  0  0  0  0
   -2.8326   -1.5481    1.2847 C   0  0  0  0  0  0  0  0  0  0  0  0
   -1.9691   -1.9908    2.3431 O   0  0  0  0  0  0  0  0  0  0  0  0
   -0.5737   -1.9011    2.0171 C   0  0  0  0  0  0  0  0  0  0  0  0
   -0.2743   -2.0289    0.5157 C   0  0  0  0  0  0  0  0  0  0  0  0
   -0.8399   -0.9130   -2.7654 C   0  0  0  0  0  0  0  0  0  0  0  0
   -2.3186   -0.6159   -3.0615 C   0  0  0  0  0  0  0  0  0  0  0  0
   -0.6157   -2.4317   -2.8499 C   0  0  0  0  0  0  0  0  0  0  0  0
   -0.0537   -0.3825   -3.8522 O   0  0  0  0  0  0  0  0  0  0  0  0
    0.2003    1.0085   -3.7376 C   0  0  0  0  0  0  0  0  0  0  0  0
    1.0937    1.2511   -2.5333 C   0  0  0  0  0  0  0  0  0  0  0  0
    1.4254    0.1859    4.5930 H   0  0  0  0  0  0  0  0  0  0  0  0
    3.0134    0.9125    4.3828 H   0  0  0  0  0  0  0  0  0  0  0  0
    2.0442    1.3227    5.8152 H   0  0  0  0  0  0  0  0  0  0  0  0
    0.3502    2.4322    4.3655 H   0  0  0  0  0  0  0  0  0  0  0  0
    1.9236    3.1902    4.1299 H   0  0  0  0  0  0  0  0  0  0  0  0
    0.2844    0.8886    0.8220 H   0  0  0  0  0  0  0  0  0  0  0  0
   -2.9355   -0.1395   -0.3517 H   0  0  0  0  0  0  0  0  0  0  0  0
   -1.9463    0.4066    1.0100 H   0  0  0  0  0  0  0  0  0  0  0  0
   -3.7512   -1.1733    1.7473 H   0  0  0  0  0  0  0  0  0  0  0  0
   -3.1015   -2.4256    0.6849 H   0  0  0  0  0  0  0  0  0  0  0  0
   -0.0563   -2.6902    2.5720 H   0  0  0  0  0  0  0  0  0  0  0  0
   -0.2074   -0.9421    2.4006 H   0  0  0  0  0  0  0  0  0  0  0  0
   -0.6145   -3.0078    0.1599 H   0  0  0  0  0  0  0  0  0  0  0  0
    0.8073   -1.9674    0.3507 H   0  0  0  0  0  0  0  0  0  0  0  0
   -2.9891   -1.2062   -2.4285 H   0  0  0  0  0  0  0  0  0  0  0  0
   -2.5575   -0.8400   -4.1078 H   0  0  0  0  0  0  0  0  0  0  0  0
   -2.5560    0.4422   -2.9065 H   0  0  0  0  0  0  0  0  0  0  0  0
    0.4273   -2.6851   -2.6257 H   0  0  0  0  0  0  0  0  0  0  0  0
   -0.8101   -2.7976   -3.8654 H   0  0  0  0  0  0  0  0  0  0  0  0
   -1.2632   -2.9877   -2.1645 H   0  0  0  0  0  0  0  0  0  0  0  0
    0.7129    1.3330   -4.6491 H   0  0  0  0  0  0  0  0  0  0  0  0
   -0.7363    1.5737   -3.6753 H   0  0  0  0  0  0  0  0  0  0  0  0
    1.2038    2.3351   -2.4192 H   0  0  0  0  0  0  0  0  0  0  0  0
    2.0794    0.8128   -2.7305 H   0  0  0  0  0  0  0  0  0  0  0  0
  1  2  1  0
  2  3  1  0
  3  4  1  0
  4  5  2  0
  4  6  1  0
  6  7  1  0
  7  8  3  0
  6  9  2  3
  9 10  1  0
 10 11  2  0
 11 12  1  0
 12 13  1  0
 13 14  1  0
 14 15  1  0
 15 16  1  0
 16 17  1  0
 11 18  1  0
 18 19  1  0
 18 20  1  0
 18 21  1  0
 21 22  1  0
 22 23  1  0
 23 10  1  0
 17 12  1  0
  1 24  1  0
  1 25  1  0
  1 26  1  0
  2 27  1  0
  2 28  1  0
  9 29  1  0
 13 30  1  0
 13 31  1  0
 14 32  1  0
 14 33  1  0
 16 34  1  0
 16 35  1  0
 17 36  1  0
 17 37  1  0
 19 38  1  0
 19 39  1  0
 19 40  1  0
 20 41  1  0
 20 42  1  0
 20 43  1  0
 22 44  1  0
 22 45  1  0
 23 46  1  0
 23 47  1  0
M  END
$$$$
