
     RDKit          3D

 60 62  0  0  0  0  0  0  0  0999 V2000
   -8.6080    0.4711   -1.1310 C   0  0  0  0  0  0  0  0  0  0  0  0
   -8.1591   -0.2365    0.1382 C   0  0  0  0  0  0  0  0  0  0  0  0
   -6.6589   -0.3574    0.2124 C   0  0  0  0  0  0  0  0  0  0  0  0
   -6.0077   -1.4736   -0.3232 C   0  0  0  0  0  0  0  0  0  0  0  0
   -4.6129   -1.5820   -0.2719 C   0  0  0  0  0  0  0  0  0  0  0  0
   -3.8452   -0.5732    0.3093 C   0  0  0  0  0  0  0  0  0  0  0  0
   -2.4391   -0.6089    0.4129 N   0  0  0  0  0  0  0  0  0  0  0  0
   -1.5811   -1.5659   -0.1006 C   0  0  0  0  0  0  0  0  0  0  0  0
   -1.8942   -2.5354   -0.7906 O   0  0  0  0  0  0  0  0  0  0  0  0
   -0.1044   -1.3398    0.2918 C   0  0  0  0  0  0  0  0  0  0  0  0
    0.7335   -1.7542   -0.8611 N   0  0  0  0  0  0  0  0  0  0  0  0
    1.0159   -0.5969   -2.0509 S   0  0  0  0  0  6  0  0  0  0  0  0
    1.3133   -1.3056   -3.2731 O   0  0  0  0  0  0  0  0  0  0  0  0
   -0.0291    0.3997   -1.9607 O   0  0  0  0  0  0  0  0  0  0  0  0
    2.5340    0.1328   -1.4867 C   0  0  0  0  0  0  0  0  0  0  0  0
    3.6388   -0.6990   -1.2358 C   0  0  0  0  0  0  0  0  0  0  0  0
    4.8395   -0.1507   -0.7730 C   0  0  0  0  0  0  0  0  0  0  0  0
    4.9123    1.2199   -0.5781 C   0  0  0  0  0  0  0  0  0  0  0  0
    3.8103    2.0398   -0.8369 C   0  0  0  0  0  0  0  0  0  0  0  0
    2.6079    1.5148   -1.2889 C   0  0  0  0  0  0  0  0  0  0  0  0
    4.1167    3.4735   -0.5473 C   0  0  0  0  0  0  0  0  0  0  0  0
    5.5996    3.4136   -0.1600 C   0  0  0  0  0  0  0  0  0  0  0  0
    5.9988    1.9962   -0.1344 N   0  0  0  0  0  0  0  0  0  0  0  0
    7.2445    1.5137    0.2265 C   0  0  0  0  0  0  0  0  0  0  0  0
    8.2523    2.5652    0.6260 C   0  0  0  0  0  0  0  0  0  0  0  0
    7.5656    0.3264    0.2489 O   0  0  0  0  0  0  0  0  0  0  0  0
    0.3233   -2.1340    1.5466 C   0  0  0  0  0  0  0  0  0  0  0  0
   -0.3267   -1.5739    2.8150 C   0  0  0  0  0  0  0  0  0  0  0  0
    0.0611   -3.6406    1.4532 C   0  0  0  0  0  0  0  0  0  0  0  0
   -4.4962    0.5467    0.8411 C   0  0  0  0  0  0  0  0  0  0  0  0
   -5.8895    0.6563    0.7910 C   0  0  0  0  0  0  0  0  0  0  0  0
   -8.2816   -0.0710   -2.0251 H   0  0  0  0  0  0  0  0  0  0  0  0
   -8.1995    1.4861   -1.1860 H   0  0  0  0  0  0  0  0  0  0  0  0
   -9.7000    0.5432   -1.1577 H   0  0  0  0  0  0  0  0  0  0  0  0
   -8.5286    0.3071    1.0163 H   0  0  0  0  0  0  0  0  0  0  0  0
   -8.6128   -1.2338    0.1866 H   0  0  0  0  0  0  0  0  0  0  0  0
   -6.5801   -2.2729   -0.7896 H   0  0  0  0  0  0  0  0  0  0  0  0
   -4.1611   -2.4716   -0.6989 H   0  0  0  0  0  0  0  0  0  0  0  0
   -2.0156    0.2010    0.8472 H   0  0  0  0  0  0  0  0  0  0  0  0
    0.0718   -0.2765    0.4958 H   0  0  0  0  0  0  0  0  0  0  0  0
    0.4346   -2.6354   -1.2943 H   0  0  0  0  0  0  0  0  0  0  0  0
    3.5682   -1.7721   -1.4021 H   0  0  0  0  0  0  0  0  0  0  0  0
    5.6862   -0.8027   -0.5847 H   0  0  0  0  0  0  0  0  0  0  0  0
    1.7574    2.1605   -1.4871 H   0  0  0  0  0  0  0  0  0  0  0  0
    3.5082    3.8405    0.2855 H   0  0  0  0  0  0  0  0  0  0  0  0
    3.9610    4.1081   -1.4251 H   0  0  0  0  0  0  0  0  0  0  0  0
    6.2213    3.9382   -0.8948 H   0  0  0  0  0  0  0  0  0  0  0  0
    5.7764    3.8652    0.8221 H   0  0  0  0  0  0  0  0  0  0  0  0
    7.9148    3.0898    1.5234 H   0  0  0  0  0  0  0  0  0  0  0  0
    8.4119    3.2711   -0.1929 H   0  0  0  0  0  0  0  0  0  0  0  0
    9.2093    2.0836    0.8500 H   0  0  0  0  0  0  0  0  0  0  0  0
    1.4090   -2.0055    1.6599 H   0  0  0  0  0  0  0  0  0  0  0  0
    0.0855   -2.0612    3.7053 H   0  0  0  0  0  0  0  0  0  0  0  0
   -1.4094   -1.7352    2.8209 H   0  0  0  0  0  0  0  0  0  0  0  0
   -0.1390   -0.4992    2.9091 H   0  0  0  0  0  0  0  0  0  0  0  0
    0.5387   -4.0767    0.5706 H   0  0  0  0  0  0  0  0  0  0  0  0
    0.4692   -4.1533    2.3313 H   0  0  0  0  0  0  0  0  0  0  0  0
   -1.0094   -3.8649    1.4116 H   0  0  0  0  0  0  0  0  0  0  0  0
   -3.9322    1.3551    1.2985 H   0  0  0  0  0  0  0  0  0  0  0  0
   -6.3695    1.5404    1.2047 H   0  0  0  0  0  0  0  0  0  0  0  0
  1  2  1  0
  2  3  1  0
  3  4  2  0
  4  5  1  0
  5  6  2  0
  6  7  1  0
  7  8  1  0
  8  9  2  0
  8 10  1  0
 10 11  1  0
 11 12  1  0
 12 13  2  0
 12 14  2  0
 12 15  1  0
 15 16  2  0
 16 17  1  0
 17 18  2  0
 18 19  1  0
 19 20  2  0
 19 21  1  0
 21 22  1  0
 22 23  1  0
 23 24  1  0
 24 25  1  0
 24 26  2  0
 10 27  1  0
 27 28  1  0
 27 29  1  0
  6 30  1  0
 30 31  2  0
 31  3  1  0
 20 15  1  0
 23 18  1  0
  1 32  1  0
  1 33  1  0
  1 34  1  0
  2 35  1  0
  2 36  1  0
  4 37  1  0
  5 38  1  0
  7 39  1  0
 10 40  1  0
 11 41  1  0
 16 42  1  0
 17 43  1  0
 20 44  1  0
 21 45  1  0
 21 46  1  0
 22 47  1  0
 22 48  1  0
 25 49  1  0
 25 50  1  0
 25 51  1  0
 27 52  1  0
 28 53  1  0
 28 54  1  0
 28 55  1  0
 29 56  1  0
 29 57  1  0
 29 58  1  0
 30 59  1  0
 31 60  1  0
M  END
$$$$
