
     RDKit          3D

 51 55  0  0  0  0  0  0  0  0999 V2000
    7.2286    0.8820    1.1499 C   0  0  0  0  0  0  0  0  0  0  0  0
    6.0398    1.6050    1.0799 C   0  0  0  0  0  0  0  0  0  0  0  0
    5.0283    1.2051    0.2050 C   0  0  0  0  0  0  0  0  0  0  0  0
    5.1950    0.0779   -0.6099 C   0  0  0  0  0  0  0  0  0  0  0  0
    4.1005   -0.3603   -1.5554 C   0  0  0  0  0  0  0  0  0  0  0  0
    2.9473   -1.1152   -0.8633 C   0  0  0  0  0  0  0  0  0  0  0  0
    2.0106   -0.2606   -0.1094 N   0  0  0  0  0  0  0  0  0  0  0  0
    1.2655    0.6635   -0.9969 C   0  0  0  0  0  0  0  0  0  0  0  0
   -0.1403    1.0355   -0.4818 C   0  0  0  0  0  0  0  0  0  0  0  0
   -0.9861   -0.1675   -0.3715 N   0  0  0  0  0  0  0  0  0  0  0  0
   -2.3569   -0.0159   -0.1789 C   0  0  0  0  0  0  0  0  0  0  0  0
   -2.8010    1.1683    0.1673 N   0  0  0  0  0  0  0  0  0  0  0  0
   -4.1683    1.3854    0.4185 C   0  0  0  0  0  0  0  0  0  0  0  0
   -4.5771    2.6644    0.8017 C   0  0  0  0  0  0  0  0  0  0  0  0
   -5.9210    2.9324    1.0751 C   0  0  0  0  0  0  0  0  0  0  0  0
   -6.8726    1.9178    0.9676 C   0  0  0  0  0  0  0  0  0  0  0  0
   -6.4863    0.6325    0.5859 C   0  0  0  0  0  0  0  0  0  0  0  0
   -5.1376    0.3798    0.3162 C   0  0  0  0  0  0  0  0  0  0  0  0
   -4.6639   -0.8787   -0.0872 N   0  0  0  0  0  0  0  0  0  0  0  0
   -5.3625   -2.0431   -0.3034 C   0  0  0  0  0  0  0  0  0  0  0  0
   -4.4811   -2.9946   -0.7656 C   0  0  0  0  0  0  0  0  0  0  0  0
   -3.2034   -2.3904   -0.8156 C   0  0  0  0  0  0  0  0  0  0  0  0
   -3.3268   -1.0912   -0.3525 C   0  0  0  0  0  0  0  0  0  0  0  0
   -0.2777   -1.3822    0.0606 C   0  0  0  0  0  0  0  0  0  0  0  0
    1.0822   -1.0597    0.7182 C   0  0  0  0  0  0  0  0  0  0  0  0
    6.3941   -0.6441   -0.5279 C   0  0  0  0  0  0  0  0  0  0  0  0
    7.4057   -0.2426    0.3467 C   0  0  0  0  0  0  0  0  0  0  0  0
    8.0150    1.1935    1.8319 H   0  0  0  0  0  0  0  0  0  0  0  0
    5.8963    2.4791    1.7093 H   0  0  0  0  0  0  0  0  0  0  0  0
    4.1023    1.7742    0.1691 H   0  0  0  0  0  0  0  0  0  0  0  0
    3.7381    0.5058   -2.1216 H   0  0  0  0  0  0  0  0  0  0  0  0
    4.5368   -1.0286   -2.3099 H   0  0  0  0  0  0  0  0  0  0  0  0
    3.3924   -1.8553   -0.1851 H   0  0  0  0  0  0  0  0  0  0  0  0
    2.3934   -1.6836   -1.6222 H   0  0  0  0  0  0  0  0  0  0  0  0
    1.8500    1.5822   -1.1189 H   0  0  0  0  0  0  0  0  0  0  0  0
    1.1424    0.2205   -1.9946 H   0  0  0  0  0  0  0  0  0  0  0  0
   -0.5897    1.7403   -1.1918 H   0  0  0  0  0  0  0  0  0  0  0  0
   -0.0676    1.5380    0.4909 H   0  0  0  0  0  0  0  0  0  0  0  0
   -3.8372    3.4556    0.8888 H   0  0  0  0  0  0  0  0  0  0  0  0
   -6.2224    3.9335    1.3726 H   0  0  0  0  0  0  0  0  0  0  0  0
   -7.9174    2.1307    1.1808 H   0  0  0  0  0  0  0  0  0  0  0  0
   -7.2447   -0.1390    0.5065 H   0  0  0  0  0  0  0  0  0  0  0  0
   -6.4275   -2.1085   -0.1351 H   0  0  0  0  0  0  0  0  0  0  0  0
   -4.7346   -4.0085   -1.0475 H   0  0  0  0  0  0  0  0  0  0  0  0
   -2.2938   -2.8618   -1.1592 H   0  0  0  0  0  0  0  0  0  0  0  0
   -0.8746   -1.9387    0.7923 H   0  0  0  0  0  0  0  0  0  0  0  0
   -0.1170   -2.0285   -0.8095 H   0  0  0  0  0  0  0  0  0  0  0  0
    1.5539   -1.9887    1.0614 H   0  0  0  0  0  0  0  0  0  0  0  0
    0.8897   -0.4819    1.6322 H   0  0  0  0  0  0  0  0  0  0  0  0
    6.5499   -1.5255   -1.1455 H   0  0  0  0  0  0  0  0  0  0  0  0
    8.3317   -0.8086    0.4019 H   0  0  0  0  0  0  0  0  0  0  0  0
  1  2  2  0
  2  3  1  0
  3  4  2  0
  4  5  1  0
  5  6  1  0
  6  7  1  0
  7  8  1  0
  8  9  1  0
  9 10  1  0
 10 11  1  0
 11 12  2  0
 12 13  1  0
 13 14  2  0
 14 15  1  0
 15 16  2  0
 16 17  1  0
 17 18  2  0
 18 19  1  0
 19 20  1  0
 20 21  2  0
 21 22  1  0
 22 23  2  0
 10 24  1  0
 24 25  1  0
  4 26  1  0
 26 27  2  0
 27  1  1  0
 25  7  1  0
 23 11  1  0
 18 13  1  0
 23 19  1  0
  1 28  1  0
  2 29  1  0
  3 30  1  0
  5 31  1  0
  5 32  1  0
  6 33  1  0
  6 34  1  0
  8 35  1  0
  8 36  1  0
  9 37  1  0
  9 38  1  0
 14 39  1  0
 15 40  1  0
 16 41  1  0
 17 42  1  0
 20 43  1  0
 21 44  1  0
 22 45  1  0
 24 46  1  0
 24 47  1  0
 25 48  1  0
 25 49  1  0
 26 50  1  0
 27 51  1  0
M  END
$$$$
