
     RDKit          3D

 37 39  0  0  0  0  0  0  0  0999 V2000
    6.9613   -0.1395   -1.2078 C   0  0  0  0  0  0  0  0  0  0  0  0
    6.6613    0.7856   -0.0361 C   0  0  0  0  0  0  0  0  0  0  0  0
    6.0594    0.0591    1.1685 C   0  0  0  0  0  0  0  0  0  0  0  0
    4.6883   -0.4724    0.9037 C   0  0  0  0  0  0  0  0  0  0  0  0
    4.4206   -1.7060    0.5270 N   0  0  0  0  0  0  0  0  0  0  0  0
    3.0661   -1.9106    0.3585 N   0  0  0  0  0  0  0  0  0  0  0  0
    2.3641   -0.8299    0.6188 C   0  0  0  0  0  0  0  0  0  0  0  0
    0.9958   -0.8166    0.5132 N   0  0  0  0  0  0  0  0  0  0  0  0
    0.1538    0.2520    0.7577 C   0  0  0  0  0  0  0  0  0  0  0  0
    0.4925    1.3755    1.1127 O   0  0  0  0  0  0  0  0  0  0  0  0
   -1.3152   -0.1319    0.5281 C   0  0  0  0  0  0  0  0  0  0  0  0
   -2.1838    0.9615    0.7807 O   0  0  0  0  0  0  0  0  0  0  0  0
   -3.5244    0.7494    0.6085 C   0  0  0  0  0  0  0  0  0  0  0  0
   -4.3270    1.8782    0.8717 C   0  0  0  0  0  0  0  0  0  0  0  0
   -5.7182    1.8242    0.7415 C   0  0  0  0  0  0  0  0  0  0  0  0
   -6.2726    0.6284    0.3469 C   0  0  0  0  0  0  0  0  0  0  0  0
   -5.4947   -0.4755    0.0891 C   0  0  0  0  0  0  0  0  0  0  0  0
   -4.1190   -0.4507    0.2097 C   0  0  0  0  0  0  0  0  0  0  0  0
   -6.2349   -1.5542   -0.2863 O   0  0  0  0  0  0  0  0  0  0  0  0
   -7.5671   -1.0002   -0.2351 C   0  0  0  0  0  0  0  0  0  0  0  0
   -7.5974    0.3846    0.1668 O   0  0  0  0  0  0  0  0  0  0  0  0
    3.2949    0.5150    1.0884 S   0  0  0  0  0  0  0  0  0  0  0  0
    7.6227   -0.9569   -0.9035 H   0  0  0  0  0  0  0  0  0  0  0  0
    7.4585    0.4178   -2.0081 H   0  0  0  0  0  0  0  0  0  0  0  0
    6.0456   -0.5716   -1.6226 H   0  0  0  0  0  0  0  0  0  0  0  0
    7.5996    1.2588    0.2778 H   0  0  0  0  0  0  0  0  0  0  0  0
    5.9973    1.5906   -0.3723 H   0  0  0  0  0  0  0  0  0  0  0  0
    6.0294    0.7470    2.0227 H   0  0  0  0  0  0  0  0  0  0  0  0
    6.7145   -0.7691    1.4658 H   0  0  0  0  0  0  0  0  0  0  0  0
    0.6156   -1.7068    0.2221 H   0  0  0  0  0  0  0  0  0  0  0  0
   -1.4092   -0.4525   -0.5168 H   0  0  0  0  0  0  0  0  0  0  0  0
   -1.5466   -0.9601    1.2092 H   0  0  0  0  0  0  0  0  0  0  0  0
   -3.8535    2.8080    1.1817 H   0  0  0  0  0  0  0  0  0  0  0  0
   -6.3360    2.6914    0.9437 H   0  0  0  0  0  0  0  0  0  0  0  0
   -3.5587   -1.3501   -0.0060 H   0  0  0  0  0  0  0  0  0  0  0  0
   -8.1624   -1.5852    0.4755 H   0  0  0  0  0  0  0  0  0  0  0  0
   -8.0207   -1.0871   -1.2292 H   0  0  0  0  0  0  0  0  0  0  0  0
  1  2  1  0
  2  3  1  0
  3  4  1  0
  4  5  2  0
  5  6  1  0
  6  7  2  0
  7  8  1  0
  8  9  1  0
  9 10  2  0
  9 11  1  0
 11 12  1  0
 12 13  1  0
 13 14  2  0
 14 15  1  0
 15 16  2  0
 16 17  1  0
 17 18  2  0
 17 19  1  0
 19 20  1  0
 20 21  1  0
  7 22  1  0
 22  4  1  0
 18 13  1  0
 21 16  1  0
  1 23  1  0
  1 24  1  0
  1 25  1  0
  2 26  1  0
  2 27  1  0
  3 28  1  0
  3 29  1  0
  8 30  1  0
 11 31  1  0
 11 32  1  0
 14 33  1  0
 15 34  1  0
 18 35  1  0
 20 36  1  0
 20 37  1  0
M  END
$$$$
