
     RDKit          3D

 42 45  0  0  0  0  0  0  0  0999 V2000
    4.0630   -0.8263   -2.1902 O   0  0  0  0  0  0  0  0  0  0  0  0
    3.4304   -0.5378   -1.1777 C   0  0  0  0  0  0  0  0  0  0  0  0
    4.1077    0.2910   -0.1576 C   0  0  0  0  0  0  0  0  0  0  0  0
    4.2251   -0.1548    1.1661 C   0  0  0  0  0  0  0  0  0  0  0  0
    4.8893    0.6339    2.1077 C   0  0  0  0  0  0  0  0  0  0  0  0
    5.4433    1.8546    1.7209 C   0  0  0  0  0  0  0  0  0  0  0  0
    5.3396    2.2728    0.3966 C   0  0  0  0  0  0  0  0  0  0  0  0
    5.8833    3.4416    0.0332 F   0  0  0  0  0  0  0  0  0  0  0  0
    4.6835    1.5000   -0.5521 C   0  0  0  0  0  0  0  0  0  0  0  0
    2.1232   -0.9535   -0.9500 N   0  0  0  0  0  0  0  0  0  0  0  0
    1.5174   -1.8645   -1.9233 C   0  0  0  0  0  0  0  0  0  0  0  0
    0.2669   -2.5617   -1.3797 C   0  0  0  0  0  0  0  0  0  0  0  0
   -0.7393   -1.6095   -0.9033 N   0  0  0  0  0  0  0  0  0  0  0  0
   -2.0820   -2.0029   -0.9260 C   0  0  0  0  0  0  0  0  0  0  0  0
   -2.3839   -3.1716   -1.1786 O   0  0  0  0  0  0  0  0  0  0  0  0
   -3.1536   -1.0164   -0.6539 C   0  0  0  0  0  0  0  0  0  0  0  0
   -4.5086   -1.3526   -0.3930 C   0  0  0  0  0  0  0  0  0  0  0  0
   -5.1758   -0.1637   -0.2379 C   0  0  0  0  0  0  0  0  0  0  0  0
   -6.4861    0.1199    0.0318 N   0  0  0  0  0  0  0  0  0  0  0  0
   -6.7863    1.3849    0.0960 C   0  0  0  0  0  0  0  0  0  0  0  0
   -5.8385    2.5258   -0.0932 C   0  0  0  0  0  0  0  0  0  0  0  0
   -6.4569    4.2619    0.0382 Br  0  0  0  0  0  0  0  0  0  0  0  0
   -4.5718    2.1758   -0.3503 C   0  0  0  0  0  0  0  0  0  0  0  0
   -4.2200    0.8339   -0.4264 N   0  0  0  0  0  0  0  0  0  0  0  0
   -2.9924    0.3205   -0.6740 N   0  0  0  0  0  0  0  0  0  0  0  0
   -0.2396   -0.3364   -0.3718 C   0  0  0  0  0  0  0  0  0  0  0  0
    1.2307   -0.4002    0.0765 C   0  0  0  0  0  0  0  0  0  0  0  0
    3.8182   -1.1193    1.4597 H   0  0  0  0  0  0  0  0  0  0  0  0
    4.9854    0.2937    3.1360 H   0  0  0  0  0  0  0  0  0  0  0  0
    5.9670    2.4785    2.4391 H   0  0  0  0  0  0  0  0  0  0  0  0
    4.6275    1.8367   -1.5825 H   0  0  0  0  0  0  0  0  0  0  0  0
    1.2591   -1.2632   -2.8039 H   0  0  0  0  0  0  0  0  0  0  0  0
    2.2597   -2.6078   -2.2350 H   0  0  0  0  0  0  0  0  0  0  0  0
    0.5303   -3.1973   -0.5256 H   0  0  0  0  0  0  0  0  0  0  0  0
   -0.1625   -3.2061   -2.1544 H   0  0  0  0  0  0  0  0  0  0  0  0
   -4.9367   -2.3436   -0.3327 H   0  0  0  0  0  0  0  0  0  0  0  0
   -7.8326    1.6617    0.3100 H   0  0  0  0  0  0  0  0  0  0  0  0
   -3.7714    2.8847   -0.5113 H   0  0  0  0  0  0  0  0  0  0  0  0
   -0.3431    0.4055   -1.1720 H   0  0  0  0  0  0  0  0  0  0  0  0
   -0.8456   -0.0278    0.4848 H   0  0  0  0  0  0  0  0  0  0  0  0
    1.3146   -1.0601    0.9481 H   0  0  0  0  0  0  0  0  0  0  0  0
    1.5615    0.5996    0.3728 H   0  0  0  0  0  0  0  0  0  0  0  0
  1  2  2  0
  2  3  1  0
  3  4  2  0
  4  5  1  0
  5  6  2  0
  6  7  1  0
  7  8  1  0
  7  9  2  0
  2 10  1  0
 10 11  1  0
 11 12  1  0
 12 13  1  0
 13 14  1  0
 14 15  2  0
 14 16  1  0
 16 17  1  0
 17 18  2  0
 18 19  1  0
 19 20  2  0
 20 21  1  0
 21 22  1  0
 21 23  2  0
 23 24  1  0
 24 25  1  0
 13 26  1  0
 26 27  1  0
  9  3  1  0
 27 10  1  0
 25 16  2  0
 24 18  1  0
  4 28  1  0
  5 29  1  0
  6 30  1  0
  9 31  1  0
 11 32  1  0
 11 33  1  0
 12 34  1  0
 12 35  1  0
 17 36  1  0
 20 37  1  0
 23 38  1  0
 26 39  1  0
 26 40  1  0
 27 41  1  0
 27 42  1  0
M  END
$$$$
