
     RDKit          3D

 45 48  0  0  0  0  0  0  0  0999 V2000
    2.4667    2.5977   -0.1640 C   0  0  0  0  0  0  0  0  0  0  0  0
    2.6111    1.1230    0.1802 C   0  0  0  0  0  0  0  0  0  0  0  0
    1.8227    0.8659    1.3502 O   0  0  0  0  0  0  0  0  0  0  0  0
    2.0694   -0.3963    1.8341 C   0  0  0  0  0  0  0  0  0  0  0  0
    2.9942   -0.4694    2.8849 C   0  0  0  0  0  0  0  0  0  0  0  0
    3.3289   -1.6991    3.4416 C   0  0  0  0  0  0  0  0  0  0  0  0
    2.7281   -2.8567    2.9611 C   0  0  0  0  0  0  0  0  0  0  0  0
    1.7812   -2.7770    1.9334 C   0  0  0  0  0  0  0  0  0  0  0  0
    1.4113   -1.5446    1.3485 C   0  0  0  0  0  0  0  0  0  0  0  0
    0.3812   -1.5183    0.2926 C   0  0  0  0  0  0  0  0  0  0  0  0
    0.2417   -2.6379   -0.4576 N   0  0  0  0  0  0  0  0  0  0  0  0
   -0.7102   -2.6043   -1.4252 C   0  0  0  0  0  0  0  0  0  0  0  0
   -0.8625   -3.8264   -2.2665 C   0  0  0  0  0  0  0  0  0  0  0  0
   -0.0219   -4.8617   -1.9606 N   0  0  0  0  0  0  0  0  0  0  0  0
   -1.6790   -3.9028   -3.1777 O   0  0  0  0  0  0  0  0  0  0  0  0
   -1.4892   -1.5056   -1.6346 C   0  0  0  0  0  0  0  0  0  0  0  0
   -2.4918   -1.2246   -2.5482 N   0  0  0  0  0  0  0  0  0  0  0  0
   -2.9458    0.0820   -2.3259 C   0  0  0  0  0  0  0  0  0  0  0  0
   -3.8322    0.5969   -2.9875 O   0  0  0  0  0  0  0  0  0  0  0  0
   -2.1848    0.5956   -1.2298 N   0  0  0  0  0  0  0  0  0  0  0  0
   -2.2892    1.8864   -0.6428 C   0  0  0  0  0  0  0  0  0  0  0  0
   -3.1060    2.8695   -1.2268 C   0  0  0  0  0  0  0  0  0  0  0  0
   -3.2324    4.1517   -0.6735 C   0  0  0  0  0  0  0  0  0  0  0  0
   -2.5427    4.4854    0.4847 C   0  0  0  0  0  0  0  0  0  0  0  0
   -1.7275    3.5356    1.0847 C   0  0  0  0  0  0  0  0  0  0  0  0
   -1.6058    2.2539    0.5283 C   0  0  0  0  0  0  0  0  0  0  0  0
   -1.2831   -0.4207   -0.8213 C   0  0  0  0  0  0  0  0  0  0  0  0
   -0.3591   -0.4025    0.1420 N   0  0  0  0  0  0  0  0  0  0  0  0
    3.0354    2.8462   -1.0648 H   0  0  0  0  0  0  0  0  0  0  0  0
    2.8249    3.2217    0.6655 H   0  0  0  0  0  0  0  0  0  0  0  0
    1.4130    2.8604   -0.3265 H   0  0  0  0  0  0  0  0  0  0  0  0
    2.2520    0.5199   -0.6620 H   0  0  0  0  0  0  0  0  0  0  0  0
    3.6705    0.8924    0.3637 H   0  0  0  0  0  0  0  0  0  0  0  0
    3.4585    0.4398    3.2593 H   0  0  0  0  0  0  0  0  0  0  0  0
    4.0573   -1.7531    4.2478 H   0  0  0  0  0  0  0  0  0  0  0  0
    2.9881   -3.8241    3.3883 H   0  0  0  0  0  0  0  0  0  0  0  0
    1.3137   -3.7021    1.5969 H   0  0  0  0  0  0  0  0  0  0  0  0
    0.7037   -4.7431   -1.2618 H   0  0  0  0  0  0  0  0  0  0  0  0
   -0.0257   -5.6858   -2.5479 H   0  0  0  0  0  0  0  0  0  0  0  0
   -2.8414   -1.8538   -3.2615 H   0  0  0  0  0  0  0  0  0  0  0  0
   -3.6655    2.6786   -2.1375 H   0  0  0  0  0  0  0  0  0  0  0  0
   -3.8727    4.8853   -1.1584 H   0  0  0  0  0  0  0  0  0  0  0  0
   -2.6401    5.4777    0.9170 H   0  0  0  0  0  0  0  0  0  0  0  0
   -1.1823    3.7797    1.9935 H   0  0  0  0  0  0  0  0  0  0  0  0
   -0.9626    1.5646    1.0638 H   0  0  0  0  0  0  0  0  0  0  0  0
  1  2  1  0
  2  3  1  0
  3  4  1  0
  4  5  2  0
  5  6  1  0
  6  7  2  0
  7  8  1  0
  8  9  2  0
  9 10  1  0
 10 11  2  0
 11 12  1  0
 12 13  1  0
 13 14  1  0
 13 15  2  0
 12 16  2  0
 16 17  1  0
 17 18  1  0
 18 19  2  0
 18 20  1  0
 20 21  1  0
 21 22  2  0
 22 23  1  0
 23 24  2  0
 24 25  1  0
 25 26  2  0
 20 27  1  0
 27 28  2  0
  9  4  1  0
 28 10  1  0
 27 16  1  0
 26 21  1  0
  1 29  1  0
  1 30  1  0
  1 31  1  0
  2 32  1  0
  2 33  1  0
  5 34  1  0
  6 35  1  0
  7 36  1  0
  8 37  1  0
 14 38  1  0
 14 39  1  0
 17 40  1  0
 22 41  1  0
 23 42  1  0
 24 43  1  0
 25 44  1  0
 26 45  1  0
M  END
$$$$
