
     RDKit          3D

 53 56  0  0  0  0  0  0  0  0999 V2000
  -10.3409    0.3625    0.7211 C   0  0  0  0  0  0  0  0  0  0  0  0
   -9.0601    0.2445    1.3273 O   0  0  0  0  0  0  0  0  0  0  0  0
   -7.9707    0.4508    0.5276 C   0  0  0  0  0  0  0  0  0  0  0  0
   -7.9994    0.7673   -0.8298 C   0  0  0  0  0  0  0  0  0  0  0  0
   -6.8057    0.9527   -1.5317 C   0  0  0  0  0  0  0  0  0  0  0  0
   -5.5756    0.8232   -0.8825 C   0  0  0  0  0  0  0  0  0  0  0  0
   -5.5337    0.5057    0.4799 C   0  0  0  0  0  0  0  0  0  0  0  0
   -4.2485    0.3533    1.2320 C   0  0  0  0  0  0  0  0  0  0  0  0
   -4.2892    0.0739    2.4290 O   0  0  0  0  0  0  0  0  0  0  0  0
   -2.9398    0.5545    0.4705 C   0  0  0  0  0  0  0  0  0  0  0  0
   -1.8231    0.3700    1.3316 O   0  0  0  0  0  0  0  0  0  0  0  0
   -0.5786    0.5152    0.7895 C   0  0  0  0  0  0  0  0  0  0  0  0
   -0.2879    0.8405   -0.5336 C   0  0  0  0  0  0  0  0  0  0  0  0
    1.0457    0.9587   -0.9588 C   0  0  0  0  0  0  0  0  0  0  0  0
    2.1153    0.7567   -0.0742 C   0  0  0  0  0  0  0  0  0  0  0  0
    3.5384    0.8556   -0.4608 C   0  0  0  0  0  0  0  0  0  0  0  0
    3.8272    1.2038   -1.8990 C   0  0  0  0  0  0  0  0  0  0  0  0
    4.4914    0.6176    0.4704 C   0  0  0  0  0  0  0  0  0  0  0  0
    5.9882    0.6594    0.2270 C   0  0  0  0  0  0  0  0  0  0  0  0
    6.5790   -0.6940   -0.1139 C   0  0  0  0  0  0  0  0  0  0  0  0
    6.7174   -1.1056   -1.4475 C   0  0  0  0  0  0  0  0  0  0  0  0
    7.2476   -2.3609   -1.7539 C   0  0  0  0  0  0  0  0  0  0  0  0
    7.6447   -3.2201   -0.7321 C   0  0  0  0  0  0  0  0  0  0  0  0
    7.5141   -2.8243    0.5966 C   0  0  0  0  0  0  0  0  0  0  0  0
    6.9851   -1.5695    0.9041 C   0  0  0  0  0  0  0  0  0  0  0  0
    4.1308    0.3334    1.8913 C   0  0  0  0  0  0  0  0  0  0  0  0
    4.9801    0.2190    2.7697 O   0  0  0  0  0  0  0  0  0  0  0  0
    2.7881    0.2162    2.1999 O   0  0  0  0  0  0  0  0  0  0  0  0
    1.7933    0.4326    1.2381 C   0  0  0  0  0  0  0  0  0  0  0  0
    0.4732    0.3107    1.6782 C   0  0  0  0  0  0  0  0  0  0  0  0
   -6.7381    0.3218    1.1746 C   0  0  0  0  0  0  0  0  0  0  0  0
  -10.4732   -0.3832   -0.0698 H   0  0  0  0  0  0  0  0  0  0  0  0
  -10.5054    1.3761    0.3408 H   0  0  0  0  0  0  0  0  0  0  0  0
  -11.0944    0.1691    1.4906 H   0  0  0  0  0  0  0  0  0  0  0  0
   -8.9335    0.8770   -1.3714 H   0  0  0  0  0  0  0  0  0  0  0  0
   -6.8376    1.1994   -2.5908 H   0  0  0  0  0  0  0  0  0  0  0  0
   -4.6743    0.9760   -1.4675 H   0  0  0  0  0  0  0  0  0  0  0  0
   -2.9332    1.5791    0.0814 H   0  0  0  0  0  0  0  0  0  0  0  0
   -2.9033   -0.1875   -0.3354 H   0  0  0  0  0  0  0  0  0  0  0  0
   -1.0691    1.0091   -1.2672 H   0  0  0  0  0  0  0  0  0  0  0  0
    1.2175    1.2099   -2.0023 H   0  0  0  0  0  0  0  0  0  0  0  0
    3.3669    2.1628   -2.1626 H   0  0  0  0  0  0  0  0  0  0  0  0
    3.4387    0.4279   -2.5679 H   0  0  0  0  0  0  0  0  0  0  0  0
    4.8886    1.3097   -2.1256 H   0  0  0  0  0  0  0  0  0  0  0  0
    6.5149    1.0714    1.0982 H   0  0  0  0  0  0  0  0  0  0  0  0
    6.2431    1.3729   -0.5649 H   0  0  0  0  0  0  0  0  0  0  0  0
    6.4201   -0.4522   -2.2627 H   0  0  0  0  0  0  0  0  0  0  0  0
    7.3514   -2.6683   -2.7911 H   0  0  0  0  0  0  0  0  0  0  0  0
    8.0565   -4.1971   -0.9701 H   0  0  0  0  0  0  0  0  0  0  0  0
    7.8227   -3.4915    1.3973 H   0  0  0  0  0  0  0  0  0  0  0  0
    6.8931   -1.2799    1.9498 H   0  0  0  0  0  0  0  0  0  0  0  0
    0.2667    0.0566    2.7150 H   0  0  0  0  0  0  0  0  0  0  0  0
   -6.7242    0.0743    2.2355 H   0  0  0  0  0  0  0  0  0  0  0  0
  1  2  1  0
  2  3  1  0
  3  4  2  0
  4  5  1  0
  5  6  2  0
  6  7  1  0
  7  8  1  0
  8  9  2  0
  8 10  1  0
 10 11  1  0
 11 12  1  0
 12 13  2  0
 13 14  1  0
 14 15  2  0
 15 16  1  0
 16 17  1  0
 16 18  2  0
 18 19  1  0
 19 20  1  0
 20 21  2  0
 21 22  1  0
 22 23  2  0
 23 24  1  0
 24 25  2  0
 18 26  1  0
 26 27  2  0
 26 28  1  0
 28 29  1  0
 29 30  2  0
  7 31  2  0
 31  3  1  0
 30 12  1  0
 29 15  1  0
 25 20  1  0
  1 32  1  0
  1 33  1  0
  1 34  1  0
  4 35  1  0
  5 36  1  0
  6 37  1  0
 10 38  1  0
 10 39  1  0
 13 40  1  0
 14 41  1  0
 17 42  1  0
 17 43  1  0
 17 44  1  0
 19 45  1  0
 19 46  1  0
 21 47  1  0
 22 48  1  0
 23 49  1  0
 24 50  1  0
 25 51  1  0
 30 52  1  0
 31 53  1  0
M  END
$$$$
