
     RDKit          3D

 64 67  0  0  0  0  0  0  0  0999 V2000
    8.2883   -0.5576    0.2517 C   0  0  0  0  0  0  0  0  0  0  0  0
    7.4440    0.2408    1.0682 O   0  0  0  0  0  0  0  0  0  0  0  0
    6.1851   -0.2345    1.3291 C   0  0  0  0  0  0  0  0  0  0  0  0
    5.3384    0.6774    1.9669 C   0  0  0  0  0  0  0  0  0  0  0  0
    4.0251    0.3267    2.2950 C   0  0  0  0  0  0  0  0  0  0  0  0
    3.5403   -0.9380    1.9683 C   0  0  0  0  0  0  0  0  0  0  0  0
    2.2428   -1.3894    2.2981 N   0  0  0  0  0  0  0  0  0  0  0  0
    1.2517   -0.7271    3.0010 C   0  0  0  0  0  0  0  0  0  0  0  0
    1.2852    0.4516    3.3478 O   0  0  0  0  0  0  0  0  0  0  0  0
    0.1141   -1.6562    3.4074 C   0  0  0  0  0  0  0  0  0  0  0  0
   -1.5044   -0.8574    3.2604 S   0  0  0  0  0  0  0  0  0  0  0  0
   -1.7432   -0.9307    1.5511 C   0  0  0  0  0  0  0  0  0  0  0  0
   -0.9552   -1.5226    0.6879 N   0  0  0  0  0  0  0  0  0  0  0  0
   -1.5413   -1.4204   -0.5481 N   0  0  0  0  0  0  0  0  0  0  0  0
   -2.6855   -0.7712   -0.4167 C   0  0  0  0  0  0  0  0  0  0  0  0
   -3.7043   -0.4961   -1.4774 C   0  0  0  0  0  0  0  0  0  0  0  0
   -3.2580   -0.8112   -2.8750 C   0  0  0  0  0  0  0  0  0  0  0  0
   -3.4940   -1.9452   -3.6401 C   0  0  0  0  0  0  0  0  0  0  0  0
   -2.9281   -1.7331   -4.9190 C   0  0  0  0  0  0  0  0  0  0  0  0
   -2.3395   -0.4880   -4.9012 C   0  0  0  0  0  0  0  0  0  0  0  0
   -2.5067    0.0478   -3.6500 N   0  0  0  0  0  0  0  0  0  0  0  0
   -2.0013    1.3419   -3.2453 C   0  0  0  0  0  0  0  0  0  0  0  0
   -2.8358   -0.4125    0.9089 N   0  0  0  0  0  0  0  0  0  0  0  0
   -3.9656    0.2689    1.5065 C   0  0  0  0  0  0  0  0  0  0  0  0
   -3.6999    1.7237    1.9058 C   0  0  0  0  0  0  0  0  0  0  0  0
   -3.5611    2.6648    0.7350 C   0  0  0  0  0  0  0  0  0  0  0  0
   -4.6869    3.0360   -0.0164 C   0  0  0  0  0  0  0  0  0  0  0  0
   -4.5573    3.9204   -1.0883 C   0  0  0  0  0  0  0  0  0  0  0  0
   -3.3113    4.4591   -1.4077 C   0  0  0  0  0  0  0  0  0  0  0  0
   -2.1870    4.1001   -0.6644 C   0  0  0  0  0  0  0  0  0  0  0  0
   -2.3090    3.2010    0.3979 C   0  0  0  0  0  0  0  0  0  0  0  0
    4.3880   -1.8646    1.3182 C   0  0  0  0  0  0  0  0  0  0  0  0
    3.8220   -3.0868    1.0378 O   0  0  0  0  0  0  0  0  0  0  0  0
    4.6235   -4.0459    0.3594 C   0  0  0  0  0  0  0  0  0  0  0  0
    5.7103   -1.5114    1.0155 C   0  0  0  0  0  0  0  0  0  0  0  0
    9.1355    0.0633   -0.0507 H   0  0  0  0  0  0  0  0  0  0  0  0
    7.7839   -0.9039   -0.6618 H   0  0  0  0  0  0  0  0  0  0  0  0
    8.6713   -1.4097    0.8209 H   0  0  0  0  0  0  0  0  0  0  0  0
    5.7031    1.6706    2.2204 H   0  0  0  0  0  0  0  0  0  0  0  0
    3.4055    1.0680    2.7941 H   0  0  0  0  0  0  0  0  0  0  0  0
    2.0529   -2.3349    1.9708 H   0  0  0  0  0  0  0  0  0  0  0  0
    0.2759   -1.9170    4.4593 H   0  0  0  0  0  0  0  0  0  0  0  0
    0.1241   -2.5927    2.8391 H   0  0  0  0  0  0  0  0  0  0  0  0
   -4.0163    0.5523   -1.4371 H   0  0  0  0  0  0  0  0  0  0  0  0
   -4.5982   -1.0969   -1.2547 H   0  0  0  0  0  0  0  0  0  0  0  0
   -4.0412   -2.8229   -3.3185 H   0  0  0  0  0  0  0  0  0  0  0  0
   -2.9566   -2.4079   -5.7654 H   0  0  0  0  0  0  0  0  0  0  0  0
   -1.8183    0.0586   -5.6804 H   0  0  0  0  0  0  0  0  0  0  0  0
   -1.4662    1.2370   -2.2967 H   0  0  0  0  0  0  0  0  0  0  0  0
   -2.8581    2.0139   -3.1423 H   0  0  0  0  0  0  0  0  0  0  0  0
   -1.3184    1.7289   -4.0056 H   0  0  0  0  0  0  0  0  0  0  0  0
   -4.8178    0.2030    0.8197 H   0  0  0  0  0  0  0  0  0  0  0  0
   -4.2561   -0.3060    2.3950 H   0  0  0  0  0  0  0  0  0  0  0  0
   -4.5375    2.0751    2.5198 H   0  0  0  0  0  0  0  0  0  0  0  0
   -2.8130    1.7997    2.5446 H   0  0  0  0  0  0  0  0  0  0  0  0
   -5.6740    2.6460    0.2309 H   0  0  0  0  0  0  0  0  0  0  0  0
   -5.4328    4.2009   -1.6708 H   0  0  0  0  0  0  0  0  0  0  0  0
   -3.2148    5.1542   -2.2358 H   0  0  0  0  0  0  0  0  0  0  0  0
   -1.2149    4.5266   -0.9059 H   0  0  0  0  0  0  0  0  0  0  0  0
   -1.4198    2.9371    0.9699 H   0  0  0  0  0  0  0  0  0  0  0  0
    4.0069   -4.9272    0.1587 H   0  0  0  0  0  0  0  0  0  0  0  0
    5.4641   -4.3693    0.9821 H   0  0  0  0  0  0  0  0  0  0  0  0
    4.9761   -3.6774   -0.6134 H   0  0  0  0  0  0  0  0  0  0  0  0
    6.3718   -2.2296    0.5455 H   0  0  0  0  0  0  0  0  0  0  0  0
  1  2  1  0
  2  3  1  0
  3  4  2  0
  4  5  1  0
  5  6  2  0
  6  7  1  0
  7  8  1  0
  8  9  2  0
  8 10  1  0
 10 11  1  0
 11 12  1  0
 12 13  2  0
 13 14  1  0
 14 15  2  0
 15 16  1  0
 16 17  1  0
 17 18  2  0
 18 19  1  0
 19 20  2  0
 20 21  1  0
 21 22  1  0
 15 23  1  0
 23 24  1  0
 24 25  1  0
 25 26  1  0
 26 27  2  0
 27 28  1  0
 28 29  2  0
 29 30  1  0
 30 31  2  0
  6 32  1  0
 32 33  1  0
 33 34  1  0
 32 35  2  0
 35  3  1  0
 23 12  1  0
 31 26  1  0
 21 17  1  0
  1 36  1  0
  1 37  1  0
  1 38  1  0
  4 39  1  0
  5 40  1  0
  7 41  1  0
 10 42  1  0
 10 43  1  0
 16 44  1  0
 16 45  1  0
 18 46  1  0
 19 47  1  0
 20 48  1  0
 22 49  1  0
 22 50  1  0
 22 51  1  0
 24 52  1  0
 24 53  1  0
 25 54  1  0
 25 55  1  0
 27 56  1  0
 28 57  1  0
 29 58  1  0
 30 59  1  0
 31 60  1  0
 34 61  1  0
 34 62  1  0
 34 63  1  0
 35 64  1  0
M  END
$$$$
