
     RDKit          3D

 69 75  0  0  0  0  0  0  0  0999 V2000
   -3.9760    5.3814    1.0761 C   0  0  0  0  0  0  0  0  0  0  0  0
   -3.3415    4.3142    0.2362 C   0  0  0  0  0  0  0  0  0  0  0  0
   -3.3642    4.3727   -1.1710 C   0  0  0  0  0  0  0  0  0  0  0  0
   -4.1234    5.6892   -2.0005 Cl  0  0  0  0  0  0  0  0  0  0  0  0
   -2.7702    3.3705   -1.9640 C   0  0  0  0  0  0  0  0  0  0  0  0
   -2.1415    2.2734   -1.3758 C   0  0  0  0  0  0  0  0  0  0  0  0
   -2.1257    2.1979    0.0073 C   0  0  0  0  0  0  0  0  0  0  0  0
   -2.7089    3.2073    0.7891 C   0  0  0  0  0  0  0  0  0  0  0  0
   -2.5300    2.9138    2.1413 N   0  0  0  0  0  0  0  0  0  0  0  0
   -1.8360    1.7156    2.3263 C   0  0  0  0  0  0  0  0  0  0  0  0
   -1.5213    1.2537    3.4134 O   0  0  0  0  0  0  0  0  0  0  0  0
   -1.5376    1.1569    0.9140 C   0  0  1  0  0  0  0  0  0  0  0  0
   -2.1743   -0.1609    0.6579 C   0  0  0  0  0  0  0  0  0  0  0  0
   -1.2064   -1.1792    0.6694 C   0  0  0  0  0  0  0  0  0  0  0  0
   -1.8171   -2.3749    0.4033 C   0  0  0  0  0  0  0  0  0  0  0  0
   -1.3133   -3.6055    0.3586 O   0  0  0  0  0  0  0  0  0  0  0  0
   -3.1964   -2.1120    0.2645 N   0  0  0  0  0  0  0  0  0  0  0  0
   -4.2281   -3.0894    0.0922 C   0  0  0  0  0  0  0  0  0  0  0  0
   -5.4974   -2.8824    0.6548 C   0  0  0  0  0  0  0  0  0  0  0  0
   -6.5083   -3.8311    0.4828 C   0  0  0  0  0  0  0  0  0  0  0  0
   -6.2600   -4.9927   -0.2448 C   0  0  0  0  0  0  0  0  0  0  0  0
   -4.9981   -5.2126   -0.7930 C   0  0  0  0  0  0  0  0  0  0  0  0
   -3.9821   -4.2685   -0.6219 C   0  0  0  0  0  0  0  0  0  0  0  0
   -3.3894   -0.7168    0.3629 C   0  0  0  0  0  0  0  0  0  0  0  0
   -4.5447   -0.0911    0.1404 O   0  0  0  0  0  0  0  0  0  0  0  0
    0.1133   -0.6065    1.0090 C   0  0  1  0  0  0  0  0  0  0  0  0
    1.3499   -1.0925    0.2649 C   0  0  0  0  0  0  0  0  0  0  0  0
    2.5257   -0.2597    0.5960 N   0  0  0  0  0  0  0  0  0  0  0  0
    3.7632   -0.8791    0.5708 C   0  0  0  0  0  0  0  0  0  0  0  0
    3.8870   -2.1009    0.5328 O   0  0  0  0  0  0  0  0  0  0  0  0
    4.8404   -0.0358    0.6194 N   0  0  0  0  0  0  0  0  0  0  0  0
    6.1921   -0.5510    0.5603 C   0  0  0  0  0  0  0  0  0  0  0  0
    6.7491   -0.4493   -0.8374 C   0  0  0  0  0  0  0  0  0  0  0  0
    7.5839    0.6173   -1.2007 C   0  0  0  0  0  0  0  0  0  0  0  0
    8.0783    0.7166   -2.5025 C   0  0  0  0  0  0  0  0  0  0  0  0
    7.7384   -0.2435   -3.4541 C   0  0  0  0  0  0  0  0  0  0  0  0
    6.9028   -1.3031   -3.1064 C   0  0  0  0  0  0  0  0  0  0  0  0
    6.4087   -1.4049   -1.8054 C   0  0  0  0  0  0  0  0  0  0  0  0
    2.3066    1.2045    0.5940 C   0  0  0  0  0  0  0  0  0  0  0  0
    0.9459    1.6540    1.1927 C   0  0  0  0  0  0  0  0  0  0  0  0
   -0.1161    0.8278    0.6480 N   0  0  0  0  0  0  0  0  0  0  0  0
   -3.5401    6.3592    0.8453 H   0  0  0  0  0  0  0  0  0  0  0  0
   -3.8311    5.2138    2.1467 H   0  0  0  0  0  0  0  0  0  0  0  0
   -5.0558    5.4123    0.8961 H   0  0  0  0  0  0  0  0  0  0  0  0
   -2.8020    3.4449   -3.0489 H   0  0  0  0  0  0  0  0  0  0  0  0
   -1.6861    1.4963   -1.9822 H   0  0  0  0  0  0  0  0  0  0  0  0
   -2.8508    3.4685    2.9195 H   0  0  0  0  0  0  0  0  0  0  0  0
   -0.3710   -3.5623    0.5979 H   0  0  0  0  0  0  0  0  0  0  0  0
   -5.7076   -2.0168    1.2798 H   0  0  0  0  0  0  0  0  0  0  0  0
   -7.4852   -3.6713    0.9325 H   0  0  0  0  0  0  0  0  0  0  0  0
   -7.0455   -5.7327   -0.3748 H   0  0  0  0  0  0  0  0  0  0  0  0
   -4.8005   -6.1218   -1.3554 H   0  0  0  0  0  0  0  0  0  0  0  0
   -3.0165   -4.4634   -1.0811 H   0  0  0  0  0  0  0  0  0  0  0  0
   -5.1097   -0.6673   -0.4060 H   0  0  0  0  0  0  0  0  0  0  0  0
    0.2668   -0.7052    2.0935 H   0  0  0  0  0  0  0  0  0  0  0  0
    1.2122   -1.0366   -0.8229 H   0  0  0  0  0  0  0  0  0  0  0  0
    1.5409   -2.1436    0.5069 H   0  0  0  0  0  0  0  0  0  0  0  0
    4.7151    0.8563    0.1723 H   0  0  0  0  0  0  0  0  0  0  0  0
    6.2395   -1.5860    0.9171 H   0  0  0  0  0  0  0  0  0  0  0  0
    6.7923    0.0541    1.2490 H   0  0  0  0  0  0  0  0  0  0  0  0
    7.8581    1.3758   -0.4713 H   0  0  0  0  0  0  0  0  0  0  0  0
    8.7298    1.5428   -2.7750 H   0  0  0  0  0  0  0  0  0  0  0  0
    8.1241   -0.1662   -4.4672 H   0  0  0  0  0  0  0  0  0  0  0  0
    6.6336   -2.0512   -3.8474 H   0  0  0  0  0  0  0  0  0  0  0  0
    5.7512   -2.2337   -1.5456 H   0  0  0  0  0  0  0  0  0  0  0  0
    3.1083    1.7034    1.1477 H   0  0  0  0  0  0  0  0  0  0  0  0
    2.3730    1.5247   -0.4532 H   0  0  0  0  0  0  0  0  0  0  0  0
    0.9908    1.5733    2.2855 H   0  0  0  0  0  0  0  0  0  0  0  0
    0.7888    2.7095    0.9442 H   0  0  0  0  0  0  0  0  0  0  0  0
  1  2  1  0
  2  3  2  0
  3  4  1  0
  3  5  1  0
  5  6  2  0
  6  7  1  0
  7  8  2  0
  8  9  1  0
  9 10  1  0
 10 11  2  0
 10 12  1  0
 12 13  1  0
 13 14  1  0
 14 15  2  0
 15 16  1  0
 15 17  1  0
 17 18  1  0
 18 19  2  0
 19 20  1  0
 20 21  2  0
 21 22  1  0
 22 23  2  0
 17 24  1  0
 24 25  1  0
 14 26  1  0
 26 27  1  0
 27 28  1  0
 28 29  1  0
 29 30  2  0
 29 31  1  0
 31 32  1  0
 32 33  1  0
 33 34  2  0
 34 35  1  0
 35 36  2  0
 36 37  1  0
 37 38  2  0
 28 39  1  0
 39 40  1  0
 40 41  1  0
  8  2  1  0
 12 41  1  6
 12  7  1  0
 24 13  2  0
 41 26  1  0
 23 18  1  0
 38 33  1  0
  1 42  1  0
  1 43  1  0
  1 44  1  0
  5 45  1  0
  6 46  1  0
  9 47  1  0
 16 48  1  0
 19 49  1  0
 20 50  1  0
 21 51  1  0
 22 52  1  0
 23 53  1  0
 25 54  1  0
 26 55  1  1
 27 56  1  0
 27 57  1  0
 31 58  1  0
 32 59  1  0
 32 60  1  0
 34 61  1  0
 35 62  1  0
 36 63  1  0
 37 64  1  0
 38 65  1  0
 39 66  1  0
 39 67  1  0
 40 68  1  0
 40 69  1  0
M  END
$$$$
