
     RDKit          3D

 49 51  0  0  0  0  0  0  0  0999 V2000
    0.6162    2.2548   -0.1156 C   0  0  0  0  0  0  0  0  0  0  0  0
   -0.4652    1.3650    0.4361 C   0  0  0  0  0  0  0  0  0  0  0  0
   -1.8064    1.7686    0.3482 C   0  0  0  0  0  0  0  0  0  0  0  0
   -2.8187    0.9472    0.8509 C   0  0  0  0  0  0  0  0  0  0  0  0
   -4.5183    1.4739    0.7521 S   0  0  0  0  0  6  0  0  0  0  0  0
   -5.2392    0.8015    1.8122 O   0  0  0  0  0  0  0  0  0  0  0  0
   -4.5193    2.9172    0.6413 O   0  0  0  0  0  0  0  0  0  0  0  0
   -5.0427    0.8358   -0.7223 N   0  0  0  0  0  0  0  0  0  0  0  0
   -5.2012   -0.6393   -0.8442 C   0  0  0  0  0  0  0  0  0  0  0  0
   -4.2627   -1.1972   -1.9195 C   0  0  0  0  0  0  0  0  0  0  0  0
   -4.4791   -0.6349   -3.2210 O   0  0  0  0  0  0  0  0  0  0  0  0
   -5.0237    0.6922   -3.1896 C   0  0  0  0  0  0  0  0  0  0  0  0
   -4.5647    1.4946   -1.9678 C   0  0  0  0  0  0  0  0  0  0  0  0
   -2.5016   -0.2518    1.4907 C   0  0  0  0  0  0  0  0  0  0  0  0
   -1.1672   -0.6568    1.5847 C   0  0  0  0  0  0  0  0  0  0  0  0
   -0.1464    0.1397    1.0540 C   0  0  0  0  0  0  0  0  0  0  0  0
    1.1870   -0.1717    1.0896 O   0  0  0  0  0  0  0  0  0  0  0  0
    1.5624   -1.4077    1.6917 C   0  0  0  0  0  0  0  0  0  0  0  0
    3.0766   -1.6240    1.6082 C   0  0  0  0  0  0  0  0  0  0  0  0
    3.5897   -2.6402    2.0690 O   0  0  0  0  0  0  0  0  0  0  0  0
    3.7381   -0.5875    0.9812 N   0  0  0  0  0  0  0  0  0  0  0  0
    5.1153   -0.4556    0.7227 C   0  0  0  0  0  0  0  0  0  0  0  0
    6.0762   -1.4012    1.0806 C   0  0  0  0  0  0  0  0  0  0  0  0
    7.4261   -1.1816    0.7784 C   0  0  0  0  0  0  0  0  0  0  0  0
    7.8156   -0.0169    0.1163 C   0  0  0  0  0  0  0  0  0  0  0  0
    9.6398    0.2686   -0.2864 Br  0  0  0  0  0  0  0  0  0  0  0  0
    6.8709    0.9357   -0.2475 C   0  0  0  0  0  0  0  0  0  0  0  0
    5.5333    0.7065    0.0584 C   0  0  0  0  0  0  0  0  0  0  0  0
    4.6222    1.6290   -0.2916 F   0  0  0  0  0  0  0  0  0  0  0  0
    1.2006    1.7191   -0.8709 H   0  0  0  0  0  0  0  0  0  0  0  0
    1.2795    2.5867    0.6899 H   0  0  0  0  0  0  0  0  0  0  0  0
    0.1986    3.1469   -0.5941 H   0  0  0  0  0  0  0  0  0  0  0  0
   -2.0586    2.7243   -0.1081 H   0  0  0  0  0  0  0  0  0  0  0  0
   -5.0187   -1.1475    0.1060 H   0  0  0  0  0  0  0  0  0  0  0  0
   -6.2447   -0.8327   -1.1192 H   0  0  0  0  0  0  0  0  0  0  0  0
   -3.2163   -1.0131   -1.6504 H   0  0  0  0  0  0  0  0  0  0  0  0
   -4.3899   -2.2809   -2.0058 H   0  0  0  0  0  0  0  0  0  0  0  0
   -4.7148    1.1954   -4.1115 H   0  0  0  0  0  0  0  0  0  0  0  0
   -6.1168    0.6085   -3.2113 H   0  0  0  0  0  0  0  0  0  0  0  0
   -4.9770    2.5068   -2.0226 H   0  0  0  0  0  0  0  0  0  0  0  0
   -3.4720    1.5489   -1.9668 H   0  0  0  0  0  0  0  0  0  0  0  0
   -3.2815   -0.8723    1.9278 H   0  0  0  0  0  0  0  0  0  0  0  0
   -0.9610   -1.5957    2.0896 H   0  0  0  0  0  0  0  0  0  0  0  0
    1.0915   -2.2451    1.1635 H   0  0  0  0  0  0  0  0  0  0  0  0
    1.2945   -1.4058    2.7544 H   0  0  0  0  0  0  0  0  0  0  0  0
    3.1475    0.1803    0.6631 H   0  0  0  0  0  0  0  0  0  0  0  0
    5.8108   -2.3176    1.5991 H   0  0  0  0  0  0  0  0  0  0  0  0
    8.1629   -1.9282    1.0670 H   0  0  0  0  0  0  0  0  0  0  0  0
    7.1524    1.8487   -0.7606 H   0  0  0  0  0  0  0  0  0  0  0  0
  1  2  1  0
  2  3  2  0
  3  4  1  0
  4  5  1  0
  5  6  2  0
  5  7  2  0
  5  8  1  0
  8  9  1  0
  9 10  1  0
 10 11  1  0
 11 12  1  0
 12 13  1  0
  4 14  2  0
 14 15  1  0
 15 16  2  0
 16 17  1  0
 17 18  1  0
 18 19  1  0
 19 20  2  0
 19 21  1  0
 21 22  1  0
 22 23  2  0
 23 24  1  0
 24 25  2  0
 25 26  1  0
 25 27  1  0
 27 28  2  0
 28 29  1  0
 16  2  1  0
 28 22  1  0
 13  8  1  0
  1 30  1  0
  1 31  1  0
  1 32  1  0
  3 33  1  0
  9 34  1  0
  9 35  1  0
 10 36  1  0
 10 37  1  0
 12 38  1  0
 12 39  1  0
 13 40  1  0
 13 41  1  0
 14 42  1  0
 15 43  1  0
 18 44  1  0
 18 45  1  0
 21 46  1  0
 23 47  1  0
 24 48  1  0
 27 49  1  0
M  END
$$$$
