
     RDKit          3D

 48 49  0  0  0  0  0  0  0  0999 V2000
   -6.4329   -0.9096    1.9552 C   0  0  0  0  0  0  0  0  0  0  0  0
   -5.7741   -1.6225    0.7853 C   0  0  0  0  0  0  0  0  0  0  0  0
   -4.6034   -0.9201    0.2570 N   0  0  0  0  0  0  0  0  0  0  0  0
   -4.8342    0.1515   -0.7194 C   0  0  0  0  0  0  0  0  0  0  0  0
   -4.8888    1.5386   -0.0963 C   0  0  0  0  0  0  0  0  0  0  0  0
   -3.3803   -1.1561    0.8940 C   0  0  0  0  0  0  0  0  0  0  0  0
   -3.2587   -1.8612    1.8938 O   0  0  0  0  0  0  0  0  0  0  0  0
   -2.1499   -0.5366    0.3588 C   0  0  0  0  0  0  0  0  0  0  0  0
   -1.4031    0.3047    1.1846 C   0  0  0  0  0  0  0  0  0  0  0  0
   -0.2171    0.8691    0.7071 C   0  0  0  0  0  0  0  0  0  0  0  0
    0.2400    0.5838   -0.5875 C   0  0  0  0  0  0  0  0  0  0  0  0
    1.4433    1.1926   -0.9884 N   0  0  0  0  0  0  0  0  0  0  0  0
    2.1119    1.0492   -2.1923 C   0  0  0  0  0  0  0  0  0  0  0  0
    1.7593    0.3782   -3.1571 O   0  0  0  0  0  0  0  0  0  0  0  0
    3.4005    1.8767   -2.2432 C   0  0  0  0  0  0  0  0  0  0  0  0
    4.0425    2.0225   -0.9824 O   0  0  0  0  0  0  0  0  0  0  0  0
    4.7682    0.9729   -0.4801 C   0  0  0  0  0  0  0  0  0  0  0  0
    4.9462   -0.2573   -1.1233 C   0  0  0  0  0  0  0  0  0  0  0  0
    5.7063   -1.2685   -0.5225 C   0  0  0  0  0  0  0  0  0  0  0  0
    6.2918   -1.0507    0.7305 C   0  0  0  0  0  0  0  0  0  0  0  0
    7.0918   -2.1110    1.3560 N   0  0  0  0  0  4  0  0  0  0  0  0
    7.2439   -3.1652    0.7239 O   0  0  0  0  0  0  0  0  0  0  0  0
    7.5688   -1.8855    2.4766 O   0  0  0  0  0  1  0  0  0  0  0  0
    6.1202    0.1688    1.3908 C   0  0  0  0  0  0  0  0  0  0  0  0
    5.3593    1.1703    0.7827 C   0  0  0  0  0  0  0  0  0  0  0  0
    5.1542    2.6596    1.6397 Cl  0  0  0  0  0  0  0  0  0  0  0  0
   -0.5018   -0.2828   -1.3948 C   0  0  0  0  0  0  0  0  0  0  0  0
   -1.6889   -0.8523   -0.9205 C   0  0  0  0  0  0  0  0  0  0  0  0
   -7.2291   -1.5326    2.3751 H   0  0  0  0  0  0  0  0  0  0  0  0
   -6.8849    0.0347    1.6408 H   0  0  0  0  0  0  0  0  0  0  0  0
   -5.7127   -0.6927    2.7501 H   0  0  0  0  0  0  0  0  0  0  0  0
   -5.4621   -2.6209    1.1146 H   0  0  0  0  0  0  0  0  0  0  0  0
   -6.4934   -1.7732   -0.0272 H   0  0  0  0  0  0  0  0  0  0  0  0
   -5.7684   -0.0542   -1.2538 H   0  0  0  0  0  0  0  0  0  0  0  0
   -4.0426    0.1333   -1.4717 H   0  0  0  0  0  0  0  0  0  0  0  0
   -5.7153    1.6294    0.6125 H   0  0  0  0  0  0  0  0  0  0  0  0
   -5.0334    2.2937   -0.8757 H   0  0  0  0  0  0  0  0  0  0  0  0
   -3.9662    1.7798    0.4386 H   0  0  0  0  0  0  0  0  0  0  0  0
   -1.7414    0.5153    2.1965 H   0  0  0  0  0  0  0  0  0  0  0  0
    0.3454    1.5263    1.3660 H   0  0  0  0  0  0  0  0  0  0  0  0
    1.9083    1.7781   -0.3002 H   0  0  0  0  0  0  0  0  0  0  0  0
    3.1137    2.8813   -2.5753 H   0  0  0  0  0  0  0  0  0  0  0  0
    4.0856    1.4814   -3.0014 H   0  0  0  0  0  0  0  0  0  0  0  0
    4.5077   -0.4758   -2.0935 H   0  0  0  0  0  0  0  0  0  0  0  0
    5.8282   -2.2168   -1.0450 H   0  0  0  0  0  0  0  0  0  0  0  0
    6.5667    0.3480    2.3666 H   0  0  0  0  0  0  0  0  0  0  0  0
   -0.1795   -0.5472   -2.3971 H   0  0  0  0  0  0  0  0  0  0  0  0
   -2.2415   -1.5471   -1.5481 H   0  0  0  0  0  0  0  0  0  0  0  0
  1  2  1  0
  2  3  1  0
  3  4  1  0
  4  5  1  0
  3  6  1  0
  6  7  2  0
  6  8  1  0
  8  9  2  0
  9 10  1  0
 10 11  2  0
 11 12  1  0
 12 13  1  0
 13 14  2  0
 13 15  1  0
 15 16  1  0
 16 17  1  0
 17 18  2  0
 18 19  1  0
 19 20  2  0
 20 21  1  0
 21 22  2  0
 21 23  1  0
 20 24  1  0
 24 25  2  0
 25 26  1  0
 11 27  1  0
 27 28  2  0
 28  8  1  0
 25 17  1  0
  1 29  1  0
  1 30  1  0
  1 31  1  0
  2 32  1  0
  2 33  1  0
  4 34  1  0
  4 35  1  0
  5 36  1  0
  5 37  1  0
  5 38  1  0
  9 39  1  0
 10 40  1  0
 12 41  1  0
 15 42  1  0
 15 43  1  0
 18 44  1  0
 19 45  1  0
 24 46  1  0
 27 47  1  0
 28 48  1  0
M  CHG  2  21   1  23  -1
M  END
$$$$
