
     RDKit          3D

 41 43  0  0  0  0  0  0  0  0999 V2000
   -3.2600   -2.5194    2.4433 C   0  0  0  0  0  0  0  0  0  0  0  0
   -3.0506   -1.5414    1.3258 C   0  0  0  0  0  0  0  0  0  0  0  0
   -3.2176   -1.9359   -0.0018 C   0  0  0  0  0  0  0  0  0  0  0  0
   -3.0678   -1.0132   -1.0406 C   0  0  0  0  0  0  0  0  0  0  0  0
   -2.7457    0.3319   -0.7869 C   0  0  0  0  0  0  0  0  0  0  0  0
   -2.6283    1.2584   -1.9632 C   0  0  0  0  0  0  0  0  0  0  0  0
   -2.5724    0.7259    0.5519 C   0  0  0  0  0  0  0  0  0  0  0  0
   -2.1432    2.3916    1.0540 S   0  0  0  0  0  6  0  0  0  0  0  0
   -2.8576    2.6603    2.2863 O   0  0  0  0  0  0  0  0  0  0  0  0
   -2.2449    3.2985   -0.0671 O   0  0  0  0  0  0  0  0  0  0  0  0
   -0.5135    2.2400    1.4947 N   0  0  0  0  0  0  0  0  0  0  0  0
    0.4109    1.7299    0.5420 C   0  0  0  0  0  0  0  0  0  0  0  0
    0.7755    2.4953   -0.5623 C   0  0  0  0  0  0  0  0  0  0  0  0
    1.6466    1.9668   -1.5134 C   0  0  0  0  0  0  0  0  0  0  0  0
    2.1517    0.6770   -1.3555 C   0  0  0  0  0  0  0  0  0  0  0  0
    3.0008    0.2467   -2.3375 O   0  0  0  0  0  0  0  0  0  0  0  0
    1.7871   -0.1095   -0.2533 C   0  0  0  0  0  0  0  0  0  0  0  0
    2.2957   -1.8070   -0.0237 S   0  0  0  0  0  0  0  0  0  0  0  0
    4.0162   -1.6489    0.1695 C   0  0  0  0  0  0  0  0  0  0  0  0
    4.8190   -1.1459   -0.8224 N   0  0  0  0  0  0  0  0  0  0  0  0
    6.0177   -1.2180   -0.2909 C   0  0  0  0  0  0  0  0  0  0  0  0
    5.9304   -1.7490    0.9578 N   0  0  0  0  0  0  0  0  0  0  0  0
    4.6581   -2.0388    1.2730 N   0  0  0  0  0  0  0  0  0  0  0  0
    0.9074    0.4332    0.6953 C   0  0  0  0  0  0  0  0  0  0  0  0
   -2.7460   -0.2040    1.5966 C   0  0  0  0  0  0  0  0  0  0  0  0
   -2.6445   -2.2588    3.3108 H   0  0  0  0  0  0  0  0  0  0  0  0
   -2.9746   -3.5308    2.1354 H   0  0  0  0  0  0  0  0  0  0  0  0
   -4.3120   -2.5240    2.7442 H   0  0  0  0  0  0  0  0  0  0  0  0
   -3.4745   -2.9658   -0.2417 H   0  0  0  0  0  0  0  0  0  0  0  0
   -3.2120   -1.3585   -2.0636 H   0  0  0  0  0  0  0  0  0  0  0  0
   -3.4110    2.0219   -1.9276 H   0  0  0  0  0  0  0  0  0  0  0  0
   -1.6408    1.7232   -1.9995 H   0  0  0  0  0  0  0  0  0  0  0  0
   -2.7531    0.7207   -2.9099 H   0  0  0  0  0  0  0  0  0  0  0  0
   -0.4160    1.9357    2.4616 H   0  0  0  0  0  0  0  0  0  0  0  0
    0.3839    3.5015   -0.6926 H   0  0  0  0  0  0  0  0  0  0  0  0
    1.9325    2.5592   -2.3786 H   0  0  0  0  0  0  0  0  0  0  0  0
    3.5839   -0.4434   -1.9565 H   0  0  0  0  0  0  0  0  0  0  0  0
    6.9507   -0.9147   -0.7450 H   0  0  0  0  0  0  0  0  0  0  0  0
    6.6675   -1.9405    1.6278 H   0  0  0  0  0  0  0  0  0  0  0  0
    0.5950   -0.1678    1.5457 H   0  0  0  0  0  0  0  0  0  0  0  0
   -2.6445    0.1175    2.6323 H   0  0  0  0  0  0  0  0  0  0  0  0
  1  2  1  0
  2  3  2  0
  3  4  1  0
  4  5  2  0
  5  6  1  0
  5  7  1  0
  7  8  1  0
  8  9  2  0
  8 10  2  0
  8 11  1  0
 11 12  1  0
 12 13  2  0
 13 14  1  0
 14 15  2  0
 15 16  1  0
 15 17  1  0
 17 18  1  0
 18 19  1  0
 19 20  1  0
 20 21  2  0
 21 22  1  0
 22 23  1  0
 17 24  2  0
  7 25  2  0
 25  2  1  0
 24 12  1  0
 23 19  2  0
  1 26  1  0
  1 27  1  0
  1 28  1  0
  3 29  1  0
  4 30  1  0
  6 31  1  0
  6 32  1  0
  6 33  1  0
 11 34  1  0
 13 35  1  0
 14 36  1  0
 16 37  1  0
 21 38  1  0
 22 39  1  0
 24 40  1  0
 25 41  1  0
M  END
$$$$
