
     RDKit          3D

 38 38  0  0  0  0  0  0  0  0999 V2000
    6.2478    1.5320    2.9290 C   0  0  0  0  0  0  0  0  0  0  0  0
    5.8303    0.3068    2.3398 O   0  0  0  0  0  0  0  0  0  0  0  0
    4.4208    0.2349    2.1306 C   0  0  0  0  0  0  0  0  0  0  0  0
    3.9647    1.0645    0.9288 C   0  0  0  0  0  0  0  0  0  0  0  0
    2.5843    0.7893    0.5634 N   0  0  0  0  0  0  0  0  0  0  0  0
    1.7910    1.7683    0.0003 C   0  0  0  0  0  0  0  0  0  0  0  0
    2.1370    2.9378   -0.1146 O   0  0  0  0  0  0  0  0  0  0  0  0
    0.4735    1.2964   -0.5129 C   0  0  0  0  0  0  0  0  0  0  0  0
    0.0206    1.8439   -1.7466 C   0  0  0  0  0  0  0  0  0  0  0  0
   -0.3644    2.2475   -2.7654 N   0  0  0  0  0  0  0  0  0  0  0  0
   -0.2610    0.4566    0.2449 C   0  0  0  0  0  0  0  0  0  0  0  0
   -1.5807   -0.0771   -0.0757 C   0  0  0  0  0  0  0  0  0  0  0  0
   -2.6392    0.2507    0.9467 C   0  0  0  0  0  0  0  0  0  0  0  0
   -1.7792   -0.8116   -1.1873 C   0  0  0  0  0  0  0  0  0  0  0  0
   -3.0644   -1.3818   -1.5956 C   0  0  0  0  0  0  0  0  0  0  0  0
   -3.5315   -2.5716   -1.0269 C   0  0  0  0  0  0  0  0  0  0  0  0
   -4.7593   -3.1036   -1.4252 C   0  0  0  0  0  0  0  0  0  0  0  0
   -5.5224   -2.4500   -2.3924 C   0  0  0  0  0  0  0  0  0  0  0  0
   -5.0597   -1.2647   -2.9630 C   0  0  0  0  0  0  0  0  0  0  0  0
   -3.8324   -0.7308   -2.5665 C   0  0  0  0  0  0  0  0  0  0  0  0
    6.0792    2.3699    2.2475 H   0  0  0  0  0  0  0  0  0  0  0  0
    5.7275    1.7025    3.8763 H   0  0  0  0  0  0  0  0  0  0  0  0
    7.3206    1.4652    3.1298 H   0  0  0  0  0  0  0  0  0  0  0  0
    3.8809    0.5227    3.0409 H   0  0  0  0  0  0  0  0  0  0  0  0
    4.1869   -0.8203    1.9484 H   0  0  0  0  0  0  0  0  0  0  0  0
    4.5859    0.8387    0.0547 H   0  0  0  0  0  0  0  0  0  0  0  0
    4.0892    2.1326    1.1348 H   0  0  0  0  0  0  0  0  0  0  0  0
    2.3346   -0.1796    0.4058 H   0  0  0  0  0  0  0  0  0  0  0  0
    0.1031    0.1612    1.2289 H   0  0  0  0  0  0  0  0  0  0  0  0
   -2.3940   -0.2090    1.9104 H   0  0  0  0  0  0  0  0  0  0  0  0
   -3.6366   -0.0955    0.6619 H   0  0  0  0  0  0  0  0  0  0  0  0
   -2.7067    1.3352    1.0895 H   0  0  0  0  0  0  0  0  0  0  0  0
   -0.9697   -1.0196   -1.8844 H   0  0  0  0  0  0  0  0  0  0  0  0
   -2.9442   -3.0893   -0.2729 H   0  0  0  0  0  0  0  0  0  0  0  0
   -5.1203   -4.0279   -0.9820 H   0  0  0  0  0  0  0  0  0  0  0  0
   -6.4782   -2.8646   -2.7027 H   0  0  0  0  0  0  0  0  0  0  0  0
   -5.6535   -0.7550   -3.7174 H   0  0  0  0  0  0  0  0  0  0  0  0
   -3.4807    0.1953   -3.0172 H   0  0  0  0  0  0  0  0  0  0  0  0
  1  2  1  0
  2  3  1  0
  3  4  1  0
  4  5  1  0
  5  6  1  0
  6  7  2  0
  6  8  1  0
  8  9  1  0
  9 10  3  0
  8 11  2  3
 11 12  1  0
 12 13  1  0
 12 14  2  3
 14 15  1  0
 15 16  2  0
 16 17  1  0
 17 18  2  0
 18 19  1  0
 19 20  2  0
 20 15  1  0
  1 21  1  0
  1 22  1  0
  1 23  1  0
  3 24  1  0
  3 25  1  0
  4 26  1  0
  4 27  1  0
  5 28  1  0
 11 29  1  0
 13 30  1  0
 13 31  1  0
 13 32  1  0
 14 33  1  0
 16 34  1  0
 17 35  1  0
 18 36  1  0
 19 37  1  0
 20 38  1  0
M  END
$$$$
