
     RDKit          3D

 97 99  0  0  0  0  0  0  0  0999 V2000
   -1.7994    4.8193    0.4752 C   0  0  0  0  0  0  0  0  0  0  0  0
   -1.3100    3.4524    0.1069 C   0  0  0  0  0  0  0  0  0  0  0  0
   -0.3138    3.2413   -0.5681 O   0  0  0  0  0  0  0  0  0  0  0  0
   -2.1554    2.5061    0.5902 O   0  0  0  0  0  0  0  0  0  0  0  0
   -1.8269    1.1208    0.3014 C   0  0  1  0  0  0  0  0  0  0  0  0
   -1.1969    0.4642    1.5615 C   0  0  2  0  0  0  0  0  0  0  0  0
   -2.0251    0.7393    2.7144 O   0  0  0  0  0  0  0  0  0  0  0  0
   -2.4829   -0.3318    3.4197 C   0  0  0  0  0  0  0  0  0  0  0  0
   -3.2595    0.1359    4.6165 C   0  0  0  0  0  0  0  0  0  0  0  0
   -2.2550   -1.5085    3.1649 O   0  0  0  0  0  0  0  0  0  0  0  0
    0.2373    0.8983    1.8561 C   0  0  0  0  0  0  0  0  0  0  0  0
    0.4369    1.8756    2.9864 C   0  0  0  0  0  0  0  0  0  0  0  0
    1.3129    0.4124    1.1964 C   0  0  0  0  0  0  0  0  0  0  0  0
    1.3113   -0.4917   -0.0410 C   0  0  1  0  0  0  0  0  0  0  0  0
    2.4391   -0.1008   -1.0389 C   0  0  1  0  0  0  0  0  0  0  0  0
    2.7343    1.2992   -0.9740 O   0  0  0  0  0  0  0  0  0  0  0  0
    2.9399    1.9408   -2.1485 C   0  0  0  0  0  0  0  0  0  0  0  0
    2.9277    1.4298   -3.2583 O   0  0  0  0  0  0  0  0  0  0  0  0
    3.2205    3.3820   -1.9117 C   0  0  0  0  0  0  0  0  0  0  0  0
    3.6638    4.1553   -2.9938 C   0  0  0  0  0  0  0  0  0  0  0  0
    3.9546    5.5103   -2.8197 C   0  0  0  0  0  0  0  0  0  0  0  0
    3.7975    6.1017   -1.5669 C   0  0  0  0  0  0  0  0  0  0  0  0
    3.3502    5.3402   -0.4855 C   0  0  0  0  0  0  0  0  0  0  0  0
    3.0606    3.9847   -0.6556 C   0  0  0  0  0  0  0  0  0  0  0  0
    3.6410   -0.9999   -0.6785 C   0  0  1  0  0  0  0  0  0  0  0  0
    4.9058   -0.2722   -0.2421 C   0  0  0  0  0  0  0  0  0  0  0  0
    3.1224   -1.9585    0.4074 C   0  0  0  0  0  0  0  0  0  0  0  0
    1.5811   -2.0101    0.2337 C   0  0  1  0  0  0  0  0  0  0  0  0
    0.8922   -2.3715    1.4536 O   0  0  0  0  0  0  0  0  0  0  0  0
    1.2840   -3.4461    2.1855 C   0  0  0  0  0  0  0  0  0  0  0  0
    0.4455   -3.5406    3.4248 C   0  0  0  0  0  0  0  0  0  0  0  0
    2.1761   -4.2295    1.9001 O   0  0  0  0  0  0  0  0  0  0  0  0
    1.1160   -2.9107   -0.9792 C   0  0  1  0  0  0  0  0  0  0  0  0
    1.9048   -4.1310   -0.9659 O   0  0  0  0  0  0  0  0  0  0  0  0
    2.1758   -4.7162   -2.1598 C   0  0  0  0  0  0  0  0  0  0  0  0
    3.0004   -5.9486   -1.9485 C   0  0  0  0  0  0  0  0  0  0  0  0
    1.7912   -4.3155   -3.2474 O   0  0  0  0  0  0  0  0  0  0  0  0
   -0.4004   -3.2892   -1.1187 C   0  0  1  0  0  0  0  0  0  0  0  0
   -0.8218   -4.5346   -0.3228 C   0  0  0  0  0  0  0  0  0  0  0  0
   -1.4025   -2.1844   -0.8504 C   0  0  0  0  0  0  0  0  0  0  0  0
   -1.9040   -1.3657   -1.7901 C   0  0  0  0  0  0  0  0  0  0  0  0
   -2.9749   -0.2809   -1.6190 C   0  0  0  0  0  0  0  0  0  0  0  0
   -2.7059    0.8271   -2.6670 C   0  0  0  0  0  0  0  0  0  0  0  0
   -4.3223   -0.9429   -1.9976 C   0  0  0  0  0  0  0  0  0  0  0  0
   -3.1062    0.3530   -0.1741 C   0  0  2  0  0  0  0  0  0  0  0  0
   -4.2384    1.2664   -0.2002 O   0  0  0  0  0  0  0  0  0  0  0  0
   -5.0459    1.2811    0.8903 C   0  0  0  0  0  0  0  0  0  0  0  0
   -6.1066    2.3249    0.7261 C   0  0  0  0  0  0  0  0  0  0  0  0
   -4.9452    0.5470    1.8630 O   0  0  0  0  0  0  0  0  0  0  0  0
   -0.9454    5.4978    0.5603 H   0  0  0  0  0  0  0  0  0  0  0  0
   -2.3068    4.7967    1.4448 H   0  0  0  0  0  0  0  0  0  0  0  0
   -2.4847    5.1785   -0.2940 H   0  0  0  0  0  0  0  0  0  0  0  0
   -1.0927    1.0812   -0.5018 H   0  0  0  0  0  0  0  0  0  0  0  0
   -1.1468   -0.6116    1.3992 H   0  0  0  0  0  0  0  0  0  0  0  0
   -2.5666    0.4696    5.3923 H   0  0  0  0  0  0  0  0  0  0  0  0
   -3.9332    0.9512    4.3397 H   0  0  0  0  0  0  0  0  0  0  0  0
   -3.8647   -0.6912    4.9993 H   0  0  0  0  0  0  0  0  0  0  0  0
    0.1740    1.4122    3.9429 H   0  0  0  0  0  0  0  0  0  0  0  0
    1.4744    2.2170    3.0615 H   0  0  0  0  0  0  0  0  0  0  0  0
   -0.1831    2.7660    2.8409 H   0  0  0  0  0  0  0  0  0  0  0  0
    2.3020    0.7335    1.5265 H   0  0  0  0  0  0  0  0  0  0  0  0
    0.3677   -0.3553   -0.5606 H   0  0  0  0  0  0  0  0  0  0  0  0
    2.0932   -0.3630   -2.0456 H   0  0  0  0  0  0  0  0  0  0  0  0
    3.7809    3.7042   -3.9777 H   0  0  0  0  0  0  0  0  0  0  0  0
    4.2946    6.1065   -3.6645 H   0  0  0  0  0  0  0  0  0  0  0  0
    4.0223    7.1562   -1.4323 H   0  0  0  0  0  0  0  0  0  0  0  0
    3.2231    5.8016    0.4908 H   0  0  0  0  0  0  0  0  0  0  0  0
    2.6967    3.4110    0.1937 H   0  0  0  0  0  0  0  0  0  0  0  0
    3.8907   -1.5944   -1.5674 H   0  0  0  0  0  0  0  0  0  0  0  0
    5.2880    0.3664   -1.0448 H   0  0  0  0  0  0  0  0  0  0  0  0
    5.6960   -0.9866    0.0145 H   0  0  0  0  0  0  0  0  0  0  0  0
    4.7262    0.3546    0.6365 H   0  0  0  0  0  0  0  0  0  0  0  0
    3.3748   -1.5854    1.4097 H   0  0  0  0  0  0  0  0  0  0  0  0
    3.6126   -2.9335    0.3219 H   0  0  0  0  0  0  0  0  0  0  0  0
    0.5154   -2.6098    3.9937 H   0  0  0  0  0  0  0  0  0  0  0  0
   -0.5946   -3.7521    3.1591 H   0  0  0  0  0  0  0  0  0  0  0  0
    0.8212   -4.3551    4.0510 H   0  0  0  0  0  0  0  0  0  0  0  0
    1.3798   -2.3698   -1.8946 H   0  0  0  0  0  0  0  0  0  0  0  0
    3.3193   -6.3384   -2.9190 H   0  0  0  0  0  0  0  0  0  0  0  0
    2.4025   -6.7088   -1.4396 H   0  0  0  0  0  0  0  0  0  0  0  0
    3.8946   -5.7068   -1.3673 H   0  0  0  0  0  0  0  0  0  0  0  0
   -0.5301   -3.5905   -2.1684 H   0  0  0  0  0  0  0  0  0  0  0  0
   -1.8478   -4.8230   -0.5796 H   0  0  0  0  0  0  0  0  0  0  0  0
   -0.8012   -4.3624    0.7546 H   0  0  0  0  0  0  0  0  0  0  0  0
   -0.1895   -5.3985   -0.5433 H   0  0  0  0  0  0  0  0  0  0  0  0
   -1.7733   -2.1390    0.1709 H   0  0  0  0  0  0  0  0  0  0  0  0
   -1.5552   -1.5144   -2.8145 H   0  0  0  0  0  0  0  0  0  0  0  0
   -1.7103    1.2677   -2.5580 H   0  0  0  0  0  0  0  0  0  0  0  0
   -3.4410    1.6369   -2.5971 H   0  0  0  0  0  0  0  0  0  0  0  0
   -2.7595    0.4292   -3.6877 H   0  0  0  0  0  0  0  0  0  0  0  0
   -5.1366   -0.2100   -2.0467 H   0  0  0  0  0  0  0  0  0  0  0  0
   -4.6070   -1.7086   -1.2656 H   0  0  0  0  0  0  0  0  0  0  0  0
   -4.2724   -1.4261   -2.9815 H   0  0  0  0  0  0  0  0  0  0  0  0
   -3.3240   -0.4764    0.5102 H   0  0  0  0  0  0  0  0  0  0  0  0
   -5.6443    3.2942    0.5200 H   0  0  0  0  0  0  0  0  0  0  0  0
   -6.7821    2.0426   -0.0861 H   0  0  0  0  0  0  0  0  0  0  0  0
   -6.6808    2.4074    1.6528 H   0  0  0  0  0  0  0  0  0  0  0  0
  1  2  1  0
  2  3  2  0
  2  4  1  0
  4  5  1  0
  5  6  1  0
  6  7  1  0
  7  8  1  0
  8  9  1  0
  8 10  2  0
  6 11  1  0
 11 12  1  0
 11 13  2  0
 13 14  1  0
 14 15  1  0
 15 16  1  0
 16 17  1  0
 17 18  2  0
 17 19  1  0
 19 20  2  0
 20 21  1  0
 21 22  2  0
 22 23  1  0
 23 24  2  0
 15 25  1  0
 25 26  1  0
 25 27  1  0
 27 28  1  0
 28 29  1  1
 29 30  1  0
 30 31  1  0
 30 32  2  0
 28 33  1  0
 33 34  1  0
 34 35  1  0
 35 36  1  0
 35 37  2  0
 33 38  1  0
 38 39  1  0
 38 40  1  0
 40 41  2  0
 41 42  1  0
 42 43  1  0
 42 44  1  0
 42 45  1  0
 45 46  1  0
 46 47  1  0
 47 48  1  0
 47 49  2  0
 45  5  1  0
 28 14  1  0
 24 19  1  0
  1 50  1  0
  1 51  1  0
  1 52  1  0
  5 53  1  6
  6 54  1  6
  9 55  1  0
  9 56  1  0
  9 57  1  0
 12 58  1  0
 12 59  1  0
 12 60  1  0
 13 61  1  0
 14 62  1  6
 15 63  1  6
 20 64  1  0
 21 65  1  0
 22 66  1  0
 23 67  1  0
 24 68  1  0
 25 69  1  6
 26 70  1  0
 26 71  1  0
 26 72  1  0
 27 73  1  0
 27 74  1  0
 31 75  1  0
 31 76  1  0
 31 77  1  0
 33 78  1  6
 36 79  1  0
 36 80  1  0
 36 81  1  0
 38 82  1  6
 39 83  1  0
 39 84  1  0
 39 85  1  0
 40 86  1  0
 41 87  1  0
 43 88  1  0
 43 89  1  0
 43 90  1  0
 44 91  1  0
 44 92  1  0
 44 93  1  0
 45 94  1  1
 48 95  1  0
 48 96  1  0
 48 97  1  0
M  END
$$$$
