
     RDKit          3D

 71 73  0  0  0  0  0  0  0  0999 V2000
   -5.6722   -3.9972   -1.9702 C   0  0  0  0  0  0  0  0  0  0  0  0
   -5.8582   -3.6610   -0.6015 O   0  0  0  0  0  0  0  0  0  0  0  0
   -5.1695   -2.5769   -0.1153 C   0  0  0  0  0  0  0  0  0  0  0  0
   -4.1457   -1.9177   -0.8068 C   0  0  0  0  0  0  0  0  0  0  0  0
   -3.4945   -0.8258   -0.2246 C   0  0  0  0  0  0  0  0  0  0  0  0
   -2.4161   -0.1211   -0.9173 C   0  0  0  0  0  0  0  0  0  0  0  0
   -1.7806    0.9227   -0.3517 C   0  0  0  0  0  0  0  0  0  0  0  0
   -0.6681    1.6748   -1.0337 C   0  0  0  0  0  0  0  0  0  0  0  0
    0.6309    1.3732   -0.3927 N   0  0  0  0  0  0  0  0  0  0  0  0
    1.2046    2.4984    0.3807 C   0  0  0  0  0  0  0  0  0  0  0  0
    2.3286    3.2501   -0.3538 C   0  0  0  0  0  0  0  0  0  0  0  0
    1.8648    3.9826   -1.5971 C   0  0  0  0  0  0  0  0  0  0  0  0
    1.9923    3.3332   -2.8384 C   0  0  0  0  0  0  0  0  0  0  0  0
    1.5570    3.9378   -4.0160 C   0  0  0  0  0  0  0  0  0  0  0  0
    0.9896    5.2049   -3.9720 C   0  0  0  0  0  0  0  0  0  0  0  0
    0.8601    5.8673   -2.7516 C   0  0  0  0  0  0  0  0  0  0  0  0
    1.2923    5.2711   -1.5548 C   0  0  0  0  0  0  0  0  0  0  0  0
    1.1352    6.0357   -0.2686 C   0  0  0  0  0  0  0  0  0  0  0  0
    1.3724    0.2141   -0.7026 C   0  0  0  0  0  0  0  0  0  0  0  0
    1.0597   -0.7955   -2.0138 S   0  0  0  0  0  0  0  0  0  0  0  0
    2.4217   -0.0125    0.1705 N   0  0  0  0  0  0  0  0  0  0  0  0
    3.3846   -1.1158    0.1465 C   0  0  0  0  0  0  0  0  0  0  0  0
    2.8404   -2.3592    0.8497 C   0  0  0  0  0  0  0  0  0  0  0  0
    3.8236   -3.5350    0.8009 C   0  0  0  0  0  0  0  0  0  0  0  0
    5.1239   -3.2646    1.4371 N   0  0  0  0  0  0  0  0  0  0  0  0
    6.0658   -4.3456    1.1253 C   0  0  0  0  0  0  0  0  0  0  0  0
    5.0041   -3.1280    2.8914 C   0  0  0  0  0  0  0  0  0  0  0  0
   -2.2391    1.4215    0.9809 C   0  0  0  0  0  0  0  0  0  0  0  0
   -1.7720    2.4286    1.5034 O   0  0  0  0  0  0  0  0  0  0  0  0
   -3.2298    0.7130    1.6108 N   0  0  0  0  0  0  0  0  0  0  0  0
   -3.8732   -0.3946    1.0485 C   0  0  0  0  0  0  0  0  0  0  0  0
   -4.8848   -1.0452    1.7535 C   0  0  0  0  0  0  0  0  0  0  0  0
   -5.5308   -2.1456    1.1792 C   0  0  0  0  0  0  0  0  0  0  0  0
   -6.5444   -2.8446    1.7873 O   0  0  0  0  0  0  0  0  0  0  0  0
   -6.6999   -2.6785    3.1910 C   0  0  0  0  0  0  0  0  0  0  0  0
   -5.8989   -3.1474   -2.6238 H   0  0  0  0  0  0  0  0  0  0  0  0
   -4.6587   -4.3742   -2.1463 H   0  0  0  0  0  0  0  0  0  0  0  0
   -6.3735   -4.8000   -2.2140 H   0  0  0  0  0  0  0  0  0  0  0  0
   -3.8350   -2.2431   -1.7937 H   0  0  0  0  0  0  0  0  0  0  0  0
   -2.1283   -0.4834   -1.8992 H   0  0  0  0  0  0  0  0  0  0  0  0
   -0.6199    1.4269   -2.0992 H   0  0  0  0  0  0  0  0  0  0  0  0
   -0.8697    2.7518   -1.0021 H   0  0  0  0  0  0  0  0  0  0  0  0
    0.4079    3.1954    0.6539 H   0  0  0  0  0  0  0  0  0  0  0  0
    1.5878    2.1209    1.3331 H   0  0  0  0  0  0  0  0  0  0  0  0
    3.1375    2.5603   -0.6209 H   0  0  0  0  0  0  0  0  0  0  0  0
    2.7877    3.9666    0.3368 H   0  0  0  0  0  0  0  0  0  0  0  0
    2.4298    2.3376   -2.8912 H   0  0  0  0  0  0  0  0  0  0  0  0
    1.6608    3.4178   -4.9643 H   0  0  0  0  0  0  0  0  0  0  0  0
    0.6466    5.6800   -4.8877 H   0  0  0  0  0  0  0  0  0  0  0  0
    0.4154    6.8601   -2.7408 H   0  0  0  0  0  0  0  0  0  0  0  0
    0.4811    5.4974    0.4233 H   0  0  0  0  0  0  0  0  0  0  0  0
    0.6869    7.0211   -0.4376 H   0  0  0  0  0  0  0  0  0  0  0  0
    2.1117    6.2005    0.1978 H   0  0  0  0  0  0  0  0  0  0  0  0
    2.3278    0.4100    1.0791 H   0  0  0  0  0  0  0  0  0  0  0  0
    3.6691   -1.3356   -0.8865 H   0  0  0  0  0  0  0  0  0  0  0  0
    4.2769   -0.7448    0.6635 H   0  0  0  0  0  0  0  0  0  0  0  0
    2.5696   -2.1157    1.8836 H   0  0  0  0  0  0  0  0  0  0  0  0
    1.9058   -2.6786    0.3728 H   0  0  0  0  0  0  0  0  0  0  0  0
    3.9866   -3.7726   -0.2590 H   0  0  0  0  0  0  0  0  0  0  0  0
    3.3519   -4.4202    1.2460 H   0  0  0  0  0  0  0  0  0  0  0  0
    5.7194   -5.3154    1.5034 H   0  0  0  0  0  0  0  0  0  0  0  0
    7.0485   -4.1345    1.5617 H   0  0  0  0  0  0  0  0  0  0  0  0
    6.2171   -4.4263    0.0435 H   0  0  0  0  0  0  0  0  0  0  0  0
    4.3883   -2.2660    3.1602 H   0  0  0  0  0  0  0  0  0  0  0  0
    4.5727   -4.0214    3.3573 H   0  0  0  0  0  0  0  0  0  0  0  0
    5.9874   -2.9492    3.3410 H   0  0  0  0  0  0  0  0  0  0  0  0
   -3.5133    1.0669    2.5131 H   0  0  0  0  0  0  0  0  0  0  0  0
   -5.1645   -0.6803    2.7351 H   0  0  0  0  0  0  0  0  0  0  0  0
   -7.4276   -3.4193    3.5364 H   0  0  0  0  0  0  0  0  0  0  0  0
   -5.7599   -2.8639    3.7225 H   0  0  0  0  0  0  0  0  0  0  0  0
   -7.0976   -1.6859    3.4277 H   0  0  0  0  0  0  0  0  0  0  0  0
  1  2  1  0
  2  3  1  0
  3  4  2  0
  4  5  1  0
  5  6  1  0
  6  7  2  0
  7  8  1  0
  8  9  1  0
  9 10  1  0
 10 11  1  0
 11 12  1  0
 12 13  2  0
 13 14  1  0
 14 15  2  0
 15 16  1  0
 16 17  2  0
 17 18  1  0
  9 19  1  0
 19 20  2  0
 19 21  1  0
 21 22  1  0
 22 23  1  0
 23 24  1  0
 24 25  1  0
 25 26  1  0
 25 27  1  0
  7 28  1  0
 28 29  2  0
 28 30  1  0
 30 31  1  0
 31 32  1  0
 32 33  2  0
 33 34  1  0
 34 35  1  0
 33  3  1  0
 31  5  2  0
 17 12  1  0
  1 36  1  0
  1 37  1  0
  1 38  1  0
  4 39  1  0
  6 40  1  0
  8 41  1  0
  8 42  1  0
 10 43  1  0
 10 44  1  0
 11 45  1  0
 11 46  1  0
 13 47  1  0
 14 48  1  0
 15 49  1  0
 16 50  1  0
 18 51  1  0
 18 52  1  0
 18 53  1  0
 21 54  1  0
 22 55  1  0
 22 56  1  0
 23 57  1  0
 23 58  1  0
 24 59  1  0
 24 60  1  0
 26 61  1  0
 26 62  1  0
 26 63  1  0
 27 64  1  0
 27 65  1  0
 27 66  1  0
 30 67  1  0
 32 68  1  0
 35 69  1  0
 35 70  1  0
 35 71  1  0
M  END
$$$$
