
     RDKit          3D

 37 39  0  0  0  0  0  0  0  0999 V2000
    7.8212   -0.2008   -0.7158 C   0  0  0  0  0  0  0  0  0  0  0  0
    6.3049   -0.3101   -0.7442 C   0  0  0  0  0  0  0  0  0  0  0  0
    5.6436    0.9250   -0.1324 C   0  0  0  0  0  0  0  0  0  0  0  0
    4.1543    0.8261   -0.1837 C   0  0  0  0  0  0  0  0  0  0  0  0
    3.4138    1.1827   -1.2127 N   0  0  0  0  0  0  0  0  0  0  0  0
    2.0695    0.9762   -0.9752 N   0  0  0  0  0  0  0  0  0  0  0  0
    1.8465    0.4747    0.2195 C   0  0  0  0  0  0  0  0  0  0  0  0
    0.5844    0.1896    0.6677 N   0  0  0  0  0  0  0  0  0  0  0  0
    0.2238   -0.3337    1.8868 C   0  0  0  0  0  0  0  0  0  0  0  0
    0.9724   -0.6454    2.8087 O   0  0  0  0  0  0  0  0  0  0  0  0
   -1.2907   -0.5164    2.0302 C   0  0  0  0  0  0  0  0  0  0  0  0
   -1.9754   -0.0968    0.8525 O   0  0  0  0  0  0  0  0  0  0  0  0
   -3.3398   -0.2095    0.8529 C   0  0  0  0  0  0  0  0  0  0  0  0
   -4.1229   -0.7028    1.9140 C   0  0  0  0  0  0  0  0  0  0  0  0
   -5.5177   -0.7716    1.7997 C   0  0  0  0  0  0  0  0  0  0  0  0
   -6.0901   -0.3433    0.6227 C   0  0  0  0  0  0  0  0  0  0  0  0
   -5.3293    0.1384   -0.4141 C   0  0  0  0  0  0  0  0  0  0  0  0
   -3.9556    0.2175   -0.3296 C   0  0  0  0  0  0  0  0  0  0  0  0
   -6.0839    0.5081   -1.4831 O   0  0  0  0  0  0  0  0  0  0  0  0
   -7.4086    0.2033   -0.9989 C   0  0  0  0  0  0  0  0  0  0  0  0
   -7.4192   -0.3382    0.3389 O   0  0  0  0  0  0  0  0  0  0  0  0
    3.2527    0.2166    1.1447 S   0  0  0  0  0  0  0  0  0  0  0  0
    8.1885   -0.1074    0.3111 H   0  0  0  0  0  0  0  0  0  0  0  0
    8.2738   -1.0937   -1.1585 H   0  0  0  0  0  0  0  0  0  0  0  0
    8.1624    0.6703   -1.2841 H   0  0  0  0  0  0  0  0  0  0  0  0
    5.9730   -0.4400   -1.7816 H   0  0  0  0  0  0  0  0  0  0  0  0
    5.9998   -1.2117   -0.1991 H   0  0  0  0  0  0  0  0  0  0  0  0
    5.9541    1.8208   -0.6846 H   0  0  0  0  0  0  0  0  0  0  0  0
    5.9851    1.0621    0.9009 H   0  0  0  0  0  0  0  0  0  0  0  0
   -0.1560    0.3962    0.0059 H   0  0  0  0  0  0  0  0  0  0  0  0
   -1.4686   -1.5828    2.2108 H   0  0  0  0  0  0  0  0  0  0  0  0
   -1.6064    0.0900    2.8870 H   0  0  0  0  0  0  0  0  0  0  0  0
   -3.6786   -1.0421    2.8447 H   0  0  0  0  0  0  0  0  0  0  0  0
   -6.1301   -1.1498    2.6109 H   0  0  0  0  0  0  0  0  0  0  0  0
   -3.3742    0.6011   -1.1606 H   0  0  0  0  0  0  0  0  0  0  0  0
   -8.0061    1.1223   -1.0098 H   0  0  0  0  0  0  0  0  0  0  0  0
   -7.8705   -0.5248   -1.6755 H   0  0  0  0  0  0  0  0  0  0  0  0
  1  2  1  0
  2  3  1  0
  3  4  1  0
  4  5  2  0
  5  6  1  0
  6  7  2  0
  7  8  1  0
  8  9  1  0
  9 10  2  0
  9 11  1  0
 11 12  1  0
 12 13  1  0
 13 14  2  0
 14 15  1  0
 15 16  2  0
 16 17  1  0
 17 18  2  0
 17 19  1  0
 19 20  1  0
 20 21  1  0
  7 22  1  0
 22  4  1  0
 18 13  1  0
 21 16  1  0
  1 23  1  0
  1 24  1  0
  1 25  1  0
  2 26  1  0
  2 27  1  0
  3 28  1  0
  3 29  1  0
  8 30  1  0
 11 31  1  0
 11 32  1  0
 14 33  1  0
 15 34  1  0
 18 35  1  0
 20 36  1  0
 20 37  1  0
M  END
$$$$
