
     RDKit          3D

 51 55  0  0  0  0  0  0  0  0999 V2000
    1.9694    3.4641   -1.2312 O   0  0  0  0  0  0  0  0  0  0  0  0
    1.1900    2.6391   -0.7567 C   0  0  0  0  0  0  0  0  0  0  0  0
   -0.3230    2.9125   -0.7924 C   0  0  0  0  0  0  0  0  0  0  0  0
   -1.2035    1.7768   -0.4654 N   0  0  0  0  0  0  0  0  0  0  0  0
   -1.5690    1.5959    0.8664 C   0  0  0  0  0  0  0  0  0  0  0  0
   -1.1988    2.3541    1.7636 O   0  0  0  0  0  0  0  0  0  0  0  0
   -2.3574    0.3560    1.2083 C   0  0  0  0  0  0  0  0  0  0  0  0
   -3.8494    0.6031    1.0758 C   0  0  0  0  0  0  0  0  0  0  0  0
   -4.6391   -0.6403    1.3345 C   0  0  0  0  0  0  0  0  0  0  0  0
   -5.7458   -0.9057    2.1164 C   0  0  0  0  0  0  0  0  0  0  0  0
   -6.0349   -2.2815    1.9495 C   0  0  0  0  0  0  0  0  0  0  0  0
   -5.0912   -2.7686    1.0771 C   0  0  0  0  0  0  0  0  0  0  0  0
   -4.2386   -1.7827    0.6998 O   0  0  0  0  0  0  0  0  0  0  0  0
   -4.3710    1.3444   -0.5163 S   0  0  0  0  0  0  0  0  0  0  0  0
   -3.1283    0.6900   -1.6278 C   0  0  0  0  0  0  0  0  0  0  0  0
   -3.6043   -0.0583   -2.7160 C   0  0  0  0  0  0  0  0  0  0  0  0
   -2.7422   -0.4702   -3.7305 C   0  0  0  0  0  0  0  0  0  0  0  0
   -1.3999   -0.1149   -3.6813 C   0  0  0  0  0  0  0  0  0  0  0  0
   -0.9134    0.6370   -2.6090 C   0  0  0  0  0  0  0  0  0  0  0  0
   -1.7584    1.0302   -1.5562 C   0  0  0  0  0  0  0  0  0  0  0  0
    1.5444    1.4560   -0.1367 N   0  0  0  0  0  0  0  0  0  0  0  0
    2.8351    0.9230    0.0492 C   0  0  0  0  0  0  0  0  0  0  0  0
    4.0081    1.5416   -0.3921 C   0  0  0  0  0  0  0  0  0  0  0  0
    5.2537    0.9409   -0.1751 C   0  0  0  0  0  0  0  0  0  0  0  0
    5.3332   -0.2837    0.4808 C   0  0  0  0  0  0  0  0  0  0  0  0
    4.1689   -0.8966    0.9474 C   0  0  0  0  0  0  0  0  0  0  0  0
    2.9258   -0.3044    0.7200 C   0  0  0  0  0  0  0  0  0  0  0  0
    4.1683   -2.0869    1.6315 O   0  0  0  0  0  0  0  0  0  0  0  0
    5.4796   -2.4081    2.1122 C   0  0  0  0  0  0  0  0  0  0  0  0
    6.5163   -2.2005    1.0201 C   0  0  0  0  0  0  0  0  0  0  0  0
    6.5837   -0.8210    0.6404 O   0  0  0  0  0  0  0  0  0  0  0  0
   -0.5144    3.7297   -0.0866 H   0  0  0  0  0  0  0  0  0  0  0  0
   -0.5783    3.2863   -1.7919 H   0  0  0  0  0  0  0  0  0  0  0  0
   -2.0001   -0.4937    0.6135 H   0  0  0  0  0  0  0  0  0  0  0  0
   -2.1166    0.0849    2.2457 H   0  0  0  0  0  0  0  0  0  0  0  0
   -4.1378    1.3443    1.8326 H   0  0  0  0  0  0  0  0  0  0  0  0
   -6.2800   -0.1913    2.7276 H   0  0  0  0  0  0  0  0  0  0  0  0
   -6.8351   -2.8478    2.4052 H   0  0  0  0  0  0  0  0  0  0  0  0
   -4.8998   -3.7427    0.6478 H   0  0  0  0  0  0  0  0  0  0  0  0
   -4.6607   -0.3111   -2.7901 H   0  0  0  0  0  0  0  0  0  0  0  0
   -3.1246   -1.0496   -4.5675 H   0  0  0  0  0  0  0  0  0  0  0  0
   -0.7263   -0.4222   -4.4786 H   0  0  0  0  0  0  0  0  0  0  0  0
    0.1468    0.8754   -2.6062 H   0  0  0  0  0  0  0  0  0  0  0  0
    0.7794    0.9123    0.2426 H   0  0  0  0  0  0  0  0  0  0  0  0
    3.9926    2.4958   -0.9100 H   0  0  0  0  0  0  0  0  0  0  0  0
    6.1579    1.4305   -0.5267 H   0  0  0  0  0  0  0  0  0  0  0  0
    2.0361   -0.8101    1.0851 H   0  0  0  0  0  0  0  0  0  0  0  0
    5.6912   -1.7854    2.9908 H   0  0  0  0  0  0  0  0  0  0  0  0
    5.4687   -3.4557    2.4303 H   0  0  0  0  0  0  0  0  0  0  0  0
    6.2850   -2.7961    0.1280 H   0  0  0  0  0  0  0  0  0  0  0  0
    7.5078   -2.4948    1.3777 H   0  0  0  0  0  0  0  0  0  0  0  0
  1  2  2  0
  2  3  1  0
  3  4  1  0
  4  5  1  0
  5  6  2  0
  5  7  1  0
  7  8  1  0
  8  9  1  0
  9 10  2  0
 10 11  1  0
 11 12  2  0
 12 13  1  0
  8 14  1  0
 14 15  1  0
 15 16  2  0
 16 17  1  0
 17 18  2  0
 18 19  1  0
 19 20  2  0
  2 21  1  0
 21 22  1  0
 22 23  2  0
 23 24  1  0
 24 25  2  0
 25 26  1  0
 26 27  2  0
 26 28  1  0
 28 29  1  0
 29 30  1  0
 30 31  1  0
 20  4  1  0
 27 22  1  0
 13  9  1  0
 20 15  1  0
 31 25  1  0
  3 32  1  0
  3 33  1  0
  7 34  1  0
  7 35  1  0
  8 36  1  0
 10 37  1  0
 11 38  1  0
 12 39  1  0
 16 40  1  0
 17 41  1  0
 18 42  1  0
 19 43  1  0
 21 44  1  0
 23 45  1  0
 24 46  1  0
 27 47  1  0
 29 48  1  0
 29 49  1  0
 30 50  1  0
 30 51  1  0
M  END
$$$$
