
     RDKit          3D

 36 37  0  0  0  0  0  0  0  0999 V2000
   -2.4308    0.4230    2.3513 C   0  0  0  0  0  0  0  0  0  0  0  0
   -2.6647    1.3311    0.7968 S   0  0  0  0  0  0  0  0  0  0  0  0
   -3.3152    0.0014   -0.2154 C   0  0  0  0  0  0  0  0  0  0  0  0
   -4.6772    0.0990   -0.5490 C   0  0  0  0  0  0  0  0  0  0  0  0
   -5.3083   -0.8948   -1.2999 C   0  0  0  0  0  0  0  0  0  0  0  0
   -4.5879   -2.0034   -1.7292 C   0  0  0  0  0  0  0  0  0  0  0  0
   -3.2327   -2.1103   -1.4183 C   0  0  0  0  0  0  0  0  0  0  0  0
   -2.5803   -1.1080   -0.6763 C   0  0  0  0  0  0  0  0  0  0  0  0
   -1.1210   -1.3252   -0.4390 C   0  0  0  0  0  0  0  0  0  0  0  0
   -0.7390   -2.4718   -0.2319 O   0  0  0  0  0  0  0  0  0  0  0  0
   -0.3321   -0.1953   -0.5160 N   0  0  0  0  0  0  0  0  0  0  0  0
    1.0646   -0.1014   -0.3517 C   0  0  0  0  0  0  0  0  0  0  0  0
    1.8994   -1.1925   -0.1309 C   0  0  0  0  0  0  0  0  0  0  0  0
    3.2773   -1.0091    0.0229 C   0  0  0  0  0  0  0  0  0  0  0  0
    3.8490    0.2691   -0.0411 C   0  0  0  0  0  0  0  0  0  0  0  0
    5.3352    0.4218    0.1293 C   0  0  0  0  0  0  0  0  0  0  0  0
    3.0147    1.3793   -0.2654 C   0  0  0  0  0  0  0  0  0  0  0  0
    3.5706    2.7748   -0.3438 C   0  0  0  0  0  0  0  0  0  0  0  0
    1.6308    1.1787   -0.4182 C   0  0  0  0  0  0  0  0  0  0  0  0
   -3.3753   -0.0195    2.6797 H   0  0  0  0  0  0  0  0  0  0  0  0
   -2.0868    1.1188    3.1212 H   0  0  0  0  0  0  0  0  0  0  0  0
   -1.6815   -0.3643    2.2390 H   0  0  0  0  0  0  0  0  0  0  0  0
   -5.2671    0.9514   -0.2152 H   0  0  0  0  0  0  0  0  0  0  0  0
   -6.3646   -0.8043   -1.5423 H   0  0  0  0  0  0  0  0  0  0  0  0
   -5.0763   -2.7841   -2.3075 H   0  0  0  0  0  0  0  0  0  0  0  0
   -2.6757   -2.9804   -1.7643 H   0  0  0  0  0  0  0  0  0  0  0  0
   -0.8185    0.6832   -0.6606 H   0  0  0  0  0  0  0  0  0  0  0  0
    1.5129   -2.2049   -0.0745 H   0  0  0  0  0  0  0  0  0  0  0  0
    3.9015   -1.8838    0.1938 H   0  0  0  0  0  0  0  0  0  0  0  0
    5.8219   -0.5444    0.3001 H   0  0  0  0  0  0  0  0  0  0  0  0
    5.5560    1.0583    0.9920 H   0  0  0  0  0  0  0  0  0  0  0  0
    5.7782    0.8592   -0.7710 H   0  0  0  0  0  0  0  0  0  0  0  0
    4.0591    3.0428    0.5983 H   0  0  0  0  0  0  0  0  0  0  0  0
    4.2908    2.8517   -1.1644 H   0  0  0  0  0  0  0  0  0  0  0  0
    2.7825    3.5127   -0.5277 H   0  0  0  0  0  0  0  0  0  0  0  0
    0.9904    2.0413   -0.5894 H   0  0  0  0  0  0  0  0  0  0  0  0
  1  2  1  0
  2  3  1  0
  3  4  2  0
  4  5  1  0
  5  6  2  0
  6  7  1  0
  7  8  2  0
  8  9  1  0
  9 10  2  0
  9 11  1  0
 11 12  1  0
 12 13  2  0
 13 14  1  0
 14 15  2  0
 15 16  1  0
 15 17  1  0
 17 18  1  0
 17 19  2  0
  8  3  1  0
 19 12  1  0
  1 20  1  0
  1 21  1  0
  1 22  1  0
  4 23  1  0
  5 24  1  0
  6 25  1  0
  7 26  1  0
 11 27  1  0
 13 28  1  0
 14 29  1  0
 16 30  1  0
 16 31  1  0
 16 32  1  0
 18 33  1  0
 18 34  1  0
 18 35  1  0
 19 36  1  0
M  END
$$$$
