
     RDKit          3D

 69 71  0  0  0  0  0  0  0  0999 V2000
   -5.0703    4.3957    0.7568 C   0  0  0  0  0  0  0  0  0  0  0  0
   -3.7624    3.9051    1.0533 O   0  0  0  0  0  0  0  0  0  0  0  0
   -3.3834    2.8894    0.2124 C   0  0  0  0  0  0  0  0  0  0  0  0
   -3.3424    3.1066   -1.1675 C   0  0  0  0  0  0  0  0  0  0  0  0
   -2.9815    2.0734   -2.0254 C   0  0  0  0  0  0  0  0  0  0  0  0
   -2.6597    0.8195   -1.5084 C   0  0  0  0  0  0  0  0  0  0  0  0
   -2.6718    0.5780   -0.1211 C   0  0  0  0  0  0  0  0  0  0  0  0
   -2.3057   -0.7979    0.4457 C   0  0  0  0  0  0  0  0  0  0  0  0
   -2.6828   -1.9932   -0.4801 C   0  0  0  0  0  0  0  0  0  0  0  0
   -3.8511   -2.3666   -0.5956 O   0  0  0  0  0  0  0  0  0  0  0  0
   -1.6558   -2.5321   -1.2312 N   0  0  0  0  0  0  0  0  0  0  0  0
   -1.8084   -3.5758   -2.2532 C   0  0  0  0  0  0  0  0  0  0  0  0
   -0.4045   -3.9184   -2.7844 C   0  0  0  0  0  0  0  0  0  0  0  0
   -2.4191   -4.8551   -1.6593 C   0  0  0  0  0  0  0  0  0  0  0  0
   -2.6656   -3.0726   -3.4243 C   0  0  0  0  0  0  0  0  0  0  0  0
   -0.9259   -0.8533    1.0051 N   0  0  0  0  0  0  0  0  0  0  0  0
    0.1706   -0.5045    0.2249 C   0  0  0  0  0  0  0  0  0  0  0  0
    0.1069   -0.4338   -1.0051 O   0  0  0  0  0  0  0  0  0  0  0  0
    1.4815   -0.2674    0.9520 C   0  0  0  0  0  0  0  0  0  0  0  0
    2.5115    0.3750    0.0279 C   0  0  0  0  0  0  0  0  0  0  0  0
    3.8147    0.6649    0.7473 C   0  0  0  0  0  0  0  0  0  0  0  0
    3.9866    0.3551    1.9193 O   0  0  0  0  0  0  0  0  0  0  0  0
    4.7169    1.2913   -0.0914 N   0  0  0  0  0  0  0  0  0  0  0  0
    5.9955    1.6704    0.2707 C   0  0  0  0  0  0  0  0  0  0  0  0
    6.8924    2.3255   -0.6096 C   0  0  0  0  0  0  0  0  0  0  0  0
    8.0313    2.5177    0.1320 C   0  0  0  0  0  0  0  0  0  0  0  0
    9.3472    3.1220   -0.1369 C   0  0  0  0  0  0  0  0  0  0  0  0
    7.8384    2.0093    1.3765 O   0  0  0  0  0  0  0  0  0  0  0  0
    6.5660    1.4820    1.4640 N   0  0  0  0  0  0  0  0  0  0  0  0
   -0.8155   -1.1456    2.4182 C   0  0  0  0  0  0  0  0  0  0  0  0
   -0.0465   -2.3449    2.9162 C   0  0  0  0  0  0  0  0  0  0  0  0
   -1.5339   -2.3148    3.0503 C   0  0  0  0  0  0  0  0  0  0  0  0
   -3.0005    1.6448    0.7452 C   0  0  0  0  0  0  0  0  0  0  0  0
   -2.9933    1.3555    2.0889 O   0  0  0  0  0  0  0  0  0  0  0  0
   -2.4463    2.3697    2.9273 C   0  0  0  0  0  0  0  0  0  0  0  0
   -5.4396    4.9163    1.6455 H   0  0  0  0  0  0  0  0  0  0  0  0
   -5.7718    3.5856    0.5251 H   0  0  0  0  0  0  0  0  0  0  0  0
   -5.0324    5.1193   -0.0638 H   0  0  0  0  0  0  0  0  0  0  0  0
   -3.5841    4.0801   -1.5833 H   0  0  0  0  0  0  0  0  0  0  0  0
   -2.9520    2.2410   -3.0990 H   0  0  0  0  0  0  0  0  0  0  0  0
   -2.3832    0.0338   -2.2085 H   0  0  0  0  0  0  0  0  0  0  0  0
   -2.9851   -0.9565    1.2961 H   0  0  0  0  0  0  0  0  0  0  0  0
   -0.8559   -1.9104   -1.3438 H   0  0  0  0  0  0  0  0  0  0  0  0
    0.0769   -3.0385   -3.2272 H   0  0  0  0  0  0  0  0  0  0  0  0
    0.2471   -4.2717   -1.9767 H   0  0  0  0  0  0  0  0  0  0  0  0
   -0.4459   -4.6989   -3.5525 H   0  0  0  0  0  0  0  0  0  0  0  0
   -1.8486   -5.1939   -0.7865 H   0  0  0  0  0  0  0  0  0  0  0  0
   -3.4542   -4.7070   -1.3357 H   0  0  0  0  0  0  0  0  0  0  0  0
   -2.4246   -5.6682   -2.3949 H   0  0  0  0  0  0  0  0  0  0  0  0
   -2.2477   -2.1528   -3.8498 H   0  0  0  0  0  0  0  0  0  0  0  0
   -3.6917   -2.8501   -3.1143 H   0  0  0  0  0  0  0  0  0  0  0  0
   -2.7199   -3.8193   -4.2245 H   0  0  0  0  0  0  0  0  0  0  0  0
    1.3044    0.3877    1.8122 H   0  0  0  0  0  0  0  0  0  0  0  0
    1.8643   -1.2279    1.3115 H   0  0  0  0  0  0  0  0  0  0  0  0
    2.1174    1.3168   -0.3737 H   0  0  0  0  0  0  0  0  0  0  0  0
    2.7274   -0.2907   -0.8168 H   0  0  0  0  0  0  0  0  0  0  0  0
    4.4390    1.5001   -1.0395 H   0  0  0  0  0  0  0  0  0  0  0  0
    6.7342    2.6167   -1.6367 H   0  0  0  0  0  0  0  0  0  0  0  0
    9.2678    3.9015   -0.9015 H   0  0  0  0  0  0  0  0  0  0  0  0
    9.7638    3.5776    0.7672 H   0  0  0  0  0  0  0  0  0  0  0  0
   10.0494    2.3617   -0.4934 H   0  0  0  0  0  0  0  0  0  0  0  0
   -0.7600   -0.2425    3.0223 H   0  0  0  0  0  0  0  0  0  0  0  0
    0.5502   -2.2258    3.8138 H   0  0  0  0  0  0  0  0  0  0  0  0
    0.3749   -3.0356    2.1951 H   0  0  0  0  0  0  0  0  0  0  0  0
   -2.1008   -2.9957    2.4263 H   0  0  0  0  0  0  0  0  0  0  0  0
   -1.9566   -2.1708    4.0379 H   0  0  0  0  0  0  0  0  0  0  0  0
   -2.0085    1.8757    3.8001 H   0  0  0  0  0  0  0  0  0  0  0  0
   -3.2389    3.0288    3.2910 H   0  0  0  0  0  0  0  0  0  0  0  0
   -1.6484    2.9385    2.4378 H   0  0  0  0  0  0  0  0  0  0  0  0
  1  2  1  0
  2  3  1  0
  3  4  2  0
  4  5  1  0
  5  6  2  0
  6  7  1  0
  7  8  1  0
  8  9  1  0
  9 10  2  0
  9 11  1  0
 11 12  1  0
 12 13  1  0
 12 14  1  0
 12 15  1  0
  8 16  1  0
 16 17  1  0
 17 18  2  0
 17 19  1  0
 19 20  1  0
 20 21  1  0
 21 22  2  0
 21 23  1  0
 23 24  1  0
 24 25  1  0
 25 26  2  0
 26 27  1  0
 26 28  1  0
 28 29  1  0
 16 30  1  0
 30 31  1  0
 31 32  1  0
  7 33  2  0
 33 34  1  0
 34 35  1  0
 33  3  1  0
 29 24  2  0
 32 30  1  0
  1 36  1  0
  1 37  1  0
  1 38  1  0
  4 39  1  0
  5 40  1  0
  6 41  1  0
  8 42  1  0
 11 43  1  0
 13 44  1  0
 13 45  1  0
 13 46  1  0
 14 47  1  0
 14 48  1  0
 14 49  1  0
 15 50  1  0
 15 51  1  0
 15 52  1  0
 19 53  1  0
 19 54  1  0
 20 55  1  0
 20 56  1  0
 23 57  1  0
 25 58  1  0
 27 59  1  0
 27 60  1  0
 27 61  1  0
 30 62  1  0
 31 63  1  0
 31 64  1  0
 32 65  1  0
 32 66  1  0
 35 67  1  0
 35 68  1  0
 35 69  1  0
M  END
$$$$
