
     RDKit          3D

 55 58  0  0  0  0  0  0  0  0999 V2000
    3.0762   -1.2347    2.1708 O   0  0  0  0  0  0  0  0  0  0  0  0
    2.7327   -0.1704    1.6555 C   0  0  0  0  0  0  0  0  0  0  0  0
    1.3713    0.4554    1.8656 C   0  0  0  0  0  0  0  0  0  0  0  0
    0.2275   -0.1666    0.5986 S   0  0  0  0  0  0  0  0  0  0  0  0
   -1.1981    0.7146    1.0223 C   0  0  0  0  0  0  0  0  0  0  0  0
   -1.2513    1.6908    1.8943 N   0  0  0  0  0  0  0  0  0  0  0  0
   -2.5355    2.1624    1.9120 N   0  0  0  0  0  0  0  0  0  0  0  0
   -3.2620    1.4388    1.0782 C   0  0  0  0  0  0  0  0  0  0  0  0
   -4.6635    1.7073    0.7703 C   0  0  0  0  0  0  0  0  0  0  0  0
   -5.6392    0.7104    0.8901 C   0  0  0  0  0  0  0  0  0  0  0  0
   -6.9704    0.9746    0.5549 C   0  0  0  0  0  0  0  0  0  0  0  0
   -7.3417    2.2428    0.1109 C   0  0  0  0  0  0  0  0  0  0  0  0
   -6.3881    3.2551    0.0227 C   0  0  0  0  0  0  0  0  0  0  0  0
   -5.0651    2.9901    0.3680 C   0  0  0  0  0  0  0  0  0  0  0  0
   -4.1893    4.0418    0.2967 O   0  0  0  0  0  0  0  0  0  0  0  0
   -2.4342    0.5168    0.4639 N   0  0  0  0  0  0  0  0  0  0  0  0
   -2.7602   -0.3103   -0.6875 C   0  0  0  0  0  0  0  0  0  0  0  0
   -3.4408   -1.6115   -0.3332 C   0  0  0  0  0  0  0  0  0  0  0  0
   -2.9658   -2.4548    0.6827 C   0  0  0  0  0  0  0  0  0  0  0  0
   -3.6096   -3.6619    0.9640 C   0  0  0  0  0  0  0  0  0  0  0  0
   -4.7267   -4.0495    0.2280 C   0  0  0  0  0  0  0  0  0  0  0  0
   -5.1989   -3.2340   -0.7962 C   0  0  0  0  0  0  0  0  0  0  0  0
   -4.5564   -2.0278   -1.0804 C   0  0  0  0  0  0  0  0  0  0  0  0
    3.5712    0.5598    0.8349 N   0  0  0  0  0  0  0  0  0  0  0  0
    4.7886   -0.0218    0.4620 N   0  0  0  0  0  0  0  0  0  0  0  0
    5.5736    0.6471   -0.4536 C   0  0  0  0  0  0  0  0  0  0  0  0
    5.2126    1.6965   -0.9898 O   0  0  0  0  0  0  0  0  0  0  0  0
    6.9156    0.0814   -0.7613 C   0  0  0  0  0  0  0  0  0  0  0  0
    7.2426   -1.2518   -0.4686 C   0  0  0  0  0  0  0  0  0  0  0  0
    8.5198   -1.7438   -0.7567 C   0  0  0  0  0  0  0  0  0  0  0  0
    9.4752   -0.9152   -1.3434 C   0  0  0  0  0  0  0  0  0  0  0  0
    9.1548    0.4046   -1.6555 C   0  0  0  0  0  0  0  0  0  0  0  0
    7.8815    0.8965   -1.3742 C   0  0  0  0  0  0  0  0  0  0  0  0
    7.6520    2.2001   -1.7295 O   0  0  0  0  0  0  0  0  0  0  0  0
    1.0179    0.1920    2.8678 H   0  0  0  0  0  0  0  0  0  0  0  0
    1.4558    1.5457    1.8064 H   0  0  0  0  0  0  0  0  0  0  0  0
   -5.3816   -0.2779    1.2630 H   0  0  0  0  0  0  0  0  0  0  0  0
   -7.7189    0.1908    0.6486 H   0  0  0  0  0  0  0  0  0  0  0  0
   -8.3771    2.4490   -0.1482 H   0  0  0  0  0  0  0  0  0  0  0  0
   -6.6753    4.2521   -0.2996 H   0  0  0  0  0  0  0  0  0  0  0  0
   -3.4103    3.8204    0.8457 H   0  0  0  0  0  0  0  0  0  0  0  0
   -3.3965    0.2992   -1.3413 H   0  0  0  0  0  0  0  0  0  0  0  0
   -1.8498   -0.5186   -1.2584 H   0  0  0  0  0  0  0  0  0  0  0  0
   -2.0892   -2.1921    1.2701 H   0  0  0  0  0  0  0  0  0  0  0  0
   -3.2322   -4.3050    1.7569 H   0  0  0  0  0  0  0  0  0  0  0  0
   -5.2234   -4.9912    0.4488 H   0  0  0  0  0  0  0  0  0  0  0  0
   -6.0652   -3.5394   -1.3773 H   0  0  0  0  0  0  0  0  0  0  0  0
   -4.9429   -1.4099   -1.8905 H   0  0  0  0  0  0  0  0  0  0  0  0
    3.2382    1.3210    0.2435 H   0  0  0  0  0  0  0  0  0  0  0  0
    5.1041   -0.7975    1.0403 H   0  0  0  0  0  0  0  0  0  0  0  0
    6.5199   -1.9372   -0.0363 H   0  0  0  0  0  0  0  0  0  0  0  0
    8.7689   -2.7778   -0.5273 H   0  0  0  0  0  0  0  0  0  0  0  0
   10.4681   -1.2982   -1.5662 H   0  0  0  0  0  0  0  0  0  0  0  0
    9.8936    1.0514   -2.1219 H   0  0  0  0  0  0  0  0  0  0  0  0
    6.6974    2.3901   -1.5917 H   0  0  0  0  0  0  0  0  0  0  0  0
  1  2  2  0
  2  3  1  0
  3  4  1  0
  4  5  1  0
  5  6  2  0
  6  7  1  0
  7  8  2  0
  8  9  1  0
  9 10  2  0
 10 11  1  0
 11 12  2  0
 12 13  1  0
 13 14  2  0
 14 15  1  0
  8 16  1  0
 16 17  1  0
 17 18  1  0
 18 19  2  0
 19 20  1  0
 20 21  2  0
 21 22  1  0
 22 23  2  0
  2 24  1  0
 24 25  1  0
 25 26  1  0
 26 27  2  0
 26 28  1  0
 28 29  2  0
 29 30  1  0
 30 31  2  0
 31 32  1  0
 32 33  2  0
 33 34  1  0
 16  5  1  0
 23 18  1  0
 33 28  1  0
 14  9  1  0
  3 35  1  0
  3 36  1  0
 10 37  1  0
 11 38  1  0
 12 39  1  0
 13 40  1  0
 15 41  1  0
 17 42  1  0
 17 43  1  0
 19 44  1  0
 20 45  1  0
 21 46  1  0
 22 47  1  0
 23 48  1  0
 24 49  1  0
 25 50  1  0
 29 51  1  0
 30 52  1  0
 31 53  1  0
 32 54  1  0
 34 55  1  0
M  END
$$$$
