
     RDKit          3D

 46 48  0  0  0  0  0  0  0  0999 V2000
    3.6422    0.0048   -4.1438 C   0  0  0  0  0  0  0  0  0  0  0  0
    2.5924    0.6626   -3.2621 C   0  0  0  0  0  0  0  0  0  0  0  0
    2.4472    0.0313   -1.8527 N   0  0  0  0  0  4  0  0  0  0  0  0
    2.0807   -1.4483   -1.9730 C   0  0  0  0  0  0  0  0  0  0  0  0
    3.7472    0.1773   -1.0683 C   0  0  0  0  0  0  0  0  0  0  0  0
    1.2957    0.8142   -1.1527 C   0  0  0  0  0  0  0  0  0  0  0  0
    1.0844    0.4611    0.3263 C   0  0  0  0  0  0  0  0  0  0  0  0
   -0.1685    1.0971    0.8776 C   0  0  0  0  0  0  0  0  0  0  0  0
   -1.3185    0.4968    1.2652 C   0  0  0  0  0  0  0  0  0  0  0  0
   -2.3023    1.3169    2.0257 C   0  0  0  0  0  0  0  0  0  0  0  0
   -2.7303    2.5770    1.5801 C   0  0  0  0  0  0  0  0  0  0  0  0
   -3.6548    3.3128    2.3241 C   0  0  0  0  0  0  0  0  0  0  0  0
   -4.1647    2.7962    3.5133 C   0  0  0  0  0  0  0  0  0  0  0  0
   -3.7614    1.5367    3.9583 C   0  0  0  0  0  0  0  0  0  0  0  0
   -2.8414    0.7867    3.2163 C   0  0  0  0  0  0  0  0  0  0  0  0
   -2.3745   -0.8360    3.8276 S   0  0  0  0  0  0  0  0  0  0  0  0
   -1.9860   -1.6742    2.2929 C   0  0  0  0  0  0  0  0  0  0  0  0
   -2.1662   -3.0622    2.2241 C   0  0  0  0  0  0  0  0  0  0  0  0
   -1.9241   -3.7476    1.0314 C   0  0  0  0  0  0  0  0  0  0  0  0
   -1.5265   -3.0404   -0.0987 C   0  0  0  0  0  0  0  0  0  0  0  0
   -1.2253   -3.8672   -1.5767 Cl  0  0  0  0  0  0  0  0  0  0  0  0
   -1.3498   -1.6587   -0.0452 C   0  0  0  0  0  0  0  0  0  0  0  0
   -1.5281   -0.9702    1.1622 C   0  0  0  0  0  0  0  0  0  0  0  0
    3.6801    0.5249   -5.1075 H   0  0  0  0  0  0  0  0  0  0  0  0
    3.4076   -1.0411   -4.3574 H   0  0  0  0  0  0  0  0  0  0  0  0
    4.6444    0.0618   -3.7120 H   0  0  0  0  0  0  0  0  0  0  0  0
    1.6090    0.5977   -3.7422 H   0  0  0  0  0  0  0  0  0  0  0  0
    2.8400    1.7200   -3.1130 H   0  0  0  0  0  0  0  0  0  0  0  0
    2.9076   -1.9801   -2.4496 H   0  0  0  0  0  0  0  0  0  0  0  0
    1.9293   -1.8626   -0.9746 H   0  0  0  0  0  0  0  0  0  0  0  0
    1.1685   -1.5304   -2.5701 H   0  0  0  0  0  0  0  0  0  0  0  0
    4.5419   -0.3588   -1.5918 H   0  0  0  0  0  0  0  0  0  0  0  0
    3.6161   -0.2710   -0.0802 H   0  0  0  0  0  0  0  0  0  0  0  0
    3.9832    1.2417   -0.9857 H   0  0  0  0  0  0  0  0  0  0  0  0
    0.3905    0.6194   -1.7401 H   0  0  0  0  0  0  0  0  0  0  0  0
    1.5404    1.8799   -1.2445 H   0  0  0  0  0  0  0  0  0  0  0  0
    1.9238    0.8461    0.9183 H   0  0  0  0  0  0  0  0  0  0  0  0
    1.0805   -0.6171    0.4930 H   0  0  0  0  0  0  0  0  0  0  0  0
   -0.0560    2.1666    1.0691 H   0  0  0  0  0  0  0  0  0  0  0  0
   -2.3604    2.9948    0.6478 H   0  0  0  0  0  0  0  0  0  0  0  0
   -3.9829    4.2895    1.9753 H   0  0  0  0  0  0  0  0  0  0  0  0
   -4.8847    3.3704    4.0924 H   0  0  0  0  0  0  0  0  0  0  0  0
   -4.1771    1.1439    4.8839 H   0  0  0  0  0  0  0  0  0  0  0  0
   -2.5090   -3.6174    3.0957 H   0  0  0  0  0  0  0  0  0  0  0  0
   -2.0687   -4.8247    0.9911 H   0  0  0  0  0  0  0  0  0  0  0  0
   -1.0913   -1.1202   -0.9496 H   0  0  0  0  0  0  0  0  0  0  0  0
  1  2  1  0
  2  3  1  0
  3  4  1  0
  3  5  1  0
  3  6  1  0
  6  7  1  0
  7  8  1  0
  8  9  2  3
  9 10  1  0
 10 11  2  0
 11 12  1  0
 12 13  2  0
 13 14  1  0
 14 15  2  0
 15 16  1  0
 16 17  1  0
 17 18  2  0
 18 19  1  0
 19 20  2  0
 20 21  1  0
 20 22  1  0
 22 23  2  0
 23  9  1  0
 15 10  1  0
 23 17  1  0
  1 24  1  0
  1 25  1  0
  1 26  1  0
  2 27  1  0
  2 28  1  0
  4 29  1  0
  4 30  1  0
  4 31  1  0
  5 32  1  0
  5 33  1  0
  5 34  1  0
  6 35  1  0
  6 36  1  0
  7 37  1  0
  7 38  1  0
  8 39  1  0
 11 40  1  0
 12 41  1  0
 13 42  1  0
 14 43  1  0
 18 44  1  0
 19 45  1  0
 22 46  1  0
M  CHG  1   3   1
M  END
$$$$
