
     RDKit          3D

 37 39  0  0  0  0  0  0  0  0999 V2000
    3.8213    1.2783    0.4528 N   0  0  0  0  0  0  0  0  0  0  0  0
    3.4149    0.0438    1.1133 C   0  0  0  0  0  0  0  0  0  0  0  0
    1.8984   -0.1440    1.1105 C   0  0  0  0  0  0  0  0  0  0  0  0
    1.3217   -0.3384   -0.2983 C   0  0  0  0  0  0  0  0  0  0  0  0
   -0.1436   -0.5626   -0.2651 N   0  0  0  0  0  0  0  0  0  0  0  0
   -0.5965   -1.9139   -0.2213 C   0  0  0  0  0  0  0  0  0  0  0  0
    0.2563   -2.9846    0.1338 C   0  0  0  0  0  0  0  0  0  0  0  0
   -0.1818   -4.3137    0.1911 C   0  0  0  0  0  0  0  0  0  0  0  0
   -1.4987   -4.6212   -0.1030 C   0  0  0  0  0  0  0  0  0  0  0  0
   -2.3702   -3.5959   -0.4492 C   0  0  0  0  0  0  0  0  0  0  0  0
   -1.9341   -2.2566   -0.5056 C   0  0  0  0  0  0  0  0  0  0  0  0
   -3.1697   -1.0756   -0.9897 S   0  0  0  0  0  0  0  0  0  0  0  0
   -2.3521    0.4724   -0.6897 C   0  0  0  0  0  0  0  0  0  0  0  0
   -3.1686    1.6149   -0.7990 C   0  0  0  0  0  0  0  0  0  0  0  0
   -2.6503    2.8920   -0.6118 C   0  0  0  0  0  0  0  0  0  0  0  0
   -1.2994    3.0487   -0.3142 C   0  0  0  0  0  0  0  0  0  0  0  0
   -0.7028    4.4154   -0.0847 C   0  0  0  0  0  0  0  0  0  0  0  0
   -0.4221    4.6466    1.2270 F   0  0  0  0  0  0  0  0  0  0  0  0
   -1.5168    5.4353   -0.4776 F   0  0  0  0  0  0  0  0  0  0  0  0
    0.4676    4.5970   -0.7576 F   0  0  0  0  0  0  0  0  0  0  0  0
   -0.4899    1.8998   -0.2023 C   0  0  0  0  0  0  0  0  0  0  0  0
   -0.9797    0.5855   -0.3921 C   0  0  0  0  0  0  0  0  0  0  0  0
    4.8077    1.4555    0.6482 H   0  0  0  0  0  0  0  0  0  0  0  0
    3.7608    1.1800   -0.5601 H   0  0  0  0  0  0  0  0  0  0  0  0
    3.7581    0.0801    2.1533 H   0  0  0  0  0  0  0  0  0  0  0  0
    3.9105   -0.8107    0.6398 H   0  0  0  0  0  0  0  0  0  0  0  0
    1.4251    0.7088    1.6108 H   0  0  0  0  0  0  0  0  0  0  0  0
    1.6608   -1.0120    1.7364 H   0  0  0  0  0  0  0  0  0  0  0  0
    1.5655    0.5138   -0.9447 H   0  0  0  0  0  0  0  0  0  0  0  0
    1.8356   -1.1648   -0.8063 H   0  0  0  0  0  0  0  0  0  0  0  0
    1.2953   -2.8205    0.3984 H   0  0  0  0  0  0  0  0  0  0  0  0
    0.5121   -5.1019    0.4720 H   0  0  0  0  0  0  0  0  0  0  0  0
   -1.8491   -5.6485   -0.0614 H   0  0  0  0  0  0  0  0  0  0  0  0
   -3.4044   -3.8454   -0.6790 H   0  0  0  0  0  0  0  0  0  0  0  0
   -4.2267    1.5105   -1.0347 H   0  0  0  0  0  0  0  0  0  0  0  0
   -3.3067    3.7559   -0.6992 H   0  0  0  0  0  0  0  0  0  0  0  0
    0.5515    2.0761    0.0590 H   0  0  0  0  0  0  0  0  0  0  0  0
  1  2  1  0
  2  3  1  0
  3  4  1  0
  4  5  1  0
  5  6  1  0
  6  7  2  0
  7  8  1  0
  8  9  2  0
  9 10  1  0
 10 11  2  0
 11 12  1  0
 12 13  1  0
 13 14  2  0
 14 15  1  0
 15 16  2  0
 16 17  1  0
 17 18  1  0
 17 19  1  0
 17 20  1  0
 16 21  1  0
 21 22  2  0
 22  5  1  0
 11  6  1  0
 22 13  1  0
  1 23  1  0
  1 24  1  0
  2 25  1  0
  2 26  1  0
  3 27  1  0
  3 28  1  0
  4 29  1  0
  4 30  1  0
  7 31  1  0
  8 32  1  0
  9 33  1  0
 10 34  1  0
 14 35  1  0
 15 36  1  0
 21 37  1  0
M  END
$$$$
