
     RDKit          3D

 53 55  0  0  0  0  0  0  0  0999 V2000
   -6.7824   -2.3584    0.4977 C   0  0  0  0  0  0  0  0  0  0  0  0
   -5.6984   -1.5664    0.9658 O   0  0  0  0  0  0  0  0  0  0  0  0
   -5.6460   -0.2602    0.5548 C   0  0  0  0  0  0  0  0  0  0  0  0
   -6.5957    0.3533   -0.2697 C   0  0  0  0  0  0  0  0  0  0  0  0
   -6.4473    1.6894   -0.6513 C   0  0  0  0  0  0  0  0  0  0  0  0
   -5.3480    2.4227   -0.2173 C   0  0  0  0  0  0  0  0  0  0  0  0
   -4.3977    1.8225    0.6057 C   0  0  0  0  0  0  0  0  0  0  0  0
   -4.5415    0.4837    1.0105 C   0  0  0  0  0  0  0  0  0  0  0  0
   -3.4785   -0.1307    1.8847 C   0  0  0  0  0  0  0  0  0  0  0  0
   -2.4276   -0.7101    1.0903 N   0  0  0  0  0  0  0  0  0  0  0  0
   -1.2170   -1.0518    1.6410 C   0  0  0  0  0  0  0  0  0  0  0  0
   -0.8356   -0.7843    2.7719 O   0  0  0  0  0  0  0  0  0  0  0  0
   -0.3131   -1.8677    0.6873 C   0  0  0  0  0  0  0  0  0  0  0  0
   -0.7450   -2.2872   -0.3776 O   0  0  0  0  0  0  0  0  0  0  0  0
    0.9695   -2.0468    1.1515 N   0  0  0  0  0  0  0  0  0  0  0  0
    1.9950   -2.6760    0.3499 C   0  0  0  0  0  0  0  0  0  0  0  0
    2.4360   -1.9073   -0.9231 C   0  0  0  0  0  0  0  0  0  0  0  0
    3.2721   -2.8187   -1.6806 O   0  0  0  0  0  0  0  0  0  0  0  0
    4.5623   -2.2171   -1.8332 C   0  0  0  0  0  0  0  0  0  0  0  0
    4.6529   -1.1677   -0.7484 C   0  0  0  0  0  0  0  0  0  0  0  0
    3.2685   -0.7020   -0.7003 N   0  0  0  0  0  0  0  0  0  0  0  0
    2.8043    0.3903    0.4756 S   0  0  0  0  0  6  0  0  0  0  0  0
    3.2084   -0.1467    1.7583 O   0  0  0  0  0  0  0  0  0  0  0  0
    1.4361    0.7838    0.2221 O   0  0  0  0  0  0  0  0  0  0  0  0
    3.8257    1.7989    0.1157 C   0  0  0  0  0  0  0  0  0  0  0  0
    3.5831    2.5288   -1.0532 C   0  0  0  0  0  0  0  0  0  0  0  0
    4.3768    3.6383   -1.3476 C   0  0  0  0  0  0  0  0  0  0  0  0
    5.3977    4.0106   -0.4713 C   0  0  0  0  0  0  0  0  0  0  0  0
    6.4726    5.5132   -0.8726 Br  0  0  0  0  0  0  0  0  0  0  0  0
    5.6321    3.2871    0.6998 C   0  0  0  0  0  0  0  0  0  0  0  0
    4.8413    2.1759    0.9993 C   0  0  0  0  0  0  0  0  0  0  0  0
   -6.7706   -2.4391   -0.5942 H   0  0  0  0  0  0  0  0  0  0  0  0
   -7.7401   -1.9680    0.8573 H   0  0  0  0  0  0  0  0  0  0  0  0
   -6.6602   -3.3661    0.9064 H   0  0  0  0  0  0  0  0  0  0  0  0
   -7.4648   -0.1815   -0.6377 H   0  0  0  0  0  0  0  0  0  0  0  0
   -7.1900    2.1552   -1.2940 H   0  0  0  0  0  0  0  0  0  0  0  0
   -5.2275    3.4592   -0.5214 H   0  0  0  0  0  0  0  0  0  0  0  0
   -3.5346    2.4002    0.9317 H   0  0  0  0  0  0  0  0  0  0  0  0
   -3.8899   -0.9115    2.5343 H   0  0  0  0  0  0  0  0  0  0  0  0
   -3.0499    0.6248    2.5548 H   0  0  0  0  0  0  0  0  0  0  0  0
   -2.6607   -1.1451    0.2025 H   0  0  0  0  0  0  0  0  0  0  0  0
    1.2172   -1.5561    2.0108 H   0  0  0  0  0  0  0  0  0  0  0  0
    2.8533   -2.8665    1.0038 H   0  0  0  0  0  0  0  0  0  0  0  0
    1.6123   -3.6595    0.0491 H   0  0  0  0  0  0  0  0  0  0  0  0
    1.5806   -1.6477   -1.5542 H   0  0  0  0  0  0  0  0  0  0  0  0
    4.6049   -1.7652   -2.8304 H   0  0  0  0  0  0  0  0  0  0  0  0
    5.3438   -2.9777   -1.7565 H   0  0  0  0  0  0  0  0  0  0  0  0
    4.9407   -1.6230    0.2050 H   0  0  0  0  0  0  0  0  0  0  0  0
    5.3631   -0.3823   -1.0149 H   0  0  0  0  0  0  0  0  0  0  0  0
    2.7805    2.2391   -1.7289 H   0  0  0  0  0  0  0  0  0  0  0  0
    4.1895    4.2071   -2.2551 H   0  0  0  0  0  0  0  0  0  0  0  0
    6.4220    3.5844    1.3855 H   0  0  0  0  0  0  0  0  0  0  0  0
    5.0196    1.6202    1.9174 H   0  0  0  0  0  0  0  0  0  0  0  0
  1  2  1  0
  2  3  1  0
  3  4  2  0
  4  5  1  0
  5  6  2  0
  6  7  1  0
  7  8  2  0
  8  9  1  0
  9 10  1  0
 10 11  1  0
 11 12  2  0
 11 13  1  0
 13 14  2  0
 13 15  1  0
 15 16  1  0
 16 17  1  0
 17 18  1  0
 18 19  1  0
 19 20  1  0
 20 21  1  0
 21 22  1  0
 22 23  2  0
 22 24  2  0
 22 25  1  0
 25 26  2  0
 26 27  1  0
 27 28  2  0
 28 29  1  0
 28 30  1  0
 30 31  2  0
  8  3  1  0
 21 17  1  0
 31 25  1  0
  1 32  1  0
  1 33  1  0
  1 34  1  0
  4 35  1  0
  5 36  1  0
  6 37  1  0
  7 38  1  0
  9 39  1  0
  9 40  1  0
 10 41  1  0
 15 42  1  0
 16 43  1  0
 16 44  1  0
 17 45  1  0
 19 46  1  0
 19 47  1  0
 20 48  1  0
 20 49  1  0
 26 50  1  0
 27 51  1  0
 30 52  1  0
 31 53  1  0
M  END
$$$$
