
     RDKit          3D

 60 66  0  0  0  0  0  0  0  0999 V2000
    0.3119    2.8348    3.0559 O   0  0  0  0  0  0  0  0  0  0  0  0
   -0.1469    3.0257    1.9384 C   0  0  0  0  0  0  0  0  0  0  0  0
   -0.7585    4.2098    1.5166 N   0  0  0  0  0  0  0  0  0  0  0  0
   -1.1134    4.1433    0.1755 C   0  0  0  0  0  0  0  0  0  0  0  0
   -1.7145    5.1326   -0.5749 C   0  0  0  0  0  0  0  0  0  0  0  0
   -1.9797    4.8479   -1.9173 C   0  0  0  0  0  0  0  0  0  0  0  0
   -1.6380    3.5992   -2.4705 C   0  0  0  0  0  0  0  0  0  0  0  0
   -1.0261    2.6137   -1.6910 C   0  0  0  0  0  0  0  0  0  0  0  0
   -0.7719    2.8967   -0.3585 C   0  0  0  0  0  0  0  0  0  0  0  0
   -0.1449    2.0610    0.7192 C   0  0  0  0  0  0  0  0  0  0  0  0
    1.2252    1.5555    0.3959 N   0  0  0  0  0  0  0  0  0  0  0  0
    1.2873    0.0709    0.6804 C   0  0  2  0  0  0  0  0  0  0  0  0
    1.9493   -0.6954   -0.4742 C   0  0  0  0  0  0  0  0  0  0  0  0
    3.4364   -0.5019   -0.5384 C   0  0  0  0  0  0  0  0  0  0  0  0
    4.1242    0.2928   -1.4344 C   0  0  0  0  0  0  0  0  0  0  0  0
    5.4606    0.1880   -1.1637 N   0  0  0  0  0  0  0  0  0  0  0  0
    5.6686   -0.6641   -0.1040 C   0  0  0  0  0  0  0  0  0  0  0  0
    6.8603   -1.0668    0.5107 C   0  0  0  0  0  0  0  0  0  0  0  0
    6.7666   -1.9564    1.5853 C   0  0  0  0  0  0  0  0  0  0  0  0
    5.5305   -2.4232    2.0246 C   0  0  0  0  0  0  0  0  0  0  0  0
    4.3489   -2.0121    1.3966 C   0  0  0  0  0  0  0  0  0  0  0  0
    4.4154   -1.1142    0.3106 C   0  0  0  0  0  0  0  0  0  0  0  0
   -0.1347   -0.2804    0.8842 C   0  0  0  0  0  0  0  0  0  0  0  0
   -0.9533    0.8481    0.9100 C   0  0  0  0  0  0  0  0  0  0  0  0
   -2.2456    0.4379    1.1092 C   0  0  0  0  0  0  0  0  0  0  0  0
   -3.3867    1.1109    1.1991 O   0  0  0  0  0  0  0  0  0  0  0  0
   -2.2129   -0.9498    1.1990 N   0  0  0  0  0  0  0  0  0  0  0  0
   -3.3927   -1.7771    1.4338 C   0  0  0  0  0  0  0  0  0  0  0  0
   -3.9521   -2.3306    0.1440 C   0  0  0  0  0  0  0  0  0  0  0  0
   -3.7666   -3.6782   -0.2146 C   0  0  0  0  0  0  0  0  0  0  0  0
   -4.2671   -4.1665   -1.4247 C   0  0  0  0  0  0  0  0  0  0  0  0
   -4.9649   -3.3184   -2.2854 C   0  0  0  0  0  0  0  0  0  0  0  0
   -5.1685   -1.9812   -1.9357 C   0  0  0  0  0  0  0  0  0  0  0  0
   -4.6648   -1.4900   -0.7303 C   0  0  0  0  0  0  0  0  0  0  0  0
   -0.9014   -1.3977    1.0724 C   0  0  0  0  0  0  0  0  0  0  0  0
   -0.5192   -2.6678    1.1287 O   0  0  0  0  0  0  0  0  0  0  0  0
   -0.8675    5.0114    2.1195 H   0  0  0  0  0  0  0  0  0  0  0  0
   -1.9695    6.0962   -0.1484 H   0  0  0  0  0  0  0  0  0  0  0  0
   -2.4493    5.5994   -2.5487 H   0  0  0  0  0  0  0  0  0  0  0  0
   -1.8461    3.3973   -3.5188 H   0  0  0  0  0  0  0  0  0  0  0  0
   -0.7555    1.6514   -2.1167 H   0  0  0  0  0  0  0  0  0  0  0  0
    1.8861    2.0016    1.0319 H   0  0  0  0  0  0  0  0  0  0  0  0
    1.8280   -0.0833    1.6226 H   0  0  0  0  0  0  0  0  0  0  0  0
    1.4972   -0.4048   -1.4333 H   0  0  0  0  0  0  0  0  0  0  0  0
    1.7521   -1.7710   -0.3704 H   0  0  0  0  0  0  0  0  0  0  0  0
    3.7691    0.9249   -2.2379 H   0  0  0  0  0  0  0  0  0  0  0  0
    6.1955    0.6646   -1.6666 H   0  0  0  0  0  0  0  0  0  0  0  0
    7.8246   -0.7057    0.1703 H   0  0  0  0  0  0  0  0  0  0  0  0
    7.6729   -2.2891    2.0858 H   0  0  0  0  0  0  0  0  0  0  0  0
    5.4813   -3.1147    2.8623 H   0  0  0  0  0  0  0  0  0  0  0  0
    3.3892   -2.3835    1.7439 H   0  0  0  0  0  0  0  0  0  0  0  0
   -3.1916    2.0436    0.9881 H   0  0  0  0  0  0  0  0  0  0  0  0
   -4.1486   -1.1776    1.9537 H   0  0  0  0  0  0  0  0  0  0  0  0
   -3.1051   -2.5788    2.1247 H   0  0  0  0  0  0  0  0  0  0  0  0
   -3.2363   -4.3655    0.4412 H   0  0  0  0  0  0  0  0  0  0  0  0
   -4.1062   -5.2087   -1.7021 H   0  0  0  0  0  0  0  0  0  0  0  0
   -5.3525   -3.6969   -3.2285 H   0  0  0  0  0  0  0  0  0  0  0  0
   -5.7082   -1.3177   -2.6086 H   0  0  0  0  0  0  0  0  0  0  0  0
   -4.8239   -0.4390   -0.4779 H   0  0  0  0  0  0  0  0  0  0  0  0
   -1.2963   -3.2512    1.1319 H   0  0  0  0  0  0  0  0  0  0  0  0
  1  2  2  0
  2  3  1  0
  3  4  1  0
  4  5  2  0
  5  6  1  0
  6  7  2  0
  7  8  1  0
  8  9  2  0
  9 10  1  0
 10 11  1  0
 11 12  1  0
 12 13  1  0
 13 14  1  0
 14 15  2  0
 15 16  1  0
 16 17  1  0
 17 18  2  0
 18 19  1  0
 19 20  2  0
 20 21  1  0
 21 22  2  0
 12 23  1  0
 23 24  1  0
 24 25  2  0
 25 26  1  0
 25 27  1  0
 27 28  1  0
 28 29  1  0
 29 30  2  0
 30 31  1  0
 31 32  2  0
 32 33  1  0
 33 34  2  0
 27 35  1  0
 35 36  1  0
 10  2  1  0
 22 14  1  0
 35 23  2  0
  9  4  1  0
 24 10  1  0
 34 29  1  0
 22 17  1  0
  3 37  1  0
  5 38  1  0
  6 39  1  0
  7 40  1  0
  8 41  1  0
 11 42  1  0
 12 43  1  1
 13 44  1  0
 13 45  1  0
 15 46  1  0
 16 47  1  0
 18 48  1  0
 19 49  1  0
 20 50  1  0
 21 51  1  0
 26 52  1  0
 28 53  1  0
 28 54  1  0
 30 55  1  0
 31 56  1  0
 32 57  1  0
 33 58  1  0
 34 59  1  0
 36 60  1  0
M  END
$$$$
