
     RDKit          3D

 67 72  0  0  0  0  0  0  0  0999 V2000
   -5.3754   -3.5903   -2.0537 C   0  0  0  0  0  0  0  0  0  0  0  0
   -4.2708   -3.0617   -1.1876 C   0  0  0  0  0  0  0  0  0  0  0  0
   -4.0715   -3.5337    0.1236 C   0  0  0  0  0  0  0  0  0  0  0  0
   -5.0905   -4.7573    0.8014 Cl  0  0  0  0  0  0  0  0  0  0  0  0
   -3.0442   -3.0259    0.9427 C   0  0  0  0  0  0  0  0  0  0  0  0
   -2.1813   -2.0333    0.4766 C   0  0  0  0  0  0  0  0  0  0  0  0
   -2.3626   -1.5618   -0.8153 C   0  0  0  0  0  0  0  0  0  0  0  0
   -3.4024   -2.0634   -1.6144 C   0  0  0  0  0  0  0  0  0  0  0  0
   -3.4168   -1.3944   -2.8357 N   0  0  0  0  0  0  0  0  0  0  0  0
   -2.4067   -0.4339   -2.9204 C   0  0  0  0  0  0  0  0  0  0  0  0
   -2.2382    0.3010   -3.8815 O   0  0  0  0  0  0  0  0  0  0  0  0
   -1.6063   -0.5096   -1.5918 C   0  0  1  0  0  0  0  0  0  0  0  0
   -1.6378    0.7357   -0.7933 C   0  0  0  0  0  0  0  0  0  0  0  0
   -0.3473    1.2130   -0.5660 C   0  0  0  0  0  0  0  0  0  0  0  0
   -0.4231    2.3644    0.1728 C   0  0  0  0  0  0  0  0  0  0  0  0
    0.5567    3.1351    0.6391 O   0  0  0  0  0  0  0  0  0  0  0  0
   -1.7902    2.6096    0.4391 N   0  0  0  0  0  0  0  0  0  0  0  0
   -2.3285    3.7014    1.2063 C   0  0  0  0  0  0  0  0  0  0  0  0
   -3.5799    3.5922    1.8316 C   0  0  0  0  0  0  0  0  0  0  0  0
   -4.0997    4.6519    2.5835 C   0  0  0  0  0  0  0  0  0  0  0  0
   -3.3797    5.8349    2.7191 C   0  0  0  0  0  0  0  0  0  0  0  0
   -2.1395    5.9609    2.0992 C   0  0  0  0  0  0  0  0  0  0  0  0
   -1.6159    4.9016    1.3504 C   0  0  0  0  0  0  0  0  0  0  0  0
   -2.5328    1.5869   -0.1943 C   0  0  0  0  0  0  0  0  0  0  0  0
   -3.8641    1.5585   -0.2005 O   0  0  0  0  0  0  0  0  0  0  0  0
    0.6745    0.3501   -1.1989 C   0  0  1  0  0  0  0  0  0  0  0  0
    1.7292   -0.2117   -0.2255 C   0  0  0  0  0  0  0  0  0  0  0  0
    2.5541   -1.2522   -0.8508 N   0  0  0  0  0  0  0  0  0  0  0  0
    3.8787   -1.4739   -0.5376 C   0  0  0  0  0  0  0  0  0  0  0  0
    4.5667   -2.3211   -1.0923 O   0  0  0  0  0  0  0  0  0  0  0  0
    4.3169   -0.6445    0.4444 O   0  0  0  0  0  0  0  0  0  0  0  0
    5.6982   -0.6828    0.8896 C   0  0  0  0  0  0  0  0  0  0  0  0
    6.0492   -2.0347    1.5221 C   0  0  0  0  0  0  0  0  0  0  0  0
    5.7876    0.4021    1.9747 C   0  0  0  0  0  0  0  0  0  0  0  0
    6.6599   -0.3124   -0.2468 C   0  0  0  0  0  0  0  0  0  0  0  0
    1.9230   -2.0715   -1.8861 C   0  0  0  0  0  0  0  0  0  0  0  0
    0.3873   -2.0594   -1.7828 C   0  0  0  0  0  0  0  0  0  0  0  0
   -0.1541   -0.7050   -1.8685 N   0  0  0  0  0  0  0  0  0  0  0  0
   -5.3316   -4.6831   -2.1077 H   0  0  0  0  0  0  0  0  0  0  0  0
   -6.3481   -3.2846   -1.6553 H   0  0  0  0  0  0  0  0  0  0  0  0
   -5.3090   -3.2259   -3.0827 H   0  0  0  0  0  0  0  0  0  0  0  0
   -2.9191   -3.4051    1.9553 H   0  0  0  0  0  0  0  0  0  0  0  0
   -1.3954   -1.6410    1.1163 H   0  0  0  0  0  0  0  0  0  0  0  0
   -4.0669   -1.5439   -3.5933 H   0  0  0  0  0  0  0  0  0  0  0  0
    1.4025    2.8051    0.2937 H   0  0  0  0  0  0  0  0  0  0  0  0
   -4.1655    2.6801    1.7818 H   0  0  0  0  0  0  0  0  0  0  0  0
   -5.0675    4.5466    3.0671 H   0  0  0  0  0  0  0  0  0  0  0  0
   -3.7836    6.6576    3.3023 H   0  0  0  0  0  0  0  0  0  0  0  0
   -1.5752    6.8847    2.1938 H   0  0  0  0  0  0  0  0  0  0  0  0
   -0.6616    5.0629    0.8579 H   0  0  0  0  0  0  0  0  0  0  0  0
   -4.1556    0.8779   -0.8299 H   0  0  0  0  0  0  0  0  0  0  0  0
    1.1860    0.9114   -1.9915 H   0  0  0  0  0  0  0  0  0  0  0  0
    2.3600    0.6019    0.1482 H   0  0  0  0  0  0  0  0  0  0  0  0
    1.2502   -0.6717    0.6489 H   0  0  0  0  0  0  0  0  0  0  0  0
    5.3086   -2.3134    2.2821 H   0  0  0  0  0  0  0  0  0  0  0  0
    7.0384   -2.0049    1.9939 H   0  0  0  0  0  0  0  0  0  0  0  0
    6.0624   -2.8434    0.7837 H   0  0  0  0  0  0  0  0  0  0  0  0
    5.4915    1.3791    1.5739 H   0  0  0  0  0  0  0  0  0  0  0  0
    5.0999    0.1853    2.8019 H   0  0  0  0  0  0  0  0  0  0  0  0
    6.8008    0.4896    2.3832 H   0  0  0  0  0  0  0  0  0  0  0  0
    7.6842   -0.1848    0.1218 H   0  0  0  0  0  0  0  0  0  0  0  0
    6.6869   -1.0797   -1.0269 H   0  0  0  0  0  0  0  0  0  0  0  0
    6.3465    0.6189   -0.7334 H   0  0  0  0  0  0  0  0  0  0  0  0
    2.2942   -3.1003   -1.8102 H   0  0  0  0  0  0  0  0  0  0  0  0
    2.2449   -1.6748   -2.8573 H   0  0  0  0  0  0  0  0  0  0  0  0
   -0.0330   -2.6780   -2.5843 H   0  0  0  0  0  0  0  0  0  0  0  0
    0.1322   -2.5313   -0.8275 H   0  0  0  0  0  0  0  0  0  0  0  0
  1  2  1  0
  2  3  2  0
  3  4  1  0
  3  5  1  0
  5  6  2  0
  6  7  1  0
  7  8  2  0
  8  9  1  0
  9 10  1  0
 10 11  2  0
 10 12  1  0
 12 13  1  0
 13 14  1  0
 14 15  2  0
 15 16  1  0
 15 17  1  0
 17 18  1  0
 18 19  2  0
 19 20  1  0
 20 21  2  0
 21 22  1  0
 22 23  2  0
 17 24  1  0
 24 25  1  0
 14 26  1  0
 26 27  1  0
 27 28  1  0
 28 29  1  0
 29 30  2  0
 29 31  1  0
 31 32  1  0
 32 33  1  0
 32 34  1  0
 32 35  1  0
 28 36  1  0
 36 37  1  0
 37 38  1  0
  8  2  1  0
 12 38  1  6
 12  7  1  0
 24 13  2  0
 38 26  1  0
 23 18  1  0
  1 39  1  0
  1 40  1  0
  1 41  1  0
  5 42  1  0
  6 43  1  0
  9 44  1  0
 16 45  1  0
 19 46  1  0
 20 47  1  0
 21 48  1  0
 22 49  1  0
 23 50  1  0
 25 51  1  0
 26 52  1  6
 27 53  1  0
 27 54  1  0
 33 55  1  0
 33 56  1  0
 33 57  1  0
 34 58  1  0
 34 59  1  0
 34 60  1  0
 35 61  1  0
 35 62  1  0
 35 63  1  0
 36 64  1  0
 36 65  1  0
 37 66  1  0
 37 67  1  0
M  END
$$$$
