
     RDKit          3D

 65 66  0  0  0  0  0  0  0  0999 V2000
   -4.3279    6.2030    1.5030 C   0  0  0  0  0  0  0  0  0  0  0  0
   -3.0664    5.5601    1.6573 O   0  0  0  0  0  0  0  0  0  0  0  0
   -2.8378    4.4551    0.8848 C   0  0  0  0  0  0  0  0  0  0  0  0
   -1.5511    3.9185    0.9855 C   0  0  0  0  0  0  0  0  0  0  0  0
   -1.1740    2.7968    0.2347 C   0  0  0  0  0  0  0  0  0  0  0  0
   -2.0875    2.1643   -0.6208 C   0  0  0  0  0  0  0  0  0  0  0  0
   -1.7513    0.9548   -1.5004 C   0  0  0  0  0  0  0  0  0  0  0  0
   -2.7719   -0.2149   -1.3337 C   0  0  0  0  0  0  0  0  0  0  0  0
   -3.7940   -0.2612   -2.0234 O   0  0  0  0  0  0  0  0  0  0  0  0
   -2.5002   -1.1218   -0.3342 N   0  0  0  0  0  0  0  0  0  0  0  0
   -3.4045   -2.1773    0.1351 C   0  0  0  0  0  0  0  0  0  0  0  0
   -4.6654   -1.5616    0.7612 C   0  0  0  0  0  0  0  0  0  0  0  0
   -3.7927   -3.1355   -1.0021 C   0  0  0  0  0  0  0  0  0  0  0  0
   -2.6646   -2.9849    1.2135 C   0  0  0  0  0  0  0  0  0  0  0  0
   -0.3229    0.5441   -1.5856 N   0  0  0  0  0  0  0  0  0  0  0  0
    0.2140    0.3973   -2.9516 C   0  0  0  0  0  0  0  0  0  0  0  0
   -0.2901   -0.8679   -3.6581 C   0  0  0  0  0  0  0  0  0  0  0  0
    0.1286   -2.0325   -2.9536 O   0  0  0  0  0  0  0  0  0  0  0  0
    0.3359    0.0176   -0.4778 C   0  0  0  0  0  0  0  0  0  0  0  0
   -0.2351   -0.1445    0.6042 O   0  0  0  0  0  0  0  0  0  0  0  0
    1.8136   -0.3074   -0.6237 C   0  0  0  0  0  0  0  0  0  0  0  0
    2.4119   -0.8131    0.6854 C   0  0  0  0  0  0  0  0  0  0  0  0
    3.9205   -0.9358    0.6051 C   0  0  0  0  0  0  0  0  0  0  0  0
    4.5620   -0.5462   -0.3640 O   0  0  0  0  0  0  0  0  0  0  0  0
    4.4485   -1.5023    1.7428 N   0  0  0  0  0  0  0  0  0  0  0  0
    5.7885   -1.6883    1.9934 C   0  0  0  0  0  0  0  0  0  0  0  0
    6.9072   -1.3470    1.2040 C   0  0  0  0  0  0  0  0  0  0  0  0
    7.9898   -1.7446    1.9500 C   0  0  0  0  0  0  0  0  0  0  0  0
    9.4489   -1.6917    1.7591 C   0  0  0  0  0  0  0  0  0  0  0  0
    7.5521   -2.2973    3.1103 O   0  0  0  0  0  0  0  0  0  0  0  0
    6.1702   -2.2636    3.1397 N   0  0  0  0  0  0  0  0  0  0  0  0
   -3.3847    2.7189   -0.7094 C   0  0  0  0  0  0  0  0  0  0  0  0
   -3.7568    3.8465    0.0338 C   0  0  0  0  0  0  0  0  0  0  0  0
   -4.3325    7.0934    2.1411 H   0  0  0  0  0  0  0  0  0  0  0  0
   -4.4784    6.5365    0.4679 H   0  0  0  0  0  0  0  0  0  0  0  0
   -5.1447    5.5504    1.8342 H   0  0  0  0  0  0  0  0  0  0  0  0
   -0.8278    4.3814    1.6540 H   0  0  0  0  0  0  0  0  0  0  0  0
   -0.1536    2.4381    0.3479 H   0  0  0  0  0  0  0  0  0  0  0  0
   -1.9707    1.3348   -2.5097 H   0  0  0  0  0  0  0  0  0  0  0  0
   -1.7657   -0.8269    0.3147 H   0  0  0  0  0  0  0  0  0  0  0  0
   -5.3221   -2.3347    1.1751 H   0  0  0  0  0  0  0  0  0  0  0  0
   -5.2495   -0.9909    0.0301 H   0  0  0  0  0  0  0  0  0  0  0  0
   -4.4012   -0.8733    1.5738 H   0  0  0  0  0  0  0  0  0  0  0  0
   -2.9057   -3.4975   -1.5405 H   0  0  0  0  0  0  0  0  0  0  0  0
   -4.3351   -4.0069   -0.6152 H   0  0  0  0  0  0  0  0  0  0  0  0
   -4.4478   -2.6510   -1.7365 H   0  0  0  0  0  0  0  0  0  0  0  0
   -3.3018   -3.7726    1.6277 H   0  0  0  0  0  0  0  0  0  0  0  0
   -2.3423   -2.3435    2.0430 H   0  0  0  0  0  0  0  0  0  0  0  0
   -1.7625   -3.4561    0.8056 H   0  0  0  0  0  0  0  0  0  0  0  0
    1.3051    0.3825   -2.9236 H   0  0  0  0  0  0  0  0  0  0  0  0
   -0.0690    1.2848   -3.5282 H   0  0  0  0  0  0  0  0  0  0  0  0
   -1.3822   -0.8747   -3.7255 H   0  0  0  0  0  0  0  0  0  0  0  0
    0.1164   -0.9175   -4.6736 H   0  0  0  0  0  0  0  0  0  0  0  0
   -0.3585   -2.7865   -3.3340 H   0  0  0  0  0  0  0  0  0  0  0  0
    2.3306    0.6070   -0.9382 H   0  0  0  0  0  0  0  0  0  0  0  0
    1.9569   -1.0739   -1.3907 H   0  0  0  0  0  0  0  0  0  0  0  0
    1.9809   -1.7902    0.9366 H   0  0  0  0  0  0  0  0  0  0  0  0
    2.1816   -0.1200    1.5042 H   0  0  0  0  0  0  0  0  0  0  0  0
    3.8457   -1.8231    2.4889 H   0  0  0  0  0  0  0  0  0  0  0  0
    6.9271   -0.8718    0.2351 H   0  0  0  0  0  0  0  0  0  0  0  0
    9.8933   -2.6842    1.8851 H   0  0  0  0  0  0  0  0  0  0  0  0
    9.9071   -1.0151    2.4861 H   0  0  0  0  0  0  0  0  0  0  0  0
    9.6969   -1.3335    0.7554 H   0  0  0  0  0  0  0  0  0  0  0  0
   -4.1313    2.2774   -1.3742 H   0  0  0  0  0  0  0  0  0  0  0  0
   -4.7719    4.2203   -0.0808 H   0  0  0  0  0  0  0  0  0  0  0  0
  1  2  1  0
  2  3  1  0
  3  4  2  0
  4  5  1  0
  5  6  2  0
  6  7  1  0
  7  8  1  0
  8  9  2  0
  8 10  1  0
 10 11  1  0
 11 12  1  0
 11 13  1  0
 11 14  1  0
  7 15  1  0
 15 16  1  0
 16 17  1  0
 17 18  1  0
 15 19  1  0
 19 20  2  0
 19 21  1  0
 21 22  1  0
 22 23  1  0
 23 24  2  0
 23 25  1  0
 25 26  1  0
 26 27  1  0
 27 28  2  0
 28 29  1  0
 28 30  1  0
 30 31  1  0
  6 32  1  0
 32 33  2  0
 33  3  1  0
 31 26  2  0
  1 34  1  0
  1 35  1  0
  1 36  1  0
  4 37  1  0
  5 38  1  0
  7 39  1  0
 10 40  1  0
 12 41  1  0
 12 42  1  0
 12 43  1  0
 13 44  1  0
 13 45  1  0
 13 46  1  0
 14 47  1  0
 14 48  1  0
 14 49  1  0
 16 50  1  0
 16 51  1  0
 17 52  1  0
 17 53  1  0
 18 54  1  0
 21 55  1  0
 21 56  1  0
 22 57  1  0
 22 58  1  0
 25 59  1  0
 27 60  1  0
 29 61  1  0
 29 62  1  0
 29 63  1  0
 32 64  1  0
 33 65  1  0
M  END
$$$$
