
     RDKit          3D

 27 27  0  0  0  0  0  0  0  0999 V2000
    3.5412   -1.1825    0.4600 C   0  0  0  0  0  0  0  0  0  0  0  0
    2.2962   -0.4337    0.1711 C   0  0  0  0  0  0  0  0  0  0  0  0
    2.1531    0.8115   -0.4565 C   0  0  0  0  0  0  0  0  0  0  0  0
    0.7969    1.0986   -0.4420 C   0  0  0  0  0  0  0  0  0  0  0  0
    0.2223    2.3224   -0.9123 C   0  0  0  0  0  0  0  0  0  0  0  0
    0.6580    3.0560   -1.7865 O   0  0  0  0  0  0  0  0  0  0  0  0
   -0.8599    2.6929   -0.2062 O   0  0  0  0  0  0  0  0  0  0  0  0
    0.1959   -0.0337    0.0782 N   0  0  0  0  0  0  0  0  0  0  0  0
   -1.2300   -0.4291    0.1478 C   0  0  0  0  0  0  0  0  0  0  0  0
   -2.0080   -0.0493   -1.1300 C   0  0  0  0  0  0  0  0  0  0  0  0
   -1.8890    0.1761    1.3995 C   0  0  0  0  0  0  0  0  0  0  0  0
   -1.3690   -1.9756    0.2683 C   0  0  0  0  0  0  0  0  0  0  0  0
    1.1134   -0.9284    0.5317 N   0  0  0  0  0  0  0  0  0  0  0  0
    3.6710   -1.3096    1.5395 H   0  0  0  0  0  0  0  0  0  0  0  0
    3.5110   -2.1733   -0.0049 H   0  0  0  0  0  0  0  0  0  0  0  0
    4.4185   -0.6543    0.0731 H   0  0  0  0  0  0  0  0  0  0  0  0
    2.9352    1.4565   -0.8351 H   0  0  0  0  0  0  0  0  0  0  0  0
   -1.0823    3.5662   -0.5906 H   0  0  0  0  0  0  0  0  0  0  0  0
   -2.1718    1.0242   -1.2321 H   0  0  0  0  0  0  0  0  0  0  0  0
   -3.0051   -0.5060   -1.1341 H   0  0  0  0  0  0  0  0  0  0  0  0
   -1.4824   -0.3935   -2.0284 H   0  0  0  0  0  0  0  0  0  0  0  0
   -1.3609   -0.1317    2.3098 H   0  0  0  0  0  0  0  0  0  0  0  0
   -1.8946    1.2677    1.3883 H   0  0  0  0  0  0  0  0  0  0  0  0
   -2.9310   -0.1509    1.4928 H   0  0  0  0  0  0  0  0  0  0  0  0
   -2.4225   -2.2795    0.2826 H   0  0  0  0  0  0  0  0  0  0  0  0
   -0.9173   -2.3564    1.1921 H   0  0  0  0  0  0  0  0  0  0  0  0
   -0.8890   -2.4848   -0.5761 H   0  0  0  0  0  0  0  0  0  0  0  0
  1  2  1  0
  2  3  1  0
  3  4  2  0
  4  5  1  0
  5  6  2  0
  5  7  1  0
  4  8  1  0
  8  9  1  0
  9 10  1  0
  9 11  1  0
  9 12  1  0
  8 13  1  0
 13  2  2  0
  1 14  1  0
  1 15  1  0
  1 16  1  0
  3 17  1  0
  7 18  1  0
 10 19  1  0
 10 20  1  0
 10 21  1  0
 11 22  1  0
 11 23  1  0
 11 24  1  0
 12 25  1  0
 12 26  1  0
 12 27  1  0
M  END
$$$$
