
     RDKit          3D

 57 61  0  0  0  0  0  0  0  0999 V2000
   -4.9708    4.5630    1.2322 C   0  0  0  0  0  0  0  0  0  0  0  0
   -4.2467    3.3453    1.7239 C   0  0  0  0  0  0  0  0  0  0  0  0
   -4.8871    2.4212    2.5567 C   0  0  0  0  0  0  0  0  0  0  0  0
   -4.2192    1.2720    2.9866 C   0  0  0  0  0  0  0  0  0  0  0  0
   -2.8998    1.0224    2.5841 C   0  0  0  0  0  0  0  0  0  0  0  0
   -2.1811   -0.2234    3.0387 C   0  0  0  0  0  0  0  0  0  0  0  0
   -2.6316   -1.3946    2.3152 N   0  0  0  0  0  0  0  0  0  0  0  0
   -3.4790   -2.2839    2.8888 N   0  0  0  0  0  0  0  0  0  0  0  0
   -3.7039   -3.2573    2.0061 N   0  0  0  0  0  0  0  0  0  0  0  0
   -2.9740   -2.9721    0.8946 C   0  0  0  0  0  0  0  0  0  0  0  0
   -2.8444   -3.6710   -0.3545 C   0  0  0  0  0  0  0  0  0  0  0  0
   -3.4060   -4.7178   -0.6574 O   0  0  0  0  0  0  0  0  0  0  0  0
   -1.9836   -3.0191   -1.2298 N   0  0  0  0  0  0  0  0  0  0  0  0
   -1.3286   -1.8224   -0.9432 C   0  0  0  0  0  0  0  0  0  0  0  0
   -0.4202   -1.3180   -2.0580 C   0  0  0  0  0  0  0  0  0  0  0  0
    0.9197   -2.0722   -2.0055 C   0  0  0  0  0  0  0  0  0  0  0  0
    1.9786   -1.2763   -1.2518 C   0  0  0  0  0  0  0  0  0  0  0  0
    2.2426    0.0339   -1.9066 N   0  0  0  0  0  0  0  0  0  0  0  0
    3.7376    0.1870   -2.7222 S   0  0  0  0  0  6  0  0  0  0  0  0
    3.8610   -0.9571   -3.6013 O   0  0  0  0  0  0  0  0  0  0  0  0
    3.8361    1.5378   -3.2312 O   0  0  0  0  0  0  0  0  0  0  0  0
    4.9180    0.0304   -1.4070 C   0  0  0  0  0  0  0  0  0  0  0  0
    4.9852    1.0349   -0.4364 C   0  0  0  0  0  0  0  0  0  0  0  0
    5.9153    0.9280    0.5969 C   0  0  0  0  0  0  0  0  0  0  0  0
    6.7749   -0.1707    0.6510 C   0  0  0  0  0  0  0  0  0  0  0  0
    6.7061   -1.1689   -0.3245 C   0  0  0  0  0  0  0  0  0  0  0  0
    5.7784   -1.0701   -1.3613 C   0  0  0  0  0  0  0  0  0  0  0  0
    1.0975    0.5979   -2.6703 C   0  0  0  0  0  0  0  0  0  0  0  0
   -0.2202    0.2043   -2.0173 C   0  0  0  0  0  0  0  0  0  0  0  0
   -1.4209   -1.1994    0.1985 N   0  0  0  0  0  0  0  0  0  0  0  0
   -2.2662   -1.8077    1.0659 C   0  0  0  0  0  0  0  0  0  0  0  0
   -2.2668    1.9403    1.7345 C   0  0  0  0  0  0  0  0  0  0  0  0
   -2.9353    3.0902    1.3075 C   0  0  0  0  0  0  0  0  0  0  0  0
   -5.8212    4.8066    1.8779 H   0  0  0  0  0  0  0  0  0  0  0  0
   -4.3042    5.4323    1.2283 H   0  0  0  0  0  0  0  0  0  0  0  0
   -5.3415    4.3922    0.2167 H   0  0  0  0  0  0  0  0  0  0  0  0
   -5.9139    2.5870    2.8755 H   0  0  0  0  0  0  0  0  0  0  0  0
   -4.7412    0.5660    3.6316 H   0  0  0  0  0  0  0  0  0  0  0  0
   -2.3470   -0.3916    4.1093 H   0  0  0  0  0  0  0  0  0  0  0  0
   -1.0982   -0.1382    2.8916 H   0  0  0  0  0  0  0  0  0  0  0  0
   -1.8742   -3.4714   -2.1259 H   0  0  0  0  0  0  0  0  0  0  0  0
   -0.9059   -1.5774   -3.0089 H   0  0  0  0  0  0  0  0  0  0  0  0
    1.2698   -2.2505   -3.0305 H   0  0  0  0  0  0  0  0  0  0  0  0
    0.8070   -3.0589   -1.5422 H   0  0  0  0  0  0  0  0  0  0  0  0
    1.6573   -1.0826   -0.2219 H   0  0  0  0  0  0  0  0  0  0  0  0
    2.8912   -1.8759   -1.1764 H   0  0  0  0  0  0  0  0  0  0  0  0
    4.3216    1.8956   -0.4861 H   0  0  0  0  0  0  0  0  0  0  0  0
    5.9760    1.7035    1.3567 H   0  0  0  0  0  0  0  0  0  0  0  0
    7.5030   -0.2492    1.4553 H   0  0  0  0  0  0  0  0  0  0  0  0
    7.3836   -2.0181   -0.2807 H   0  0  0  0  0  0  0  0  0  0  0  0
    5.7340   -1.8465   -2.1218 H   0  0  0  0  0  0  0  0  0  0  0  0
    1.1203    0.2490   -3.7093 H   0  0  0  0  0  0  0  0  0  0  0  0
    1.1796    1.6903   -2.6715 H   0  0  0  0  0  0  0  0  0  0  0  0
   -0.2303    0.5914   -0.9919 H   0  0  0  0  0  0  0  0  0  0  0  0
   -1.0548    0.6920   -2.5343 H   0  0  0  0  0  0  0  0  0  0  0  0
   -1.2500    1.7620    1.3898 H   0  0  0  0  0  0  0  0  0  0  0  0
   -2.4265    3.7860    0.6440 H   0  0  0  0  0  0  0  0  0  0  0  0
  1  2  1  0
  2  3  2  0
  3  4  1  0
  4  5  2  0
  5  6  1  0
  6  7  1  0
  7  8  1  0
  8  9  2  0
  9 10  1  0
 10 11  1  0
 11 12  2  0
 11 13  1  0
 13 14  1  0
 14 15  1  0
 15 16  1  0
 16 17  1  0
 17 18  1  0
 18 19  1  0
 19 20  2  0
 19 21  2  0
 19 22  1  0
 22 23  2  0
 23 24  1  0
 24 25  2  0
 25 26  1  0
 26 27  2  0
 18 28  1  0
 28 29  1  0
 14 30  2  0
 30 31  1  0
  5 32  1  0
 32 33  2  0
 33  2  1  0
 31  7  1  0
 31 10  2  0
 29 15  1  0
 27 22  1  0
  1 34  1  0
  1 35  1  0
  1 36  1  0
  3 37  1  0
  4 38  1  0
  6 39  1  0
  6 40  1  0
 13 41  1  0
 15 42  1  0
 16 43  1  0
 16 44  1  0
 17 45  1  0
 17 46  1  0
 23 47  1  0
 24 48  1  0
 25 49  1  0
 26 50  1  0
 27 51  1  0
 28 52  1  0
 28 53  1  0
 29 54  1  0
 29 55  1  0
 32 56  1  0
 33 57  1  0
M  END
$$$$
