
     RDKit          3D

 57 61  0  0  0  0  0  0  0  0999 V2000
   -4.5905   -4.3845   -1.0303 C   0  0  0  0  0  0  0  0  0  0  0  0
   -4.4625   -2.8904   -0.9874 C   0  0  0  0  0  0  0  0  0  0  0  0
   -5.5282   -2.1012   -0.5407 C   0  0  0  0  0  0  0  0  0  0  0  0
   -5.4008   -0.7124   -0.4688 C   0  0  0  0  0  0  0  0  0  0  0  0
   -4.2000   -0.0883   -0.8333 C   0  0  0  0  0  0  0  0  0  0  0  0
   -4.0556    1.4100   -0.7405 C   0  0  0  0  0  0  0  0  0  0  0  0
   -3.8788    1.8442    0.6296 N   0  0  0  0  0  0  0  0  0  0  0  0
   -4.9039    2.4012    1.3221 N   0  0  0  0  0  0  0  0  0  0  0  0
   -4.4547    2.7018    2.5411 N   0  0  0  0  0  0  0  0  0  0  0  0
   -3.1432    2.3433    2.5878 C   0  0  0  0  0  0  0  0  0  0  0  0
   -2.1803    2.4294    3.6513 C   0  0  0  0  0  0  0  0  0  0  0  0
   -2.3857    2.8723    4.7760 O   0  0  0  0  0  0  0  0  0  0  0  0
   -0.9385    1.9354    3.2704 N   0  0  0  0  0  0  0  0  0  0  0  0
   -0.6559    1.4034    2.0126 C   0  0  0  0  0  0  0  0  0  0  0  0
    0.7826    0.9355    1.8371 C   0  0  0  0  0  0  0  0  0  0  0  0
    0.9252   -0.1354    0.7466 C   0  0  0  0  0  0  0  0  0  0  0  0
    2.3683   -0.2218    0.2685 C   0  0  0  0  0  0  0  0  0  0  0  0
    2.7950    1.0529   -0.3766 N   0  0  0  0  0  0  0  0  0  0  0  0
    4.4910    1.2788   -0.5065 S   0  0  0  0  0  6  0  0  0  0  0  0
    5.0587    1.1427    0.8171 O   0  0  0  0  0  0  0  0  0  0  0  0
    4.7075    2.4936   -1.2678 O   0  0  0  0  0  0  0  0  0  0  0  0
    5.0113   -0.0663   -1.5226 C   0  0  0  0  0  0  0  0  0  0  0  0
    5.1217    0.1162   -2.9062 C   0  0  0  0  0  0  0  0  0  0  0  0
    5.5787   -0.9309   -3.7092 C   0  0  0  0  0  0  0  0  0  0  0  0
    5.9314   -2.1514   -3.1325 C   0  0  0  0  0  0  0  0  0  0  0  0
    5.8277   -2.3254   -1.7520 C   0  0  0  0  0  0  0  0  0  0  0  0
    5.3726   -1.2796   -0.9512 C   0  0  0  0  0  0  0  0  0  0  0  0
    5.2597   -1.4974    0.3653 F   0  0  0  0  0  0  0  0  0  0  0  0
    2.0539    2.2598    0.0948 C   0  0  0  0  0  0  0  0  0  0  0  0
    1.6942    2.1453    1.5713 C   0  0  0  0  0  0  0  0  0  0  0  0
   -1.5179    1.3470    1.0357 N   0  0  0  0  0  0  0  0  0  0  0  0
   -2.7417    1.8138    1.3851 C   0  0  0  0  0  0  0  0  0  0  0  0
   -3.1269   -0.8826   -1.2603 C   0  0  0  0  0  0  0  0  0  0  0  0
   -3.2568   -2.2712   -1.3338 C   0  0  0  0  0  0  0  0  0  0  0  0
   -5.6197   -4.6821   -1.2572 H   0  0  0  0  0  0  0  0  0  0  0  0
   -4.3023   -4.8125   -0.0652 H   0  0  0  0  0  0  0  0  0  0  0  0
   -3.9508   -4.8094   -1.8108 H   0  0  0  0  0  0  0  0  0  0  0  0
   -6.4666   -2.5635   -0.2417 H   0  0  0  0  0  0  0  0  0  0  0  0
   -6.2438   -0.1214   -0.1133 H   0  0  0  0  0  0  0  0  0  0  0  0
   -4.9430    1.9062   -1.1506 H   0  0  0  0  0  0  0  0  0  0  0  0
   -3.1930    1.7667   -1.3153 H   0  0  0  0  0  0  0  0  0  0  0  0
   -0.2347    1.9651    3.9939 H   0  0  0  0  0  0  0  0  0  0  0  0
    1.0925    0.4952    2.7951 H   0  0  0  0  0  0  0  0  0  0  0  0
    0.2781    0.0702   -0.1149 H   0  0  0  0  0  0  0  0  0  0  0  0
    0.6032   -1.1050    1.1458 H   0  0  0  0  0  0  0  0  0  0  0  0
    2.4456   -1.0279   -0.4686 H   0  0  0  0  0  0  0  0  0  0  0  0
    3.0149   -0.4657    1.1185 H   0  0  0  0  0  0  0  0  0  0  0  0
    4.8600    1.0690   -3.3632 H   0  0  0  0  0  0  0  0  0  0  0  0
    5.6651   -0.7924   -4.7854 H   0  0  0  0  0  0  0  0  0  0  0  0
    6.2899   -2.9657   -3.7582 H   0  0  0  0  0  0  0  0  0  0  0  0
    6.0991   -3.2724   -1.2936 H   0  0  0  0  0  0  0  0  0  0  0  0
    2.6352    3.1732   -0.0673 H   0  0  0  0  0  0  0  0  0  0  0  0
    1.1511    2.3680   -0.5190 H   0  0  0  0  0  0  0  0  0  0  0  0
    1.2296    3.0805    1.9052 H   0  0  0  0  0  0  0  0  0  0  0  0
    2.6161    2.0304    2.1558 H   0  0  0  0  0  0  0  0  0  0  0  0
   -2.1761   -0.4264   -1.5287 H   0  0  0  0  0  0  0  0  0  0  0  0
   -2.4082   -2.8677   -1.6613 H   0  0  0  0  0  0  0  0  0  0  0  0
  1  2  1  0
  2  3  2  0
  3  4  1  0
  4  5  2  0
  5  6  1  0
  6  7  1  0
  7  8  1  0
  8  9  2  0
  9 10  1  0
 10 11  1  0
 11 12  2  0
 11 13  1  0
 13 14  1  0
 14 15  1  0
 15 16  1  0
 16 17  1  0
 17 18  1  0
 18 19  1  0
 19 20  2  0
 19 21  2  0
 19 22  1  0
 22 23  2  0
 23 24  1  0
 24 25  2  0
 25 26  1  0
 26 27  2  0
 27 28  1  0
 18 29  1  0
 29 30  1  0
 14 31  2  0
 31 32  1  0
  5 33  1  0
 33 34  2  0
 34  2  1  0
 32  7  1  0
 32 10  2  0
 30 15  1  0
 27 22  1  0
  1 35  1  0
  1 36  1  0
  1 37  1  0
  3 38  1  0
  4 39  1  0
  6 40  1  0
  6 41  1  0
 13 42  1  0
 15 43  1  0
 16 44  1  0
 16 45  1  0
 17 46  1  0
 17 47  1  0
 23 48  1  0
 24 49  1  0
 25 50  1  0
 26 51  1  0
 29 52  1  0
 29 53  1  0
 30 54  1  0
 30 55  1  0
 33 56  1  0
 34 57  1  0
M  END
$$$$
