
     RDKit          3D

 53 58  0  0  0  0  0  0  0  0999 V2000
    0.3586   -1.4846    1.4698 O   0  0  0  0  0  0  0  0  0  0  0  0
    1.1386   -1.2359    0.5452 C   0  0  0  0  0  0  0  0  0  0  0  0
    0.5441   -1.0588   -0.8695 C   0  0  0  0  0  0  0  0  0  0  0  0
   -0.7687   -0.3871   -0.7965 N   0  0  0  0  0  4  0  0  0  0  0  0
   -1.9894   -0.8645   -1.2653 C   0  0  0  0  0  0  0  0  0  0  0  0
   -2.9866    0.0513   -0.9413 C   0  0  0  0  0  0  0  0  0  0  0  0
   -4.5259   -0.0953   -1.2387 C   0  0  0  0  0  0  0  0  0  0  0  0
   -5.0022   -1.2164   -1.9355 C   0  0  0  0  0  0  0  0  0  0  0  0
   -6.3709   -1.3539   -2.1969 C   0  0  0  0  0  0  0  0  0  0  0  0
   -7.2554   -0.3753   -1.7637 C   0  0  0  0  0  0  0  0  0  0  0  0
   -8.5636   -0.5099   -2.0114 F   0  0  0  0  0  0  0  0  0  0  0  0
   -6.7978    0.7349   -1.0662 C   0  0  0  0  0  0  0  0  0  0  0  0
   -5.4304    0.8749   -0.7996 C   0  0  0  0  0  0  0  0  0  0  0  0
   -2.2915    1.0714   -0.3136 N   0  0  0  0  0  0  0  0  0  0  0  0
   -1.0026    0.7746   -0.1905 C   0  0  0  0  0  0  0  0  0  0  0  0
   -0.2302    1.8121    0.5324 C   0  0  0  0  0  0  0  0  0  0  0  0
   -1.2181    2.9939    0.5444 C   0  0  0  0  0  0  0  0  0  0  0  0
   -2.6102    2.3597    0.2847 C   0  0  0  0  0  0  0  0  0  0  0  0
    2.4994   -0.9095    0.6862 N   0  0  0  0  0  0  0  0  0  0  0  0
    3.0156   -0.3855    1.9309 C   0  0  0  0  0  0  0  0  0  0  0  0
    2.4881   -0.7950    3.1693 C   0  0  0  0  0  0  0  0  0  0  0  0
    2.9550   -0.2628    4.3780 C   0  0  0  0  0  0  0  0  0  0  0  0
    3.9592    0.6954    4.3764 C   0  0  0  0  0  0  0  0  0  0  0  0
    4.5034    1.1139    3.1656 C   0  0  0  0  0  0  0  0  0  0  0  0
    4.0430    0.5774    1.9514 C   0  0  0  0  0  0  0  0  0  0  0  0
    4.7378    1.2479    0.4569 S   0  0  0  0  0  0  0  0  0  0  0  0
    4.4982   -0.1580   -0.5977 C   0  0  0  0  0  0  0  0  0  0  0  0
    5.3759   -0.3290   -1.6777 C   0  0  0  0  0  0  0  0  0  0  0  0
    5.2279   -1.4077   -2.5483 C   0  0  0  0  0  0  0  0  0  0  0  0
    4.2127   -2.3312   -2.3333 C   0  0  0  0  0  0  0  0  0  0  0  0
    3.3310   -2.1628   -1.2620 C   0  0  0  0  0  0  0  0  0  0  0  0
    3.4406   -1.0566   -0.3932 C   0  0  0  0  0  0  0  0  0  0  0  0
    0.4135   -2.0420   -1.3309 H   0  0  0  0  0  0  0  0  0  0  0  0
    1.1674   -0.4231   -1.5045 H   0  0  0  0  0  0  0  0  0  0  0  0
   -2.0016   -1.8183   -1.7657 H   0  0  0  0  0  0  0  0  0  0  0  0
   -4.3388   -2.0052   -2.2821 H   0  0  0  0  0  0  0  0  0  0  0  0
   -6.7556   -2.2235   -2.7267 H   0  0  0  0  0  0  0  0  0  0  0  0
   -7.5065    1.4803   -0.7218 H   0  0  0  0  0  0  0  0  0  0  0  0
   -5.1144    1.7472   -0.2392 H   0  0  0  0  0  0  0  0  0  0  0  0
   -0.0375    1.4226    1.5345 H   0  0  0  0  0  0  0  0  0  0  0  0
    0.6922    2.0169   -0.0149 H   0  0  0  0  0  0  0  0  0  0  0  0
   -0.9738    3.6723   -0.2808 H   0  0  0  0  0  0  0  0  0  0  0  0
   -1.1849    3.5692    1.4725 H   0  0  0  0  0  0  0  0  0  0  0  0
   -3.1981    2.9731   -0.3992 H   0  0  0  0  0  0  0  0  0  0  0  0
   -3.1472    2.1949    1.2223 H   0  0  0  0  0  0  0  0  0  0  0  0
    1.7248   -1.5664    3.2384 H   0  0  0  0  0  0  0  0  0  0  0  0
    2.5352   -0.6075    5.3210 H   0  0  0  0  0  0  0  0  0  0  0  0
    4.3210    1.1150    5.3096 H   0  0  0  0  0  0  0  0  0  0  0  0
    5.2775    1.8798    3.1723 H   0  0  0  0  0  0  0  0  0  0  0  0
    6.1967    0.3690   -1.8401 H   0  0  0  0  0  0  0  0  0  0  0  0
    5.9244   -1.5384   -3.3740 H   0  0  0  0  0  0  0  0  0  0  0  0
    4.1236   -3.1951   -2.9899 H   0  0  0  0  0  0  0  0  0  0  0  0
    2.5965   -2.9482   -1.0908 H   0  0  0  0  0  0  0  0  0  0  0  0
  1  2  2  0
  2  3  1  0
  3  4  1  0
  4  5  1  0
  5  6  2  0
  6  7  1  0
  7  8  2  0
  8  9  1  0
  9 10  2  0
 10 11  1  0
 10 12  1  0
 12 13  2  0
  6 14  1  0
 14 15  1  0
 15 16  1  0
 16 17  1  0
 17 18  1  0
  2 19  1  0
 19 20  1  0
 20 21  2  0
 21 22  1  0
 22 23  2  0
 23 24  1  0
 24 25  2  0
 25 26  1  0
 26 27  1  0
 27 28  2  0
 28 29  1  0
 29 30  2  0
 30 31  1  0
 31 32  2  0
 15  4  2  0
 32 19  1  0
 13  7  1  0
 18 14  1  0
 25 20  1  0
 32 27  1  0
  3 33  1  0
  3 34  1  0
  5 35  1  0
  8 36  1  0
  9 37  1  0
 12 38  1  0
 13 39  1  0
 16 40  1  0
 16 41  1  0
 17 42  1  0
 17 43  1  0
 18 44  1  0
 18 45  1  0
 21 46  1  0
 22 47  1  0
 23 48  1  0
 24 49  1  0
 28 50  1  0
 29 51  1  0
 30 52  1  0
 31 53  1  0
M  CHG  1   4   1
M  END
$$$$
