
     RDKit          3D

 71 75  0  0  0  0  0  0  0  0999 V2000
   -7.4874   -2.1750    3.9216 C   0  0  0  0  0  0  0  0  0  0  0  0
   -6.6919   -2.3768    2.6648 C   0  0  0  0  0  0  0  0  0  0  0  0
   -5.9020   -3.5161    2.5044 C   0  0  0  0  0  0  0  0  0  0  0  0
   -5.1366   -3.6907    1.3488 C   0  0  0  0  0  0  0  0  0  0  0  0
   -5.1325   -2.7233    0.3311 C   0  0  0  0  0  0  0  0  0  0  0  0
   -4.2901   -2.9728   -0.8927 C   0  0  0  0  0  0  0  0  0  0  0  0
   -5.9096   -1.5535    0.4891 C   0  0  0  0  0  0  0  0  0  0  0  0
   -5.9720   -0.4741   -0.5724 C   0  0  0  0  0  0  0  0  0  0  0  0
   -5.5944    0.8305   -0.0598 N   0  0  0  0  0  0  0  0  0  0  0  0
   -6.5301    1.7972    0.1259 N   0  0  0  0  0  0  0  0  0  0  0  0
   -5.9080    2.8837    0.5856 N   0  0  0  0  0  0  0  0  0  0  0  0
   -4.5827    2.5852    0.6650 C   0  0  0  0  0  0  0  0  0  0  0  0
   -3.4654    3.3755    1.1031 C   0  0  0  0  0  0  0  0  0  0  0  0
   -3.5186    4.5352    1.5023 O   0  0  0  0  0  0  0  0  0  0  0  0
   -2.2672    2.6746    1.0279 N   0  0  0  0  0  0  0  0  0  0  0  0
   -2.1558    1.3605    0.5862 C   0  0  0  0  0  0  0  0  0  0  0  0
   -0.7579    0.7517    0.5650 C   0  0  0  0  0  0  0  0  0  0  0  0
    0.1209    1.4067   -0.5094 C   0  0  0  0  0  0  0  0  0  0  0  0
    1.0103    2.5241    0.0227 C   0  0  0  0  0  0  0  0  0  0  0  0
    1.7778    2.1158    1.2203 N   0  0  0  0  0  0  0  0  0  0  0  0
    3.4150    2.5777    1.3010 S   0  0  0  0  0  6  0  0  0  0  0  0
    3.9120    2.2565    2.6221 O   0  0  0  0  0  0  0  0  0  0  0  0
    3.5314    3.9150    0.7584 O   0  0  0  0  0  0  0  0  0  0  0  0
    4.2016    1.4607    0.1535 C   0  0  0  0  0  0  0  0  0  0  0  0
    4.7216    0.2471    0.6180 C   0  0  0  0  0  0  0  0  0  0  0  0
    5.3434   -0.6248   -0.2773 C   0  0  0  0  0  0  0  0  0  0  0  0
    5.4552   -0.2638   -1.6239 C   0  0  0  0  0  0  0  0  0  0  0  0
    6.2072   -1.3763   -2.7877 S   0  0  0  0  0  6  0  0  0  0  0  0
    6.6054   -2.5775   -2.0795 O   0  0  0  0  0  0  0  0  0  0  0  0
    5.3201   -1.4458   -3.9298 O   0  0  0  0  0  0  0  0  0  0  0  0
    7.6272   -0.5480   -3.2548 N   0  0  0  0  0  0  0  0  0  0  0  0
    8.6105   -0.3166   -2.1757 C   0  0  0  0  0  0  0  0  0  0  0  0
    8.2713   -1.1466   -4.4485 C   0  0  0  0  0  0  0  0  0  0  0  0
    4.9557    0.9577   -2.0861 C   0  0  0  0  0  0  0  0  0  0  0  0
    4.3376    1.8296   -1.1897 C   0  0  0  0  0  0  0  0  0  0  0  0
    1.4088    0.8308    1.8492 C   0  0  0  0  0  0  0  0  0  0  0  0
   -0.1082    0.7472    1.9531 C   0  0  0  0  0  0  0  0  0  0  0  0
   -3.1634    0.6410    0.1726 N   0  0  0  0  0  0  0  0  0  0  0  0
   -4.3474    1.2973    0.2457 C   0  0  0  0  0  0  0  0  0  0  0  0
   -6.6862   -1.4029    1.6596 C   0  0  0  0  0  0  0  0  0  0  0  0
   -6.8440   -1.7617    4.7065 H   0  0  0  0  0  0  0  0  0  0  0  0
   -8.3250   -1.4875    3.7524 H   0  0  0  0  0  0  0  0  0  0  0  0
   -7.9119   -3.1239    4.2698 H   0  0  0  0  0  0  0  0  0  0  0  0
   -5.8790   -4.2807    3.2775 H   0  0  0  0  0  0  0  0  0  0  0  0
   -4.5423   -4.5998    1.2468 H   0  0  0  0  0  0  0  0  0  0  0  0
   -3.8017   -3.9544   -0.8570 H   0  0  0  0  0  0  0  0  0  0  0  0
   -3.4996   -2.2172   -0.9744 H   0  0  0  0  0  0  0  0  0  0  0  0
   -4.9141   -2.9564   -1.7934 H   0  0  0  0  0  0  0  0  0  0  0  0
   -5.3179   -0.6680   -1.4266 H   0  0  0  0  0  0  0  0  0  0  0  0
   -6.9958   -0.4068   -0.9598 H   0  0  0  0  0  0  0  0  0  0  0  0
   -1.4703    3.1902    1.3717 H   0  0  0  0  0  0  0  0  0  0  0  0
   -0.8888   -0.2973    0.2602 H   0  0  0  0  0  0  0  0  0  0  0  0
    0.7694    0.6312   -0.9398 H   0  0  0  0  0  0  0  0  0  0  0  0
   -0.4893    1.7863   -1.3385 H   0  0  0  0  0  0  0  0  0  0  0  0
    0.4058    3.3951    0.2957 H   0  0  0  0  0  0  0  0  0  0  0  0
    1.6708    2.8501   -0.7850 H   0  0  0  0  0  0  0  0  0  0  0  0
    4.6489   -0.0221    1.6695 H   0  0  0  0  0  0  0  0  0  0  0  0
    5.7360   -1.5742    0.0794 H   0  0  0  0  0  0  0  0  0  0  0  0
    8.1599    0.2388   -1.3464 H   0  0  0  0  0  0  0  0  0  0  0  0
    9.4359    0.2986   -2.5571 H   0  0  0  0  0  0  0  0  0  0  0  0
    9.0222   -1.2619   -1.8045 H   0  0  0  0  0  0  0  0  0  0  0  0
    8.6426   -2.1516   -4.2272 H   0  0  0  0  0  0  0  0  0  0  0  0
    7.5701   -1.1878   -5.2875 H   0  0  0  0  0  0  0  0  0  0  0  0
    9.1158   -0.5266   -4.7688 H   0  0  0  0  0  0  0  0  0  0  0  0
    5.0474    1.2276   -3.1364 H   0  0  0  0  0  0  0  0  0  0  0  0
    3.9649    2.7878   -1.5442 H   0  0  0  0  0  0  0  0  0  0  0  0
    1.8027   -0.0115    1.2695 H   0  0  0  0  0  0  0  0  0  0  0  0
    1.8253    0.7750    2.8611 H   0  0  0  0  0  0  0  0  0  0  0  0
   -0.3922   -0.1726    2.4796 H   0  0  0  0  0  0  0  0  0  0  0  0
   -0.4735    1.5732    2.5761 H   0  0  0  0  0  0  0  0  0  0  0  0
   -7.2982   -0.5087    1.7915 H   0  0  0  0  0  0  0  0  0  0  0  0
  1  2  1  0
  2  3  2  0
  3  4  1  0
  4  5  2  0
  5  6  1  0
  5  7  1  0
  7  8  1  0
  8  9  1  0
  9 10  1  0
 10 11  2  0
 11 12  1  0
 12 13  1  0
 13 14  2  0
 13 15  1  0
 15 16  1  0
 16 17  1  0
 17 18  1  0
 18 19  1  0
 19 20  1  0
 20 21  1  0
 21 22  2  0
 21 23  2  0
 21 24  1  0
 24 25  2  0
 25 26  1  0
 26 27  2  0
 27 28  1  0
 28 29  2  0
 28 30  2  0
 28 31  1  0
 31 32  1  0
 31 33  1  0
 27 34  1  0
 34 35  2  0
 20 36  1  0
 36 37  1  0
 16 38  2  0
 38 39  1  0
  7 40  2  0
 40  2  1  0
 39  9  1  0
 39 12  2  0
 37 17  1  0
 35 24  1  0
  1 41  1  0
  1 42  1  0
  1 43  1  0
  3 44  1  0
  4 45  1  0
  6 46  1  0
  6 47  1  0
  6 48  1  0
  8 49  1  0
  8 50  1  0
 15 51  1  0
 17 52  1  0
 18 53  1  0
 18 54  1  0
 19 55  1  0
 19 56  1  0
 25 57  1  0
 26 58  1  0
 32 59  1  0
 32 60  1  0
 32 61  1  0
 33 62  1  0
 33 63  1  0
 33 64  1  0
 34 65  1  0
 35 66  1  0
 36 67  1  0
 36 68  1  0
 37 69  1  0
 37 70  1  0
 40 71  1  0
M  END
$$$$
