
     RDKit          3D

 53 55  0  0  0  0  0  0  0  0999 V2000
   -4.2630   -3.5564    0.7567 C   0  0  0  0  0  0  0  0  0  0  0  0
   -5.4178   -2.9971    0.1286 O   0  0  0  0  0  0  0  0  0  0  0  0
   -5.9064   -1.9385    0.8484 C   0  0  0  0  0  0  0  0  0  0  0  0
   -6.5126   -2.1594    2.0883 C   0  0  0  0  0  0  0  0  0  0  0  0
   -7.0448   -1.0889    2.8049 C   0  0  0  0  0  0  0  0  0  0  0  0
   -6.9838    0.1987    2.2767 C   0  0  0  0  0  0  0  0  0  0  0  0
   -6.3975    0.4154    1.0278 C   0  0  0  0  0  0  0  0  0  0  0  0
   -5.8586   -0.6537    0.2907 C   0  0  0  0  0  0  0  0  0  0  0  0
   -5.2229   -0.3919   -1.0500 C   0  0  0  0  0  0  0  0  0  0  0  0
   -3.9451    0.2608   -0.8991 N   0  0  0  0  0  0  0  0  0  0  0  0
   -2.7482   -0.3959   -1.0467 C   0  0  0  0  0  0  0  0  0  0  0  0
   -2.5814   -1.5446   -1.4302 O   0  0  0  0  0  0  0  0  0  0  0  0
   -1.5259    0.4755   -0.6747 C   0  0  0  0  0  0  0  0  0  0  0  0
   -1.6811    1.6443   -0.3500 O   0  0  0  0  0  0  0  0  0  0  0  0
   -0.3253   -0.1890   -0.7681 N   0  0  0  0  0  0  0  0  0  0  0  0
    0.9430    0.5153   -0.6897 C   0  0  0  0  0  0  0  0  0  0  0  0
    2.1302   -0.4377   -0.4799 C   0  0  0  0  0  0  0  0  0  0  0  0
    2.1964   -1.3524   -1.5944 O   0  0  0  0  0  0  0  0  0  0  0  0
    3.5769   -1.7052   -1.6985 C   0  0  0  0  0  0  0  0  0  0  0  0
    4.2926   -0.3983   -1.4434 C   0  0  0  0  0  0  0  0  0  0  0  0
    3.4149    0.2990   -0.4804 N   0  0  0  0  0  0  0  0  0  0  0  0
    4.0250    0.5686    1.0709 S   0  0  0  0  0  6  0  0  0  0  0  0
    4.6143   -0.6743    1.5215 O   0  0  0  0  0  0  0  0  0  0  0  0
    3.0032    1.2408    1.8406 O   0  0  0  0  0  0  0  0  0  0  0  0
    5.3249    1.7387    0.7691 C   0  0  0  0  0  0  0  0  0  0  0  0
    6.6611    1.3681    0.9495 C   0  0  0  0  0  0  0  0  0  0  0  0
    7.6701    2.3028    0.7089 C   0  0  0  0  0  0  0  0  0  0  0  0
    7.3354    3.5957    0.3012 C   0  0  0  0  0  0  0  0  0  0  0  0
    8.7056    4.8574   -0.0227 Br  0  0  0  0  0  0  0  0  0  0  0  0
    5.9999    3.9687    0.1353 C   0  0  0  0  0  0  0  0  0  0  0  0
    4.9874    3.0373    0.3711 C   0  0  0  0  0  0  0  0  0  0  0  0
   -4.5506   -4.1807    1.6088 H   0  0  0  0  0  0  0  0  0  0  0  0
   -3.7604   -4.1950    0.0244 H   0  0  0  0  0  0  0  0  0  0  0  0
   -3.5555   -2.7819    1.0735 H   0  0  0  0  0  0  0  0  0  0  0  0
   -6.5837   -3.1649    2.4931 H   0  0  0  0  0  0  0  0  0  0  0  0
   -7.5135   -1.2605    3.7704 H   0  0  0  0  0  0  0  0  0  0  0  0
   -7.3999    1.0344    2.8340 H   0  0  0  0  0  0  0  0  0  0  0  0
   -6.3664    1.4267    0.6281 H   0  0  0  0  0  0  0  0  0  0  0  0
   -5.8652    0.2812   -1.6297 H   0  0  0  0  0  0  0  0  0  0  0  0
   -5.1122   -1.3079   -1.6392 H   0  0  0  0  0  0  0  0  0  0  0  0
   -3.9000    1.1935   -0.4991 H   0  0  0  0  0  0  0  0  0  0  0  0
   -0.3557   -1.0897   -1.2449 H   0  0  0  0  0  0  0  0  0  0  0  0
    0.8859    1.2600    0.1113 H   0  0  0  0  0  0  0  0  0  0  0  0
    1.0537    1.0565   -1.6373 H   0  0  0  0  0  0  0  0  0  0  0  0
    1.9928   -1.0421    0.4250 H   0  0  0  0  0  0  0  0  0  0  0  0
    3.7889   -2.1209   -2.6868 H   0  0  0  0  0  0  0  0  0  0  0  0
    3.8086   -2.4551   -0.9339 H   0  0  0  0  0  0  0  0  0  0  0  0
    4.3286    0.2094   -2.3544 H   0  0  0  0  0  0  0  0  0  0  0  0
    5.3174   -0.5539   -1.0998 H   0  0  0  0  0  0  0  0  0  0  0  0
    6.9248    0.3650    1.2781 H   0  0  0  0  0  0  0  0  0  0  0  0
    8.7107    2.0174    0.8467 H   0  0  0  0  0  0  0  0  0  0  0  0
    5.7398    4.9793   -0.1712 H   0  0  0  0  0  0  0  0  0  0  0  0
    3.9453    3.3253    0.2471 H   0  0  0  0  0  0  0  0  0  0  0  0
  1  2  1  0
  2  3  1  0
  3  4  2  0
  4  5  1  0
  5  6  2  0
  6  7  1  0
  7  8  2  0
  8  9  1  0
  9 10  1  0
 10 11  1  0
 11 12  2  0
 11 13  1  0
 13 14  2  0
 13 15  1  0
 15 16  1  0
 16 17  1  0
 17 18  1  0
 18 19  1  0
 19 20  1  0
 20 21  1  0
 21 22  1  0
 22 23  2  0
 22 24  2  0
 22 25  1  0
 25 26  2  0
 26 27  1  0
 27 28  2  0
 28 29  1  0
 28 30  1  0
 30 31  2  0
  8  3  1  0
 21 17  1  0
 31 25  1  0
  1 32  1  0
  1 33  1  0
  1 34  1  0
  4 35  1  0
  5 36  1  0
  6 37  1  0
  7 38  1  0
  9 39  1  0
  9 40  1  0
 10 41  1  0
 15 42  1  0
 16 43  1  0
 16 44  1  0
 17 45  1  0
 19 46  1  0
 19 47  1  0
 20 48  1  0
 20 49  1  0
 26 50  1  0
 27 51  1  0
 30 52  1  0
 31 53  1  0
M  END
$$$$
