
     RDKit          3D

 48 51  0  0  0  0  0  0  0  0999 V2000
   -0.7706    1.9954   -2.7505 C   0  0  0  0  0  0  0  0  0  0  0  0
   -0.7092    2.1135   -1.2373 C   0  0  0  0  0  0  0  0  0  0  0  0
   -0.6954    0.8263   -0.5786 N   0  0  0  0  0  0  0  0  0  0  0  0
   -1.7793    0.1446   -0.0869 C   0  0  0  0  0  0  0  0  0  0  0  0
   -3.4156    0.6828   -0.2294 S   0  0  0  0  0  0  0  0  0  0  0  0
   -4.2846   -0.6956    0.5799 C   0  0  0  0  0  0  0  0  0  0  0  0
   -5.7750   -0.4539    0.6147 C   0  0  0  0  0  0  0  0  0  0  0  0
   -6.5893   -0.8689   -0.4524 C   0  0  0  0  0  0  0  0  0  0  0  0
   -7.9645   -0.6323   -0.4242 C   0  0  0  0  0  0  0  0  0  0  0  0
   -8.5256    0.0217    0.6660 C   0  0  0  0  0  0  0  0  0  0  0  0
   -9.8453    0.2488    0.6911 F   0  0  0  0  0  0  0  0  0  0  0  0
   -7.7379    0.4467    1.7290 C   0  0  0  0  0  0  0  0  0  0  0  0
   -6.3624    0.2118    1.7037 C   0  0  0  0  0  0  0  0  0  0  0  0
   -1.3848   -0.9619    0.4919 N   0  0  0  0  0  0  0  0  0  0  0  0
   -0.0229   -1.0267    0.3714 N   0  0  0  0  0  0  0  0  0  0  0  0
    0.3956    0.0334   -0.2922 C   0  0  0  0  0  0  0  0  0  0  0  0
    1.9067    0.2542   -0.6129 C   0  0  0  0  0  0  0  0  0  0  0  0
    2.5482    1.3064   -1.2723 C   0  0  0  0  0  0  0  0  0  0  0  0
    3.8664    1.1367   -1.3305 N   0  0  0  0  0  0  0  0  0  0  0  0
    4.1071    0.0289   -0.5708 N   0  0  0  0  0  0  0  0  0  0  0  0
    5.4458   -0.2165   -0.1372 C   0  0  0  0  0  0  0  0  0  0  0  0
    5.7341   -0.9963    0.9897 C   0  0  0  0  0  0  0  0  0  0  0  0
    7.0603   -1.1907    1.3909 C   0  0  0  0  0  0  0  0  0  0  0  0
    8.1046   -0.5990    0.6838 C   0  0  0  0  0  0  0  0  0  0  0  0
    7.8275    0.2003   -0.4215 C   0  0  0  0  0  0  0  0  0  0  0  0
    6.5055    0.3988   -0.8265 C   0  0  0  0  0  0  0  0  0  0  0  0
    2.9242   -0.6397   -0.3154 C   0  0  0  0  0  0  0  0  0  0  0  0
    2.8652   -2.0434    0.1205 C   0  0  0  0  0  0  0  0  0  0  0  0
    1.8378   -2.7216   -0.4489 F   0  0  0  0  0  0  0  0  0  0  0  0
    3.9762   -2.7457   -0.2243 F   0  0  0  0  0  0  0  0  0  0  0  0
    2.7336   -2.1539    1.4648 F   0  0  0  0  0  0  0  0  0  0  0  0
    0.0772    1.4259   -3.1442 H   0  0  0  0  0  0  0  0  0  0  0  0
   -0.7569    2.9889   -3.2094 H   0  0  0  0  0  0  0  0  0  0  0  0
   -1.6864    1.4864   -3.0694 H   0  0  0  0  0  0  0  0  0  0  0  0
    0.1731    2.6717   -0.9154 H   0  0  0  0  0  0  0  0  0  0  0  0
   -1.5641    2.6907   -0.8711 H   0  0  0  0  0  0  0  0  0  0  0  0
   -4.0768   -1.6293    0.0441 H   0  0  0  0  0  0  0  0  0  0  0  0
   -3.9107   -0.8216    1.6028 H   0  0  0  0  0  0  0  0  0  0  0  0
   -6.1544   -1.3772   -1.3109 H   0  0  0  0  0  0  0  0  0  0  0  0
   -8.5996   -0.9519   -1.2441 H   0  0  0  0  0  0  0  0  0  0  0  0
   -8.1983    0.9586    2.5677 H   0  0  0  0  0  0  0  0  0  0  0  0
   -5.7498    0.5508    2.5369 H   0  0  0  0  0  0  0  0  0  0  0  0
    2.1417    2.1937   -1.7352 H   0  0  0  0  0  0  0  0  0  0  0  0
    4.9615   -1.4406    1.6081 H   0  0  0  0  0  0  0  0  0  0  0  0
    7.2768   -1.7993    2.2660 H   0  0  0  0  0  0  0  0  0  0  0  0
    9.1330   -0.7528    1.0007 H   0  0  0  0  0  0  0  0  0  0  0  0
    8.6389    0.6722   -0.9700 H   0  0  0  0  0  0  0  0  0  0  0  0
    6.3184    1.0295   -1.6943 H   0  0  0  0  0  0  0  0  0  0  0  0
  1  2  1  0
  2  3  1  0
  3  4  1  0
  4  5  1  0
  5  6  1  0
  6  7  1  0
  7  8  2  0
  8  9  1  0
  9 10  2  0
 10 11  1  0
 10 12  1  0
 12 13  2  0
  4 14  2  0
 14 15  1  0
 15 16  2  0
 16 17  1  0
 17 18  1  0
 18 19  2  0
 19 20  1  0
 20 21  1  0
 21 22  2  0
 22 23  1  0
 23 24  2  0
 24 25  1  0
 25 26  2  0
 20 27  1  0
 27 28  1  0
 28 29  1  0
 28 30  1  0
 28 31  1  0
 16  3  1  0
 27 17  2  0
 13  7  1  0
 26 21  1  0
  1 32  1  0
  1 33  1  0
  1 34  1  0
  2 35  1  0
  2 36  1  0
  6 37  1  0
  6 38  1  0
  8 39  1  0
  9 40  1  0
 12 41  1  0
 13 42  1  0
 18 43  1  0
 22 44  1  0
 23 45  1  0
 24 46  1  0
 25 47  1  0
 26 48  1  0
M  END
$$$$
