
     RDKit          3D

 45 49  0  0  0  0  0  0  0  0999 V2000
    5.6204    3.3985    2.0700 Cl  0  0  0  0  0  0  0  0  0  0  0  0
    5.3329    2.1678    0.9001 C   0  0  0  0  0  0  0  0  0  0  0  0
    6.3510    1.7940    0.0324 C   0  0  0  0  0  0  0  0  0  0  0  0
    6.1043    0.8056   -0.9125 C   0  0  0  0  0  0  0  0  0  0  0  0
    4.8434    0.1983   -0.9797 C   0  0  0  0  0  0  0  0  0  0  0  0
    3.7975    0.5501   -0.1093 C   0  0  0  0  0  0  0  0  0  0  0  0
    2.5461   -0.0441   -0.1773 N   0  0  0  0  0  0  0  0  0  0  0  0
    2.1312   -0.8716   -1.3228 C   0  0  0  0  0  0  0  0  0  0  0  0
    0.5915   -0.9498   -1.4424 C   0  0  0  0  0  0  0  0  0  0  0  0
   -0.0921   -1.3691   -0.1927 N   0  0  0  0  0  0  0  0  0  0  0  0
   -1.3995   -0.9129   -0.0058 C   0  0  0  0  0  0  0  0  0  0  0  0
   -1.6758   -0.2036    1.0606 N   0  0  0  0  0  0  0  0  0  0  0  0
   -2.9692    0.3150    1.2650 C   0  0  0  0  0  0  0  0  0  0  0  0
   -3.2049    1.0754    2.4121 C   0  0  0  0  0  0  0  0  0  0  0  0
   -4.4664    1.6240    2.6580 C   0  0  0  0  0  0  0  0  0  0  0  0
   -5.5086    1.4163    1.7537 C   0  0  0  0  0  0  0  0  0  0  0  0
   -5.2959    0.6596    0.6008 C   0  0  0  0  0  0  0  0  0  0  0  0
   -4.0282    0.1177    0.3683 C   0  0  0  0  0  0  0  0  0  0  0  0
   -3.7304   -0.6658   -0.7581 N   0  0  0  0  0  0  0  0  0  0  0  0
   -4.5474   -1.0550   -1.7931 C   0  0  0  0  0  0  0  0  0  0  0  0
   -3.8227   -1.8780   -2.6273 C   0  0  0  0  0  0  0  0  0  0  0  0
   -2.5194   -1.9783   -2.0871 C   0  0  0  0  0  0  0  0  0  0  0  0
   -2.4709   -1.1904   -0.9507 C   0  0  0  0  0  0  0  0  0  0  0  0
    0.8046   -1.3995    0.9833 C   0  0  0  0  0  0  0  0  0  0  0  0
    1.7074   -0.1522    1.0389 C   0  0  0  0  0  0  0  0  0  0  0  0
    4.0766    1.5577    0.8297 C   0  0  0  0  0  0  0  0  0  0  0  0
    7.3274    2.2663    0.0854 H   0  0  0  0  0  0  0  0  0  0  0  0
    6.8896    0.5000   -1.5991 H   0  0  0  0  0  0  0  0  0  0  0  0
    4.7069   -0.5809   -1.7242 H   0  0  0  0  0  0  0  0  0  0  0  0
    2.5481   -1.8804   -1.2130 H   0  0  0  0  0  0  0  0  0  0  0  0
    2.5069   -0.4520   -2.2637 H   0  0  0  0  0  0  0  0  0  0  0  0
    0.2227    0.0413   -1.7380 H   0  0  0  0  0  0  0  0  0  0  0  0
    0.3461   -1.6508   -2.2457 H   0  0  0  0  0  0  0  0  0  0  0  0
   -2.3949    1.2415    3.1173 H   0  0  0  0  0  0  0  0  0  0  0  0
   -4.6333    2.2139    3.5556 H   0  0  0  0  0  0  0  0  0  0  0  0
   -6.4885    1.8450    1.9494 H   0  0  0  0  0  0  0  0  0  0  0  0
   -6.1220    0.5097   -0.0861 H   0  0  0  0  0  0  0  0  0  0  0  0
   -5.5788   -0.7399   -1.8548 H   0  0  0  0  0  0  0  0  0  0  0  0
   -4.1976   -2.3626   -3.5196 H   0  0  0  0  0  0  0  0  0  0  0  0
   -1.7073   -2.5708   -2.4845 H   0  0  0  0  0  0  0  0  0  0  0  0
    1.4265   -2.3012    0.9128 H   0  0  0  0  0  0  0  0  0  0  0  0
    0.2421   -1.5034    1.9186 H   0  0  0  0  0  0  0  0  0  0  0  0
    2.3329   -0.2401    1.9355 H   0  0  0  0  0  0  0  0  0  0  0  0
    1.0973    0.7537    1.1314 H   0  0  0  0  0  0  0  0  0  0  0  0
    3.3007    1.9007    1.5085 H   0  0  0  0  0  0  0  0  0  0  0  0
  1  2  1  0
  2  3  2  0
  3  4  1  0
  4  5  2  0
  5  6  1  0
  6  7  1  0
  7  8  1  0
  8  9  1  0
  9 10  1  0
 10 11  1  0
 11 12  2  0
 12 13  1  0
 13 14  2  0
 14 15  1  0
 15 16  2  0
 16 17  1  0
 17 18  2  0
 18 19  1  0
 19 20  1  0
 20 21  2  0
 21 22  1  0
 22 23  2  0
 10 24  1  0
 24 25  1  0
  6 26  2  0
 26  2  1  0
 25  7  1  0
 23 11  1  0
 18 13  1  0
 23 19  1  0
  3 27  1  0
  4 28  1  0
  5 29  1  0
  8 30  1  0
  8 31  1  0
  9 32  1  0
  9 33  1  0
 14 34  1  0
 15 35  1  0
 16 36  1  0
 17 37  1  0
 20 38  1  0
 21 39  1  0
 22 40  1  0
 24 41  1  0
 24 42  1  0
 25 43  1  0
 25 44  1  0
 26 45  1  0
M  END
$$$$
