
     RDKit          3D

 48 51  0  0  0  0  0  0  0  0999 V2000
    7.6491    0.6976   -2.0062 C   0  0  0  0  0  0  0  0  0  0  0  0
    6.2899    0.5846   -1.4496 C   0  0  0  0  0  0  0  0  0  0  0  0
    5.7783    0.1880   -0.2404 C   0  0  0  0  0  0  0  0  0  0  0  0
    4.3749    0.3280   -0.3825 C   0  0  0  0  0  0  0  0  0  0  0  0
    3.3466    0.0349    0.6169 C   0  0  0  0  0  0  0  0  0  0  0  0
    3.6135   -0.4193    1.7255 O   0  0  0  0  0  0  0  0  0  0  0  0
    2.0620    0.3022    0.1990 N   0  0  0  0  0  0  0  0  0  0  0  0
    0.9080   -0.0660    0.9846 C   0  0  0  0  0  0  0  0  0  0  0  0
    0.5942   -1.5728    0.8242 C   0  0  0  0  0  0  0  0  0  0  0  0
   -0.8525   -1.9631    1.2476 C   0  0  0  0  0  0  0  0  0  0  0  0
   -1.0657   -1.7038    2.7530 C   0  0  0  0  0  0  0  0  0  0  0  0
   -1.0545   -3.4689    0.9923 C   0  0  0  0  0  0  0  0  0  0  0  0
   -1.8992   -1.1680    0.4040 C   0  0  0  0  0  0  0  0  0  0  0  0
   -1.5114    0.2678    0.2672 C   0  0  0  0  0  0  0  0  0  0  0  0
   -0.2480    0.7625    0.5417 C   0  0  0  0  0  0  0  0  0  0  0  0
   -0.3729    2.1488    0.4051 C   0  0  0  0  0  0  0  0  0  0  0  0
   -1.6005    2.5130    0.0455 N   0  0  0  0  0  0  0  0  0  0  0  0
   -2.3012    1.3503   -0.1016 N   0  0  0  0  0  0  0  0  0  0  0  0
   -3.6487    1.4161   -0.5791 C   0  0  0  0  0  0  0  0  0  0  0  0
   -4.3621    0.2849   -0.9967 C   0  0  0  0  0  0  0  0  0  0  0  0
   -5.6789    0.4095   -1.4566 C   0  0  0  0  0  0  0  0  0  0  0  0
   -6.2810    1.6600   -1.5083 C   0  0  0  0  0  0  0  0  0  0  0  0
   -7.5401    1.7691   -1.9509 F   0  0  0  0  0  0  0  0  0  0  0  0
   -5.5901    2.7961   -1.1158 C   0  0  0  0  0  0  0  0  0  0  0  0
   -4.2757    2.6766   -0.6570 C   0  0  0  0  0  0  0  0  0  0  0  0
    4.0634    0.7796   -1.6115 N   0  0  0  0  0  0  0  0  0  0  0  0
    5.2682    0.9392   -2.2726 O   0  0  0  0  0  0  0  0  0  0  0  0
    7.8595    1.7310   -2.2979 H   0  0  0  0  0  0  0  0  0  0  0  0
    8.4008    0.3913   -1.2721 H   0  0  0  0  0  0  0  0  0  0  0  0
    7.7562    0.0603   -2.8893 H   0  0  0  0  0  0  0  0  0  0  0  0
    6.3215   -0.1540    0.6283 H   0  0  0  0  0  0  0  0  0  0  0  0
    1.9468    0.5646   -0.7756 H   0  0  0  0  0  0  0  0  0  0  0  0
    1.1204    0.1483    2.0393 H   0  0  0  0  0  0  0  0  0  0  0  0
    0.7360   -1.8594   -0.2286 H   0  0  0  0  0  0  0  0  0  0  0  0
    1.3293   -2.1581    1.3923 H   0  0  0  0  0  0  0  0  0  0  0  0
   -0.3204   -2.2398    3.3516 H   0  0  0  0  0  0  0  0  0  0  0  0
   -0.9937   -0.6422    3.0085 H   0  0  0  0  0  0  0  0  0  0  0  0
   -2.0561   -2.0474    3.0732 H   0  0  0  0  0  0  0  0  0  0  0  0
   -0.3513   -4.0679    1.5818 H   0  0  0  0  0  0  0  0  0  0  0  0
   -0.8982   -3.7174   -0.0634 H   0  0  0  0  0  0  0  0  0  0  0  0
   -2.0695   -3.7825    1.2612 H   0  0  0  0  0  0  0  0  0  0  0  0
   -2.8845   -1.2645    0.8736 H   0  0  0  0  0  0  0  0  0  0  0  0
   -1.9507   -1.6031   -0.6019 H   0  0  0  0  0  0  0  0  0  0  0  0
    0.3760    2.9144    0.5662 H   0  0  0  0  0  0  0  0  0  0  0  0
   -3.9296   -0.7061   -1.0186 H   0  0  0  0  0  0  0  0  0  0  0  0
   -6.2350   -0.4634   -1.7852 H   0  0  0  0  0  0  0  0  0  0  0  0
   -6.0715    3.7674   -1.1685 H   0  0  0  0  0  0  0  0  0  0  0  0
   -3.7515    3.5819   -0.3525 H   0  0  0  0  0  0  0  0  0  0  0  0
  1  2  1  0
  2  3  2  0
  3  4  1  0
  4  5  1  0
  5  6  2  0
  5  7  1  0
  7  8  1  0
  8  9  1  0
  9 10  1  0
 10 11  1  0
 10 12  1  0
 10 13  1  0
 13 14  1  0
 14 15  2  0
 15 16  1  0
 16 17  2  0
 17 18  1  0
 18 19  1  0
 19 20  2  0
 20 21  1  0
 21 22  2  0
 22 23  1  0
 22 24  1  0
 24 25  2  0
  4 26  2  0
 26 27  1  0
 27  2  1  0
 15  8  1  0
 25 19  1  0
 18 14  1  0
  1 28  1  0
  1 29  1  0
  1 30  1  0
  3 31  1  0
  7 32  1  0
  8 33  1  0
  9 34  1  0
  9 35  1  0
 11 36  1  0
 11 37  1  0
 11 38  1  0
 12 39  1  0
 12 40  1  0
 12 41  1  0
 13 42  1  0
 13 43  1  0
 16 44  1  0
 20 45  1  0
 21 46  1  0
 24 47  1  0
 25 48  1  0
M  END
$$$$
