
     RDKit          3D

 36 35  0  0  0  0  0  0  0  0999 V2000
    4.1990   -1.2275   -2.1347 C   0  0  0  0  0  0  0  0  0  0  0  0
    3.3707   -0.1547   -1.4453 C   0  0  0  0  0  0  0  0  0  0  0  0
    2.2142   -0.6952   -0.7063 N   0  0  0  0  0  0  0  0  0  0  0  0
    1.0182   -0.9733   -1.5244 C   0  0  0  0  0  0  0  0  0  0  0  0
    0.8736   -2.4449   -1.8888 C   0  0  0  0  0  0  0  0  0  0  0  0
    2.2956   -0.9725    0.6763 C   0  0  0  0  0  0  0  0  0  0  0  0
    3.7173   -0.9758    1.5881 S   0  0  0  0  0  0  0  0  0  0  0  0
    0.7733   -1.3963    1.4893 S   0  0  0  0  0  0  0  0  0  0  0  0
    0.3533    0.3223    2.5543 S   0  0  0  0  0  0  0  0  0  0  0  0
   -0.4006    1.3550    1.3242 C   0  0  0  0  0  0  0  0  0  0  0  0
    0.5887    2.4772    0.5376 S   0  0  0  0  0  0  0  0  0  0  0  0
   -1.7886    1.2019    1.1045 N   0  0  0  0  0  0  0  0  0  0  0  0
   -2.4903    1.9833    0.0681 C   0  0  0  0  0  0  0  0  0  0  0  0
   -3.0237    3.3085    0.5962 C   0  0  0  0  0  0  0  0  0  0  0  0
   -2.6699    0.3675    1.9454 C   0  0  0  0  0  0  0  0  0  0  0  0
   -3.0560   -0.9420    1.2720 C   0  0  0  0  0  0  0  0  0  0  0  0
    3.6367   -1.6984   -2.9457 H   0  0  0  0  0  0  0  0  0  0  0  0
    5.0990   -0.7844   -2.5727 H   0  0  0  0  0  0  0  0  0  0  0  0
    4.5069   -2.0124   -1.4377 H   0  0  0  0  0  0  0  0  0  0  0  0
    3.0042    0.5677   -2.1842 H   0  0  0  0  0  0  0  0  0  0  0  0
    4.0120    0.4208   -0.7710 H   0  0  0  0  0  0  0  0  0  0  0  0
    0.1207   -0.6372   -0.9979 H   0  0  0  0  0  0  0  0  0  0  0  0
    1.0656   -0.3751   -2.4414 H   0  0  0  0  0  0  0  0  0  0  0  0
    0.8146   -3.0825   -1.0023 H   0  0  0  0  0  0  0  0  0  0  0  0
    1.7191   -2.7943   -2.4867 H   0  0  0  0  0  0  0  0  0  0  0  0
   -0.0378   -2.5972   -2.4756 H   0  0  0  0  0  0  0  0  0  0  0  0
   -1.8267    2.1650   -0.7823 H   0  0  0  0  0  0  0  0  0  0  0  0
   -3.3195    1.3846   -0.3233 H   0  0  0  0  0  0  0  0  0  0  0  0
   -2.2228    3.9364    0.9973 H   0  0  0  0  0  0  0  0  0  0  0  0
   -3.7523    3.1519    1.3977 H   0  0  0  0  0  0  0  0  0  0  0  0
   -3.5201    3.8618   -0.2070 H   0  0  0  0  0  0  0  0  0  0  0  0
   -2.2155    0.1585    2.9160 H   0  0  0  0  0  0  0  0  0  0  0  0
   -3.5759    0.9438    2.1648 H   0  0  0  0  0  0  0  0  0  0  0  0
   -3.6823   -1.5392    1.9422 H   0  0  0  0  0  0  0  0  0  0  0  0
   -2.1780   -1.5351    1.0081 H   0  0  0  0  0  0  0  0  0  0  0  0
   -3.6228   -0.7680    0.3526 H   0  0  0  0  0  0  0  0  0  0  0  0
  1  2  1  0
  2  3  1  0
  3  4  1  0
  4  5  1  0
  3  6  1  0
  6  7  2  0
  6  8  1  0
  8  9  1  0
  9 10  1  0
 10 11  2  0
 10 12  1  0
 12 13  1  0
 13 14  1  0
 12 15  1  0
 15 16  1  0
  1 17  1  0
  1 18  1  0
  1 19  1  0
  2 20  1  0
  2 21  1  0
  4 22  1  0
  4 23  1  0
  5 24  1  0
  5 25  1  0
  5 26  1  0
 13 27  1  0
 13 28  1  0
 14 29  1  0
 14 30  1  0
 14 31  1  0
 15 32  1  0
 15 33  1  0
 16 34  1  0
 16 35  1  0
 16 36  1  0
M  END
$$$$
