
     RDKit          3D

 33 34  0  0  0  0  0  0  0  0999 V2000
    0.1312   -2.3459   -1.3333 O   0  0  0  0  0  0  0  0  0  0  0  0
    0.1052   -1.2651   -0.7602 C   0  0  0  0  0  0  0  0  0  0  0  0
   -1.1518   -0.5271   -0.4862 C   0  0  0  0  0  0  0  0  0  0  0  0
   -2.3223   -1.0386   -0.8955 C   0  0  0  0  0  0  0  0  0  0  0  0
   -3.6044   -0.3597   -0.6446 C   0  0  0  0  0  0  0  0  0  0  0  0
   -4.4679   -0.8166    0.3693 C   0  0  0  0  0  0  0  0  0  0  0  0
   -4.0702   -2.1755    1.3675 Cl  0  0  0  0  0  0  0  0  0  0  0  0
   -5.6897   -0.1791    0.6164 C   0  0  0  0  0  0  0  0  0  0  0  0
   -6.0723    0.9231   -0.1437 C   0  0  0  0  0  0  0  0  0  0  0  0
   -5.2334    1.3889   -1.1532 C   0  0  0  0  0  0  0  0  0  0  0  0
   -4.0105    0.7544   -1.4039 C   0  0  0  0  0  0  0  0  0  0  0  0
   -3.0396    1.3960   -2.6874 Cl  0  0  0  0  0  0  0  0  0  0  0  0
    1.2185   -0.6072   -0.3094 N   0  0  0  0  0  0  0  0  0  0  0  0
    2.5348   -1.1595   -0.5198 C   0  0  0  0  0  0  0  0  0  0  0  0
    3.5857   -0.2874    0.1119 C   0  0  0  0  0  0  0  0  0  0  0  0
    4.1903    0.7435   -0.6212 C   0  0  0  0  0  0  0  0  0  0  0  0
    5.1419    1.5717   -0.0240 C   0  0  0  0  0  0  0  0  0  0  0  0
    5.4917    1.3829    1.3119 C   0  0  0  0  0  0  0  0  0  0  0  0
    4.8888    0.3683    2.0532 C   0  0  0  0  0  0  0  0  0  0  0  0
    3.9371   -0.4610    1.4580 C   0  0  0  0  0  0  0  0  0  0  0  0
   -1.0929    0.4156    0.0422 H   0  0  0  0  0  0  0  0  0  0  0  0
   -2.3769   -1.9929   -1.4156 H   0  0  0  0  0  0  0  0  0  0  0  0
   -6.3480   -0.5414    1.4031 H   0  0  0  0  0  0  0  0  0  0  0  0
   -7.0225    1.4160    0.0482 H   0  0  0  0  0  0  0  0  0  0  0  0
   -5.5380    2.2475   -1.7477 H   0  0  0  0  0  0  0  0  0  0  0  0
    1.1469    0.3043    0.1202 H   0  0  0  0  0  0  0  0  0  0  0  0
    2.5667   -2.1728   -0.1018 H   0  0  0  0  0  0  0  0  0  0  0  0
    2.7048   -1.2562   -1.5988 H   0  0  0  0  0  0  0  0  0  0  0  0
    3.9230    0.9052   -1.6635 H   0  0  0  0  0  0  0  0  0  0  0  0
    5.6105    2.3646   -0.6012 H   0  0  0  0  0  0  0  0  0  0  0  0
    6.2339    2.0274    1.7757 H   0  0  0  0  0  0  0  0  0  0  0  0
    5.1598    0.2227    3.0958 H   0  0  0  0  0  0  0  0  0  0  0  0
    3.4696   -1.2460    2.0492 H   0  0  0  0  0  0  0  0  0  0  0  0
  1  2  2  0
  2  3  1  0
  3  4  2  3
  4  5  1  0
  5  6  2  0
  6  7  1  0
  6  8  1  0
  8  9  2  0
  9 10  1  0
 10 11  2  0
 11 12  1  0
  2 13  1  0
 13 14  1  0
 14 15  1  0
 15 16  2  0
 16 17  1  0
 17 18  2  0
 18 19  1  0
 19 20  2  0
 11  5  1  0
 20 15  1  0
  3 21  1  0
  4 22  1  0
  8 23  1  0
  9 24  1  0
 10 25  1  0
 13 26  1  0
 14 27  1  0
 14 28  1  0
 16 29  1  0
 17 30  1  0
 18 31  1  0
 19 32  1  0
 20 33  1  0
M  END
$$$$
