
     RDKit          3D

 26 27  0  0  0  0  0  0  0  0999 V2000
    4.8460    1.3597   -0.1534 C   0  0  0  0  0  0  0  0  0  0  0  0
    3.7091    0.4720   -0.1709 N   0  0  0  0  0  0  0  0  0  0  0  0
    3.7293   -0.8817   -0.3144 C   0  0  0  0  0  0  0  0  0  0  0  0
    2.4134   -1.2794   -0.2704 C   0  0  0  0  0  0  0  0  0  0  0  0
    1.6725   -0.0908   -0.0981 C   0  0  0  0  0  0  0  0  0  0  0  0
    0.3170    0.0962    0.0122 N   0  0  0  0  0  0  0  0  0  0  0  0
   -0.6327   -0.8934   -0.0734 C   0  0  0  0  0  0  0  0  0  0  0  0
   -0.4261   -2.0802   -0.3024 O   0  0  0  0  0  0  0  0  0  0  0  0
   -2.0419   -0.4374    0.1033 C   0  0  0  0  0  0  0  0  0  0  0  0
   -3.0554   -1.1306   -0.5740 C   0  0  0  0  0  0  0  0  0  0  0  0
   -4.3902   -0.7410   -0.4353 C   0  0  0  0  0  0  0  0  0  0  0  0
   -4.7139    0.3352    0.3886 C   0  0  0  0  0  0  0  0  0  0  0  0
   -6.3564    0.8156    0.5619 Cl  0  0  0  0  0  0  0  0  0  0  0  0
   -3.7157    1.0211    1.0803 C   0  0  0  0  0  0  0  0  0  0  0  0
   -2.3786    0.6342    0.9429 C   0  0  0  0  0  0  0  0  0  0  0  0
    2.4701    0.9793   -0.0340 N   0  0  0  0  0  0  0  0  0  0  0  0
    4.8608    1.8817    0.8066 H   0  0  0  0  0  0  0  0  0  0  0  0
    5.7635    0.7790   -0.2766 H   0  0  0  0  0  0  0  0  0  0  0  0
    4.7409    2.0706   -0.9767 H   0  0  0  0  0  0  0  0  0  0  0  0
    4.6473   -1.4393   -0.4334 H   0  0  0  0  0  0  0  0  0  0  0  0
    2.0423   -2.2913   -0.3527 H   0  0  0  0  0  0  0  0  0  0  0  0
    0.0670    1.0691    0.1021 H   0  0  0  0  0  0  0  0  0  0  0  0
   -2.8058   -1.9762   -1.2131 H   0  0  0  0  0  0  0  0  0  0  0  0
   -5.1675   -1.2829   -0.9680 H   0  0  0  0  0  0  0  0  0  0  0  0
   -3.9731    1.8504    1.7349 H   0  0  0  0  0  0  0  0  0  0  0  0
   -1.6221    1.1600    1.5194 H   0  0  0  0  0  0  0  0  0  0  0  0
  1  2  1  0
  2  3  1  0
  3  4  2  0
  4  5  1  0
  5  6  1  0
  6  7  1  0
  7  8  2  0
  7  9  1  0
  9 10  2  0
 10 11  1  0
 11 12  2  0
 12 13  1  0
 12 14  1  0
 14 15  2  0
  5 16  2  0
 16  2  1  0
 15  9  1  0
  1 17  1  0
  1 18  1  0
  1 19  1  0
  3 20  1  0
  4 21  1  0
  6 22  1  0
 10 23  1  0
 11 24  1  0
 14 25  1  0
 15 26  1  0
M  END
$$$$
