
     RDKit          3D

 79 84  0  0  0  0  0  0  0  0999 V2000
   -4.9859    2.8651   -3.2291 C   0  0  0  0  0  0  0  0  0  0  0  0
   -4.6323    3.7185   -2.2552 C   0  0  0  0  0  0  0  0  0  0  0  0
   -5.6543    4.5526   -1.5294 C   0  0  0  0  0  0  0  0  0  0  0  0
   -3.1866    3.9799   -1.8728 C   0  0  0  0  0  0  0  0  0  0  0  0
   -2.2801    2.7507   -1.7185 C   0  0  1  0  0  0  0  0  0  0  0  0
   -0.9365    3.2263   -1.5217 O   0  0  0  0  0  0  0  0  0  0  0  0
   -2.6758    1.8963   -0.5077 C   0  0  0  0  0  0  0  0  0  0  0  0
   -1.8817    0.7090   -0.4542 O   0  0  0  0  0  0  0  0  0  0  0  0
   -2.2551   -0.4158   -1.1450 C   0  0  0  0  0  0  0  0  0  0  0  0
   -3.5094   -0.5755   -1.7508 C   0  0  0  0  0  0  0  0  0  0  0  0
   -3.7811   -1.7715   -2.3785 C   0  0  0  0  0  0  0  0  0  0  0  0
   -2.8595   -2.7824   -2.4356 C   0  0  0  0  0  0  0  0  0  0  0  0
   -1.6077   -2.6575   -1.8735 C   0  0  0  0  0  0  0  0  0  0  0  0
   -1.2779   -1.4646   -1.1907 C   0  0  0  0  0  0  0  0  0  0  0  0
    0.1273   -1.2675   -0.5223 C   0  0  0  0  0  0  0  0  0  0  0  0
    0.0693   -0.9122    0.9877 C   0  0  0  0  0  0  0  0  0  0  0  0
   -0.9922   -1.4175    1.7773 C   0  0  0  0  0  0  0  0  0  0  0  0
   -1.0570   -1.0903    3.1166 C   0  0  0  0  0  0  0  0  0  0  0  0
   -0.1082   -0.3055    3.7158 C   0  0  0  0  0  0  0  0  0  0  0  0
    0.9720    0.1727    3.0132 C   0  0  0  0  0  0  0  0  0  0  0  0
    1.0766   -0.1658    1.6529 C   0  0  0  0  0  0  0  0  0  0  0  0
    2.1668    0.2926    0.9622 O   0  0  0  0  0  0  0  0  0  0  0  0
    3.3667   -0.3978    1.3354 C   0  0  0  0  0  0  0  0  0  0  0  0
    4.5521    0.2718    0.6315 C   0  0  2  0  0  0  0  0  0  0  0  0
    5.7033   -0.5793    0.6905 O   0  0  0  0  0  0  0  0  0  0  0  0
    4.8726    1.6844    1.1718 C   0  0  0  0  0  0  0  0  0  0  0  0
    5.1435    1.7957    2.6627 C   0  0  0  0  0  0  0  0  0  0  0  0
    4.4177    2.6114    3.4448 C   0  0  0  0  0  0  0  0  0  0  0  0
    6.2914    0.9994    3.2195 C   0  0  0  0  0  0  0  0  0  0  0  0
   -0.3683   -0.0864    5.0319 O   0  0  0  0  0  0  0  0  0  0  0  0
   -1.6107   -0.8042    5.1861 C   0  0  0  0  0  0  0  0  0  0  0  0
   -2.0311   -1.4800    3.9820 O   0  0  0  0  0  0  0  0  0  0  0  0
    0.8966   -0.1988   -1.4229 C   0  0  0  0  0  0  0  0  0  0  0  0
    0.6276    0.9797   -1.6241 O   0  0  0  0  0  0  0  0  0  0  0  0
    1.9720   -0.8475   -2.0333 N   0  0  0  0  0  0  0  0  0  0  0  0
    2.0927   -2.1548   -1.6032 C   0  0  0  0  0  0  0  0  0  0  0  0
    3.0852   -3.0488   -1.9430 C   0  0  0  0  0  0  0  0  0  0  0  0
    3.0353   -4.3042   -1.3449 C   0  0  0  0  0  0  0  0  0  0  0  0
    3.9780   -5.2093   -1.6447 F   0  0  0  0  0  0  0  0  0  0  0  0
    2.0290   -4.6482   -0.4315 C   0  0  0  0  0  0  0  0  0  0  0  0
    1.0381   -3.7224   -0.0947 C   0  0  0  0  0  0  0  0  0  0  0  0
    1.0717   -2.4715   -0.7042 C   0  0  0  0  0  0  0  0  0  0  0  0
   -3.3292   -3.8830   -3.0831 O   0  0  0  0  0  0  0  0  0  0  0  0
   -4.6757   -3.4637   -3.3789 C   0  0  0  0  0  0  0  0  0  0  0  0
   -4.9500   -2.1002   -2.9903 O   0  0  0  0  0  0  0  0  0  0  0  0
   -6.0238    2.7230   -3.5146 H   0  0  0  0  0  0  0  0  0  0  0  0
   -4.2526    2.2961   -3.7927 H   0  0  0  0  0  0  0  0  0  0  0  0
   -6.6767    4.3285   -1.8516 H   0  0  0  0  0  0  0  0  0  0  0  0
   -5.5979    4.3782   -0.4468 H   0  0  0  0  0  0  0  0  0  0  0  0
   -5.4666    5.6165   -1.7221 H   0  0  0  0  0  0  0  0  0  0  0  0
   -3.1526    4.5501   -0.9332 H   0  0  0  0  0  0  0  0  0  0  0  0
   -2.7523    4.6602   -2.6190 H   0  0  0  0  0  0  0  0  0  0  0  0
   -2.2611    2.1601   -2.6372 H   0  0  0  0  0  0  0  0  0  0  0  0
   -0.3656    2.4251   -1.4732 H   0  0  0  0  0  0  0  0  0  0  0  0
   -2.4291    2.4461    0.4097 H   0  0  0  0  0  0  0  0  0  0  0  0
   -3.7480    1.6831   -0.4415 H   0  0  0  0  0  0  0  0  0  0  0  0
   -4.2789    0.1850   -1.7388 H   0  0  0  0  0  0  0  0  0  0  0  0
   -0.9196   -3.4906   -1.9774 H   0  0  0  0  0  0  0  0  0  0  0  0
   -1.7727   -2.0431    1.3564 H   0  0  0  0  0  0  0  0  0  0  0  0
    1.7164    0.7940    3.4991 H   0  0  0  0  0  0  0  0  0  0  0  0
    3.5174   -0.4109    2.4202 H   0  0  0  0  0  0  0  0  0  0  0  0
    3.3044   -1.4458    1.0172 H   0  0  0  0  0  0  0  0  0  0  0  0
    4.3103    0.3834   -0.4344 H   0  0  0  0  0  0  0  0  0  0  0  0
    6.4382   -0.0964    0.2762 H   0  0  0  0  0  0  0  0  0  0  0  0
    4.0424    2.3515    0.9018 H   0  0  0  0  0  0  0  0  0  0  0  0
    5.7614    2.0693    0.6523 H   0  0  0  0  0  0  0  0  0  0  0  0
    3.5920    3.2015    3.0550 H   0  0  0  0  0  0  0  0  0  0  0  0
    4.6232    2.6994    4.5088 H   0  0  0  0  0  0  0  0  0  0  0  0
    6.5023    1.2637    4.2631 H   0  0  0  0  0  0  0  0  0  0  0  0
    6.0749   -0.0714    3.1872 H   0  0  0  0  0  0  0  0  0  0  0  0
    7.1994    1.1897    2.6416 H   0  0  0  0  0  0  0  0  0  0  0  0
   -1.4944   -1.5476    5.9818 H   0  0  0  0  0  0  0  0  0  0  0  0
   -2.3923   -0.0926    5.4760 H   0  0  0  0  0  0  0  0  0  0  0  0
    2.6022   -0.3669   -2.6596 H   0  0  0  0  0  0  0  0  0  0  0  0
    3.8824   -2.8033   -2.6339 H   0  0  0  0  0  0  0  0  0  0  0  0
    2.0301   -5.6398    0.0152 H   0  0  0  0  0  0  0  0  0  0  0  0
    0.2628   -3.9827    0.6203 H   0  0  0  0  0  0  0  0  0  0  0  0
   -4.8456   -3.5665   -4.4540 H   0  0  0  0  0  0  0  0  0  0  0  0
   -5.3697   -4.1268   -2.8500 H   0  0  0  0  0  0  0  0  0  0  0  0
  1  2  2  0
  2  3  1  0
  2  4  1  0
  4  5  1  0
  5  6  1  0
  5  7  1  0
  7  8  1  0
  8  9  1  0
  9 10  2  0
 10 11  1  0
 11 12  2  0
 12 13  1  0
 13 14  2  0
 14 15  1  0
 15 16  1  0
 16 17  2  0
 17 18  1  0
 18 19  2  0
 19 20  1  0
 20 21  2  0
 21 22  1  0
 22 23  1  0
 23 24  1  0
 24 25  1  0
 24 26  1  0
 26 27  1  0
 27 28  2  0
 27 29  1  0
 19 30  1  0
 30 31  1  0
 31 32  1  0
 15 33  1  0
 33 34  2  0
 33 35  1  0
 35 36  1  0
 36 37  2  0
 37 38  1  0
 38 39  1  0
 38 40  2  0
 40 41  1  0
 41 42  2  0
 12 43  1  0
 43 44  1  0
 44 45  1  0
 14  9  1  0
 42 15  1  0
 45 11  1  0
 21 16  1  0
 42 36  1  0
 32 18  1  0
  1 46  1  0
  1 47  1  0
  3 48  1  0
  3 49  1  0
  3 50  1  0
  4 51  1  0
  4 52  1  0
  5 53  1  6
  6 54  1  0
  7 55  1  0
  7 56  1  0
 10 57  1  0
 13 58  1  0
 17 59  1  0
 20 60  1  0
 23 61  1  0
 23 62  1  0
 24 63  1  6
 25 64  1  0
 26 65  1  0
 26 66  1  0
 28 67  1  0
 28 68  1  0
 29 69  1  0
 29 70  1  0
 29 71  1  0
 31 72  1  0
 31 73  1  0
 35 74  1  0
 37 75  1  0
 40 76  1  0
 41 77  1  0
 44 78  1  0
 44 79  1  0
M  END
$$$$
