
     RDKit          3D

 51 54  0  0  0  0  0  0  0  0999 V2000
    6.1884    1.9147   -3.0626 C   0  0  0  0  0  0  0  0  0  0  0  0
    5.3244    0.6601   -3.0468 C   0  0  0  0  0  0  0  0  0  0  0  0
    4.0160    0.8891   -2.3317 C   0  0  0  0  0  0  0  0  0  0  0  0
    3.8372    0.4639   -1.0125 C   0  0  0  0  0  0  0  0  0  0  0  0
    2.6261    0.6938   -0.3439 C   0  0  0  0  0  0  0  0  0  0  0  0
    1.5608    1.3620   -0.9689 C   0  0  0  0  0  0  0  0  0  0  0  0
    0.3066    1.6197   -0.2852 N   0  0  0  0  0  0  0  0  0  0  0  0
   -0.3567    2.8218   -0.5653 C   0  0  0  0  0  0  0  0  0  0  0  0
    0.0947    3.7576   -1.2277 O   0  0  0  0  0  0  0  0  0  0  0  0
   -1.6898    3.0159    0.0240 C   0  0  0  0  0  0  0  0  0  0  0  0
   -2.4518    4.1370   -0.3531 C   0  0  0  0  0  0  0  0  0  0  0  0
   -3.7154    4.3450    0.1923 C   0  0  0  0  0  0  0  0  0  0  0  0
   -4.2167    3.4321    1.1117 C   0  0  0  0  0  0  0  0  0  0  0  0
   -3.4512    2.3211    1.4900 C   0  0  0  0  0  0  0  0  0  0  0  0
   -2.1699    2.1027    0.9547 C   0  0  0  0  0  0  0  0  0  0  0  0
   -1.3576    1.0003    1.3162 N   0  0  0  0  0  0  0  0  0  0  0  0
   -1.7967    0.0386    2.3283 C   0  0  0  0  0  0  0  0  0  0  0  0
   -2.5934   -1.0988    1.6845 C   0  0  0  0  0  0  0  0  0  0  0  0
   -3.6738   -0.9166    1.1149 O   0  0  0  0  0  0  0  0  0  0  0  0
   -1.9781   -2.3359    1.7757 N   0  0  0  0  0  0  0  0  0  0  0  0
   -2.5231   -3.4745    1.0746 C   0  0  0  0  0  0  0  0  0  0  0  0
   -2.0608   -4.7108    1.7480 C   0  0  0  0  0  0  0  0  0  0  0  0
   -2.7133   -5.7236    2.4207 C   0  0  0  0  0  0  0  0  0  0  0  0
   -1.7158   -6.6417    2.8289 C   0  0  0  0  0  0  0  0  0  0  0  0
   -0.5202   -6.1291    2.3830 C   0  0  0  0  0  0  0  0  0  0  0  0
   -0.7159   -4.9554    1.7260 O   0  0  0  0  0  0  0  0  0  0  0  0
   -0.1650    0.6932    0.6562 C   0  0  0  0  0  0  0  0  0  0  0  0
    0.3876   -0.3839    0.9100 O   0  0  0  0  0  0  0  0  0  0  0  0
    1.7574    1.7820   -2.2963 C   0  0  0  0  0  0  0  0  0  0  0  0
    2.9643    1.5520   -2.9685 C   0  0  0  0  0  0  0  0  0  0  0  0
    7.1492    1.7000   -3.5532 H   0  0  0  0  0  0  0  0  0  0  0  0
    5.6972    2.7346   -3.6153 H   0  0  0  0  0  0  0  0  0  0  0  0
    6.3917    2.2734   -2.0380 H   0  0  0  0  0  0  0  0  0  0  0  0
    5.8761   -0.1607   -2.5694 H   0  0  0  0  0  0  0  0  0  0  0  0
    5.1255    0.3339   -4.0758 H   0  0  0  0  0  0  0  0  0  0  0  0
    4.6413   -0.0459   -0.4859 H   0  0  0  0  0  0  0  0  0  0  0  0
    2.5610    0.3664    0.6902 H   0  0  0  0  0  0  0  0  0  0  0  0
   -2.0602    4.8506   -1.0771 H   0  0  0  0  0  0  0  0  0  0  0  0
   -4.3053    5.2097   -0.1047 H   0  0  0  0  0  0  0  0  0  0  0  0
   -5.2114    3.5746    1.5322 H   0  0  0  0  0  0  0  0  0  0  0  0
   -3.9130    1.6280    2.1881 H   0  0  0  0  0  0  0  0  0  0  0  0
   -2.3944    0.5099    3.1102 H   0  0  0  0  0  0  0  0  0  0  0  0
   -0.9233   -0.3679    2.8465 H   0  0  0  0  0  0  0  0  0  0  0  0
   -0.9697   -2.3474    1.9069 H   0  0  0  0  0  0  0  0  0  0  0  0
   -2.1575   -3.4393    0.0433 H   0  0  0  0  0  0  0  0  0  0  0  0
   -3.6168   -3.4225    1.0540 H   0  0  0  0  0  0  0  0  0  0  0  0
   -3.7792   -5.7900    2.5907 H   0  0  0  0  0  0  0  0  0  0  0  0
   -1.8520   -7.5612    3.3782 H   0  0  0  0  0  0  0  0  0  0  0  0
    0.5051   -6.4628    2.4473 H   0  0  0  0  0  0  0  0  0  0  0  0
    0.9662    2.2850   -2.8494 H   0  0  0  0  0  0  0  0  0  0  0  0
    3.0713    1.8994   -3.9941 H   0  0  0  0  0  0  0  0  0  0  0  0
  1  2  1  0
  2  3  1  0
  3  4  2  0
  4  5  1  0
  5  6  2  0
  6  7  1  0
  7  8  1  0
  8  9  2  0
  8 10  1  0
 10 11  2  0
 11 12  1  0
 12 13  2  0
 13 14  1  0
 14 15  2  0
 15 16  1  0
 16 17  1  0
 17 18  1  0
 18 19  2  0
 18 20  1  0
 20 21  1  0
 21 22  1  0
 22 23  2  0
 23 24  1  0
 24 25  2  0
 25 26  1  0
 16 27  1  0
 27 28  2  0
  6 29  1  0
 29 30  2  0
 30  3  1  0
 27  7  1  0
 15 10  1  0
 26 22  1  0
  1 31  1  0
  1 32  1  0
  1 33  1  0
  2 34  1  0
  2 35  1  0
  4 36  1  0
  5 37  1  0
 11 38  1  0
 12 39  1  0
 13 40  1  0
 14 41  1  0
 17 42  1  0
 17 43  1  0
 20 44  1  0
 21 45  1  0
 21 46  1  0
 23 47  1  0
 24 48  1  0
 25 49  1  0
 29 50  1  0
 30 51  1  0
M  END
$$$$
