
     RDKit          3D

 37 40  0  0  0  0  0  0  0  0999 V2000
   -1.3891   -2.9415    0.7694 C   0  0  0  0  0  0  0  0  0  0  0  0
   -0.5752   -1.7419    0.3720 C   0  0  0  0  0  0  0  0  0  0  0  0
    0.8282   -1.8264    0.3536 C   0  0  0  0  0  0  0  0  0  0  0  0
    1.6040   -0.7082   -0.0208 C   0  0  0  0  0  0  0  0  0  0  0  0
    0.9500    0.4745   -0.3717 C   0  0  0  0  0  0  0  0  0  0  0  0
    1.9331    1.3855   -0.6891 N   0  0  0  0  0  0  0  0  0  0  0  0
    3.1866    0.8380   -0.5567 C   0  0  0  0  0  0  0  0  0  0  0  0
    4.4479    1.4052   -0.7745 C   0  0  0  0  0  0  0  0  0  0  0  0
    5.5670    0.5963   -0.5561 C   0  0  0  0  0  0  0  0  0  0  0  0
    5.4271   -0.7246   -0.1371 C   0  0  0  0  0  0  0  0  0  0  0  0
    4.1576   -1.2742    0.0756 C   0  0  0  0  0  0  0  0  0  0  0  0
    3.0125   -0.4787   -0.1377 C   0  0  0  0  0  0  0  0  0  0  0  0
   -0.4507    0.5829   -0.3608 C   0  0  0  0  0  0  0  0  0  0  0  0
   -1.2002   -0.5382    0.0192 C   0  0  0  0  0  0  0  0  0  0  0  0
   -2.5704   -0.5281    0.0483 O   0  0  0  0  0  0  0  0  0  0  0  0
   -3.2708    0.7148   -0.1577 C   0  0  0  0  0  0  0  0  0  0  0  0
   -4.3573    0.4172   -1.1983 C   0  0  0  0  0  0  0  0  0  0  0  0
   -3.9249    1.0811    1.1797 C   0  0  0  0  0  0  0  0  0  0  0  0
   -2.4287    1.8747   -0.6397 C   0  0  0  0  0  0  0  0  0  0  0  0
   -1.0977    1.8234   -0.7428 C   0  0  0  0  0  0  0  0  0  0  0  0
   -2.0410   -3.2472   -0.0553 H   0  0  0  0  0  0  0  0  0  0  0  0
   -1.9986   -2.7115    1.6494 H   0  0  0  0  0  0  0  0  0  0  0  0
   -0.7508   -3.7947    1.0221 H   0  0  0  0  0  0  0  0  0  0  0  0
    1.3268   -2.7526    0.6261 H   0  0  0  0  0  0  0  0  0  0  0  0
    1.7594    2.3351   -0.9802 H   0  0  0  0  0  0  0  0  0  0  0  0
    4.5610    2.4337   -1.1011 H   0  0  0  0  0  0  0  0  0  0  0  0
    6.5620    1.0057   -0.7162 H   0  0  0  0  0  0  0  0  0  0  0  0
    6.3107   -1.3365    0.0269 H   0  0  0  0  0  0  0  0  0  0  0  0
    4.0575   -2.3048    0.4022 H   0  0  0  0  0  0  0  0  0  0  0  0
   -3.9104    0.1122   -2.1523 H   0  0  0  0  0  0  0  0  0  0  0  0
   -4.9902   -0.4175   -0.8744 H   0  0  0  0  0  0  0  0  0  0  0  0
   -5.0005    1.2850   -1.3816 H   0  0  0  0  0  0  0  0  0  0  0  0
   -4.5458    1.9802    1.1005 H   0  0  0  0  0  0  0  0  0  0  0  0
   -4.5526    0.2597    1.5451 H   0  0  0  0  0  0  0  0  0  0  0  0
   -3.1657    1.2546    1.9518 H   0  0  0  0  0  0  0  0  0  0  0  0
   -2.9455    2.7938   -0.9029 H   0  0  0  0  0  0  0  0  0  0  0  0
   -0.5254    2.6731   -1.0890 H   0  0  0  0  0  0  0  0  0  0  0  0
  1  2  1  0
  2  3  2  0
  3  4  1  0
  4  5  2  0
  5  6  1  0
  6  7  1  0
  7  8  2  0
  8  9  1  0
  9 10  2  0
 10 11  1  0
 11 12  2  0
  5 13  1  0
 13 14  2  0
 14 15  1  0
 15 16  1  0
 16 17  1  0
 16 18  1  0
 16 19  1  0
 19 20  2  0
 14  2  1  0
 12  4  1  0
 20 13  1  0
 12  7  1  0
  1 21  1  0
  1 22  1  0
  1 23  1  0
  3 24  1  0
  6 25  1  0
  8 26  1  0
  9 27  1  0
 10 28  1  0
 11 29  1  0
 17 30  1  0
 17 31  1  0
 17 32  1  0
 18 33  1  0
 18 34  1  0
 18 35  1  0
 19 36  1  0
 20 37  1  0
M  END
$$$$
