
     RDKit          3D

 48 50  0  0  0  0  0  0  0  0999 V2000
    8.8748    2.0582   -0.1463 C   0  0  0  0  0  0  0  0  0  0  0  0
    7.4676    1.9912    0.3210 C   0  0  0  0  0  0  0  0  0  0  0  0
    6.7850    2.9576    1.0345 C   0  0  0  0  0  0  0  0  0  0  0  0
    5.1826    2.4328    1.3405 S   0  0  0  0  0  0  0  0  0  0  0  0
    5.5076    0.9832    0.5130 C   0  0  0  0  0  0  0  0  0  0  0  0
    4.5888   -0.0229    0.3637 N   0  0  0  0  0  0  0  0  0  0  0  0
    3.2762   -0.0210    0.7782 C   0  0  0  0  0  0  0  0  0  0  0  0
    2.6703    0.8941    1.3243 O   0  0  0  0  0  0  0  0  0  0  0  0
    2.6053   -1.3502    0.4876 C   0  0  0  0  0  0  0  0  0  0  0  0
    1.1370   -1.3206    0.8871 C   0  0  0  0  0  0  0  0  0  0  0  0
    0.5179   -2.6254    0.6418 N   0  0  0  0  0  0  0  0  0  0  0  0
   -0.2949   -2.9367   -0.7826 S   0  0  0  0  0  6  0  0  0  0  0  0
    0.4234   -2.2931   -1.8580 O   0  0  0  0  0  0  0  0  0  0  0  0
   -0.5705   -4.3560   -0.7892 O   0  0  0  0  0  0  0  0  0  0  0  0
   -1.8320   -2.0932   -0.5228 C   0  0  0  0  0  0  0  0  0  0  0  0
   -2.8051   -2.6801    0.2856 C   0  0  0  0  0  0  0  0  0  0  0  0
   -4.0175   -2.0172    0.5025 C   0  0  0  0  0  0  0  0  0  0  0  0
   -4.2734   -0.7672   -0.0861 C   0  0  0  0  0  0  0  0  0  0  0  0
   -3.2919   -0.2099   -0.9075 C   0  0  0  0  0  0  0  0  0  0  0  0
   -2.0729   -0.8663   -1.1368 C   0  0  0  0  0  0  0  0  0  0  0  0
   -3.5355    1.0983   -1.5341 C   0  0  0  0  0  0  0  0  0  0  0  0
   -2.6511    1.6022   -2.2242 O   0  0  0  0  0  0  0  0  0  0  0  0
   -4.7645    1.6899   -1.2855 N   0  0  0  0  0  0  0  0  0  0  0  0
   -5.0217    2.9919   -1.8749 C   0  0  0  0  0  0  0  0  0  0  0  0
   -5.7323    1.1890   -0.4224 C   0  0  0  0  0  0  0  0  0  0  0  0
   -6.7577    1.8267   -0.1655 O   0  0  0  0  0  0  0  0  0  0  0  0
   -5.4816   -0.0581    0.1437 N   0  0  0  0  0  0  0  0  0  0  0  0
   -6.4932   -0.6240    1.0283 C   0  0  0  0  0  0  0  0  0  0  0  0
    6.7222    0.8582    0.0318 N   0  0  0  0  0  0  0  0  0  0  0  0
    8.9059    2.1303   -1.2372 H   0  0  0  0  0  0  0  0  0  0  0  0
    9.4195    1.1589    0.1576 H   0  0  0  0  0  0  0  0  0  0  0  0
    9.3916    2.9271    0.2712 H   0  0  0  0  0  0  0  0  0  0  0  0
    7.1381    3.9182    1.3799 H   0  0  0  0  0  0  0  0  0  0  0  0
    4.9546   -0.8117   -0.1488 H   0  0  0  0  0  0  0  0  0  0  0  0
    3.1306   -2.1346    1.0465 H   0  0  0  0  0  0  0  0  0  0  0  0
    2.7091   -1.5703   -0.5806 H   0  0  0  0  0  0  0  0  0  0  0  0
    0.6016   -0.5274    0.3530 H   0  0  0  0  0  0  0  0  0  0  0  0
    1.0344   -1.0988    1.9557 H   0  0  0  0  0  0  0  0  0  0  0  0
    0.7976   -3.4431    1.1809 H   0  0  0  0  0  0  0  0  0  0  0  0
   -2.6271   -3.6466    0.7535 H   0  0  0  0  0  0  0  0  0  0  0  0
   -4.7442   -2.5052    1.1461 H   0  0  0  0  0  0  0  0  0  0  0  0
   -1.3206   -0.4120   -1.7808 H   0  0  0  0  0  0  0  0  0  0  0  0
   -6.0540    3.0446   -2.2306 H   0  0  0  0  0  0  0  0  0  0  0  0
   -4.3527    3.2038   -2.7118 H   0  0  0  0  0  0  0  0  0  0  0  0
   -4.8784    3.7548   -1.1031 H   0  0  0  0  0  0  0  0  0  0  0  0
   -6.0702   -0.7480    2.0298 H   0  0  0  0  0  0  0  0  0  0  0  0
   -6.8251   -1.5883    0.6316 H   0  0  0  0  0  0  0  0  0  0  0  0
   -7.3735    0.0169    1.1171 H   0  0  0  0  0  0  0  0  0  0  0  0
  1  2  1  0
  2  3  2  0
  3  4  1  0
  4  5  1  0
  5  6  1  0
  6  7  1  0
  7  8  2  0
  7  9  1  0
  9 10  1  0
 10 11  1  0
 11 12  1  0
 12 13  2  0
 12 14  2  0
 12 15  1  0
 15 16  2  0
 16 17  1  0
 17 18  2  0
 18 19  1  0
 19 20  2  0
 19 21  1  0
 21 22  2  0
 21 23  1  0
 23 24  1  0
 23 25  1  0
 25 26  2  0
 25 27  1  0
 27 28  1  0
  5 29  2  0
 29  2  1  0
 20 15  1  0
 27 18  1  0
  1 30  1  0
  1 31  1  0
  1 32  1  0
  3 33  1  0
  6 34  1  0
  9 35  1  0
  9 36  1  0
 10 37  1  0
 10 38  1  0
 11 39  1  0
 16 40  1  0
 17 41  1  0
 20 42  1  0
 24 43  1  0
 24 44  1  0
 24 45  1  0
 28 46  1  0
 28 47  1  0
 28 48  1  0
M  END
$$$$
