
     RDKit          3D

 49 53  0  0  0  0  0  0  0  0999 V2000
   -6.5712   -0.6328    0.9650 C   0  0  0  0  0  0  0  0  0  0  0  0
   -5.3930   -0.2353    0.1254 C   0  0  0  0  0  0  0  0  0  0  0  0
   -5.3383    1.0242   -0.4866 C   0  0  0  0  0  0  0  0  0  0  0  0
   -4.2315    1.3972   -1.2542 C   0  0  0  0  0  0  0  0  0  0  0  0
   -3.1610    0.5187   -1.4117 C   0  0  0  0  0  0  0  0  0  0  0  0
   -3.2032   -0.7296   -0.7857 C   0  0  0  0  0  0  0  0  0  0  0  0
   -1.8576   -1.8623   -0.9823 S   0  0  0  0  0  6  0  0  0  0  0  0
   -0.9327   -1.3534   -1.9780 O   0  0  0  0  0  0  0  0  0  0  0  0
   -2.4103   -3.1925   -1.1234 O   0  0  0  0  0  0  0  0  0  0  0  0
   -1.0717   -1.8288    0.5022 N   0  0  0  0  0  0  0  0  0  0  0  0
   -0.3867   -0.6159    0.7844 C   0  0  0  0  0  0  0  0  0  0  0  0
   -1.1034    0.2291    1.5478 N   0  0  0  0  0  0  0  0  0  0  0  0
   -0.5057    1.3936    1.8502 C   0  0  0  0  0  0  0  0  0  0  0  0
   -1.1785    2.3200    2.6366 C   0  0  0  0  0  0  0  0  0  0  0  0
   -0.5947    3.5399    2.9804 C   0  0  0  0  0  0  0  0  0  0  0  0
    0.6853    3.8384    2.5306 C   0  0  0  0  0  0  0  0  0  0  0  0
    1.3699    2.9162    1.7375 C   0  0  0  0  0  0  0  0  0  0  0  0
    0.7986    1.7001    1.3858 C   0  0  0  0  0  0  0  0  0  0  0  0
    1.4910    0.8448    0.6080 N   0  0  0  0  0  0  0  0  0  0  0  0
    0.8963   -0.3219    0.2770 C   0  0  0  0  0  0  0  0  0  0  0  0
    1.5273   -1.2499   -0.5961 N   0  0  0  0  0  0  0  0  0  0  0  0
    2.8724   -1.2456   -1.0359 C   0  0  0  0  0  0  0  0  0  0  0  0
    3.1818   -1.8725   -2.2679 C   0  0  0  0  0  0  0  0  0  0  0  0
    4.4994   -1.9694   -2.7301 C   0  0  0  0  0  0  0  0  0  0  0  0
    5.4942   -1.4568   -1.9300 C   0  0  0  0  0  0  0  0  0  0  0  0
    5.2149   -0.8770   -0.7165 C   0  0  0  0  0  0  0  0  0  0  0  0
    3.9239   -0.7695   -0.2391 C   0  0  0  0  0  0  0  0  0  0  0  0
    6.3377   -0.4538   -0.0748 O   0  0  0  0  0  0  0  0  0  0  0  0
    7.3523   -0.8233   -1.0310 C   0  0  0  0  0  0  0  0  0  0  0  0
    6.8243   -1.4663   -2.2094 O   0  0  0  0  0  0  0  0  0  0  0  0
   -4.3127   -1.1135   -0.0252 C   0  0  0  0  0  0  0  0  0  0  0  0
   -6.9005   -1.6445    0.7049 H   0  0  0  0  0  0  0  0  0  0  0  0
   -6.3020   -0.6038    2.0254 H   0  0  0  0  0  0  0  0  0  0  0  0
   -7.4200    0.0400    0.8047 H   0  0  0  0  0  0  0  0  0  0  0  0
   -6.1623    1.7258   -0.3718 H   0  0  0  0  0  0  0  0  0  0  0  0
   -4.2064    2.3755   -1.7288 H   0  0  0  0  0  0  0  0  0  0  0  0
   -2.3052    0.8164   -2.0120 H   0  0  0  0  0  0  0  0  0  0  0  0
   -0.4916   -2.6597    0.6062 H   0  0  0  0  0  0  0  0  0  0  0  0
   -2.1803    2.0846    2.9889 H   0  0  0  0  0  0  0  0  0  0  0  0
   -1.1394    4.2500    3.5980 H   0  0  0  0  0  0  0  0  0  0  0  0
    1.1529    4.7846    2.7917 H   0  0  0  0  0  0  0  0  0  0  0  0
    2.3712    3.1503    1.3823 H   0  0  0  0  0  0  0  0  0  0  0  0
    0.8876   -1.4022   -1.3851 H   0  0  0  0  0  0  0  0  0  0  0  0
    2.3847   -2.2867   -2.8829 H   0  0  0  0  0  0  0  0  0  0  0  0
    4.7297   -2.4385   -3.6794 H   0  0  0  0  0  0  0  0  0  0  0  0
    3.7473   -0.3269    0.7343 H   0  0  0  0  0  0  0  0  0  0  0  0
    8.0587   -1.5068   -0.5458 H   0  0  0  0  0  0  0  0  0  0  0  0
    7.8918    0.0808   -1.3369 H   0  0  0  0  0  0  0  0  0  0  0  0
   -4.3334   -2.0911    0.4532 H   0  0  0  0  0  0  0  0  0  0  0  0
  1  2  1  0
  2  3  2  0
  3  4  1  0
  4  5  2  0
  5  6  1  0
  6  7  1  0
  7  8  2  0
  7  9  2  0
  7 10  1  0
 10 11  1  0
 11 12  2  0
 12 13  1  0
 13 14  2  0
 14 15  1  0
 15 16  2  0
 16 17  1  0
 17 18  2  0
 18 19  1  0
 19 20  2  0
 20 21  1  0
 21 22  1  0
 22 23  2  0
 23 24  1  0
 24 25  2  0
 25 26  1  0
 26 27  2  0
 26 28  1  0
 28 29  1  0
 29 30  1  0
  6 31  2  0
 31  2  1  0
 20 11  1  0
 27 22  1  0
 18 13  1  0
 30 25  1  0
  1 32  1  0
  1 33  1  0
  1 34  1  0
  3 35  1  0
  4 36  1  0
  5 37  1  0
 10 38  1  0
 14 39  1  0
 15 40  1  0
 16 41  1  0
 17 42  1  0
 21 43  1  0
 23 44  1  0
 24 45  1  0
 27 46  1  0
 29 47  1  0
 29 48  1  0
 31 49  1  0
M  END
$$$$
