
     RDKit          3D

 56 60  0  0  0  0  0  0  0  0999 V2000
   -5.6595   -2.0047   -2.0156 C   0  0  0  0  0  0  0  0  0  0  0  0
   -4.6933   -1.5708   -1.0401 N   0  0  0  0  0  0  0  0  0  0  0  0
   -3.5635   -2.2335   -0.6465 C   0  0  0  0  0  0  0  0  0  0  0  0
   -3.0743   -3.7756   -1.2540 S   0  0  0  0  0  0  0  0  0  0  0  0
   -1.6607   -4.1493   -0.1728 C   0  0  0  0  0  0  0  0  0  0  0  0
   -0.3914   -3.4579   -0.6525 C   0  0  0  0  0  0  0  0  0  0  0  0
    0.4221   -4.0545   -1.3541 O   0  0  0  0  0  0  0  0  0  0  0  0
   -0.2780   -2.1520   -0.2100 N   0  0  0  0  0  0  0  0  0  0  0  0
    0.8006   -1.2634   -0.3869 C   0  0  0  0  0  0  0  0  0  0  0  0
    0.5917    0.0586    0.0172 C   0  0  0  0  0  0  0  0  0  0  0  0
    1.6068    1.0168   -0.0898 C   0  0  0  0  0  0  0  0  0  0  0  0
    2.8646    0.6421   -0.5986 C   0  0  0  0  0  0  0  0  0  0  0  0
    3.9620    1.4728   -0.7377 N   0  0  0  0  0  0  0  0  0  0  0  0
    4.9769    0.7884   -1.2062 C   0  0  0  0  0  0  0  0  0  0  0  0
    6.5574    1.5186   -1.4114 S   0  0  0  0  0  0  0  0  0  0  0  0
    6.3570    3.0439   -0.4374 C   0  0  0  0  0  0  0  0  0  0  0  0
    6.0928    2.8098    1.0441 C   0  0  0  0  0  0  0  0  0  0  0  0
    5.5087    3.6502    1.7302 O   0  0  0  0  0  0  0  0  0  0  0  0
    6.6339    1.6546    1.5780 N   0  0  0  0  0  0  0  0  0  0  0  0
    6.3862    1.2438    2.9218 C   0  0  0  0  0  0  0  0  0  0  0  0
    6.7168   -0.1541    3.3711 C   0  0  0  0  0  0  0  0  0  0  0  0
    5.2837    0.2651    3.2205 C   0  0  0  0  0  0  0  0  0  0  0  0
    4.6818   -0.8572   -1.5599 S   0  0  0  0  0  0  0  0  0  0  0  0
    3.0607   -0.6804   -0.9971 C   0  0  0  0  0  0  0  0  0  0  0  0
    2.0417   -1.6483   -0.9080 C   0  0  0  0  0  0  0  0  0  0  0  0
   -2.9150   -1.5188    0.2429 N   0  0  0  0  0  0  0  0  0  0  0  0
   -3.6116   -0.3523    0.4254 N   0  0  0  0  0  0  0  0  0  0  0  0
   -4.6947   -0.3894   -0.3303 C   0  0  0  0  0  0  0  0  0  0  0  0
   -5.7112    0.6492   -0.4069 C   0  0  0  0  0  0  0  0  0  0  0  0
   -6.9500    0.4778    0.2257 C   0  0  0  0  0  0  0  0  0  0  0  0
   -7.9183    1.4833    0.1604 C   0  0  0  0  0  0  0  0  0  0  0  0
   -7.6544    2.6622   -0.5370 C   0  0  0  0  0  0  0  0  0  0  0  0
   -6.4199    2.8423   -1.1651 C   0  0  0  0  0  0  0  0  0  0  0  0
   -5.4474    1.8413   -1.0952 C   0  0  0  0  0  0  0  0  0  0  0  0
   -6.3779   -1.2097   -2.2259 H   0  0  0  0  0  0  0  0  0  0  0  0
   -5.1380   -2.2593   -2.9417 H   0  0  0  0  0  0  0  0  0  0  0  0
   -6.1857   -2.8766   -1.6159 H   0  0  0  0  0  0  0  0  0  0  0  0
   -1.4835   -5.2295   -0.1992 H   0  0  0  0  0  0  0  0  0  0  0  0
   -1.8715   -3.8911    0.8705 H   0  0  0  0  0  0  0  0  0  0  0  0
   -1.1154   -1.7484    0.2127 H   0  0  0  0  0  0  0  0  0  0  0  0
   -0.3717    0.3703    0.4217 H   0  0  0  0  0  0  0  0  0  0  0  0
    1.4369    2.0413    0.2276 H   0  0  0  0  0  0  0  0  0  0  0  0
    7.2801    3.6277   -0.5199 H   0  0  0  0  0  0  0  0  0  0  0  0
    5.5391    3.6397   -0.8565 H   0  0  0  0  0  0  0  0  0  0  0  0
    7.0884    1.0055    0.9459 H   0  0  0  0  0  0  0  0  0  0  0  0
    6.5437    2.0396    3.6484 H   0  0  0  0  0  0  0  0  0  0  0  0
    7.1038   -0.2821    4.3762 H   0  0  0  0  0  0  0  0  0  0  0  0
    7.1179   -0.8549    2.6492 H   0  0  0  0  0  0  0  0  0  0  0  0
    4.7137   -0.1360    2.3907 H   0  0  0  0  0  0  0  0  0  0  0  0
    4.6984    0.4331    4.1177 H   0  0  0  0  0  0  0  0  0  0  0  0
    2.2474   -2.6654   -1.2218 H   0  0  0  0  0  0  0  0  0  0  0  0
   -7.1621   -0.4282    0.7901 H   0  0  0  0  0  0  0  0  0  0  0  0
   -8.8710    1.3513    0.6704 H   0  0  0  0  0  0  0  0  0  0  0  0
   -8.4061    3.4479   -0.5803 H   0  0  0  0  0  0  0  0  0  0  0  0
   -6.2073    3.7674   -1.6963 H   0  0  0  0  0  0  0  0  0  0  0  0
   -4.4813    1.9988   -1.5743 H   0  0  0  0  0  0  0  0  0  0  0  0
  1  2  1  0
  2  3  1  0
  3  4  1  0
  4  5  1  0
  5  6  1  0
  6  7  2  0
  6  8  1  0
  8  9  1  0
  9 10  2  0
 10 11  1  0
 11 12  2  0
 12 13  1  0
 13 14  2  0
 14 15  1  0
 15 16  1  0
 16 17  1  0
 17 18  2  0
 17 19  1  0
 19 20  1  0
 20 21  1  0
 21 22  1  0
 14 23  1  0
 23 24  1  0
 24 25  2  0
  3 26  2  0
 26 27  1  0
 27 28  2  0
 28 29  1  0
 29 30  2  0
 30 31  1  0
 31 32  2  0
 32 33  1  0
 33 34  2  0
 28  2  1  0
 34 29  1  0
 25  9  1  0
 24 12  1  0
 22 20  1  0
  1 35  1  0
  1 36  1  0
  1 37  1  0
  5 38  1  0
  5 39  1  0
  8 40  1  0
 10 41  1  0
 11 42  1  0
 16 43  1  0
 16 44  1  0
 19 45  1  0
 20 46  1  0
 21 47  1  0
 21 48  1  0
 22 49  1  0
 22 50  1  0
 25 51  1  0
 30 52  1  0
 31 53  1  0
 32 54  1  0
 33 55  1  0
 34 56  1  0
M  END
$$$$
