
     RDKit          3D

 67 72  0  0  0  0  0  0  0  0999 V2000
   -4.7509    4.8522   -0.6805 C   0  0  0  0  0  0  0  0  0  0  0  0
   -3.7696    3.7931   -1.0739 C   0  0  0  0  0  0  0  0  0  0  0  0
   -3.6234    3.4067   -2.4144 C   0  0  0  0  0  0  0  0  0  0  0  0
   -2.7260    2.3888   -2.7857 C   0  0  0  0  0  0  0  0  0  0  0  0
   -1.9511    1.7327   -1.8273 C   0  0  0  0  0  0  0  0  0  0  0  0
   -2.0838    2.1126   -0.4985 C   0  0  0  0  0  0  0  0  0  0  0  0
   -2.9936    3.1188   -0.1435 C   0  0  0  0  0  0  0  0  0  0  0  0
   -3.0081    3.2848    1.2369 N   0  0  0  0  0  0  0  0  0  0  0  0
   -2.1242    2.4113    1.8738 C   0  0  0  0  0  0  0  0  0  0  0  0
   -1.9716    2.3485    3.0851 O   0  0  0  0  0  0  0  0  0  0  0  0
   -1.4220    1.5881    0.7522 C   0  0  1  0  0  0  0  0  0  0  0  0
   -1.6954    0.1350    0.8217 C   0  0  0  0  0  0  0  0  0  0  0  0
   -0.5149   -0.5842    0.9972 C   0  0  0  0  0  0  0  0  0  0  0  0
   -0.8162   -1.9188    1.0646 C   0  0  0  0  0  0  0  0  0  0  0  0
   -0.0170   -2.9533    1.3149 O   0  0  0  0  0  0  0  0  0  0  0  0
   -2.2106   -2.0530    0.8730 N   0  0  0  0  0  0  0  0  0  0  0  0
   -2.9477   -3.2880    0.8081 C   0  0  0  0  0  0  0  0  0  0  0  0
   -4.3215   -3.3254    1.0906 C   0  0  0  0  0  0  0  0  0  0  0  0
   -5.0362   -4.5256    1.0175 C   0  0  0  0  0  0  0  0  0  0  0  0
   -4.3898   -5.7046    0.6612 C   0  0  0  0  0  0  0  0  0  0  0  0
   -3.0276   -5.6847    0.3789 C   0  0  0  0  0  0  0  0  0  0  0  0
   -2.3102   -4.4859    0.4518 C   0  0  0  0  0  0  0  0  0  0  0  0
   -2.7424   -0.7502    0.7407 C   0  0  0  0  0  0  0  0  0  0  0  0
   -4.0317   -0.5153    0.5041 O   0  0  0  0  0  0  0  0  0  0  0  0
    0.6632    0.3073    1.0860 C   0  0  1  0  0  0  0  0  0  0  0  0
    1.7793   -0.0299    0.0758 C   0  0  0  0  0  0  0  0  0  0  0  0
    2.7829    1.0346   -0.0193 N   0  0  0  0  0  0  0  0  0  0  0  0
    4.1193    0.8098   -0.2828 C   0  0  0  0  0  0  0  0  0  0  0  0
    4.9477    1.7090   -0.3564 O   0  0  0  0  0  0  0  0  0  0  0  0
    4.3964   -0.5111   -0.4486 O   0  0  0  0  0  0  0  0  0  0  0  0
    5.7476   -0.9585   -0.7332 C   0  0  0  0  0  0  0  0  0  0  0  0
    6.2601   -0.3846   -2.0596 C   0  0  0  0  0  0  0  0  0  0  0  0
    6.6935   -0.6421    0.4328 C   0  0  0  0  0  0  0  0  0  0  0  0
    5.6336   -2.4842   -0.8755 C   0  0  0  0  0  0  0  0  0  0  0  0
    2.3187    2.4082    0.1781 C   0  0  0  0  0  0  0  0  0  0  0  0
    0.7964    2.5439   -0.0091 C   0  0  0  0  0  0  0  0  0  0  0  0
    0.0616    1.6719    0.9056 N   0  0  0  0  0  0  0  0  0  0  0  0
   -5.1550    5.3700   -1.5570 H   0  0  0  0  0  0  0  0  0  0  0  0
   -5.5884    4.4045   -0.1355 H   0  0  0  0  0  0  0  0  0  0  0  0
   -4.2687    5.6064   -0.0494 H   0  0  0  0  0  0  0  0  0  0  0  0
   -4.2158    3.8895   -3.1899 H   0  0  0  0  0  0  0  0  0  0  0  0
   -2.6408    2.1039   -3.8337 H   0  0  0  0  0  0  0  0  0  0  0  0
   -1.2728    0.9366   -2.1201 H   0  0  0  0  0  0  0  0  0  0  0  0
   -3.5805    3.9380    1.7511 H   0  0  0  0  0  0  0  0  0  0  0  0
    0.8573   -2.6131    1.5689 H   0  0  0  0  0  0  0  0  0  0  0  0
   -4.8649   -2.4411    1.4077 H   0  0  0  0  0  0  0  0  0  0  0  0
   -6.0988   -4.5327    1.2462 H   0  0  0  0  0  0  0  0  0  0  0  0
   -4.9456   -6.6358    0.6020 H   0  0  0  0  0  0  0  0  0  0  0  0
   -2.5182   -6.6019    0.0950 H   0  0  0  0  0  0  0  0  0  0  0  0
   -1.2576   -4.5171    0.1884 H   0  0  0  0  0  0  0  0  0  0  0  0
   -4.1510    0.4418    0.3668 H   0  0  0  0  0  0  0  0  0  0  0  0
    1.0793    0.2684    2.1016 H   0  0  0  0  0  0  0  0  0  0  0  0
    2.2502   -0.9804    0.3484 H   0  0  0  0  0  0  0  0  0  0  0  0
    1.3661   -0.1575   -0.9327 H   0  0  0  0  0  0  0  0  0  0  0  0
    5.5183   -0.5196   -2.8544 H   0  0  0  0  0  0  0  0  0  0  0  0
    6.4573    0.6892   -1.9920 H   0  0  0  0  0  0  0  0  0  0  0  0
    7.1943   -0.8658   -2.3679 H   0  0  0  0  0  0  0  0  0  0  0  0
    6.2746   -0.9950    1.3809 H   0  0  0  0  0  0  0  0  0  0  0  0
    7.6733   -1.1122    0.2914 H   0  0  0  0  0  0  0  0  0  0  0  0
    6.8597    0.4335    0.5451 H   0  0  0  0  0  0  0  0  0  0  0  0
    4.9301   -2.7502   -1.6731 H   0  0  0  0  0  0  0  0  0  0  0  0
    6.6018   -2.9431   -1.1018 H   0  0  0  0  0  0  0  0  0  0  0  0
    5.2466   -2.9355    0.0440 H   0  0  0  0  0  0  0  0  0  0  0  0
    2.6104    2.7065    1.1940 H   0  0  0  0  0  0  0  0  0  0  0  0
    2.8404    3.0712   -0.5208 H   0  0  0  0  0  0  0  0  0  0  0  0
    0.5062    3.5874    0.1572 H   0  0  0  0  0  0  0  0  0  0  0  0
    0.5774    2.2962   -1.0548 H   0  0  0  0  0  0  0  0  0  0  0  0
  1  2  1  0
  2  3  2  0
  3  4  1  0
  4  5  2  0
  5  6  1  0
  6  7  2  0
  7  8  1  0
  8  9  1  0
  9 10  2  0
  9 11  1  0
 11 12  1  0
 12 13  1  0
 13 14  2  0
 14 15  1  0
 14 16  1  0
 16 17  1  0
 17 18  2  0
 18 19  1  0
 19 20  2  0
 20 21  1  0
 21 22  2  0
 16 23  1  0
 23 24  1  0
 13 25  1  0
 25 26  1  0
 26 27  1  0
 27 28  1  0
 28 29  2  0
 28 30  1  0
 30 31  1  0
 31 32  1  0
 31 33  1  0
 31 34  1  0
 27 35  1  0
 35 36  1  0
 36 37  1  0
  7  2  1  0
 11 37  1  6
 11  6  1  0
 23 12  2  0
 37 25  1  0
 22 17  1  0
  1 38  1  0
  1 39  1  0
  1 40  1  0
  3 41  1  0
  4 42  1  0
  5 43  1  0
  8 44  1  0
 15 45  1  0
 18 46  1  0
 19 47  1  0
 20 48  1  0
 21 49  1  0
 22 50  1  0
 24 51  1  0
 25 52  1  1
 26 53  1  0
 26 54  1  0
 32 55  1  0
 32 56  1  0
 32 57  1  0
 33 58  1  0
 33 59  1  0
 33 60  1  0
 34 61  1  0
 34 62  1  0
 34 63  1  0
 35 64  1  0
 35 65  1  0
 36 66  1  0
 36 67  1  0
M  END
$$$$
