
     RDKit          3D

 39 41  0  0  0  0  0  0  0  0999 V2000
   -3.8707   -2.0924   -0.4647 C   0  0  0  0  0  0  0  0  0  0  0  0
   -4.0307   -0.5815   -0.3635 C   0  0  0  0  0  0  0  0  0  0  0  0
   -2.8037    0.0640    0.0960 N   0  0  0  0  0  0  0  0  0  0  0  0
   -2.6238    0.1829    1.4659 C   0  0  0  0  0  0  0  0  0  0  0  0
   -3.4288   -0.2238    2.3012 O   0  0  0  0  0  0  0  0  0  0  0  0
   -1.3851    0.8319    1.9176 C   0  0  0  0  0  0  0  0  0  0  0  0
   -1.1778    1.0280    3.2930 C   0  0  0  0  0  0  0  0  0  0  0  0
   -0.0146    1.6428    3.7434 C   0  0  0  0  0  0  0  0  0  0  0  0
    0.9368    2.0601    2.8207 C   0  0  0  0  0  0  0  0  0  0  0  0
    0.7257    1.8613    1.4508 C   0  0  0  0  0  0  0  0  0  0  0  0
   -0.4410    1.2401    0.9764 C   0  0  0  0  0  0  0  0  0  0  0  0
   -0.6867    1.0112   -0.4076 N   0  0  0  0  0  0  0  0  0  0  0  0
    0.3078    1.3846   -1.4197 C   0  0  0  0  0  0  0  0  0  0  0  0
    1.4779    0.4216   -1.5171 C   0  0  0  0  0  0  0  0  0  0  0  0
    2.7950    0.9104   -1.5165 C   0  0  0  0  0  0  0  0  0  0  0  0
    3.8813    0.0375   -1.6235 C   0  0  0  0  0  0  0  0  0  0  0  0
    3.6525   -1.3382   -1.7465 C   0  0  0  0  0  0  0  0  0  0  0  0
    4.7908   -2.2583   -1.8584 N   0  0  0  0  0  4  0  0  0  0  0  0
    5.9303   -1.7712   -1.8270 O   0  0  0  0  0  0  0  0  0  0  0  0
    4.5471   -3.4677   -1.9756 O   0  0  0  0  0  1  0  0  0  0  0  0
    2.3473   -1.8412   -1.7707 C   0  0  0  0  0  0  0  0  0  0  0  0
    1.2679   -0.9600   -1.6626 C   0  0  0  0  0  0  0  0  0  0  0  0
   -1.8569    0.4063   -0.8601 C   0  0  0  0  0  0  0  0  0  0  0  0
   -2.0402    0.1712   -2.0575 O   0  0  0  0  0  0  0  0  0  0  0  0
   -4.8026   -2.5504   -0.8100 H   0  0  0  0  0  0  0  0  0  0  0  0
   -3.0765   -2.3598   -1.1693 H   0  0  0  0  0  0  0  0  0  0  0  0
   -3.6148   -2.5281    0.5066 H   0  0  0  0  0  0  0  0  0  0  0  0
   -4.3156   -0.1778   -1.3418 H   0  0  0  0  0  0  0  0  0  0  0  0
   -4.8494   -0.3480    0.3270 H   0  0  0  0  0  0  0  0  0  0  0  0
   -1.9250    0.7005    4.0139 H   0  0  0  0  0  0  0  0  0  0  0  0
    0.1473    1.7943    4.8077 H   0  0  0  0  0  0  0  0  0  0  0  0
    1.8501    2.5414    3.1644 H   0  0  0  0  0  0  0  0  0  0  0  0
    1.5061    2.2087    0.7831 H   0  0  0  0  0  0  0  0  0  0  0  0
   -0.1528    1.4392   -2.4137 H   0  0  0  0  0  0  0  0  0  0  0  0
    0.6464    2.4076   -1.2153 H   0  0  0  0  0  0  0  0  0  0  0  0
    2.9871    1.9788   -1.4333 H   0  0  0  0  0  0  0  0  0  0  0  0
    4.8910    0.4434   -1.6141 H   0  0  0  0  0  0  0  0  0  0  0  0
    2.1516   -2.9064   -1.8775 H   0  0  0  0  0  0  0  0  0  0  0  0
    0.2568   -1.3630   -1.7012 H   0  0  0  0  0  0  0  0  0  0  0  0
  1  2  1  0
  2  3  1  0
  3  4  1  0
  4  5  2  0
  4  6  1  0
  6  7  2  0
  7  8  1  0
  8  9  2  0
  9 10  1  0
 10 11  2  0
 11 12  1  0
 12 13  1  0
 13 14  1  0
 14 15  2  0
 15 16  1  0
 16 17  2  0
 17 18  1  0
 18 19  2  0
 18 20  1  0
 17 21  1  0
 21 22  2  0
 12 23  1  0
 23 24  2  0
 23  3  1  0
 11  6  1  0
 22 14  1  0
  1 25  1  0
  1 26  1  0
  1 27  1  0
  2 28  1  0
  2 29  1  0
  7 30  1  0
  8 31  1  0
  9 32  1  0
 10 33  1  0
 13 34  1  0
 13 35  1  0
 15 36  1  0
 16 37  1  0
 21 38  1  0
 22 39  1  0
M  CHG  2  18   1  20  -1
M  END
$$$$
