
     RDKit          3D

 57 59  0  0  0  0  0  0  0  0999 V2000
    7.7371    0.4044   -5.6119 C   0  0  0  0  0  0  0  0  0  0  0  0
    8.3755    0.9175   -4.4512 O   0  0  0  0  0  0  0  0  0  0  0  0
    7.7182    0.7588   -3.2637 C   0  0  0  0  0  0  0  0  0  0  0  0
    6.5099    0.0891   -3.0748 C   0  0  0  0  0  0  0  0  0  0  0  0
    5.9437   -0.0055   -1.7960 C   0  0  0  0  0  0  0  0  0  0  0  0
    6.5806    0.5710   -0.6974 C   0  0  0  0  0  0  0  0  0  0  0  0
    6.1308    0.5579    0.5934 O   0  0  0  0  0  0  0  0  0  0  0  0
    4.9799   -0.2463    0.8741 C   0  0  0  0  0  0  0  0  0  0  0  0
    4.6873   -0.1425    2.3707 C   0  0  0  0  0  0  0  0  0  0  0  0
    3.4182   -1.3267    2.9243 S   0  0  0  0  0  0  0  0  0  0  0  0
    1.9739   -0.6000    2.3161 C   0  0  0  0  0  0  0  0  0  0  0  0
    1.8941    0.4999    1.6074 N   0  0  0  0  0  0  0  0  0  0  0  0
    0.5767    0.6887    1.2771 N   0  0  0  0  0  0  0  0  0  0  0  0
   -0.1301   -0.2857    1.8143 C   0  0  0  0  0  0  0  0  0  0  0  0
   -1.6008   -0.4924    1.6764 C   0  0  0  0  0  0  0  0  0  0  0  0
   -2.3173    0.7725    1.1942 C   0  0  0  0  0  0  0  0  0  0  0  0
   -3.7050    0.5437    0.8185 N   0  0  0  0  0  0  0  0  0  0  0  0
   -4.6554    0.1692    1.7453 C   0  0  0  0  0  0  0  0  0  0  0  0
   -4.3921   -0.1167    2.9069 O   0  0  0  0  0  0  0  0  0  0  0  0
   -6.0674    0.1576    1.2702 C   0  0  0  0  0  0  0  0  0  0  0  0
   -7.0880    0.3626    2.2048 C   0  0  0  0  0  0  0  0  0  0  0  0
   -8.4230    0.3709    1.7913 C   0  0  0  0  0  0  0  0  0  0  0  0
   -8.7559    0.1654    0.4497 C   0  0  0  0  0  0  0  0  0  0  0  0
  -10.0958    0.2077    0.1813 O   0  0  0  0  0  0  0  0  0  0  0  0
  -10.4877    0.0110   -1.1719 C   0  0  0  0  0  0  0  0  0  0  0  0
   -7.7386   -0.0635   -0.4798 C   0  0  0  0  0  0  0  0  0  0  0  0
   -6.3981   -0.0721   -0.0716 C   0  0  0  0  0  0  0  0  0  0  0  0
    0.7242   -1.1268    2.4911 N   0  0  0  0  0  0  0  0  0  0  0  0
    0.3762   -2.3355    3.1933 C   0  0  0  0  0  0  0  0  0  0  0  0
    7.7864    1.2442   -0.8902 C   0  0  0  0  0  0  0  0  0  0  0  0
    8.3531    1.3344   -2.1631 C   0  0  0  0  0  0  0  0  0  0  0  0
    6.7684    0.8868   -5.7789 H   0  0  0  0  0  0  0  0  0  0  0  0
    7.6314   -0.6832   -5.5564 H   0  0  0  0  0  0  0  0  0  0  0  0
    8.3751    0.6337   -6.4691 H   0  0  0  0  0  0  0  0  0  0  0  0
    5.9775   -0.3715   -3.8995 H   0  0  0  0  0  0  0  0  0  0  0  0
    4.9999   -0.5301   -1.6967 H   0  0  0  0  0  0  0  0  0  0  0  0
    4.1259    0.1183    0.2966 H   0  0  0  0  0  0  0  0  0  0  0  0
    5.1973   -1.2872    0.6089 H   0  0  0  0  0  0  0  0  0  0  0  0
    5.6031   -0.3562    2.9328 H   0  0  0  0  0  0  0  0  0  0  0  0
    4.4072    0.8814    2.6417 H   0  0  0  0  0  0  0  0  0  0  0  0
   -1.7775   -1.3119    0.9679 H   0  0  0  0  0  0  0  0  0  0  0  0
   -2.0215   -0.8012    2.6384 H   0  0  0  0  0  0  0  0  0  0  0  0
   -2.2969    1.5461    1.9715 H   0  0  0  0  0  0  0  0  0  0  0  0
   -1.8271    1.1808    0.3030 H   0  0  0  0  0  0  0  0  0  0  0  0
   -4.0258    1.0193   -0.0154 H   0  0  0  0  0  0  0  0  0  0  0  0
   -6.8490    0.5227    3.2543 H   0  0  0  0  0  0  0  0  0  0  0  0
   -9.2112    0.5390    2.5235 H   0  0  0  0  0  0  0  0  0  0  0  0
  -10.2124   -0.9902   -1.5178 H   0  0  0  0  0  0  0  0  0  0  0  0
  -10.0661    0.7843   -1.8242 H   0  0  0  0  0  0  0  0  0  0  0  0
  -11.5773    0.0932   -1.2182 H   0  0  0  0  0  0  0  0  0  0  0  0
   -7.9538   -0.2452   -1.5283 H   0  0  0  0  0  0  0  0  0  0  0  0
   -5.6295   -0.2840   -0.8093 H   0  0  0  0  0  0  0  0  0  0  0  0
    0.5459   -3.1803    2.5221 H   0  0  0  0  0  0  0  0  0  0  0  0
    0.9912   -2.4321    4.0909 H   0  0  0  0  0  0  0  0  0  0  0  0
   -0.6707   -2.3079    3.4952 H   0  0  0  0  0  0  0  0  0  0  0  0
    8.2916    1.7019   -0.0445 H   0  0  0  0  0  0  0  0  0  0  0  0
    9.2941    1.8608   -2.2968 H   0  0  0  0  0  0  0  0  0  0  0  0
  1  2  1  0
  2  3  1  0
  3  4  2  0
  4  5  1  0
  5  6  2  0
  6  7  1  0
  7  8  1  0
  8  9  1  0
  9 10  1  0
 10 11  1  0
 11 12  2  0
 12 13  1  0
 13 14  2  0
 14 15  1  0
 15 16  1  0
 16 17  1  0
 17 18  1  0
 18 19  2  0
 18 20  1  0
 20 21  2  0
 21 22  1  0
 22 23  2  0
 23 24  1  0
 24 25  1  0
 23 26  1  0
 26 27  2  0
 14 28  1  0
 28 29  1  0
  6 30  1  0
 30 31  2  0
 31  3  1  0
 28 11  1  0
 27 20  1  0
  1 32  1  0
  1 33  1  0
  1 34  1  0
  4 35  1  0
  5 36  1  0
  8 37  1  0
  8 38  1  0
  9 39  1  0
  9 40  1  0
 15 41  1  0
 15 42  1  0
 16 43  1  0
 16 44  1  0
 17 45  1  0
 21 46  1  0
 22 47  1  0
 25 48  1  0
 25 49  1  0
 25 50  1  0
 26 51  1  0
 27 52  1  0
 29 53  1  0
 29 54  1  0
 29 55  1  0
 30 56  1  0
 31 57  1  0
M  END
$$$$
