
     RDKit          3D

 44 47  0  0  0  0  0  0  0  0999 V2000
   -6.8668   -0.5113    1.6758 C   0  0  0  0  0  0  0  0  0  0  0  0
   -5.4732   -1.0768    1.8614 C   0  0  0  0  0  0  0  0  0  0  0  0
   -4.6665   -0.6023    0.7871 O   0  0  0  0  0  0  0  0  0  0  0  0
   -3.4093   -1.1334    0.6642 C   0  0  0  0  0  0  0  0  0  0  0  0
   -2.7452   -1.8447    1.6659 C   0  0  0  0  0  0  0  0  0  0  0  0
   -1.4491   -2.3281    1.4493 C   0  0  0  0  0  0  0  0  0  0  0  0
   -0.8062   -2.1117    0.2271 C   0  0  0  0  0  0  0  0  0  0  0  0
    0.5457   -2.6318    0.0147 C   0  0  0  0  0  0  0  0  0  0  0  0
    1.6565   -1.8866   -0.0854 C   0  0  0  0  0  0  0  0  0  0  0  0
    3.2398   -2.6209   -0.3431 S   0  0  0  0  0  0  0  0  0  0  0  0
    3.9609   -1.0694   -0.3212 C   0  0  0  0  0  0  0  0  0  0  0  0
    5.1716   -0.6100   -0.4525 N   0  0  0  0  0  0  0  0  0  0  0  0
    4.9596    0.7571   -0.3338 C   0  0  0  0  0  0  0  0  0  0  0  0
    6.1301    1.7897   -0.4331 C   0  0  0  0  0  0  0  0  0  0  0  0
    7.4601    1.4743   -0.6333 C   0  0  0  0  0  0  0  0  0  0  0  0
    8.1704    2.6992   -0.6655 C   0  0  0  0  0  0  0  0  0  0  0  0
    7.2324    3.6858   -0.4860 C   0  0  0  0  0  0  0  0  0  0  0  0
    5.9950    3.1464   -0.3411 O   0  0  0  0  0  0  0  0  0  0  0  0
    3.6775    1.1234   -0.1352 N   0  0  0  0  0  0  0  0  0  0  0  0
    3.0723   -0.0759   -0.1339 N   0  0  0  0  0  0  0  0  0  0  0  0
    1.7376   -0.3918    0.0126 C   0  0  0  0  0  0  0  0  0  0  0  0
    0.8678    0.4385    0.1798 O   0  0  0  0  0  0  0  0  0  0  0  0
   -1.4715   -1.4138   -0.7837 C   0  0  0  0  0  0  0  0  0  0  0  0
   -2.7502   -0.8971   -0.5534 C   0  0  0  0  0  0  0  0  0  0  0  0
   -3.4221   -0.2062   -1.5336 O   0  0  0  0  0  0  0  0  0  0  0  0
   -2.7308    0.9596   -1.9988 C   0  0  0  0  0  0  0  0  0  0  0  0
   -2.6642    2.0592   -0.9425 C   0  0  0  0  0  0  0  0  0  0  0  0
   -7.2809   -0.8148    0.7093 H   0  0  0  0  0  0  0  0  0  0  0  0
   -7.5334   -0.8557    2.4718 H   0  0  0  0  0  0  0  0  0  0  0  0
   -6.8432    0.5834    1.6790 H   0  0  0  0  0  0  0  0  0  0  0  0
   -5.5266   -2.1713    1.8525 H   0  0  0  0  0  0  0  0  0  0  0  0
   -5.0722   -0.7298    2.8196 H   0  0  0  0  0  0  0  0  0  0  0  0
   -3.2025   -2.0253    2.6327 H   0  0  0  0  0  0  0  0  0  0  0  0
   -0.9500   -2.8701    2.2482 H   0  0  0  0  0  0  0  0  0  0  0  0
    0.6006   -3.7162   -0.0485 H   0  0  0  0  0  0  0  0  0  0  0  0
    7.8605    0.4754   -0.7452 H   0  0  0  0  0  0  0  0  0  0  0  0
    9.2325    2.8447   -0.8063 H   0  0  0  0  0  0  0  0  0  0  0  0
    7.2786    4.7634   -0.4412 H   0  0  0  0  0  0  0  0  0  0  0  0
   -0.9988   -1.2733   -1.7509 H   0  0  0  0  0  0  0  0  0  0  0  0
   -3.3130    1.3310   -2.8539 H   0  0  0  0  0  0  0  0  0  0  0  0
   -1.7323    0.7172   -2.3892 H   0  0  0  0  0  0  0  0  0  0  0  0
   -2.0291    1.7670   -0.0947 H   0  0  0  0  0  0  0  0  0  0  0  0
   -2.2467    2.9746   -1.3718 H   0  0  0  0  0  0  0  0  0  0  0  0
   -3.6656    2.2783   -0.5425 H   0  0  0  0  0  0  0  0  0  0  0  0
  1  2  1  0
  2  3  1  0
  3  4  1  0
  4  5  2  0
  5  6  1  0
  6  7  2  0
  7  8  1  0
  8  9  2  3
  9 10  1  0
 10 11  1  0
 11 12  2  0
 12 13  1  0
 13 14  1  0
 14 15  2  0
 15 16  1  0
 16 17  2  0
 17 18  1  0
 13 19  2  0
 19 20  1  0
 20 21  1  0
 21 22  2  0
  7 23  1  0
 23 24  2  0
 24 25  1  0
 25 26  1  0
 26 27  1  0
 24  4  1  0
 21  9  1  0
 20 11  1  0
 18 14  1  0
  1 28  1  0
  1 29  1  0
  1 30  1  0
  2 31  1  0
  2 32  1  0
  5 33  1  0
  6 34  1  0
  8 35  1  0
 15 36  1  0
 16 37  1  0
 17 38  1  0
 23 39  1  0
 26 40  1  0
 26 41  1  0
 27 42  1  0
 27 43  1  0
 27 44  1  0
M  END
$$$$
