
     RDKit          3D

 52 55  0  0  0  0  0  0  0  0999 V2000
    4.5529    3.0601    5.0633 C   0  0  0  0  0  0  0  0  0  0  0  0
    4.8311    2.6205    3.7402 O   0  0  0  0  0  0  0  0  0  0  0  0
    3.9800    1.6955    3.2036 C   0  0  0  0  0  0  0  0  0  0  0  0
    2.8469    1.1671    3.8180 C   0  0  0  0  0  0  0  0  0  0  0  0
    2.0593    0.2238    3.1456 C   0  0  0  0  0  0  0  0  0  0  0  0
    2.3904   -0.2023    1.8533 C   0  0  0  0  0  0  0  0  0  0  0  0
    1.5351   -1.1446    1.2505 N   0  0  0  0  0  0  0  0  0  0  0  0
    1.5468   -1.5874   -0.0579 C   0  0  0  0  0  0  0  0  0  0  0  0
    2.3658   -1.2667   -0.9169 O   0  0  0  0  0  0  0  0  0  0  0  0
    0.4746   -2.6202   -0.3915 C   0  0  0  0  0  0  0  0  0  0  0  0
   -1.0917   -2.4159    0.5114 S   0  0  0  0  0  0  0  0  0  0  0  0
   -1.5018   -0.7974   -0.0410 C   0  0  0  0  0  0  0  0  0  0  0  0
   -1.1062    0.1515    0.7500 N   0  0  0  0  0  0  0  0  0  0  0  0
   -1.2867    1.4243    0.2982 C   0  0  0  0  0  0  0  0  0  0  0  0
   -1.8710    1.7543   -0.8519 C   0  0  0  0  0  0  0  0  0  0  0  0
   -2.4097    0.6905   -1.7248 C   0  0  0  0  0  0  0  0  0  0  0  0
   -3.0669    0.9710   -2.7266 O   0  0  0  0  0  0  0  0  0  0  0  0
   -2.1529   -0.6067   -1.2568 N   0  0  0  0  0  0  0  0  0  0  0  0
   -2.6399   -1.6871   -2.0522 C   0  0  0  0  0  0  0  0  0  0  0  0
   -3.6434   -2.5315   -1.5551 C   0  0  0  0  0  0  0  0  0  0  0  0
   -4.1398   -3.5712   -2.3429 C   0  0  0  0  0  0  0  0  0  0  0  0
   -3.6364   -3.7770   -3.6268 C   0  0  0  0  0  0  0  0  0  0  0  0
   -2.6381   -2.9419   -4.1317 C   0  0  0  0  0  0  0  0  0  0  0  0
   -2.1507   -1.8872   -3.3553 C   0  0  0  0  0  0  0  0  0  0  0  0
   -1.1076   -1.1005   -3.7764 O   0  0  0  0  0  0  0  0  0  0  0  0
   -1.3093   -0.5571   -5.0806 C   0  0  0  0  0  0  0  0  0  0  0  0
   -1.9398    3.4339   -1.1951 S   0  0  0  0  0  0  0  0  0  0  0  0
   -1.3490    3.8633    0.4811 C   0  0  0  0  0  0  0  0  0  0  0  0
   -0.7545    2.5856    1.0829 C   0  0  0  0  0  0  0  0  0  0  0  0
    3.5275    0.3249    1.2453 C   0  0  0  0  0  0  0  0  0  0  0  0
    4.3134    1.2684    1.9176 C   0  0  0  0  0  0  0  0  0  0  0  0
    3.5859    3.5717    5.1144 H   0  0  0  0  0  0  0  0  0  0  0  0
    5.3260    3.7812    5.3454 H   0  0  0  0  0  0  0  0  0  0  0  0
    4.5979    2.2280    5.7738 H   0  0  0  0  0  0  0  0  0  0  0  0
    2.5442    1.4659    4.8155 H   0  0  0  0  0  0  0  0  0  0  0  0
    1.1768   -0.1668    3.6469 H   0  0  0  0  0  0  0  0  0  0  0  0
    0.7082   -1.3967    1.7839 H   0  0  0  0  0  0  0  0  0  0  0  0
    0.2727   -2.5774   -1.4658 H   0  0  0  0  0  0  0  0  0  0  0  0
    0.8805   -3.6101   -0.1609 H   0  0  0  0  0  0  0  0  0  0  0  0
   -4.0623   -2.3742   -0.5641 H   0  0  0  0  0  0  0  0  0  0  0  0
   -4.9216   -4.2205   -1.9559 H   0  0  0  0  0  0  0  0  0  0  0  0
   -4.0175   -4.5941   -4.2348 H   0  0  0  0  0  0  0  0  0  0  0  0
   -2.2349   -3.1398   -5.1203 H   0  0  0  0  0  0  0  0  0  0  0  0
   -0.6545    0.3134   -5.1834 H   0  0  0  0  0  0  0  0  0  0  0  0
   -2.3415   -0.2227   -5.2332 H   0  0  0  0  0  0  0  0  0  0  0  0
   -1.0226   -1.2847   -5.8461 H   0  0  0  0  0  0  0  0  0  0  0  0
   -0.6135    4.6720    0.4389 H   0  0  0  0  0  0  0  0  0  0  0  0
   -2.2057    4.2040    1.0727 H   0  0  0  0  0  0  0  0  0  0  0  0
    0.3399    2.6049    1.0158 H   0  0  0  0  0  0  0  0  0  0  0  0
   -1.0201    2.5097    2.1431 H   0  0  0  0  0  0  0  0  0  0  0  0
    3.8365    0.0251    0.2492 H   0  0  0  0  0  0  0  0  0  0  0  0
    5.1970    1.6712    1.4278 H   0  0  0  0  0  0  0  0  0  0  0  0
  1  2  1  0
  2  3  1  0
  3  4  2  0
  4  5  1  0
  5  6  2  0
  6  7  1  0
  7  8  1  0
  8  9  2  0
  8 10  1  0
 10 11  1  0
 11 12  1  0
 12 13  2  0
 13 14  1  0
 14 15  2  0
 15 16  1  0
 16 17  2  0
 16 18  1  0
 18 19  1  0
 19 20  2  0
 20 21  1  0
 21 22  2  0
 22 23  1  0
 23 24  2  0
 24 25  1  0
 25 26  1  0
 15 27  1  0
 27 28  1  0
 28 29  1  0
  6 30  1  0
 30 31  2  0
 31  3  1  0
 18 12  1  0
 24 19  1  0
 29 14  1  0
  1 32  1  0
  1 33  1  0
  1 34  1  0
  4 35  1  0
  5 36  1  0
  7 37  1  0
 10 38  1  0
 10 39  1  0
 20 40  1  0
 21 41  1  0
 22 42  1  0
 23 43  1  0
 26 44  1  0
 26 45  1  0
 26 46  1  0
 28 47  1  0
 28 48  1  0
 29 49  1  0
 29 50  1  0
 30 51  1  0
 31 52  1  0
M  END
$$$$
