
     RDKit          3D

 32 33  0  0  0  0  0  0  0  0999 V2000
   -4.6278    0.3507    0.8054 C   0  0  0  0  0  0  0  0  0  0  0  0
   -3.6209    0.8152   -0.2358 C   0  0  0  0  0  0  0  0  0  0  0  0
   -3.1101   -0.3141   -1.1345 C   0  0  0  0  0  0  0  0  0  0  0  0
   -2.2407   -1.3687   -0.4366 C   0  0  0  0  0  0  0  0  0  0  0  0
   -0.9447   -0.8550    0.0107 N   0  0  0  0  0  0  0  0  0  0  0  0
   -0.7566   -0.4222    1.2856 C   0  0  0  0  0  0  0  0  0  0  0  0
   -1.5351   -0.4004    2.2166 O   0  0  0  0  0  0  0  0  0  0  0  0
    0.6875    0.0588    1.3576 C   0  0  0  0  0  0  0  0  0  0  0  0
    1.1710    0.5136    2.3764 O   0  0  0  0  0  0  0  0  0  0  0  0
    1.2211   -0.1786    0.1152 N   0  0  0  0  0  0  0  0  0  0  0  0
    2.5915    0.0950   -0.1828 C   0  0  0  0  0  0  0  0  0  0  0  0
    3.2546    1.1654    0.4423 C   0  0  0  0  0  0  0  0  0  0  0  0
    4.5982    1.4491    0.1734 C   0  0  0  0  0  0  0  0  0  0  0  0
    5.3124    0.6590   -0.7191 C   0  0  0  0  0  0  0  0  0  0  0  0
    4.6849   -0.4184   -1.3335 C   0  0  0  0  0  0  0  0  0  0  0  0
    3.3401   -0.6997   -1.0629 C   0  0  0  0  0  0  0  0  0  0  0  0
    0.2266   -0.7022   -0.7225 C   0  0  0  0  0  0  0  0  0  0  0  0
    0.3269   -1.0349   -2.3659 S   0  0  0  0  0  0  0  0  0  0  0  0
   -5.0099    1.2095    1.3665 H   0  0  0  0  0  0  0  0  0  0  0  0
   -5.4792   -0.1478    0.3313 H   0  0  0  0  0  0  0  0  0  0  0  0
   -4.1810   -0.3420    1.5231 H   0  0  0  0  0  0  0  0  0  0  0  0
   -2.7860    1.3259    0.2551 H   0  0  0  0  0  0  0  0  0  0  0  0
   -4.1098    1.5637   -0.8715 H   0  0  0  0  0  0  0  0  0  0  0  0
   -3.9719   -0.8205   -1.5869 H   0  0  0  0  0  0  0  0  0  0  0  0
   -2.5502    0.1385   -1.9605 H   0  0  0  0  0  0  0  0  0  0  0  0
   -2.7713   -1.7914    0.4232 H   0  0  0  0  0  0  0  0  0  0  0  0
   -2.0612   -2.1963   -1.1313 H   0  0  0  0  0  0  0  0  0  0  0  0
    2.7365    1.8242    1.1363 H   0  0  0  0  0  0  0  0  0  0  0  0
    5.0821    2.2897    0.6650 H   0  0  0  0  0  0  0  0  0  0  0  0
    6.3568    0.8762   -0.9274 H   0  0  0  0  0  0  0  0  0  0  0  0
    5.2430   -1.0533   -2.0177 H   0  0  0  0  0  0  0  0  0  0  0  0
    2.9233   -1.5889   -1.5254 H   0  0  0  0  0  0  0  0  0  0  0  0
  1  2  1  0
  2  3  1  0
  3  4  1  0
  4  5  1  0
  5  6  1  0
  6  7  2  0
  6  8  1  0
  8  9  2  0
  8 10  1  0
 10 11  1  0
 11 12  2  0
 12 13  1  0
 13 14  2  0
 14 15  1  0
 15 16  2  0
 10 17  1  0
 17 18  2  0
 17  5  1  0
 16 11  1  0
  1 19  1  0
  1 20  1  0
  1 21  1  0
  2 22  1  0
  2 23  1  0
  3 24  1  0
  3 25  1  0
  4 26  1  0
  4 27  1  0
 12 28  1  0
 13 29  1  0
 14 30  1  0
 15 31  1  0
 16 32  1  0
M  END
$$$$
