
     RDKit          3D

 54 59  0  0  0  0  0  0  0  0999 V2000
    6.6747    0.9300   -2.0408 C   0  0  0  0  0  0  0  0  0  0  0  0
    5.6896    0.2675   -1.1242 C   0  0  0  0  0  0  0  0  0  0  0  0
    5.9175    0.2273    0.2547 C   0  0  0  0  0  0  0  0  0  0  0  0
    4.9847   -0.3641    1.1108 C   0  0  0  0  0  0  0  0  0  0  0  0
    3.7934   -0.9071    0.6075 C   0  0  0  0  0  0  0  0  0  0  0  0
    2.7934   -1.5577    1.5406 C   0  0  0  0  0  0  0  0  0  0  0  0
    1.4509   -0.9807    1.4494 N   0  0  0  0  0  0  0  0  0  0  0  0
    1.0991    0.2132    2.0898 C   0  0  0  0  0  0  0  0  0  0  0  0
    2.1441    0.9379    2.9078 C   0  0  0  0  0  0  0  0  0  0  0  0
   -0.0817    0.7645    2.0348 N   0  0  0  0  0  0  0  0  0  0  0  0
   -0.9804    0.0870    1.2904 C   0  0  0  0  0  0  0  0  0  0  0  0
   -0.7776   -1.0944    0.6162 C   0  0  0  0  0  0  0  0  0  0  0  0
    0.5206   -1.7093    0.6794 C   0  0  0  0  0  0  0  0  0  0  0  0
    0.7827   -2.7660    0.1129 O   0  0  0  0  0  0  0  0  0  0  0  0
   -1.9865   -1.4395   -0.0165 C   0  0  0  0  0  0  0  0  0  0  0  0
   -2.3276   -2.4982   -0.7912 N   0  0  0  0  0  0  0  0  0  0  0  0
   -3.6002   -2.4914   -1.2186 C   0  0  0  0  0  0  0  0  0  0  0  0
   -4.0286   -3.5402   -2.0221 C   0  0  0  0  0  0  0  0  0  0  0  0
   -5.3363   -3.6050   -2.5054 C   0  0  0  0  0  0  0  0  0  0  0  0
   -6.2361   -2.6004   -2.1791 C   0  0  0  0  0  0  0  0  0  0  0  0
   -5.8200   -1.5403   -1.3722 C   0  0  0  0  0  0  0  0  0  0  0  0
   -4.5220   -1.4623   -0.8835 C   0  0  0  0  0  0  0  0  0  0  0  0
   -4.1947   -0.4120   -0.1116 N   0  0  0  0  0  0  0  0  0  0  0  0
   -2.9093   -0.4424    0.2928 C   0  0  0  0  0  0  0  0  0  0  0  0
   -2.2750    0.4917    1.0747 N   0  0  0  0  0  0  0  0  0  0  0  0
   -2.8951    1.6902    1.6138 C   0  0  0  0  0  0  0  0  0  0  0  0
   -2.6880    2.8521    0.7121 C   0  0  0  0  0  0  0  0  0  0  0  0
   -1.5670    3.5125    0.2485 C   0  0  0  0  0  0  0  0  0  0  0  0
   -2.0322    4.5597   -0.5817 C   0  0  0  0  0  0  0  0  0  0  0  0
   -3.4043    4.4797   -0.5657 C   0  0  0  0  0  0  0  0  0  0  0  0
   -3.8121    3.4526    0.2222 O   0  0  0  0  0  0  0  0  0  0  0  0
    3.5718   -0.8672   -0.7761 C   0  0  0  0  0  0  0  0  0  0  0  0
    4.5054   -0.2762   -1.6313 C   0  0  0  0  0  0  0  0  0  0  0  0
    6.6699    0.4556   -3.0278 H   0  0  0  0  0  0  0  0  0  0  0  0
    7.6929    0.8474   -1.6463 H   0  0  0  0  0  0  0  0  0  0  0  0
    6.4249    1.9892   -2.1556 H   0  0  0  0  0  0  0  0  0  0  0  0
    6.8277    0.6529    0.6718 H   0  0  0  0  0  0  0  0  0  0  0  0
    5.1987   -0.3906    2.1772 H   0  0  0  0  0  0  0  0  0  0  0  0
    3.1366   -1.4783    2.5773 H   0  0  0  0  0  0  0  0  0  0  0  0
    2.7748   -2.6321    1.3221 H   0  0  0  0  0  0  0  0  0  0  0  0
    2.9313    1.3187    2.2544 H   0  0  0  0  0  0  0  0  0  0  0  0
    2.5701    0.2795    3.6678 H   0  0  0  0  0  0  0  0  0  0  0  0
    1.6915    1.7924    3.4216 H   0  0  0  0  0  0  0  0  0  0  0  0
   -3.3228   -4.3275   -2.2781 H   0  0  0  0  0  0  0  0  0  0  0  0
   -5.6441   -4.4375   -3.1330 H   0  0  0  0  0  0  0  0  0  0  0  0
   -7.2578   -2.6356   -2.5484 H   0  0  0  0  0  0  0  0  0  0  0  0
   -6.5254   -0.7523   -1.1180 H   0  0  0  0  0  0  0  0  0  0  0  0
   -2.4595    1.8853    2.5998 H   0  0  0  0  0  0  0  0  0  0  0  0
   -3.9602    1.4837    1.7656 H   0  0  0  0  0  0  0  0  0  0  0  0
   -0.5410    3.2596    0.4803 H   0  0  0  0  0  0  0  0  0  0  0  0
   -1.4417    5.2834   -1.1252 H   0  0  0  0  0  0  0  0  0  0  0  0
   -4.1940    5.0488   -1.0360 H   0  0  0  0  0  0  0  0  0  0  0  0
    2.6726   -1.3032   -1.2077 H   0  0  0  0  0  0  0  0  0  0  0  0
    4.3024   -0.2513   -2.7000 H   0  0  0  0  0  0  0  0  0  0  0  0
  1  2  1  0
  2  3  2  0
  3  4  1  0
  4  5  2  0
  5  6  1  0
  6  7  1  0
  7  8  1  0
  8  9  1  0
  8 10  2  0
 10 11  1  0
 11 12  2  0
 12 13  1  0
 13 14  2  0
 12 15  1  0
 15 16  2  0
 16 17  1  0
 17 18  2  0
 18 19  1  0
 19 20  2  0
 20 21  1  0
 21 22  2  0
 22 23  1  0
 23 24  2  0
 24 25  1  0
 25 26  1  0
 26 27  1  0
 27 28  2  0
 28 29  1  0
 29 30  2  0
 30 31  1  0
  5 32  1  0
 32 33  2  0
 33  2  1  0
 13  7  1  0
 24 15  1  0
 31 27  1  0
 25 11  1  0
 22 17  1  0
  1 34  1  0
  1 35  1  0
  1 36  1  0
  3 37  1  0
  4 38  1  0
  6 39  1  0
  6 40  1  0
  9 41  1  0
  9 42  1  0
  9 43  1  0
 18 44  1  0
 19 45  1  0
 20 46  1  0
 21 47  1  0
 26 48  1  0
 26 49  1  0
 28 50  1  0
 29 51  1  0
 30 52  1  0
 32 53  1  0
 33 54  1  0
M  END
$$$$
