
     RDKit          3D

 61 66  0  0  0  0  0  0  0  0999 V2000
    9.8588    0.0689   -0.0600 F   0  0  0  0  0  0  0  0  0  0  0  0
    8.9281   -0.3843   -0.9452 C   0  0  0  0  0  0  0  0  0  0  0  0
    9.2908    0.1226   -2.1572 F   0  0  0  0  0  0  0  0  0  0  0  0
    9.1215   -1.7298   -1.0340 F   0  0  0  0  0  0  0  0  0  0  0  0
    7.5218   -0.0234   -0.5373 C   0  0  0  0  0  0  0  0  0  0  0  0
    6.9453   -0.6191    0.5941 C   0  0  0  0  0  0  0  0  0  0  0  0
    5.6471   -0.2874    0.9867 C   0  0  0  0  0  0  0  0  0  0  0  0
    4.8952    0.6433    0.2550 C   0  0  0  0  0  0  0  0  0  0  0  0
    3.4899    1.0077    0.6904 C   0  0  0  0  0  0  0  0  0  0  0  0
    2.5977   -0.1559    0.8091 N   0  0  0  0  0  0  0  0  0  0  0  0
    2.2878   -0.7826   -0.5014 C   0  0  0  0  0  0  0  0  0  0  0  0
    1.3306    0.0315   -1.4018 C   0  0  0  0  0  0  0  0  0  0  0  0
    0.0812    0.3813   -0.6929 N   0  0  0  0  0  0  0  0  0  0  0  0
   -0.9886   -0.5128   -0.7560 C   0  0  0  0  0  0  0  0  0  0  0  0
   -0.7630   -1.7636   -1.0686 N   0  0  0  0  0  0  0  0  0  0  0  0
   -1.8171   -2.6973   -1.1014 C   0  0  0  0  0  0  0  0  0  0  0  0
   -1.5182   -4.0225   -1.4210 C   0  0  0  0  0  0  0  0  0  0  0  0
   -2.5237   -4.9924   -1.4549 C   0  0  0  0  0  0  0  0  0  0  0  0
   -3.8439   -4.6432   -1.1684 C   0  0  0  0  0  0  0  0  0  0  0  0
   -4.1661   -3.3242   -0.8474 C   0  0  0  0  0  0  0  0  0  0  0  0
   -3.1492   -2.3654   -0.8158 C   0  0  0  0  0  0  0  0  0  0  0  0
   -3.3852   -1.0144   -0.5132 N   0  0  0  0  0  0  0  0  0  0  0  0
   -4.5665   -0.3766   -0.2159 C   0  0  0  0  0  0  0  0  0  0  0  0
   -4.3106    0.9737   -0.0589 C   0  0  0  0  0  0  0  0  0  0  0  0
   -5.3334    1.9699    0.2256 C   0  0  0  0  0  0  0  0  0  0  0  0
   -5.2355    3.2548   -0.3250 C   0  0  0  0  0  0  0  0  0  0  0  0
   -6.2077    4.2208   -0.0526 C   0  0  0  0  0  0  0  0  0  0  0  0
   -7.2853    3.9129    0.7753 C   0  0  0  0  0  0  0  0  0  0  0  0
   -7.3923    2.6404    1.3313 C   0  0  0  0  0  0  0  0  0  0  0  0
   -6.4210    1.6734    1.0586 C   0  0  0  0  0  0  0  0  0  0  0  0
   -2.9150    1.1451   -0.2670 C   0  0  0  0  0  0  0  0  0  0  0  0
   -2.3584   -0.0999   -0.4989 C   0  0  0  0  0  0  0  0  0  0  0  0
    0.3532    1.0502    0.5947 C   0  0  0  0  0  0  0  0  0  0  0  0
    1.3199    0.2103    1.4636 C   0  0  0  0  0  0  0  0  0  0  0  0
    5.4740    1.2471   -0.8697 C   0  0  0  0  0  0  0  0  0  0  0  0
    6.7747    0.9181   -1.2611 C   0  0  0  0  0  0  0  0  0  0  0  0
    7.5059   -1.3498    1.1749 H   0  0  0  0  0  0  0  0  0  0  0  0
    5.2125   -0.7637    1.8645 H   0  0  0  0  0  0  0  0  0  0  0  0
    3.5926    1.4911    1.6709 H   0  0  0  0  0  0  0  0  0  0  0  0
    3.0766    1.7706    0.0211 H   0  0  0  0  0  0  0  0  0  0  0  0
    1.8396   -1.7630   -0.2962 H   0  0  0  0  0  0  0  0  0  0  0  0
    3.2075   -1.0026   -1.0551 H   0  0  0  0  0  0  0  0  0  0  0  0
    1.1154   -0.5245   -2.3222 H   0  0  0  0  0  0  0  0  0  0  0  0
    1.8178    0.9597   -1.7226 H   0  0  0  0  0  0  0  0  0  0  0  0
   -0.4906   -4.2983   -1.6421 H   0  0  0  0  0  0  0  0  0  0  0  0
   -2.2739   -6.0198   -1.7046 H   0  0  0  0  0  0  0  0  0  0  0  0
   -4.6226   -5.4016   -1.1962 H   0  0  0  0  0  0  0  0  0  0  0  0
   -5.1999   -3.0764   -0.6320 H   0  0  0  0  0  0  0  0  0  0  0  0
   -5.4991   -0.9194   -0.1666 H   0  0  0  0  0  0  0  0  0  0  0  0
   -4.4094    3.5130   -0.9831 H   0  0  0  0  0  0  0  0  0  0  0  0
   -6.1238    5.2119   -0.4902 H   0  0  0  0  0  0  0  0  0  0  0  0
   -8.0407    4.6644    0.9876 H   0  0  0  0  0  0  0  0  0  0  0  0
   -8.2299    2.3987    1.9801 H   0  0  0  0  0  0  0  0  0  0  0  0
   -6.5170    0.6919    1.5154 H   0  0  0  0  0  0  0  0  0  0  0  0
   -2.3681    2.0783   -0.2396 H   0  0  0  0  0  0  0  0  0  0  0  0
    0.7833    2.0385    0.3951 H   0  0  0  0  0  0  0  0  0  0  0  0
   -0.5645    1.2241    1.1651 H   0  0  0  0  0  0  0  0  0  0  0  0
    0.8130   -0.7201    1.7536 H   0  0  0  0  0  0  0  0  0  0  0  0
    1.5189    0.7404    2.4035 H   0  0  0  0  0  0  0  0  0  0  0  0
    4.9160    1.9775   -1.4519 H   0  0  0  0  0  0  0  0  0  0  0  0
    7.2031    1.4019   -2.1385 H   0  0  0  0  0  0  0  0  0  0  0  0
  1  2  1  0
  2  3  1  0
  2  4  1  0
  2  5  1  0
  5  6  2  0
  6  7  1  0
  7  8  2  0
  8  9  1  0
  9 10  1  0
 10 11  1  0
 11 12  1  0
 12 13  1  0
 13 14  1  0
 14 15  2  0
 15 16  1  0
 16 17  2  0
 17 18  1  0
 18 19  2  0
 19 20  1  0
 20 21  2  0
 21 22  1  0
 22 23  1  0
 23 24  2  0
 24 25  1  0
 25 26  2  0
 26 27  1  0
 27 28  2  0
 28 29  1  0
 29 30  2  0
 24 31  1  0
 31 32  2  0
 13 33  1  0
 33 34  1  0
  8 35  1  0
 35 36  2  0
 36  5  1  0
 34 10  1  0
 32 14  1  0
 21 16  1  0
 32 22  1  0
 30 25  1  0
  6 37  1  0
  7 38  1  0
  9 39  1  0
  9 40  1  0
 11 41  1  0
 11 42  1  0
 12 43  1  0
 12 44  1  0
 17 45  1  0
 18 46  1  0
 19 47  1  0
 20 48  1  0
 23 49  1  0
 26 50  1  0
 27 51  1  0
 28 52  1  0
 29 53  1  0
 30 54  1  0
 31 55  1  0
 33 56  1  0
 33 57  1  0
 34 58  1  0
 34 59  1  0
 35 60  1  0
 36 61  1  0
M  END
$$$$
