
     RDKit          3D

 80 86  0  0  0  0  0  0  0  0999 V2000
    6.6444   -1.2200    2.2451 C   0  0  0  0  0  0  0  0  0  0  0  0
    5.6439   -0.1030    2.5695 C   0  0  0  0  0  0  0  0  0  0  0  0
    5.3795   -0.1004    4.0825 C   0  0  0  0  0  0  0  0  0  0  0  0
    6.1829    1.2770    2.1687 C   0  0  0  0  0  0  0  0  0  0  0  0
    4.3525   -0.3926    1.9752 O   0  0  0  0  0  0  0  0  0  0  0  0
    4.1916   -0.4361    0.6274 C   0  0  0  0  0  0  0  0  0  0  0  0
    5.0481   -0.1231   -0.1856 O   0  0  0  0  0  0  0  0  0  0  0  0
    2.9330   -0.8826    0.2787 N   0  0  0  0  0  0  0  0  0  0  0  0
    1.9442   -1.3019    1.2668 C   0  0  0  0  0  0  0  0  0  0  0  0
    0.7713   -2.0881    0.6558 C   0  0  0  0  0  0  0  0  0  0  0  0
    0.1115   -1.4923   -0.5112 N   0  0  0  0  0  0  0  0  0  0  0  0
    1.0835   -0.7358   -1.4010 C   0  0  2  0  0  0  0  0  0  0  0  0
    2.5704   -1.0265   -1.1268 C   0  0  0  0  0  0  0  0  0  0  0  0
    0.6744    0.6839   -1.2018 C   0  0  0  0  0  0  0  0  0  0  0  0
   -0.5715    0.7612   -0.5617 C   0  0  0  0  0  0  0  0  0  0  0  0
   -0.9083    2.0827   -0.4169 C   0  0  0  0  0  0  0  0  0  0  0  0
   -1.9536    2.6855    0.1399 O   0  0  0  0  0  0  0  0  0  0  0  0
    0.1163    2.8116   -0.9993 N   0  0  0  0  0  0  0  0  0  0  0  0
    0.1662    4.2681   -1.0773 C   0  0  0  0  0  0  0  0  0  0  0  0
   -0.4599    4.7813   -2.3511 C   0  0  0  0  0  0  0  0  0  0  0  0
   -1.8405    5.0220   -2.4235 C   0  0  0  0  0  0  0  0  0  0  0  0
   -2.4177    5.4852   -3.6082 C   0  0  0  0  0  0  0  0  0  0  0  0
   -1.6233    5.7034   -4.7326 C   0  0  0  0  0  0  0  0  0  0  0  0
   -0.2519    5.4605   -4.6743 C   0  0  0  0  0  0  0  0  0  0  0  0
    0.3269    4.9992   -3.4911 C   0  0  0  0  0  0  0  0  0  0  0  0
    1.1134    1.9595   -1.4509 C   0  0  0  0  0  0  0  0  0  0  0  0
    2.2216    2.4395   -1.9997 O   0  0  0  0  0  0  0  0  0  0  0  0
   -1.0740   -0.5946   -0.2580 C   0  0  1  0  0  0  0  0  0  0  0  0
   -2.2212   -1.0465   -1.2286 C   0  0  0  0  0  0  0  0  0  0  0  0
   -2.1660   -1.1718   -2.4462 O   0  0  0  0  0  0  0  0  0  0  0  0
   -3.3410   -1.3194   -0.4317 N   0  0  0  0  0  0  0  0  0  0  0  0
   -4.5779   -1.8574   -0.9557 C   0  0  0  0  0  0  0  0  0  0  0  0
   -4.7153   -3.3459   -0.7167 C   0  0  0  0  0  0  0  0  0  0  0  0
   -3.8099   -4.2449   -1.3016 C   0  0  0  0  0  0  0  0  0  0  0  0
   -3.9170   -5.6154   -1.0671 C   0  0  0  0  0  0  0  0  0  0  0  0
   -4.9327   -6.1034   -0.2475 C   0  0  0  0  0  0  0  0  0  0  0  0
   -5.8491   -5.2253    0.3280 C   0  0  0  0  0  0  0  0  0  0  0  0
   -5.7435   -3.8538    0.0926 C   0  0  0  0  0  0  0  0  0  0  0  0
   -3.0848   -1.0428    0.9174 C   0  0  0  0  0  0  0  0  0  0  0  0
   -3.9583   -1.1419    1.9869 C   0  0  0  0  0  0  0  0  0  0  0  0
   -3.5087   -0.7410    3.2450 C   0  0  0  0  0  0  0  0  0  0  0  0
   -2.2136   -0.2317    3.4112 C   0  0  0  0  0  0  0  0  0  0  0  0
   -1.3413   -0.1379    2.3247 C   0  0  0  0  0  0  0  0  0  0  0  0
   -1.7739   -0.5745    1.0764 C   0  0  0  0  0  0  0  0  0  0  0  0
    6.2292   -2.2044    2.4912 H   0  0  0  0  0  0  0  0  0  0  0  0
    6.8952   -1.2434    1.1792 H   0  0  0  0  0  0  0  0  0  0  0  0
    7.5775   -1.0881    2.8032 H   0  0  0  0  0  0  0  0  0  0  0  0
    4.9009   -1.0369    4.3972 H   0  0  0  0  0  0  0  0  0  0  0  0
    6.3032    0.0298    4.6612 H   0  0  0  0  0  0  0  0  0  0  0  0
    4.6883    0.7059    4.3527 H   0  0  0  0  0  0  0  0  0  0  0  0
    5.4156    2.0492    2.3039 H   0  0  0  0  0  0  0  0  0  0  0  0
    6.4903    1.3189    1.1208 H   0  0  0  0  0  0  0  0  0  0  0  0
    7.0581    1.5482    2.7669 H   0  0  0  0  0  0  0  0  0  0  0  0
    2.4416   -1.9282    2.0147 H   0  0  0  0  0  0  0  0  0  0  0  0
    1.5998   -0.3985    1.7757 H   0  0  0  0  0  0  0  0  0  0  0  0
    0.0573   -2.3735    1.4368 H   0  0  0  0  0  0  0  0  0  0  0  0
    1.1772   -3.0560    0.3194 H   0  0  0  0  0  0  0  0  0  0  0  0
    0.8623   -1.0110   -2.4401 H   0  0  0  0  0  0  0  0  0  0  0  0
    2.7990   -2.0654   -1.3980 H   0  0  0  0  0  0  0  0  0  0  0  0
    3.2142   -0.3928   -1.7477 H   0  0  0  0  0  0  0  0  0  0  0  0
   -2.5489    1.9977    0.4861 H   0  0  0  0  0  0  0  0  0  0  0  0
   -0.3466    4.6747   -0.1982 H   0  0  0  0  0  0  0  0  0  0  0  0
    1.2126    4.5830   -0.9939 H   0  0  0  0  0  0  0  0  0  0  0  0
   -2.4730    4.8395   -1.5573 H   0  0  0  0  0  0  0  0  0  0  0  0
   -3.4882    5.6688   -3.6548 H   0  0  0  0  0  0  0  0  0  0  0  0
   -2.0728    6.0577   -5.6563 H   0  0  0  0  0  0  0  0  0  0  0  0
    0.3666    5.6198   -5.5544 H   0  0  0  0  0  0  0  0  0  0  0  0
    1.3966    4.7951   -3.4617 H   0  0  0  0  0  0  0  0  0  0  0  0
    2.8005    1.6904   -2.2240 H   0  0  0  0  0  0  0  0  0  0  0  0
   -5.4146   -1.3009   -0.5165 H   0  0  0  0  0  0  0  0  0  0  0  0
   -4.6282   -1.6762   -2.0368 H   0  0  0  0  0  0  0  0  0  0  0  0
   -3.0120   -3.8774   -1.9461 H   0  0  0  0  0  0  0  0  0  0  0  0
   -3.2080   -6.2986   -1.5261 H   0  0  0  0  0  0  0  0  0  0  0  0
   -5.0169   -7.1708   -0.0617 H   0  0  0  0  0  0  0  0  0  0  0  0
   -6.6435   -5.6080    0.9647 H   0  0  0  0  0  0  0  0  0  0  0  0
   -6.4687   -3.1859    0.5492 H   0  0  0  0  0  0  0  0  0  0  0  0
   -4.9687   -1.5119    1.8666 H   0  0  0  0  0  0  0  0  0  0  0  0
   -4.1744   -0.8120    4.1030 H   0  0  0  0  0  0  0  0  0  0  0  0
   -1.8877    0.0994    4.3940 H   0  0  0  0  0  0  0  0  0  0  0  0
   -0.3549    0.2923    2.4612 H   0  0  0  0  0  0  0  0  0  0  0  0
  1  2  1  0
  2  3  1  0
  2  4  1  0
  2  5  1  0
  5  6  1  0
  6  7  2  0
  6  8  1  0
  8  9  1  0
  9 10  1  0
 10 11  1  0
 11 12  1  0
 12 13  1  0
 12 14  1  0
 14 15  1  0
 15 16  2  0
 16 17  1  0
 16 18  1  0
 18 19  1  0
 19 20  1  0
 20 21  2  0
 21 22  1  0
 22 23  2  0
 23 24  1  0
 24 25  2  0
 18 26  1  0
 26 27  1  0
 15 28  1  0
 28 29  1  0
 29 30  2  0
 29 31  1  0
 31 32  1  0
 32 33  1  0
 33 34  2  0
 34 35  1  0
 35 36  2  0
 36 37  1  0
 37 38  2  0
 31 39  1  0
 39 40  2  0
 40 41  1  0
 41 42  2  0
 42 43  1  0
 43 44  2  0
 13  8  1  0
 26 14  2  0
 44 28  1  0
 28 11  1  1
 38 33  1  0
 44 39  1  0
 25 20  1  0
  1 45  1  0
  1 46  1  0
  1 47  1  0
  3 48  1  0
  3 49  1  0
  3 50  1  0
  4 51  1  0
  4 52  1  0
  4 53  1  0
  9 54  1  0
  9 55  1  0
 10 56  1  0
 10 57  1  0
 12 58  1  6
 13 59  1  0
 13 60  1  0
 17 61  1  0
 19 62  1  0
 19 63  1  0
 21 64  1  0
 22 65  1  0
 23 66  1  0
 24 67  1  0
 25 68  1  0
 27 69  1  0
 32 70  1  0
 32 71  1  0
 34 72  1  0
 35 73  1  0
 36 74  1  0
 37 75  1  0
 38 76  1  0
 40 77  1  0
 41 78  1  0
 42 79  1  0
 43 80  1  0
M  END
$$$$
