
     RDKit          3D

 44 46  0  0  0  0  0  0  0  0999 V2000
    5.7141    1.9265   -0.3377 C   0  0  0  0  0  0  0  0  0  0  0  0
    4.4280    1.1749   -0.5520 C   0  0  0  0  0  0  0  0  0  0  0  0
    3.2289    1.7148   -0.0632 C   0  0  0  0  0  0  0  0  0  0  0  0
    2.0106    1.0552   -0.2523 C   0  0  0  0  0  0  0  0  0  0  0  0
    1.9715   -0.1596   -0.9406 C   0  0  0  0  0  0  0  0  0  0  0  0
    0.6989   -0.9121   -1.1745 C   0  0  0  0  0  0  0  0  0  0  0  0
    0.7455   -1.9968   -1.7542 O   0  0  0  0  0  0  0  0  0  0  0  0
   -0.6061   -0.2928   -0.6771 C   0  0  0  0  0  0  0  0  0  0  0  0
   -1.7455   -1.0574   -1.0718 O   0  0  0  0  0  0  0  0  0  0  0  0
   -2.2989   -1.7211   -0.0057 C   0  0  0  0  0  0  0  0  0  0  0  0
   -2.0088   -3.0847    0.0994 C   0  0  0  0  0  0  0  0  0  0  0  0
   -2.5456   -3.8305    1.1450 C   0  0  0  0  0  0  0  0  0  0  0  0
   -3.3824   -3.2165    2.0735 C   0  0  0  0  0  0  0  0  0  0  0  0
   -3.6866   -1.8562    1.9536 C   0  0  0  0  0  0  0  0  0  0  0  0
   -3.1576   -1.0768    0.9079 C   0  0  0  0  0  0  0  0  0  0  0  0
   -3.5140    0.3517    0.7996 C   0  0  0  0  0  0  0  0  0  0  0  0
   -4.0525    0.8779   -0.3865 C   0  0  0  0  0  0  0  0  0  0  0  0
   -4.3839    2.2310   -0.4911 C   0  0  0  0  0  0  0  0  0  0  0  0
   -4.1869    3.0823    0.5932 C   0  0  0  0  0  0  0  0  0  0  0  0
   -3.6579    2.5819    1.7803 C   0  0  0  0  0  0  0  0  0  0  0  0
   -3.3240    1.2289    1.8816 C   0  0  0  0  0  0  0  0  0  0  0  0
    3.1664   -0.6990   -1.4383 C   0  0  0  0  0  0  0  0  0  0  0  0
    4.3954   -0.0405   -1.2608 C   0  0  0  0  0  0  0  0  0  0  0  0
    5.6474   -0.6618   -1.8172 C   0  0  0  0  0  0  0  0  0  0  0  0
    6.0519    2.3683   -1.2806 H   0  0  0  0  0  0  0  0  0  0  0  0
    6.4910    1.2603    0.0520 H   0  0  0  0  0  0  0  0  0  0  0  0
    5.5899    2.7348    0.3919 H   0  0  0  0  0  0  0  0  0  0  0  0
    3.2358    2.6614    0.4738 H   0  0  0  0  0  0  0  0  0  0  0  0
    1.1155    1.5186    0.1511 H   0  0  0  0  0  0  0  0  0  0  0  0
   -0.5399   -0.1645    0.4108 H   0  0  0  0  0  0  0  0  0  0  0  0
   -0.7190    0.6906   -1.1457 H   0  0  0  0  0  0  0  0  0  0  0  0
   -1.3596   -3.5576   -0.6350 H   0  0  0  0  0  0  0  0  0  0  0  0
   -2.3163   -4.8895    1.2294 H   0  0  0  0  0  0  0  0  0  0  0  0
   -3.8109   -3.7981    2.8856 H   0  0  0  0  0  0  0  0  0  0  0  0
   -4.3647   -1.4077    2.6774 H   0  0  0  0  0  0  0  0  0  0  0  0
   -4.2166    0.2270   -1.2440 H   0  0  0  0  0  0  0  0  0  0  0  0
   -4.7975    2.6153   -1.4203 H   0  0  0  0  0  0  0  0  0  0  0  0
   -4.4481    4.1341    0.5132 H   0  0  0  0  0  0  0  0  0  0  0  0
   -3.5066    3.2435    2.6295 H   0  0  0  0  0  0  0  0  0  0  0  0
   -2.9044    0.8607    2.8158 H   0  0  0  0  0  0  0  0  0  0  0  0
    3.1392   -1.6460   -1.9771 H   0  0  0  0  0  0  0  0  0  0  0  0
    6.1807    0.0528   -2.4520 H   0  0  0  0  0  0  0  0  0  0  0  0
    5.4220   -1.5377   -2.4340 H   0  0  0  0  0  0  0  0  0  0  0  0
    6.3015   -0.9852   -1.0020 H   0  0  0  0  0  0  0  0  0  0  0  0
  1  2  1  0
  2  3  2  0
  3  4  1  0
  4  5  2  0
  5  6  1  0
  6  7  2  0
  6  8  1  0
  8  9  1  0
  9 10  1  0
 10 11  2  0
 11 12  1  0
 12 13  2  0
 13 14  1  0
 14 15  2  0
 15 16  1  0
 16 17  2  0
 17 18  1  0
 18 19  2  0
 19 20  1  0
 20 21  2  0
  5 22  1  0
 22 23  2  0
 23 24  1  0
 23  2  1  0
 15 10  1  0
 21 16  1  0
  1 25  1  0
  1 26  1  0
  1 27  1  0
  3 28  1  0
  4 29  1  0
  8 30  1  0
  8 31  1  0
 11 32  1  0
 12 33  1  0
 13 34  1  0
 14 35  1  0
 17 36  1  0
 18 37  1  0
 19 38  1  0
 20 39  1  0
 21 40  1  0
 22 41  1  0
 24 42  1  0
 24 43  1  0
 24 44  1  0
M  END
$$$$
