
     RDKit          3D

 49 51  0  0  0  0  0  0  0  0999 V2000
    2.2090   -1.6259   -2.5507 O   0  0  0  0  0  0  0  0  0  0  0  0
    2.3383   -1.6180   -1.3342 C   0  0  0  0  0  0  0  0  0  0  0  0
    3.2652   -2.3222   -0.6047 N   0  0  0  0  0  0  0  0  0  0  0  0
    4.3388   -3.0553   -1.2223 C   0  0  0  0  0  0  0  0  0  0  0  0
    5.6016   -2.2353   -1.2498 C   0  0  0  0  0  0  0  0  0  0  0  0
    5.8384   -1.3364   -2.2999 C   0  0  0  0  0  0  0  0  0  0  0  0
    6.9962   -0.5577   -2.3184 C   0  0  0  0  0  0  0  0  0  0  0  0
    7.9248   -0.6642   -1.2847 C   0  0  0  0  0  0  0  0  0  0  0  0
    7.6950   -1.5459   -0.2300 C   0  0  0  0  0  0  0  0  0  0  0  0
    6.5373   -2.3257   -0.2095 C   0  0  0  0  0  0  0  0  0  0  0  0
    1.4036   -0.7464   -0.4641 C   0  0  0  0  0  0  0  0  0  0  0  0
    1.5222   -0.7453    0.7534 O   0  0  0  0  0  0  0  0  0  0  0  0
    0.4906   -0.0222   -1.1968 N   0  0  0  0  0  0  0  0  0  0  0  0
   -0.5974    0.7113   -0.5719 C   0  0  0  0  0  0  0  0  0  0  0  0
   -1.8834   -0.1430   -0.3925 C   0  0  0  0  0  0  0  0  0  0  0  0
   -1.5979   -1.3344    0.3638 O   0  0  0  0  0  0  0  0  0  0  0  0
   -1.7663   -0.9716    1.7372 C   0  0  0  0  0  0  0  0  0  0  0  0
   -2.9203    0.0111    1.7378 C   0  0  0  0  0  0  0  0  0  0  0  0
   -2.9747    0.5074    0.3533 N   0  0  0  0  0  0  0  0  0  0  0  0
   -3.2736    2.1264    0.0688 S   0  0  0  0  0  6  0  0  0  0  0  0
   -3.3696    2.3155   -1.3620 O   0  0  0  0  0  0  0  0  0  0  0  0
   -2.3355    2.8889    0.8636 O   0  0  0  0  0  0  0  0  0  0  0  0
   -4.8982    2.3420    0.7501 C   0  0  0  0  0  0  0  0  0  0  0  0
   -5.9878    1.7472    0.1050 C   0  0  0  0  0  0  0  0  0  0  0  0
   -7.2707    1.9115    0.6299 C   0  0  0  0  0  0  0  0  0  0  0  0
   -7.4528    2.6706    1.7871 C   0  0  0  0  0  0  0  0  0  0  0  0
   -9.1911    2.8907    2.4970 Br  0  0  0  0  0  0  0  0  0  0  0  0
   -6.3654    3.2707    2.4252 C   0  0  0  0  0  0  0  0  0  0  0  0
   -5.0799    3.1098    1.9043 C   0  0  0  0  0  0  0  0  0  0  0  0
    3.3081   -2.1108    0.3878 H   0  0  0  0  0  0  0  0  0  0  0  0
    4.0603   -3.3592   -2.2377 H   0  0  0  0  0  0  0  0  0  0  0  0
    4.4909   -3.9704   -0.6393 H   0  0  0  0  0  0  0  0  0  0  0  0
    5.1154   -1.2378   -3.1083 H   0  0  0  0  0  0  0  0  0  0  0  0
    7.1709    0.1347   -3.1379 H   0  0  0  0  0  0  0  0  0  0  0  0
    8.8256   -0.0563   -1.2993 H   0  0  0  0  0  0  0  0  0  0  0  0
    8.4172   -1.6242    0.5785 H   0  0  0  0  0  0  0  0  0  0  0  0
    6.3705   -3.0045    0.6238 H   0  0  0  0  0  0  0  0  0  0  0  0
    0.4838   -0.1950   -2.1993 H   0  0  0  0  0  0  0  0  0  0  0  0
   -0.2441    1.0814    0.3967 H   0  0  0  0  0  0  0  0  0  0  0  0
   -0.7901    1.5745   -1.2151 H   0  0  0  0  0  0  0  0  0  0  0  0
   -2.2493   -0.4685   -1.3721 H   0  0  0  0  0  0  0  0  0  0  0  0
   -0.8445   -0.5087    2.1036 H   0  0  0  0  0  0  0  0  0  0  0  0
   -1.9702   -1.8623    2.3378 H   0  0  0  0  0  0  0  0  0  0  0  0
   -3.8625   -0.5030    1.9556 H   0  0  0  0  0  0  0  0  0  0  0  0
   -2.7710    0.7922    2.4877 H   0  0  0  0  0  0  0  0  0  0  0  0
   -5.8421    1.1610   -0.8002 H   0  0  0  0  0  0  0  0  0  0  0  0
   -8.1187    1.4494    0.1303 H   0  0  0  0  0  0  0  0  0  0  0  0
   -6.5103    3.8678    3.3224 H   0  0  0  0  0  0  0  0  0  0  0  0
   -4.2359    3.5863    2.3984 H   0  0  0  0  0  0  0  0  0  0  0  0
  1  2  2  0
  2  3  1  0
  3  4  1  0
  4  5  1  0
  5  6  2  0
  6  7  1  0
  7  8  2  0
  8  9  1  0
  9 10  2  0
  2 11  1  0
 11 12  2  0
 11 13  1  0
 13 14  1  0
 14 15  1  0
 15 16  1  0
 16 17  1  0
 17 18  1  0
 18 19  1  0
 19 20  1  0
 20 21  2  0
 20 22  2  0
 20 23  1  0
 23 24  2  0
 24 25  1  0
 25 26  2  0
 26 27  1  0
 26 28  1  0
 28 29  2  0
 10  5  1  0
 19 15  1  0
 29 23  1  0
  3 30  1  0
  4 31  1  0
  4 32  1  0
  6 33  1  0
  7 34  1  0
  8 35  1  0
  9 36  1  0
 10 37  1  0
 13 38  1  0
 14 39  1  0
 14 40  1  0
 15 41  1  0
 17 42  1  0
 17 43  1  0
 18 44  1  0
 18 45  1  0
 24 46  1  0
 25 47  1  0
 28 48  1  0
 29 49  1  0
M  END
$$$$
