
     RDKit          3D

 40 42  0  0  0  0  0  0  0  0999 V2000
    1.8828    1.9820   -2.1496 O   0  0  0  0  0  0  0  0  0  0  0  0
    2.0517    1.4271   -1.0658 C   0  0  0  0  0  0  0  0  0  0  0  0
    3.3952    1.4481   -0.3550 C   0  0  0  0  0  0  0  0  0  0  0  0
    3.8003    0.1288    0.2601 C   0  0  0  0  0  0  0  0  0  0  0  0
    3.9006   -0.0103    1.6514 C   0  0  0  0  0  0  0  0  0  0  0  0
    4.2634   -1.2351    2.2138 C   0  0  0  0  0  0  0  0  0  0  0  0
    4.5313   -2.3292    1.3930 C   0  0  0  0  0  0  0  0  0  0  0  0
    4.4390   -2.2001    0.0086 C   0  0  0  0  0  0  0  0  0  0  0  0
    4.0765   -0.9770   -0.5566 C   0  0  0  0  0  0  0  0  0  0  0  0
    1.0346    0.8019   -0.3849 N   0  0  0  0  0  0  0  0  0  0  0  0
   -0.3386    0.8158   -0.8638 C   0  0  0  0  0  0  0  0  0  0  0  0
   -1.2076   -0.2283   -0.1291 C   0  0  0  0  0  0  0  0  0  0  0  0
   -1.0794   -0.0472    1.3007 O   0  0  0  0  0  0  0  0  0  0  0  0
   -1.9427    0.9673    1.8140 C   0  0  0  0  0  0  0  0  0  0  0  0
   -3.3950    0.5355    1.6672 C   0  0  0  0  0  0  0  0  0  0  0  0
   -3.6948    0.1652    0.2394 C   0  0  0  0  0  0  0  0  0  0  0  0
   -5.0176    0.1506   -0.2220 C   0  0  0  0  0  0  0  0  0  0  0  0
   -5.3020   -0.2372   -1.5303 C   0  0  0  0  0  0  0  0  0  0  0  0
   -4.2706   -0.6258   -2.3810 C   0  0  0  0  0  0  0  0  0  0  0  0
   -2.9519   -0.6267   -1.9253 C   0  0  0  0  0  0  0  0  0  0  0  0
   -2.6481   -0.2300   -0.6131 C   0  0  0  0  0  0  0  0  0  0  0  0
    3.3539    2.2365    0.4061 H   0  0  0  0  0  0  0  0  0  0  0  0
    4.1657    1.7446   -1.0774 H   0  0  0  0  0  0  0  0  0  0  0  0
    3.6984    0.8325    2.3086 H   0  0  0  0  0  0  0  0  0  0  0  0
    4.3385   -1.3364    3.2934 H   0  0  0  0  0  0  0  0  0  0  0  0
    4.8139   -3.2823    1.8322 H   0  0  0  0  0  0  0  0  0  0  0  0
    4.6495   -3.0526   -0.6320 H   0  0  0  0  0  0  0  0  0  0  0  0
    4.0075   -0.8919   -1.6396 H   0  0  0  0  0  0  0  0  0  0  0  0
    1.1879    0.4926    0.5700 H   0  0  0  0  0  0  0  0  0  0  0  0
   -0.7158    1.8321   -0.7038 H   0  0  0  0  0  0  0  0  0  0  0  0
   -0.3327    0.6386   -1.9452 H   0  0  0  0  0  0  0  0  0  0  0  0
   -0.7885   -1.2240   -0.3223 H   0  0  0  0  0  0  0  0  0  0  0  0
   -1.7039    1.1021    2.8741 H   0  0  0  0  0  0  0  0  0  0  0  0
   -1.7477    1.9225    1.3136 H   0  0  0  0  0  0  0  0  0  0  0  0
   -4.0526    1.3442    2.0043 H   0  0  0  0  0  0  0  0  0  0  0  0
   -3.5826   -0.3485    2.2884 H   0  0  0  0  0  0  0  0  0  0  0  0
   -5.8334    0.4372    0.4377 H   0  0  0  0  0  0  0  0  0  0  0  0
   -6.3297   -0.2438   -1.8839 H   0  0  0  0  0  0  0  0  0  0  0  0
   -4.4935   -0.9341   -3.3994 H   0  0  0  0  0  0  0  0  0  0  0  0
   -2.1619   -0.9447   -2.6030 H   0  0  0  0  0  0  0  0  0  0  0  0
  1  2  2  0
  2  3  1  0
  3  4  1  0
  4  5  2  0
  5  6  1  0
  6  7  2  0
  7  8  1  0
  8  9  2  0
  2 10  1  0
 10 11  1  0
 11 12  1  0
 12 13  1  0
 13 14  1  0
 14 15  1  0
 15 16  1  0
 16 17  2  0
 17 18  1  0
 18 19  2  0
 19 20  1  0
 20 21  2  0
  9  4  1  0
 21 12  1  0
 21 16  1  0
  3 22  1  0
  3 23  1  0
  5 24  1  0
  6 25  1  0
  7 26  1  0
  8 27  1  0
  9 28  1  0
 10 29  1  0
 11 30  1  0
 11 31  1  0
 12 32  1  0
 14 33  1  0
 14 34  1  0
 15 35  1  0
 15 36  1  0
 17 37  1  0
 18 38  1  0
 19 39  1  0
 20 40  1  0
M  END
$$$$
