
     RDKit          3D

 38 40  0  0  0  0  0  0  0  0999 V2000
   -3.3896    0.4988    3.2009 C   0  0  0  0  0  0  0  0  0  0  0  0
   -2.8365    0.4777    1.8063 C   0  0  0  0  0  0  0  0  0  0  0  0
   -3.6515    0.1210    0.7236 C   0  0  0  0  0  0  0  0  0  0  0  0
   -3.1449    0.1292   -0.5776 C   0  0  0  0  0  0  0  0  0  0  0  0
   -1.8152    0.4985   -0.7958 C   0  0  0  0  0  0  0  0  0  0  0  0
   -1.1669    0.5209   -2.4525 S   0  0  0  0  0  6  0  0  0  0  0  0
   -0.1000    1.4970   -2.5077 O   0  0  0  0  0  0  0  0  0  0  0  0
   -2.2947    0.5992   -3.3589 O   0  0  0  0  0  0  0  0  0  0  0  0
   -0.5317   -1.0373   -2.6420 N   0  0  0  0  0  0  0  0  0  0  0  0
    0.4066   -1.5197   -1.6880 C   0  0  0  0  0  0  0  0  0  0  0  0
    0.0233   -2.5342   -0.8111 C   0  0  0  0  0  0  0  0  0  0  0  0
    0.9049   -2.9666    0.1805 C   0  0  0  0  0  0  0  0  0  0  0  0
    2.1649   -2.3754    0.2943 C   0  0  0  0  0  0  0  0  0  0  0  0
    3.0182   -2.8032    1.2751 O   0  0  0  0  0  0  0  0  0  0  0  0
    2.5608   -1.3526   -0.5794 C   0  0  0  0  0  0  0  0  0  0  0  0
    4.1711   -0.5841   -0.4434 S   0  0  0  0  0  0  0  0  0  0  0  0
    3.7605    1.1105   -0.3920 C   0  0  0  0  0  0  0  0  0  0  0  0
    2.6756    1.6152    0.2801 N   0  0  0  0  0  0  0  0  0  0  0  0
    2.7148    2.8932   -0.0141 C   0  0  0  0  0  0  0  0  0  0  0  0
    3.7829    3.1416   -0.8149 N   0  0  0  0  0  0  0  0  0  0  0  0
    4.4816    2.0218   -1.0543 N   0  0  0  0  0  0  0  0  0  0  0  0
    1.6715   -0.9434   -1.5841 C   0  0  0  0  0  0  0  0  0  0  0  0
   -1.0027    0.8905    0.2704 C   0  0  0  0  0  0  0  0  0  0  0  0
   -1.5138    0.8750    1.5682 C   0  0  0  0  0  0  0  0  0  0  0  0
   -4.2247   -0.2023    3.3040 H   0  0  0  0  0  0  0  0  0  0  0  0
   -2.6246    0.2004    3.9251 H   0  0  0  0  0  0  0  0  0  0  0  0
   -3.7418    1.5045    3.4480 H   0  0  0  0  0  0  0  0  0  0  0  0
   -4.6898   -0.1606    0.8886 H   0  0  0  0  0  0  0  0  0  0  0  0
   -3.7924   -0.1435   -1.4074 H   0  0  0  0  0  0  0  0  0  0  0  0
   -1.2309   -1.6868   -2.9985 H   0  0  0  0  0  0  0  0  0  0  0  0
   -0.9640   -2.9830   -0.8768 H   0  0  0  0  0  0  0  0  0  0  0  0
    0.5929   -3.7564    0.8572 H   0  0  0  0  0  0  0  0  0  0  0  0
    2.5614   -3.4329    1.8546 H   0  0  0  0  0  0  0  0  0  0  0  0
    2.0196    3.6559    0.3052 H   0  0  0  0  0  0  0  0  0  0  0  0
    4.0875    4.0168   -1.2257 H   0  0  0  0  0  0  0  0  0  0  0  0
    1.9612   -0.1600   -2.2812 H   0  0  0  0  0  0  0  0  0  0  0  0
    0.0275    1.1978    0.1029 H   0  0  0  0  0  0  0  0  0  0  0  0
   -0.8712    1.1764    2.3928 H   0  0  0  0  0  0  0  0  0  0  0  0
  1  2  1  0
  2  3  2  0
  3  4  1  0
  4  5  2  0
  5  6  1  0
  6  7  2  0
  6  8  2  0
  6  9  1  0
  9 10  1  0
 10 11  2  0
 11 12  1  0
 12 13  2  0
 13 14  1  0
 13 15  1  0
 15 16  1  0
 16 17  1  0
 17 18  1  0
 18 19  2  0
 19 20  1  0
 20 21  1  0
 15 22  2  0
  5 23  1  0
 23 24  2  0
 24  2  1  0
 22 10  1  0
 21 17  2  0
  1 25  1  0
  1 26  1  0
  1 27  1  0
  3 28  1  0
  4 29  1  0
  9 30  1  0
 11 31  1  0
 12 32  1  0
 14 33  1  0
 19 34  1  0
 20 35  1  0
 22 36  1  0
 23 37  1  0
 24 38  1  0
M  END
$$$$
