
     RDKit          3D

 42 44  0  0  0  0  0  0  0  0999 V2000
    3.5116   -2.9144    1.6822 C   0  0  0  0  0  0  0  0  0  0  0  0
    4.4035   -2.1818    0.8503 O   0  0  0  0  0  0  0  0  0  0  0  0
    3.8963   -1.0874    0.2047 C   0  0  0  0  0  0  0  0  0  0  0  0
    4.7834   -0.4653   -0.6787 C   0  0  0  0  0  0  0  0  0  0  0  0
    4.4101    0.6696   -1.4031 C   0  0  0  0  0  0  0  0  0  0  0  0
    5.3825    1.1745   -2.2216 O   0  0  0  0  0  0  0  0  0  0  0  0
    5.0744    2.3739   -2.9224 C   0  0  0  0  0  0  0  0  0  0  0  0
    3.1231    1.1795   -1.2507 C   0  0  0  0  0  0  0  0  0  0  0  0
    2.2176    0.5569   -0.3774 C   0  0  0  0  0  0  0  0  0  0  0  0
    0.8475    1.1430   -0.2558 C   0  0  0  0  0  0  0  0  0  0  0  0
    0.7282    2.3487   -0.4360 O   0  0  0  0  0  0  0  0  0  0  0  0
   -0.1482    0.2270    0.0181 N   0  0  0  0  0  0  0  0  0  0  0  0
   -1.4993    0.4731    0.2214 C   0  0  0  0  0  0  0  0  0  0  0  0
   -2.1349    2.0618    0.1846 S   0  0  0  0  0  0  0  0  0  0  0  0
   -3.6633    1.4886    0.5145 C   0  0  0  0  0  0  0  0  0  0  0  0
   -3.7366    0.1300    0.6552 C   0  0  0  0  0  0  0  0  0  0  0  0
   -2.4707   -0.5039    0.4740 C   0  0  0  0  0  0  0  0  0  0  0  0
   -2.1332   -1.9240    0.5421 C   0  0  0  0  0  0  0  0  0  0  0  0
   -3.1727   -2.8068    0.5269 N   0  0  0  0  0  0  0  0  0  0  0  0
   -0.9747   -2.3362    0.5750 O   0  0  0  0  0  0  0  0  0  0  0  0
   -5.1304   -0.2801    0.9743 C   0  0  0  0  0  0  0  0  0  0  0  0
   -5.8107    1.0744    1.3444 C   0  0  0  0  0  0  0  0  0  0  0  0
   -4.9510    2.1975    0.6947 C   0  0  0  0  0  0  0  0  0  0  0  0
    2.6134   -0.5662    0.3652 C   0  0  0  0  0  0  0  0  0  0  0  0
    2.6496   -3.2803    1.1149 H   0  0  0  0  0  0  0  0  0  0  0  0
    3.1941   -2.3140    2.5409 H   0  0  0  0  0  0  0  0  0  0  0  0
    4.0516   -3.7852    2.0659 H   0  0  0  0  0  0  0  0  0  0  0  0
    5.7862   -0.8689   -0.8003 H   0  0  0  0  0  0  0  0  0  0  0  0
    4.2552    2.2159   -3.6315 H   0  0  0  0  0  0  0  0  0  0  0  0
    5.9607    2.6626   -3.4958 H   0  0  0  0  0  0  0  0  0  0  0  0
    4.8468    3.1903   -2.2289 H   0  0  0  0  0  0  0  0  0  0  0  0
    2.7919    2.0568   -1.7986 H   0  0  0  0  0  0  0  0  0  0  0  0
    0.0946   -0.7610    0.0565 H   0  0  0  0  0  0  0  0  0  0  0  0
   -2.9268   -3.7840    0.4457 H   0  0  0  0  0  0  0  0  0  0  0  0
   -4.0967   -2.5297    0.2352 H   0  0  0  0  0  0  0  0  0  0  0  0
   -5.6115   -0.7168    0.0924 H   0  0  0  0  0  0  0  0  0  0  0  0
   -5.1852   -0.9849    1.8086 H   0  0  0  0  0  0  0  0  0  0  0  0
   -5.7919    1.1959    2.4359 H   0  0  0  0  0  0  0  0  0  0  0  0
   -6.8580    1.1146    1.0287 H   0  0  0  0  0  0  0  0  0  0  0  0
   -5.3722    2.4918   -0.2721 H   0  0  0  0  0  0  0  0  0  0  0  0
   -4.8812    3.0715    1.3482 H   0  0  0  0  0  0  0  0  0  0  0  0
    1.9267   -1.0070    1.0792 H   0  0  0  0  0  0  0  0  0  0  0  0
  1  2  1  0
  2  3  1  0
  3  4  2  0
  4  5  1  0
  5  6  1  0
  6  7  1  0
  5  8  2  0
  8  9  1  0
  9 10  1  0
 10 11  2  0
 10 12  1  0
 12 13  1  0
 13 14  1  0
 14 15  1  0
 15 16  2  0
 16 17  1  0
 17 18  1  0
 18 19  1  0
 18 20  2  0
 16 21  1  0
 21 22  1  0
 22 23  1  0
  9 24  2  0
 24  3  1  0
 17 13  2  0
 23 15  1  0
  1 25  1  0
  1 26  1  0
  1 27  1  0
  4 28  1  0
  7 29  1  0
  7 30  1  0
  7 31  1  0
  8 32  1  0
 12 33  1  0
 19 34  1  0
 19 35  1  0
 21 36  1  0
 21 37  1  0
 22 38  1  0
 22 39  1  0
 23 40  1  0
 23 41  1  0
 24 42  1  0
M  END
$$$$
