
     RDKit          3D

 33 34  0  0  0  0  0  0  0  0999 V2000
   -1.7275    4.2217    0.3056 C   0  0  0  0  0  0  0  0  0  0  0  0
   -0.9665    3.0338    0.0869 O   0  0  0  0  0  0  0  0  0  0  0  0
   -0.4859    2.4850    1.2279 C   0  0  0  0  0  0  0  0  0  0  0  0
   -0.5304    2.9420    2.3561 O   0  0  0  0  0  0  0  0  0  0  0  0
    0.2645    1.2757    0.8706 C   0  0  0  0  0  0  0  0  0  0  0  0
    1.6300    1.2927    1.1477 C   0  0  0  0  0  0  0  0  0  0  0  0
    2.3691    0.1993    0.7615 C   0  0  0  0  0  0  0  0  0  0  0  0
    3.7192    0.2419    1.0337 O   0  0  0  0  0  0  0  0  0  0  0  0
    4.4158   -0.9311    0.6243 C   0  0  0  0  0  0  0  0  0  0  0  0
    1.8391   -0.8682    0.1314 N   0  0  0  0  0  0  0  0  0  0  0  0
    0.5035   -0.8777   -0.1147 C   0  0  0  0  0  0  0  0  0  0  0  0
   -0.3228    0.1656    0.2578 C   0  0  0  0  0  0  0  0  0  0  0  0
   -1.7666    0.0239    0.0364 C   0  0  0  0  0  0  0  0  0  0  0  0
   -2.5507    0.7810    0.5995 O   0  0  0  0  0  0  0  0  0  0  0  0
   -2.1712   -1.0231   -0.7776 N   0  0  0  0  0  0  0  0  0  0  0  0
   -3.5887   -1.1328   -1.0738 C   0  0  0  0  0  0  0  0  0  0  0  0
   -1.3649   -2.0995   -1.1221 C   0  0  0  0  0  0  0  0  0  0  0  0
   -1.8208   -3.0914   -1.6941 O   0  0  0  0  0  0  0  0  0  0  0  0
   -0.0321   -2.0037   -0.7720 N   0  0  0  0  0  0  0  0  0  0  0  0
    0.8850   -3.0832   -1.1094 C   0  0  0  0  0  0  0  0  0  0  0  0
   -1.0870    5.0162    0.7009 H   0  0  0  0  0  0  0  0  0  0  0  0
   -2.1310    4.5477   -0.6570 H   0  0  0  0  0  0  0  0  0  0  0  0
   -2.5649    4.0256    0.9830 H   0  0  0  0  0  0  0  0  0  0  0  0
    2.1013    2.1379    1.6386 H   0  0  0  0  0  0  0  0  0  0  0  0
    4.0420   -1.8176    1.1484 H   0  0  0  0  0  0  0  0  0  0  0  0
    5.4689   -0.8043    0.8932 H   0  0  0  0  0  0  0  0  0  0  0  0
    4.3624   -1.0646   -0.4617 H   0  0  0  0  0  0  0  0  0  0  0  0
   -3.7429   -1.6067   -2.0481 H   0  0  0  0  0  0  0  0  0  0  0  0
   -4.0667   -0.1488   -1.0829 H   0  0  0  0  0  0  0  0  0  0  0  0
   -4.0571   -1.7506   -0.3009 H   0  0  0  0  0  0  0  0  0  0  0  0
    1.6466   -2.7087   -1.8014 H   0  0  0  0  0  0  0  0  0  0  0  0
    0.3711   -3.9195   -1.5913 H   0  0  0  0  0  0  0  0  0  0  0  0
    1.3593   -3.4581   -0.1964 H   0  0  0  0  0  0  0  0  0  0  0  0
  1  2  1  0
  2  3  1  0
  3  4  2  0
  3  5  1  0
  5  6  2  0
  6  7  1  0
  7  8  1  0
  8  9  1  0
  7 10  2  0
 10 11  1  0
 11 12  2  0
 12 13  1  0
 13 14  2  0
 13 15  1  0
 15 16  1  0
 15 17  1  0
 17 18  2  0
 17 19  1  0
 19 20  1  0
 12  5  1  0
 19 11  1  0
  1 21  1  0
  1 22  1  0
  1 23  1  0
  6 24  1  0
  9 25  1  0
  9 26  1  0
  9 27  1  0
 16 28  1  0
 16 29  1  0
 16 30  1  0
 20 31  1  0
 20 32  1  0
 20 33  1  0
M  END
$$$$
