
     RDKit          3D

 54 57  0  0  0  0  0  0  0  0999 V2000
   -3.4722   -3.3665   -2.4747 C   0  0  0  0  0  0  0  0  0  0  0  0
   -2.7391   -2.2058   -2.8500 O   0  0  0  0  0  0  0  0  0  0  0  0
   -2.4194   -1.3266   -1.8521 C   0  0  0  0  0  0  0  0  0  0  0  0
   -1.7448   -0.1779   -2.2822 C   0  0  0  0  0  0  0  0  0  0  0  0
   -1.3497    0.8016   -1.3693 C   0  0  0  0  0  0  0  0  0  0  0  0
   -1.6109    0.6141   -0.0114 C   0  0  0  0  0  0  0  0  0  0  0  0
   -1.2268    1.6435    0.9803 C   0  0  0  0  0  0  0  0  0  0  0  0
   -2.1869    2.3316    1.5119 N   0  0  0  0  0  0  0  0  0  0  0  0
   -1.8728    3.3172    2.4514 C   0  0  0  0  0  0  0  0  0  0  0  0
   -2.9053    4.0883    2.9907 C   0  0  0  0  0  0  0  0  0  0  0  0
   -2.6343    5.0804    3.9375 C   0  0  0  0  0  0  0  0  0  0  0  0
   -1.3233    5.3083    4.3546 C   0  0  0  0  0  0  0  0  0  0  0  0
   -0.2848    4.5444    3.8233 C   0  0  0  0  0  0  0  0  0  0  0  0
   -0.5692    3.5553    2.8734 C   0  0  0  0  0  0  0  0  0  0  0  0
    0.4981    2.7240    2.2950 C   0  0  0  0  0  0  0  0  0  0  0  0
    1.6490    2.8491    2.7084 O   0  0  0  0  0  0  0  0  0  0  0  0
    0.1171    1.8108    1.3100 N   0  0  0  0  0  0  0  0  0  0  0  0
    1.1917    0.9601    0.7809 C   0  0  0  0  0  0  0  0  0  0  0  0
    1.4017   -0.3066    1.6217 C   0  0  0  0  0  0  0  0  0  0  0  0
    2.4983   -1.0975    1.1462 O   0  0  0  0  0  0  0  0  0  0  0  0
    2.3328   -1.6705   -0.0872 C   0  0  0  0  0  0  0  0  0  0  0  0
    1.1635   -2.3294   -0.4689 C   0  0  0  0  0  0  0  0  0  0  0  0
    1.0529   -2.8815   -1.7469 C   0  0  0  0  0  0  0  0  0  0  0  0
    2.1196   -2.8081   -2.6456 C   0  0  0  0  0  0  0  0  0  0  0  0
    1.9931   -3.3704   -4.0303 C   0  0  0  0  0  0  0  0  0  0  0  0
    3.2992   -2.1647   -2.2500 C   0  0  0  0  0  0  0  0  0  0  0  0
    3.4222   -1.6057   -0.9687 C   0  0  0  0  0  0  0  0  0  0  0  0
    4.6984   -0.9222   -0.5656 C   0  0  0  0  0  0  0  0  0  0  0  0
   -2.3077   -0.5148    0.4274 C   0  0  0  0  0  0  0  0  0  0  0  0
   -2.7055   -1.4887   -0.4939 C   0  0  0  0  0  0  0  0  0  0  0  0
   -2.8830   -4.0022   -1.8044 H   0  0  0  0  0  0  0  0  0  0  0  0
   -3.6786   -3.9407   -3.3838 H   0  0  0  0  0  0  0  0  0  0  0  0
   -4.4352   -3.0993   -2.0240 H   0  0  0  0  0  0  0  0  0  0  0  0
   -1.5310   -0.0454   -3.3407 H   0  0  0  0  0  0  0  0  0  0  0  0
   -0.8462    1.6982   -1.7203 H   0  0  0  0  0  0  0  0  0  0  0  0
   -3.9282    3.9117    2.6672 H   0  0  0  0  0  0  0  0  0  0  0  0
   -3.4481    5.6730    4.3481 H   0  0  0  0  0  0  0  0  0  0  0  0
   -1.1109    6.0788    5.0916 H   0  0  0  0  0  0  0  0  0  0  0  0
    0.7391    4.7178    4.1463 H   0  0  0  0  0  0  0  0  0  0  0  0
    0.9917    0.7026   -0.2606 H   0  0  0  0  0  0  0  0  0  0  0  0
    2.1304    1.5282    0.7534 H   0  0  0  0  0  0  0  0  0  0  0  0
    1.6610   -0.0142    2.6463 H   0  0  0  0  0  0  0  0  0  0  0  0
    0.4879   -0.9020    1.7148 H   0  0  0  0  0  0  0  0  0  0  0  0
    0.3277   -2.4387    0.2134 H   0  0  0  0  0  0  0  0  0  0  0  0
    0.1253   -3.3721   -2.0346 H   0  0  0  0  0  0  0  0  0  0  0  0
    1.1997   -4.1244   -4.0807 H   0  0  0  0  0  0  0  0  0  0  0  0
    2.9254   -3.8593   -4.3324 H   0  0  0  0  0  0  0  0  0  0  0  0
    1.7608   -2.5703   -4.7402 H   0  0  0  0  0  0  0  0  0  0  0  0
    4.1319   -2.1006   -2.9476 H   0  0  0  0  0  0  0  0  0  0  0  0
    5.0971   -1.3703    0.3506 H   0  0  0  0  0  0  0  0  0  0  0  0
    5.4673   -1.0173   -1.3395 H   0  0  0  0  0  0  0  0  0  0  0  0
    4.5186    0.1446   -0.4004 H   0  0  0  0  0  0  0  0  0  0  0  0
   -2.5480   -0.6340    1.4815 H   0  0  0  0  0  0  0  0  0  0  0  0
   -3.2396   -2.3561   -0.1198 H   0  0  0  0  0  0  0  0  0  0  0  0
  1  2  1  0
  2  3  1  0
  3  4  2  0
  4  5  1  0
  5  6  2  0
  6  7  1  0
  7  8  2  0
  8  9  1  0
  9 10  2  0
 10 11  1  0
 11 12  2  0
 12 13  1  0
 13 14  2  0
 14 15  1  0
 15 16  2  0
 15 17  1  0
 17 18  1  0
 18 19  1  0
 19 20  1  0
 20 21  1  0
 21 22  2  0
 22 23  1  0
 23 24  2  0
 24 25  1  0
 24 26  1  0
 26 27  2  0
 27 28  1  0
  6 29  1  0
 29 30  2  0
 30  3  1  0
 17  7  1  0
 27 21  1  0
 14  9  1  0
  1 31  1  0
  1 32  1  0
  1 33  1  0
  4 34  1  0
  5 35  1  0
 10 36  1  0
 11 37  1  0
 12 38  1  0
 13 39  1  0
 18 40  1  0
 18 41  1  0
 19 42  1  0
 19 43  1  0
 22 44  1  0
 23 45  1  0
 25 46  1  0
 25 47  1  0
 25 48  1  0
 26 49  1  0
 28 50  1  0
 28 51  1  0
 28 52  1  0
 29 53  1  0
 30 54  1  0
M  END
$$$$
