
     RDKit          3D

 72 77  0  0  0  0  0  0  0  0999 V2000
  -10.4433    0.8871   -0.0094 C   0  0  0  0  0  0  0  0  0  0  0  0
   -9.0866    0.4465   -0.4723 C   0  0  0  0  0  0  0  0  0  0  0  0
   -8.7585    0.4563   -1.8275 C   0  0  0  0  0  0  0  0  0  0  0  0
   -7.4988    0.0296   -2.2503 C   0  0  0  0  0  0  0  0  0  0  0  0
   -6.5435   -0.4377   -1.3323 C   0  0  0  0  0  0  0  0  0  0  0  0
   -5.1944   -0.8507   -1.8543 C   0  0  0  0  0  0  0  0  0  0  0  0
   -6.8692   -0.4687    0.0400 C   0  0  0  0  0  0  0  0  0  0  0  0
   -5.9049   -0.9400    1.1081 C   0  0  0  0  0  0  0  0  0  0  0  0
   -5.1269    0.1500    1.6623 N   0  0  0  0  0  0  0  0  0  0  0  0
   -5.6668    1.0007    2.5725 N   0  0  0  0  0  0  0  0  0  0  0  0
   -4.7206    1.8676    2.9319 N   0  0  0  0  0  0  0  0  0  0  0  0
   -3.5843    1.5222    2.2694 C   0  0  0  0  0  0  0  0  0  0  0  0
   -2.2687    2.1022    2.2912 C   0  0  0  0  0  0  0  0  0  0  0  0
   -1.9320    3.0836    2.9426 O   0  0  0  0  0  0  0  0  0  0  0  0
   -1.3854    1.4123    1.4697 N   0  0  0  0  0  0  0  0  0  0  0  0
   -1.7221    0.2956    0.7162 C   0  0  0  0  0  0  0  0  0  0  0  0
   -0.6115   -0.3359   -0.1201 C   0  0  0  0  0  0  0  0  0  0  0  0
    0.4060   -1.0629    0.7643 C   0  0  0  0  0  0  0  0  0  0  0  0
    1.3389   -0.1307    1.5413 C   0  0  0  0  0  0  0  0  0  0  0  0
    1.4803    1.1811    0.8547 N   0  0  0  0  0  0  0  0  0  0  0  0
    2.6328    2.2569    1.5296 S   0  0  0  0  0  6  0  0  0  0  0  0
    2.5448    3.5021    0.8001 O   0  0  0  0  0  0  0  0  0  0  0  0
    2.4691    2.2077    2.9657 O   0  0  0  0  0  0  0  0  0  0  0  0
    4.1958    1.5024    1.1303 C   0  0  0  0  0  0  0  0  0  0  0  0
    4.8090    1.7914   -0.0945 C   0  0  0  0  0  0  0  0  0  0  0  0
    6.0378    1.2071   -0.4045 C   0  0  0  0  0  0  0  0  0  0  0  0
    6.6474    0.3491    0.5185 C   0  0  0  0  0  0  0  0  0  0  0  0
    8.2177   -0.3825    0.1195 S   0  0  0  0  0  6  0  0  0  0  0  0
    8.9102    0.5168   -0.7761 O   0  0  0  0  0  0  0  0  0  0  0  0
    8.8162   -0.8656    1.3445 O   0  0  0  0  0  0  0  0  0  0  0  0
    7.7021   -1.7659   -0.7315 N   0  0  0  0  0  0  0  0  0  0  0  0
    8.4596   -2.0450   -1.9618 C   0  0  0  0  0  0  0  0  0  0  0  0
    9.6782   -2.9212   -1.9473 C   0  0  0  0  0  0  0  0  0  0  0  0
    8.4095   -3.4125   -2.5839 C   0  0  0  0  0  0  0  0  0  0  0  0
    6.0579    0.0960    1.7618 C   0  0  0  0  0  0  0  0  0  0  0  0
    4.8278    0.6789    2.0704 C   0  0  0  0  0  0  0  0  0  0  0  0
    1.4591    1.0770   -0.6206 C   0  0  0  0  0  0  0  0  0  0  0  0
    0.0506    0.6832   -1.0603 C   0  0  0  0  0  0  0  0  0  0  0  0
   -2.9116   -0.2412    0.6963 N   0  0  0  0  0  0  0  0  0  0  0  0
   -3.8007    0.4195    1.4783 C   0  0  0  0  0  0  0  0  0  0  0  0
   -8.1440   -0.0243    0.4485 C   0  0  0  0  0  0  0  0  0  0  0  0
  -11.1071    0.0214    0.0786 H   0  0  0  0  0  0  0  0  0  0  0  0
  -10.8864    1.6007   -0.7121 H   0  0  0  0  0  0  0  0  0  0  0  0
  -10.3781    1.3875    0.9625 H   0  0  0  0  0  0  0  0  0  0  0  0
   -9.4767    0.8072   -2.5646 H   0  0  0  0  0  0  0  0  0  0  0  0
   -7.2667    0.0674   -3.3129 H   0  0  0  0  0  0  0  0  0  0  0  0
   -4.4434   -0.1033   -1.5860 H   0  0  0  0  0  0  0  0  0  0  0  0
   -4.9038   -1.8301   -1.4643 H   0  0  0  0  0  0  0  0  0  0  0  0
   -5.1992   -0.9373   -2.9463 H   0  0  0  0  0  0  0  0  0  0  0  0
   -6.4486   -1.4067    1.9392 H   0  0  0  0  0  0  0  0  0  0  0  0
   -5.2201   -1.7051    0.7310 H   0  0  0  0  0  0  0  0  0  0  0  0
   -0.4431    1.7885    1.4407 H   0  0  0  0  0  0  0  0  0  0  0  0
   -1.1044   -1.0911   -0.7484 H   0  0  0  0  0  0  0  0  0  0  0  0
    1.0208   -1.7037    0.1176 H   0  0  0  0  0  0  0  0  0  0  0  0
   -0.0977   -1.7384    1.4663 H   0  0  0  0  0  0  0  0  0  0  0  0
    0.9200    0.0431    2.5389 H   0  0  0  0  0  0  0  0  0  0  0  0
    2.3080   -0.6216    1.6635 H   0  0  0  0  0  0  0  0  0  0  0  0
    4.3446    2.4745   -0.8033 H   0  0  0  0  0  0  0  0  0  0  0  0
    6.5182    1.4289   -1.3559 H   0  0  0  0  0  0  0  0  0  0  0  0
    7.7362   -2.5532   -0.0791 H   0  0  0  0  0  0  0  0  0  0  0  0
    8.4509   -1.2066   -2.6558 H   0  0  0  0  0  0  0  0  0  0  0  0
   10.5024   -2.6435   -2.5946 H   0  0  0  0  0  0  0  0  0  0  0  0
    9.9866   -3.3643   -1.0084 H   0  0  0  0  0  0  0  0  0  0  0  0
    8.3785   -3.4765   -3.6652 H   0  0  0  0  0  0  0  0  0  0  0  0
    7.8554   -4.1937   -2.0783 H   0  0  0  0  0  0  0  0  0  0  0  0
    6.5504   -0.5417    2.4937 H   0  0  0  0  0  0  0  0  0  0  0  0
    4.3748    0.4942    3.0429 H   0  0  0  0  0  0  0  0  0  0  0  0
    2.1863    0.3263   -0.9515 H   0  0  0  0  0  0  0  0  0  0  0  0
    1.7198    2.0255   -1.0993 H   0  0  0  0  0  0  0  0  0  0  0  0
    0.1158    0.2617   -2.0715 H   0  0  0  0  0  0  0  0  0  0  0  0
   -0.5708    1.5828   -1.1522 H   0  0  0  0  0  0  0  0  0  0  0  0
   -8.4001   -0.0309    1.5085 H   0  0  0  0  0  0  0  0  0  0  0  0
  1  2  1  0
  2  3  2  0
  3  4  1  0
  4  5  2  0
  5  6  1  0
  5  7  1  0
  7  8  1  0
  8  9  1  0
  9 10  1  0
 10 11  2  0
 11 12  1  0
 12 13  1  0
 13 14  2  0
 13 15  1  0
 15 16  1  0
 16 17  1  0
 17 18  1  0
 18 19  1  0
 19 20  1  0
 20 21  1  0
 21 22  2  0
 21 23  2  0
 21 24  1  0
 24 25  2  0
 25 26  1  0
 26 27  2  0
 27 28  1  0
 28 29  2  0
 28 30  2  0
 28 31  1  0
 31 32  1  0
 32 33  1  0
 33 34  1  0
 27 35  1  0
 35 36  2  0
 20 37  1  0
 37 38  1  0
 16 39  2  0
 39 40  1  0
  7 41  2  0
 41  2  1  0
 40  9  1  0
 40 12  2  0
 38 17  1  0
 36 24  1  0
 34 32  1  0
  1 42  1  0
  1 43  1  0
  1 44  1  0
  3 45  1  0
  4 46  1  0
  6 47  1  0
  6 48  1  0
  6 49  1  0
  8 50  1  0
  8 51  1  0
 15 52  1  0
 17 53  1  0
 18 54  1  0
 18 55  1  0
 19 56  1  0
 19 57  1  0
 25 58  1  0
 26 59  1  0
 31 60  1  0
 32 61  1  0
 33 62  1  0
 33 63  1  0
 34 64  1  0
 34 65  1  0
 35 66  1  0
 36 67  1  0
 37 68  1  0
 37 69  1  0
 38 70  1  0
 38 71  1  0
 41 72  1  0
M  END
$$$$
