
     RDKit          3D

 54 57  0  0  0  0  0  0  0  0999 V2000
   -5.8166   -1.2190    2.6894 C   0  0  0  0  0  0  0  0  0  0  0  0
   -5.4771   -0.4584    1.4416 C   0  0  0  0  0  0  0  0  0  0  0  0
   -6.4142    0.3993    0.8661 C   0  0  0  0  0  0  0  0  0  0  0  0
   -6.0940    1.1218   -0.2820 C   0  0  0  0  0  0  0  0  0  0  0  0
   -4.8218    1.0208   -0.8700 C   0  0  0  0  0  0  0  0  0  0  0  0
   -4.5433    1.8168   -2.1188 C   0  0  0  0  0  0  0  0  0  0  0  0
   -3.8537    0.1629   -0.2986 C   0  0  0  0  0  0  0  0  0  0  0  0
   -2.5010    0.0124   -0.8638 C   0  0  0  0  0  0  0  0  0  0  0  0
   -1.3625    0.2640   -0.1200 C   0  0  0  0  0  0  0  0  0  0  0  0
   -0.1230    0.1020   -0.7373 C   0  0  0  0  0  0  0  0  0  0  0  0
    1.0719    0.3239    0.1069 C   0  0  0  0  0  0  0  0  0  0  0  0
    1.1703    1.3751    0.7274 O   0  0  0  0  0  0  0  0  0  0  0  0
    1.9081   -0.7694    0.1911 N   0  0  0  0  0  0  0  0  0  0  0  0
    3.1300   -0.7394    0.8214 C   0  0  0  0  0  0  0  0  0  0  0  0
    3.6318   -2.2711    1.3428 S   0  0  0  0  0  0  0  0  0  0  0  0
    5.0167   -1.6304    2.1151 C   0  0  0  0  0  0  0  0  0  0  0  0
    5.9142   -2.5556    2.8702 C   0  0  0  0  0  0  0  0  0  0  0  0
    5.1398   -0.2625    1.9096 C   0  0  0  0  0  0  0  0  0  0  0  0
    6.2724    0.5845    2.4049 C   0  0  0  0  0  0  0  0  0  0  0  0
    4.0426    0.2541    1.1040 C   0  0  0  0  0  0  0  0  0  0  0  0
    3.9514    1.6083    0.5763 C   0  0  0  0  0  0  0  0  0  0  0  0
    3.9345    2.5940    1.5240 N   0  0  0  0  0  0  0  0  0  0  0  0
    3.9111    1.8629   -0.6221 O   0  0  0  0  0  0  0  0  0  0  0  0
   -0.0235   -0.2582   -2.0991 C   0  0  0  0  0  0  0  0  0  0  0  0
    1.1881   -0.3567   -2.8320 C   0  0  0  0  0  0  0  0  0  0  0  0
    1.1876   -0.7276   -4.1753 C   0  0  0  0  0  0  0  0  0  0  0  0
   -0.0169   -0.9980   -4.8073 C   0  0  0  0  0  0  0  0  0  0  0  0
   -1.2130   -0.8802   -4.0956 C   0  0  0  0  0  0  0  0  0  0  0  0
   -1.2409   -0.5062   -2.7589 C   0  0  0  0  0  0  0  0  0  0  0  0
   -2.4361   -0.3890   -2.1564 N   0  0  0  0  0  0  0  0  0  0  0  0
   -4.2053   -0.5624    0.8612 C   0  0  0  0  0  0  0  0  0  0  0  0
   -5.1399   -2.0685    2.8336 H   0  0  0  0  0  0  0  0  0  0  0  0
   -6.8343   -1.6184    2.6319 H   0  0  0  0  0  0  0  0  0  0  0  0
   -5.7377   -0.5639    3.5621 H   0  0  0  0  0  0  0  0  0  0  0  0
   -7.4042    0.5047    1.3033 H   0  0  0  0  0  0  0  0  0  0  0  0
   -6.8475    1.7758   -0.7174 H   0  0  0  0  0  0  0  0  0  0  0  0
   -5.2854    2.6119   -2.2543 H   0  0  0  0  0  0  0  0  0  0  0  0
   -3.5653    2.3065   -2.0648 H   0  0  0  0  0  0  0  0  0  0  0  0
   -4.5855    1.1679   -2.9995 H   0  0  0  0  0  0  0  0  0  0  0  0
   -1.4280    0.5884    0.9134 H   0  0  0  0  0  0  0  0  0  0  0  0
    1.5563   -1.6825   -0.0707 H   0  0  0  0  0  0  0  0  0  0  0  0
    5.6606   -2.5407    3.9351 H   0  0  0  0  0  0  0  0  0  0  0  0
    5.8314   -3.5877    2.5127 H   0  0  0  0  0  0  0  0  0  0  0  0
    6.9649   -2.2662    2.7607 H   0  0  0  0  0  0  0  0  0  0  0  0
    7.1453   -0.0130    2.6791 H   0  0  0  0  0  0  0  0  0  0  0  0
    5.9585    1.1540    3.2860 H   0  0  0  0  0  0  0  0  0  0  0  0
    6.5984    1.2884    1.6325 H   0  0  0  0  0  0  0  0  0  0  0  0
    3.6289    3.4856    1.1558 H   0  0  0  0  0  0  0  0  0  0  0  0
    3.5527    2.3431    2.4263 H   0  0  0  0  0  0  0  0  0  0  0  0
    2.1456   -0.1175   -2.3690 H   0  0  0  0  0  0  0  0  0  0  0  0
    2.1240   -0.7937   -4.7238 H   0  0  0  0  0  0  0  0  0  0  0  0
   -0.0344   -1.2864   -5.8551 H   0  0  0  0  0  0  0  0  0  0  0  0
   -2.1553   -1.0774   -4.6025 H   0  0  0  0  0  0  0  0  0  0  0  0
   -3.4766   -1.2348    1.3100 H   0  0  0  0  0  0  0  0  0  0  0  0
  1  2  1  0
  2  3  2  0
  3  4  1  0
  4  5  2  0
  5  6  1  0
  5  7  1  0
  7  8  1  0
  8  9  2  0
  9 10  1  0
 10 11  1  0
 11 12  2  0
 11 13  1  0
 13 14  1  0
 14 15  1  0
 15 16  1  0
 16 17  1  0
 16 18  2  0
 18 19  1  0
 18 20  1  0
 20 21  1  0
 21 22  1  0
 21 23  2  0
 10 24  2  0
 24 25  1  0
 25 26  2  0
 26 27  1  0
 27 28  2  0
 28 29  1  0
 29 30  2  0
  7 31  2  0
 31  2  1  0
 30  8  1  0
 20 14  2  0
 29 24  1  0
  1 32  1  0
  1 33  1  0
  1 34  1  0
  3 35  1  0
  4 36  1  0
  6 37  1  0
  6 38  1  0
  6 39  1  0
  9 40  1  0
 13 41  1  0
 17 42  1  0
 17 43  1  0
 17 44  1  0
 19 45  1  0
 19 46  1  0
 19 47  1  0
 22 48  1  0
 22 49  1  0
 25 50  1  0
 26 51  1  0
 27 52  1  0
 28 53  1  0
 31 54  1  0
M  END
$$$$
