
     RDKit          3D

 60 66  0  0  0  0  0  0  0  0999 V2000
    0.9988    2.0177   -2.8134 O   0  0  0  0  0  0  0  0  0  0  0  0
    0.3072    2.3826   -1.8727 C   0  0  0  0  0  0  0  0  0  0  0  0
   -0.3448    3.6144   -1.7881 N   0  0  0  0  0  0  0  0  0  0  0  0
   -0.9688    3.7682   -0.5557 C   0  0  0  0  0  0  0  0  0  0  0  0
   -1.6816    4.8654   -0.1192 C   0  0  0  0  0  0  0  0  0  0  0  0
   -2.2061    4.8174    1.1749 C   0  0  0  0  0  0  0  0  0  0  0  0
   -2.0041    3.6902    1.9927 C   0  0  0  0  0  0  0  0  0  0  0  0
   -1.2776    2.5895    1.5289 C   0  0  0  0  0  0  0  0  0  0  0  0
   -0.7671    2.6366    0.2409 C   0  0  0  0  0  0  0  0  0  0  0  0
    0.0383    1.6378   -0.5350 C   0  0  0  0  0  0  0  0  0  0  0  0
    1.3078    1.2093    0.1393 N   0  0  0  0  0  0  0  0  0  0  0  0
    1.4242   -0.2918    0.0788 C   0  0  2  0  0  0  0  0  0  0  0  0
    2.4886   -0.7872   -0.9230 C   0  0  0  0  0  0  0  0  0  0  0  0
    3.8845   -0.3568   -0.5868 C   0  0  0  0  0  0  0  0  0  0  0  0
    4.6101    0.6220   -1.2387 C   0  0  0  0  0  0  0  0  0  0  0  0
    5.8364    0.7192   -0.6409 N   0  0  0  0  0  0  0  0  0  0  0  0
    5.9356   -0.1842    0.3909 C   0  0  0  0  0  0  0  0  0  0  0  0
    6.9978   -0.4368    1.2673 C   0  0  0  0  0  0  0  0  0  0  0  0
    6.8183   -1.4299    2.2338 C   0  0  0  0  0  0  0  0  0  0  0  0
    5.6242   -2.1411    2.3173 C   0  0  0  0  0  0  0  0  0  0  0  0
    4.5727   -1.8765    1.4322 C   0  0  0  0  0  0  0  0  0  0  0  0
    4.7261   -0.8776    0.4485 C   0  0  0  0  0  0  0  0  0  0  0  0
    0.0588   -0.7090   -0.3184 C   0  0  0  0  0  0  0  0  0  0  0  0
   -0.7217    0.3901   -0.6842 C   0  0  0  0  0  0  0  0  0  0  0  0
   -1.9590   -0.0528   -1.0685 C   0  0  0  0  0  0  0  0  0  0  0  0
   -3.0088    0.6391   -1.4942 O   0  0  0  0  0  0  0  0  0  0  0  0
   -1.9321   -1.4376   -0.9442 N   0  0  0  0  0  0  0  0  0  0  0  0
   -2.9815   -2.3559   -1.3807 C   0  0  0  0  0  0  0  0  0  0  0  0
   -4.2119   -2.2917   -0.5074 C   0  0  0  0  0  0  0  0  0  0  0  0
   -4.1261   -2.5030    0.8772 C   0  0  0  0  0  0  0  0  0  0  0  0
   -5.2697   -2.4490    1.6750 C   0  0  0  0  0  0  0  0  0  0  0  0
   -6.5123   -2.1938    1.0980 C   0  0  0  0  0  0  0  0  0  0  0  0
   -6.6141   -1.9966   -0.2778 C   0  0  0  0  0  0  0  0  0  0  0  0
   -5.4718   -2.0506   -1.0781 C   0  0  0  0  0  0  0  0  0  0  0  0
   -0.6952   -1.8431   -0.4587 C   0  0  0  0  0  0  0  0  0  0  0  0
   -0.4247   -3.1226   -0.2373 O   0  0  0  0  0  0  0  0  0  0  0  0
   -0.3283    4.2960   -2.5298 H   0  0  0  0  0  0  0  0  0  0  0  0
   -1.8324    5.7350   -0.7477 H   0  0  0  0  0  0  0  0  0  0  0  0
   -2.7759    5.6606    1.5582 H   0  0  0  0  0  0  0  0  0  0  0  0
   -2.4189    3.6742    2.9981 H   0  0  0  0  0  0  0  0  0  0  0  0
   -1.1187    1.7183    2.1566 H   0  0  0  0  0  0  0  0  0  0  0  0
    2.0896    1.6158   -0.3730 H   0  0  0  0  0  0  0  0  0  0  0  0
    1.6510   -0.6505    1.0892 H   0  0  0  0  0  0  0  0  0  0  0  0
    2.4641   -1.8847   -0.9669 H   0  0  0  0  0  0  0  0  0  0  0  0
    2.2396   -0.4477   -1.9380 H   0  0  0  0  0  0  0  0  0  0  0  0
    4.3535    1.2549   -2.0794 H   0  0  0  0  0  0  0  0  0  0  0  0
    6.5698    1.3570   -0.9166 H   0  0  0  0  0  0  0  0  0  0  0  0
    7.9296    0.1151    1.2039 H   0  0  0  0  0  0  0  0  0  0  0  0
    7.6241   -1.6493    2.9302 H   0  0  0  0  0  0  0  0  0  0  0  0
    5.5056   -2.9092    3.0772 H   0  0  0  0  0  0  0  0  0  0  0  0
    3.6483   -2.4391    1.5094 H   0  0  0  0  0  0  0  0  0  0  0  0
   -3.8196    0.1486   -1.2766 H   0  0  0  0  0  0  0  0  0  0  0  0
   -2.5910   -3.3785   -1.3926 H   0  0  0  0  0  0  0  0  0  0  0  0
   -3.2121   -2.0842   -2.4178 H   0  0  0  0  0  0  0  0  0  0  0  0
   -3.1635   -2.7069    1.3446 H   0  0  0  0  0  0  0  0  0  0  0  0
   -5.1897   -2.6061    2.7478 H   0  0  0  0  0  0  0  0  0  0  0  0
   -7.4024   -2.1521    1.7206 H   0  0  0  0  0  0  0  0  0  0  0  0
   -7.5853   -1.8037   -0.7270 H   0  0  0  0  0  0  0  0  0  0  0  0
   -5.5753   -1.9011   -2.1516 H   0  0  0  0  0  0  0  0  0  0  0  0
    0.4872   -3.1741    0.0991 H   0  0  0  0  0  0  0  0  0  0  0  0
  1  2  2  0
  2  3  1  0
  3  4  1  0
  4  5  2  0
  5  6  1  0
  6  7  2  0
  7  8  1  0
  8  9  2  0
  9 10  1  0
 10 11  1  0
 11 12  1  0
 12 13  1  0
 13 14  1  0
 14 15  2  0
 15 16  1  0
 16 17  1  0
 17 18  2  0
 18 19  1  0
 19 20  2  0
 20 21  1  0
 21 22  2  0
 12 23  1  0
 23 24  1  0
 24 25  2  0
 25 26  1  0
 25 27  1  0
 27 28  1  0
 28 29  1  0
 29 30  2  0
 30 31  1  0
 31 32  2  0
 32 33  1  0
 33 34  2  0
 27 35  1  0
 35 36  1  0
 10  2  1  0
 22 14  1  0
 35 23  2  0
  9  4  1  0
 24 10  1  0
 34 29  1  0
 22 17  1  0
  3 37  1  0
  5 38  1  0
  6 39  1  0
  7 40  1  0
  8 41  1  0
 11 42  1  0
 12 43  1  1
 13 44  1  0
 13 45  1  0
 15 46  1  0
 16 47  1  0
 18 48  1  0
 19 49  1  0
 20 50  1  0
 21 51  1  0
 26 52  1  0
 28 53  1  0
 28 54  1  0
 30 55  1  0
 31 56  1  0
 32 57  1  0
 33 58  1  0
 34 59  1  0
 36 60  1  0
M  END
$$$$
