
     RDKit          3D

 67 72  0  0  0  0  0  0  0  0999 V2000
   -4.8559    3.7681    1.9688 C   0  0  0  0  0  0  0  0  0  0  0  0
   -3.7888    3.2118    1.0739 C   0  0  0  0  0  0  0  0  0  0  0  0
   -3.3986    3.8737   -0.1057 C   0  0  0  0  0  0  0  0  0  0  0  0
   -4.1307    5.3679   -0.5799 Cl  0  0  0  0  0  0  0  0  0  0  0  0
   -2.4054    3.3462   -0.9536 C   0  0  0  0  0  0  0  0  0  0  0  0
   -1.7688    2.1430   -0.6487 C   0  0  0  0  0  0  0  0  0  0  0  0
   -2.1405    1.4813    0.5126 C   0  0  0  0  0  0  0  0  0  0  0  0
   -3.1418    2.0110    1.3419 C   0  0  0  0  0  0  0  0  0  0  0  0
   -3.3699    1.1455    2.4082 N   0  0  0  0  0  0  0  0  0  0  0  0
   -2.5500    0.0162    2.3542 C   0  0  0  0  0  0  0  0  0  0  0  0
   -2.5877   -0.8953    3.1664 O   0  0  0  0  0  0  0  0  0  0  0  0
   -1.6503    0.1782    1.0998 C   0  0  1  0  0  0  0  0  0  0  0  0
   -1.8566   -0.8629    0.0678 C   0  0  0  0  0  0  0  0  0  0  0  0
   -0.6534   -1.5028   -0.2279 C   0  0  0  0  0  0  0  0  0  0  0  0
   -0.8635   -2.4091   -1.2287 C   0  0  0  0  0  0  0  0  0  0  0  0
    0.0518   -3.1130   -1.8911 O   0  0  0  0  0  0  0  0  0  0  0  0
   -2.2489   -2.4285   -1.4851 N   0  0  0  0  0  0  0  0  0  0  0  0
   -2.9326   -3.3453   -2.3453 C   0  0  0  0  0  0  0  0  0  0  0  0
   -2.4566   -4.6561   -2.4987 C   0  0  0  0  0  0  0  0  0  0  0  0
   -3.1329   -5.5470   -3.3306 C   0  0  0  0  0  0  0  0  0  0  0  0
   -2.6705   -6.7967   -3.4637 F   0  0  0  0  0  0  0  0  0  0  0  0
   -4.2767   -5.1674   -4.0151 C   0  0  0  0  0  0  0  0  0  0  0  0
   -4.7501   -3.8747   -3.8510 C   0  0  0  0  0  0  0  0  0  0  0  0
   -5.8528   -3.4915   -4.5077 F   0  0  0  0  0  0  0  0  0  0  0  0
   -4.0969   -2.9627   -3.0235 C   0  0  0  0  0  0  0  0  0  0  0  0
   -2.8420   -1.4026   -0.7222 C   0  0  0  0  0  0  0  0  0  0  0  0
   -4.1426   -1.1267   -0.7798 O   0  0  0  0  0  0  0  0  0  0  0  0
    0.4695   -0.9843    0.5792 C   0  0  1  0  0  0  0  0  0  0  0  0
    1.6425   -0.4162   -0.2397 C   0  0  0  0  0  0  0  0  0  0  0  0
    2.5988    0.3140    0.5984 N   0  0  0  0  0  0  0  0  0  0  0  0
    3.9337    0.3371    0.2519 C   0  0  0  0  0  0  0  0  0  0  0  0
    4.3772   -0.1747   -0.7670 O   0  0  0  0  0  0  0  0  0  0  0  0
    4.6833    0.9930    1.1745 O   0  0  0  0  0  0  0  0  0  0  0  0
    6.1197    1.1202    1.0203 C   0  0  0  0  0  0  0  0  0  0  0  0
    6.8050   -0.2495    1.0666 C   0  0  0  0  0  0  0  0  0  0  0  0
    6.5695    1.9346    2.2435 C   0  0  0  0  0  0  0  0  0  0  0  0
    6.4832    1.9038   -0.2456 C   0  0  0  0  0  0  0  0  0  0  0  0
    2.0771    0.9512    1.8110 C   0  0  0  0  0  0  0  0  0  0  0  0
    0.5672    1.2394    1.7104 C   0  0  0  0  0  0  0  0  0  0  0  0
   -0.2096    0.0313    1.4547 N   0  0  0  0  0  0  0  0  0  0  0  0
   -4.6056    4.7892    2.2739 H   0  0  0  0  0  0  0  0  0  0  0  0
   -4.9751    3.1878    2.8881 H   0  0  0  0  0  0  0  0  0  0  0  0
   -5.8209    3.7679    1.4522 H   0  0  0  0  0  0  0  0  0  0  0  0
   -2.1282    3.8782   -1.8621 H   0  0  0  0  0  0  0  0  0  0  0  0
   -1.0068    1.7386   -1.3091 H   0  0  0  0  0  0  0  0  0  0  0  0
   -4.0396    1.2725    3.1525 H   0  0  0  0  0  0  0  0  0  0  0  0
   -0.3108   -3.3868   -2.7519 H   0  0  0  0  0  0  0  0  0  0  0  0
   -1.6004   -5.0320   -1.9441 H   0  0  0  0  0  0  0  0  0  0  0  0
   -4.7949   -5.8678   -4.6586 H   0  0  0  0  0  0  0  0  0  0  0  0
   -4.5056   -1.9594   -2.9557 H   0  0  0  0  0  0  0  0  0  0  0  0
   -4.3362   -0.4219   -0.1372 H   0  0  0  0  0  0  0  0  0  0  0  0
    0.8457   -1.7773    1.2377 H   0  0  0  0  0  0  0  0  0  0  0  0
    2.1549   -1.2209   -0.7798 H   0  0  0  0  0  0  0  0  0  0  0  0
    1.2821    0.2942   -0.9952 H   0  0  0  0  0  0  0  0  0  0  0  0
    7.8948   -0.1485    1.1002 H   0  0  0  0  0  0  0  0  0  0  0  0
    6.5576   -0.8617    0.1940 H   0  0  0  0  0  0  0  0  0  0  0  0
    6.4806   -0.8155    1.9473 H   0  0  0  0  0  0  0  0  0  0  0  0
    6.2827    1.4322    3.1751 H   0  0  0  0  0  0  0  0  0  0  0  0
    7.6533    2.0908    2.2534 H   0  0  0  0  0  0  0  0  0  0  0  0
    6.0782    2.9152    2.2585 H   0  0  0  0  0  0  0  0  0  0  0  0
    5.9063    2.8333   -0.3063 H   0  0  0  0  0  0  0  0  0  0  0  0
    6.2638    1.3375   -1.1554 H   0  0  0  0  0  0  0  0  0  0  0  0
    7.5495    2.1533   -0.2668 H   0  0  0  0  0  0  0  0  0  0  0  0
    2.6162    1.8866    1.9961 H   0  0  0  0  0  0  0  0  0  0  0  0
    2.2848    0.2755    2.6496 H   0  0  0  0  0  0  0  0  0  0  0  0
    0.4419    1.9734    0.9081 H   0  0  0  0  0  0  0  0  0  0  0  0
    0.2271    1.7046    2.6420 H   0  0  0  0  0  0  0  0  0  0  0  0
  1  2  1  0
  2  3  2  0
  3  4  1  0
  3  5  1  0
  5  6  2  0
  6  7  1  0
  7  8  2  0
  8  9  1  0
  9 10  1  0
 10 11  2  0
 10 12  1  0
 12 13  1  0
 13 14  1  0
 14 15  2  0
 15 16  1  0
 15 17  1  0
 17 18  1  0
 18 19  2  0
 19 20  1  0
 20 21  1  0
 20 22  2  0
 22 23  1  0
 23 24  1  0
 23 25  2  0
 17 26  1  0
 26 27  1  0
 14 28  1  0
 28 29  1  0
 29 30  1  0
 30 31  1  0
 31 32  2  0
 31 33  1  0
 33 34  1  0
 34 35  1  0
 34 36  1  0
 34 37  1  0
 30 38  1  0
 38 39  1  0
 39 40  1  0
  8  2  1  0
 12 40  1  1
 12  7  1  0
 26 13  2  0
 40 28  1  0
 25 18  1  0
  1 41  1  0
  1 42  1  0
  1 43  1  0
  5 44  1  0
  6 45  1  0
  9 46  1  0
 16 47  1  0
 19 48  1  0
 22 49  1  0
 25 50  1  0
 27 51  1  0
 28 52  1  1
 29 53  1  0
 29 54  1  0
 35 55  1  0
 35 56  1  0
 35 57  1  0
 36 58  1  0
 36 59  1  0
 36 60  1  0
 37 61  1  0
 37 62  1  0
 37 63  1  0
 38 64  1  0
 38 65  1  0
 39 66  1  0
 39 67  1  0
M  END
$$$$
