
     RDKit          3D

 38 39  0  0  0  0  0  0  0  0999 V2000
   -0.3243   -1.2950    0.6406 O   0  0  0  0  0  0  0  0  0  0  0  0
    0.4746   -0.3848    0.4333 C   0  0  0  0  0  0  0  0  0  0  0  0
    0.1962    1.0753    0.8019 C   0  0  0  0  0  0  0  0  0  0  0  0
   -1.1932    1.3434    0.9858 O   0  0  0  0  0  0  0  0  0  0  0  0
   -1.9025    1.3840   -0.1674 C   0  0  0  0  0  0  0  0  0  0  0  0
   -1.4401    1.3118   -1.2986 O   0  0  0  0  0  0  0  0  0  0  0  0
   -3.3543    1.5622    0.0877 C   0  0  0  0  0  0  0  0  0  0  0  0
   -3.8780    1.5420    1.3909 C   0  0  0  0  0  0  0  0  0  0  0  0
   -5.2489    1.7164    1.6058 C   0  0  0  0  0  0  0  0  0  0  0  0
   -6.0940    1.9101    0.5174 C   0  0  0  0  0  0  0  0  0  0  0  0
   -7.4357    2.0848    0.6851 O   0  0  0  0  0  0  0  0  0  0  0  0
   -5.5944    1.9293   -0.7796 C   0  0  0  0  0  0  0  0  0  0  0  0
   -4.2284    1.7520   -0.9945 C   0  0  0  0  0  0  0  0  0  0  0  0
   -3.8172    1.7774   -2.3022 O   0  0  0  0  0  0  0  0  0  0  0  0
    1.7121   -0.5933   -0.1355 N   0  0  0  0  0  0  0  0  0  0  0  0
    2.1229   -1.9128   -0.5785 C   0  0  0  0  0  0  0  0  0  0  0  0
    3.5265   -1.9321   -1.1977 C   0  0  0  0  0  0  0  0  0  0  0  0
    4.5747   -1.6103   -0.2412 N   0  0  0  0  0  0  0  0  0  0  0  0
    5.2675   -2.5192    0.5244 C   0  0  0  0  0  0  0  0  0  0  0  0
    5.1377   -3.8614    0.3365 O   0  0  0  0  0  0  0  0  0  0  0  0
    6.0628   -1.9788    1.4521 C   0  0  0  0  0  0  0  0  0  0  0  0
    5.9947   -0.2461    1.4193 S   0  0  0  0  0  0  0  0  0  0  0  0
    4.7912   -0.2838    0.1241 C   0  0  0  0  0  0  0  0  0  0  0  0
    4.2298    0.7081   -0.3185 O   0  0  0  0  0  0  0  0  0  0  0  0
    0.6961    1.2734    1.7560 H   0  0  0  0  0  0  0  0  0  0  0  0
    0.6248    1.7560    0.0567 H   0  0  0  0  0  0  0  0  0  0  0  0
   -3.2302    1.3850    2.2503 H   0  0  0  0  0  0  0  0  0  0  0  0
   -5.6340    1.6960    2.6209 H   0  0  0  0  0  0  0  0  0  0  0  0
   -7.6457    2.0309    1.6317 H   0  0  0  0  0  0  0  0  0  0  0  0
   -6.2645    2.0781   -1.6213 H   0  0  0  0  0  0  0  0  0  0  0  0
   -2.8543    1.5868   -2.3332 H   0  0  0  0  0  0  0  0  0  0  0  0
    2.3018    0.2093   -0.3570 H   0  0  0  0  0  0  0  0  0  0  0  0
    2.0663   -2.5910    0.2806 H   0  0  0  0  0  0  0  0  0  0  0  0
    1.3901   -2.2521   -1.3194 H   0  0  0  0  0  0  0  0  0  0  0  0
    3.5720   -1.1905   -2.0054 H   0  0  0  0  0  0  0  0  0  0  0  0
    3.7206   -2.9068   -1.6546 H   0  0  0  0  0  0  0  0  0  0  0  0
    4.9984   -4.0197   -0.6094 H   0  0  0  0  0  0  0  0  0  0  0  0
    6.6788   -2.5346    2.1450 H   0  0  0  0  0  0  0  0  0  0  0  0
  1  2  2  0
  2  3  1  0
  3  4  1  0
  4  5  1  0
  5  6  2  0
  5  7  1  0
  7  8  2  0
  8  9  1  0
  9 10  2  0
 10 11  1  0
 10 12  1  0
 12 13  2  0
 13 14  1  0
  2 15  1  0
 15 16  1  0
 16 17  1  0
 17 18  1  0
 18 19  1  0
 19 20  1  0
 19 21  2  0
 21 22  1  0
 22 23  1  0
 23 24  2  0
 13  7  1  0
 23 18  1  0
  3 25  1  0
  3 26  1  0
  8 27  1  0
  9 28  1  0
 11 29  1  0
 12 30  1  0
 14 31  1  0
 15 32  1  0
 16 33  1  0
 16 34  1  0
 17 35  1  0
 17 36  1  0
 20 37  1  0
 21 38  1  0
M  END
$$$$
