
     RDKit          3D

 57 59  0  0  0  0  0  0  0  0999 V2000
   11.1230    0.9698   -3.2913 C   0  0  0  0  0  0  0  0  0  0  0  0
   10.1360    1.6138   -2.4935 O   0  0  0  0  0  0  0  0  0  0  0  0
    9.0358    0.8720   -2.1625 C   0  0  0  0  0  0  0  0  0  0  0  0
    8.8621   -0.4900   -2.4011 C   0  0  0  0  0  0  0  0  0  0  0  0
    7.6765   -1.1237   -2.0073 C   0  0  0  0  0  0  0  0  0  0  0  0
    6.6512   -0.4071   -1.3839 C   0  0  0  0  0  0  0  0  0  0  0  0
    5.5517   -1.1487   -1.0520 O   0  0  0  0  0  0  0  0  0  0  0  0
    4.3212   -0.4522   -0.8172 C   0  0  0  0  0  0  0  0  0  0  0  0
    4.1106   -0.2445    0.6818 C   0  0  0  0  0  0  0  0  0  0  0  0
    2.7186    0.8727    1.0352 S   0  0  0  0  0  0  0  0  0  0  0  0
    1.3657   -0.1518    0.7160 C   0  0  0  0  0  0  0  0  0  0  0  0
    1.4063   -1.4261    0.4078 N   0  0  0  0  0  0  0  0  0  0  0  0
    0.1164   -1.8503    0.2051 N   0  0  0  0  0  0  0  0  0  0  0  0
   -0.6886   -0.8235    0.4024 C   0  0  0  0  0  0  0  0  0  0  0  0
   -2.1695   -0.8479    0.2700 C   0  0  0  0  0  0  0  0  0  0  0  0
   -2.8332   -1.2225    1.5946 C   0  0  0  0  0  0  0  0  0  0  0  0
   -4.2786   -1.0970    1.5434 N   0  0  0  0  0  0  0  0  0  0  0  0
   -4.8822    0.1440    1.5922 C   0  0  0  0  0  0  0  0  0  0  0  0
   -4.2467    1.1896    1.6847 O   0  0  0  0  0  0  0  0  0  0  0  0
   -6.3666    0.1691    1.4810 C   0  0  0  0  0  0  0  0  0  0  0  0
   -7.1630   -0.9035    1.8966 C   0  0  0  0  0  0  0  0  0  0  0  0
   -8.5578   -0.8324    1.7828 C   0  0  0  0  0  0  0  0  0  0  0  0
   -9.1637    0.3118    1.2618 C   0  0  0  0  0  0  0  0  0  0  0  0
  -10.5067    0.5112    1.1043 O   0  0  0  0  0  0  0  0  0  0  0  0
  -11.3696   -0.5506    1.4916 C   0  0  0  0  0  0  0  0  0  0  0  0
   -8.3658    1.3843    0.8585 C   0  0  0  0  0  0  0  0  0  0  0  0
   -6.9761    1.3189    0.9709 C   0  0  0  0  0  0  0  0  0  0  0  0
    0.0655    0.2733    0.7530 N   0  0  0  0  0  0  0  0  0  0  0  0
   -0.4117    1.5866    1.1053 C   0  0  0  0  0  0  0  0  0  0  0  0
    6.8333    0.9498   -1.1276 C   0  0  0  0  0  0  0  0  0  0  0  0
    8.0204    1.5832   -1.5167 C   0  0  0  0  0  0  0  0  0  0  0  0
   11.6014    0.1530   -2.7408 H   0  0  0  0  0  0  0  0  0  0  0  0
   11.8947    1.7071   -3.5291 H   0  0  0  0  0  0  0  0  0  0  0  0
   10.6970    0.6165   -4.2369 H   0  0  0  0  0  0  0  0  0  0  0  0
    9.6249   -1.0915   -2.8860 H   0  0  0  0  0  0  0  0  0  0  0  0
    7.5473   -2.1871   -2.1973 H   0  0  0  0  0  0  0  0  0  0  0  0
    3.5294   -1.0955   -1.2169 H   0  0  0  0  0  0  0  0  0  0  0  0
    4.2679    0.4809   -1.3915 H   0  0  0  0  0  0  0  0  0  0  0  0
    5.0053    0.2010    1.1287 H   0  0  0  0  0  0  0  0  0  0  0  0
    3.9798   -1.2062    1.1906 H   0  0  0  0  0  0  0  0  0  0  0  0
   -2.5360    0.1143   -0.1053 H   0  0  0  0  0  0  0  0  0  0  0  0
   -2.4509   -1.5849   -0.4924 H   0  0  0  0  0  0  0  0  0  0  0  0
   -2.6059   -2.2608    1.8619 H   0  0  0  0  0  0  0  0  0  0  0  0
   -2.4673   -0.5840    2.4070 H   0  0  0  0  0  0  0  0  0  0  0  0
   -4.8157   -1.9062    1.2566 H   0  0  0  0  0  0  0  0  0  0  0  0
   -6.7217   -1.7910    2.3409 H   0  0  0  0  0  0  0  0  0  0  0  0
   -9.1412   -1.6826    2.1198 H   0  0  0  0  0  0  0  0  0  0  0  0
  -12.3986   -0.2329    1.2980 H   0  0  0  0  0  0  0  0  0  0  0  0
  -11.1812   -1.4520    0.8961 H   0  0  0  0  0  0  0  0  0  0  0  0
  -11.2837   -0.7605    2.5618 H   0  0  0  0  0  0  0  0  0  0  0  0
   -8.8316    2.2818    0.4586 H   0  0  0  0  0  0  0  0  0  0  0  0
   -6.3739    2.1674    0.6581 H   0  0  0  0  0  0  0  0  0  0  0  0
    0.0961    1.9233    2.0123 H   0  0  0  0  0  0  0  0  0  0  0  0
   -1.4817    1.5611    1.3026 H   0  0  0  0  0  0  0  0  0  0  0  0
   -0.2051    2.2626    0.2720 H   0  0  0  0  0  0  0  0  0  0  0  0
    6.0833    1.5450   -0.6190 H   0  0  0  0  0  0  0  0  0  0  0  0
    8.1530    2.6434   -1.3151 H   0  0  0  0  0  0  0  0  0  0  0  0
  1  2  1  0
  2  3  1  0
  3  4  2  0
  4  5  1  0
  5  6  2  0
  6  7  1  0
  7  8  1  0
  8  9  1  0
  9 10  1  0
 10 11  1  0
 11 12  2  0
 12 13  1  0
 13 14  2  0
 14 15  1  0
 15 16  1  0
 16 17  1  0
 17 18  1  0
 18 19  2  0
 18 20  1  0
 20 21  2  0
 21 22  1  0
 22 23  2  0
 23 24  1  0
 24 25  1  0
 23 26  1  0
 26 27  2  0
 14 28  1  0
 28 29  1  0
  6 30  1  0
 30 31  2  0
 31  3  1  0
 28 11  1  0
 27 20  1  0
  1 32  1  0
  1 33  1  0
  1 34  1  0
  4 35  1  0
  5 36  1  0
  8 37  1  0
  8 38  1  0
  9 39  1  0
  9 40  1  0
 15 41  1  0
 15 42  1  0
 16 43  1  0
 16 44  1  0
 17 45  1  0
 21 46  1  0
 22 47  1  0
 25 48  1  0
 25 49  1  0
 25 50  1  0
 26 51  1  0
 27 52  1  0
 29 53  1  0
 29 54  1  0
 29 55  1  0
 30 56  1  0
 31 57  1  0
M  END
$$$$
