
     RDKit          3D

 51 55  0  0  0  0  0  0  0  0999 V2000
   -7.8199    2.5648   -0.6722 F   0  0  0  0  0  0  0  0  0  0  0  0
   -7.3288    1.4099   -0.2036 C   0  0  0  0  0  0  0  0  0  0  0  0
   -8.1543    0.2943   -0.1332 C   0  0  0  0  0  0  0  0  0  0  0  0
   -7.6421   -0.9078    0.3507 C   0  0  0  0  0  0  0  0  0  0  0  0
   -6.3082   -0.9832    0.7611 C   0  0  0  0  0  0  0  0  0  0  0  0
   -5.4757    0.1445    0.6949 C   0  0  0  0  0  0  0  0  0  0  0  0
   -4.0288    0.0556    1.1208 C   0  0  0  0  0  0  0  0  0  0  0  0
   -3.1089   -0.2799   -0.0654 C   0  0  0  0  0  0  0  0  0  0  0  0
   -1.7062   -0.5089    0.3304 N   0  0  0  0  0  0  0  0  0  0  0  0
   -0.9430   -1.0636   -0.8132 C   0  0  0  0  0  0  0  0  0  0  0  0
    0.5488   -1.2857   -0.4883 C   0  0  0  0  0  0  0  0  0  0  0  0
    1.1751   -0.0256   -0.0420 N   0  0  0  0  0  0  0  0  0  0  0  0
    2.5676    0.0263   -0.0195 C   0  0  0  0  0  0  0  0  0  0  0  0
    3.1859    0.1696    1.1258 N   0  0  0  0  0  0  0  0  0  0  0  0
    4.5936    0.1950    1.1819 C   0  0  0  0  0  0  0  0  0  0  0  0
    5.2048    0.3326    2.4297 C   0  0  0  0  0  0  0  0  0  0  0  0
    6.5975    0.3546    2.5439 C   0  0  0  0  0  0  0  0  0  0  0  0
    7.3956    0.2381    1.4051 C   0  0  0  0  0  0  0  0  0  0  0  0
    6.8069    0.0998    0.1476 C   0  0  0  0  0  0  0  0  0  0  0  0
    5.4125    0.0788    0.0494 C   0  0  0  0  0  0  0  0  0  0  0  0
    4.7382   -0.0451   -1.1760 N   0  0  0  0  0  0  0  0  0  0  0  0
    5.2452   -0.1514   -2.4496 C   0  0  0  0  0  0  0  0  0  0  0  0
    4.1874   -0.1839   -3.3329 C   0  0  0  0  0  0  0  0  0  0  0  0
    3.0004   -0.1080   -2.5678 C   0  0  0  0  0  0  0  0  0  0  0  0
    3.3630   -0.0577   -1.2336 C   0  0  0  0  0  0  0  0  0  0  0  0
    0.4521    0.5389    1.1160 C   0  0  0  0  0  0  0  0  0  0  0  0
   -1.0438    0.7371    0.7840 C   0  0  0  0  0  0  0  0  0  0  0  0
   -5.9993    1.3469    0.2021 C   0  0  0  0  0  0  0  0  0  0  0  0
   -9.1877    0.3688   -0.4556 H   0  0  0  0  0  0  0  0  0  0  0  0
   -8.2792   -1.7867    0.4088 H   0  0  0  0  0  0  0  0  0  0  0  0
   -5.9206   -1.9295    1.1346 H   0  0  0  0  0  0  0  0  0  0  0  0
   -3.9272   -0.7065    1.9043 H   0  0  0  0  0  0  0  0  0  0  0  0
   -3.7441    1.0078    1.5838 H   0  0  0  0  0  0  0  0  0  0  0  0
   -3.4925   -1.1968   -0.5335 H   0  0  0  0  0  0  0  0  0  0  0  0
   -3.1740    0.5071   -0.8289 H   0  0  0  0  0  0  0  0  0  0  0  0
   -1.3736   -2.0297   -1.1030 H   0  0  0  0  0  0  0  0  0  0  0  0
   -1.0215   -0.3939   -1.6804 H   0  0  0  0  0  0  0  0  0  0  0  0
    1.0411   -1.6815   -1.3818 H   0  0  0  0  0  0  0  0  0  0  0  0
    0.6527   -2.0446    0.2981 H   0  0  0  0  0  0  0  0  0  0  0  0
    4.5859    0.4217    3.3185 H   0  0  0  0  0  0  0  0  0  0  0  0
    7.0573    0.4624    3.5229 H   0  0  0  0  0  0  0  0  0  0  0  0
    8.4787    0.2564    1.4991 H   0  0  0  0  0  0  0  0  0  0  0  0
    7.4475    0.0133   -0.7236 H   0  0  0  0  0  0  0  0  0  0  0  0
    6.3083   -0.1789   -2.6392 H   0  0  0  0  0  0  0  0  0  0  0  0
    4.2652   -0.2444   -4.4108 H   0  0  0  0  0  0  0  0  0  0  0  0
    1.9874   -0.0892   -2.9471 H   0  0  0  0  0  0  0  0  0  0  0  0
    0.5572   -0.1230    1.9852 H   0  0  0  0  0  0  0  0  0  0  0  0
    0.8753    1.5153    1.3814 H   0  0  0  0  0  0  0  0  0  0  0  0
   -1.1352    1.5137    0.0127 H   0  0  0  0  0  0  0  0  0  0  0  0
   -1.5311    1.1126    1.6899 H   0  0  0  0  0  0  0  0  0  0  0  0
   -5.3853    2.2396    0.1302 H   0  0  0  0  0  0  0  0  0  0  0  0
  1  2  1  0
  2  3  2  0
  3  4  1  0
  4  5  2  0
  5  6  1  0
  6  7  1  0
  7  8  1  0
  8  9  1  0
  9 10  1  0
 10 11  1  0
 11 12  1  0
 12 13  1  0
 13 14  2  0
 14 15  1  0
 15 16  2  0
 16 17  1  0
 17 18  2  0
 18 19  1  0
 19 20  2  0
 20 21  1  0
 21 22  1  0
 22 23  2  0
 23 24  1  0
 24 25  2  0
 12 26  1  0
 26 27  1  0
  6 28  2  0
 28  2  1  0
 27  9  1  0
 25 13  1  0
 20 15  1  0
 25 21  1  0
  3 29  1  0
  4 30  1  0
  5 31  1  0
  7 32  1  0
  7 33  1  0
  8 34  1  0
  8 35  1  0
 10 36  1  0
 10 37  1  0
 11 38  1  0
 11 39  1  0
 16 40  1  0
 17 41  1  0
 18 42  1  0
 19 43  1  0
 22 44  1  0
 23 45  1  0
 24 46  1  0
 26 47  1  0
 26 48  1  0
 27 49  1  0
 27 50  1  0
 28 51  1  0
M  END
$$$$
