
     RDKit          3D

 53 54  0  0  0  0  0  0  0  0999 V2000
   -6.0723   -0.6670    1.4153 C   0  0  0  0  0  0  0  0  0  0  0  0
   -5.5183   -1.6008    0.3501 C   0  0  0  0  0  0  0  0  0  0  0  0
   -5.2454   -0.8345   -0.8980 N   0  0  0  0  0  0  0  0  0  0  0  0
   -6.4713   -0.5958   -1.7153 C   0  0  0  0  0  0  0  0  0  0  0  0
   -6.6158    0.8941   -1.9743 C   0  0  0  0  0  0  0  0  0  0  0  0
   -3.9106   -1.3912   -1.8165 S   0  0  0  0  0  6  0  0  0  0  0  0
   -4.0314   -2.8296   -1.9272 O   0  0  0  0  0  0  0  0  0  0  0  0
   -3.7702   -0.5526   -2.9871 O   0  0  0  0  0  0  0  0  0  0  0  0
   -2.5331   -1.0211   -0.7547 C   0  0  0  0  0  0  0  0  0  0  0  0
   -1.7164   -2.0491   -0.2763 C   0  0  0  0  0  0  0  0  0  0  0  0
   -0.6371   -1.7389    0.5561 C   0  0  0  0  0  0  0  0  0  0  0  0
   -0.3729   -0.4044    0.9044 C   0  0  0  0  0  0  0  0  0  0  0  0
    0.7661   -0.0216    1.7822 C   0  0  0  0  0  0  0  0  0  0  0  0
    1.0592    1.1344    2.0486 O   0  0  0  0  0  0  0  0  0  0  0  0
    1.4275   -1.1181    2.2223 O   0  0  0  0  0  0  0  0  0  0  0  0
    2.5109   -0.8651    3.1194 C   0  0  0  0  0  0  0  0  0  0  0  0
    3.8251   -0.4824    2.4307 C   0  0  0  0  0  0  0  0  0  0  0  0
    4.8366   -1.1720    2.5233 O   0  0  0  0  0  0  0  0  0  0  0  0
    3.7805    0.6936    1.7142 N   0  0  0  0  0  0  0  0  0  0  0  0
    4.9679    1.3131    1.1516 C   0  0  0  0  0  0  0  0  0  0  0  0
    5.7289    0.4240    0.1550 C   0  0  0  0  0  0  0  0  0  0  0  0
    6.5553    1.2031   -0.7519 N   0  0  0  0  0  0  0  0  0  0  0  0
    6.1651    1.6848   -1.9801 C   0  0  0  0  0  0  0  0  0  0  0  0
    4.9716    1.3434   -2.5407 O   0  0  0  0  0  0  0  0  0  0  0  0
    7.0430    2.5047   -2.5638 C   0  0  0  0  0  0  0  0  0  0  0  0
    8.4547    2.7301   -1.5822 S   0  0  0  0  0  0  0  0  0  0  0  0
    7.7832    1.6927   -0.3119 C   0  0  0  0  0  0  0  0  0  0  0  0
    8.3295    1.4984    0.7610 O   0  0  0  0  0  0  0  0  0  0  0  0
   -1.1977    0.6180    0.4093 C   0  0  0  0  0  0  0  0  0  0  0  0
   -2.2779    0.3124   -0.4213 C   0  0  0  0  0  0  0  0  0  0  0  0
   -5.3710    0.1482    1.6219 H   0  0  0  0  0  0  0  0  0  0  0  0
   -7.0211   -0.2206    1.1041 H   0  0  0  0  0  0  0  0  0  0  0  0
   -6.2454   -1.2152    2.3469 H   0  0  0  0  0  0  0  0  0  0  0  0
   -6.2184   -2.4194    0.1521 H   0  0  0  0  0  0  0  0  0  0  0  0
   -4.6010   -2.0495    0.7432 H   0  0  0  0  0  0  0  0  0  0  0  0
   -7.3659   -0.9568   -1.1962 H   0  0  0  0  0  0  0  0  0  0  0  0
   -6.4274   -1.1455   -2.6621 H   0  0  0  0  0  0  0  0  0  0  0  0
   -7.5173    1.0922   -2.5627 H   0  0  0  0  0  0  0  0  0  0  0  0
   -6.6933    1.4508   -1.0339 H   0  0  0  0  0  0  0  0  0  0  0  0
   -5.7562    1.2904   -2.5248 H   0  0  0  0  0  0  0  0  0  0  0  0
   -1.9096   -3.0857   -0.5468 H   0  0  0  0  0  0  0  0  0  0  0  0
   -0.0085   -2.5489    0.9204 H   0  0  0  0  0  0  0  0  0  0  0  0
    2.2480   -0.1004    3.8615 H   0  0  0  0  0  0  0  0  0  0  0  0
    2.6852   -1.7936    3.6757 H   0  0  0  0  0  0  0  0  0  0  0  0
    2.9575    1.2829    1.8487 H   0  0  0  0  0  0  0  0  0  0  0  0
    5.6255    1.6026    1.9794 H   0  0  0  0  0  0  0  0  0  0  0  0
    4.6253    2.2307    0.6611 H   0  0  0  0  0  0  0  0  0  0  0  0
    6.3865   -0.2583    0.7065 H   0  0  0  0  0  0  0  0  0  0  0  0
    5.0403   -0.2076   -0.4132 H   0  0  0  0  0  0  0  0  0  0  0  0
    4.7384    0.4559   -2.2284 H   0  0  0  0  0  0  0  0  0  0  0  0
    6.9080    2.9782   -3.5260 H   0  0  0  0  0  0  0  0  0  0  0  0
   -1.0015    1.6581    0.6662 H   0  0  0  0  0  0  0  0  0  0  0  0
   -2.9129    1.1086   -0.8068 H   0  0  0  0  0  0  0  0  0  0  0  0
  1  2  1  0
  2  3  1  0
  3  4  1  0
  4  5  1  0
  3  6  1  0
  6  7  2  0
  6  8  2  0
  6  9  1  0
  9 10  2  0
 10 11  1  0
 11 12  2  0
 12 13  1  0
 13 14  2  0
 13 15  1  0
 15 16  1  0
 16 17  1  0
 17 18  2  0
 17 19  1  0
 19 20  1  0
 20 21  1  0
 21 22  1  0
 22 23  1  0
 23 24  1  0
 23 25  2  0
 25 26  1  0
 26 27  1  0
 27 28  2  0
 12 29  1  0
 29 30  2  0
 30  9  1  0
 27 22  1  0
  1 31  1  0
  1 32  1  0
  1 33  1  0
  2 34  1  0
  2 35  1  0
  4 36  1  0
  4 37  1  0
  5 38  1  0
  5 39  1  0
  5 40  1  0
 10 41  1  0
 11 42  1  0
 16 43  1  0
 16 44  1  0
 19 45  1  0
 20 46  1  0
 20 47  1  0
 21 48  1  0
 21 49  1  0
 24 50  1  0
 25 51  1  0
 29 52  1  0
 30 53  1  0
M  END
$$$$
