
     RDKit          3D

 34 36  0  0  0  0  0  0  0  0999 V2000
    3.1624   -2.1158    0.5594 C   0  0  0  0  0  0  0  0  0  0  0  0
    3.8781   -0.8600    0.5107 N   0  0  0  0  0  0  0  0  0  0  0  0
    5.1867   -0.8780    0.1818 N   0  0  0  0  0  0  0  0  0  0  0  0
    5.5661    0.3919    0.3423 C   0  0  0  0  0  0  0  0  0  0  0  0
    4.5022    1.2194    0.7380 C   0  0  0  0  0  0  0  0  0  0  0  0
    4.6101    2.8878    1.0141 Cl  0  0  0  0  0  0  0  0  0  0  0  0
    3.3974    0.3942    0.8044 C   0  0  0  0  0  0  0  0  0  0  0  0
    2.0401    0.7311    1.1645 C   0  0  0  0  0  0  0  0  0  0  0  0
    1.7957    1.3765    2.1746 O   0  0  0  0  0  0  0  0  0  0  0  0
    1.1197    0.2596    0.2486 N   0  0  0  0  0  0  0  0  0  0  0  0
   -0.2637    0.3724    0.2866 C   0  0  0  0  0  0  0  0  0  0  0  0
   -1.0628    1.1254    1.5985 S   0  0  0  0  0  0  0  0  0  0  0  0
   -2.5418    0.8845    0.8735 C   0  0  0  0  0  0  0  0  0  0  0  0
   -2.4807    0.2357   -0.3294 C   0  0  0  0  0  0  0  0  0  0  0  0
   -1.1432   -0.1073   -0.6937 C   0  0  0  0  0  0  0  0  0  0  0  0
   -0.6543   -0.8254   -1.8703 C   0  0  0  0  0  0  0  0  0  0  0  0
   -1.5855   -1.3558   -2.7123 N   0  0  0  0  0  0  0  0  0  0  0  0
    0.5431   -0.9894   -2.0980 O   0  0  0  0  0  0  0  0  0  0  0  0
   -3.8474    0.0837   -0.8983 C   0  0  0  0  0  0  0  0  0  0  0  0
   -4.6982    1.0489   -0.0162 C   0  0  0  0  0  0  0  0  0  0  0  0
   -3.9075    1.2582    1.3070 C   0  0  0  0  0  0  0  0  0  0  0  0
    2.3953   -2.0669    1.3355 H   0  0  0  0  0  0  0  0  0  0  0  0
    2.7139   -2.2895   -0.4214 H   0  0  0  0  0  0  0  0  0  0  0  0
    3.8656   -2.9177    0.8004 H   0  0  0  0  0  0  0  0  0  0  0  0
    6.5986    0.6606    0.1609 H   0  0  0  0  0  0  0  0  0  0  0  0
    1.4744   -0.1619   -0.6092 H   0  0  0  0  0  0  0  0  0  0  0  0
   -1.2410   -1.9250   -3.4736 H   0  0  0  0  0  0  0  0  0  0  0  0
   -2.5633   -1.4146   -2.4812 H   0  0  0  0  0  0  0  0  0  0  0  0
   -3.9045    0.3727   -1.9513 H   0  0  0  0  0  0  0  0  0  0  0  0
   -4.1981   -0.9471   -0.7810 H   0  0  0  0  0  0  0  0  0  0  0  0
   -5.7102    0.6704    0.1577 H   0  0  0  0  0  0  0  0  0  0  0  0
   -4.7920    2.0135   -0.5327 H   0  0  0  0  0  0  0  0  0  0  0  0
   -4.2694    0.5768    2.0837 H   0  0  0  0  0  0  0  0  0  0  0  0
   -3.9858    2.2909    1.6574 H   0  0  0  0  0  0  0  0  0  0  0  0
  1  2  1  0
  2  3  1  0
  3  4  2  0
  4  5  1  0
  5  6  1  0
  5  7  2  0
  7  8  1  0
  8  9  2  0
  8 10  1  0
 10 11  1  0
 11 12  1  0
 12 13  1  0
 13 14  2  0
 14 15  1  0
 15 16  1  0
 16 17  1  0
 16 18  2  0
 14 19  1  0
 19 20  1  0
 20 21  1  0
  7  2  1  0
 15 11  2  0
 21 13  1  0
  1 22  1  0
  1 23  1  0
  1 24  1  0
  4 25  1  0
 10 26  1  0
 17 27  1  0
 17 28  1  0
 19 29  1  0
 19 30  1  0
 20 31  1  0
 20 32  1  0
 21 33  1  0
 21 34  1  0
M  END
$$$$
