
     RDKit          3D

 32 34  0  0  0  0  0  0  0  0999 V2000
   -2.7805    1.5681   -2.4915 C   0  0  0  0  0  0  0  0  0  0  0  0
   -3.1626    0.2581   -1.8274 C   0  0  0  0  0  0  0  0  0  0  0  0
   -2.5547   -0.8111   -2.5603 O   0  0  0  0  0  0  0  0  0  0  0  0
   -2.0890   -1.8105   -1.7269 C   0  0  0  0  0  0  0  0  0  0  0  0
   -2.6474   -3.0812   -1.9005 C   0  0  0  0  0  0  0  0  0  0  0  0
   -2.2024   -4.1539   -1.1358 C   0  0  0  0  0  0  0  0  0  0  0  0
   -1.1744   -3.9893   -0.2022 C   0  0  0  0  0  0  0  0  0  0  0  0
   -0.5969   -2.7163   -0.0603 C   0  0  0  0  0  0  0  0  0  0  0  0
    0.6838   -2.2173    0.9744 S   0  0  0  0  0  0  0  0  0  0  0  0
    0.5756   -0.6396    0.3592 C   0  0  0  0  0  0  0  0  0  0  0  0
    1.3946    0.3862    0.7509 N   0  0  0  0  0  0  0  0  0  0  0  0
    2.3768    0.3619    1.7192 C   0  0  0  0  0  0  0  0  0  0  0  0
    2.6159   -0.5999    2.4427 O   0  0  0  0  0  0  0  0  0  0  0  0
    3.1189    1.6225    1.8270 C   0  0  0  0  0  0  0  0  0  0  0  0
    3.1950    2.7043    0.9604 C   0  0  0  0  0  0  0  0  0  0  0  0
    4.0507    3.7425    1.4465 C   0  0  0  0  0  0  0  0  0  0  0  0
    4.5966    3.4083    2.6575 C   0  0  0  0  0  0  0  0  0  0  0  0
    5.8003    4.5398    3.6190 Br  0  0  0  0  0  0  0  0  0  0  0  0
    4.1062    1.8896    3.2162 S   0  0  0  0  0  0  0  0  0  0  0  0
   -0.3395   -0.4345   -0.5551 N   0  0  0  0  0  0  0  0  0  0  0  0
   -1.0266   -1.6177   -0.8087 C   0  0  0  0  0  0  0  0  0  0  0  0
   -3.0852    1.5694   -3.5435 H   0  0  0  0  0  0  0  0  0  0  0  0
   -3.2508    2.4156   -1.9861 H   0  0  0  0  0  0  0  0  0  0  0  0
   -1.6953    1.7064   -2.4744 H   0  0  0  0  0  0  0  0  0  0  0  0
   -4.2491    0.1238   -1.8790 H   0  0  0  0  0  0  0  0  0  0  0  0
   -2.8794    0.2899   -0.7690 H   0  0  0  0  0  0  0  0  0  0  0  0
   -3.4343   -3.2255   -2.6356 H   0  0  0  0  0  0  0  0  0  0  0  0
   -2.6539   -5.1354   -1.2686 H   0  0  0  0  0  0  0  0  0  0  0  0
   -0.8222   -4.8298    0.3895 H   0  0  0  0  0  0  0  0  0  0  0  0
    1.1896    1.2417    0.2612 H   0  0  0  0  0  0  0  0  0  0  0  0
    2.6867    2.7661    0.0058 H   0  0  0  0  0  0  0  0  0  0  0  0
    4.2534    4.6678    0.9198 H   0  0  0  0  0  0  0  0  0  0  0  0
  1  2  1  0
  2  3  1  0
  3  4  1  0
  4  5  2  0
  5  6  1  0
  6  7  2  0
  7  8  1  0
  8  9  1  0
  9 10  1  0
 10 11  1  0
 11 12  1  0
 12 13  2  0
 12 14  1  0
 14 15  2  0
 15 16  1  0
 16 17  2  0
 17 18  1  0
 17 19  1  0
 10 20  2  0
 20 21  1  0
 21  4  1  0
 21  8  2  0
 19 14  1  0
  1 22  1  0
  1 23  1  0
  1 24  1  0
  2 25  1  0
  2 26  1  0
  5 27  1  0
  6 28  1  0
  7 29  1  0
 11 30  1  0
 15 31  1  0
 16 32  1  0
M  END
$$$$
