
     RDKit          3D

 40 41  0  0  0  0  0  0  0  0999 V2000
    7.5746   -1.4570    0.7200 C   0  0  0  0  0  0  0  0  0  0  0  0
    6.8942   -0.2587    0.3685 O   0  0  0  0  0  0  0  0  0  0  0  0
    5.5320   -0.2647    0.4814 C   0  0  0  0  0  0  0  0  0  0  0  0
    4.7443   -1.3454    0.8736 C   0  0  0  0  0  0  0  0  0  0  0  0
    3.3513   -1.2125    0.9447 C   0  0  0  0  0  0  0  0  0  0  0  0
    2.7281    0.0031    0.6367 C   0  0  0  0  0  0  0  0  0  0  0  0
    1.2624    0.0861    0.6932 C   0  0  0  0  0  0  0  0  0  0  0  0
    0.5978    1.1770    1.1064 C   0  0  0  0  0  0  0  0  0  0  0  0
   -0.8849    1.2356    1.2045 C   0  0  0  0  0  0  0  0  0  0  0  0
   -1.3882    1.8213    2.1535 O   0  0  0  0  0  0  0  0  0  0  0  0
   -1.5386    0.6605    0.1339 N   0  0  0  0  0  0  0  0  0  0  0  0
   -2.8998    0.5253   -0.0825 C   0  0  0  0  0  0  0  0  0  0  0  0
   -3.8037    0.8891    0.8340 C   0  0  0  0  0  0  0  0  0  0  0  0
   -5.2409    0.7268    0.5915 C   0  0  0  0  0  0  0  0  0  0  0  0
   -6.0321    1.0062    1.4888 O   0  0  0  0  0  0  0  0  0  0  0  0
   -5.5965    0.2560   -0.6494 N   0  0  0  0  0  0  0  0  0  0  0  0
   -7.0072    0.0897   -0.9433 C   0  0  0  0  0  0  0  0  0  0  0  0
   -4.6880   -0.1868   -1.5968 C   0  0  0  0  0  0  0  0  0  0  0  0
   -5.0629   -0.7013   -2.6534 O   0  0  0  0  0  0  0  0  0  0  0  0
   -3.3329   -0.0253   -1.2862 N   0  0  0  0  0  0  0  0  0  0  0  0
   -2.3783   -0.4662   -2.2996 C   0  0  0  0  0  0  0  0  0  0  0  0
    3.5237    1.0794    0.2298 C   0  0  0  0  0  0  0  0  0  0  0  0
    4.9137    0.9442    0.1580 C   0  0  0  0  0  0  0  0  0  0  0  0
    7.4019   -1.7163    1.7698 H   0  0  0  0  0  0  0  0  0  0  0  0
    7.2902   -2.2806    0.0568 H   0  0  0  0  0  0  0  0  0  0  0  0
    8.6472   -1.2822    0.5924 H   0  0  0  0  0  0  0  0  0  0  0  0
    5.1781   -2.3059    1.1308 H   0  0  0  0  0  0  0  0  0  0  0  0
    2.7610   -2.0719    1.2566 H   0  0  0  0  0  0  0  0  0  0  0  0
    0.7329   -0.8237    0.4209 H   0  0  0  0  0  0  0  0  0  0  0  0
    1.1037    2.0592    1.4856 H   0  0  0  0  0  0  0  0  0  0  0  0
   -0.9368    0.3458   -0.6107 H   0  0  0  0  0  0  0  0  0  0  0  0
   -3.5640    1.3059    1.8027 H   0  0  0  0  0  0  0  0  0  0  0  0
   -7.2633   -0.9676   -0.8206 H   0  0  0  0  0  0  0  0  0  0  0  0
   -7.6355    0.6887   -0.2783 H   0  0  0  0  0  0  0  0  0  0  0  0
   -7.2126    0.3814   -1.9782 H   0  0  0  0  0  0  0  0  0  0  0  0
   -1.7737    0.3884   -2.6208 H   0  0  0  0  0  0  0  0  0  0  0  0
   -2.8615   -0.8812   -3.1880 H   0  0  0  0  0  0  0  0  0  0  0  0
   -1.7374   -1.2463   -1.8757 H   0  0  0  0  0  0  0  0  0  0  0  0
    3.0810    2.0335   -0.0447 H   0  0  0  0  0  0  0  0  0  0  0  0
    5.5207    1.7904   -0.1559 H   0  0  0  0  0  0  0  0  0  0  0  0
  1  2  1  0
  2  3  1  0
  3  4  2  0
  4  5  1  0
  5  6  2  0
  6  7  1  0
  7  8  2  3
  8  9  1  0
  9 10  2  0
  9 11  1  0
 11 12  1  0
 12 13  2  0
 13 14  1  0
 14 15  2  0
 14 16  1  0
 16 17  1  0
 16 18  1  0
 18 19  2  0
 18 20  1  0
 20 21  1  0
  6 22  1  0
 22 23  2  0
 23  3  1  0
 20 12  1  0
  1 24  1  0
  1 25  1  0
  1 26  1  0
  4 27  1  0
  5 28  1  0
  7 29  1  0
  8 30  1  0
 11 31  1  0
 13 32  1  0
 17 33  1  0
 17 34  1  0
 17 35  1  0
 21 36  1  0
 21 37  1  0
 21 38  1  0
 22 39  1  0
 23 40  1  0
M  END
$$$$
