
     RDKit          3D

 46 49  0  0  0  0  0  0  0  0999 V2000
    3.3161   -1.8667   -2.5666 O   0  0  0  0  0  0  0  0  0  0  0  0
    2.7190   -0.8174   -2.3408 C   0  0  0  0  0  0  0  0  0  0  0  0
    1.2037   -0.7820   -2.2316 C   0  0  0  0  0  0  0  0  0  0  0  0
    0.7313   -0.5276   -0.4956 S   0  0  0  0  0  0  0  0  0  0  0  0
   -0.9868   -0.4475   -0.6552 C   0  0  0  0  0  0  0  0  0  0  0  0
   -1.6478   -0.4315   -1.7876 N   0  0  0  0  0  0  0  0  0  0  0  0
   -2.9837   -0.3547   -1.4910 N   0  0  0  0  0  0  0  0  0  0  0  0
   -3.1156   -0.3247   -0.1784 C   0  0  0  0  0  0  0  0  0  0  0  0
   -4.4123   -0.2268    0.5571 C   0  0  0  0  0  0  0  0  0  0  0  0
   -4.8271   -1.5252    1.1929 C   0  0  0  0  0  0  0  0  0  0  0  0
   -4.8592   -2.7887    0.6329 C   0  0  0  0  0  0  0  0  0  0  0  0
   -5.3099   -3.7796    1.5517 C   0  0  0  0  0  0  0  0  0  0  0  0
   -5.6277   -3.2391    2.7771 C   0  0  0  0  0  0  0  0  0  0  0  0
   -5.3764   -1.5496    2.8186 S   0  0  0  0  0  0  0  0  0  0  0  0
   -1.8616   -0.3878    0.3961 N   0  0  0  0  0  0  0  0  0  0  0  0
   -1.5510   -0.4435    1.8120 C   0  0  0  0  0  0  0  0  0  0  0  0
   -1.6186    0.9005    2.4373 C   0  0  0  0  0  0  0  0  0  0  0  0
   -2.3612    1.4254    3.4762 C   0  0  0  0  0  0  0  0  0  0  0  0
   -1.9596    2.7770    3.6114 C   0  0  0  0  0  0  0  0  0  0  0  0
   -0.9970    2.9892    2.6530 C   0  0  0  0  0  0  0  0  0  0  0  0
   -0.7783    1.8547    1.9406 O   0  0  0  0  0  0  0  0  0  0  0  0
    3.2976    0.4300   -2.1741 N   0  0  0  0  0  0  0  0  0  0  0  0
    4.6691    0.7730   -2.2178 C   0  0  0  0  0  0  0  0  0  0  0  0
    5.6793   -0.1449   -2.5179 C   0  0  0  0  0  0  0  0  0  0  0  0
    7.0204    0.2545   -2.5437 C   0  0  0  0  0  0  0  0  0  0  0  0
    7.3597    1.5770   -2.2677 C   0  0  0  0  0  0  0  0  0  0  0  0
    9.0098    2.0608   -2.3009 Cl  0  0  0  0  0  0  0  0  0  0  0  0
    6.3713    2.5113   -1.9764 C   0  0  0  0  0  0  0  0  0  0  0  0
    5.0348    2.1074   -1.9503 C   0  0  0  0  0  0  0  0  0  0  0  0
    3.8331    3.3013   -1.5859 Cl  0  0  0  0  0  0  0  0  0  0  0  0
    0.8198    0.0238   -2.8655 H   0  0  0  0  0  0  0  0  0  0  0  0
    0.8009   -1.7324   -2.5970 H   0  0  0  0  0  0  0  0  0  0  0  0
   -4.3525    0.5784    1.2965 H   0  0  0  0  0  0  0  0  0  0  0  0
   -5.1972    0.0715   -0.1505 H   0  0  0  0  0  0  0  0  0  0  0  0
   -4.5673   -2.9920   -0.3916 H   0  0  0  0  0  0  0  0  0  0  0  0
   -5.4061   -4.8347    1.3205 H   0  0  0  0  0  0  0  0  0  0  0  0
   -6.0010   -3.7550    3.6508 H   0  0  0  0  0  0  0  0  0  0  0  0
   -0.5573   -0.8778    1.9530 H   0  0  0  0  0  0  0  0  0  0  0  0
   -2.2546   -1.1348    2.2839 H   0  0  0  0  0  0  0  0  0  0  0  0
   -3.0964    0.8981    4.0698 H   0  0  0  0  0  0  0  0  0  0  0  0
   -2.3232    3.5070    4.3217 H   0  0  0  0  0  0  0  0  0  0  0  0
   -0.3992    3.8436    2.3662 H   0  0  0  0  0  0  0  0  0  0  0  0
    2.6722    1.1943   -1.9252 H   0  0  0  0  0  0  0  0  0  0  0  0
    5.4607   -1.1848   -2.7411 H   0  0  0  0  0  0  0  0  0  0  0  0
    7.7912   -0.4749   -2.7820 H   0  0  0  0  0  0  0  0  0  0  0  0
    6.6387    3.5449   -1.7753 H   0  0  0  0  0  0  0  0  0  0  0  0
  1  2  2  0
  2  3  1  0
  3  4  1  0
  4  5  1  0
  5  6  2  0
  6  7  1  0
  7  8  2  0
  8  9  1  0
  9 10  1  0
 10 11  2  0
 11 12  1  0
 12 13  2  0
 13 14  1  0
  8 15  1  0
 15 16  1  0
 16 17  1  0
 17 18  2  0
 18 19  1  0
 19 20  2  0
 20 21  1  0
  2 22  1  0
 22 23  1  0
 23 24  2  0
 24 25  1  0
 25 26  2  0
 26 27  1  0
 26 28  1  0
 28 29  2  0
 29 30  1  0
 15  5  1  0
 21 17  1  0
 29 23  1  0
 14 10  1  0
  3 31  1  0
  3 32  1  0
  9 33  1  0
  9 34  1  0
 11 35  1  0
 12 36  1  0
 13 37  1  0
 16 38  1  0
 16 39  1  0
 18 40  1  0
 19 41  1  0
 20 42  1  0
 22 43  1  0
 24 44  1  0
 25 45  1  0
 28 46  1  0
M  END
$$$$
