
     RDKit          3D

 63 67  0  0  0  0  0  0  0  0999 V2000
    7.4508   -0.3683   -4.1603 C   0  0  0  0  0  0  0  0  0  0  0  0
    6.9243    0.9444   -3.6114 C   0  0  0  0  0  0  0  0  0  0  0  0
    6.2470    0.7237   -2.3670 O   0  0  0  0  0  0  0  0  0  0  0  0
    4.9245    0.4008   -2.4599 C   0  0  0  0  0  0  0  0  0  0  0  0
    4.3077    0.2872   -3.5120 O   0  0  0  0  0  0  0  0  0  0  0  0
    4.3044    0.1981   -1.1563 C   0  0  0  0  0  0  0  0  0  0  0  0
    2.9480   -0.1538   -0.8984 C   0  0  0  0  0  0  0  0  0  0  0  0
    2.7560   -0.2218    0.4714 C   0  0  0  0  0  0  0  0  0  0  0  0
    1.5891   -0.5253    1.2968 C   0  0  0  0  0  0  0  0  0  0  0  0
    0.2894   -0.6901    0.8301 N   0  0  0  0  0  0  0  0  0  0  0  0
   -0.1913   -0.2093   -0.4647 C   0  0  0  0  0  0  0  0  0  0  0  0
   -1.6865    0.1840   -0.4074 C   0  0  0  0  0  0  0  0  0  0  0  0
   -2.5543   -0.8936    0.1219 N   0  0  0  0  0  0  0  0  0  0  0  0
   -3.9623   -0.4647    0.2209 C   0  0  0  0  0  0  0  0  0  0  0  0
   -4.6475   -0.3338   -1.1518 C   0  0  0  0  0  0  0  0  0  0  0  0
   -6.1134    0.0362   -1.0205 C   0  0  0  0  0  0  0  0  0  0  0  0
   -7.0420   -0.9977   -0.7993 C   0  0  0  0  0  0  0  0  0  0  0  0
   -8.4011   -0.7229   -0.6569 C   0  0  0  0  0  0  0  0  0  0  0  0
   -8.8557    0.5885   -0.7313 C   0  0  0  0  0  0  0  0  0  0  0  0
   -7.9495    1.6271   -0.9474 C   0  0  0  0  0  0  0  0  0  0  0  0
   -6.5714    1.3728   -1.0908 C   0  0  0  0  0  0  0  0  0  0  0  0
   -5.6330    2.5362   -1.3330 C   0  0  0  0  0  0  0  0  0  0  0  0
   -4.5960    2.5741   -0.4487 F   0  0  0  0  0  0  0  0  0  0  0  0
   -6.2376    3.7555   -1.2359 F   0  0  0  0  0  0  0  0  0  0  0  0
   -5.0674    2.5055   -2.5721 F   0  0  0  0  0  0  0  0  0  0  0  0
   -2.0468   -1.2699    1.4636 C   0  0  0  0  0  0  0  0  0  0  0  0
   -0.5732   -1.7193    1.4349 C   0  0  0  0  0  0  0  0  0  0  0  0
    1.7701   -0.6494    2.5911 N   0  0  0  0  0  0  0  0  0  0  0  0
    3.0316   -0.4479    3.1769 C   0  0  0  0  0  0  0  0  0  0  0  0
    3.1499   -0.5861    4.5613 C   0  0  0  0  0  0  0  0  0  0  0  0
    4.3779   -0.3851    5.1968 C   0  0  0  0  0  0  0  0  0  0  0  0
    5.5034   -0.0403    4.4485 C   0  0  0  0  0  0  0  0  0  0  0  0
    5.4070    0.1038    3.0638 C   0  0  0  0  0  0  0  0  0  0  0  0
    4.1709   -0.1015    2.4427 C   0  0  0  0  0  0  0  0  0  0  0  0
    3.9870    0.0031    1.0547 N   0  0  0  0  0  0  0  0  0  0  0  0
    4.9123    0.2972    0.0827 C   0  0  0  0  0  0  0  0  0  0  0  0
    8.1016   -0.8575   -3.4276 H   0  0  0  0  0  0  0  0  0  0  0  0
    6.6314   -1.0625   -4.3723 H   0  0  0  0  0  0  0  0  0  0  0  0
    8.0176   -0.2039   -5.0812 H   0  0  0  0  0  0  0  0  0  0  0  0
    6.2771    1.4515   -4.3358 H   0  0  0  0  0  0  0  0  0  0  0  0
    7.7623    1.6181   -3.4045 H   0  0  0  0  0  0  0  0  0  0  0  0
    2.2078   -0.3347   -1.6653 H   0  0  0  0  0  0  0  0  0  0  0  0
   -0.0423   -0.9867   -1.2233 H   0  0  0  0  0  0  0  0  0  0  0  0
    0.3566    0.6877   -0.7717 H   0  0  0  0  0  0  0  0  0  0  0  0
   -1.7904    1.0882    0.2077 H   0  0  0  0  0  0  0  0  0  0  0  0
   -1.9888    0.4463   -1.4263 H   0  0  0  0  0  0  0  0  0  0  0  0
   -4.0466    0.4726    0.7862 H   0  0  0  0  0  0  0  0  0  0  0  0
   -4.5179   -1.2190    0.7947 H   0  0  0  0  0  0  0  0  0  0  0  0
   -4.5700   -1.2856   -1.6953 H   0  0  0  0  0  0  0  0  0  0  0  0
   -4.1392    0.3998   -1.7845 H   0  0  0  0  0  0  0  0  0  0  0  0
   -6.7065   -2.0322   -0.7381 H   0  0  0  0  0  0  0  0  0  0  0  0
   -9.1040   -1.5353   -0.4887 H   0  0  0  0  0  0  0  0  0  0  0  0
   -9.9159    0.8045   -0.6228 H   0  0  0  0  0  0  0  0  0  0  0  0
   -8.3274    2.6478   -1.0042 H   0  0  0  0  0  0  0  0  0  0  0  0
   -2.6442   -2.1000    1.8602 H   0  0  0  0  0  0  0  0  0  0  0  0
   -2.1516   -0.4268    2.1600 H   0  0  0  0  0  0  0  0  0  0  0  0
   -0.4772   -2.6450    0.8533 H   0  0  0  0  0  0  0  0  0  0  0  0
   -0.2728   -1.9567    2.4617 H   0  0  0  0  0  0  0  0  0  0  0  0
    2.2728   -0.8503    5.1460 H   0  0  0  0  0  0  0  0  0  0  0  0
    4.4526   -0.4970    6.2755 H   0  0  0  0  0  0  0  0  0  0  0  0
    6.4576    0.1148    4.9462 H   0  0  0  0  0  0  0  0  0  0  0  0
    6.2979    0.3695    2.5049 H   0  0  0  0  0  0  0  0  0  0  0  0
    5.9374    0.5350    0.3284 H   0  0  0  0  0  0  0  0  0  0  0  0
  1  2  1  0
  2  3  1  0
  3  4  1  0
  4  5  2  0
  4  6  1  0
  6  7  1  0
  7  8  2  0
  8  9  1  0
  9 10  1  0
 10 11  1  0
 11 12  1  0
 12 13  1  0
 13 14  1  0
 14 15  1  0
 15 16  1  0
 16 17  2  0
 17 18  1  0
 18 19  2  0
 19 20  1  0
 20 21  2  0
 21 22  1  0
 22 23  1  0
 22 24  1  0
 22 25  1  0
 13 26  1  0
 26 27  1  0
  9 28  2  0
 28 29  1  0
 29 30  2  0
 30 31  1  0
 31 32  2  0
 32 33  1  0
 33 34  2  0
 34 35  1  0
 35 36  1  0
 36  6  2  0
 35  8  1  0
 27 10  1  0
 34 29  1  0
 21 16  1  0
  1 37  1  0
  1 38  1  0
  1 39  1  0
  2 40  1  0
  2 41  1  0
  7 42  1  0
 11 43  1  0
 11 44  1  0
 12 45  1  0
 12 46  1  0
 14 47  1  0
 14 48  1  0
 15 49  1  0
 15 50  1  0
 17 51  1  0
 18 52  1  0
 19 53  1  0
 20 54  1  0
 26 55  1  0
 26 56  1  0
 27 57  1  0
 27 58  1  0
 30 59  1  0
 31 60  1  0
 32 61  1  0
 33 62  1  0
 36 63  1  0
M  END
$$$$
