
     RDKit          3D

 31 32  0  0  0  0  0  0  0  0999 V2000
   -4.2903    0.7837    0.2937 C   0  0  0  0  0  0  0  0  0  0  0  0
   -2.9288    1.3585    0.0022 C   0  0  0  0  0  0  0  0  0  0  0  0
   -2.8356    2.5615   -0.2524 O   0  0  0  0  0  0  0  0  0  0  0  0
   -1.7385    0.4873    0.0230 C   0  0  0  0  0  0  0  0  0  0  0  0
   -1.6913   -0.9035    0.0772 C   0  0  0  0  0  0  0  0  0  0  0  0
   -2.7441   -1.9542    0.1145 C   0  0  0  0  0  0  0  0  0  0  0  0
   -0.3689   -1.2760    0.0725 N   0  0  0  0  0  0  0  0  0  0  0  0
    0.4528   -0.1814   -0.0010 C   0  0  0  0  0  0  0  0  0  0  0  0
    1.9054   -0.3241   -0.0628 C   0  0  0  0  0  0  0  0  0  0  0  0
    2.6241    0.2131   -1.1372 C   0  0  0  0  0  0  0  0  0  0  0  0
    4.0112    0.0659   -1.2056 C   0  0  0  0  0  0  0  0  0  0  0  0
    4.6901   -0.6198   -0.1998 C   0  0  0  0  0  0  0  0  0  0  0  0
    3.9838   -1.1576    0.8749 C   0  0  0  0  0  0  0  0  0  0  0  0
    2.5963   -1.0115    0.9431 C   0  0  0  0  0  0  0  0  0  0  0  0
   -0.3644    0.9397   -0.0221 C   0  0  0  0  0  0  0  0  0  0  0  0
    0.0838    2.3640   -0.0699 C   0  0  0  0  0  0  0  0  0  0  0  0
   -5.0166    1.5988    0.3755 H   0  0  0  0  0  0  0  0  0  0  0  0
   -4.6066    0.1290   -0.5208 H   0  0  0  0  0  0  0  0  0  0  0  0
   -4.2821    0.2513    1.2475 H   0  0  0  0  0  0  0  0  0  0  0  0
   -3.4146   -1.8596   -0.7446 H   0  0  0  0  0  0  0  0  0  0  0  0
   -3.3294   -1.8833    1.0358 H   0  0  0  0  0  0  0  0  0  0  0  0
   -2.3104   -2.9596    0.0792 H   0  0  0  0  0  0  0  0  0  0  0  0
   -0.0337   -2.2301    0.0831 H   0  0  0  0  0  0  0  0  0  0  0  0
    2.1045    0.7457   -1.9306 H   0  0  0  0  0  0  0  0  0  0  0  0
    4.5598    0.4874   -2.0437 H   0  0  0  0  0  0  0  0  0  0  0  0
    5.7700   -0.7313   -0.2517 H   0  0  0  0  0  0  0  0  0  0  0  0
    4.5134   -1.6854    1.6636 H   0  0  0  0  0  0  0  0  0  0  0  0
    2.0612   -1.4216    1.7960 H   0  0  0  0  0  0  0  0  0  0  0  0
    1.1599    2.4606    0.1019 H   0  0  0  0  0  0  0  0  0  0  0  0
   -0.1440    2.8005   -1.0474 H   0  0  0  0  0  0  0  0  0  0  0  0
   -0.4172    2.9521    0.7057 H   0  0  0  0  0  0  0  0  0  0  0  0
  1  2  1  0
  2  3  2  0
  2  4  1  0
  4  5  2  0
  5  6  1  0
  5  7  1  0
  7  8  1  0
  8  9  1  0
  9 10  2  0
 10 11  1  0
 11 12  2  0
 12 13  1  0
 13 14  2  0
  8 15  2  0
 15 16  1  0
 15  4  1  0
 14  9  1  0
  1 17  1  0
  1 18  1  0
  1 19  1  0
  6 20  1  0
  6 21  1  0
  6 22  1  0
  7 23  1  0
 10 24  1  0
 11 25  1  0
 12 26  1  0
 13 27  1  0
 14 28  1  0
 16 29  1  0
 16 30  1  0
 16 31  1  0
M  END
$$$$
