
     RDKit          3D

 39 41  0  0  0  0  0  0  0  0999 V2000
   -4.1150   -0.8042    5.1661 C   0  0  0  0  0  0  0  0  0  0  0  0
   -2.8009   -0.3951    4.8055 O   0  0  0  0  0  0  0  0  0  0  0  0
   -2.2751   -0.9374    3.6650 C   0  0  0  0  0  0  0  0  0  0  0  0
   -2.9225   -1.8312    2.8079 C   0  0  0  0  0  0  0  0  0  0  0  0
   -2.2705   -2.3060    1.6652 C   0  0  0  0  0  0  0  0  0  0  0  0
   -0.9707   -1.8775    1.3800 C   0  0  0  0  0  0  0  0  0  0  0  0
   -0.1527   -2.4961   -0.0686 S   0  0  0  0  0  6  0  0  0  0  0  0
    1.2391   -2.1040   -0.0279 O   0  0  0  0  0  0  0  0  0  0  0  0
   -0.5349   -3.8860   -0.2125 O   0  0  0  0  0  0  0  0  0  0  0  0
   -0.9392   -1.6687   -1.3191 N   0  0  0  0  0  0  0  0  0  0  0  0
   -0.4672   -0.3706   -1.6593 C   0  0  0  0  0  0  0  0  0  0  0  0
   -0.8702    0.7358   -0.9146 C   0  0  0  0  0  0  0  0  0  0  0  0
   -0.3681    1.9980   -1.2261 C   0  0  0  0  0  0  0  0  0  0  0  0
    0.5426    2.1452   -2.2713 C   0  0  0  0  0  0  0  0  0  0  0  0
    0.9970    3.4161   -2.4958 O   0  0  0  0  0  0  0  0  0  0  0  0
    0.9554    1.0412   -3.0320 C   0  0  0  0  0  0  0  0  0  0  0  0
    2.0303    1.1673   -4.4549 S   0  0  0  0  0  0  0  0  0  0  0  0
    3.5397    1.6571   -3.7404 C   0  0  0  0  0  0  0  0  0  0  0  0
    4.6860    0.9186   -3.8238 N   0  0  0  0  0  0  0  0  0  0  0  0
    5.5609    1.6572   -3.1840 C   0  0  0  0  0  0  0  0  0  0  0  0
    4.9635    2.8002   -2.7551 N   0  0  0  0  0  0  0  0  0  0  0  0
    3.6669    2.8350   -3.1136 N   0  0  0  0  0  0  0  0  0  0  0  0
    0.4415   -0.2233   -2.7106 C   0  0  0  0  0  0  0  0  0  0  0  0
   -0.3078   -0.9988    2.2378 C   0  0  0  0  0  0  0  0  0  0  0  0
   -0.9685   -0.5272    3.3741 C   0  0  0  0  0  0  0  0  0  0  0  0
   -4.3845   -0.2869    6.0925 H   0  0  0  0  0  0  0  0  0  0  0  0
   -4.8430   -0.5158    4.4007 H   0  0  0  0  0  0  0  0  0  0  0  0
   -4.1521   -1.8810    5.3631 H   0  0  0  0  0  0  0  0  0  0  0  0
   -3.9322   -2.1812    3.0002 H   0  0  0  0  0  0  0  0  0  0  0  0
   -2.7790   -3.0068    1.0057 H   0  0  0  0  0  0  0  0  0  0  0  0
   -1.1492   -2.3081   -2.0854 H   0  0  0  0  0  0  0  0  0  0  0  0
   -1.5837    0.6340   -0.1025 H   0  0  0  0  0  0  0  0  0  0  0  0
   -0.6803    2.8673   -0.6535 H   0  0  0  0  0  0  0  0  0  0  0  0
    1.8744    3.3410   -2.9308 H   0  0  0  0  0  0  0  0  0  0  0  0
    6.6019    1.4257   -3.0092 H   0  0  0  0  0  0  0  0  0  0  0  0
    5.3617    3.5755   -2.2360 H   0  0  0  0  0  0  0  0  0  0  0  0
    0.7563   -1.0962   -3.2777 H   0  0  0  0  0  0  0  0  0  0  0  0
    0.7095   -0.6751    2.0312 H   0  0  0  0  0  0  0  0  0  0  0  0
   -0.4594    0.1619    4.0450 H   0  0  0  0  0  0  0  0  0  0  0  0
  1  2  1  0
  2  3  1  0
  3  4  2  0
  4  5  1  0
  5  6  2  0
  6  7  1  0
  7  8  2  0
  7  9  2  0
  7 10  1  0
 10 11  1  0
 11 12  2  0
 12 13  1  0
 13 14  2  0
 14 15  1  0
 14 16  1  0
 16 17  1  0
 17 18  1  0
 18 19  1  0
 19 20  2  0
 20 21  1  0
 21 22  1  0
 16 23  2  0
  6 24  1  0
 24 25  2  0
 25  3  1  0
 23 11  1  0
 22 18  2  0
  1 26  1  0
  1 27  1  0
  1 28  1  0
  4 29  1  0
  5 30  1  0
 10 31  1  0
 12 32  1  0
 13 33  1  0
 15 34  1  0
 20 35  1  0
 21 36  1  0
 23 37  1  0
 24 38  1  0
 25 39  1  0
M  END
$$$$
