
     RDKit          3D

 37 38  0  0  0  0  0  0  0  0999 V2000
   -7.6999    0.2835   -0.4223 C   0  0  0  0  0  0  0  0  0  0  0  0
   -6.3603   -0.4104   -0.4335 C   0  0  0  0  0  0  0  0  0  0  0  0
   -6.2720   -1.5957   -0.7317 O   0  0  0  0  0  0  0  0  0  0  0  0
   -5.3317    0.4314   -0.0497 N   0  0  0  0  0  0  0  0  0  0  0  0
   -3.9596    0.1216    0.0460 C   0  0  0  0  0  0  0  0  0  0  0  0
   -3.1042    1.1393    0.4890 C   0  0  0  0  0  0  0  0  0  0  0  0
   -1.7276    0.9170    0.6121 C   0  0  0  0  0  0  0  0  0  0  0  0
   -1.1870   -0.3326    0.2916 C   0  0  0  0  0  0  0  0  0  0  0  0
    0.2672   -0.6225    0.3984 C   0  0  0  0  0  0  0  0  0  0  0  0
    0.7960   -1.6252   -0.0555 O   0  0  0  0  0  0  0  0  0  0  0  0
    0.8999    0.3578    1.0922 O   0  0  0  0  0  0  0  0  0  0  0  0
    2.3201    0.2057    1.1462 C   0  0  0  0  0  0  0  0  0  0  0  0
    2.9871    0.6528   -0.1518 C   0  0  0  0  0  0  0  0  0  0  0  0
    2.3890    1.3094   -1.0044 O   0  0  0  0  0  0  0  0  0  0  0  0
    4.4210    0.2994   -0.3791 C   0  0  0  0  0  0  0  0  0  0  0  0
    5.2346   -0.2317    0.6323 C   0  0  0  0  0  0  0  0  0  0  0  0
    6.5723   -0.5393    0.3640 C   0  0  0  0  0  0  0  0  0  0  0  0
    7.0926   -0.3144   -0.9057 C   0  0  0  0  0  0  0  0  0  0  0  0
    8.3746   -0.6100   -1.1543 F   0  0  0  0  0  0  0  0  0  0  0  0
    6.3021    0.2150   -1.9173 C   0  0  0  0  0  0  0  0  0  0  0  0
    4.9658    0.5238   -1.6543 C   0  0  0  0  0  0  0  0  0  0  0  0
   -2.0371   -1.3477   -0.1596 C   0  0  0  0  0  0  0  0  0  0  0  0
   -3.4145   -1.1218   -0.2784 C   0  0  0  0  0  0  0  0  0  0  0  0
   -8.3816   -0.2328   -1.1045 H   0  0  0  0  0  0  0  0  0  0  0  0
   -7.6072    1.3205   -0.7577 H   0  0  0  0  0  0  0  0  0  0  0  0
   -8.1114    0.2596    0.5901 H   0  0  0  0  0  0  0  0  0  0  0  0
   -5.5904    1.3769    0.2024 H   0  0  0  0  0  0  0  0  0  0  0  0
   -3.4926    2.1225    0.7428 H   0  0  0  0  0  0  0  0  0  0  0  0
   -1.0895    1.7310    0.9477 H   0  0  0  0  0  0  0  0  0  0  0  0
    2.5815   -0.8290    1.3931 H   0  0  0  0  0  0  0  0  0  0  0  0
    2.6790    0.8544    1.9518 H   0  0  0  0  0  0  0  0  0  0  0  0
    4.8617   -0.4113    1.6361 H   0  0  0  0  0  0  0  0  0  0  0  0
    7.2134   -0.9522    1.1374 H   0  0  0  0  0  0  0  0  0  0  0  0
    6.7264    0.3840   -2.9021 H   0  0  0  0  0  0  0  0  0  0  0  0
    4.3486    0.9375   -2.4508 H   0  0  0  0  0  0  0  0  0  0  0  0
   -1.6354   -2.3243   -0.4245 H   0  0  0  0  0  0  0  0  0  0  0  0
   -4.0311   -1.9418   -0.6343 H   0  0  0  0  0  0  0  0  0  0  0  0
  1  2  1  0
  2  3  2  0
  2  4  1  0
  4  5  1  0
  5  6  2  0
  6  7  1  0
  7  8  2  0
  8  9  1  0
  9 10  2  0
  9 11  1  0
 11 12  1  0
 12 13  1  0
 13 14  2  0
 13 15  1  0
 15 16  2  0
 16 17  1  0
 17 18  2  0
 18 19  1  0
 18 20  1  0
 20 21  2  0
  8 22  1  0
 22 23  2  0
 23  5  1  0
 21 15  1  0
  1 24  1  0
  1 25  1  0
  1 26  1  0
  4 27  1  0
  6 28  1  0
  7 29  1  0
 12 30  1  0
 12 31  1  0
 16 32  1  0
 17 33  1  0
 20 34  1  0
 21 35  1  0
 22 36  1  0
 23 37  1  0
M  END
$$$$
