
     RDKit          3D

 48 51  0  0  0  0  0  0  0  0999 V2000
    1.8368   -3.5832    0.1544 C   0  0  0  0  0  0  0  0  0  0  0  0
    1.8941   -2.1118    0.4111 C   0  0  0  0  0  0  0  0  0  0  0  0
    0.9102   -1.2979    0.8291 C   0  0  0  0  0  0  0  0  0  0  0  0
   -0.3876   -1.4672    1.2248 N   0  0  0  0  0  0  0  0  0  0  0  0
   -1.0702   -2.6146    1.5564 C   0  0  0  0  0  0  0  0  0  0  0  0
   -0.5888   -3.7437    1.5970 O   0  0  0  0  0  0  0  0  0  0  0  0
   -2.5145   -2.3695    1.9689 C   0  0  0  0  0  0  0  0  0  0  0  0
   -3.5578   -1.9939    0.5248 S   0  0  0  0  0  0  0  0  0  0  0  0
   -3.5125   -0.1957    0.4906 C   0  0  0  0  0  0  0  0  0  0  0  0
   -2.4766    0.3751    1.1418 N   0  0  0  0  0  0  0  0  0  0  0  0
   -2.4199    1.7123    1.0893 C   0  0  0  0  0  0  0  0  0  0  0  0
   -3.2958    2.5132    0.4754 N   0  0  0  0  0  0  0  0  0  0  0  0
   -4.3151    1.9289   -0.1614 C   0  0  0  0  0  0  0  0  0  0  0  0
   -5.2354    2.7423   -0.8116 C   0  0  0  0  0  0  0  0  0  0  0  0
   -6.3297    2.2184   -1.5038 C   0  0  0  0  0  0  0  0  0  0  0  0
   -6.5171    0.8452   -1.5531 C   0  0  0  0  0  0  0  0  0  0  0  0
   -5.6071    0.0082   -0.9105 C   0  0  0  0  0  0  0  0  0  0  0  0
   -4.4924    0.5395   -0.2032 C   0  0  0  0  0  0  0  0  0  0  0  0
    1.4875    0.0868    0.7893 C   0  0  0  0  0  0  0  0  0  0  0  0
    0.8289    1.0787    1.0721 O   0  0  0  0  0  0  0  0  0  0  0  0
    2.8039   -0.0415    0.3415 N   0  0  0  0  0  0  0  0  0  0  0  0
    3.5707    0.9752   -0.2841 C   0  0  0  0  0  0  0  0  0  0  0  0
    4.5687    0.6617   -1.2199 C   0  0  0  0  0  0  0  0  0  0  0  0
    5.3253    1.6650   -1.8336 C   0  0  0  0  0  0  0  0  0  0  0  0
    5.0945    3.0012   -1.5220 C   0  0  0  0  0  0  0  0  0  0  0  0
    4.1048    3.3330   -0.6020 C   0  0  0  0  0  0  0  0  0  0  0  0
    3.3476    2.3277    0.0089 C   0  0  0  0  0  0  0  0  0  0  0  0
    3.0970   -1.4230    0.1509 N   0  0  0  0  0  0  0  0  0  0  0  0
    4.2962   -1.8699    0.8862 C   0  0  0  0  0  0  0  0  0  0  0  0
    0.8884   -3.8745   -0.3049 H   0  0  0  0  0  0  0  0  0  0  0  0
    2.6168   -3.8848   -0.5541 H   0  0  0  0  0  0  0  0  0  0  0  0
    1.9951   -4.1449    1.0795 H   0  0  0  0  0  0  0  0  0  0  0  0
   -0.9066   -0.5913    1.3352 H   0  0  0  0  0  0  0  0  0  0  0  0
   -2.8933   -3.2959    2.4144 H   0  0  0  0  0  0  0  0  0  0  0  0
   -2.5718   -1.6022    2.7475 H   0  0  0  0  0  0  0  0  0  0  0  0
   -1.5863    2.1924    1.5924 H   0  0  0  0  0  0  0  0  0  0  0  0
   -5.0964    3.8213   -0.7793 H   0  0  0  0  0  0  0  0  0  0  0  0
   -7.0282    2.8864   -2.0012 H   0  0  0  0  0  0  0  0  0  0  0  0
   -7.3651    0.4248   -2.0878 H   0  0  0  0  0  0  0  0  0  0  0  0
   -5.7716   -1.0658   -0.9643 H   0  0  0  0  0  0  0  0  0  0  0  0
    4.7503   -0.3689   -1.5121 H   0  0  0  0  0  0  0  0  0  0  0  0
    6.0871    1.3997   -2.5619 H   0  0  0  0  0  0  0  0  0  0  0  0
    5.6796    3.7829   -1.9990 H   0  0  0  0  0  0  0  0  0  0  0  0
    3.9169    4.3750   -0.3557 H   0  0  0  0  0  0  0  0  0  0  0  0
    2.5937    2.6281    0.7316 H   0  0  0  0  0  0  0  0  0  0  0  0
    4.1313   -1.8171    1.9687 H   0  0  0  0  0  0  0  0  0  0  0  0
    4.5418   -2.9038    0.6217 H   0  0  0  0  0  0  0  0  0  0  0  0
    5.1727   -1.2617    0.6465 H   0  0  0  0  0  0  0  0  0  0  0  0
  1  2  1  0
  2  3  2  0
  3  4  1  0
  4  5  1  0
  5  6  2  0
  5  7  1  0
  7  8  1  0
  8  9  1  0
  9 10  2  0
 10 11  1  0
 11 12  2  0
 12 13  1  0
 13 14  2  0
 14 15  1  0
 15 16  2  0
 16 17  1  0
 17 18  2  0
  3 19  1  0
 19 20  2  0
 19 21  1  0
 21 22  1  0
 22 23  2  0
 23 24  1  0
 24 25  2  0
 25 26  1  0
 26 27  2  0
 21 28  1  0
 28 29  1  0
 28  2  1  0
 18  9  1  0
 27 22  1  0
 18 13  1  0
  1 30  1  0
  1 31  1  0
  1 32  1  0
  4 33  1  0
  7 34  1  0
  7 35  1  0
 11 36  1  0
 14 37  1  0
 15 38  1  0
 16 39  1  0
 17 40  1  0
 23 41  1  0
 24 42  1  0
 25 43  1  0
 26 44  1  0
 27 45  1  0
 29 46  1  0
 29 47  1  0
 29 48  1  0
M  END
$$$$
