
     RDKit          3D

 53 55  0  0  0  0  0  0  0  0999 V2000
   -7.1618   -3.5846    5.1261 C   0  0  0  0  0  0  0  0  0  0  0  0
   -7.0789   -3.3882    3.7200 O   0  0  0  0  0  0  0  0  0  0  0  0
   -5.8362   -3.1588    3.1976 C   0  0  0  0  0  0  0  0  0  0  0  0
   -5.8080   -3.0157    1.8058 C   0  0  0  0  0  0  0  0  0  0  0  0
   -4.6064   -2.7755    1.1379 C   0  0  0  0  0  0  0  0  0  0  0  0
   -3.4254   -2.6709    1.8745 C   0  0  0  0  0  0  0  0  0  0  0  0
   -1.9028   -2.3592    1.0212 S   0  0  0  0  0  6  0  0  0  0  0  0
   -0.8312   -2.3078    1.9926 O   0  0  0  0  0  0  0  0  0  0  0  0
   -1.8414   -3.2543   -0.1132 O   0  0  0  0  0  0  0  0  0  0  0  0
   -2.1228   -0.8084    0.4387 N   0  0  0  0  0  0  0  0  0  0  0  0
   -2.3172    0.3015    1.3849 C   0  0  0  0  0  0  0  0  0  0  0  0
   -1.5103    1.4404    0.7939 C   0  0  0  0  0  0  0  0  0  0  0  0
   -1.3626    1.1040   -0.5887 O   0  0  0  0  0  0  0  0  0  0  0  0
   -1.2296   -0.3293   -0.6294 C   0  0  0  0  0  0  0  0  0  0  0  0
    0.2621   -0.7419   -0.4863 C   0  0  0  0  0  0  0  0  0  0  0  0
    1.1177   -0.1408   -1.4963 N   0  0  0  0  0  0  0  0  0  0  0  0
    1.7221    1.0820   -1.3130 C   0  0  0  0  0  0  0  0  0  0  0  0
    1.7582    1.7276   -0.2746 O   0  0  0  0  0  0  0  0  0  0  0  0
    2.4063    1.6277   -2.5874 C   0  0  0  0  0  0  0  0  0  0  0  0
    2.3668    0.9845   -3.6271 O   0  0  0  0  0  0  0  0  0  0  0  0
    3.0240    2.8406   -2.3998 N   0  0  0  0  0  0  0  0  0  0  0  0
    3.8478    3.4525   -3.4082 C   0  0  0  0  0  0  0  0  0  0  0  0
    5.3024    3.1277   -3.1830 C   0  0  0  0  0  0  0  0  0  0  0  0
    5.8484    1.9389   -3.6948 C   0  0  0  0  0  0  0  0  0  0  0  0
    7.1887    1.6225   -3.4696 C   0  0  0  0  0  0  0  0  0  0  0  0
    7.9814    2.4894   -2.7279 C   0  0  0  0  0  0  0  0  0  0  0  0
    9.2679    2.1857   -2.5111 F   0  0  0  0  0  0  0  0  0  0  0  0
    7.4588    3.6658   -2.2038 C   0  0  0  0  0  0  0  0  0  0  0  0
    6.1183    3.9847   -2.4271 C   0  0  0  0  0  0  0  0  0  0  0  0
   -3.4367   -2.8186    3.2633 C   0  0  0  0  0  0  0  0  0  0  0  0
   -4.6461   -3.0610    3.9234 C   0  0  0  0  0  0  0  0  0  0  0  0
   -6.8430   -2.6886    5.6688 H   0  0  0  0  0  0  0  0  0  0  0  0
   -6.5851   -4.4620    5.4371 H   0  0  0  0  0  0  0  0  0  0  0  0
   -8.2107   -3.7698    5.3765 H   0  0  0  0  0  0  0  0  0  0  0  0
   -6.7328   -3.0968    1.2387 H   0  0  0  0  0  0  0  0  0  0  0  0
   -4.5977   -2.6723    0.0552 H   0  0  0  0  0  0  0  0  0  0  0  0
   -3.3825    0.5546    1.4037 H   0  0  0  0  0  0  0  0  0  0  0  0
   -1.9957    0.0807    2.4059 H   0  0  0  0  0  0  0  0  0  0  0  0
   -0.5198    1.5123    1.2549 H   0  0  0  0  0  0  0  0  0  0  0  0
   -2.0104    2.4076    0.8932 H   0  0  0  0  0  0  0  0  0  0  0  0
   -1.6106   -0.6566   -1.6027 H   0  0  0  0  0  0  0  0  0  0  0  0
    0.3798   -1.8237   -0.5945 H   0  0  0  0  0  0  0  0  0  0  0  0
    0.6472   -0.4547    0.4982 H   0  0  0  0  0  0  0  0  0  0  0  0
    1.1226   -0.5057   -2.4458 H   0  0  0  0  0  0  0  0  0  0  0  0
    3.0508    3.1873   -1.4453 H   0  0  0  0  0  0  0  0  0  0  0  0
    3.5358    3.1252   -4.4066 H   0  0  0  0  0  0  0  0  0  0  0  0
    3.6856    4.5346   -3.3551 H   0  0  0  0  0  0  0  0  0  0  0  0
    5.2258    1.2529   -4.2678 H   0  0  0  0  0  0  0  0  0  0  0  0
    7.6158    0.7061   -3.8638 H   0  0  0  0  0  0  0  0  0  0  0  0
    8.0972    4.3240   -1.6232 H   0  0  0  0  0  0  0  0  0  0  0  0
    5.7145    4.9038   -2.0081 H   0  0  0  0  0  0  0  0  0  0  0  0
   -2.5160   -2.7505    3.8390 H   0  0  0  0  0  0  0  0  0  0  0  0
   -4.6247   -3.1710    5.0029 H   0  0  0  0  0  0  0  0  0  0  0  0
  1  2  1  0
  2  3  1  0
  3  4  2  0
  4  5  1  0
  5  6  2  0
  6  7  1  0
  7  8  2  0
  7  9  2  0
  7 10  1  0
 10 11  1  0
 11 12  1  0
 12 13  1  0
 13 14  1  0
 14 15  1  0
 15 16  1  0
 16 17  1  0
 17 18  2  0
 17 19  1  0
 19 20  2  0
 19 21  1  0
 21 22  1  0
 22 23  1  0
 23 24  2  0
 24 25  1  0
 25 26  2  0
 26 27  1  0
 26 28  1  0
 28 29  2  0
  6 30  1  0
 30 31  2  0
 31  3  1  0
 14 10  1  0
 29 23  1  0
  1 32  1  0
  1 33  1  0
  1 34  1  0
  4 35  1  0
  5 36  1  0
 11 37  1  0
 11 38  1  0
 12 39  1  0
 12 40  1  0
 14 41  1  0
 15 42  1  0
 15 43  1  0
 16 44  1  0
 21 45  1  0
 22 46  1  0
 22 47  1  0
 24 48  1  0
 25 49  1  0
 28 50  1  0
 29 51  1  0
 30 52  1  0
 31 53  1  0
M  END
$$$$
