
     RDKit          3D

 52 55  0  0  0  0  0  0  0  0999 V2000
   -7.2530    0.9023    0.4416 C   0  0  0  0  0  0  0  0  0  0  0  0
   -6.0088    1.5782    1.0007 C   0  0  0  0  0  0  0  0  0  0  0  0
   -5.0830    2.0945   -0.1003 C   0  0  0  0  0  0  0  0  0  0  0  0
   -4.6548    1.0431   -0.9652 O   0  0  0  0  0  0  0  0  0  0  0  0
   -3.5100    0.3637   -0.6616 C   0  0  0  0  0  0  0  0  0  0  0  0
   -2.7792    0.4588    0.5206 C   0  0  0  0  0  0  0  0  0  0  0  0
   -1.6236   -0.3119    0.6997 C   0  0  0  0  0  0  0  0  0  0  0  0
   -1.1874   -1.1926   -0.2980 C   0  0  0  0  0  0  0  0  0  0  0  0
    0.0207   -1.9896   -0.1108 C   0  0  0  0  0  0  0  0  0  0  0  0
    1.3396   -1.5655    0.0388 C   0  0  0  0  0  0  0  0  0  0  0  0
    1.8760   -0.2115    0.1776 C   0  0  0  0  0  0  0  0  0  0  0  0
    1.1666    0.7830    0.2909 O   0  0  0  0  0  0  0  0  0  0  0  0
    3.2648   -0.2018    0.1816 N   0  0  0  0  0  0  0  0  0  0  0  0
    3.9571    0.9648    0.3147 N   0  0  0  0  0  0  0  0  0  0  0  0
    5.2466    0.8478    0.2974 C   0  0  0  0  0  0  0  0  0  0  0  0
    6.1359    2.0186    0.4296 C   0  0  0  0  0  0  0  0  0  0  0  0
    7.5198    1.8209    0.4086 C   0  0  0  0  0  0  0  0  0  0  0  0
    8.3767    2.9163    0.5321 C   0  0  0  0  0  0  0  0  0  0  0  0
    7.8522    4.2016    0.6757 C   0  0  0  0  0  0  0  0  0  0  0  0
    6.4708    4.3968    0.6962 C   0  0  0  0  0  0  0  0  0  0  0  0
    5.6095    3.3057    0.5732 C   0  0  0  0  0  0  0  0  0  0  0  0
    2.1744   -2.6478   -0.0117 N   0  0  0  0  0  0  0  0  0  0  0  0
    1.4420   -3.7261   -0.2007 N   0  0  0  0  0  0  0  0  0  0  0  0
    0.1152   -3.3887   -0.1766 N   0  0  0  0  0  0  0  0  0  0  0  0
   -0.8859   -4.4024   -0.2120 C   0  0  0  0  0  0  0  0  0  0  0  0
   -0.4962   -5.6271   -0.5899 N   0  0  0  0  0  0  0  0  0  0  0  0
   -1.6534   -6.3887   -0.5825 O   0  0  0  0  0  0  0  0  0  0  0  0
   -2.7377   -5.6388   -0.1617 N   0  0  0  0  0  0  0  0  0  0  0  0
   -2.2612   -4.4205    0.0975 C   0  0  0  0  0  0  0  0  0  0  0  0
   -3.0415   -3.4584    0.6189 N   0  0  0  0  0  0  0  0  0  0  0  0
   -1.9146   -1.2729   -1.4904 C   0  0  0  0  0  0  0  0  0  0  0  0
   -3.0717   -0.5074   -1.6616 C   0  0  0  0  0  0  0  0  0  0  0  0
   -7.8196    1.5892   -0.1950 H   0  0  0  0  0  0  0  0  0  0  0  0
   -7.9064    0.5804    1.2587 H   0  0  0  0  0  0  0  0  0  0  0  0
   -6.9942    0.0184   -0.1497 H   0  0  0  0  0  0  0  0  0  0  0  0
   -6.3097    2.4163    1.6392 H   0  0  0  0  0  0  0  0  0  0  0  0
   -5.4824    0.8561    1.6336 H   0  0  0  0  0  0  0  0  0  0  0  0
   -4.2402    2.6639    0.3080 H   0  0  0  0  0  0  0  0  0  0  0  0
   -5.6392    2.8027   -0.7262 H   0  0  0  0  0  0  0  0  0  0  0  0
   -3.0708    1.1260    1.3245 H   0  0  0  0  0  0  0  0  0  0  0  0
   -1.0587   -0.1973    1.6234 H   0  0  0  0  0  0  0  0  0  0  0  0
    3.7594   -1.0842    0.0823 H   0  0  0  0  0  0  0  0  0  0  0  0
    5.7380   -0.1355    0.1828 H   0  0  0  0  0  0  0  0  0  0  0  0
    7.9418    0.8259    0.2971 H   0  0  0  0  0  0  0  0  0  0  0  0
    9.4540    2.7698    0.5164 H   0  0  0  0  0  0  0  0  0  0  0  0
    8.5209    5.0539    0.7714 H   0  0  0  0  0  0  0  0  0  0  0  0
    6.0629    5.3985    0.8074 H   0  0  0  0  0  0  0  0  0  0  0  0
    4.5331    3.4642    0.5891 H   0  0  0  0  0  0  0  0  0  0  0  0
   -2.6823   -2.6654    1.1355 H   0  0  0  0  0  0  0  0  0  0  0  0
   -3.9822   -3.7184    0.9020 H   0  0  0  0  0  0  0  0  0  0  0  0
   -1.5969   -1.9245   -2.3011 H   0  0  0  0  0  0  0  0  0  0  0  0
   -3.6334   -0.5841   -2.5899 H   0  0  0  0  0  0  0  0  0  0  0  0
  1  2  1  0
  2  3  1  0
  3  4  1  0
  4  5  1  0
  5  6  2  0
  6  7  1  0
  7  8  2  0
  8  9  1  0
  9 10  2  0
 10 11  1  0
 11 12  2  0
 11 13  1  0
 13 14  1  0
 14 15  2  3
 15 16  1  0
 16 17  2  0
 17 18  1  0
 18 19  2  0
 19 20  1  0
 20 21  2  0
 10 22  1  0
 22 23  2  0
 23 24  1  0
 24 25  1  0
 25 26  2  0
 26 27  1  0
 27 28  1  0
 28 29  2  0
 29 30  1  0
  8 31  1  0
 31 32  2  0
 32  5  1  0
 24  9  1  0
 29 25  1  0
 21 16  1  0
  1 33  1  0
  1 34  1  0
  1 35  1  0
  2 36  1  0
  2 37  1  0
  3 38  1  0
  3 39  1  0
  6 40  1  0
  7 41  1  0
 13 42  1  0
 15 43  1  0
 17 44  1  0
 18 45  1  0
 19 46  1  0
 20 47  1  0
 21 48  1  0
 30 49  1  0
 30 50  1  0
 31 51  1  0
 32 52  1  0
M  END
$$$$
