
     RDKit          3D

 43 45  0  0  0  0  0  0  0  0999 V2000
   -5.3936   -2.1792   -0.1958 C   0  0  0  0  0  0  0  0  0  0  0  0
   -5.0572   -0.9332   -0.8835 N   0  0  0  0  0  0  0  0  0  0  0  0
   -5.2451   -0.9473   -2.3333 C   0  0  0  0  0  0  0  0  0  0  0  0
   -4.0588   -0.1141   -0.3389 C   0  0  0  0  0  0  0  0  0  0  0  0
   -3.6316   -0.2423    0.9951 C   0  0  0  0  0  0  0  0  0  0  0  0
   -2.6448    0.5855    1.5528 C   0  0  0  0  0  0  0  0  0  0  0  0
   -2.0473    1.5829    0.7876 C   0  0  0  0  0  0  0  0  0  0  0  0
   -1.0410    2.4832    1.3519 C   0  0  0  0  0  0  0  0  0  0  0  0
    0.2076    2.1555    1.7135 C   0  0  0  0  0  0  0  0  0  0  0  0
    1.3131    3.3293    2.3629 S   0  0  0  0  0  0  0  0  0  0  0  0
    2.6329    2.1696    2.5176 C   0  0  0  0  0  0  0  0  0  0  0  0
    4.1181    2.5624    3.1688 S   0  0  0  0  0  0  0  0  0  0  0  0
    2.1887    0.9539    2.0441 N   0  0  0  0  0  0  0  0  0  0  0  0
    3.0201   -0.1944    2.0051 N   0  0  0  0  0  0  0  0  0  0  0  0
    3.6712   -0.3383    0.7415 C   0  0  0  0  0  0  0  0  0  0  0  0
    3.6769    0.7039   -0.1309 N   0  0  0  0  0  0  0  0  0  0  0  0
    4.3437    0.5590   -1.3007 C   0  0  0  0  0  0  0  0  0  0  0  0
    5.0326   -0.5871   -1.6650 C   0  0  0  0  0  0  0  0  0  0  0  0
    5.7210   -0.6624   -2.9922 C   0  0  0  0  0  0  0  0  0  0  0  0
    6.2449    0.5295   -3.3881 F   0  0  0  0  0  0  0  0  0  0  0  0
    4.8790   -1.0515   -3.9870 F   0  0  0  0  0  0  0  0  0  0  0  0
    6.7545   -1.5479   -3.0070 F   0  0  0  0  0  0  0  0  0  0  0  0
    5.0203   -1.6580   -0.7674 C   0  0  0  0  0  0  0  0  0  0  0  0
    4.3438   -1.5339    0.4462 C   0  0  0  0  0  0  0  0  0  0  0  0
    4.3422   -2.8739    1.5344 Cl  0  0  0  0  0  0  0  0  0  0  0  0
    0.8728    0.8216    1.6289 C   0  0  0  0  0  0  0  0  0  0  0  0
    0.3479   -0.2323    1.2959 O   0  0  0  0  0  0  0  0  0  0  0  0
   -2.4654    1.7536   -0.5294 C   0  0  0  0  0  0  0  0  0  0  0  0
   -3.4541    0.9203   -1.0754 C   0  0  0  0  0  0  0  0  0  0  0  0
   -6.1684   -2.7344   -0.7366 H   0  0  0  0  0  0  0  0  0  0  0  0
   -5.8065   -1.9842    0.7997 H   0  0  0  0  0  0  0  0  0  0  0  0
   -4.5180   -2.8324   -0.1113 H   0  0  0  0  0  0  0  0  0  0  0  0
   -5.5432    0.0390   -2.7047 H   0  0  0  0  0  0  0  0  0  0  0  0
   -6.0518   -1.6308   -2.6217 H   0  0  0  0  0  0  0  0  0  0  0  0
   -4.3343   -1.2756   -2.8461 H   0  0  0  0  0  0  0  0  0  0  0  0
   -4.0588   -0.9960    1.6490 H   0  0  0  0  0  0  0  0  0  0  0  0
   -2.3555    0.4320    2.5892 H   0  0  0  0  0  0  0  0  0  0  0  0
   -1.3824    3.5123    1.4500 H   0  0  0  0  0  0  0  0  0  0  0  0
    2.4548   -1.0367    2.1508 H   0  0  0  0  0  0  0  0  0  0  0  0
    4.3045    1.4294   -1.9541 H   0  0  0  0  0  0  0  0  0  0  0  0
    5.5388   -2.5834   -1.0115 H   0  0  0  0  0  0  0  0  0  0  0  0
   -2.0337    2.5338   -1.1516 H   0  0  0  0  0  0  0  0  0  0  0  0
   -3.7378    1.1126   -2.1053 H   0  0  0  0  0  0  0  0  0  0  0  0
  1  2  1  0
  2  3  1  0
  2  4  1  0
  4  5  2  0
  5  6  1  0
  6  7  2  0
  7  8  1  0
  8  9  2  3
  9 10  1  0
 10 11  1  0
 11 12  2  0
 11 13  1  0
 13 14  1  0
 14 15  1  0
 15 16  2  0
 16 17  1  0
 17 18  2  0
 18 19  1  0
 19 20  1  0
 19 21  1  0
 19 22  1  0
 18 23  1  0
 23 24  2  0
 24 25  1  0
 13 26  1  0
 26 27  2  0
  7 28  1  0
 28 29  2  0
 29  4  1  0
 26  9  1  0
 24 15  1  0
  1 30  1  0
  1 31  1  0
  1 32  1  0
  3 33  1  0
  3 34  1  0
  3 35  1  0
  5 36  1  0
  6 37  1  0
  8 38  1  0
 14 39  1  0
 17 40  1  0
 23 41  1  0
 28 42  1  0
 29 43  1  0
M  END
$$$$
