
     RDKit          3D

 47 50  0  0  0  0  0  0  0  0999 V2000
   -9.2397   -2.1242   -0.6242 C   0  0  0  0  0  0  0  0  0  0  0  0
   -8.1157   -1.5220    0.0189 O   0  0  0  0  0  0  0  0  0  0  0  0
   -7.0106   -1.4533   -0.7640 C   0  0  0  0  0  0  0  0  0  0  0  0
   -6.9194   -1.8599   -1.9118 O   0  0  0  0  0  0  0  0  0  0  0  0
   -5.8883   -0.7929   -0.0358 C   0  0  0  0  0  0  0  0  0  0  0  0
   -6.0329   -0.2933    1.2599 C   0  0  0  0  0  0  0  0  0  0  0  0
   -4.9524    0.3246    1.8917 C   0  0  0  0  0  0  0  0  0  0  0  0
   -3.7262    0.4643    1.2315 C   0  0  0  0  0  0  0  0  0  0  0  0
   -3.5684   -0.0124   -0.0746 C   0  0  0  0  0  0  0  0  0  0  0  0
   -2.3448    0.1085   -0.7911 N   0  0  0  0  0  0  0  0  0  0  0  0
   -2.1254   -0.6543   -1.9004 N   0  0  0  0  0  0  0  0  0  0  0  0
   -0.8894   -0.4049   -2.2968 N   0  0  0  0  0  0  0  0  0  0  0  0
   -0.3117    0.5564   -1.5216 N   0  0  0  0  0  0  0  0  0  0  0  0
   -1.2127    0.8972   -0.6239 C   0  0  0  0  0  0  0  0  0  0  0  0
   -1.0390    2.2518    0.4437 S   0  0  0  0  0  0  0  0  0  0  0  0
    0.3497    3.1419   -0.3167 C   0  0  0  0  0  0  0  0  0  0  0  0
    1.6790    2.6078    0.1926 C   0  0  0  0  0  0  0  0  0  0  0  0
    2.2046    3.1050    1.1836 O   0  0  0  0  0  0  0  0  0  0  0  0
    2.1664    1.5682   -0.5690 N   0  0  0  0  0  0  0  0  0  0  0  0
    3.3846    0.9974   -0.3388 C   0  0  0  0  0  0  0  0  0  0  0  0
    4.3276    1.3533    0.4966 N   0  0  0  0  0  0  0  0  0  0  0  0
    5.3844    0.4775    0.3787 C   0  0  0  0  0  0  0  0  0  0  0  0
    5.2239   -0.5175   -0.5653 C   0  0  0  0  0  0  0  0  0  0  0  0
    3.7075   -0.3673   -1.3240 S   0  0  0  0  0  0  0  0  0  0  0  0
    6.2197   -1.5844   -0.8631 C   0  0  0  0  0  0  0  0  0  0  0  0
    7.5979   -1.1779   -0.3114 C   0  0  0  0  0  0  0  0  0  0  0  0
    7.5021   -0.6223    1.1225 C   0  0  0  0  0  0  0  0  0  0  0  0
    6.6220    0.6376    1.1953 C   0  0  0  0  0  0  0  0  0  0  0  0
   -4.6529   -0.6603   -0.6937 C   0  0  0  0  0  0  0  0  0  0  0  0
  -10.0746   -2.1266    0.0827 H   0  0  0  0  0  0  0  0  0  0  0  0
   -9.0154   -3.1617   -0.8970 H   0  0  0  0  0  0  0  0  0  0  0  0
   -9.5350   -1.5444   -1.5077 H   0  0  0  0  0  0  0  0  0  0  0  0
   -6.9780   -0.3857    1.7950 H   0  0  0  0  0  0  0  0  0  0  0  0
   -5.0630    0.6947    2.9101 H   0  0  0  0  0  0  0  0  0  0  0  0
   -2.9149    0.9117    1.7983 H   0  0  0  0  0  0  0  0  0  0  0  0
    0.3076    3.1054   -1.4086 H   0  0  0  0  0  0  0  0  0  0  0  0
    0.2833    4.1998   -0.0370 H   0  0  0  0  0  0  0  0  0  0  0  0
    1.5729    1.1006   -1.2425 H   0  0  0  0  0  0  0  0  0  0  0  0
    5.8986   -2.5160   -0.3769 H   0  0  0  0  0  0  0  0  0  0  0  0
    6.2934   -1.7769   -1.9386 H   0  0  0  0  0  0  0  0  0  0  0  0
    8.2697   -2.0436   -0.3328 H   0  0  0  0  0  0  0  0  0  0  0  0
    8.0408   -0.4110   -0.9568 H   0  0  0  0  0  0  0  0  0  0  0  0
    7.0852   -1.3948    1.7779 H   0  0  0  0  0  0  0  0  0  0  0  0
    8.5005   -0.3888    1.4999 H   0  0  0  0  0  0  0  0  0  0  0  0
    7.1856    1.4951    0.8087 H   0  0  0  0  0  0  0  0  0  0  0  0
    6.3663    0.8554    2.2396 H   0  0  0  0  0  0  0  0  0  0  0  0
   -4.5628   -1.0576   -1.7074 H   0  0  0  0  0  0  0  0  0  0  0  0
  1  2  1  0
  2  3  1  0
  3  4  2  0
  3  5  1  0
  5  6  2  0
  6  7  1  0
  7  8  2  0
  8  9  1  0
  9 10  1  0
 10 11  1  0
 11 12  2  0
 12 13  1  0
 13 14  2  0
 14 15  1  0
 15 16  1  0
 16 17  1  0
 17 18  2  0
 17 19  1  0
 19 20  1  0
 20 21  2  0
 21 22  1  0
 22 23  2  0
 23 24  1  0
 23 25  1  0
 25 26  1  0
 26 27  1  0
 27 28  1  0
  9 29  2  0
 29  5  1  0
 14 10  1  0
 24 20  1  0
 28 22  1  0
  1 30  1  0
  1 31  1  0
  1 32  1  0
  6 33  1  0
  7 34  1  0
  8 35  1  0
 16 36  1  0
 16 37  1  0
 19 38  1  0
 25 39  1  0
 25 40  1  0
 26 41  1  0
 26 42  1  0
 27 43  1  0
 27 44  1  0
 28 45  1  0
 28 46  1  0
 29 47  1  0
M  END
$$$$
