
     RDKit          3D

 52 51  0  0  0  0  0  0  0  0999 V2000
   -6.3874    0.0779    3.2570 C   0  0  0  0  0  0  0  0  0  0  0  0
   -5.4220    0.3019    2.5777 C   0  0  0  0  0  0  0  0  0  0  0  0
   -4.2310    0.5670    1.7641 C   0  0  0  0  0  0  0  0  0  0  0  0
   -4.5883    0.9829    0.3249 N   0  0  0  0  0  4  0  0  0  0  0  0
   -5.4953    2.2209    0.3558 C   0  0  0  0  0  0  0  0  0  0  0  0
   -5.3304   -0.1413   -0.3904 C   0  0  0  0  0  0  0  0  0  0  0  0
   -3.3141    1.3832   -0.4493 C   0  0  0  0  0  0  0  0  0  0  0  0
   -2.3034    0.2463   -0.6218 C   0  0  0  0  0  0  0  0  0  0  0  0
   -1.0891    0.7289   -1.4242 C   0  0  0  0  0  0  0  0  0  0  0  0
   -0.0857   -0.3839   -1.7461 C   0  0  0  0  0  0  0  0  0  0  0  0
    0.6236   -0.9390   -0.5084 C   0  0  0  0  0  0  0  0  0  0  0  0
    1.6334   -2.0456   -0.8321 C   0  0  0  0  0  0  0  0  0  0  0  0
    2.7965   -1.6443   -1.7451 C   0  0  0  0  0  0  0  0  0  0  0  0
    3.6286   -0.4473   -1.2758 C   0  0  0  0  0  0  0  0  0  0  0  0
    4.2923   -0.6651    0.0865 C   0  0  0  0  0  0  0  0  0  0  0  0
    5.1968    0.5143    0.4537 C   0  0  0  0  0  0  0  0  0  0  0  0
    5.7985    0.4029    1.8563 C   0  0  0  0  0  0  0  0  0  0  0  0
    6.7615   -0.7637    2.0134 C   0  0  0  0  0  0  0  0  0  0  0  0
   -7.2366   -0.1253    3.8723 H   0  0  0  0  0  0  0  0  0  0  0  0
   -3.6331    1.3773    2.1953 H   0  0  0  0  0  0  0  0  0  0  0  0
   -3.6172   -0.3365    1.7050 H   0  0  0  0  0  0  0  0  0  0  0  0
   -5.6667    2.5460   -0.6751 H   0  0  0  0  0  0  0  0  0  0  0  0
   -6.4511    1.9616    0.8187 H   0  0  0  0  0  0  0  0  0  0  0  0
   -4.9887    3.0060    0.9250 H   0  0  0  0  0  0  0  0  0  0  0  0
   -5.4303    0.1295   -1.4457 H   0  0  0  0  0  0  0  0  0  0  0  0
   -4.7617   -1.0684   -0.2808 H   0  0  0  0  0  0  0  0  0  0  0  0
   -6.3215   -0.2578    0.0572 H   0  0  0  0  0  0  0  0  0  0  0  0
   -3.6426    1.7474   -1.4304 H   0  0  0  0  0  0  0  0  0  0  0  0
   -2.8618    2.2207    0.0956 H   0  0  0  0  0  0  0  0  0  0  0  0
   -2.7585   -0.5992   -1.1475 H   0  0  0  0  0  0  0  0  0  0  0  0
   -1.9664   -0.1102    0.3549 H   0  0  0  0  0  0  0  0  0  0  0  0
   -0.5820    1.5354   -0.8805 H   0  0  0  0  0  0  0  0  0  0  0  0
   -1.4363    1.1572   -2.3729 H   0  0  0  0  0  0  0  0  0  0  0  0
    0.6559    0.0314   -2.4377 H   0  0  0  0  0  0  0  0  0  0  0  0
   -0.5953   -1.1966   -2.2777 H   0  0  0  0  0  0  0  0  0  0  0  0
    1.1170   -0.1253    0.0348 H   0  0  0  0  0  0  0  0  0  0  0  0
   -0.1170   -1.3639    0.1785 H   0  0  0  0  0  0  0  0  0  0  0  0
    2.0335   -2.4376    0.1107 H   0  0  0  0  0  0  0  0  0  0  0  0
    1.1015   -2.8828   -1.3018 H   0  0  0  0  0  0  0  0  0  0  0  0
    2.4131   -1.4307   -2.7497 H   0  0  0  0  0  0  0  0  0  0  0  0
    3.4587   -2.5122   -1.8575 H   0  0  0  0  0  0  0  0  0  0  0  0
    4.4071   -0.2608   -2.0265 H   0  0  0  0  0  0  0  0  0  0  0  0
    3.0072    0.4551   -1.2477 H   0  0  0  0  0  0  0  0  0  0  0  0
    3.5276   -0.7849    0.8618 H   0  0  0  0  0  0  0  0  0  0  0  0
    4.8769   -1.5912    0.0565 H   0  0  0  0  0  0  0  0  0  0  0  0
    4.6136    1.4421    0.4041 H   0  0  0  0  0  0  0  0  0  0  0  0
    6.0021    0.6074   -0.2850 H   0  0  0  0  0  0  0  0  0  0  0  0
    6.3382    1.3317    2.0768 H   0  0  0  0  0  0  0  0  0  0  0  0
    4.9980    0.3179    2.6002 H   0  0  0  0  0  0  0  0  0  0  0  0
    7.2306   -0.7324    3.0020 H   0  0  0  0  0  0  0  0  0  0  0  0
    6.2463   -1.7244    1.9225 H   0  0  0  0  0  0  0  0  0  0  0  0
    7.5550   -0.7226    1.2606 H   0  0  0  0  0  0  0  0  0  0  0  0
  1  2  3  0
  2  3  1  0
  3  4  1  0
  4  5  1  0
  4  6  1  0
  4  7  1  0
  7  8  1  0
  8  9  1  0
  9 10  1  0
 10 11  1  0
 11 12  1  0
 12 13  1  0
 13 14  1  0
 14 15  1  0
 15 16  1  0
 16 17  1  0
 17 18  1  0
  1 19  1  0
  3 20  1  0
  3 21  1  0
  5 22  1  0
  5 23  1  0
  5 24  1  0
  6 25  1  0
  6 26  1  0
  6 27  1  0
  7 28  1  0
  7 29  1  0
  8 30  1  0
  8 31  1  0
  9 32  1  0
  9 33  1  0
 10 34  1  0
 10 35  1  0
 11 36  1  0
 11 37  1  0
 12 38  1  0
 12 39  1  0
 13 40  1  0
 13 41  1  0
 14 42  1  0
 14 43  1  0
 15 44  1  0
 15 45  1  0
 16 46  1  0
 16 47  1  0
 17 48  1  0
 17 49  1  0
 18 50  1  0
 18 51  1  0
 18 52  1  0
M  CHG  1   4   1
M  END
$$$$
