
     RDKit          3D

 53 56  0  0  0  0  0  0  0  0999 V2000
    6.9868    3.4557   -0.2983 C   0  0  0  0  0  0  0  0  0  0  0  0
    7.1130    2.1316    0.2080 O   0  0  0  0  0  0  0  0  0  0  0  0
    6.0611    1.2881   -0.0200 C   0  0  0  0  0  0  0  0  0  0  0  0
    4.9639    1.5460   -0.8430 C   0  0  0  0  0  0  0  0  0  0  0  0
    3.9579    0.5820   -1.0015 C   0  0  0  0  0  0  0  0  0  0  0  0
    4.0315   -0.6455   -0.3331 C   0  0  0  0  0  0  0  0  0  0  0  0
    2.9841   -1.5597   -0.5569 N   0  0  0  0  0  0  0  0  0  0  0  0
    2.7560   -2.7648    0.0863 C   0  0  0  0  0  0  0  0  0  0  0  0
    3.4164   -3.2301    1.0114 O   0  0  0  0  0  0  0  0  0  0  0  0
    1.5595   -3.5232   -0.4671 C   0  0  0  0  0  0  0  0  0  0  0  0
    0.0167   -2.9408    0.2872 S   0  0  0  0  0  0  0  0  0  0  0  0
   -0.3687   -1.5819   -0.7187 C   0  0  0  0  0  0  0  0  0  0  0  0
    0.4240   -1.0993   -1.6468 N   0  0  0  0  0  0  0  0  0  0  0  0
   -0.2532   -0.1344   -2.3251 N   0  0  0  0  0  0  0  0  0  0  0  0
   -1.4661   -0.0327   -1.8026 C   0  0  0  0  0  0  0  0  0  0  0  0
   -2.4764    0.9964   -2.2061 C   0  0  0  0  0  0  0  0  0  0  0  0
   -2.7541    2.0278   -1.1416 C   0  0  0  0  0  0  0  0  0  0  0  0
   -3.9142    2.2153   -0.4118 C   0  0  0  0  0  0  0  0  0  0  0  0
   -3.8114    3.3019    0.5071 C   0  0  0  0  0  0  0  0  0  0  0  0
   -2.5851    3.9267    0.4344 C   0  0  0  0  0  0  0  0  0  0  0  0
   -1.5605    3.1911   -0.7236 S   0  0  0  0  0  0  0  0  0  0  0  0
   -1.5972   -0.9483   -0.7635 N   0  0  0  0  0  0  0  0  0  0  0  0
   -2.7314   -1.1707    0.0543 C   0  0  0  0  0  0  0  0  0  0  0  0
   -2.5951   -1.1624    1.4467 C   0  0  0  0  0  0  0  0  0  0  0  0
   -3.7168   -1.3481    2.2536 C   0  0  0  0  0  0  0  0  0  0  0  0
   -4.9739   -1.5673    1.6805 C   0  0  0  0  0  0  0  0  0  0  0  0
   -6.1903   -1.7401    2.5458 C   0  0  0  0  0  0  0  0  0  0  0  0
   -5.0956   -1.5884    0.2853 C   0  0  0  0  0  0  0  0  0  0  0  0
   -3.9805   -1.3893   -0.5298 C   0  0  0  0  0  0  0  0  0  0  0  0
    5.1299   -0.8992    0.4899 C   0  0  0  0  0  0  0  0  0  0  0  0
    6.1410    0.0608    0.6380 C   0  0  0  0  0  0  0  0  0  0  0  0
    6.1030    3.9528    0.1151 H   0  0  0  0  0  0  0  0  0  0  0  0
    7.8659    4.0194    0.0194 H   0  0  0  0  0  0  0  0  0  0  0  0
    6.9617    3.4593   -1.3900 H   0  0  0  0  0  0  0  0  0  0  0  0
    4.8569    2.4810   -1.3804 H   0  0  0  0  0  0  0  0  0  0  0  0
    3.1115    0.8097   -1.6493 H   0  0  0  0  0  0  0  0  0  0  0  0
    2.2614   -1.2513   -1.2021 H   0  0  0  0  0  0  0  0  0  0  0  0
    1.6900   -4.5796   -0.2229 H   0  0  0  0  0  0  0  0  0  0  0  0
    1.5287   -3.4586   -1.5602 H   0  0  0  0  0  0  0  0  0  0  0  0
   -2.1094    1.5081   -3.1077 H   0  0  0  0  0  0  0  0  0  0  0  0
   -3.4130    0.5115   -2.5161 H   0  0  0  0  0  0  0  0  0  0  0  0
   -4.8025    1.6059   -0.5230 H   0  0  0  0  0  0  0  0  0  0  0  0
   -4.6017    3.6187    1.1813 H   0  0  0  0  0  0  0  0  0  0  0  0
   -2.2442    4.7803    1.0055 H   0  0  0  0  0  0  0  0  0  0  0  0
   -1.6334   -0.9725    1.9254 H   0  0  0  0  0  0  0  0  0  0  0  0
   -3.5996   -1.3172    3.3369 H   0  0  0  0  0  0  0  0  0  0  0  0
   -6.8148   -0.8413    2.5013 H   0  0  0  0  0  0  0  0  0  0  0  0
   -5.9143   -1.9145    3.5905 H   0  0  0  0  0  0  0  0  0  0  0  0
   -6.7796   -2.6019    2.2127 H   0  0  0  0  0  0  0  0  0  0  0  0
   -6.0636   -1.7699   -0.1746 H   0  0  0  0  0  0  0  0  0  0  0  0
   -4.1059   -1.4488   -1.6085 H   0  0  0  0  0  0  0  0  0  0  0  0
    5.2385   -1.8361    1.0256 H   0  0  0  0  0  0  0  0  0  0  0  0
    6.9930   -0.1524    1.2824 H   0  0  0  0  0  0  0  0  0  0  0  0
  1  2  1  0
  2  3  1  0
  3  4  2  0
  4  5  1  0
  5  6  2  0
  6  7  1  0
  7  8  1  0
  8  9  2  0
  8 10  1  0
 10 11  1  0
 11 12  1  0
 12 13  2  0
 13 14  1  0
 14 15  2  0
 15 16  1  0
 16 17  1  0
 17 18  2  0
 18 19  1  0
 19 20  2  0
 20 21  1  0
 15 22  1  0
 22 23  1  0
 23 24  2  0
 24 25  1  0
 25 26  2  0
 26 27  1  0
 26 28  1  0
 28 29  2  0
  6 30  1  0
 30 31  2  0
 31  3  1  0
 22 12  1  0
 29 23  1  0
 21 17  1  0
  1 32  1  0
  1 33  1  0
  1 34  1  0
  4 35  1  0
  5 36  1  0
  7 37  1  0
 10 38  1  0
 10 39  1  0
 16 40  1  0
 16 41  1  0
 18 42  1  0
 19 43  1  0
 20 44  1  0
 24 45  1  0
 25 46  1  0
 27 47  1  0
 27 48  1  0
 27 49  1  0
 28 50  1  0
 29 51  1  0
 30 52  1  0
 31 53  1  0
M  END
$$$$
