
     RDKit          3D

 47 50  0  0  0  0  0  0  0  0999 V2000
   -1.4409   -2.5510    1.6457 C   0  0  0  0  0  0  0  0  0  0  0  0
   -0.8144   -1.2236    1.3264 C   0  0  0  0  0  0  0  0  0  0  0  0
    0.4804   -1.1095    1.4324 N   0  0  0  0  0  0  0  0  0  0  0  0
    1.1207    0.0974    1.1272 N   0  0  0  0  0  0  0  0  0  0  0  0
    2.5723    0.0937    1.1831 C   0  0  0  0  0  0  0  0  0  0  0  0
    3.1780   -0.1434   -0.2029 C   0  0  0  0  0  0  0  0  0  0  0  0
    2.5380   -0.5289   -1.1782 O   0  0  0  0  0  0  0  0  0  0  0  0
    4.5402    0.0893   -0.2482 N   0  0  0  0  0  0  0  0  0  0  0  0
    5.3190   -0.1888   -1.4332 C   0  0  0  0  0  0  0  0  0  0  0  0
    5.9468   -1.5367   -1.2717 C   0  0  0  0  0  0  0  0  0  0  0  0
    5.3875   -2.7724   -1.5362 C   0  0  0  0  0  0  0  0  0  0  0  0
    6.2838   -3.8443   -1.2611 C   0  0  0  0  0  0  0  0  0  0  0  0
    7.4978   -3.3927   -0.7945 C   0  0  0  0  0  0  0  0  0  0  0  0
    7.5511   -1.6869   -0.6876 S   0  0  0  0  0  0  0  0  0  0  0  0
    0.4796    1.2782    0.7051 C   0  0  0  0  0  0  0  0  0  0  0  0
    1.0814    2.3219    0.4573 O   0  0  0  0  0  0  0  0  0  0  0  0
   -0.9664    1.1297    0.6165 C   0  0  0  0  0  0  0  0  0  0  0  0
   -1.8437    2.0834    0.2969 N   0  0  0  0  0  0  0  0  0  0  0  0
   -3.0497    1.4539    0.2557 N   0  0  0  0  0  0  0  0  0  0  0  0
   -4.1700    2.1589   -0.2854 C   0  0  0  0  0  0  0  0  0  0  0  0
   -5.3291    1.5056   -0.7211 C   0  0  0  0  0  0  0  0  0  0  0  0
   -6.3969    2.2389   -1.2512 C   0  0  0  0  0  0  0  0  0  0  0  0
   -6.3128    3.6248   -1.3632 C   0  0  0  0  0  0  0  0  0  0  0  0
   -5.1554    4.2828   -0.9583 C   0  0  0  0  0  0  0  0  0  0  0  0
   -4.0864    3.5551   -0.4298 C   0  0  0  0  0  0  0  0  0  0  0  0
   -2.9548    0.1599    0.7840 C   0  0  0  0  0  0  0  0  0  0  0  0
   -4.1153   -0.6890    1.1574 C   0  0  0  0  0  0  0  0  0  0  0  0
   -1.5973   -0.0819    0.9188 C   0  0  0  0  0  0  0  0  0  0  0  0
   -2.1526   -2.8324    0.8653 H   0  0  0  0  0  0  0  0  0  0  0  0
   -0.6727   -3.3275    1.7111 H   0  0  0  0  0  0  0  0  0  0  0  0
   -1.9537   -2.4896    2.6091 H   0  0  0  0  0  0  0  0  0  0  0  0
    2.9256    1.0557    1.5700 H   0  0  0  0  0  0  0  0  0  0  0  0
    2.9068   -0.7026    1.8568 H   0  0  0  0  0  0  0  0  0  0  0  0
    5.0470    0.2583    0.6098 H   0  0  0  0  0  0  0  0  0  0  0  0
    6.0704    0.6022   -1.5263 H   0  0  0  0  0  0  0  0  0  0  0  0
    4.6870   -0.1619   -2.3272 H   0  0  0  0  0  0  0  0  0  0  0  0
    4.3754   -2.8950   -1.9073 H   0  0  0  0  0  0  0  0  0  0  0  0
    6.0489   -4.8926   -1.3984 H   0  0  0  0  0  0  0  0  0  0  0  0
    8.3584   -3.9824   -0.5098 H   0  0  0  0  0  0  0  0  0  0  0  0
   -5.4259    0.4269   -0.7135 H   0  0  0  0  0  0  0  0  0  0  0  0
   -7.2918    1.7238   -1.5924 H   0  0  0  0  0  0  0  0  0  0  0  0
   -7.1425    4.1903   -1.7793 H   0  0  0  0  0  0  0  0  0  0  0  0
   -5.0778    5.3627   -1.0562 H   0  0  0  0  0  0  0  0  0  0  0  0
   -3.1919    4.0966   -0.1237 H   0  0  0  0  0  0  0  0  0  0  0  0
   -4.9740   -0.0919    1.4777 H   0  0  0  0  0  0  0  0  0  0  0  0
   -4.4075   -1.3356    0.3248 H   0  0  0  0  0  0  0  0  0  0  0  0
   -3.8726   -1.3295    2.0098 H   0  0  0  0  0  0  0  0  0  0  0  0
  1  2  1  0
  2  3  2  0
  3  4  1  0
  4  5  1  0
  5  6  1  0
  6  7  2  0
  6  8  1  0
  8  9  1  0
  9 10  1  0
 10 11  2  0
 11 12  1  0
 12 13  2  0
 13 14  1  0
  4 15  1  0
 15 16  2  0
 15 17  1  0
 17 18  2  0
 18 19  1  0
 19 20  1  0
 20 21  2  0
 21 22  1  0
 22 23  2  0
 23 24  1  0
 24 25  2  0
 19 26  1  0
 26 27  1  0
 26 28  2  0
 28  2  1  0
 14 10  1  0
 28 17  1  0
 25 20  1  0
  1 29  1  0
  1 30  1  0
  1 31  1  0
  5 32  1  0
  5 33  1  0
  8 34  1  0
  9 35  1  0
  9 36  1  0
 11 37  1  0
 12 38  1  0
 13 39  1  0
 21 40  1  0
 22 41  1  0
 23 42  1  0
 24 43  1  0
 25 44  1  0
 27 45  1  0
 27 46  1  0
 27 47  1  0
M  END
$$$$
