
     RDKit          3D

 51 55  0  0  0  0  0  0  0  0999 V2000
    7.4284    1.5335    0.9684 C   0  0  0  0  0  0  0  0  0  0  0  0
    7.4500    0.5435   -0.0123 C   0  0  0  0  0  0  0  0  0  0  0  0
    6.2949    0.2551   -0.7404 C   0  0  0  0  0  0  0  0  0  0  0  0
    5.1080    0.9585   -0.4958 C   0  0  0  0  0  0  0  0  0  0  0  0
    3.8517    0.6321   -1.2685 C   0  0  0  0  0  0  0  0  0  0  0  0
    2.9972   -0.4196   -0.5395 C   0  0  0  0  0  0  0  0  0  0  0  0
    1.8075   -0.8417   -1.3029 N   0  0  0  0  0  0  0  0  0  0  0  0
    0.8729    0.2830   -1.5358 C   0  0  0  0  0  0  0  0  0  0  0  0
   -0.5832   -0.1539   -1.8138 C   0  0  0  0  0  0  0  0  0  0  0  0
   -1.1403   -0.9233   -0.6918 N   0  0  0  0  0  0  0  0  0  0  0  0
   -2.4118   -0.6696   -0.1873 C   0  0  0  0  0  0  0  0  0  0  0  0
   -2.5791   -0.7270    1.1121 N   0  0  0  0  0  0  0  0  0  0  0  0
   -3.8284   -0.4418    1.6942 C   0  0  0  0  0  0  0  0  0  0  0  0
   -3.9412   -0.5024    3.0846 C   0  0  0  0  0  0  0  0  0  0  0  0
   -5.1548   -0.2165    3.7157 C   0  0  0  0  0  0  0  0  0  0  0  0
   -6.2719    0.1349    2.9574 C   0  0  0  0  0  0  0  0  0  0  0  0
   -6.1821    0.2012    1.5665 C   0  0  0  0  0  0  0  0  0  0  0  0
   -4.9607   -0.0871    0.9497 C   0  0  0  0  0  0  0  0  0  0  0  0
   -4.7853   -0.0595   -0.4431 N   0  0  0  0  0  0  0  0  0  0  0  0
   -5.7003    0.2193   -1.4308 C   0  0  0  0  0  0  0  0  0  0  0  0
   -5.0848    0.0422   -2.6500 C   0  0  0  0  0  0  0  0  0  0  0  0
   -3.7482   -0.3405   -2.3912 C   0  0  0  0  0  0  0  0  0  0  0  0
   -3.5677   -0.3572   -1.0184 C   0  0  0  0  0  0  0  0  0  0  0  0
   -0.1407   -1.5767    0.1709 C   0  0  0  0  0  0  0  0  0  0  0  0
    1.1144   -1.9693   -0.6348 C   0  0  0  0  0  0  0  0  0  0  0  0
    5.0951    1.9485    0.4960 C   0  0  0  0  0  0  0  0  0  0  0  0
    6.2515    2.2353    1.2230 C   0  0  0  0  0  0  0  0  0  0  0  0
    8.3284    1.7575    1.5347 H   0  0  0  0  0  0  0  0  0  0  0  0
    8.3671   -0.0052   -0.2100 H   0  0  0  0  0  0  0  0  0  0  0  0
    6.3260   -0.5227   -1.5004 H   0  0  0  0  0  0  0  0  0  0  0  0
    3.2868    1.5592   -1.4240 H   0  0  0  0  0  0  0  0  0  0  0  0
    4.1229    0.2699   -2.2686 H   0  0  0  0  0  0  0  0  0  0  0  0
    2.7050   -0.0474    0.4518 H   0  0  0  0  0  0  0  0  0  0  0  0
    3.6312   -1.2999   -0.3675 H   0  0  0  0  0  0  0  0  0  0  0  0
    0.8593    0.9543   -0.6660 H   0  0  0  0  0  0  0  0  0  0  0  0
    1.2279    0.8661   -2.3932 H   0  0  0  0  0  0  0  0  0  0  0  0
   -1.1697    0.7539   -1.9950 H   0  0  0  0  0  0  0  0  0  0  0  0
   -0.6194   -0.7663   -2.7222 H   0  0  0  0  0  0  0  0  0  0  0  0
   -3.0720   -0.7739    3.6777 H   0  0  0  0  0  0  0  0  0  0  0  0
   -5.2256   -0.2686    4.7991 H   0  0  0  0  0  0  0  0  0  0  0  0
   -7.2146    0.3558    3.4523 H   0  0  0  0  0  0  0  0  0  0  0  0
   -7.0650    0.4734    0.9982 H   0  0  0  0  0  0  0  0  0  0  0  0
   -6.7180    0.5002   -1.2026 H   0  0  0  0  0  0  0  0  0  0  0  0
   -5.5525    0.1628   -3.6187 H   0  0  0  0  0  0  0  0  0  0  0  0
   -3.0017   -0.5811   -3.1350 H   0  0  0  0  0  0  0  0  0  0  0  0
   -0.5716   -2.4863    0.6062 H   0  0  0  0  0  0  0  0  0  0  0  0
    0.1406   -0.9085    0.9944 H   0  0  0  0  0  0  0  0  0  0  0  0
    1.7984   -2.5381    0.0069 H   0  0  0  0  0  0  0  0  0  0  0  0
    0.8078   -2.6658   -1.4265 H   0  0  0  0  0  0  0  0  0  0  0  0
    4.1838    2.5032    0.7080 H   0  0  0  0  0  0  0  0  0  0  0  0
    6.2341    3.0063    1.9887 H   0  0  0  0  0  0  0  0  0  0  0  0
  1  2  2  0
  2  3  1  0
  3  4  2  0
  4  5  1  0
  5  6  1  0
  6  7  1  0
  7  8  1  0
  8  9  1  0
  9 10  1  0
 10 11  1  0
 11 12  2  0
 12 13  1  0
 13 14  2  0
 14 15  1  0
 15 16  2  0
 16 17  1  0
 17 18  2  0
 18 19  1  0
 19 20  1  0
 20 21  2  0
 21 22  1  0
 22 23  2  0
 10 24  1  0
 24 25  1  0
  4 26  1  0
 26 27  2  0
 27  1  1  0
 25  7  1  0
 23 11  1  0
 18 13  1  0
 23 19  1  0
  1 28  1  0
  2 29  1  0
  3 30  1  0
  5 31  1  0
  5 32  1  0
  6 33  1  0
  6 34  1  0
  8 35  1  0
  8 36  1  0
  9 37  1  0
  9 38  1  0
 14 39  1  0
 15 40  1  0
 16 41  1  0
 17 42  1  0
 20 43  1  0
 21 44  1  0
 22 45  1  0
 24 46  1  0
 24 47  1  0
 25 48  1  0
 25 49  1  0
 26 50  1  0
 27 51  1  0
M  END
$$$$
