
     RDKit          3D

 42 46  0  0  0  0  0  0  0  0999 V2000
    5.0052    2.3031    0.0439 C   0  0  0  0  0  0  0  0  0  0  0  0
    5.1867    1.0764   -0.5918 C   0  0  0  0  0  0  0  0  0  0  0  0
    4.1368    0.1492   -0.6691 C   0  0  0  0  0  0  0  0  0  0  0  0
    4.3091   -1.0842   -1.3064 C   0  0  0  0  0  0  0  0  0  0  0  0
    3.2583   -1.9992   -1.3786 C   0  0  0  0  0  0  0  0  0  0  0  0
    2.0099   -1.7044   -0.8151 C   0  0  0  0  0  0  0  0  0  0  0  0
    0.9613   -2.6248   -0.8905 C   0  0  0  0  0  0  0  0  0  0  0  0
   -0.2781   -2.3326   -0.3274 C   0  0  0  0  0  0  0  0  0  0  0  0
   -0.5055   -1.1093    0.3269 C   0  0  0  0  0  0  0  0  0  0  0  0
   -1.8839   -0.8708    0.9256 C   0  0  0  0  0  0  0  0  0  0  0  0
   -2.6614    0.1730    0.2403 N   0  0  0  0  0  0  0  0  0  0  0  0
   -3.9237    0.4719    0.9481 C   0  0  0  0  0  0  0  0  0  0  0  0
   -5.1546   -0.1926    0.3124 C   0  0  0  0  0  0  0  0  0  0  0  0
   -5.3647    0.1951   -1.0517 O   0  0  0  0  0  0  0  0  0  0  0  0
   -4.1529    0.5702   -1.7231 C   0  0  0  0  0  0  0  0  0  0  0  0
   -2.9230   -0.1690   -1.1757 C   0  0  0  0  0  0  0  0  0  0  0  0
    0.5459   -0.1541    0.4114 C   0  0  0  0  0  0  0  0  0  0  0  0
    0.4072    1.1001    1.0413 C   0  0  0  0  0  0  0  0  0  0  0  0
    1.4625    2.0135    1.1095 C   0  0  0  0  0  0  0  0  0  0  0  0
    2.7043    1.7093    0.5479 C   0  0  0  0  0  0  0  0  0  0  0  0
    3.7715    2.6178    0.6099 C   0  0  0  0  0  0  0  0  0  0  0  0
    2.8815    0.4639   -0.0947 C   0  0  0  0  0  0  0  0  0  0  0  0
    1.8069   -0.4641   -0.1638 C   0  0  0  0  0  0  0  0  0  0  0  0
    5.8252    3.0143    0.0975 H   0  0  0  0  0  0  0  0  0  0  0  0
    6.1566    0.8488   -1.0283 H   0  0  0  0  0  0  0  0  0  0  0  0
    5.2650   -1.3455   -1.7544 H   0  0  0  0  0  0  0  0  0  0  0  0
    3.4260   -2.9489   -1.8818 H   0  0  0  0  0  0  0  0  0  0  0  0
    1.1000   -3.5817   -1.3888 H   0  0  0  0  0  0  0  0  0  0  0  0
   -1.0733   -3.0712   -0.4039 H   0  0  0  0  0  0  0  0  0  0  0  0
   -1.7323   -0.5981    1.9787 H   0  0  0  0  0  0  0  0  0  0  0  0
   -2.4523   -1.8107    0.9504 H   0  0  0  0  0  0  0  0  0  0  0  0
   -4.0610    1.5599    0.9055 H   0  0  0  0  0  0  0  0  0  0  0  0
   -3.8644    0.2142    2.0122 H   0  0  0  0  0  0  0  0  0  0  0  0
   -5.0661   -1.2848    0.3465 H   0  0  0  0  0  0  0  0  0  0  0  0
   -6.0570    0.0769    0.8706 H   0  0  0  0  0  0  0  0  0  0  0  0
   -4.2857    0.3445   -2.7860 H   0  0  0  0  0  0  0  0  0  0  0  0
   -4.0310    1.6562   -1.6341 H   0  0  0  0  0  0  0  0  0  0  0  0
   -3.1051   -1.2465   -1.2824 H   0  0  0  0  0  0  0  0  0  0  0  0
   -2.0478    0.0914   -1.7808 H   0  0  0  0  0  0  0  0  0  0  0  0
   -0.5413    1.3946    1.4847 H   0  0  0  0  0  0  0  0  0  0  0  0
    1.2974    2.9677    1.6044 H   0  0  0  0  0  0  0  0  0  0  0  0
    3.6477    3.5804    1.1011 H   0  0  0  0  0  0  0  0  0  0  0  0
  1  2  2  0
  2  3  1  0
  3  4  2  0
  4  5  1  0
  5  6  2  0
  6  7  1  0
  7  8  2  0
  8  9  1  0
  9 10  1  0
 10 11  1  0
 11 12  1  0
 12 13  1  0
 13 14  1  0
 14 15  1  0
 15 16  1  0
  9 17  2  0
 17 18  1  0
 18 19  2  0
 19 20  1  0
 20 21  2  0
 20 22  1  0
 22 23  2  0
 21  1  1  0
 22  3  1  0
 23  6  1  0
 16 11  1  0
 23 17  1  0
  1 24  1  0
  2 25  1  0
  4 26  1  0
  5 27  1  0
  7 28  1  0
  8 29  1  0
 10 30  1  0
 10 31  1  0
 12 32  1  0
 12 33  1  0
 13 34  1  0
 13 35  1  0
 15 36  1  0
 15 37  1  0
 16 38  1  0
 16 39  1  0
 18 40  1  0
 19 41  1  0
 21 42  1  0
M  END
$$$$
