
     RDKit          3D

 48 51  0  0  0  0  0  0  0  0999 V2000
    2.7509   -1.0351   -3.0523 C   0  0  0  0  0  0  0  0  0  0  0  0
    3.1239    0.2628   -2.3517 C   0  0  0  0  0  0  0  0  0  0  0  0
    2.8289    0.1850   -0.9238 N   0  0  0  0  0  0  0  0  0  0  0  0
    1.6363    0.5273   -0.2802 C   0  0  0  0  0  0  0  0  0  0  0  0
    0.5078    0.9653   -0.8716 C   0  0  0  0  0  0  0  0  0  0  0  0
   -0.7353    1.3324   -0.1719 C   0  0  0  0  0  0  0  0  0  0  0  0
   -0.8363    2.6581    0.2279 C   0  0  0  0  0  0  0  0  0  0  0  0
   -1.9667    3.0900    0.8757 C   0  0  0  0  0  0  0  0  0  0  0  0
   -2.9903    2.1922    1.1292 C   0  0  0  0  0  0  0  0  0  0  0  0
   -4.1078    2.7056    1.7936 C   0  0  0  0  0  0  0  0  0  0  0  0
   -5.1804    1.8922    2.1000 C   0  0  0  0  0  0  0  0  0  0  0  0
   -5.1357    0.5545    1.7462 C   0  0  0  0  0  0  0  0  0  0  0  0
   -4.0260   -0.0151    1.0679 C   0  0  0  0  0  0  0  0  0  0  0  0
   -4.1926   -1.4963    0.8331 C   0  0  0  0  0  0  0  0  0  0  0  0
   -2.9031    0.8059    0.7305 C   0  0  0  0  0  0  0  0  0  0  0  0
   -1.7421    0.4247    0.0581 N   0  0  0  0  0  4  0  0  0  0  0  0
   -1.5316   -0.9542   -0.4669 C   0  0  0  0  0  0  0  0  0  0  0  0
   -2.0846   -1.0557   -1.8777 C   0  0  0  0  0  0  0  0  0  0  0  0
    1.6787    0.2873    1.4912 S   0  0  0  0  0  0  0  0  0  0  0  0
    3.3472   -0.3319    1.3265 C   0  0  0  0  0  0  0  0  0  0  0  0
    4.1461   -0.7884    2.3658 C   0  0  0  0  0  0  0  0  0  0  0  0
    5.4246   -1.2513    2.0629 C   0  0  0  0  0  0  0  0  0  0  0  0
    5.8789   -1.2526    0.7387 C   0  0  0  0  0  0  0  0  0  0  0  0
    5.0632   -0.7885   -0.3019 C   0  0  0  0  0  0  0  0  0  0  0  0
    3.7854   -0.3187   -0.0170 C   0  0  0  0  0  0  0  0  0  0  0  0
    1.6864   -1.2601   -2.9275 H   0  0  0  0  0  0  0  0  0  0  0  0
    3.3198   -1.8816   -2.6546 H   0  0  0  0  0  0  0  0  0  0  0  0
    2.9587   -0.9599   -4.1242 H   0  0  0  0  0  0  0  0  0  0  0  0
    2.5656    1.0888   -2.8080 H   0  0  0  0  0  0  0  0  0  0  0  0
    4.1770    0.5038   -2.5351 H   0  0  0  0  0  0  0  0  0  0  0  0
    0.4699    1.1044   -1.9475 H   0  0  0  0  0  0  0  0  0  0  0  0
   -0.0270    3.3626    0.0398 H   0  0  0  0  0  0  0  0  0  0  0  0
   -2.0310    4.1336    1.1843 H   0  0  0  0  0  0  0  0  0  0  0  0
   -4.1607    3.7543    2.0881 H   0  0  0  0  0  0  0  0  0  0  0  0
   -6.0472    2.2953    2.6206 H   0  0  0  0  0  0  0  0  0  0  0  0
   -5.9963   -0.0606    2.0177 H   0  0  0  0  0  0  0  0  0  0  0  0
   -3.5037   -2.0628    1.4665 H   0  0  0  0  0  0  0  0  0  0  0  0
   -4.0820   -1.7559   -0.2197 H   0  0  0  0  0  0  0  0  0  0  0  0
   -5.1979   -1.8437    1.1019 H   0  0  0  0  0  0  0  0  0  0  0  0
   -1.9401   -1.6820    0.2234 H   0  0  0  0  0  0  0  0  0  0  0  0
   -0.4683   -1.2029   -0.4692 H   0  0  0  0  0  0  0  0  0  0  0  0
   -3.1239   -0.7210   -1.9380 H   0  0  0  0  0  0  0  0  0  0  0  0
   -1.5084   -0.4353   -2.5714 H   0  0  0  0  0  0  0  0  0  0  0  0
   -2.0313   -2.0898   -2.2313 H   0  0  0  0  0  0  0  0  0  0  0  0
    3.7910   -0.7868    3.3913 H   0  0  0  0  0  0  0  0  0  0  0  0
    6.0742   -1.6134    2.8571 H   0  0  0  0  0  0  0  0  0  0  0  0
    6.8800   -1.6179    0.5161 H   0  0  0  0  0  0  0  0  0  0  0  0
    5.4557   -0.8112   -1.3125 H   0  0  0  0  0  0  0  0  0  0  0  0
  1  2  1  0
  2  3  1  0
  3  4  1  0
  4  5  2  3
  5  6  1  0
  6  7  2  0
  7  8  1  0
  8  9  2  0
  9 10  1  0
 10 11  2  0
 11 12  1  0
 12 13  2  0
 13 14  1  0
 13 15  1  0
 15 16  2  0
 16 17  1  0
 17 18  1  0
  4 19  1  0
 19 20  1  0
 20 21  2  0
 21 22  1  0
 22 23  2  0
 23 24  1  0
 24 25  2  0
 25  3  1  0
 16  6  1  0
 25 20  1  0
 15  9  1  0
  1 26  1  0
  1 27  1  0
  1 28  1  0
  2 29  1  0
  2 30  1  0
  5 31  1  0
  7 32  1  0
  8 33  1  0
 10 34  1  0
 11 35  1  0
 12 36  1  0
 14 37  1  0
 14 38  1  0
 14 39  1  0
 17 40  1  0
 17 41  1  0
 18 42  1  0
 18 43  1  0
 18 44  1  0
 21 45  1  0
 22 46  1  0
 23 47  1  0
 24 48  1  0
M  CHG  1  16   1
M  END
$$$$
