
     RDKit          3D

 54 57  0  0  0  0  0  0  0  0999 V2000
   -3.6082    5.3599    1.1123 C   0  0  0  0  0  0  0  0  0  0  0  0
   -3.3164    4.4115    0.0938 O   0  0  0  0  0  0  0  0  0  0  0  0
   -2.6662    3.2710    0.4754 C   0  0  0  0  0  0  0  0  0  0  0  0
   -2.2495    2.9570    1.7687 C   0  0  0  0  0  0  0  0  0  0  0  0
   -1.5966    1.7449    2.0254 C   0  0  0  0  0  0  0  0  0  0  0  0
   -1.3548    0.8402    0.9850 C   0  0  0  0  0  0  0  0  0  0  0  0
   -0.7037   -0.3919    1.2509 N   0  0  0  0  0  0  0  0  0  0  0  0
   -0.9738   -1.2913    2.2786 C   0  0  0  0  0  0  0  0  0  0  0  0
   -2.1354   -1.2408    3.2171 C   0  0  0  0  0  0  0  0  0  0  0  0
   -3.4520   -1.4629    2.5324 C   0  0  0  0  0  0  0  0  0  0  0  0
   -4.4882   -0.5683    2.3250 C   0  0  0  0  0  0  0  0  0  0  0  0
   -5.5163   -1.2448    1.6328 C   0  0  0  0  0  0  0  0  0  0  0  0
   -5.0923   -2.5374    1.4354 C   0  0  0  0  0  0  0  0  0  0  0  0
   -3.8436   -2.6689    1.9870 N   0  0  0  0  0  0  0  0  0  0  0  0
   -3.0782   -3.8989    1.9696 C   0  0  0  0  0  0  0  0  0  0  0  0
   -0.1236   -2.3010    2.2160 N   0  0  0  0  0  0  0  0  0  0  0  0
    0.6837   -2.1163    1.1327 N   0  0  0  0  0  0  0  0  0  0  0  0
    0.3347   -0.9896    0.5554 C   0  0  0  0  0  0  0  0  0  0  0  0
    1.2025   -0.2728   -0.7647 S   0  0  0  0  0  0  0  0  0  0  0  0
    2.2066   -1.6889   -1.2970 C   0  0  0  0  0  0  0  0  0  0  0  0
    3.0914   -1.2615   -2.4558 C   0  0  0  0  0  0  0  0  0  0  0  0
    2.6956   -1.3378   -3.6158 O   0  0  0  0  0  0  0  0  0  0  0  0
    4.3281   -0.7939   -2.0459 N   0  0  0  0  0  0  0  0  0  0  0  0
    5.3838   -0.3178   -2.8530 C   0  0  0  0  0  0  0  0  0  0  0  0
    5.3427   -0.2396   -4.2448 C   0  0  0  0  0  0  0  0  0  0  0  0
    6.4456    0.2510   -4.9556 C   0  0  0  0  0  0  0  0  0  0  0  0
    7.5974    0.6630   -4.2838 C   0  0  0  0  0  0  0  0  0  0  0  0
    7.6503    0.5868   -2.8943 C   0  0  0  0  0  0  0  0  0  0  0  0
    6.5482    0.1026   -2.1957 C   0  0  0  0  0  0  0  0  0  0  0  0
    6.6086    0.0379   -0.8557 F   0  0  0  0  0  0  0  0  0  0  0  0
   -1.7605    1.1577   -0.3145 C   0  0  0  0  0  0  0  0  0  0  0  0
   -2.4161    2.3672   -0.5600 C   0  0  0  0  0  0  0  0  0  0  0  0
   -4.2643    4.9304    1.8764 H   0  0  0  0  0  0  0  0  0  0  0  0
   -2.6892    5.7556    1.5569 H   0  0  0  0  0  0  0  0  0  0  0  0
   -4.1409    6.1956    0.6489 H   0  0  0  0  0  0  0  0  0  0  0  0
   -2.4092    3.6374    2.5995 H   0  0  0  0  0  0  0  0  0  0  0  0
   -1.2479    1.5553    3.0372 H   0  0  0  0  0  0  0  0  0  0  0  0
   -2.0040   -2.0129    3.9864 H   0  0  0  0  0  0  0  0  0  0  0  0
   -2.1522   -0.2978    3.7706 H   0  0  0  0  0  0  0  0  0  0  0  0
   -4.5006    0.4697    2.6348 H   0  0  0  0  0  0  0  0  0  0  0  0
   -6.4634   -0.8333    1.3108 H   0  0  0  0  0  0  0  0  0  0  0  0
   -5.5799   -3.3705    0.9455 H   0  0  0  0  0  0  0  0  0  0  0  0
   -2.6401   -4.0601    2.9566 H   0  0  0  0  0  0  0  0  0  0  0  0
   -2.3050   -3.8108    1.2026 H   0  0  0  0  0  0  0  0  0  0  0  0
   -3.7431   -4.7332    1.7319 H   0  0  0  0  0  0  0  0  0  0  0  0
    2.8250   -2.0589   -0.4724 H   0  0  0  0  0  0  0  0  0  0  0  0
    1.5649   -2.5095   -1.6339 H   0  0  0  0  0  0  0  0  0  0  0  0
    4.5150   -0.7625   -1.0471 H   0  0  0  0  0  0  0  0  0  0  0  0
    4.4683   -0.5470   -4.8098 H   0  0  0  0  0  0  0  0  0  0  0  0
    6.4012    0.3083   -6.0408 H   0  0  0  0  0  0  0  0  0  0  0  0
    8.4495    1.0406   -4.8435 H   0  0  0  0  0  0  0  0  0  0  0  0
    8.5355    0.9038   -2.3524 H   0  0  0  0  0  0  0  0  0  0  0  0
   -1.6211    0.4695   -1.1447 H   0  0  0  0  0  0  0  0  0  0  0  0
   -2.7424    2.6040   -1.5706 H   0  0  0  0  0  0  0  0  0  0  0  0
  1  2  1  0
  2  3  1  0
  3  4  2  0
  4  5  1  0
  5  6  2  0
  6  7  1  0
  7  8  1  0
  8  9  1  0
  9 10  1  0
 10 11  2  0
 11 12  1  0
 12 13  2  0
 13 14  1  0
 14 15  1  0
  8 16  2  0
 16 17  1  0
 17 18  2  0
 18 19  1  0
 19 20  1  0
 20 21  1  0
 21 22  2  0
 21 23  1  0
 23 24  1  0
 24 25  2  0
 25 26  1  0
 26 27  2  0
 27 28  1  0
 28 29  2  0
 29 30  1  0
  6 31  1  0
 31 32  2  0
 32  3  1  0
 18  7  1  0
 29 24  1  0
 14 10  1  0
  1 33  1  0
  1 34  1  0
  1 35  1  0
  4 36  1  0
  5 37  1  0
  9 38  1  0
  9 39  1  0
 11 40  1  0
 12 41  1  0
 13 42  1  0
 15 43  1  0
 15 44  1  0
 15 45  1  0
 20 46  1  0
 20 47  1  0
 23 48  1  0
 25 49  1  0
 26 50  1  0
 27 51  1  0
 28 52  1  0
 31 53  1  0
 32 54  1  0
M  END
$$$$
