
     RDKit          3D

 39 41  0  0  0  0  0  0  0  0999 V2000
    5.4229   -0.8434   -1.4610 C   0  0  0  0  0  0  0  0  0  0  0  0
    4.8774   -0.3106   -0.1479 C   0  0  0  0  0  0  0  0  0  0  0  0
    4.1553    0.9399   -0.3212 N   0  0  0  0  0  0  0  0  0  0  0  0
    4.8578    2.0939   -0.2349 N   0  0  0  0  0  0  0  0  0  0  0  0
    3.9439    3.0401   -0.4449 C   0  0  0  0  0  0  0  0  0  0  0  0
    2.6692    2.4957   -0.6317 C   0  0  0  0  0  0  0  0  0  0  0  0
    1.1615    3.5394   -1.0139 Br  0  0  0  0  0  0  0  0  0  0  0  0
    2.8009    1.1250   -0.5202 C   0  0  0  0  0  0  0  0  0  0  0  0
    1.8355    0.0468   -0.6220 C   0  0  0  0  0  0  0  0  0  0  0  0
    2.1717   -1.0600   -1.0265 O   0  0  0  0  0  0  0  0  0  0  0  0
    0.5707    0.3938   -0.1877 N   0  0  0  0  0  0  0  0  0  0  0  0
   -0.5738   -0.3935   -0.1719 C   0  0  0  0  0  0  0  0  0  0  0  0
   -0.5892   -1.9589   -0.8755 S   0  0  0  0  0  0  0  0  0  0  0  0
   -2.1947   -2.1584   -0.4826 C   0  0  0  0  0  0  0  0  0  0  0  0
   -2.7453   -1.0906    0.1668 C   0  0  0  0  0  0  0  0  0  0  0  0
   -1.8143   -0.0304    0.3641 C   0  0  0  0  0  0  0  0  0  0  0  0
   -2.0558    1.2534    1.0164 C   0  0  0  0  0  0  0  0  0  0  0  0
   -1.1761    2.0939    1.1784 O   0  0  0  0  0  0  0  0  0  0  0  0
   -3.3491    1.4127    1.4185 O   0  0  0  0  0  0  0  0  0  0  0  0
   -3.6129    2.6605    2.0598 C   0  0  0  0  0  0  0  0  0  0  0  0
   -4.1776   -1.3430    0.4750 C   0  0  0  0  0  0  0  0  0  0  0  0
   -4.3163   -2.8743    0.2059 C   0  0  0  0  0  0  0  0  0  0  0  0
   -3.1296   -3.2818   -0.7177 C   0  0  0  0  0  0  0  0  0  0  0  0
    4.6208   -1.0331   -2.1815 H   0  0  0  0  0  0  0  0  0  0  0  0
    5.9619   -1.7806   -1.2952 H   0  0  0  0  0  0  0  0  0  0  0  0
    6.1152   -0.1279   -1.9180 H   0  0  0  0  0  0  0  0  0  0  0  0
    5.6995   -0.1170    0.5517 H   0  0  0  0  0  0  0  0  0  0  0  0
    4.2158   -1.0338    0.3367 H   0  0  0  0  0  0  0  0  0  0  0  0
    4.2530    4.0773   -0.4561 H   0  0  0  0  0  0  0  0  0  0  0  0
    0.4529    1.3231    0.2113 H   0  0  0  0  0  0  0  0  0  0  0  0
   -2.9746    2.7868    2.9405 H   0  0  0  0  0  0  0  0  0  0  0  0
   -4.6556    2.6576    2.3883 H   0  0  0  0  0  0  0  0  0  0  0  0
   -3.4749    3.4873    1.3553 H   0  0  0  0  0  0  0  0  0  0  0  0
   -4.8205   -0.7750   -0.2053 H   0  0  0  0  0  0  0  0  0  0  0  0
   -4.4400   -1.1044    1.5095 H   0  0  0  0  0  0  0  0  0  0  0  0
   -4.2282   -3.4120    1.1589 H   0  0  0  0  0  0  0  0  0  0  0  0
   -5.2873   -3.1332   -0.2270 H   0  0  0  0  0  0  0  0  0  0  0  0
   -2.7208   -4.2540   -0.4303 H   0  0  0  0  0  0  0  0  0  0  0  0
   -3.4492   -3.3111   -1.7641 H   0  0  0  0  0  0  0  0  0  0  0  0
  1  2  1  0
  2  3  1  0
  3  4  1  0
  4  5  2  0
  5  6  1  0
  6  7  1  0
  6  8  2  0
  8  9  1  0
  9 10  2  0
  9 11  1  0
 11 12  1  0
 12 13  1  0
 13 14  1  0
 14 15  2  0
 15 16  1  0
 16 17  1  0
 17 18  2  0
 17 19  1  0
 19 20  1  0
 15 21  1  0
 21 22  1  0
 22 23  1  0
  8  3  1  0
 16 12  2  0
 23 14  1  0
  1 24  1  0
  1 25  1  0
  1 26  1  0
  2 27  1  0
  2 28  1  0
  5 29  1  0
 11 30  1  0
 20 31  1  0
 20 32  1  0
 20 33  1  0
 21 34  1  0
 21 35  1  0
 22 36  1  0
 22 37  1  0
 23 38  1  0
 23 39  1  0
M  END
$$$$
