
     RDKit          3D

 55 60  0  0  0  0  0  0  0  0999 V2000
    4.8131    1.9030    1.1590 O   0  0  0  0  0  0  0  0  0  0  0  0
    4.1339    0.9085    1.4105 C   0  0  0  0  0  0  0  0  0  0  0  0
    4.6278   -0.0967    2.3411 C   0  0  0  0  0  0  0  0  0  0  0  0
    3.9527   -0.9286    3.2836 C   0  0  0  0  0  0  0  0  0  0  0  0
    4.9205   -1.6644    3.9268 C   0  0  0  0  0  0  0  0  0  0  0  0
    6.1510   -1.3307    3.4656 O   0  0  0  0  0  0  0  0  0  0  0  0
    5.9702   -0.3701    2.5249 C   0  0  0  0  0  0  0  0  0  0  0  0
    2.8721    0.7287    0.8308 N   0  0  0  0  0  0  0  0  0  0  0  0
    2.3325    1.8430    0.0616 C   0  0  0  0  0  0  0  0  0  0  0  0
    0.8339    1.6873   -0.1645 C   0  0  0  0  0  0  0  0  0  0  0  0
    0.5348    0.4342   -1.0251 C   0  0  0  0  0  0  0  0  0  0  0  0
    1.4991   -0.7308   -0.6421 C   0  0  0  0  0  0  0  0  0  0  0  0
    2.1939   -0.5586    0.7081 C   0  0  0  0  0  0  0  0  0  0  0  0
    0.9176    0.7381   -2.3994 O   0  0  0  0  0  0  0  0  0  0  0  0
    0.0341    1.4278   -3.1764 C   0  0  0  0  0  0  0  0  0  0  0  0
    0.5309    1.9139   -4.3869 C   0  0  0  0  0  0  0  0  0  0  0  0
   -0.2955    2.6558   -5.2330 C   0  0  0  0  0  0  0  0  0  0  0  0
   -1.6137    2.9048   -4.8630 C   0  0  0  0  0  0  0  0  0  0  0  0
   -2.4006    3.6215   -5.6752 F   0  0  0  0  0  0  0  0  0  0  0  0
   -2.1257    2.4194   -3.6673 C   0  0  0  0  0  0  0  0  0  0  0  0
   -1.2938    1.6688   -2.8336 C   0  0  0  0  0  0  0  0  0  0  0  0
   -1.8001    1.1184   -1.5704 C   0  0  0  0  0  0  0  0  0  0  0  0
   -2.8304    1.5658   -1.0745 O   0  0  0  0  0  0  0  0  0  0  0  0
   -0.9596    0.0081   -0.9509 C   0  0  0  0  0  0  0  0  0  0  0  0
   -1.4674   -0.3634    0.4334 C   0  0  0  0  0  0  0  0  0  0  0  0
   -2.3816   -1.4775    0.0479 C   0  0  0  0  0  0  0  0  0  0  0  0
   -3.3929   -2.0308    0.9794 C   0  0  0  0  0  0  0  0  0  0  0  0
   -3.5055   -1.5739    2.2980 C   0  0  0  0  0  0  0  0  0  0  0  0
   -4.4699   -2.1240    3.1497 C   0  0  0  0  0  0  0  0  0  0  0  0
   -5.3183   -3.1285    2.6861 C   0  0  0  0  0  0  0  0  0  0  0  0
   -6.4998   -3.8016    3.7389 Cl  0  0  0  0  0  0  0  0  0  0  0  0
   -5.2127   -3.5900    1.3765 C   0  0  0  0  0  0  0  0  0  0  0  0
   -4.2505   -3.0419    0.5238 C   0  0  0  0  0  0  0  0  0  0  0  0
   -2.1898   -1.9433   -1.1452 N   0  0  0  0  0  0  0  0  0  0  0  0
   -1.1695   -1.1731   -1.7445 O   0  0  0  0  0  0  0  0  0  0  0  0
    2.8931   -0.9753    3.4869 H   0  0  0  0  0  0  0  0  0  0  0  0
    4.9012   -2.4144    4.7055 H   0  0  0  0  0  0  0  0  0  0  0  0
    6.8730    0.0208    2.0745 H   0  0  0  0  0  0  0  0  0  0  0  0
    2.8756    1.8937   -0.8898 H   0  0  0  0  0  0  0  0  0  0  0  0
    2.5308    2.7764    0.6015 H   0  0  0  0  0  0  0  0  0  0  0  0
    0.3362    1.6164    0.8100 H   0  0  0  0  0  0  0  0  0  0  0  0
    0.4652    2.5976   -0.6504 H   0  0  0  0  0  0  0  0  0  0  0  0
    0.9806   -1.6962   -0.6444 H   0  0  0  0  0  0  0  0  0  0  0  0
    2.2835   -0.8249   -1.4067 H   0  0  0  0  0  0  0  0  0  0  0  0
    2.9078   -1.3780    0.8335 H   0  0  0  0  0  0  0  0  0  0  0  0
    1.4678   -0.6167    1.5246 H   0  0  0  0  0  0  0  0  0  0  0  0
    1.5632    1.7215   -4.6696 H   0  0  0  0  0  0  0  0  0  0  0  0
    0.0801    3.0423   -6.1758 H   0  0  0  0  0  0  0  0  0  0  0  0
   -3.1600    2.6180   -3.4026 H   0  0  0  0  0  0  0  0  0  0  0  0
   -1.9772    0.4485    0.9562 H   0  0  0  0  0  0  0  0  0  0  0  0
   -0.6948   -0.7846    1.0798 H   0  0  0  0  0  0  0  0  0  0  0  0
   -2.8600   -0.7936    2.6891 H   0  0  0  0  0  0  0  0  0  0  0  0
   -4.5555   -1.7640    4.1721 H   0  0  0  0  0  0  0  0  0  0  0  0
   -5.8731   -4.3721    1.0108 H   0  0  0  0  0  0  0  0  0  0  0  0
   -4.1782   -3.4086   -0.4990 H   0  0  0  0  0  0  0  0  0  0  0  0
  1  2  2  0
  2  3  1  0
  3  4  1  0
  4  5  2  0
  5  6  1  0
  6  7  1  0
  2  8  1  0
  8  9  1  0
  9 10  1  0
 10 11  1  0
 11 12  1  0
 12 13  1  0
 11 14  1  0
 14 15  1  0
 15 16  2  0
 16 17  1  0
 17 18  2  0
 18 19  1  0
 18 20  1  0
 20 21  2  0
 21 22  1  0
 22 23  2  0
 22 24  1  0
 24 25  1  0
 25 26  1  0
 26 27  1  0
 27 28  2  0
 28 29  1  0
 29 30  2  0
 30 31  1  0
 30 32  1  0
 32 33  2  0
 26 34  2  0
 34 35  1  0
  7  3  2  0
 13  8  1  0
 21 15  1  0
 35 24  1  0
 24 11  1  0
 33 27  1  0
  4 36  1  0
  5 37  1  0
  7 38  1  0
  9 39  1  0
  9 40  1  0
 10 41  1  0
 10 42  1  0
 12 43  1  0
 12 44  1  0
 13 45  1  0
 13 46  1  0
 16 47  1  0
 17 48  1  0
 20 49  1  0
 25 50  1  0
 25 51  1  0
 28 52  1  0
 29 53  1  0
 32 54  1  0
 33 55  1  0
M  END
$$$$
