
     RDKit          3D

 37 38  0  0  0  0  0  0  0  0999 V2000
    0.7431   -2.0117    1.2177 O   0  0  0  0  0  0  0  0  0  0  0  0
    0.3742   -1.6113    0.1198 C   0  0  0  0  0  0  0  0  0  0  0  0
   -0.9615   -2.0250   -0.4797 C   0  0  0  0  0  0  0  0  0  0  0  0
   -1.9859   -2.4719    0.5658 C   0  0  0  0  0  0  0  0  0  0  0  0
   -2.3795   -1.3854    1.5767 C   0  0  0  0  0  0  0  0  0  0  0  0
   -2.9118   -0.1256    0.9389 C   0  0  0  0  0  0  0  0  0  0  0  0
   -4.1642   -0.1169    0.3107 C   0  0  0  0  0  0  0  0  0  0  0  0
   -4.6430    1.0458   -0.2951 C   0  0  0  0  0  0  0  0  0  0  0  0
   -3.8761    2.2093   -0.2777 C   0  0  0  0  0  0  0  0  0  0  0  0
   -2.6307    2.2127    0.3475 C   0  0  0  0  0  0  0  0  0  0  0  0
   -2.1502    1.0513    0.9539 C   0  0  0  0  0  0  0  0  0  0  0  0
    1.0890   -0.7897   -0.7375 N   0  0  0  0  0  0  0  0  0  0  0  0
    2.3601   -0.2180   -0.5208 C   0  0  0  0  0  0  0  0  0  0  0  0
    3.1233   -0.4229    0.6323 C   0  0  0  0  0  0  0  0  0  0  0  0
    4.3785    0.1796    0.7797 C   0  0  0  0  0  0  0  0  0  0  0  0
    4.8884    0.9969   -0.2261 C   0  0  0  0  0  0  0  0  0  0  0  0
    4.1295    1.2052   -1.3819 C   0  0  0  0  0  0  0  0  0  0  0  0
    4.6537    2.0641   -2.4501 N   0  0  0  0  0  4  0  0  0  0  0  0
    5.7651    2.5848   -2.2805 O   0  0  0  0  0  0  0  0  0  0  0  0
    3.9520    2.2184   -3.4604 O   0  0  0  0  0  1  0  0  0  0  0  0
    2.8707    0.6028   -1.5336 C   0  0  0  0  0  0  0  0  0  0  0  0
   -1.3705   -1.2089   -1.0854 H   0  0  0  0  0  0  0  0  0  0  0  0
   -0.7612   -2.8612   -1.1605 H   0  0  0  0  0  0  0  0  0  0  0  0
   -1.5950   -3.3348    1.1191 H   0  0  0  0  0  0  0  0  0  0  0  0
   -2.8825   -2.8225    0.0395 H   0  0  0  0  0  0  0  0  0  0  0  0
   -1.5275   -1.1449    2.2235 H   0  0  0  0  0  0  0  0  0  0  0  0
   -3.1498   -1.7850    2.2490 H   0  0  0  0  0  0  0  0  0  0  0  0
   -4.7758   -1.0161    0.2927 H   0  0  0  0  0  0  0  0  0  0  0  0
   -5.6170    1.0447   -0.7774 H   0  0  0  0  0  0  0  0  0  0  0  0
   -4.2519    3.1152   -0.7460 H   0  0  0  0  0  0  0  0  0  0  0  0
   -2.0352    3.1216    0.3678 H   0  0  0  0  0  0  0  0  0  0  0  0
   -1.1771    1.0707    1.4411 H   0  0  0  0  0  0  0  0  0  0  0  0
    0.6367   -0.5551   -1.6135 H   0  0  0  0  0  0  0  0  0  0  0  0
    2.7710   -1.0522    1.4449 H   0  0  0  0  0  0  0  0  0  0  0  0
    4.9547    0.0050    1.6862 H   0  0  0  0  0  0  0  0  0  0  0  0
    5.8655    1.4568   -0.0947 H   0  0  0  0  0  0  0  0  0  0  0  0
    2.2910    0.7742   -2.4379 H   0  0  0  0  0  0  0  0  0  0  0  0
  1  2  2  0
  2  3  1  0
  3  4  1  0
  4  5  1  0
  5  6  1  0
  6  7  2  0
  7  8  1  0
  8  9  2  0
  9 10  1  0
 10 11  2  0
  2 12  1  0
 12 13  1  0
 13 14  2  0
 14 15  1  0
 15 16  2  0
 16 17  1  0
 17 18  1  0
 18 19  2  0
 18 20  1  0
 17 21  2  0
 11  6  1  0
 21 13  1  0
  3 22  1  0
  3 23  1  0
  4 24  1  0
  4 25  1  0
  5 26  1  0
  5 27  1  0
  7 28  1  0
  8 29  1  0
  9 30  1  0
 10 31  1  0
 11 32  1  0
 12 33  1  0
 14 34  1  0
 15 35  1  0
 16 36  1  0
 21 37  1  0
M  CHG  2  18   1  20  -1
M  END
$$$$
