
     RDKit          3D

 43 45  0  0  0  0  0  0  0  0999 V2000
    2.6151    1.0323    2.1273 O   0  0  0  0  0  0  0  0  0  0  0  0
    2.6450   -0.1857    1.9729 C   0  0  0  0  0  0  0  0  0  0  0  0
    3.8936   -0.9805    2.3376 C   0  0  0  0  0  0  0  0  0  0  0  0
    4.3353   -2.1983    1.0459 S   0  0  0  0  0  0  0  0  0  0  0  0
    4.7045   -1.0916   -0.3085 C   0  0  0  0  0  0  0  0  0  0  0  0
    3.9601   -1.1988   -1.4888 C   0  0  0  0  0  0  0  0  0  0  0  0
    4.2205   -0.3490   -2.5683 C   0  0  0  0  0  0  0  0  0  0  0  0
    5.2321    0.6074   -2.4810 C   0  0  0  0  0  0  0  0  0  0  0  0
    5.9877    0.7125   -1.3150 C   0  0  0  0  0  0  0  0  0  0  0  0
    5.7237   -0.1355   -0.2420 C   0  0  0  0  0  0  0  0  0  0  0  0
    6.4783   -0.0191    0.8615 F   0  0  0  0  0  0  0  0  0  0  0  0
    1.5963   -0.9814    1.5399 N   0  0  0  0  0  0  0  0  0  0  0  0
    0.3094   -0.5772    1.1393 C   0  0  0  0  0  0  0  0  0  0  0  0
   -0.1418    0.7384    1.1653 C   0  0  0  0  0  0  0  0  0  0  0  0
   -1.4426    1.0571    0.7423 C   0  0  0  0  0  0  0  0  0  0  0  0
   -2.3348    0.0750    0.2943 C   0  0  0  0  0  0  0  0  0  0  0  0
   -3.6382    0.3485   -0.1480 N   0  0  0  0  0  0  0  0  0  0  0  0
   -4.6935   -0.3398    0.6371 C   0  0  0  0  0  0  0  0  0  0  0  0
   -6.0551   -0.1802   -0.0604 C   0  0  0  0  0  0  0  0  0  0  0  0
   -6.3852    1.2008   -0.2777 O   0  0  0  0  0  0  0  0  0  0  0  0
   -5.3786    1.8224   -1.0933 C   0  0  0  0  0  0  0  0  0  0  0  0
   -3.9971    1.7574   -0.4233 C   0  0  0  0  0  0  0  0  0  0  0  0
   -1.8567   -1.2437    0.2647 C   0  0  0  0  0  0  0  0  0  0  0  0
   -0.5596   -1.5691    0.6823 C   0  0  0  0  0  0  0  0  0  0  0  0
    4.7256   -0.2942    2.5169 H   0  0  0  0  0  0  0  0  0  0  0  0
    3.6950   -1.5177    3.2706 H   0  0  0  0  0  0  0  0  0  0  0  0
    3.1660   -1.9364   -1.5788 H   0  0  0  0  0  0  0  0  0  0  0  0
    3.6302   -0.4332   -3.4781 H   0  0  0  0  0  0  0  0  0  0  0  0
    5.4314    1.2686   -3.3209 H   0  0  0  0  0  0  0  0  0  0  0  0
    6.7813    1.4486   -1.2329 H   0  0  0  0  0  0  0  0  0  0  0  0
    1.8114   -1.9671    1.4343 H   0  0  0  0  0  0  0  0  0  0  0  0
    0.4891    1.5521    1.5086 H   0  0  0  0  0  0  0  0  0  0  0  0
   -1.7351    2.1015    0.7932 H   0  0  0  0  0  0  0  0  0  0  0  0
   -4.4923   -1.4103    0.7503 H   0  0  0  0  0  0  0  0  0  0  0  0
   -4.7427    0.1080    1.6382 H   0  0  0  0  0  0  0  0  0  0  0  0
   -6.0653   -0.7035   -1.0241 H   0  0  0  0  0  0  0  0  0  0  0  0
   -6.8434   -0.6143    0.5627 H   0  0  0  0  0  0  0  0  0  0  0  0
   -5.3648    1.3360   -2.0761 H   0  0  0  0  0  0  0  0  0  0  0  0
   -5.6709    2.8668   -1.2408 H   0  0  0  0  0  0  0  0  0  0  0  0
   -3.2629    2.2206   -1.0925 H   0  0  0  0  0  0  0  0  0  0  0  0
   -4.0334    2.3210    0.5176 H   0  0  0  0  0  0  0  0  0  0  0  0
   -2.4911   -2.0398   -0.1174 H   0  0  0  0  0  0  0  0  0  0  0  0
   -0.2467   -2.6083    0.6325 H   0  0  0  0  0  0  0  0  0  0  0  0
  1  2  2  0
  2  3  1  0
  3  4  1  0
  4  5  1  0
  5  6  2  0
  6  7  1  0
  7  8  2  0
  8  9  1  0
  9 10  2  0
 10 11  1  0
  2 12  1  0
 12 13  1  0
 13 14  2  0
 14 15  1  0
 15 16  2  0
 16 17  1  0
 17 18  1  0
 18 19  1  0
 19 20  1  0
 20 21  1  0
 21 22  1  0
 16 23  1  0
 23 24  2  0
 10  5  1  0
 24 13  1  0
 22 17  1  0
  3 25  1  0
  3 26  1  0
  6 27  1  0
  7 28  1  0
  8 29  1  0
  9 30  1  0
 12 31  1  0
 14 32  1  0
 15 33  1  0
 18 34  1  0
 18 35  1  0
 19 36  1  0
 19 37  1  0
 21 38  1  0
 21 39  1  0
 22 40  1  0
 22 41  1  0
 23 42  1  0
 24 43  1  0
M  END
$$$$
