
     RDKit          3D

 39 40  0  0  0  0  0  0  0  0999 V2000
   -1.5617   -0.2122   -2.4272 C   0  0  0  0  0  0  0  0  0  0  0  0
   -2.4100    0.0234   -1.1936 C   0  0  0  0  0  0  0  0  0  0  0  0
   -1.8797    0.2777    0.0182 C   0  0  0  0  0  0  0  0  0  0  0  0
   -0.4116    0.4033    0.1900 C   0  0  0  0  0  0  0  0  0  0  0  0
    0.2329   -0.1794    1.1501 N   0  0  0  0  0  0  0  0  0  0  0  0
    1.5964   -0.0368    1.1877 N   0  0  0  0  0  0  0  0  0  0  0  0
    2.4197   -0.0745    0.0684 C   0  0  0  0  0  0  0  0  0  0  0  0
    2.0379   -0.1641   -1.0982 O   0  0  0  0  0  0  0  0  0  0  0  0
    3.8872   -0.0599    0.3299 C   0  0  0  0  0  0  0  0  0  0  0  0
    4.4144    0.4885    1.5086 C   0  0  0  0  0  0  0  0  0  0  0  0
    5.7946    0.4736    1.7231 C   0  0  0  0  0  0  0  0  0  0  0  0
    6.4991    1.2099    3.3163 Br  0  0  0  0  0  0  0  0  0  0  0  0
    6.6595   -0.0725    0.7765 C   0  0  0  0  0  0  0  0  0  0  0  0
    6.1429   -0.5984   -0.4067 C   0  0  0  0  0  0  0  0  0  0  0  0
    4.7675   -0.5822   -0.6322 C   0  0  0  0  0  0  0  0  0  0  0  0
    4.3495   -1.0998   -1.8293 O   0  0  0  0  0  0  0  0  0  0  0  0
   -2.7769    0.4873    1.1770 C   0  0  0  0  0  0  0  0  0  0  0  0
   -2.3480    0.9749    2.2218 O   0  0  0  0  0  0  0  0  0  0  0  0
   -4.1030    0.1530    0.9891 N   0  0  0  0  0  0  0  0  0  0  0  0
   -4.9921    0.2619    2.1296 C   0  0  0  0  0  0  0  0  0  0  0  0
   -4.6822   -0.0142   -0.2593 C   0  0  0  0  0  0  0  0  0  0  0  0
   -5.9036   -0.1016   -0.4003 O   0  0  0  0  0  0  0  0  0  0  0  0
   -3.7989   -0.0610   -1.3429 N   0  0  0  0  0  0  0  0  0  0  0  0
   -4.3905   -0.2643   -2.6654 C   0  0  0  0  0  0  0  0  0  0  0  0
   -1.8625   -1.1337   -2.9368 H   0  0  0  0  0  0  0  0  0  0  0  0
   -0.4979   -0.3349   -2.2110 H   0  0  0  0  0  0  0  0  0  0  0  0
   -1.6596    0.6271   -3.1235 H   0  0  0  0  0  0  0  0  0  0  0  0
    0.0882    1.0400   -0.5602 H   0  0  0  0  0  0  0  0  0  0  0  0
    1.9888   -0.3242    2.0801 H   0  0  0  0  0  0  0  0  0  0  0  0
    3.7700    0.9500    2.2517 H   0  0  0  0  0  0  0  0  0  0  0  0
    7.7338   -0.0847    0.9435 H   0  0  0  0  0  0  0  0  0  0  0  0
    6.8100   -1.0150   -1.1575 H   0  0  0  0  0  0  0  0  0  0  0  0
    3.3924   -0.8972   -1.9316 H   0  0  0  0  0  0  0  0  0  0  0  0
   -4.4624    0.0461    3.0624 H   0  0  0  0  0  0  0  0  0  0  0  0
   -5.3825    1.2840    2.1691 H   0  0  0  0  0  0  0  0  0  0  0  0
   -5.8307   -0.4343    2.0330 H   0  0  0  0  0  0  0  0  0  0  0  0
   -4.1747   -1.2840   -2.9988 H   0  0  0  0  0  0  0  0  0  0  0  0
   -3.9799    0.4624   -3.3728 H   0  0  0  0  0  0  0  0  0  0  0  0
   -5.4762   -0.1342   -2.6584 H   0  0  0  0  0  0  0  0  0  0  0  0
  1  2  1  0
  2  3  2  0
  3  4  1  0
  4  5  2  3
  5  6  1  0
  6  7  1  0
  7  8  2  0
  7  9  1  0
  9 10  2  0
 10 11  1  0
 11 12  1  0
 11 13  2  0
 13 14  1  0
 14 15  2  0
 15 16  1  0
  3 17  1  0
 17 18  2  0
 17 19  1  0
 19 20  1  0
 19 21  1  0
 21 22  2  0
 21 23  1  0
 23 24  1  0
 23  2  1  0
 15  9  1  0
  1 25  1  0
  1 26  1  0
  1 27  1  0
  4 28  1  0
  6 29  1  0
 10 30  1  0
 13 31  1  0
 14 32  1  0
 16 33  1  0
 20 34  1  0
 20 35  1  0
 20 36  1  0
 24 37  1  0
 24 38  1  0
 24 39  1  0
M  END
$$$$
