
     RDKit          3D

 63 67  0  0  0  0  0  0  0  0999 V2000
    8.1869    2.4269   -2.6403 C   0  0  0  0  0  0  0  0  0  0  0  0
    6.7258    2.2377   -3.0006 C   0  0  0  0  0  0  0  0  0  0  0  0
    6.0689    1.6075   -1.8951 O   0  0  0  0  0  0  0  0  0  0  0  0
    4.7371    1.3804   -2.0953 C   0  0  0  0  0  0  0  0  0  0  0  0
    4.1304    1.6740   -3.1191 O   0  0  0  0  0  0  0  0  0  0  0  0
    4.0974    0.7400   -0.9529 C   0  0  0  0  0  0  0  0  0  0  0  0
    2.7218    0.3896   -0.8315 C   0  0  0  0  0  0  0  0  0  0  0  0
    2.5330   -0.2205    0.3951 C   0  0  0  0  0  0  0  0  0  0  0  0
    1.3451   -0.7709    1.0305 C   0  0  0  0  0  0  0  0  0  0  0  0
    0.1258   -0.8704    0.3704 N   0  0  0  0  0  0  0  0  0  0  0  0
    0.0271   -1.6424   -0.8780 C   0  0  0  0  0  0  0  0  0  0  0  0
   -1.2705   -1.2633   -1.6192 C   0  0  0  0  0  0  0  0  0  0  0  0
   -2.5147   -1.5862   -0.8777 N   0  0  0  0  0  0  0  0  0  0  0  0
   -3.5542   -0.5830   -1.1701 C   0  0  0  0  0  0  0  0  0  0  0  0
   -4.9751   -1.1064   -0.8896 C   0  0  0  0  0  0  0  0  0  0  0  0
   -6.0137   -0.0140   -1.0692 C   0  0  0  0  0  0  0  0  0  0  0  0
   -6.4741    0.2627   -2.3692 C   0  0  0  0  0  0  0  0  0  0  0  0
   -7.4057    1.2748   -2.5999 C   0  0  0  0  0  0  0  0  0  0  0  0
   -7.8932    2.0259   -1.5367 C   0  0  0  0  0  0  0  0  0  0  0  0
   -7.4480    1.7663   -0.2407 C   0  0  0  0  0  0  0  0  0  0  0  0
   -6.5026    0.7528    0.0147 C   0  0  0  0  0  0  0  0  0  0  0  0
   -6.0534    0.5099    1.4400 C   0  0  0  0  0  0  0  0  0  0  0  0
   -6.5303    1.4296    2.3281 F   0  0  0  0  0  0  0  0  0  0  0  0
   -4.6962    0.5393    1.5799 F   0  0  0  0  0  0  0  0  0  0  0  0
   -6.4529   -0.7021    1.9178 F   0  0  0  0  0  0  0  0  0  0  0  0
   -2.2386   -1.7095    0.5752 C   0  0  0  0  0  0  0  0  0  0  0  0
   -1.1362   -0.7799    1.1345 C   0  0  0  0  0  0  0  0  0  0  0  0
    1.4351   -1.1695    2.2740 N   0  0  0  0  0  0  0  0  0  0  0  0
    2.6640   -1.1155    2.9615 C   0  0  0  0  0  0  0  0  0  0  0  0
    2.7058   -1.5653    4.2826 C   0  0  0  0  0  0  0  0  0  0  0  0
    3.9010   -1.5434    5.0073 C   0  0  0  0  0  0  0  0  0  0  0  0
    5.0716   -1.0704    4.4134 C   0  0  0  0  0  0  0  0  0  0  0  0
    5.0539   -0.6152    3.0943 C   0  0  0  0  0  0  0  0  0  0  0  0
    3.8503   -0.6428    2.3825 C   0  0  0  0  0  0  0  0  0  0  0  0
    3.7377   -0.1865    1.0593 N   0  0  0  0  0  0  0  0  0  0  0  0
    4.6961    0.3573    0.2378 C   0  0  0  0  0  0  0  0  0  0  0  0
    8.2850    3.0414   -1.7386 H   0  0  0  0  0  0  0  0  0  0  0  0
    8.7308    2.9094   -3.4571 H   0  0  0  0  0  0  0  0  0  0  0  0
    8.6586    1.4620   -2.4235 H   0  0  0  0  0  0  0  0  0  0  0  0
    6.2652    3.2137   -3.1977 H   0  0  0  0  0  0  0  0  0  0  0  0
    6.6452    1.6022   -3.8905 H   0  0  0  0  0  0  0  0  0  0  0  0
    1.9563    0.5738   -1.5752 H   0  0  0  0  0  0  0  0  0  0  0  0
    0.0466   -2.7165   -0.6532 H   0  0  0  0  0  0  0  0  0  0  0  0
    0.8727   -1.4470   -1.5429 H   0  0  0  0  0  0  0  0  0  0  0  0
   -1.3029   -1.7843   -2.5829 H   0  0  0  0  0  0  0  0  0  0  0  0
   -1.2178   -0.1870   -1.8363 H   0  0  0  0  0  0  0  0  0  0  0  0
   -3.3596    0.3480   -0.6214 H   0  0  0  0  0  0  0  0  0  0  0  0
   -3.5155   -0.3231   -2.2376 H   0  0  0  0  0  0  0  0  0  0  0  0
   -5.0598   -1.5391    0.1117 H   0  0  0  0  0  0  0  0  0  0  0  0
   -5.2039   -1.9342   -1.5753 H   0  0  0  0  0  0  0  0  0  0  0  0
   -6.1035   -0.3128   -3.2160 H   0  0  0  0  0  0  0  0  0  0  0  0
   -7.7500    1.4764   -3.6112 H   0  0  0  0  0  0  0  0  0  0  0  0
   -8.6204    2.8149   -1.7155 H   0  0  0  0  0  0  0  0  0  0  0  0
   -7.8443    2.3660    0.5784 H   0  0  0  0  0  0  0  0  0  0  0  0
   -3.1487   -1.5833    1.1717 H   0  0  0  0  0  0  0  0  0  0  0  0
   -1.9282   -2.7487    0.7518 H   0  0  0  0  0  0  0  0  0  0  0  0
   -1.4796    0.2620    1.0966 H   0  0  0  0  0  0  0  0  0  0  0  0
   -0.9921   -1.0303    2.1929 H   0  0  0  0  0  0  0  0  0  0  0  0
    1.7967   -1.9361    4.7477 H   0  0  0  0  0  0  0  0  0  0  0  0
    3.9141   -1.8970    6.0355 H   0  0  0  0  0  0  0  0  0  0  0  0
    5.9991   -1.0546    4.9811 H   0  0  0  0  0  0  0  0  0  0  0  0
    5.9758   -0.2490    2.6557 H   0  0  0  0  0  0  0  0  0  0  0  0
    5.7253    0.4555    0.5540 H   0  0  0  0  0  0  0  0  0  0  0  0
  1  2  1  0
  2  3  1  0
  3  4  1  0
  4  5  2  0
  4  6  1  0
  6  7  1  0
  7  8  2  0
  8  9  1  0
  9 10  1  0
 10 11  1  0
 11 12  1  0
 12 13  1  0
 13 14  1  0
 14 15  1  0
 15 16  1  0
 16 17  2  0
 17 18  1  0
 18 19  2  0
 19 20  1  0
 20 21  2  0
 21 22  1  0
 22 23  1  0
 22 24  1  0
 22 25  1  0
 13 26  1  0
 26 27  1  0
  9 28  2  0
 28 29  1  0
 29 30  2  0
 30 31  1  0
 31 32  2  0
 32 33  1  0
 33 34  2  0
 34 35  1  0
 35 36  1  0
 36  6  2  0
 35  8  1  0
 27 10  1  0
 34 29  1  0
 21 16  1  0
  1 37  1  0
  1 38  1  0
  1 39  1  0
  2 40  1  0
  2 41  1  0
  7 42  1  0
 11 43  1  0
 11 44  1  0
 12 45  1  0
 12 46  1  0
 14 47  1  0
 14 48  1  0
 15 49  1  0
 15 50  1  0
 17 51  1  0
 18 52  1  0
 19 53  1  0
 20 54  1  0
 26 55  1  0
 26 56  1  0
 27 57  1  0
 27 58  1  0
 30 59  1  0
 31 60  1  0
 32 61  1  0
 33 62  1  0
 36 63  1  0
M  END
$$$$
