
     RDKit          3D

 49 52  0  0  0  0  0  0  0  0999 V2000
   -4.2325   -1.9835    2.1910 O   0  0  0  0  0  0  0  0  0  0  0  0
   -4.1891   -0.7891    1.9048 C   0  0  0  0  0  0  0  0  0  0  0  0
   -2.9606   -0.1472    1.4679 C   0  0  0  0  0  0  0  0  0  0  0  0
   -2.7206    1.1146    0.8982 C   0  0  0  0  0  0  0  0  0  0  0  0
   -1.4363    1.3135    0.6017 N   0  0  0  0  0  0  0  0  0  0  0  0
   -0.8103    0.1767    0.9675 N   0  0  0  0  0  0  0  0  0  0  0  0
    0.5986    0.0292    0.8254 C   0  0  0  0  0  0  0  0  0  0  0  0
    1.2523   -1.0327    1.4807 C   0  0  0  0  0  0  0  0  0  0  0  0
    2.6414   -1.1879    1.3861 C   0  0  0  0  0  0  0  0  0  0  0  0
    3.3938   -0.2877    0.6280 C   0  0  0  0  0  0  0  0  0  0  0  0
    5.1549   -0.4914    0.5167 S   0  0  0  0  0  6  0  0  0  0  0  0
    5.5926   -1.1002    1.7545 O   0  0  0  0  0  0  0  0  0  0  0  0
    5.7323    0.7476    0.0440 O   0  0  0  0  0  0  0  0  0  0  0  0
    5.3066   -1.6835   -0.6729 N   0  0  0  0  0  0  0  0  0  0  0  0
    5.1406   -1.2921   -2.0306 C   0  0  0  0  0  0  0  0  0  0  0  0
    3.8851   -1.4095   -2.6262 C   0  0  0  0  0  0  0  0  0  0  0  0
    3.6991   -0.9918   -3.9444 C   0  0  0  0  0  0  0  0  0  0  0  0
    4.7676   -0.4543   -4.6610 C   0  0  0  0  0  0  0  0  0  0  0  0
    6.0217   -0.3344   -4.0612 C   0  0  0  0  0  0  0  0  0  0  0  0
    6.2102   -0.7530   -2.7434 C   0  0  0  0  0  0  0  0  0  0  0  0
    2.7781    0.7811   -0.0228 C   0  0  0  0  0  0  0  0  0  0  0  0
    1.3844    0.9240    0.0743 C   0  0  0  0  0  0  0  0  0  0  0  0
    0.8116    1.9795   -0.7416 N   0  0  0  0  0  4  0  0  0  0  0  0
    0.9542    3.1410   -0.3360 O   0  0  0  0  0  0  0  0  0  0  0  0
    0.3340    1.6356   -1.8328 O   0  0  0  0  0  1  0  0  0  0  0  0
   -1.7051   -0.7253    1.4973 C   0  0  0  0  0  0  0  0  0  0  0  0
   -5.4517   -0.0187    1.9373 C   0  0  0  0  0  0  0  0  0  0  0  0
   -6.5499   -0.5503    1.2523 C   0  0  0  0  0  0  0  0  0  0  0  0
   -7.7596    0.1309    1.2763 C   0  0  0  0  0  0  0  0  0  0  0  0
   -8.8104   -0.3715    0.6176 F   0  0  0  0  0  0  0  0  0  0  0  0
   -7.9002    1.3232    1.9795 C   0  0  0  0  0  0  0  0  0  0  0  0
   -6.8132    1.8477    2.6811 C   0  0  0  0  0  0  0  0  0  0  0  0
   -5.5928    1.1697    2.6666 C   0  0  0  0  0  0  0  0  0  0  0  0
   -4.5415    1.6571    3.3891 O   0  0  0  0  0  0  0  0  0  0  0  0
   -3.4249    1.9045    0.6746 H   0  0  0  0  0  0  0  0  0  0  0  0
    0.7154   -1.7466    2.1027 H   0  0  0  0  0  0  0  0  0  0  0  0
    3.1281   -2.0098    1.9109 H   0  0  0  0  0  0  0  0  0  0  0  0
    6.0919   -2.3006   -0.4646 H   0  0  0  0  0  0  0  0  0  0  0  0
    3.0490   -1.8327   -2.0777 H   0  0  0  0  0  0  0  0  0  0  0  0
    2.7210   -1.0813   -4.4111 H   0  0  0  0  0  0  0  0  0  0  0  0
    4.6216   -0.1217   -5.6861 H   0  0  0  0  0  0  0  0  0  0  0  0
    6.8503    0.0957   -4.6173 H   0  0  0  0  0  0  0  0  0  0  0  0
    7.1851   -0.6332   -2.2787 H   0  0  0  0  0  0  0  0  0  0  0  0
    3.3662    1.4795   -0.6183 H   0  0  0  0  0  0  0  0  0  0  0  0
   -1.4139   -1.7100    1.8318 H   0  0  0  0  0  0  0  0  0  0  0  0
   -6.4703   -1.4859    0.7062 H   0  0  0  0  0  0  0  0  0  0  0  0
   -8.8599    1.8311    1.9843 H   0  0  0  0  0  0  0  0  0  0  0  0
   -6.9434    2.7683    3.2429 H   0  0  0  0  0  0  0  0  0  0  0  0
   -4.8014    2.4754    3.8475 H   0  0  0  0  0  0  0  0  0  0  0  0
  1  2  2  0
  2  3  1  0
  3  4  1  0
  4  5  2  0
  5  6  1  0
  6  7  1  0
  7  8  2  0
  8  9  1  0
  9 10  2  0
 10 11  1  0
 11 12  2  0
 11 13  2  0
 11 14  1  0
 14 15  1  0
 15 16  2  0
 16 17  1  0
 17 18  2  0
 18 19  1  0
 19 20  2  0
 10 21  1  0
 21 22  2  0
 22 23  1  0
 23 24  2  0
 23 25  1  0
  6 26  1  0
  2 27  1  0
 27 28  2  0
 28 29  1  0
 29 30  1  0
 29 31  2  0
 31 32  1  0
 32 33  2  0
 33 34  1  0
 26  3  2  0
 33 27  1  0
 22  7  1  0
 20 15  1  0
  4 35  1  0
  8 36  1  0
  9 37  1  0
 14 38  1  0
 16 39  1  0
 17 40  1  0
 18 41  1  0
 19 42  1  0
 20 43  1  0
 21 44  1  0
 26 45  1  0
 28 46  1  0
 31 47  1  0
 32 48  1  0
 34 49  1  0
M  CHG  2  23   1  25  -1
M  END
$$$$
