
     RDKit          3D

 55 58  0  0  0  0  0  0  0  0999 V2000
    8.7758    0.6882   -1.1579 C   0  0  0  0  0  0  0  0  0  0  0  0
    8.0163    0.0387   -0.1491 O   0  0  0  0  0  0  0  0  0  0  0  0
    6.6542    0.2062   -0.1652 C   0  0  0  0  0  0  0  0  0  0  0  0
    5.9627    0.9659   -1.1149 C   0  0  0  0  0  0  0  0  0  0  0  0
    4.5705    1.0821   -1.0530 C   0  0  0  0  0  0  0  0  0  0  0  0
    3.8590    0.4460   -0.0322 C   0  0  0  0  0  0  0  0  0  0  0  0
    2.3740    0.5426    0.0724 C   0  0  0  0  0  0  0  0  0  0  0  0
    1.7490    1.8444   -0.3278 C   0  0  0  0  0  0  0  0  0  0  0  0
    0.4063    1.9178   -0.2383 C   0  0  0  0  0  0  0  0  0  0  0  0
   -0.3788    3.1243   -0.5832 C   0  0  0  0  0  0  0  0  0  0  0  0
   -1.0862    3.6128    0.4663 F   0  0  0  0  0  0  0  0  0  0  0  0
    0.4325    4.1428   -0.9895 F   0  0  0  0  0  0  0  0  0  0  0  0
   -1.2462    2.9148   -1.6045 F   0  0  0  0  0  0  0  0  0  0  0  0
   -0.3139    0.8191    0.2150 N   0  0  0  0  0  0  0  0  0  0  0  0
   -1.6529    0.6990    0.3690 N   0  0  0  0  0  0  0  0  0  0  0  0
   -1.8628   -0.5375    0.8528 C   0  0  0  0  0  0  0  0  0  0  0  0
   -3.1900   -1.1298    1.1545 C   0  0  0  0  0  0  0  0  0  0  0  0
   -3.2606   -2.3428    1.3726 O   0  0  0  0  0  0  0  0  0  0  0  0
   -4.3431   -0.3302    1.1915 N   0  0  0  0  0  0  0  0  0  0  0  0
   -4.3605    1.1087    0.9710 C   0  0  0  0  0  0  0  0  0  0  0  0
   -5.6376   -1.0045    1.2161 C   0  0  0  0  0  0  0  0  0  0  0  0
   -6.2561   -1.1148   -0.1589 C   0  0  0  0  0  0  0  0  0  0  0  0
   -7.2780   -0.2417   -0.5589 C   0  0  0  0  0  0  0  0  0  0  0  0
   -7.8349   -0.3403   -1.8355 C   0  0  0  0  0  0  0  0  0  0  0  0
   -7.3751   -1.3089   -2.7250 C   0  0  0  0  0  0  0  0  0  0  0  0
   -6.3579   -2.1798   -2.3403 C   0  0  0  0  0  0  0  0  0  0  0  0
   -5.8003   -2.0834   -1.0645 C   0  0  0  0  0  0  0  0  0  0  0  0
   -0.6298   -1.2257    0.9921 C   0  0  0  0  0  0  0  0  0  0  0  0
    0.3470   -0.3502    0.5895 C   0  0  0  0  0  0  0  0  0  0  0  0
    1.7031   -0.4812    0.5199 N   0  0  0  0  0  0  0  0  0  0  0  0
    4.5445   -0.3314    0.9111 C   0  0  0  0  0  0  0  0  0  0  0  0
    5.9372   -0.4547    0.8530 C   0  0  0  0  0  0  0  0  0  0  0  0
    6.6872   -1.1842    1.7426 O   0  0  0  0  0  0  0  0  0  0  0  0
    5.9925   -1.9726    2.6992 C   0  0  0  0  0  0  0  0  0  0  0  0
    8.5045    0.3233   -2.1541 H   0  0  0  0  0  0  0  0  0  0  0  0
    8.6708    1.7763   -1.0919 H   0  0  0  0  0  0  0  0  0  0  0  0
    9.8297    0.4452   -0.9911 H   0  0  0  0  0  0  0  0  0  0  0  0
    6.4786    1.4728   -1.9237 H   0  0  0  0  0  0  0  0  0  0  0  0
    4.0649    1.6518   -1.8275 H   0  0  0  0  0  0  0  0  0  0  0  0
    2.3613    2.6799   -0.6416 H   0  0  0  0  0  0  0  0  0  0  0  0
   -4.2261    1.3137   -0.0951 H   0  0  0  0  0  0  0  0  0  0  0  0
   -5.3167    1.5278    1.3005 H   0  0  0  0  0  0  0  0  0  0  0  0
   -3.5778    1.5923    1.5605 H   0  0  0  0  0  0  0  0  0  0  0  0
   -6.2990   -0.4520    1.8954 H   0  0  0  0  0  0  0  0  0  0  0  0
   -5.5504   -2.0097    1.6454 H   0  0  0  0  0  0  0  0  0  0  0  0
   -7.6460    0.5225    0.1211 H   0  0  0  0  0  0  0  0  0  0  0  0
   -8.6270    0.3399   -2.1371 H   0  0  0  0  0  0  0  0  0  0  0  0
   -7.8079   -1.3842   -3.7190 H   0  0  0  0  0  0  0  0  0  0  0  0
   -5.9961   -2.9339   -3.0334 H   0  0  0  0  0  0  0  0  0  0  0  0
   -5.0048   -2.7688   -0.7768 H   0  0  0  0  0  0  0  0  0  0  0  0
   -0.4821   -2.2380    1.3418 H   0  0  0  0  0  0  0  0  0  0  0  0
    3.9693   -0.8263    1.6876 H   0  0  0  0  0  0  0  0  0  0  0  0
    6.7364   -2.5315    3.2756 H   0  0  0  0  0  0  0  0  0  0  0  0
    5.3344   -2.7000    2.2125 H   0  0  0  0  0  0  0  0  0  0  0  0
    5.4371   -1.3405    3.3998 H   0  0  0  0  0  0  0  0  0  0  0  0
  1  2  1  0
  2  3  1  0
  3  4  2  0
  4  5  1  0
  5  6  2  0
  6  7  1  0
  7  8  1  0
  8  9  2  0
  9 10  1  0
 10 11  1  0
 10 12  1  0
 10 13  1  0
  9 14  1  0
 14 15  1  0
 15 16  2  0
 16 17  1  0
 17 18  2  0
 17 19  1  0
 19 20  1  0
 19 21  1  0
 21 22  1  0
 22 23  2  0
 23 24  1  0
 24 25  2  0
 25 26  1  0
 26 27  2  0
 16 28  1  0
 28 29  2  0
 29 30  1  0
  6 31  1  0
 31 32  2  0
 32 33  1  0
 33 34  1  0
 32  3  1  0
 30  7  2  0
 29 14  1  0
 27 22  1  0
  1 35  1  0
  1 36  1  0
  1 37  1  0
  4 38  1  0
  5 39  1  0
  8 40  1  0
 20 41  1  0
 20 42  1  0
 20 43  1  0
 21 44  1  0
 21 45  1  0
 23 46  1  0
 24 47  1  0
 25 48  1  0
 26 49  1  0
 27 50  1  0
 28 51  1  0
 31 52  1  0
 34 53  1  0
 34 54  1  0
 34 55  1  0
M  END
$$$$
