
     RDKit          3D

 30 31  0  0  0  0  0  0  0  0999 V2000
    4.2957   -3.4197   -1.9153 C   0  0  0  0  0  0  0  0  0  0  0  0
    3.9259   -2.1226   -2.3658 O   0  0  0  0  0  0  0  0  0  0  0  0
    2.9455   -1.4795   -1.6631 C   0  0  0  0  0  0  0  0  0  0  0  0
    2.6312   -0.2031   -2.1342 C   0  0  0  0  0  0  0  0  0  0  0  0
    1.6461    0.5681   -1.5103 C   0  0  0  0  0  0  0  0  0  0  0  0
    0.9528    0.0684   -0.4007 C   0  0  0  0  0  0  0  0  0  0  0  0
   -0.0855    0.8849    0.2644 C   0  0  0  0  0  0  0  0  0  0  0  0
    0.2736    2.1762    0.7618 C   0  0  0  0  0  0  0  0  0  0  0  0
    0.5529    3.2379    1.1388 N   0  0  0  0  0  0  0  0  0  0  0  0
   -1.3298    0.3790    0.3801 C   0  0  0  0  0  0  0  0  0  0  0  0
   -2.4936    0.9999    1.0198 C   0  0  0  0  0  0  0  0  0  0  0  0
   -2.9189    2.2951    0.7424 C   0  0  0  0  0  0  0  0  0  0  0  0
   -4.0607    2.7757    1.3795 C   0  0  0  0  0  0  0  0  0  0  0  0
   -4.7499    1.9496    2.2580 C   0  0  0  0  0  0  0  0  0  0  0  0
   -4.2699    0.6671    2.4577 C   0  0  0  0  0  0  0  0  0  0  0  0
   -3.1670    0.1734    1.8521 N   0  0  0  0  0  0  0  0  0  0  0  0
    1.2760   -1.2126    0.0719 C   0  0  0  0  0  0  0  0  0  0  0  0
    2.2641   -1.9819   -0.5556 C   0  0  0  0  0  0  0  0  0  0  0  0
    3.4536   -4.1162   -1.9843 H   0  0  0  0  0  0  0  0  0  0  0  0
    4.6981   -3.3844   -0.8975 H   0  0  0  0  0  0  0  0  0  0  0  0
    5.0879   -3.7890   -2.5737 H   0  0  0  0  0  0  0  0  0  0  0  0
    3.1608    0.1963   -2.9963 H   0  0  0  0  0  0  0  0  0  0  0  0
    1.4289    1.5578   -1.9072 H   0  0  0  0  0  0  0  0  0  0  0  0
   -1.5478   -0.6229    0.0141 H   0  0  0  0  0  0  0  0  0  0  0  0
   -2.3887    2.9316    0.0419 H   0  0  0  0  0  0  0  0  0  0  0  0
   -4.4085    3.7872    1.1887 H   0  0  0  0  0  0  0  0  0  0  0  0
   -5.6406    2.2948    2.7707 H   0  0  0  0  0  0  0  0  0  0  0  0
   -4.7753   -0.0205    3.1299 H   0  0  0  0  0  0  0  0  0  0  0  0
    0.7665   -1.6247    0.9417 H   0  0  0  0  0  0  0  0  0  0  0  0
    2.4766   -2.9659   -0.1509 H   0  0  0  0  0  0  0  0  0  0  0  0
  1  2  1  0
  2  3  1  0
  3  4  2  0
  4  5  1  0
  5  6  2  0
  6  7  1  0
  7  8  1  0
  8  9  3  0
  7 10  2  3
 10 11  1  0
 11 12  2  0
 12 13  1  0
 13 14  2  0
 14 15  1  0
 15 16  2  0
  6 17  1  0
 17 18  2  0
 18  3  1  0
 16 11  1  0
  1 19  1  0
  1 20  1  0
  1 21  1  0
  4 22  1  0
  5 23  1  0
 10 24  1  0
 12 25  1  0
 13 26  1  0
 14 27  1  0
 15 28  1  0
 17 29  1  0
 18 30  1  0
M  END
$$$$
