
     RDKit          3D

 41 42  0  0  0  0  0  0  0  0999 V2000
   -4.3856    1.3546   -0.8362 C   0  0  0  0  0  0  0  0  0  0  0  0
   -3.4376    0.2429   -1.2415 C   0  0  0  0  0  0  0  0  0  0  0  0
   -2.7664   -0.3302   -0.0660 N   0  0  0  0  0  0  0  0  0  0  0  0
   -3.4761   -1.4314    0.6002 C   0  0  0  0  0  0  0  0  0  0  0  0
   -2.9857   -2.7785    0.0950 C   0  0  0  0  0  0  0  0  0  0  0  0
   -1.5918    0.2040    0.4432 C   0  0  0  0  0  0  0  0  0  0  0  0
   -1.0003    1.3578   -0.0952 C   0  0  0  0  0  0  0  0  0  0  0  0
    0.1944    1.9069    0.4132 C   0  0  0  0  0  0  0  0  0  0  0  0
    0.8463    1.3126    1.4921 C   0  0  0  0  0  0  0  0  0  0  0  0
    2.0802    1.8684    2.0529 C   0  0  0  0  0  0  0  0  0  0  0  0
    3.2189    2.0837    1.3801 C   0  0  0  0  0  0  0  0  0  0  0  0
    3.3933    1.7893   -0.0623 C   0  0  0  0  0  0  0  0  0  0  0  0
    3.3920    2.7124   -0.8663 O   0  0  0  0  0  0  0  0  0  0  0  0
    3.6346    0.3940   -0.4953 C   0  0  0  0  0  0  0  0  0  0  0  0
    3.7048   -0.6967    0.3752 C   0  0  0  0  0  0  0  0  0  0  0  0
    4.0133   -1.9552   -0.1292 C   0  0  0  0  0  0  0  0  0  0  0  0
    4.2442   -2.0819   -1.4890 C   0  0  0  0  0  0  0  0  0  0  0  0
    4.1687   -1.0531   -2.3609 N   0  0  0  0  0  0  0  0  0  0  0  0
    3.8600    0.1588   -1.8458 C   0  0  0  0  0  0  0  0  0  0  0  0
    0.2811    0.1753    2.0583 C   0  0  0  0  0  0  0  0  0  0  0  0
   -0.9075   -0.3700    1.5318 C   0  0  0  0  0  0  0  0  0  0  0  0
   -5.1392    0.9953   -0.1289 H   0  0  0  0  0  0  0  0  0  0  0  0
   -3.8568    2.1789   -0.3542 H   0  0  0  0  0  0  0  0  0  0  0  0
   -4.8990    1.7415   -1.7119 H   0  0  0  0  0  0  0  0  0  0  0  0
   -2.7310    0.5900   -1.9986 H   0  0  0  0  0  0  0  0  0  0  0  0
   -4.0139   -0.5317   -1.7418 H   0  0  0  0  0  0  0  0  0  0  0  0
   -3.4039   -1.3674    1.6901 H   0  0  0  0  0  0  0  0  0  0  0  0
   -4.5527   -1.3557    0.3897 H   0  0  0  0  0  0  0  0  0  0  0  0
   -3.5740   -3.5890    0.5391 H   0  0  0  0  0  0  0  0  0  0  0  0
   -3.0790   -2.8474   -0.9928 H   0  0  0  0  0  0  0  0  0  0  0  0
   -1.9344   -2.9574    0.3511 H   0  0  0  0  0  0  0  0  0  0  0  0
   -1.4542    1.8817   -0.9323 H   0  0  0  0  0  0  0  0  0  0  0  0
    0.6012    2.8032   -0.0551 H   0  0  0  0  0  0  0  0  0  0  0  0
    2.0354    2.1161    3.1122 H   0  0  0  0  0  0  0  0  0  0  0  0
    4.0725    2.5509    1.8615 H   0  0  0  0  0  0  0  0  0  0  0  0
    3.5406   -0.5892    1.4406 H   0  0  0  0  0  0  0  0  0  0  0  0
    4.0865   -2.8137    0.5266 H   0  0  0  0  0  0  0  0  0  0  0  0
    4.5173   -3.0335   -1.9239 H   0  0  0  0  0  0  0  0  0  0  0  0
    3.8129    0.9601   -2.5786 H   0  0  0  0  0  0  0  0  0  0  0  0
    0.7583   -0.3171    2.9038 H   0  0  0  0  0  0  0  0  0  0  0  0
   -1.2674   -1.2793    2.0006 H   0  0  0  0  0  0  0  0  0  0  0  0
  1  2  1  0
  2  3  1  0
  3  4  1  0
  4  5  1  0
  3  6  1  0
  6  7  2  0
  7  8  1  0
  8  9  2  0
  9 10  1  0
 10 11  2  3
 11 12  1  0
 12 13  2  0
 12 14  1  0
 14 15  2  0
 15 16  1  0
 16 17  2  0
 17 18  1  0
 18 19  2  0
  9 20  1  0
 20 21  2  0
 21  6  1  0
 19 14  1  0
  1 22  1  0
  1 23  1  0
  1 24  1  0
  2 25  1  0
  2 26  1  0
  4 27  1  0
  4 28  1  0
  5 29  1  0
  5 30  1  0
  5 31  1  0
  7 32  1  0
  8 33  1  0
 10 34  1  0
 11 35  1  0
 15 36  1  0
 16 37  1  0
 17 38  1  0
 19 39  1  0
 20 40  1  0
 21 41  1  0
M  END
$$$$
