
     RDKit          3D

 63 66  0  0  0  0  0  0  0  0999 V2000
   -6.7950    2.7788   -0.0562 C   0  0  0  0  0  0  0  0  0  0  0  0
   -5.3028    2.6071   -0.0640 C   0  0  0  0  0  0  0  0  0  0  0  0
   -4.5067    3.6883    0.3431 C   0  0  0  0  0  0  0  0  0  0  0  0
   -3.1109    3.6013    0.3365 C   0  0  0  0  0  0  0  0  0  0  0  0
   -2.4694    2.4291   -0.0698 C   0  0  0  0  0  0  0  0  0  0  0  0
   -1.0591    2.4267   -0.0581 N   0  0  0  0  0  0  0  0  0  0  0  0
   -0.2261    1.3435   -0.2670 C   0  0  0  0  0  0  0  0  0  0  0  0
   -0.5594    0.1717   -0.3905 O   0  0  0  0  0  0  0  0  0  0  0  0
    1.2266    1.6680   -0.2883 C   0  0  0  0  0  0  0  0  0  0  0  0
    1.7037    2.8446   -0.8857 C   0  0  0  0  0  0  0  0  0  0  0  0
    3.0733    3.1197   -0.8982 C   0  0  0  0  0  0  0  0  0  0  0  0
    3.9705    2.2174   -0.3284 C   0  0  0  0  0  0  0  0  0  0  0  0
    3.4918    1.0326    0.2405 C   0  0  0  0  0  0  0  0  0  0  0  0
    4.6551   -0.1005    0.9685 S   0  0  0  0  0  6  0  0  0  0  0  0
    5.6122    0.7108    1.6908 O   0  0  0  0  0  0  0  0  0  0  0  0
    3.8995   -1.1393    1.6386 O   0  0  0  0  0  0  0  0  0  0  0  0
    5.4072   -0.7795   -0.4166 N   0  0  0  0  0  0  0  0  0  0  0  0
    4.5156   -1.5923   -1.2809 C   0  0  0  0  0  0  0  0  0  0  0  0
    6.6748   -1.4086   -0.1430 C   0  0  0  0  0  0  0  0  0  0  0  0
    7.7837   -0.9775   -0.8738 C   0  0  0  0  0  0  0  0  0  0  0  0
    9.0232   -1.5939   -0.6948 C   0  0  0  0  0  0  0  0  0  0  0  0
    9.1509   -2.6550    0.2016 C   0  0  0  0  0  0  0  0  0  0  0  0
    8.0391   -3.1045    0.9135 C   0  0  0  0  0  0  0  0  0  0  0  0
    6.7985   -2.4890    0.7356 C   0  0  0  0  0  0  0  0  0  0  0  0
    2.1240    0.7521    0.2705 C   0  0  0  0  0  0  0  0  0  0  0  0
   -3.2464    1.3480   -0.4782 C   0  0  0  0  0  0  0  0  0  0  0  0
   -4.6529    1.4257   -0.4607 C   0  0  0  0  0  0  0  0  0  0  0  0
   -5.5360   -0.0369   -0.9807 S   0  0  0  0  0  6  0  0  0  0  0  0
   -5.3108   -0.1758   -2.4033 O   0  0  0  0  0  0  0  0  0  0  0  0
   -6.8774   -0.0247   -0.4363 O   0  0  0  0  0  0  0  0  0  0  0  0
   -4.7193   -1.3092   -0.1837 N   0  0  0  0  0  0  0  0  0  0  0  0
   -4.7289   -1.2389    1.3166 C   0  0  0  0  0  0  0  0  0  0  0  0
   -4.4315   -2.6150    1.9211 C   0  0  0  0  0  0  0  0  0  0  0  0
   -5.4253   -3.5958    1.5920 O   0  0  0  0  0  0  0  0  0  0  0  0
   -6.0267   -3.3814    0.3061 C   0  0  0  0  0  0  0  0  0  0  0  0
   -5.0957   -2.6745   -0.6825 C   0  0  0  0  0  0  0  0  0  0  0  0
   -7.2428    2.1991    0.7566 H   0  0  0  0  0  0  0  0  0  0  0  0
   -7.0743    3.8272    0.1009 H   0  0  0  0  0  0  0  0  0  0  0  0
   -7.2250    2.4852   -1.0188 H   0  0  0  0  0  0  0  0  0  0  0  0
   -4.9703    4.6198    0.6639 H   0  0  0  0  0  0  0  0  0  0  0  0
   -2.5382    4.4677    0.6571 H   0  0  0  0  0  0  0  0  0  0  0  0
   -0.6193    3.2978    0.2115 H   0  0  0  0  0  0  0  0  0  0  0  0
    1.0235    3.5422   -1.3689 H   0  0  0  0  0  0  0  0  0  0  0  0
    3.4427    4.0337   -1.3583 H   0  0  0  0  0  0  0  0  0  0  0  0
    5.0374    2.4340   -0.3336 H   0  0  0  0  0  0  0  0  0  0  0  0
    5.0720   -1.9743   -2.1445 H   0  0  0  0  0  0  0  0  0  0  0  0
    3.7027   -0.9790   -1.6802 H   0  0  0  0  0  0  0  0  0  0  0  0
    4.0977   -2.4458   -0.7375 H   0  0  0  0  0  0  0  0  0  0  0  0
    7.6874   -0.1547   -1.5762 H   0  0  0  0  0  0  0  0  0  0  0  0
    9.8880   -1.2465   -1.2535 H   0  0  0  0  0  0  0  0  0  0  0  0
   10.1170   -3.1337    0.3443 H   0  0  0  0  0  0  0  0  0  0  0  0
    8.1367   -3.9359    1.6072 H   0  0  0  0  0  0  0  0  0  0  0  0
    5.9401   -2.8599    1.2890 H   0  0  0  0  0  0  0  0  0  0  0  0
    1.7528   -0.1664    0.7224 H   0  0  0  0  0  0  0  0  0  0  0  0
   -2.7832    0.4298   -0.8294 H   0  0  0  0  0  0  0  0  0  0  0  0
   -5.7068   -0.8969    1.6730 H   0  0  0  0  0  0  0  0  0  0  0  0
   -3.9633   -0.5299    1.6452 H   0  0  0  0  0  0  0  0  0  0  0  0
   -4.3892   -2.5470    3.0128 H   0  0  0  0  0  0  0  0  0  0  0  0
   -3.4595   -2.9897    1.5785 H   0  0  0  0  0  0  0  0  0  0  0  0
   -6.3164   -4.3625   -0.0838 H   0  0  0  0  0  0  0  0  0  0  0  0
   -6.9462   -2.8042    0.4574 H   0  0  0  0  0  0  0  0  0  0  0  0
   -5.5676   -2.6243   -1.6684 H   0  0  0  0  0  0  0  0  0  0  0  0
   -4.1654   -3.2429   -0.8012 H   0  0  0  0  0  0  0  0  0  0  0  0
  1  2  1  0
  2  3  2  0
  3  4  1  0
  4  5  2  0
  5  6  1  0
  6  7  1  0
  7  8  2  0
  7  9  1  0
  9 10  2  0
 10 11  1  0
 11 12  2  0
 12 13  1  0
 13 14  1  0
 14 15  2  0
 14 16  2  0
 14 17  1  0
 17 18  1  0
 17 19  1  0
 19 20  2  0
 20 21  1  0
 21 22  2  0
 22 23  1  0
 23 24  2  0
 13 25  2  0
  5 26  1  0
 26 27  2  0
 27 28  1  0
 28 29  2  0
 28 30  2  0
 28 31  1  0
 31 32  1  0
 32 33  1  0
 33 34  1  0
 34 35  1  0
 35 36  1  0
 27  2  1  0
 36 31  1  0
 25  9  1  0
 24 19  1  0
  1 37  1  0
  1 38  1  0
  1 39  1  0
  3 40  1  0
  4 41  1  0
  6 42  1  0
 10 43  1  0
 11 44  1  0
 12 45  1  0
 18 46  1  0
 18 47  1  0
 18 48  1  0
 20 49  1  0
 21 50  1  0
 22 51  1  0
 23 52  1  0
 24 53  1  0
 25 54  1  0
 26 55  1  0
 32 56  1  0
 32 57  1  0
 33 58  1  0
 33 59  1  0
 35 60  1  0
 35 61  1  0
 36 62  1  0
 36 63  1  0
M  END
$$$$
