
     RDKit          3D

 61 65  0  0  0  0  0  0  0  0999 V2000
   -8.6207   -0.6210   -0.5622 C   0  0  0  0  0  0  0  0  0  0  0  0
   -7.6678   -0.6395    0.4993 O   0  0  0  0  0  0  0  0  0  0  0  0
   -6.4347   -0.0943    0.2470 C   0  0  0  0  0  0  0  0  0  0  0  0
   -6.0007    0.3245   -1.0108 C   0  0  0  0  0  0  0  0  0  0  0  0
   -4.7227    0.8688   -1.1725 C   0  0  0  0  0  0  0  0  0  0  0  0
   -3.8555    1.0037   -0.0847 C   0  0  0  0  0  0  0  0  0  0  0  0
   -2.5217    1.5785   -0.2347 C   0  0  0  0  0  0  0  0  0  0  0  0
   -1.6248    1.8639    0.6921 N   0  0  0  0  0  0  0  0  0  0  0  0
   -0.5577    2.3939   -0.0133 C   0  0  0  0  0  0  0  0  0  0  0  0
    0.6240    2.9069    0.7300 C   0  0  0  0  0  0  0  0  0  0  0  0
    1.8924    2.4982    0.1483 N   0  0  0  0  0  0  0  0  0  0  0  0
    2.5428    1.2977    0.3215 C   0  0  0  0  0  0  0  0  0  0  0  0
    1.8571   -0.0303    1.1969 S   0  0  0  0  0  0  0  0  0  0  0  0
    3.3333   -0.7831    1.9240 C   0  0  0  0  0  0  0  0  0  0  0  0
    3.8178   -1.9986    1.1854 C   0  0  0  0  0  0  0  0  0  0  0  0
    3.2974   -3.2668    1.4794 C   0  0  0  0  0  0  0  0  0  0  0  0
    3.7863   -4.4001    0.8293 C   0  0  0  0  0  0  0  0  0  0  0  0
    4.7954   -4.2866   -0.1290 C   0  0  0  0  0  0  0  0  0  0  0  0
    5.3580   -5.5184   -0.7803 C   0  0  0  0  0  0  0  0  0  0  0  0
    5.3060   -3.0204   -0.4351 C   0  0  0  0  0  0  0  0  0  0  0  0
    4.8123   -1.8873    0.2032 C   0  0  0  0  0  0  0  0  0  0  0  0
    3.7255    1.2901   -0.2540 N   0  0  0  0  0  0  0  0  0  0  0  0
    3.8473    2.5184   -0.8505 C   0  0  0  0  0  0  0  0  0  0  0  0
    4.8958    3.0245   -1.6209 C   0  0  0  0  0  0  0  0  0  0  0  0
    4.7193    4.3147   -2.0913 C   0  0  0  0  0  0  0  0  0  0  0  0
    3.6338    5.0921   -1.8405 N   0  0  0  0  0  0  0  0  0  0  0  0
    2.6249    4.6043   -1.0821 C   0  0  0  0  0  0  0  0  0  0  0  0
    2.7252    3.3065   -0.6004 C   0  0  0  0  0  0  0  0  0  0  0  0
   -0.8665    2.4119   -1.3604 C   0  0  0  0  0  0  0  0  0  0  0  0
   -0.1963    2.8627   -2.5927 C   0  0  0  0  0  0  0  0  0  0  0  0
   -2.1197    1.8883   -1.5072 O   0  0  0  0  0  0  0  0  0  0  0  0
   -4.2962    0.5862    1.1822 C   0  0  0  0  0  0  0  0  0  0  0  0
   -5.5732    0.0358    1.3567 C   0  0  0  0  0  0  0  0  0  0  0  0
   -6.0735   -0.3918    2.5585 O   0  0  0  0  0  0  0  0  0  0  0  0
   -5.2100   -0.3568    3.6805 C   0  0  0  0  0  0  0  0  0  0  0  0
   -8.3012   -1.2649   -1.3910 H   0  0  0  0  0  0  0  0  0  0  0  0
   -9.5600   -1.0234   -0.1753 H   0  0  0  0  0  0  0  0  0  0  0  0
   -8.8166    0.4039   -0.9054 H   0  0  0  0  0  0  0  0  0  0  0  0
   -6.6296    0.2358   -1.8931 H   0  0  0  0  0  0  0  0  0  0  0  0
   -4.4157    1.1943   -2.1649 H   0  0  0  0  0  0  0  0  0  0  0  0
    0.6127    2.5719    1.7736 H   0  0  0  0  0  0  0  0  0  0  0  0
    0.5932    4.0016    0.7567 H   0  0  0  0  0  0  0  0  0  0  0  0
    4.1372   -0.0519    2.0311 H   0  0  0  0  0  0  0  0  0  0  0  0
    3.0752   -1.0796    2.9490 H   0  0  0  0  0  0  0  0  0  0  0  0
    2.5162   -3.3813    2.2241 H   0  0  0  0  0  0  0  0  0  0  0  0
    3.3790   -5.3749    1.0808 H   0  0  0  0  0  0  0  0  0  0  0  0
    4.5511   -6.2066   -1.0678 H   0  0  0  0  0  0  0  0  0  0  0  0
    5.9158   -5.2690   -1.6875 H   0  0  0  0  0  0  0  0  0  0  0  0
    6.0337   -6.0307   -0.0881 H   0  0  0  0  0  0  0  0  0  0  0  0
    6.0968   -2.9053   -1.1733 H   0  0  0  0  0  0  0  0  0  0  0  0
    5.2196   -0.9123   -0.0581 H   0  0  0  0  0  0  0  0  0  0  0  0
    5.7831    2.4380   -1.8434 H   0  0  0  0  0  0  0  0  0  0  0  0
    5.4852    4.7824   -2.7081 H   0  0  0  0  0  0  0  0  0  0  0  0
    1.7783    5.2604   -0.9104 H   0  0  0  0  0  0  0  0  0  0  0  0
    0.6985    2.2578   -2.7993 H   0  0  0  0  0  0  0  0  0  0  0  0
    0.0950    3.9169   -2.5025 H   0  0  0  0  0  0  0  0  0  0  0  0
   -0.8670    2.7779   -3.4619 H   0  0  0  0  0  0  0  0  0  0  0  0
   -3.6192    0.7093    2.0215 H   0  0  0  0  0  0  0  0  0  0  0  0
   -5.7622   -0.7493    4.5369 H   0  0  0  0  0  0  0  0  0  0  0  0
   -4.3447   -0.9967    3.5293 H   0  0  0  0  0  0  0  0  0  0  0  0
   -4.9074    0.6730    3.9153 H   0  0  0  0  0  0  0  0  0  0  0  0
  1  2  1  0
  2  3  1  0
  3  4  2  0
  4  5  1  0
  5  6  2  0
  6  7  1  0
  7  8  2  0
  8  9  1  0
  9 10  1  0
 10 11  1  0
 11 12  1  0
 12 13  1  0
 13 14  1  0
 14 15  1  0
 15 16  2  0
 16 17  1  0
 17 18  2  0
 18 19  1  0
 18 20  1  0
 20 21  2  0
 12 22  2  0
 22 23  1  0
 23 24  2  0
 24 25  1  0
 25 26  2  0
 26 27  1  0
 27 28  2  0
  9 29  2  0
 29 30  1  0
 29 31  1  0
  6 32  1  0
 32 33  2  0
 33 34  1  0
 34 35  1  0
 33  3  1  0
 31  7  1  0
 28 11  1  0
 21 15  1  0
 28 23  1  0
  1 36  1  0
  1 37  1  0
  1 38  1  0
  4 39  1  0
  5 40  1  0
 10 41  1  0
 10 42  1  0
 14 43  1  0
 14 44  1  0
 16 45  1  0
 17 46  1  0
 19 47  1  0
 19 48  1  0
 19 49  1  0
 20 50  1  0
 21 51  1  0
 24 52  1  0
 25 53  1  0
 27 54  1  0
 30 55  1  0
 30 56  1  0
 30 57  1  0
 32 58  1  0
 35 59  1  0
 35 60  1  0
 35 61  1  0
M  END
$$$$
