
     RDKit          3D

 46 49  0  0  0  0  0  0  0  0999 V2000
    2.6912    1.3904   -2.4743 O   0  0  0  0  0  0  0  0  0  0  0  0
    2.6206    1.7615   -1.3052 C   0  0  0  0  0  0  0  0  0  0  0  0
    2.4072    3.2319   -0.9682 C   0  0  0  0  0  0  0  0  0  0  0  0
    0.6294    3.6045   -0.8446 S   0  0  0  0  0  0  0  0  0  0  0  0
    0.2339    2.7470    0.6014 C   0  0  0  0  0  0  0  0  0  0  0  0
    1.0665    2.5051    1.5864 N   0  0  0  0  0  0  0  0  0  0  0  0
    0.4154    1.7189    2.4979 N   0  0  0  0  0  0  0  0  0  0  0  0
   -0.8132    1.5044    2.0604 C   0  0  0  0  0  0  0  0  0  0  0  0
   -1.8602    0.7120    2.7761 C   0  0  0  0  0  0  0  0  0  0  0  0
   -2.1208   -0.6342    2.1621 C   0  0  0  0  0  0  0  0  0  0  0  0
   -3.2607   -1.0770    1.5169 C   0  0  0  0  0  0  0  0  0  0  0  0
   -3.1378   -2.4193    1.0546 C   0  0  0  0  0  0  0  0  0  0  0  0
   -1.9166   -2.9652    1.3778 C   0  0  0  0  0  0  0  0  0  0  0  0
   -0.9334   -1.8700    2.2444 S   0  0  0  0  0  0  0  0  0  0  0  0
   -0.9661    2.1382    0.8439 N   0  0  0  0  0  0  0  0  0  0  0  0
   -2.1465    2.1576    0.0032 C   0  0  0  0  0  0  0  0  0  0  0  0
   -2.1368    1.0807   -1.0198 C   0  0  0  0  0  0  0  0  0  0  0  0
   -1.2197    0.1407   -1.4491 C   0  0  0  0  0  0  0  0  0  0  0  0
   -1.8539   -0.6031   -2.4732 C   0  0  0  0  0  0  0  0  0  0  0  0
   -3.1134   -0.0727   -2.6086 C   0  0  0  0  0  0  0  0  0  0  0  0
   -3.2968    0.9455   -1.7297 O   0  0  0  0  0  0  0  0  0  0  0  0
    2.6926    0.9487   -0.1849 N   0  0  0  0  0  0  0  0  0  0  0  0
    2.8347   -0.4516   -0.1446 C   0  0  0  0  0  0  0  0  0  0  0  0
    3.0953   -1.2450   -1.2631 C   0  0  0  0  0  0  0  0  0  0  0  0
    3.1955   -2.6352   -1.1377 C   0  0  0  0  0  0  0  0  0  0  0  0
    3.0373   -3.2336    0.1092 C   0  0  0  0  0  0  0  0  0  0  0  0
    3.1512   -5.1125    0.2726 Br  0  0  0  0  0  0  0  0  0  0  0  0
    2.7928   -2.4541    1.2353 C   0  0  0  0  0  0  0  0  0  0  0  0
    2.6923   -1.0663    1.1063 C   0  0  0  0  0  0  0  0  0  0  0  0
    2.8391    3.8335   -1.7747 H   0  0  0  0  0  0  0  0  0  0  0  0
    2.9347    3.5041   -0.0481 H   0  0  0  0  0  0  0  0  0  0  0  0
   -2.7918    1.2893    2.8189 H   0  0  0  0  0  0  0  0  0  0  0  0
   -1.5507    0.5755    3.8206 H   0  0  0  0  0  0  0  0  0  0  0  0
   -4.1423   -0.4660    1.3647 H   0  0  0  0  0  0  0  0  0  0  0  0
   -3.9049   -2.9568    0.5108 H   0  0  0  0  0  0  0  0  0  0  0  0
   -1.5546   -3.9592    1.1518 H   0  0  0  0  0  0  0  0  0  0  0  0
   -2.2184    3.1410   -0.4725 H   0  0  0  0  0  0  0  0  0  0  0  0
   -3.0251    2.0600    0.6481 H   0  0  0  0  0  0  0  0  0  0  0  0
   -0.2163   -0.0056   -1.0716 H   0  0  0  0  0  0  0  0  0  0  0  0
   -1.4391   -1.4242   -3.0402 H   0  0  0  0  0  0  0  0  0  0  0  0
   -3.9554   -0.2968   -3.2489 H   0  0  0  0  0  0  0  0  0  0  0  0
    2.4716    1.3914    0.7092 H   0  0  0  0  0  0  0  0  0  0  0  0
    3.2278   -0.8140   -2.2503 H   0  0  0  0  0  0  0  0  0  0  0  0
    3.3938   -3.2363   -2.0212 H   0  0  0  0  0  0  0  0  0  0  0  0
    2.6678   -2.9100    2.2138 H   0  0  0  0  0  0  0  0  0  0  0  0
    2.4838   -0.4733    1.9954 H   0  0  0  0  0  0  0  0  0  0  0  0
  1  2  2  0
  2  3  1  0
  3  4  1  0
  4  5  1  0
  5  6  2  0
  6  7  1  0
  7  8  2  0
  8  9  1  0
  9 10  1  0
 10 11  2  0
 11 12  1  0
 12 13  2  0
 13 14  1  0
  8 15  1  0
 15 16  1  0
 16 17  1  0
 17 18  2  0
 18 19  1  0
 19 20  2  0
 20 21  1  0
  2 22  1  0
 22 23  1  0
 23 24  2  0
 24 25  1  0
 25 26  2  0
 26 27  1  0
 26 28  1  0
 28 29  2  0
 15  5  1  0
 21 17  1  0
 29 23  1  0
 14 10  1  0
  3 30  1  0
  3 31  1  0
  9 32  1  0
  9 33  1  0
 11 34  1  0
 12 35  1  0
 13 36  1  0
 16 37  1  0
 16 38  1  0
 18 39  1  0
 19 40  1  0
 20 41  1  0
 22 42  1  0
 24 43  1  0
 25 44  1  0
 28 45  1  0
 29 46  1  0
M  END
$$$$
