
     RDKit          3D

 34 34  0  0  0  0  0  0  0  0999 V2000
    4.6060   -1.6827    0.0980 C   0  0  0  0  0  0  0  0  0  0  0  0
    4.0363   -0.7669   -0.9739 C   0  0  0  0  0  0  0  0  0  0  0  0
    4.1758    0.7216   -0.6415 C   0  0  0  0  0  0  0  0  0  0  0  0
    3.4285    1.1622    0.6165 C   0  0  0  0  0  0  0  0  0  0  0  0
    2.0462    0.7809    0.5604 O   0  0  0  0  0  0  0  0  0  0  0  0
    1.2219    1.6371   -0.0913 C   0  0  0  0  0  0  0  0  0  0  0  0
    1.5477    2.6897   -0.6170 O   0  0  0  0  0  0  0  0  0  0  0  0
   -0.1733    1.1195   -0.0929 C   0  0  0  0  0  0  0  0  0  0  0  0
   -1.1658    1.8908   -0.7077 C   0  0  0  0  0  0  0  0  0  0  0  0
   -2.4917    1.4445   -0.7362 C   0  0  0  0  0  0  0  0  0  0  0  0
   -2.8480    0.2220   -0.1529 C   0  0  0  0  0  0  0  0  0  0  0  0
   -4.2050   -0.1535   -0.2248 N   0  0  0  0  0  0  0  0  0  0  0  0
   -4.7862   -1.3092    0.2655 C   0  0  0  0  0  0  0  0  0  0  0  0
   -6.2694   -1.3613   -0.0055 C   0  0  0  0  0  0  0  0  0  0  0  0
   -4.2212   -2.2340    0.8378 O   0  0  0  0  0  0  0  0  0  0  0  0
   -1.8556   -0.5455    0.4598 C   0  0  0  0  0  0  0  0  0  0  0  0
   -0.5263   -0.1022    0.4906 C   0  0  0  0  0  0  0  0  0  0  0  0
    5.6500   -1.4343    0.3130 H   0  0  0  0  0  0  0  0  0  0  0  0
    4.5676   -2.7237   -0.2384 H   0  0  0  0  0  0  0  0  0  0  0  0
    4.0342   -1.6145    1.0282 H   0  0  0  0  0  0  0  0  0  0  0  0
    2.9840   -1.0199   -1.1474 H   0  0  0  0  0  0  0  0  0  0  0  0
    4.5636   -0.9614   -1.9156 H   0  0  0  0  0  0  0  0  0  0  0  0
    3.7937    1.2881   -1.4993 H   0  0  0  0  0  0  0  0  0  0  0  0
    5.2362    0.9797   -0.5376 H   0  0  0  0  0  0  0  0  0  0  0  0
    3.8577    0.6854    1.5037 H   0  0  0  0  0  0  0  0  0  0  0  0
    3.5296    2.2435    0.7702 H   0  0  0  0  0  0  0  0  0  0  0  0
   -0.9119    2.8439   -1.1684 H   0  0  0  0  0  0  0  0  0  0  0  0
   -3.2363    2.0699   -1.2223 H   0  0  0  0  0  0  0  0  0  0  0  0
   -4.8196    0.4973   -0.6975 H   0  0  0  0  0  0  0  0  0  0  0  0
   -6.7216   -0.3709    0.1002 H   0  0  0  0  0  0  0  0  0  0  0  0
   -6.7471   -2.0301    0.7164 H   0  0  0  0  0  0  0  0  0  0  0  0
   -6.4395   -1.7378   -1.0175 H   0  0  0  0  0  0  0  0  0  0  0  0
   -2.0793   -1.4999    0.9272 H   0  0  0  0  0  0  0  0  0  0  0  0
    0.2190   -0.7283    0.9757 H   0  0  0  0  0  0  0  0  0  0  0  0
  1  2  1  0
  2  3  1  0
  3  4  1  0
  4  5  1  0
  5  6  1  0
  6  7  2  0
  6  8  1  0
  8  9  2  0
  9 10  1  0
 10 11  2  0
 11 12  1  0
 12 13  1  0
 13 14  1  0
 13 15  2  0
 11 16  1  0
 16 17  2  0
 17  8  1  0
  1 18  1  0
  1 19  1  0
  1 20  1  0
  2 21  1  0
  2 22  1  0
  3 23  1  0
  3 24  1  0
  4 25  1  0
  4 26  1  0
  9 27  1  0
 10 28  1  0
 12 29  1  0
 14 30  1  0
 14 31  1  0
 14 32  1  0
 16 33  1  0
 17 34  1  0
M  END
$$$$
