
     RDKit          3D

 26 27  0  0  0  0  0  0  0  0999 V2000
    4.8132   -1.3643   -0.5561 C   0  0  0  0  0  0  0  0  0  0  0  0
    3.6925   -0.4743   -0.3752 N   0  0  0  0  0  0  0  0  0  0  0  0
    3.7330    0.8823   -0.2684 C   0  0  0  0  0  0  0  0  0  0  0  0
    2.4266    1.2814   -0.1078 C   0  0  0  0  0  0  0  0  0  0  0  0
    1.6699    0.0905   -0.1300 C   0  0  0  0  0  0  0  0  0  0  0  0
    0.3148   -0.0965   -0.0149 N   0  0  0  0  0  0  0  0  0  0  0  0
   -0.6103    0.8966    0.2005 C   0  0  0  0  0  0  0  0  0  0  0  0
   -0.3717    2.0880    0.3653 O   0  0  0  0  0  0  0  0  0  0  0  0
   -2.0287    0.4392    0.2651 C   0  0  0  0  0  0  0  0  0  0  0  0
   -2.4949   -0.6509   -0.4838 C   0  0  0  0  0  0  0  0  0  0  0  0
   -3.8359   -1.0385   -0.3937 C   0  0  0  0  0  0  0  0  0  0  0  0
   -4.7102   -0.3348    0.4345 C   0  0  0  0  0  0  0  0  0  0  0  0
   -6.3581   -0.8160    0.5408 Cl  0  0  0  0  0  0  0  0  0  0  0  0
   -4.2593    0.7597    1.1698 C   0  0  0  0  0  0  0  0  0  0  0  0
   -2.9204    1.1499    1.0813 C   0  0  0  0  0  0  0  0  0  0  0  0
    2.4487   -0.9824   -0.2977 N   0  0  0  0  0  0  0  0  0  0  0  0
    4.6733   -1.9085   -1.4934 H   0  0  0  0  0  0  0  0  0  0  0  0
    5.7374   -0.7826   -0.5967 H   0  0  0  0  0  0  0  0  0  0  0  0
    4.8443   -2.0557    0.2897 H   0  0  0  0  0  0  0  0  0  0  0  0
    4.6571    1.4409   -0.3127 H   0  0  0  0  0  0  0  0  0  0  0  0
    2.0719    2.2956    0.0101 H   0  0  0  0  0  0  0  0  0  0  0  0
    0.0554   -1.0708   -0.0405 H   0  0  0  0  0  0  0  0  0  0  0  0
   -1.8408   -1.1914   -1.1629 H   0  0  0  0  0  0  0  0  0  0  0  0
   -4.1944   -1.8822   -0.9785 H   0  0  0  0  0  0  0  0  0  0  0  0
   -4.9411    1.3152    1.8087 H   0  0  0  0  0  0  0  0  0  0  0  0
   -2.5722    2.0096    1.6518 H   0  0  0  0  0  0  0  0  0  0  0  0
  1  2  1  0
  2  3  1  0
  3  4  2  0
  4  5  1  0
  5  6  1  0
  6  7  1  0
  7  8  2  0
  7  9  1  0
  9 10  2  0
 10 11  1  0
 11 12  2  0
 12 13  1  0
 12 14  1  0
 14 15  2  0
  5 16  2  0
 16  2  1  0
 15  9  1  0
  1 17  1  0
  1 18  1  0
  1 19  1  0
  3 20  1  0
  4 21  1  0
  6 22  1  0
 10 23  1  0
 11 24  1  0
 14 25  1  0
 15 26  1  0
M  END
$$$$
