
     RDKit          3D

 35 37  0  0  0  0  0  0  0  0999 V2000
    6.4803   -0.6988    0.7106 C   0  0  0  0  0  0  0  0  0  0  0  0
    5.1042   -0.1782    1.0099 C   0  0  0  0  0  0  0  0  0  0  0  0
    4.8794    0.6083    2.1500 C   0  0  0  0  0  0  0  0  0  0  0  0
    3.6034    1.0855    2.4774 C   0  0  0  0  0  0  0  0  0  0  0  0
    2.5638    0.7296    1.6180 C   0  0  0  0  0  0  0  0  0  0  0  0
    1.2207    1.0075    1.6272 N   0  0  0  0  0  0  0  0  0  0  0  0
    0.6344    0.3986    0.5344 C   0  0  0  0  0  0  0  0  0  0  0  0
   -0.7719    0.5318    0.3078 C   0  0  0  0  0  0  0  0  0  0  0  0
   -1.5784    1.3400    1.1675 C   0  0  0  0  0  0  0  0  0  0  0  0
   -2.1626    2.0246    1.9008 N   0  0  0  0  0  0  0  0  0  0  0  0
   -1.3015   -0.1384   -0.7370 C   0  0  0  0  0  0  0  0  0  0  0  0
   -2.7162   -0.1404   -1.1299 C   0  0  0  0  0  0  0  0  0  0  0  0
   -3.3474    1.0276   -1.5888 C   0  0  0  0  0  0  0  0  0  0  0  0
   -4.6949    1.0086   -1.9648 C   0  0  0  0  0  0  0  0  0  0  0  0
   -5.4019   -0.1844   -1.8877 C   0  0  0  0  0  0  0  0  0  0  0  0
   -6.7204   -0.2683   -2.2394 O   0  0  0  0  0  0  0  0  0  0  0  0
   -4.7745   -1.3463   -1.4456 C   0  0  0  0  0  0  0  0  0  0  0  0
   -5.4769   -2.5157   -1.3781 O   0  0  0  0  0  0  0  0  0  0  0  0
   -3.4383   -1.3373   -1.0690 C   0  0  0  0  0  0  0  0  0  0  0  0
    1.5508   -0.2520   -0.1625 N   0  0  0  0  0  0  0  0  0  0  0  0
    2.7428   -0.0571    0.4900 C   0  0  0  0  0  0  0  0  0  0  0  0
    4.0265   -0.5270    0.1765 C   0  0  0  0  0  0  0  0  0  0  0  0
    6.6202   -0.8372   -0.3666 H   0  0  0  0  0  0  0  0  0  0  0  0
    7.2464    0.0066    1.0492 H   0  0  0  0  0  0  0  0  0  0  0  0
    6.6344   -1.6583    1.2137 H   0  0  0  0  0  0  0  0  0  0  0  0
    5.7132    0.8605    2.8040 H   0  0  0  0  0  0  0  0  0  0  0  0
    3.4412    1.6965    3.3587 H   0  0  0  0  0  0  0  0  0  0  0  0
    0.7512    1.5646    2.3279 H   0  0  0  0  0  0  0  0  0  0  0  0
   -0.6673   -0.7693   -1.3610 H   0  0  0  0  0  0  0  0  0  0  0  0
   -2.7945    1.9621   -1.6618 H   0  0  0  0  0  0  0  0  0  0  0  0
   -5.1635    1.9238   -2.3118 H   0  0  0  0  0  0  0  0  0  0  0  0
   -7.0196    0.6181   -2.5060 H   0  0  0  0  0  0  0  0  0  0  0  0
   -6.3756   -2.2800   -1.6839 H   0  0  0  0  0  0  0  0  0  0  0  0
   -2.9743   -2.2589   -0.7284 H   0  0  0  0  0  0  0  0  0  0  0  0
    4.1669   -1.1488   -0.7012 H   0  0  0  0  0  0  0  0  0  0  0  0
  1  2  1  0
  2  3  2  0
  3  4  1  0
  4  5  2  0
  5  6  1  0
  6  7  1  0
  7  8  1  0
  8  9  1  0
  9 10  3  0
  8 11  2  3
 11 12  1  0
 12 13  2  0
 13 14  1  0
 14 15  2  0
 15 16  1  0
 15 17  1  0
 17 18  1  0
 17 19  2  0
  7 20  2  0
 20 21  1  0
 21 22  2  0
 22  2  1  0
 21  5  1  0
 19 12  1  0
  1 23  1  0
  1 24  1  0
  1 25  1  0
  3 26  1  0
  4 27  1  0
  6 28  1  0
 11 29  1  0
 13 30  1  0
 14 31  1  0
 16 32  1  0
 18 33  1  0
 19 34  1  0
 22 35  1  0
M  END
$$$$
