
     RDKit          3D

 51 54  0  0  0  0  0  0  0  0999 V2000
   -3.5234   -4.4777    2.1457 C   0  0  0  0  0  0  0  0  0  0  0  0
   -2.1341   -4.2131    2.2969 O   0  0  0  0  0  0  0  0  0  0  0  0
   -1.6431   -3.0792    1.7098 C   0  0  0  0  0  0  0  0  0  0  0  0
   -2.3731   -2.2125    0.9009 C   0  0  0  0  0  0  0  0  0  0  0  0
   -1.7674   -1.0606    0.3612 C   0  0  0  0  0  0  0  0  0  0  0  0
   -2.5636   -0.1762   -0.5050 C   0  0  0  0  0  0  0  0  0  0  0  0
   -3.7285   -0.4823   -0.7535 O   0  0  0  0  0  0  0  0  0  0  0  0
   -1.9268    0.9469   -1.0070 N   0  0  0  0  0  0  0  0  0  0  0  0
   -2.7105    1.8519   -1.8351 C   0  0  0  0  0  0  0  0  0  0  0  0
   -3.1893    2.9944   -1.0046 C   0  0  0  0  0  0  0  0  0  0  0  0
   -2.6720    4.2442   -0.7261 C   0  0  0  0  0  0  0  0  0  0  0  0
   -3.5944    4.8749    0.1428 C   0  0  0  0  0  0  0  0  0  0  0  0
   -4.6153    3.9739    0.3367 C   0  0  0  0  0  0  0  0  0  0  0  0
   -4.3785    2.8304   -0.3560 O   0  0  0  0  0  0  0  0  0  0  0  0
   -0.5958    1.2658   -0.7918 C   0  0  0  0  0  0  0  0  0  0  0  0
   -0.0617    2.2395   -1.3322 O   0  0  0  0  0  0  0  0  0  0  0  0
    0.1214    0.4425    0.0698 N   0  0  0  0  0  0  0  0  0  0  0  0
    1.5254    0.7983    0.2952 C   0  0  0  0  0  0  0  0  0  0  0  0
    2.4367    0.1393   -0.7411 C   0  0  0  0  0  0  0  0  0  0  0  0
    2.1439   -0.9127   -1.3127 O   0  0  0  0  0  0  0  0  0  0  0  0
    3.7520    0.7760   -1.0447 C   0  0  0  0  0  0  0  0  0  0  0  0
    4.3377    1.7290   -0.2005 C   0  0  0  0  0  0  0  0  0  0  0  0
    5.5729    2.2937   -0.5303 C   0  0  0  0  0  0  0  0  0  0  0  0
    6.2305    1.9082   -1.6977 C   0  0  0  0  0  0  0  0  0  0  0  0
    5.6540    0.9531   -2.5319 C   0  0  0  0  0  0  0  0  0  0  0  0
    6.5507    0.4272   -4.1101 Br  0  0  0  0  0  0  0  0  0  0  0  0
    4.4222    0.3846   -2.2127 C   0  0  0  0  0  0  0  0  0  0  0  0
   -0.4359   -0.7420    0.6242 C   0  0  0  0  0  0  0  0  0  0  0  0
    0.2979   -1.6240    1.4266 C   0  0  0  0  0  0  0  0  0  0  0  0
   -0.2951   -2.7833    1.9430 C   0  0  0  0  0  0  0  0  0  0  0  0
    0.4838   -3.5754    2.7509 O   0  0  0  0  0  0  0  0  0  0  0  0
    0.9749   -4.6973    2.0163 C   0  0  0  0  0  0  0  0  0  0  0  0
   -3.7519   -5.3905    2.7044 H   0  0  0  0  0  0  0  0  0  0  0  0
   -4.1287   -3.6676    2.5681 H   0  0  0  0  0  0  0  0  0  0  0  0
   -3.7786   -4.6583    1.0956 H   0  0  0  0  0  0  0  0  0  0  0  0
   -3.4172   -2.4038    0.6680 H   0  0  0  0  0  0  0  0  0  0  0  0
   -2.0958    2.2260   -2.6625 H   0  0  0  0  0  0  0  0  0  0  0  0
   -3.5649    1.3330   -2.2838 H   0  0  0  0  0  0  0  0  0  0  0  0
   -1.7369    4.6401   -1.1007 H   0  0  0  0  0  0  0  0  0  0  0  0
   -3.5251    5.8628    0.5761 H   0  0  0  0  0  0  0  0  0  0  0  0
   -5.5328    3.9911    0.9090 H   0  0  0  0  0  0  0  0  0  0  0  0
    1.6219    1.8868    0.2177 H   0  0  0  0  0  0  0  0  0  0  0  0
    1.8448    0.5297    1.3059 H   0  0  0  0  0  0  0  0  0  0  0  0
    3.8640    2.0442    0.7252 H   0  0  0  0  0  0  0  0  0  0  0  0
    6.0262    3.0343    0.1248 H   0  0  0  0  0  0  0  0  0  0  0  0
    7.1908    2.3541   -1.9460 H   0  0  0  0  0  0  0  0  0  0  0  0
    3.9793   -0.3606   -2.8709 H   0  0  0  0  0  0  0  0  0  0  0  0
    1.3435   -1.4626    1.6628 H   0  0  0  0  0  0  0  0  0  0  0  0
    0.1692   -5.2751    1.5502 H   0  0  0  0  0  0  0  0  0  0  0  0
    1.4972   -5.3509    2.7218 H   0  0  0  0  0  0  0  0  0  0  0  0
    1.6994   -4.3699    1.2605 H   0  0  0  0  0  0  0  0  0  0  0  0
  1  2  1  0
  2  3  1  0
  3  4  2  0
  4  5  1  0
  5  6  1  0
  6  7  2  0
  6  8  1  0
  8  9  1  0
  9 10  1  0
 10 11  2  0
 11 12  1  0
 12 13  2  0
 13 14  1  0
  8 15  1  0
 15 16  2  0
 15 17  1  0
 17 18  1  0
 18 19  1  0
 19 20  2  0
 19 21  1  0
 21 22  2  0
 22 23  1  0
 23 24  2  0
 24 25  1  0
 25 26  1  0
 25 27  2  0
 17 28  1  0
 28 29  1  0
 29 30  2  0
 30 31  1  0
 31 32  1  0
 30  3  1  0
 28  5  2  0
 14 10  1  0
 27 21  1  0
  1 33  1  0
  1 34  1  0
  1 35  1  0
  4 36  1  0
  9 37  1  0
  9 38  1  0
 11 39  1  0
 12 40  1  0
 13 41  1  0
 18 42  1  0
 18 43  1  0
 22 44  1  0
 23 45  1  0
 24 46  1  0
 27 47  1  0
 29 48  1  0
 32 49  1  0
 32 50  1  0
 32 51  1  0
M  END
$$$$
