
     RDKit          3D

 49 52  0  0  0  0  0  0  0  0999 V2000
   -5.1733    1.1707   -0.4780 C   0  0  0  0  0  0  0  0  0  0  0  0
   -3.9942    0.2868   -0.1392 C   0  0  0  0  0  0  0  0  0  0  0  0
   -3.2472   -0.1160   -1.1287 N   0  0  0  0  0  0  0  0  0  0  0  0
   -2.0846   -0.7884   -0.8490 N   0  0  0  0  0  0  0  0  0  0  0  0
   -1.0151   -0.1543   -0.2141 C   0  0  0  0  0  0  0  0  0  0  0  0
   -1.0781    0.9266    0.3654 O   0  0  0  0  0  0  0  0  0  0  0  0
    0.2264   -0.9168   -0.3084 C   0  0  0  0  0  0  0  0  0  0  0  0
    0.2759   -2.1539   -0.8917 N   0  0  0  0  0  0  0  0  0  0  0  0
    1.5184   -2.5943   -0.8250 N   0  0  0  0  0  0  0  0  0  0  0  0
    2.2862   -1.6774   -0.1626 N   0  0  0  0  0  0  0  0  0  0  0  0
    3.6397   -1.9522    0.1597 C   0  0  0  0  0  0  0  0  0  0  0  0
    4.3387   -1.1478    0.9607 N   0  0  0  0  0  0  0  0  0  0  0  0
    5.5847   -1.7638    1.0589 O   0  0  0  0  0  0  0  0  0  0  0  0
    5.6199   -2.9505    0.3349 N   0  0  0  0  0  0  0  0  0  0  0  0
    4.4163   -3.0620   -0.2248 C   0  0  0  0  0  0  0  0  0  0  0  0
    4.0426   -4.0802   -1.0230 N   0  0  0  0  0  0  0  0  0  0  0  0
    1.4970   -0.5649    0.1214 C   0  0  0  0  0  0  0  0  0  0  0  0
    2.0020    0.6960    0.7232 C   0  0  0  0  0  0  0  0  0  0  0  0
    2.9937    1.2487   -0.1473 O   0  0  0  0  0  0  0  0  0  0  0  0
    2.5997    1.8976   -1.2827 C   0  0  0  0  0  0  0  0  0  0  0  0
    3.5759    1.9590   -2.2843 C   0  0  0  0  0  0  0  0  0  0  0  0
    3.3067    2.5885   -3.5000 C   0  0  0  0  0  0  0  0  0  0  0  0
    2.0606    3.1645   -3.7056 C   0  0  0  0  0  0  0  0  0  0  0  0
    1.7957    3.7691   -4.8704 F   0  0  0  0  0  0  0  0  0  0  0  0
    1.0872    3.1285   -2.7147 C   0  0  0  0  0  0  0  0  0  0  0  0
    1.3588    2.4993   -1.4960 C   0  0  0  0  0  0  0  0  0  0  0  0
   -3.8271   -0.0660    1.2946 C   0  0  0  0  0  0  0  0  0  0  0  0
   -3.7579    0.9458    2.2579 C   0  0  0  0  0  0  0  0  0  0  0  0
   -3.6068    0.6087    3.6047 C   0  0  0  0  0  0  0  0  0  0  0  0
   -3.5323   -0.7333    3.9799 C   0  0  0  0  0  0  0  0  0  0  0  0
   -3.3413   -1.1454    5.6391 Cl  0  0  0  0  0  0  0  0  0  0  0  0
   -3.6097   -1.7441    3.0211 C   0  0  0  0  0  0  0  0  0  0  0  0
   -3.7596   -1.4113    1.6735 C   0  0  0  0  0  0  0  0  0  0  0  0
   -5.6473    0.8151   -1.3981 H   0  0  0  0  0  0  0  0  0  0  0  0
   -4.8191    2.1938   -0.6346 H   0  0  0  0  0  0  0  0  0  0  0  0
   -5.9206    1.1658    0.3202 H   0  0  0  0  0  0  0  0  0  0  0  0
   -1.8087   -1.4573   -1.5658 H   0  0  0  0  0  0  0  0  0  0  0  0
    4.6176   -4.9158   -1.0538 H   0  0  0  0  0  0  0  0  0  0  0  0
    3.0625   -4.2338   -1.2547 H   0  0  0  0  0  0  0  0  0  0  0  0
    2.4833    0.4844    1.6844 H   0  0  0  0  0  0  0  0  0  0  0  0
    1.2247    1.4252    0.9598 H   0  0  0  0  0  0  0  0  0  0  0  0
    4.5515    1.5082   -2.1159 H   0  0  0  0  0  0  0  0  0  0  0  0
    4.0582    2.6329   -4.2809 H   0  0  0  0  0  0  0  0  0  0  0  0
    0.1232    3.5960   -2.8909 H   0  0  0  0  0  0  0  0  0  0  0  0
    0.5864    2.5188   -0.7352 H   0  0  0  0  0  0  0  0  0  0  0  0
   -3.7911    1.9922    1.9654 H   0  0  0  0  0  0  0  0  0  0  0  0
   -3.5378    1.3943    4.3525 H   0  0  0  0  0  0  0  0  0  0  0  0
   -3.5546   -2.7887    3.3164 H   0  0  0  0  0  0  0  0  0  0  0  0
   -3.8269   -2.1979    0.9259 H   0  0  0  0  0  0  0  0  0  0  0  0
  1  2  1  0
  2  3  2  3
  3  4  1  0
  4  5  1  0
  5  6  2  0
  5  7  1  0
  7  8  1  0
  8  9  2  0
  9 10  1  0
 10 11  1  0
 11 12  2  0
 12 13  1  0
 13 14  1  0
 14 15  2  0
 15 16  1  0
 10 17  1  0
 17 18  1  0
 18 19  1  0
 19 20  1  0
 20 21  2  0
 21 22  1  0
 22 23  2  0
 23 24  1  0
 23 25  1  0
 25 26  2  0
  2 27  1  0
 27 28  2  0
 28 29  1  0
 29 30  2  0
 30 31  1  0
 30 32  1  0
 32 33  2  0
 17  7  2  0
 26 20  1  0
 33 27  1  0
 15 11  1  0
  1 34  1  0
  1 35  1  0
  1 36  1  0
  4 37  1  0
 16 38  1  0
 16 39  1  0
 18 40  1  0
 18 41  1  0
 21 42  1  0
 22 43  1  0
 25 44  1  0
 26 45  1  0
 28 46  1  0
 29 47  1  0
 32 48  1  0
 33 49  1  0
M  END
$$$$
