
     RDKit          3D

 64 67  0  0  0  0  0  0  0  0999 V2000
    7.3434   -1.8445   -6.4744 C   0  0  0  0  0  0  0  0  0  0  0  0
    5.9872   -1.5502   -5.9799 C   0  0  0  0  0  0  0  0  0  0  0  0
    5.4540   -1.2939   -4.7421 C   0  0  0  0  0  0  0  0  0  0  0  0
    4.0798   -1.0792   -4.9852 C   0  0  0  0  0  0  0  0  0  0  0  0
    3.0727   -0.7556   -4.1040 N   0  0  0  0  0  0  0  0  0  0  0  0
    3.2250   -0.5726   -2.7485 C   0  0  0  0  0  0  0  0  0  0  0  0
    4.2698   -0.6985   -2.1178 O   0  0  0  0  0  0  0  0  0  0  0  0
    1.9243   -0.1489   -2.0959 C   0  0  0  0  0  0  0  0  0  0  0  0
    2.0355   -0.0948   -0.5740 C   0  0  0  0  0  0  0  0  0  0  0  0
    0.7471    0.4454    0.0295 C   0  0  0  0  0  0  0  0  0  0  0  0
    0.0689    1.2469   -0.6186 O   0  0  0  0  0  0  0  0  0  0  0  0
    0.3426   -0.0443    1.2727 N   0  0  0  0  0  0  0  0  0  0  0  0
    1.1962   -0.7305    2.1863 C   0  0  0  0  0  0  0  0  0  0  0  0
    2.4878   -0.2777    2.4617 C   0  0  0  0  0  0  0  0  0  0  0  0
    3.2797   -0.9524    3.3896 C   0  0  0  0  0  0  0  0  0  0  0  0
    2.7508   -2.0612    4.0277 C   0  0  0  0  0  0  0  0  0  0  0  0
    1.5067   -2.5299    3.7992 N   0  0  0  0  0  0  0  0  0  0  0  0
    0.7655   -1.8607    2.8839 C   0  0  0  0  0  0  0  0  0  0  0  0
   -1.0345    0.2680    1.7269 C   0  0  0  0  0  0  0  0  0  0  0  0
   -2.1003   -0.3035    0.7487 C   0  0  0  0  0  0  0  0  0  0  0  0
   -1.8423   -1.1991   -0.0563 O   0  0  0  0  0  0  0  0  0  0  0  0
   -3.3881    0.1684    0.9204 N   0  0  0  0  0  0  0  0  0  0  0  0
   -4.4985   -0.2943    0.1044 C   0  0  0  0  0  0  0  0  0  0  0  0
   -5.6115    0.7561    0.0508 C   0  0  0  0  0  0  0  0  0  0  0  0
   -6.6294    0.3633    1.1266 C   0  0  0  0  0  0  0  0  0  0  0  0
   -6.0963   -0.9076    1.7773 C   0  0  0  0  0  0  0  0  0  0  0  0
   -5.1765   -1.5127    0.7258 C   0  0  0  0  0  0  0  0  0  0  0  0
   -1.2021    1.7214    2.1774 C   0  0  0  0  0  0  0  0  0  0  0  0
   -1.6295    2.7401    1.3118 C   0  0  0  0  0  0  0  0  0  0  0  0
   -1.7836    4.0502    1.7680 C   0  0  0  0  0  0  0  0  0  0  0  0
   -1.5084    4.3651    3.0973 C   0  0  0  0  0  0  0  0  0  0  0  0
   -1.0618    3.3738    3.9664 C   0  0  0  0  0  0  0  0  0  0  0  0
   -0.9062    2.0634    3.5109 C   0  0  0  0  0  0  0  0  0  0  0  0
    3.7980   -1.2094   -6.2862 N   0  0  0  0  0  0  0  0  0  0  0  0
    4.9963   -1.5089   -6.9083 O   0  0  0  0  0  0  0  0  0  0  0  0
    8.0993   -1.5466   -5.7403 H   0  0  0  0  0  0  0  0  0  0  0  0
    7.5450   -1.3058   -7.4055 H   0  0  0  0  0  0  0  0  0  0  0  0
    7.4560   -2.9163   -6.6646 H   0  0  0  0  0  0  0  0  0  0  0  0
    5.9861   -1.2465   -3.8026 H   0  0  0  0  0  0  0  0  0  0  0  0
    2.1683   -0.6400   -4.5415 H   0  0  0  0  0  0  0  0  0  0  0  0
    1.1328   -0.8527   -2.3814 H   0  0  0  0  0  0  0  0  0  0  0  0
    1.6587    0.8357   -2.5001 H   0  0  0  0  0  0  0  0  0  0  0  0
    2.2528   -1.1023   -0.2067 H   0  0  0  0  0  0  0  0  0  0  0  0
    2.8534    0.5725   -0.2857 H   0  0  0  0  0  0  0  0  0  0  0  0
    2.8814    0.6203    1.9962 H   0  0  0  0  0  0  0  0  0  0  0  0
    4.2845   -0.6124    3.6186 H   0  0  0  0  0  0  0  0  0  0  0  0
    3.3290   -2.6159    4.7611 H   0  0  0  0  0  0  0  0  0  0  0  0
   -0.2097   -2.3048    2.7010 H   0  0  0  0  0  0  0  0  0  0  0  0
   -1.2409   -0.3213    2.6317 H   0  0  0  0  0  0  0  0  0  0  0  0
   -3.5764    0.8236    1.6713 H   0  0  0  0  0  0  0  0  0  0  0  0
   -4.1188   -0.5208   -0.8975 H   0  0  0  0  0  0  0  0  0  0  0  0
   -6.1043    0.7294   -0.9310 H   0  0  0  0  0  0  0  0  0  0  0  0
   -5.2396    1.7761    0.1991 H   0  0  0  0  0  0  0  0  0  0  0  0
   -7.6038    0.1749    0.6595 H   0  0  0  0  0  0  0  0  0  0  0  0
   -6.7681    1.1598    1.8654 H   0  0  0  0  0  0  0  0  0  0  0  0
   -5.5264   -0.6551    2.6784 H   0  0  0  0  0  0  0  0  0  0  0  0
   -6.8989   -1.5909    2.0703 H   0  0  0  0  0  0  0  0  0  0  0  0
   -5.7761   -2.0293   -0.0329 H   0  0  0  0  0  0  0  0  0  0  0  0
   -4.4749   -2.2312    1.1598 H   0  0  0  0  0  0  0  0  0  0  0  0
   -1.8422    2.5280    0.2643 H   0  0  0  0  0  0  0  0  0  0  0  0
   -2.1180    4.8239    1.0827 H   0  0  0  0  0  0  0  0  0  0  0  0
   -1.6291    5.3867    3.4478 H   0  0  0  0  0  0  0  0  0  0  0  0
   -0.8345    3.6202    5.0016 H   0  0  0  0  0  0  0  0  0  0  0  0
   -0.5479    1.3093    4.2086 H   0  0  0  0  0  0  0  0  0  0  0  0
  1  2  1  0
  2  3  2  0
  3  4  1  0
  4  5  1  0
  5  6  1  0
  6  7  2  0
  6  8  1  0
  8  9  1  0
  9 10  1  0
 10 11  2  0
 10 12  1  0
 12 13  1  0
 13 14  2  0
 14 15  1  0
 15 16  2  0
 16 17  1  0
 17 18  2  0
 12 19  1  0
 19 20  1  0
 20 21  2  0
 20 22  1  0
 22 23  1  0
 23 24  1  0
 24 25  1  0
 25 26  1  0
 26 27  1  0
 19 28  1  0
 28 29  2  0
 29 30  1  0
 30 31  2  0
 31 32  1  0
 32 33  2  0
  4 34  2  0
 34 35  1  0
 35  2  1  0
 18 13  1  0
 27 23  1  0
 33 28  1  0
  1 36  1  0
  1 37  1  0
  1 38  1  0
  3 39  1  0
  5 40  1  0
  8 41  1  0
  8 42  1  0
  9 43  1  0
  9 44  1  0
 14 45  1  0
 15 46  1  0
 16 47  1  0
 18 48  1  0
 19 49  1  0
 22 50  1  0
 23 51  1  0
 24 52  1  0
 24 53  1  0
 25 54  1  0
 25 55  1  0
 26 56  1  0
 26 57  1  0
 27 58  1  0
 27 59  1  0
 29 60  1  0
 30 61  1  0
 31 62  1  0
 32 63  1  0
 33 64  1  0
M  END
$$$$
