
     RDKit          3D

 53 56  0  0  0  0  0  0  0  0999 V2000
    8.0729    1.1159    1.0751 C   0  0  0  0  0  0  0  0  0  0  0  0
    7.0445    0.1553    0.8947 O   0  0  0  0  0  0  0  0  0  0  0  0
    5.9738    0.5275    0.1234 C   0  0  0  0  0  0  0  0  0  0  0  0
    5.7958    1.7741   -0.4749 C   0  0  0  0  0  0  0  0  0  0  0  0
    4.6510    2.0258   -1.2326 C   0  0  0  0  0  0  0  0  0  0  0  0
    3.6839    1.0392   -1.3856 C   0  0  0  0  0  0  0  0  0  0  0  0
    3.8503   -0.2159   -0.7930 C   0  0  0  0  0  0  0  0  0  0  0  0
    2.8290   -1.1618   -1.0146 N   0  0  0  0  0  0  0  0  0  0  0  0
    2.6952   -2.4201   -0.4540 C   0  0  0  0  0  0  0  0  0  0  0  0
    3.4284   -2.9168    0.3990 O   0  0  0  0  0  0  0  0  0  0  0  0
    1.5139   -3.2025   -1.0069 C   0  0  0  0  0  0  0  0  0  0  0  0
   -0.0289   -2.7508   -0.1575 S   0  0  0  0  0  0  0  0  0  0  0  0
   -0.5126   -1.3388   -1.0428 C   0  0  0  0  0  0  0  0  0  0  0  0
    0.2208   -0.7780   -1.9784 N   0  0  0  0  0  0  0  0  0  0  0  0
   -0.5023    0.2292   -2.5352 N   0  0  0  0  0  0  0  0  0  0  0  0
   -1.6704    0.2941   -1.9159 C   0  0  0  0  0  0  0  0  0  0  0  0
   -2.6592    1.4010   -2.1065 C   0  0  0  0  0  0  0  0  0  0  0  0
   -2.8096    2.2787   -0.8937 C   0  0  0  0  0  0  0  0  0  0  0  0
   -3.9021    2.4142   -0.0570 C   0  0  0  0  0  0  0  0  0  0  0  0
   -3.6600    3.3268    1.0084 C   0  0  0  0  0  0  0  0  0  0  0  0
   -2.4028    3.8828    0.9383 C   0  0  0  0  0  0  0  0  0  0  0  0
   -1.5183    3.3009   -0.4023 S   0  0  0  0  0  0  0  0  0  0  0  0
   -1.7535   -0.7322   -0.9785 N   0  0  0  0  0  0  0  0  0  0  0  0
   -2.8616   -1.0629   -0.1575 C   0  0  0  0  0  0  0  0  0  0  0  0
   -2.6811   -1.3064    1.2047 C   0  0  0  0  0  0  0  0  0  0  0  0
   -3.7834   -1.6159    2.0096 C   0  0  0  0  0  0  0  0  0  0  0  0
   -5.0699   -1.6870    1.4640 C   0  0  0  0  0  0  0  0  0  0  0  0
   -6.2368   -2.0122    2.3492 C   0  0  0  0  0  0  0  0  0  0  0  0
   -5.2429   -1.4529    0.0972 C   0  0  0  0  0  0  0  0  0  0  0  0
   -4.1453   -1.1429   -0.7142 C   0  0  0  0  0  0  0  0  0  0  0  0
    4.9964   -0.4621   -0.0385 C   0  0  0  0  0  0  0  0  0  0  0  0
    7.6940    2.0335    1.5330 H   0  0  0  0  0  0  0  0  0  0  0  0
    8.5784    1.3178    0.1266 H   0  0  0  0  0  0  0  0  0  0  0  0
    8.8087    0.6872    1.7591 H   0  0  0  0  0  0  0  0  0  0  0  0
    6.5221    2.5719   -0.3660 H   0  0  0  0  0  0  0  0  0  0  0  0
    4.5123    2.9971   -1.7005 H   0  0  0  0  0  0  0  0  0  0  0  0
    2.7963    1.2663   -1.9725 H   0  0  0  0  0  0  0  0  0  0  0  0
    2.0542   -0.8405   -1.5927 H   0  0  0  0  0  0  0  0  0  0  0  0
    1.4390   -3.0702   -2.0906 H   0  0  0  0  0  0  0  0  0  0  0  0
    1.7067   -4.2679   -0.8380 H   0  0  0  0  0  0  0  0  0  0  0  0
   -2.3283    2.0249   -2.9474 H   0  0  0  0  0  0  0  0  0  0  0  0
   -3.6272    1.0039   -2.4159 H   0  0  0  0  0  0  0  0  0  0  0  0
   -4.8318    1.8683   -0.1843 H   0  0  0  0  0  0  0  0  0  0  0  0
   -4.3738    3.5632    1.7880 H   0  0  0  0  0  0  0  0  0  0  0  0
   -1.9491    4.5978    1.6178 H   0  0  0  0  0  0  0  0  0  0  0  0
   -1.7039   -1.2206    1.6780 H   0  0  0  0  0  0  0  0  0  0  0  0
   -3.6301   -1.7918    3.0708 H   0  0  0  0  0  0  0  0  0  0  0  0
   -6.3353   -1.2530    3.1313 H   0  0  0  0  0  0  0  0  0  0  0  0
   -7.1730   -2.0400    1.7845 H   0  0  0  0  0  0  0  0  0  0  0  0
   -6.0932   -2.9929    2.8140 H   0  0  0  0  0  0  0  0  0  0  0  0
   -6.2325   -1.5220   -0.3493 H   0  0  0  0  0  0  0  0  0  0  0  0
   -4.3103   -1.0169   -1.7794 H   0  0  0  0  0  0  0  0  0  0  0  0
    5.1615   -1.4222    0.4411 H   0  0  0  0  0  0  0  0  0  0  0  0
  1  2  1  0
  2  3  1  0
  3  4  2  0
  4  5  1  0
  5  6  2  0
  6  7  1  0
  7  8  1  0
  8  9  1  0
  9 10  2  0
  9 11  1  0
 11 12  1  0
 12 13  1  0
 13 14  2  0
 14 15  1  0
 15 16  2  0
 16 17  1  0
 17 18  1  0
 18 19  2  0
 19 20  1  0
 20 21  2  0
 21 22  1  0
 16 23  1  0
 23 24  1  0
 24 25  2  0
 25 26  1  0
 26 27  2  0
 27 28  1  0
 27 29  1  0
 29 30  2  0
  7 31  2  0
 31  3  1  0
 23 13  1  0
 30 24  1  0
 22 18  1  0
  1 32  1  0
  1 33  1  0
  1 34  1  0
  4 35  1  0
  5 36  1  0
  6 37  1  0
  8 38  1  0
 11 39  1  0
 11 40  1  0
 17 41  1  0
 17 42  1  0
 19 43  1  0
 20 44  1  0
 21 45  1  0
 25 46  1  0
 26 47  1  0
 28 48  1  0
 28 49  1  0
 28 50  1  0
 29 51  1  0
 30 52  1  0
 31 53  1  0
M  END
$$$$
