
     RDKit          3D

 60 62  0  0  0  0  0  0  0  0999 V2000
   -2.5627    6.1584   -2.7777 C   0  0  0  0  0  0  0  0  0  0  0  0
   -2.5507    4.9500   -1.8923 C   0  0  0  0  0  0  0  0  0  0  0  0
   -1.4492    4.6819   -1.0766 C   0  0  0  0  0  0  0  0  0  0  0  0
   -1.4550    3.5744   -0.2288 C   0  0  0  0  0  0  0  0  0  0  0  0
   -2.5681    2.7202   -0.1846 C   0  0  0  0  0  0  0  0  0  0  0  0
   -2.4992    1.3451    0.9522 S   0  0  0  0  0  6  0  0  0  0  0  0
   -3.8218    1.1460    1.5078 O   0  0  0  0  0  0  0  0  0  0  0  0
   -1.3612    1.5206    1.8319 O   0  0  0  0  0  0  0  0  0  0  0  0
   -2.2101    0.0363   -0.0723 N   0  0  0  0  0  0  0  0  0  0  0  0
   -0.8810   -0.2008   -0.5396 C   0  0  0  0  0  0  0  0  0  0  0  0
    0.0510   -0.7245    0.3616 C   0  0  0  0  0  0  0  0  0  0  0  0
    1.3730   -1.0027   -0.0210 C   0  0  0  0  0  0  0  0  0  0  0  0
    2.3342   -1.5320    1.0502 C   0  0  0  0  0  0  0  0  0  0  0  0
    1.7987   -2.7374    1.8080 C   0  0  0  0  0  0  0  0  0  0  0  0
    0.9089   -3.4837    1.4285 O   0  0  0  0  0  0  0  0  0  0  0  0
    2.4731   -2.8712    2.9847 O   0  0  0  0  0  0  0  0  0  0  0  0
    2.0457   -3.9368    3.8557 C   0  0  0  0  0  0  0  0  0  0  0  0
    2.7394   -5.2343    3.4570 C   0  0  0  0  0  0  0  0  0  0  0  0
    2.4262   -3.5339    5.2770 C   0  0  0  0  0  0  0  0  0  0  0  0
    3.7581   -1.8029    0.6122 C   0  0  0  0  0  0  0  0  0  0  0  0
    4.6538   -0.9760    0.8334 O   0  0  0  0  0  0  0  0  0  0  0  0
    4.0209   -3.1479   -0.0457 C   0  0  0  0  0  0  0  0  0  0  0  0
    5.1044   -3.1394   -0.8706 F   0  0  0  0  0  0  0  0  0  0  0  0
    2.9776   -3.6058   -0.7847 F   0  0  0  0  0  0  0  0  0  0  0  0
    4.2641   -4.1133    0.8878 F   0  0  0  0  0  0  0  0  0  0  0  0
    1.7276   -0.7084   -1.3455 C   0  0  0  0  0  0  0  0  0  0  0  0
    3.0378   -0.8993   -1.7016 O   0  0  0  0  0  0  0  0  0  0  0  0
    0.7947   -0.2230   -2.3035 C   0  0  0  0  0  0  0  0  0  0  0  0
    1.1235   -0.0006   -3.6634 C   0  0  0  0  0  0  0  0  0  0  0  0
    0.1849    0.4768   -4.5805 C   0  0  0  0  0  0  0  0  0  0  0  0
   -1.1137    0.7302   -4.1676 C   0  0  0  0  0  0  0  0  0  0  0  0
   -1.4703    0.5003   -2.8409 C   0  0  0  0  0  0  0  0  0  0  0  0
   -0.5357    0.0318   -1.8884 C   0  0  0  0  0  0  0  0  0  0  0  0
   -3.6922    2.9749   -0.9930 C   0  0  0  0  0  0  0  0  0  0  0  0
   -4.9356    2.1305   -0.9848 C   0  0  0  0  0  0  0  0  0  0  0  0
   -3.6680    4.1073   -1.8301 C   0  0  0  0  0  0  0  0  0  0  0  0
   -3.1505    5.9721   -3.6840 H   0  0  0  0  0  0  0  0  0  0  0  0
   -2.9928    7.0098   -2.2424 H   0  0  0  0  0  0  0  0  0  0  0  0
   -1.5461    6.4181   -3.0978 H   0  0  0  0  0  0  0  0  0  0  0  0
   -0.5790    5.3341   -1.0910 H   0  0  0  0  0  0  0  0  0  0  0  0
   -0.5858    3.3889    0.3999 H   0  0  0  0  0  0  0  0  0  0  0  0
   -2.7928   -0.7734    0.1393 H   0  0  0  0  0  0  0  0  0  0  0  0
   -0.2636   -0.9065    1.3893 H   0  0  0  0  0  0  0  0  0  0  0  0
    2.3973   -0.7179    1.7883 H   0  0  0  0  0  0  0  0  0  0  0  0
    0.9551   -4.0549    3.8089 H   0  0  0  0  0  0  0  0  0  0  0  0
    2.4717   -6.0480    4.1377 H   0  0  0  0  0  0  0  0  0  0  0  0
    3.8294   -5.1162    3.4623 H   0  0  0  0  0  0  0  0  0  0  0  0
    2.4620   -5.5307    2.4409 H   0  0  0  0  0  0  0  0  0  0  0  0
    1.9582   -2.5757    5.5388 H   0  0  0  0  0  0  0  0  0  0  0  0
    2.1077   -4.2897    6.0043 H   0  0  0  0  0  0  0  0  0  0  0  0
    3.5114   -3.3925    5.3682 H   0  0  0  0  0  0  0  0  0  0  0  0
    3.2862   -0.2036   -2.3347 H   0  0  0  0  0  0  0  0  0  0  0  0
    2.1179   -0.2236   -4.0416 H   0  0  0  0  0  0  0  0  0  0  0  0
    0.4672    0.6383   -5.6173 H   0  0  0  0  0  0  0  0  0  0  0  0
   -1.8536    1.0949   -4.8752 H   0  0  0  0  0  0  0  0  0  0  0  0
   -2.5020    0.6883   -2.5522 H   0  0  0  0  0  0  0  0  0  0  0  0
   -4.6976    1.0639   -0.9627 H   0  0  0  0  0  0  0  0  0  0  0  0
   -5.5248    2.2919   -1.8977 H   0  0  0  0  0  0  0  0  0  0  0  0
   -5.5615    2.3869   -0.1250 H   0  0  0  0  0  0  0  0  0  0  0  0
   -4.5368    4.3344   -2.4476 H   0  0  0  0  0  0  0  0  0  0  0  0
  1  2  1  0
  2  3  2  0
  3  4  1  0
  4  5  2  0
  5  6  1  0
  6  7  2  0
  6  8  2  0
  6  9  1  0
  9 10  1  0
 10 11  2  0
 11 12  1  0
 12 13  1  0
 13 14  1  0
 14 15  2  0
 14 16  1  0
 16 17  1  0
 17 18  1  0
 17 19  1  0
 13 20  1  0
 20 21  2  0
 20 22  1  0
 22 23  1  0
 22 24  1  0
 22 25  1  0
 12 26  2  0
 26 27  1  0
 26 28  1  0
 28 29  2  0
 29 30  1  0
 30 31  2  0
 31 32  1  0
 32 33  2  0
  5 34  1  0
 34 35  1  0
 34 36  2  0
 36  2  1  0
 33 10  1  0
 33 28  1  0
  1 37  1  0
  1 38  1  0
  1 39  1  0
  3 40  1  0
  4 41  1  0
  9 42  1  0
 11 43  1  0
 13 44  1  0
 17 45  1  0
 18 46  1  0
 18 47  1  0
 18 48  1  0
 19 49  1  0
 19 50  1  0
 19 51  1  0
 27 52  1  0
 29 53  1  0
 30 54  1  0
 31 55  1  0
 32 56  1  0
 35 57  1  0
 35 58  1  0
 35 59  1  0
 36 60  1  0
M  END
$$$$
