
     RDKit          3D

 61 66  0  0  0  0  0  0  0  0999 V2000
   -4.2578    0.5732    1.1547 C   0  0  0  0  0  0  0  0  0  0  0  0
   -4.0520    0.2373   -0.3276 C   0  0  0  0  0  0  0  0  0  0  0  0
   -5.3750   -0.1866   -0.9745 C   0  0  0  0  0  0  0  0  0  0  0  0
   -3.3698    1.3998   -1.0439 C   0  0  0  0  0  0  0  0  0  0  0  0
   -4.1372    2.5016   -1.4659 C   0  0  0  0  0  0  0  0  0  0  0  0
   -3.5466    3.6257   -2.0528 C   0  0  0  0  0  0  0  0  0  0  0  0
   -2.1673    3.6871   -2.2192 C   0  0  0  0  0  0  0  0  0  0  0  0
   -1.3759    2.6241   -1.7984 C   0  0  0  0  0  0  0  0  0  0  0  0
   -1.9705    1.4852   -1.2236 C   0  0  0  0  0  0  0  0  0  0  0  0
   -1.1068    0.4211   -0.8688 N   0  0  0  0  0  0  0  0  0  0  0  0
   -0.1133    0.4344    0.0912 C   0  0  0  0  0  0  0  0  0  0  0  0
    0.2675    1.8082    1.0865 S   0  0  0  0  0  0  0  0  0  0  0  0
    1.8147    1.2821    1.8955 C   0  0  0  0  0  0  0  0  0  0  0  0
    2.9632    0.9372    0.9673 C   0  0  0  0  0  0  0  0  0  0  0  0
    3.0992    1.4849   -0.2538 C   0  0  0  0  0  0  0  0  0  0  0  0
    3.9443    0.9109   -1.3021 C   0  0  0  0  0  0  0  0  0  0  0  0
    4.0901    1.4931   -2.3727 O   0  0  0  0  0  0  0  0  0  0  0  0
    4.4661   -0.3397   -1.0511 O   0  0  0  0  0  0  0  0  0  0  0  0
    4.4945   -0.8437    0.2630 C   0  0  0  0  0  0  0  0  0  0  0  0
    5.2275   -2.0148    0.4267 C   0  0  0  0  0  0  0  0  0  0  0  0
    5.4118   -2.5234    1.7034 C   0  0  0  0  0  0  0  0  0  0  0  0
    4.9348   -1.8286    2.8218 C   0  0  0  0  0  0  0  0  0  0  0  0
    5.2164   -2.3323    4.1040 C   0  0  0  0  0  0  0  0  0  0  0  0
    4.8654   -1.6247    5.2480 C   0  0  0  0  0  0  0  0  0  0  0  0
    4.2419   -0.3969    5.1233 C   0  0  0  0  0  0  0  0  0  0  0  0
    3.9117    0.0932    3.8545 C   0  0  0  0  0  0  0  0  0  0  0  0
    4.2079   -0.6135    2.6605 C   0  0  0  0  0  0  0  0  0  0  0  0
    3.8960   -0.1669    1.3344 C   0  0  0  0  0  0  0  0  0  0  0  0
    0.4538   -0.7464    0.1674 N   0  0  0  0  0  0  0  0  0  0  0  0
   -0.1209   -1.5484   -0.7817 N   0  0  0  0  0  0  0  0  0  0  0  0
   -1.0309   -0.8494   -1.4435 C   0  0  0  0  0  0  0  0  0  0  0  0
   -1.7981   -1.3785   -2.5749 C   0  0  0  0  0  0  0  0  0  0  0  0
   -2.2406   -0.6089   -3.6556 C   0  0  0  0  0  0  0  0  0  0  0  0
   -2.9857   -1.2008   -4.6771 C   0  0  0  0  0  0  0  0  0  0  0  0
   -3.2510   -2.5583   -4.6023 C   0  0  0  0  0  0  0  0  0  0  0  0
   -2.8209   -3.3443   -3.5973 N   0  0  0  0  0  0  0  0  0  0  0  0
   -2.1075   -2.7402   -2.6131 C   0  0  0  0  0  0  0  0  0  0  0  0
   -4.6611   -0.2956    1.6851 H   0  0  0  0  0  0  0  0  0  0  0  0
   -3.3097    0.8448    1.6377 H   0  0  0  0  0  0  0  0  0  0  0  0
   -4.9611    1.4024    1.2864 H   0  0  0  0  0  0  0  0  0  0  0  0
   -3.4147   -0.6507   -0.3712 H   0  0  0  0  0  0  0  0  0  0  0  0
   -5.7123   -1.1404   -0.5525 H   0  0  0  0  0  0  0  0  0  0  0  0
   -5.2686   -0.3167   -2.0596 H   0  0  0  0  0  0  0  0  0  0  0  0
   -6.1723    0.5451   -0.7967 H   0  0  0  0  0  0  0  0  0  0  0  0
   -5.2168    2.5112   -1.3276 H   0  0  0  0  0  0  0  0  0  0  0  0
   -4.1663    4.4589   -2.3721 H   0  0  0  0  0  0  0  0  0  0  0  0
   -1.7098    4.5637   -2.6744 H   0  0  0  0  0  0  0  0  0  0  0  0
   -0.3005    2.6839   -1.9519 H   0  0  0  0  0  0  0  0  0  0  0  0
    2.1070    2.1018    2.5590 H   0  0  0  0  0  0  0  0  0  0  0  0
    1.5396    0.4187    2.5128 H   0  0  0  0  0  0  0  0  0  0  0  0
    2.5003    2.3195   -0.5943 H   0  0  0  0  0  0  0  0  0  0  0  0
    5.6595   -2.5171   -0.4346 H   0  0  0  0  0  0  0  0  0  0  0  0
    5.9940   -3.4371    1.8274 H   0  0  0  0  0  0  0  0  0  0  0  0
    5.7368   -3.2806    4.2185 H   0  0  0  0  0  0  0  0  0  0  0  0
    5.1152   -2.0170    6.2314 H   0  0  0  0  0  0  0  0  0  0  0  0
    4.0268    0.2000    6.0047 H   0  0  0  0  0  0  0  0  0  0  0  0
    3.4989    1.0923    3.8182 H   0  0  0  0  0  0  0  0  0  0  0  0
   -2.0197    0.4505   -3.7330 H   0  0  0  0  0  0  0  0  0  0  0  0
   -3.3503   -0.6145   -5.5129 H   0  0  0  0  0  0  0  0  0  0  0  0
   -3.8219   -3.0643   -5.3769 H   0  0  0  0  0  0  0  0  0  0  0  0
   -1.7720   -3.4116   -1.8257 H   0  0  0  0  0  0  0  0  0  0  0  0
  1  2  1  0
  2  3  1  0
  2  4  1  0
  4  5  2  0
  5  6  1  0
  6  7  2  0
  7  8  1  0
  8  9  2  0
  9 10  1  0
 10 11  1  0
 11 12  1  0
 12 13  1  0
 13 14  1  0
 14 15  2  0
 15 16  1  0
 16 17  2  0
 16 18  1  0
 18 19  1  0
 19 20  2  0
 20 21  1  0
 21 22  2  0
 22 23  1  0
 23 24  2  0
 24 25  1  0
 25 26  2  0
 26 27  1  0
 27 28  2  0
 11 29  2  0
 29 30  1  0
 30 31  2  0
 31 32  1  0
 32 33  2  0
 33 34  1  0
 34 35  2  0
 35 36  1  0
 36 37  2  0
  9  4  1  0
 31 10  1  0
 37 32  1  0
 28 14  1  0
 28 19  1  0
 27 22  1  0
  1 38  1  0
  1 39  1  0
  1 40  1  0
  2 41  1  0
  3 42  1  0
  3 43  1  0
  3 44  1  0
  5 45  1  0
  6 46  1  0
  7 47  1  0
  8 48  1  0
 13 49  1  0
 13 50  1  0
 15 51  1  0
 20 52  1  0
 21 53  1  0
 23 54  1  0
 24 55  1  0
 25 56  1  0
 26 57  1  0
 33 58  1  0
 34 59  1  0
 35 60  1  0
 37 61  1  0
M  END
$$$$
