
     RDKit          3D

 72 74  0  0  0  0  0  0  0  0999 V2000
   -1.8349    6.5947   -2.5042 C   0  0  0  0  0  0  0  0  0  0  0  0
   -2.6531    5.7581   -1.6959 O   0  0  0  0  0  0  0  0  0  0  0  0
   -2.1415    4.5391   -1.3500 C   0  0  0  0  0  0  0  0  0  0  0  0
   -2.9700    3.7716   -0.5303 C   0  0  0  0  0  0  0  0  0  0  0  0
   -2.5761    2.5011   -0.1040 C   0  0  0  0  0  0  0  0  0  0  0  0
   -1.3314    1.9737   -0.4837 C   0  0  0  0  0  0  0  0  0  0  0  0
   -0.8603    0.5870   -0.0431 C   0  0  0  0  0  0  0  0  0  0  0  0
   -1.4539    0.1310    1.3230 C   0  0  0  0  0  0  0  0  0  0  0  0
   -2.2666   -0.7825    1.4336 O   0  0  0  0  0  0  0  0  0  0  0  0
   -0.9890    0.8683    2.4057 N   0  0  0  0  0  0  0  0  0  0  0  0
   -1.4910    0.7284    3.7825 C   0  0  0  0  0  0  0  0  0  0  0  0
   -2.9638    1.1604    3.8614 C   0  0  0  0  0  0  0  0  0  0  0  0
   -0.6569    1.6575    4.6838 C   0  0  0  0  0  0  0  0  0  0  0  0
   -1.3314   -0.7097    4.3043 C   0  0  0  0  0  0  0  0  0  0  0  0
   -1.0122   -0.4264   -1.1186 N   0  0  0  0  0  0  0  0  0  0  0  0
   -2.3526   -0.5804   -1.7158 C   0  0  0  0  0  0  0  0  0  0  0  0
   -2.8199   -2.0095   -2.0754 C   0  0  0  0  0  0  0  0  0  0  0  0
   -2.7719   -3.0076   -0.9248 C   0  0  0  0  0  0  0  0  0  0  0  0
   -4.1646   -2.9327   -0.3506 C   0  0  0  0  0  0  0  0  0  0  0  0
   -4.9981   -2.7307   -1.5934 C   0  0  0  0  0  0  0  0  0  0  0  0
   -4.2106   -1.9316   -2.4855 O   0  0  0  0  0  0  0  0  0  0  0  0
    0.0692   -1.0430   -1.7391 C   0  0  0  0  0  0  0  0  0  0  0  0
   -0.0408   -1.6715   -2.7918 O   0  0  0  0  0  0  0  0  0  0  0  0
    1.4254   -0.9259   -1.0690 C   0  0  0  0  0  0  0  0  0  0  0  0
    2.4599   -1.8460   -1.7127 C   0  0  0  0  0  0  0  0  0  0  0  0
    3.8138   -1.7005   -1.0483 C   0  0  0  0  0  0  0  0  0  0  0  0
    4.0233   -0.8736   -0.1655 O   0  0  0  0  0  0  0  0  0  0  0  0
    4.7358   -2.5816   -1.5634 N   0  0  0  0  0  0  0  0  0  0  0  0
    6.0503   -2.6788   -1.1642 C   0  0  0  0  0  0  0  0  0  0  0  0
    6.7490   -1.9391   -0.1849 C   0  0  0  0  0  0  0  0  0  0  0  0
    8.0221   -2.4502   -0.2082 C   0  0  0  0  0  0  0  0  0  0  0  0
    9.2627   -2.1564    0.5292 C   0  0  0  0  0  0  0  0  0  0  0  0
    8.0876   -3.4361   -1.1401 O   0  0  0  0  0  0  0  0  0  0  0  0
    6.8507   -3.5813   -1.7421 N   0  0  0  0  0  0  0  0  0  0  0  0
   -0.5087    2.7504   -1.3155 C   0  0  0  0  0  0  0  0  0  0  0  0
   -0.9087    4.0223   -1.7432 C   0  0  0  0  0  0  0  0  0  0  0  0
   -0.9007    6.8471   -1.9915 H   0  0  0  0  0  0  0  0  0  0  0  0
   -2.3808    7.5265   -2.6795 H   0  0  0  0  0  0  0  0  0  0  0  0
   -1.6385    6.1344   -3.4782 H   0  0  0  0  0  0  0  0  0  0  0  0
   -3.9398    4.1613   -0.2299 H   0  0  0  0  0  0  0  0  0  0  0  0
   -3.2667    1.9307    0.5162 H   0  0  0  0  0  0  0  0  0  0  0  0
    0.2039    0.7085    0.1798 H   0  0  0  0  0  0  0  0  0  0  0  0
   -0.5474    1.7530    2.1813 H   0  0  0  0  0  0  0  0  0  0  0  0
   -3.6123    0.5157    3.2581 H   0  0  0  0  0  0  0  0  0  0  0  0
   -3.3316    1.1233    4.8923 H   0  0  0  0  0  0  0  0  0  0  0  0
   -3.0909    2.1867    3.4954 H   0  0  0  0  0  0  0  0  0  0  0  0
    0.4054    1.3884    4.6504 H   0  0  0  0  0  0  0  0  0  0  0  0
   -0.9856    1.6029    5.7278 H   0  0  0  0  0  0  0  0  0  0  0  0
   -0.7390    2.7020    4.3598 H   0  0  0  0  0  0  0  0  0  0  0  0
   -1.5841   -0.7720    5.3690 H   0  0  0  0  0  0  0  0  0  0  0  0
   -0.3004   -1.0631    4.1822 H   0  0  0  0  0  0  0  0  0  0  0  0
   -1.9839   -1.4155    3.7815 H   0  0  0  0  0  0  0  0  0  0  0  0
   -3.0967   -0.1478   -1.0368 H   0  0  0  0  0  0  0  0  0  0  0  0
   -2.3783    0.0384   -2.6226 H   0  0  0  0  0  0  0  0  0  0  0  0
   -2.2618   -2.3939   -2.9338 H   0  0  0  0  0  0  0  0  0  0  0  0
   -1.9815   -2.8246   -0.1938 H   0  0  0  0  0  0  0  0  0  0  0  0
   -2.6086   -4.0147   -1.3305 H   0  0  0  0  0  0  0  0  0  0  0  0
   -4.2588   -2.0598    0.3051 H   0  0  0  0  0  0  0  0  0  0  0  0
   -4.4527   -3.8216    0.2173 H   0  0  0  0  0  0  0  0  0  0  0  0
   -5.2067   -3.6843   -2.0910 H   0  0  0  0  0  0  0  0  0  0  0  0
   -5.9480   -2.2277   -1.3893 H   0  0  0  0  0  0  0  0  0  0  0  0
    1.3245   -1.1850   -0.0088 H   0  0  0  0  0  0  0  0  0  0  0  0
    1.7664    0.1121   -1.1565 H   0  0  0  0  0  0  0  0  0  0  0  0
    2.1354   -2.8906   -1.6348 H   0  0  0  0  0  0  0  0  0  0  0  0
    2.5736   -1.6048   -2.7761 H   0  0  0  0  0  0  0  0  0  0  0  0
    4.4768   -3.2345   -2.2909 H   0  0  0  0  0  0  0  0  0  0  0  0
    6.3839   -1.1448    0.4481 H   0  0  0  0  0  0  0  0  0  0  0  0
    9.7151   -3.0775    0.9108 H   0  0  0  0  0  0  0  0  0  0  0  0
    9.0642   -1.4995    1.3816 H   0  0  0  0  0  0  0  0  0  0  0  0
    9.9870   -1.6594   -0.1231 H   0  0  0  0  0  0  0  0  0  0  0  0
    0.4543    2.3678   -1.6492 H   0  0  0  0  0  0  0  0  0  0  0  0
   -0.2373    4.5744   -2.3941 H   0  0  0  0  0  0  0  0  0  0  0  0
  1  2  1  0
  2  3  1  0
  3  4  2  0
  4  5  1  0
  5  6  2  0
  6  7  1  0
  7  8  1  0
  8  9  2  0
  8 10  1  0
 10 11  1  0
 11 12  1  0
 11 13  1  0
 11 14  1  0
  7 15  1  0
 15 16  1  0
 16 17  1  0
 17 18  1  0
 18 19  1  0
 19 20  1  0
 20 21  1  0
 15 22  1  0
 22 23  2  0
 22 24  1  0
 24 25  1  0
 25 26  1  0
 26 27  2  0
 26 28  1  0
 28 29  1  0
 29 30  1  0
 30 31  2  0
 31 32  1  0
 31 33  1  0
 33 34  1  0
  6 35  1  0
 35 36  2  0
 36  3  1  0
 21 17  1  0
 34 29  2  0
  1 37  1  0
  1 38  1  0
  1 39  1  0
  4 40  1  0
  5 41  1  0
  7 42  1  0
 10 43  1  0
 12 44  1  0
 12 45  1  0
 12 46  1  0
 13 47  1  0
 13 48  1  0
 13 49  1  0
 14 50  1  0
 14 51  1  0
 14 52  1  0
 16 53  1  0
 16 54  1  0
 17 55  1  0
 18 56  1  0
 18 57  1  0
 19 58  1  0
 19 59  1  0
 20 60  1  0
 20 61  1  0
 24 62  1  0
 24 63  1  0
 25 64  1  0
 25 65  1  0
 28 66  1  0
 30 67  1  0
 32 68  1  0
 32 69  1  0
 32 70  1  0
 35 71  1  0
 36 72  1  0
M  END
$$$$
