
     RDKit          3D

 93 97  0  0  0  0  0  0  0  0999 V2000
   -7.6964   -0.2622   -2.1914 C   0  0  0  0  0  0  0  0  0  0  0  0
   -7.8059   -0.7345   -0.7483 C   0  0  0  0  0  0  0  0  0  0  0  0
   -6.7169   -1.7418   -0.3778 C   0  0  0  0  0  0  0  0  0  0  0  0
   -5.3453   -1.1198   -0.4866 C   0  0  0  0  0  0  0  0  0  0  0  0
   -5.0057   -0.0956    0.0879 O   0  0  0  0  0  0  0  0  0  0  0  0
   -4.5649   -1.8478   -1.3275 O   0  0  0  0  0  0  0  0  0  0  0  0
   -3.3409   -1.2380   -1.7638 C   0  0  0  0  0  0  0  0  0  0  0  0
   -2.1249   -1.9168   -1.1349 C   0  0  1  0  0  0  0  0  0  0  0  0
   -0.8321   -1.5856   -1.9184 C   0  0  0  0  0  0  0  0  0  0  0  0
    0.3497   -1.5840   -0.9001 C   0  0  2  0  0  0  0  0  0  0  0  0
    0.8277   -0.2451   -0.6978 O   0  0  0  0  0  0  0  0  0  0  0  0
    1.2324    0.4901   -1.7615 C   0  0  0  0  0  0  0  0  0  0  0  0
    1.3002    0.1184   -2.9200 O   0  0  0  0  0  0  0  0  0  0  0  0
    1.5682    1.8470   -1.2922 C   0  0  0  0  0  0  0  0  0  0  0  0
    1.9980    2.7777   -2.1614 C   0  0  0  0  0  0  0  0  0  0  0  0
    2.3605    4.1670   -1.8305 C   0  0  0  0  0  0  0  0  0  0  0  0
    2.8106    4.9993   -2.8677 C   0  0  0  0  0  0  0  0  0  0  0  0
    3.1681    6.3288   -2.6201 C   0  0  0  0  0  0  0  0  0  0  0  0
    3.0744    6.8487   -1.3345 C   0  0  0  0  0  0  0  0  0  0  0  0
    2.6245    6.0400   -0.2944 C   0  0  0  0  0  0  0  0  0  0  0  0
    2.2731    4.7083   -0.5403 C   0  0  0  0  0  0  0  0  0  0  0  0
    1.4051   -2.6612   -1.2666 C   0  0  0  0  0  0  0  0  0  0  0  0
    1.1191   -3.8630   -1.2962 O   0  0  0  0  0  0  0  0  0  0  0  0
    2.7513   -2.2594   -1.7535 C   0  0  0  0  0  0  0  0  0  0  0  0
    2.9590   -2.5295   -3.2137 C   0  0  0  0  0  0  0  0  0  0  0  0
    3.7099   -1.7340   -0.9751 C   0  0  0  0  0  0  0  0  0  0  0  0
    3.7605   -1.4642    0.4716 C   0  0  0  0  0  0  0  0  0  0  0  0
    3.6867   -2.5779    1.5013 C   0  0  2  0  0  0  0  0  0  0  0  0
    3.1287   -2.4907    2.9034 C   0  0  0  0  0  0  0  0  0  0  0  0
    2.3102   -1.2571    3.2843 C   0  0  0  0  0  0  0  0  0  0  0  0
    1.1225   -0.9317    2.3974 C   0  0  2  0  0  0  0  0  0  0  0  0
    0.9132    0.5331    2.1753 C   0  0  0  0  0  0  0  0  0  0  0  0
   -0.1172   -1.5552    2.8216 O   0  0  0  0  0  0  0  0  0  0  0  0
    0.4513   -2.0802    1.6310 C   0  0  1  0  0  0  0  0  0  0  0  0
   -0.3673   -2.0620    0.3931 C   0  0  1  0  0  0  0  0  0  0  0  0
   -1.7892   -1.5023    0.3219 C   0  0  1  0  0  0  0  0  0  0  0  0
   -1.8630   -0.0738    0.3781 O   0  0  0  0  0  0  0  0  0  0  0  0
   -2.4870    0.4779    1.4640 C   0  0  0  0  0  0  0  0  0  0  0  0
   -2.7819   -0.1033    2.4923 O   0  0  0  0  0  0  0  0  0  0  0  0
   -2.7073    1.9554    1.1963 C   0  0  0  0  0  0  0  0  0  0  0  0
   -3.3687    2.7009    2.3492 C   0  0  0  0  0  0  0  0  0  0  0  0
   -4.8517    2.3798    2.4844 C   0  0  0  0  0  0  0  0  0  0  0  0
    5.0291   -1.9241    1.1943 C   0  0  0  0  0  0  0  0  0  0  0  0
    5.6659   -0.9362    2.1444 C   0  0  0  0  0  0  0  0  0  0  0  0
    6.0509   -2.8178    0.5177 C   0  0  0  0  0  0  0  0  0  0  0  0
   -6.7715    0.2962   -2.3616 H   0  0  0  0  0  0  0  0  0  0  0  0
   -8.5296    0.4016   -2.4366 H   0  0  0  0  0  0  0  0  0  0  0  0
   -7.7172   -1.1103   -2.8876 H   0  0  0  0  0  0  0  0  0  0  0  0
   -8.7850   -1.2036   -0.5978 H   0  0  0  0  0  0  0  0  0  0  0  0
   -7.7645    0.1363   -0.0792 H   0  0  0  0  0  0  0  0  0  0  0  0
   -6.8467   -2.0993    0.6501 H   0  0  0  0  0  0  0  0  0  0  0  0
   -6.7877   -2.6133   -1.0360 H   0  0  0  0  0  0  0  0  0  0  0  0
   -3.3402   -0.1523   -1.6136 H   0  0  0  0  0  0  0  0  0  0  0  0
   -3.3145   -1.3954   -2.8477 H   0  0  0  0  0  0  0  0  0  0  0  0
   -2.2784   -3.0053   -1.1635 H   0  0  0  0  0  0  0  0  0  0  0  0
   -0.9594   -0.6143   -2.4078 H   0  0  0  0  0  0  0  0  0  0  0  0
   -0.6851   -2.3242   -2.7137 H   0  0  0  0  0  0  0  0  0  0  0  0
    1.4410    2.0407   -0.2410 H   0  0  0  0  0  0  0  0  0  0  0  0
    2.0931    2.5089   -3.2125 H   0  0  0  0  0  0  0  0  0  0  0  0
    2.8920    4.6224   -3.8864 H   0  0  0  0  0  0  0  0  0  0  0  0
    3.5146    6.9581   -3.4376 H   0  0  0  0  0  0  0  0  0  0  0  0
    3.3490    7.8823   -1.1410 H   0  0  0  0  0  0  0  0  0  0  0  0
    2.5538    6.4403    0.7150 H   0  0  0  0  0  0  0  0  0  0  0  0
    1.9278    4.1217    0.3035 H   0  0  0  0  0  0  0  0  0  0  0  0
    2.1060   -2.1846   -3.8092 H   0  0  0  0  0  0  0  0  0  0  0  0
    3.8539   -2.0276   -3.5979 H   0  0  0  0  0  0  0  0  0  0  0  0
    3.0760   -3.6069   -3.3832 H   0  0  0  0  0  0  0  0  0  0  0  0
    4.6382   -1.4712   -1.4857 H   0  0  0  0  0  0  0  0  0  0  0  0
    3.3813   -0.4837    0.7451 H   0  0  0  0  0  0  0  0  0  0  0  0
    3.5383   -3.5859    1.1181 H   0  0  0  0  0  0  0  0  0  0  0  0
    2.5213   -3.3850    3.0848 H   0  0  0  0  0  0  0  0  0  0  0  0
    3.9570   -2.5884    3.6156 H   0  0  0  0  0  0  0  0  0  0  0  0
    2.9819   -0.3961    3.3119 H   0  0  0  0  0  0  0  0  0  0  0  0
    1.9545   -1.3754    4.3150 H   0  0  0  0  0  0  0  0  0  0  0  0
    1.8290    0.9902    1.7881 H   0  0  0  0  0  0  0  0  0  0  0  0
    0.6731    1.0288    3.1226 H   0  0  0  0  0  0  0  0  0  0  0  0
    0.1085    0.7521    1.4800 H   0  0  0  0  0  0  0  0  0  0  0  0
    0.8971   -3.0667    1.7220 H   0  0  0  0  0  0  0  0  0  0  0  0
   -0.5479   -3.1447    0.2701 H   0  0  0  0  0  0  0  0  0  0  0  0
   -2.4768   -1.9845    1.0281 H   0  0  0  0  0  0  0  0  0  0  0  0
   -1.7239    2.4014    1.0110 H   0  0  0  0  0  0  0  0  0  0  0  0
   -3.3129    2.0675    0.2898 H   0  0  0  0  0  0  0  0  0  0  0  0
   -3.2718    3.7786    2.1683 H   0  0  0  0  0  0  0  0  0  0  0  0
   -2.8527    2.4821    3.2919 H   0  0  0  0  0  0  0  0  0  0  0  0
   -5.0124    1.3309    2.7698 H   0  0  0  0  0  0  0  0  0  0  0  0
   -5.3823    2.5642    1.5446 H   0  0  0  0  0  0  0  0  0  0  0  0
   -5.2996    3.0146    3.2517 H   0  0  0  0  0  0  0  0  0  0  0  0
    6.0195   -1.4479    3.0445 H   0  0  0  0  0  0  0  0  0  0  0  0
    4.9822   -0.1403    2.4498 H   0  0  0  0  0  0  0  0  0  0  0  0
    6.5257   -0.4510    1.6695 H   0  0  0  0  0  0  0  0  0  0  0  0
    6.7389   -2.2193   -0.0872 H   0  0  0  0  0  0  0  0  0  0  0  0
    6.6342   -3.3572    1.2688 H   0  0  0  0  0  0  0  0  0  0  0  0
    5.5881   -3.5623   -0.1380 H   0  0  0  0  0  0  0  0  0  0  0  0
  1  2  1  0
  2  3  1  0
  3  4  1  0
  4  5  2  0
  4  6  1  0
  6  7  1  0
  7  8  1  0
  8  9  1  0
  9 10  1  0
 10 11  1  1
 11 12  1  0
 12 13  2  0
 12 14  1  0
 14 15  2  0
 15 16  1  0
 16 17  2  0
 17 18  1  0
 18 19  2  0
 19 20  1  0
 20 21  2  0
 10 22  1  0
 22 23  2  0
 22 24  1  0
 24 25  1  0
 24 26  2  3
 26 27  1  0
 27 28  1  0
 28 29  1  0
 29 30  1  0
 30 31  1  0
 31 32  1  6
 31 33  1  0
 33 34  1  0
 34 35  1  0
 35 36  1  0
 36 37  1  0
 37 38  1  0
 38 39  2  0
 38 40  1  0
 40 41  1  0
 41 42  1  0
 28 43  1  0
 43 44  1  0
 43 45  1  0
 36  8  1  0
 35 10  1  0
 21 16  1  0
 43 27  1  0
 34 31  1  0
  1 46  1  0
  1 47  1  0
  1 48  1  0
  2 49  1  0
  2 50  1  0
  3 51  1  0
  3 52  1  0
  7 53  1  0
  7 54  1  0
  8 55  1  1
  9 56  1  0
  9 57  1  0
 14 58  1  0
 15 59  1  0
 17 60  1  0
 18 61  1  0
 19 62  1  0
 20 63  1  0
 21 64  1  0
 25 65  1  0
 25 66  1  0
 25 67  1  0
 26 68  1  0
 27 69  1  0
 28 70  1  6
 29 71  1  0
 29 72  1  0
 30 73  1  0
 30 74  1  0
 32 75  1  0
 32 76  1  0
 32 77  1  0
 34 78  1  1
 35 79  1  6
 36 80  1  1
 40 81  1  0
 40 82  1  0
 41 83  1  0
 41 84  1  0
 42 85  1  0
 42 86  1  0
 42 87  1  0
 44 88  1  0
 44 89  1  0
 44 90  1  0
 45 91  1  0
 45 92  1  0
 45 93  1  0
M  END
$$$$
