
     RDKit          3D

 58 60  0  0  0  0  0  0  0  0999 V2000
    0.0635   -2.2352   -1.5542 C   0  0  0  0  0  0  0  0  0  0  0  0
   -0.8948   -1.0735   -1.4871 C   0  0  0  0  0  0  0  0  0  0  0  0
   -1.5348   -0.6767   -2.6777 C   0  0  0  0  0  0  0  0  0  0  0  0
   -2.4293    0.3902   -2.6847 C   0  0  0  0  0  0  0  0  0  0  0  0
   -2.6779    1.0712   -1.4963 C   0  0  0  0  0  0  0  0  0  0  0  0
   -3.7932    2.4495   -1.4831 S   0  0  0  0  0  6  0  0  0  0  0  0
   -4.5135    2.4698   -2.7393 O   0  0  0  0  0  0  0  0  0  0  0  0
   -3.0441    3.6016   -1.0307 O   0  0  0  0  0  0  0  0  0  0  0  0
   -4.9190    2.0308   -0.2741 N   0  0  0  0  0  0  0  0  0  0  0  0
   -5.6835    0.7637   -0.5128 C   0  0  0  0  0  0  0  0  0  0  0  0
   -6.9307    0.7187    0.3749 C   0  0  0  0  0  0  0  0  0  0  0  0
   -7.8618    1.7713    0.0889 O   0  0  0  0  0  0  0  0  0  0  0  0
   -7.2330    2.9635   -0.4049 C   0  0  0  0  0  0  0  0  0  0  0  0
   -5.8162    3.1617    0.1377 C   0  0  0  0  0  0  0  0  0  0  0  0
   -2.0546    0.6933   -0.3008 C   0  0  0  0  0  0  0  0  0  0  0  0
   -1.1654   -0.3852   -0.2800 C   0  0  0  0  0  0  0  0  0  0  0  0
   -0.5178   -0.8078    0.9041 N   0  0  0  0  0  0  0  0  0  0  0  0
   -0.7162   -0.3587    2.1989 C   0  0  0  0  0  0  0  0  0  0  0  0
   -1.5342    0.4817    2.5622 O   0  0  0  0  0  0  0  0  0  0  0  0
    0.1911   -1.0580    3.2218 C   0  0  0  0  0  0  0  0  0  0  0  0
    1.5431   -0.5982    3.2266 O   0  0  0  0  0  0  0  0  0  0  0  0
    2.3356   -1.0897    2.2382 C   0  0  0  0  0  0  0  0  0  0  0  0
    1.9541   -1.8558    1.3585 O   0  0  0  0  0  0  0  0  0  0  0  0
    3.7489   -0.5470    2.3681 C   0  0  0  0  0  0  0  0  0  0  0  0
    4.5455   -0.9109    1.2072 N   0  0  0  0  0  0  0  0  0  0  0  0
    5.8852   -0.5954    1.1594 C   0  0  0  0  0  0  0  0  0  0  0  0
    6.4760   -0.0752    2.0994 O   0  0  0  0  0  0  0  0  0  0  0  0
    6.5936   -0.8756   -0.1210 C   0  0  0  0  0  0  0  0  0  0  0  0
    7.7445   -0.1322   -0.4163 C   0  0  0  0  0  0  0  0  0  0  0  0
    8.4375   -0.3513   -1.6084 C   0  0  0  0  0  0  0  0  0  0  0  0
    7.9890   -1.3186   -2.5073 C   0  0  0  0  0  0  0  0  0  0  0  0
    6.8537   -2.0740   -2.2126 C   0  0  0  0  0  0  0  0  0  0  0  0
    6.1572   -1.8588   -1.0202 C   0  0  0  0  0  0  0  0  0  0  0  0
    0.1144   -2.6610   -2.5636 H   0  0  0  0  0  0  0  0  0  0  0  0
    1.0736   -1.9052   -1.2890 H   0  0  0  0  0  0  0  0  0  0  0  0
   -0.2569   -3.0343   -0.8782 H   0  0  0  0  0  0  0  0  0  0  0  0
   -1.3351   -1.2005   -3.6120 H   0  0  0  0  0  0  0  0  0  0  0  0
   -2.9123    0.6877   -3.6133 H   0  0  0  0  0  0  0  0  0  0  0  0
   -5.9897    0.7014   -1.5631 H   0  0  0  0  0  0  0  0  0  0  0  0
   -5.0426   -0.0921   -0.2776 H   0  0  0  0  0  0  0  0  0  0  0  0
   -6.6581    0.7876    1.4344 H   0  0  0  0  0  0  0  0  0  0  0  0
   -7.4588   -0.2299    0.2319 H   0  0  0  0  0  0  0  0  0  0  0  0
   -7.8680    3.8077   -0.1192 H   0  0  0  0  0  0  0  0  0  0  0  0
   -7.2288    2.9119   -1.4992 H   0  0  0  0  0  0  0  0  0  0  0  0
   -5.4245    4.1276   -0.1963 H   0  0  0  0  0  0  0  0  0  0  0  0
   -5.8278    3.1811    1.2339 H   0  0  0  0  0  0  0  0  0  0  0  0
   -2.2720    1.2728    0.5920 H   0  0  0  0  0  0  0  0  0  0  0  0
    0.2026   -1.5200    0.7957 H   0  0  0  0  0  0  0  0  0  0  0  0
   -0.2193   -0.8616    4.2191 H   0  0  0  0  0  0  0  0  0  0  0  0
    0.1436   -2.1455    3.0831 H   0  0  0  0  0  0  0  0  0  0  0  0
    4.2199   -0.9579    3.2662 H   0  0  0  0  0  0  0  0  0  0  0  0
    3.7176    0.5458    2.4223 H   0  0  0  0  0  0  0  0  0  0  0  0
    4.0504   -1.1485    0.3567 H   0  0  0  0  0  0  0  0  0  0  0  0
    8.1023    0.6232    0.2822 H   0  0  0  0  0  0  0  0  0  0  0  0
    9.3283    0.2309   -1.8339 H   0  0  0  0  0  0  0  0  0  0  0  0
    8.5310   -1.4902   -3.4345 H   0  0  0  0  0  0  0  0  0  0  0  0
    6.5162   -2.8371   -2.9112 H   0  0  0  0  0  0  0  0  0  0  0  0
    5.2956   -2.4829   -0.8018 H   0  0  0  0  0  0  0  0  0  0  0  0
  1  2  1  0
  2  3  2  0
  3  4  1  0
  4  5  2  0
  5  6  1  0
  6  7  2  0
  6  8  2  0
  6  9  1  0
  9 10  1  0
 10 11  1  0
 11 12  1  0
 12 13  1  0
 13 14  1  0
  5 15  1  0
 15 16  2  0
 16 17  1  0
 17 18  1  0
 18 19  2  0
 18 20  1  0
 20 21  1  0
 21 22  1  0
 22 23  2  0
 22 24  1  0
 24 25  1  0
 25 26  1  0
 26 27  2  0
 26 28  1  0
 28 29  2  0
 29 30  1  0
 30 31  2  0
 31 32  1  0
 32 33  2  0
 16  2  1  0
 33 28  1  0
 14  9  1  0
  1 34  1  0
  1 35  1  0
  1 36  1  0
  3 37  1  0
  4 38  1  0
 10 39  1  0
 10 40  1  0
 11 41  1  0
 11 42  1  0
 13 43  1  0
 13 44  1  0
 14 45  1  0
 14 46  1  0
 15 47  1  0
 17 48  1  0
 20 49  1  0
 20 50  1  0
 24 51  1  0
 24 52  1  0
 25 53  1  0
 29 54  1  0
 30 55  1  0
 31 56  1  0
 32 57  1  0
 33 58  1  0
M  END
$$$$
