
     RDKit          3D

 43 45  0  0  0  0  0  0  0  0999 V2000
   -6.8432    1.0414    0.8162 C   0  0  0  0  0  0  0  0  0  0  0  0
   -6.0325    0.4933   -0.2698 N   0  0  0  0  0  0  0  0  0  0  0  0
   -6.7759    0.0348   -1.4422 C   0  0  0  0  0  0  0  0  0  0  0  0
   -4.8081   -0.1137    0.0366 C   0  0  0  0  0  0  0  0  0  0  0  0
   -4.1776    0.0607    1.2825 C   0  0  0  0  0  0  0  0  0  0  0  0
   -2.9423   -0.5297    1.5890 C   0  0  0  0  0  0  0  0  0  0  0  0
   -2.2859   -1.3138    0.6455 C   0  0  0  0  0  0  0  0  0  0  0  0
   -0.9893   -1.9169    0.9540 C   0  0  0  0  0  0  0  0  0  0  0  0
    0.2115   -1.3721    0.6958 C   0  0  0  0  0  0  0  0  0  0  0  0
    0.4431   -0.0850    0.0682 C   0  0  0  0  0  0  0  0  0  0  0  0
    1.6231    0.4923   -0.2100 C   0  0  0  0  0  0  0  0  0  0  0  0
    1.7151    2.0387   -0.9631 S   0  0  0  0  0  0  0  0  0  0  0  0
    3.4719    2.1060   -0.8541 C   0  0  0  0  0  0  0  0  0  0  0  0
    4.2638    3.5333   -1.2321 S   0  0  0  0  0  0  0  0  0  0  0  0
    3.9619    0.9026   -0.3604 N   0  0  0  0  0  0  0  0  0  0  0  0
    5.3565    0.5842   -0.2335 C   0  0  0  0  0  0  0  0  0  0  0  0
    6.2796    0.9136   -1.2380 C   0  0  0  0  0  0  0  0  0  0  0  0
    7.6352    0.5924   -1.1079 C   0  0  0  0  0  0  0  0  0  0  0  0
    8.0905   -0.0734    0.0253 C   0  0  0  0  0  0  0  0  0  0  0  0
    7.1898   -0.4258    1.0246 C   0  0  0  0  0  0  0  0  0  0  0  0
    5.8349   -0.1047    0.8931 C   0  0  0  0  0  0  0  0  0  0  0  0
    3.0002   -0.0305    0.0395 C   0  0  0  0  0  0  0  0  0  0  0  0
    3.2054   -1.1474    0.4999 O   0  0  0  0  0  0  0  0  0  0  0  0
   -2.8722   -1.4942   -0.6036 C   0  0  0  0  0  0  0  0  0  0  0  0
   -4.1079   -0.8986   -0.8980 C   0  0  0  0  0  0  0  0  0  0  0  0
   -7.1139    0.2627    1.5377 H   0  0  0  0  0  0  0  0  0  0  0  0
   -7.7741    1.4775    0.4362 H   0  0  0  0  0  0  0  0  0  0  0  0
   -6.3201    1.8551    1.3299 H   0  0  0  0  0  0  0  0  0  0  0  0
   -6.2124    0.2138   -2.3641 H   0  0  0  0  0  0  0  0  0  0  0  0
   -7.7174    0.5841   -1.5560 H   0  0  0  0  0  0  0  0  0  0  0  0
   -7.0227   -1.0296   -1.3609 H   0  0  0  0  0  0  0  0  0  0  0  0
   -4.6305    0.6705    2.0580 H   0  0  0  0  0  0  0  0  0  0  0  0
   -2.5011   -0.3604    2.5682 H   0  0  0  0  0  0  0  0  0  0  0  0
   -1.0421   -2.8918    1.4341 H   0  0  0  0  0  0  0  0  0  0  0  0
    1.0818   -1.9559    0.9891 H   0  0  0  0  0  0  0  0  0  0  0  0
   -0.4606    0.4645   -0.1988 H   0  0  0  0  0  0  0  0  0  0  0  0
    5.9649    1.3877   -2.1638 H   0  0  0  0  0  0  0  0  0  0  0  0
    8.3322    0.8556   -1.8999 H   0  0  0  0  0  0  0  0  0  0  0  0
    9.1433   -0.3244    0.1257 H   0  0  0  0  0  0  0  0  0  0  0  0
    7.5372   -0.9523    1.9102 H   0  0  0  0  0  0  0  0  0  0  0  0
    5.1671   -0.3861    1.7045 H   0  0  0  0  0  0  0  0  0  0  0  0
   -2.3755   -2.0911   -1.3645 H   0  0  0  0  0  0  0  0  0  0  0  0
   -4.5039   -1.0677   -1.8944 H   0  0  0  0  0  0  0  0  0  0  0  0
  1  2  1  0
  2  3  1  0
  2  4  1  0
  4  5  2  0
  5  6  1  0
  6  7  2  0
  7  8  1  0
  8  9  2  3
  9 10  1  0
 10 11  2  3
 11 12  1  0
 12 13  1  0
 13 14  2  0
 13 15  1  0
 15 16  1  0
 16 17  2  0
 17 18  1  0
 18 19  2  0
 19 20  1  0
 20 21  2  0
 15 22  1  0
 22 23  2  0
  7 24  1  0
 24 25  2  0
 25  4  1  0
 22 11  1  0
 21 16  1  0
  1 26  1  0
  1 27  1  0
  1 28  1  0
  3 29  1  0
  3 30  1  0
  3 31  1  0
  5 32  1  0
  6 33  1  0
  8 34  1  0
  9 35  1  0
 10 36  1  0
 17 37  1  0
 18 38  1  0
 19 39  1  0
 20 40  1  0
 21 41  1  0
 24 42  1  0
 25 43  1  0
M  END
$$$$
