
     RDKit          3D

 29 30  0  0  0  0  0  0  0  0999 V2000
    1.2684    0.6230    1.4096 O   0  0  0  0  0  0  0  0  0  0  0  0
    1.4157    0.0811    0.3143 C   0  0  0  0  0  0  0  0  0  0  0  0
    0.2422   -0.2834   -0.5849 C   0  0  0  0  0  0  0  0  0  0  0  0
   -0.9854    0.0965    0.0393 O   0  0  0  0  0  0  0  0  0  0  0  0
   -2.0899   -0.1930   -0.6967 C   0  0  0  0  0  0  0  0  0  0  0  0
   -2.0665   -0.7284   -1.7945 O   0  0  0  0  0  0  0  0  0  0  0  0
   -3.3276    0.2397    0.0348 C   0  0  0  0  0  0  0  0  0  0  0  0
   -3.2681    0.8462    1.2887 C   0  0  0  0  0  0  0  0  0  0  0  0
   -4.4599    1.2204    1.9059 C   0  0  0  0  0  0  0  0  0  0  0  0
   -5.6673    0.9809    1.2602 C   0  0  0  0  0  0  0  0  0  0  0  0
   -5.6373    0.3735    0.0160 C   0  0  0  0  0  0  0  0  0  0  0  0
   -4.5014   -0.0011   -0.6093 N   0  0  0  0  0  0  0  0  0  0  0  0
    2.7984   -0.2359   -0.1608 C   0  0  0  0  0  0  0  0  0  0  0  0
    3.8804    0.0997    0.6676 C   0  0  0  0  0  0  0  0  0  0  0  0
    5.1920   -0.1748    0.2707 C   0  0  0  0  0  0  0  0  0  0  0  0
    5.4262   -0.7868   -0.9578 C   0  0  0  0  0  0  0  0  0  0  0  0
    7.1978   -1.1601   -1.4990 Br  0  0  0  0  0  0  0  0  0  0  0  0
    4.3617   -1.1261   -1.7913 C   0  0  0  0  0  0  0  0  0  0  0  0
    3.0477   -0.8517   -1.3950 C   0  0  0  0  0  0  0  0  0  0  0  0
    0.2449   -1.3681   -0.7386 H   0  0  0  0  0  0  0  0  0  0  0  0
    0.3460    0.2600   -1.5305 H   0  0  0  0  0  0  0  0  0  0  0  0
   -2.3216    1.0304    1.7876 H   0  0  0  0  0  0  0  0  0  0  0  0
   -4.4441    1.6952    2.8834 H   0  0  0  0  0  0  0  0  0  0  0  0
   -6.6109    1.2610    1.7158 H   0  0  0  0  0  0  0  0  0  0  0  0
   -6.5548    0.1656   -0.5279 H   0  0  0  0  0  0  0  0  0  0  0  0
    3.7078    0.5788    1.6305 H   0  0  0  0  0  0  0  0  0  0  0  0
    6.0171    0.0927    0.9261 H   0  0  0  0  0  0  0  0  0  0  0  0
    4.5434   -1.6043   -2.7513 H   0  0  0  0  0  0  0  0  0  0  0  0
    2.2451   -1.1312   -2.0722 H   0  0  0  0  0  0  0  0  0  0  0  0
  1  2  2  0
  2  3  1  0
  3  4  1  0
  4  5  1  0
  5  6  2  0
  5  7  1  0
  7  8  2  0
  8  9  1  0
  9 10  2  0
 10 11  1  0
 11 12  2  0
  2 13  1  0
 13 14  2  0
 14 15  1  0
 15 16  2  0
 16 17  1  0
 16 18  1  0
 18 19  2  0
 12  7  1  0
 19 13  1  0
  3 20  1  0
  3 21  1  0
  8 22  1  0
  9 23  1  0
 10 24  1  0
 11 25  1  0
 14 26  1  0
 15 27  1  0
 18 28  1  0
 19 29  1  0
M  END
$$$$
