
     RDKit          3D

 47 48  0  0  0  0  0  0  0  0999 V2000
   -3.7623    2.0067    3.6671 C   0  0  0  0  0  0  0  0  0  0  0  0
   -3.6347    0.5453    3.2618 C   0  0  0  0  0  0  0  0  0  0  0  0
   -3.3702    0.4167    1.8197 N   0  0  0  0  0  0  0  0  0  0  0  0
   -4.5655    0.2811    0.9730 C   0  0  0  0  0  0  0  0  0  0  0  0
   -4.9083   -1.1847    0.7470 C   0  0  0  0  0  0  0  0  0  0  0  0
   -2.0808    0.4442    1.2967 C   0  0  0  0  0  0  0  0  0  0  0  0
   -0.9563    0.7110    2.0962 C   0  0  0  0  0  0  0  0  0  0  0  0
    0.3461    0.7336    1.5824 C   0  0  0  0  0  0  0  0  0  0  0  0
    0.5700    0.4916    0.2296 C   0  0  0  0  0  0  0  0  0  0  0  0
    1.9422    0.5031   -0.2831 C   0  0  0  0  0  0  0  0  0  0  0  0
    2.6870   -0.6122   -0.2567 C   0  0  0  0  0  0  0  0  0  0  0  0
    4.0147   -0.6674   -0.8619 C   0  0  0  0  0  0  0  0  0  0  0  0
    5.1460   -0.6579   -0.0418 C   0  0  0  0  0  0  0  0  0  0  0  0
    6.4131   -0.6962   -0.6085 C   0  0  0  0  0  0  0  0  0  0  0  0
    6.5354   -0.7397   -1.9880 C   0  0  0  0  0  0  0  0  0  0  0  0
    5.3906   -0.7523   -2.7740 C   0  0  0  0  0  0  0  0  0  0  0  0
    4.1576   -0.7267   -2.2149 N   0  0  0  0  0  4  0  0  0  0  0  0
    2.9748   -0.7677   -3.1016 C   0  0  0  0  0  0  0  0  0  0  0  0
   -0.5199    0.2283   -0.6121 C   0  0  0  0  0  0  0  0  0  0  0  0
   -0.2194   -0.0069   -1.9355 O   0  0  0  0  0  0  0  0  0  0  0  0
   -1.3200   -0.0857   -2.8374 C   0  0  0  0  0  0  0  0  0  0  0  0
   -1.8162    0.2032   -0.0679 C   0  0  0  0  0  0  0  0  0  0  0  0
   -4.5829    2.4942    3.1290 H   0  0  0  0  0  0  0  0  0  0  0  0
   -2.8484    2.5699    3.4565 H   0  0  0  0  0  0  0  0  0  0  0  0
   -3.9676    2.0835    4.7395 H   0  0  0  0  0  0  0  0  0  0  0  0
   -4.5729    0.0330    3.5110 H   0  0  0  0  0  0  0  0  0  0  0  0
   -2.8727    0.0369    3.8634 H   0  0  0  0  0  0  0  0  0  0  0  0
   -5.4221    0.7655    1.4601 H   0  0  0  0  0  0  0  0  0  0  0  0
   -4.4517    0.8097    0.0201 H   0  0  0  0  0  0  0  0  0  0  0  0
   -5.8067   -1.2712    0.1277 H   0  0  0  0  0  0  0  0  0  0  0  0
   -4.0963   -1.7196    0.2442 H   0  0  0  0  0  0  0  0  0  0  0  0
   -5.1018   -1.6934    1.6973 H   0  0  0  0  0  0  0  0  0  0  0  0
   -1.0605    0.9193    3.1572 H   0  0  0  0  0  0  0  0  0  0  0  0
    1.1722    0.9480    2.2564 H   0  0  0  0  0  0  0  0  0  0  0  0
    2.2717    1.4400   -0.7257 H   0  0  0  0  0  0  0  0  0  0  0  0
    2.3202   -1.5325    0.1950 H   0  0  0  0  0  0  0  0  0  0  0  0
    5.0420   -0.6143    1.0409 H   0  0  0  0  0  0  0  0  0  0  0  0
    7.2985   -0.6873    0.0239 H   0  0  0  0  0  0  0  0  0  0  0  0
    7.5199   -0.7646   -2.4508 H   0  0  0  0  0  0  0  0  0  0  0  0
    5.4548   -0.7849   -3.8580 H   0  0  0  0  0  0  0  0  0  0  0  0
    3.2837   -1.0459   -4.1128 H   0  0  0  0  0  0  0  0  0  0  0  0
    2.5296    0.2296   -3.1165 H   0  0  0  0  0  0  0  0  0  0  0  0
    2.2787   -1.5243   -2.7321 H   0  0  0  0  0  0  0  0  0  0  0  0
   -1.9167   -0.9845   -2.6486 H   0  0  0  0  0  0  0  0  0  0  0  0
   -0.9125   -0.1649   -3.8504 H   0  0  0  0  0  0  0  0  0  0  0  0
   -1.9347    0.8198   -2.7978 H   0  0  0  0  0  0  0  0  0  0  0  0
   -2.6476   -0.0297   -0.7196 H   0  0  0  0  0  0  0  0  0  0  0  0
  1  2  1  0
  2  3  1  0
  3  4  1  0
  4  5  1  0
  3  6  1  0
  6  7  2  0
  7  8  1  0
  8  9  2  0
  9 10  1  0
 10 11  2  3
 11 12  1  0
 12 13  2  0
 13 14  1  0
 14 15  2  0
 15 16  1  0
 16 17  2  0
 17 18  1  0
  9 19  1  0
 19 20  1  0
 20 21  1  0
 19 22  2  0
 22  6  1  0
 17 12  1  0
  1 23  1  0
  1 24  1  0
  1 25  1  0
  2 26  1  0
  2 27  1  0
  4 28  1  0
  4 29  1  0
  5 30  1  0
  5 31  1  0
  5 32  1  0
  7 33  1  0
  8 34  1  0
 10 35  1  0
 11 36  1  0
 13 37  1  0
 14 38  1  0
 15 39  1  0
 16 40  1  0
 18 41  1  0
 18 42  1  0
 18 43  1  0
 21 44  1  0
 21 45  1  0
 21 46  1  0
 22 47  1  0
M  CHG  1  17   1
M  END
$$$$
