
     RDKit          3D

 57 59  0  0  0  0  0  0  0  0999 V2000
    9.9118    0.0885   -3.1258 C   0  0  0  0  0  0  0  0  0  0  0  0
    8.7735   -0.7233   -2.8487 O   0  0  0  0  0  0  0  0  0  0  0  0
    7.7439   -0.1286   -2.1730 C   0  0  0  0  0  0  0  0  0  0  0  0
    7.6931    1.2012   -1.7599 C   0  0  0  0  0  0  0  0  0  0  0  0
    6.5742    1.6746   -1.0654 C   0  0  0  0  0  0  0  0  0  0  0  0
    5.4986    0.8315   -0.7729 C   0  0  0  0  0  0  0  0  0  0  0  0
    4.4776    1.4346   -0.0933 O   0  0  0  0  0  0  0  0  0  0  0  0
    3.4470    0.6138    0.4711 C   0  0  0  0  0  0  0  0  0  0  0  0
    2.2787    0.4900   -0.5069 C   0  0  0  0  0  0  0  0  0  0  0  0
    0.9816   -0.6386    0.0962 S   0  0  0  0  0  0  0  0  0  0  0  0
    0.2381    0.3249    1.3246 C   0  0  0  0  0  0  0  0  0  0  0  0
    0.5226    1.5709    1.6153 N   0  0  0  0  0  0  0  0  0  0  0  0
   -0.2946    1.9564    2.6450 N   0  0  0  0  0  0  0  0  0  0  0  0
   -1.0744    0.9373    2.9580 C   0  0  0  0  0  0  0  0  0  0  0  0
   -2.1438    0.9716    3.9952 C   0  0  0  0  0  0  0  0  0  0  0  0
   -3.3720    1.7458    3.5083 C   0  0  0  0  0  0  0  0  0  0  0  0
   -4.0194    1.1705    2.3384 N   0  0  0  0  0  0  0  0  0  0  0  0
   -4.6780   -0.0388    2.3918 C   0  0  0  0  0  0  0  0  0  0  0  0
   -4.6958   -0.7521    3.3894 O   0  0  0  0  0  0  0  0  0  0  0  0
   -5.3873   -0.4643    1.1542 C   0  0  0  0  0  0  0  0  0  0  0  0
   -4.9645   -0.0710   -0.1215 C   0  0  0  0  0  0  0  0  0  0  0  0
   -5.6513   -0.5182   -1.2586 C   0  0  0  0  0  0  0  0  0  0  0  0
   -6.7574   -1.3614   -1.1294 C   0  0  0  0  0  0  0  0  0  0  0  0
   -7.5095   -1.8635   -2.1529 O   0  0  0  0  0  0  0  0  0  0  0  0
   -7.1304   -1.4982   -3.4732 C   0  0  0  0  0  0  0  0  0  0  0  0
   -7.1683   -1.7594    0.1450 C   0  0  0  0  0  0  0  0  0  0  0  0
   -6.4868   -1.3199    1.2819 C   0  0  0  0  0  0  0  0  0  0  0  0
   -0.7574   -0.1294    2.1481 N   0  0  0  0  0  0  0  0  0  0  0  0
   -1.3604   -1.4387    2.1219 C   0  0  0  0  0  0  0  0  0  0  0  0
    5.5426   -0.4947   -1.1997 C   0  0  0  0  0  0  0  0  0  0  0  0
    6.6622   -0.9686   -1.8937 C   0  0  0  0  0  0  0  0  0  0  0  0
   10.3664    0.4674   -2.2014 H   0  0  0  0  0  0  0  0  0  0  0  0
    9.6561    0.9103   -3.8067 H   0  0  0  0  0  0  0  0  0  0  0  0
   10.6522   -0.5387   -3.6305 H   0  0  0  0  0  0  0  0  0  0  0  0
    8.5020    1.8987   -1.9594 H   0  0  0  0  0  0  0  0  0  0  0  0
    6.5429    2.7133   -0.7428 H   0  0  0  0  0  0  0  0  0  0  0  0
    3.1208    1.1332    1.3808 H   0  0  0  0  0  0  0  0  0  0  0  0
    3.8337   -0.3586    0.8051 H   0  0  0  0  0  0  0  0  0  0  0  0
    2.6344    0.0947   -1.4647 H   0  0  0  0  0  0  0  0  0  0  0  0
    1.8574    1.4766   -0.7357 H   0  0  0  0  0  0  0  0  0  0  0  0
   -2.4172   -0.0312    4.3314 H   0  0  0  0  0  0  0  0  0  0  0  0
   -1.7433    1.4812    4.8799 H   0  0  0  0  0  0  0  0  0  0  0  0
   -4.1168    1.7999    4.3116 H   0  0  0  0  0  0  0  0  0  0  0  0
   -3.0952    2.7727    3.2396 H   0  0  0  0  0  0  0  0  0  0  0  0
   -4.1980    1.7983    1.5645 H   0  0  0  0  0  0  0  0  0  0  0  0
   -4.0891    0.5574   -0.2558 H   0  0  0  0  0  0  0  0  0  0  0  0
   -5.2906   -0.1975   -2.2323 H   0  0  0  0  0  0  0  0  0  0  0  0
   -7.8328   -1.9718   -4.1657 H   0  0  0  0  0  0  0  0  0  0  0  0
   -6.1286   -1.8686   -3.7091 H   0  0  0  0  0  0  0  0  0  0  0  0
   -7.1980   -0.4160   -3.6201 H   0  0  0  0  0  0  0  0  0  0  0  0
   -8.0244   -2.4227    0.2544 H   0  0  0  0  0  0  0  0  0  0  0  0
   -6.8177   -1.6442    2.2658 H   0  0  0  0  0  0  0  0  0  0  0  0
   -0.5730   -2.1911    2.2081 H   0  0  0  0  0  0  0  0  0  0  0  0
   -2.0495   -1.5651    2.9559 H   0  0  0  0  0  0  0  0  0  0  0  0
   -1.9053   -1.5466    1.1797 H   0  0  0  0  0  0  0  0  0  0  0  0
    4.7277   -1.1884   -1.0211 H   0  0  0  0  0  0  0  0  0  0  0  0
    6.6919   -2.0060   -2.2204 H   0  0  0  0  0  0  0  0  0  0  0  0
  1  2  1  0
  2  3  1  0
  3  4  2  0
  4  5  1  0
  5  6  2  0
  6  7  1  0
  7  8  1  0
  8  9  1  0
  9 10  1  0
 10 11  1  0
 11 12  2  0
 12 13  1  0
 13 14  2  0
 14 15  1  0
 15 16  1  0
 16 17  1  0
 17 18  1  0
 18 19  2  0
 18 20  1  0
 20 21  2  0
 21 22  1  0
 22 23  2  0
 23 24  1  0
 24 25  1  0
 23 26  1  0
 26 27  2  0
 14 28  1  0
 28 29  1  0
  6 30  1  0
 30 31  2  0
 31  3  1  0
 28 11  1  0
 27 20  1  0
  1 32  1  0
  1 33  1  0
  1 34  1  0
  4 35  1  0
  5 36  1  0
  8 37  1  0
  8 38  1  0
  9 39  1  0
  9 40  1  0
 15 41  1  0
 15 42  1  0
 16 43  1  0
 16 44  1  0
 17 45  1  0
 21 46  1  0
 22 47  1  0
 25 48  1  0
 25 49  1  0
 25 50  1  0
 26 51  1  0
 27 52  1  0
 29 53  1  0
 29 54  1  0
 29 55  1  0
 30 56  1  0
 31 57  1  0
M  END
$$$$
