
     RDKit          3D

 33 34  0  0  0  0  0  0  0  0999 V2000
   -1.8663    2.1036   -0.7238 N   0  0  0  0  0  0  0  0  0  0  0  0
   -2.1799    0.8456   -0.6421 C   0  0  0  0  0  0  0  0  0  0  0  0
   -1.6477   -0.0997   -1.5037 N   0  0  0  0  0  0  0  0  0  0  0  0
   -0.4361    0.3427   -2.0755 O   0  0  0  0  0  0  0  0  0  0  0  0
    0.6537   -0.1842   -1.4238 C   0  0  0  0  0  0  0  0  0  0  0  0
    0.5717   -1.0873   -0.5982 O   0  0  0  0  0  0  0  0  0  0  0  0
    1.9056    0.5017   -1.9168 C   0  0  0  0  0  0  0  0  0  0  0  0
    3.1603    0.0886   -1.1857 C   0  0  0  0  0  0  0  0  0  0  0  0
    3.4988    0.6904    0.0347 C   0  0  0  0  0  0  0  0  0  0  0  0
    4.6528    0.3036    0.7176 C   0  0  0  0  0  0  0  0  0  0  0  0
    5.4759   -0.6898    0.1910 C   0  0  0  0  0  0  0  0  0  0  0  0
    5.1445   -1.3000   -1.0173 C   0  0  0  0  0  0  0  0  0  0  0  0
    3.9907   -0.9155   -1.7025 C   0  0  0  0  0  0  0  0  0  0  0  0
   -3.1582    0.3672    0.3799 C   0  0  0  0  0  0  0  0  0  0  0  0
   -4.1915   -0.4746   -0.0617 C   0  0  0  0  0  0  0  0  0  0  0  0
   -5.1398   -0.9581    0.8409 C   0  0  0  0  0  0  0  0  0  0  0  0
   -5.0613   -0.6070    2.1869 C   0  0  0  0  0  0  0  0  0  0  0  0
   -4.0347    0.2280    2.6323 C   0  0  0  0  0  0  0  0  0  0  0  0
   -3.0804    0.7179    1.7336 C   0  0  0  0  0  0  0  0  0  0  0  0
   -1.8252    1.7146    2.3754 Cl  0  0  0  0  0  0  0  0  0  0  0  0
   -2.3549    2.6534   -0.0089 H   0  0  0  0  0  0  0  0  0  0  0  0
   -1.5417   -1.0301   -1.0910 H   0  0  0  0  0  0  0  0  0  0  0  0
    2.0160    0.2875   -2.9865 H   0  0  0  0  0  0  0  0  0  0  0  0
    1.7751    1.5855   -1.8097 H   0  0  0  0  0  0  0  0  0  0  0  0
    2.8627    1.4617    0.4646 H   0  0  0  0  0  0  0  0  0  0  0  0
    4.9064    0.7746    1.6637 H   0  0  0  0  0  0  0  0  0  0  0  0
    6.3726   -0.9923    0.7252 H   0  0  0  0  0  0  0  0  0  0  0  0
    5.7832   -2.0795   -1.4242 H   0  0  0  0  0  0  0  0  0  0  0  0
    3.7451   -1.4083   -2.6404 H   0  0  0  0  0  0  0  0  0  0  0  0
   -4.2749   -0.7413   -1.1136 H   0  0  0  0  0  0  0  0  0  0  0  0
   -5.9424   -1.6049    0.4931 H   0  0  0  0  0  0  0  0  0  0  0  0
   -5.7993   -0.9836    2.8918 H   0  0  0  0  0  0  0  0  0  0  0  0
   -3.9809    0.4896    3.6869 H   0  0  0  0  0  0  0  0  0  0  0  0
  1  2  2  3
  2  3  1  0
  3  4  1  0
  4  5  1  0
  5  6  2  0
  5  7  1  0
  7  8  1  0
  8  9  2  0
  9 10  1  0
 10 11  2  0
 11 12  1  0
 12 13  2  0
  2 14  1  0
 14 15  2  0
 15 16  1  0
 16 17  2  0
 17 18  1  0
 18 19  2  0
 19 20  1  0
 13  8  1  0
 19 14  1  0
  1 21  1  0
  3 22  1  0
  7 23  1  0
  7 24  1  0
  9 25  1  0
 10 26  1  0
 11 27  1  0
 12 28  1  0
 13 29  1  0
 15 30  1  0
 16 31  1  0
 17 32  1  0
 18 33  1  0
M  END
$$$$
