
     RDKit          3D

 60 63  0  0  0  0  0  0  0  0999 V2000
    8.6787   -1.6362   -1.4958 C   0  0  0  0  0  0  0  0  0  0  0  0
    7.4122   -1.7062   -2.1372 O   0  0  0  0  0  0  0  0  0  0  0  0
    6.3237   -1.8818   -1.3271 C   0  0  0  0  0  0  0  0  0  0  0  0
    6.3297   -1.8768    0.0672 C   0  0  0  0  0  0  0  0  0  0  0  0
    5.1396   -2.0697    0.7762 C   0  0  0  0  0  0  0  0  0  0  0  0
    3.9295   -2.2798    0.1019 C   0  0  0  0  0  0  0  0  0  0  0  0
    2.6510   -2.4713    0.8764 C   0  0  0  0  0  0  0  0  0  0  0  0
    2.0570   -1.1987    1.2045 N   0  0  0  0  0  0  0  0  0  0  0  0
    2.2338   -0.5881    2.4274 C   0  0  0  0  0  0  0  0  0  0  0  0
    2.8676   -1.1062    3.3455 O   0  0  0  0  0  0  0  0  0  0  0  0
    1.7335    0.8660    2.4956 C   0  0  0  0  0  0  0  0  0  0  0  0
    2.8899    1.8115    2.1796 C   0  0  0  0  0  0  0  0  0  0  0  0
    0.5808    1.0578    1.5946 N   0  0  0  0  0  0  0  0  0  0  0  0
    0.8593    1.3249    0.2399 N   0  0  0  0  0  0  0  0  0  0  0  0
   -0.1004    1.4721   -0.6314 C   0  0  0  0  0  0  0  0  0  0  0  0
    0.2698    1.7821   -2.0548 C   0  0  0  0  0  0  0  0  0  0  0  0
   -1.4695    1.3234   -0.2080 C   0  0  0  0  0  0  0  0  0  0  0  0
   -2.6947    1.4587   -0.8404 C   0  0  0  0  0  0  0  0  0  0  0  0
   -3.0177    1.9685   -2.1980 C   0  0  0  0  0  0  0  0  0  0  0  0
   -3.6466    1.0634    0.1080 N   0  0  0  0  0  0  0  0  0  0  0  0
   -5.0427    0.7916   -0.0328 C   0  0  0  0  0  0  0  0  0  0  0  0
   -5.6318    0.5102   -1.2697 C   0  0  0  0  0  0  0  0  0  0  0  0
   -7.0034    0.2404   -1.3554 C   0  0  0  0  0  0  0  0  0  0  0  0
   -7.8073    0.2445   -0.2116 C   0  0  0  0  0  0  0  0  0  0  0  0
   -9.2680   -0.0808   -0.3050 C   0  0  0  0  0  0  0  0  0  0  0  0
   -7.2132    0.4864    1.0289 C   0  0  0  0  0  0  0  0  0  0  0  0
   -5.8442    0.7536    1.1195 C   0  0  0  0  0  0  0  0  0  0  0  0
   -3.0772    0.9284    1.3362 N   0  0  0  0  0  0  0  0  0  0  0  0
   -1.7628    1.0132    1.1231 C   0  0  0  0  0  0  0  0  0  0  0  0
   -0.7136    0.8460    2.1206 C   0  0  0  0  0  0  0  0  0  0  0  0
   -0.9317    0.5567    3.2932 O   0  0  0  0  0  0  0  0  0  0  0  0
    3.9264   -2.2676   -1.2980 C   0  0  0  0  0  0  0  0  0  0  0  0
    5.1163   -2.0707   -2.0028 C   0  0  0  0  0  0  0  0  0  0  0  0
    8.8828   -2.5458   -0.9216 H   0  0  0  0  0  0  0  0  0  0  0  0
    9.4431   -1.5553   -2.2734 H   0  0  0  0  0  0  0  0  0  0  0  0
    8.7503   -0.7433   -0.8644 H   0  0  0  0  0  0  0  0  0  0  0  0
    7.2391   -1.7205    0.6371 H   0  0  0  0  0  0  0  0  0  0  0  0
    5.1585   -2.0533    1.8657 H   0  0  0  0  0  0  0  0  0  0  0  0
    1.9224   -3.0260    0.2748 H   0  0  0  0  0  0  0  0  0  0  0  0
    2.8357   -3.0574    1.7840 H   0  0  0  0  0  0  0  0  0  0  0  0
    1.7470   -0.5933    0.4503 H   0  0  0  0  0  0  0  0  0  0  0  0
    1.4024    1.0422    3.5253 H   0  0  0  0  0  0  0  0  0  0  0  0
    3.6923    1.6980    2.9170 H   0  0  0  0  0  0  0  0  0  0  0  0
    3.3272    1.6086    1.1959 H   0  0  0  0  0  0  0  0  0  0  0  0
    2.5565    2.8542    2.1946 H   0  0  0  0  0  0  0  0  0  0  0  0
    1.3461    1.6489   -2.2043 H   0  0  0  0  0  0  0  0  0  0  0  0
   -0.2619    1.1152   -2.7393 H   0  0  0  0  0  0  0  0  0  0  0  0
    0.0141    2.8209   -2.2769 H   0  0  0  0  0  0  0  0  0  0  0  0
   -3.0188    1.1556   -2.9296 H   0  0  0  0  0  0  0  0  0  0  0  0
   -2.2804    2.7082   -2.5219 H   0  0  0  0  0  0  0  0  0  0  0  0
   -3.9813    2.4863   -2.2241 H   0  0  0  0  0  0  0  0  0  0  0  0
   -5.0561    0.4376   -2.1842 H   0  0  0  0  0  0  0  0  0  0  0  0
   -7.4402    0.0122   -2.3253 H   0  0  0  0  0  0  0  0  0  0  0  0
   -9.8326    0.4243    0.4863 H   0  0  0  0  0  0  0  0  0  0  0  0
   -9.6805    0.2538   -1.2625 H   0  0  0  0  0  0  0  0  0  0  0  0
   -9.4183   -1.1610   -0.2133 H   0  0  0  0  0  0  0  0  0  0  0  0
   -7.8091    0.4683    1.9383 H   0  0  0  0  0  0  0  0  0  0  0  0
   -5.4179    0.9407    2.1041 H   0  0  0  0  0  0  0  0  0  0  0  0
    3.0014   -2.4159   -1.8501 H   0  0  0  0  0  0  0  0  0  0  0  0
    5.1041   -2.0687   -3.0899 H   0  0  0  0  0  0  0  0  0  0  0  0
  1  2  1  0
  2  3  1  0
  3  4  2  0
  4  5  1  0
  5  6  2  0
  6  7  1  0
  7  8  1  0
  8  9  1  0
  9 10  2  0
  9 11  1  0
 11 12  1  0
 11 13  1  0
 13 14  1  0
 14 15  2  0
 15 16  1  0
 15 17  1  0
 17 18  2  0
 18 19  1  0
 18 20  1  0
 20 21  1  0
 21 22  2  0
 22 23  1  0
 23 24  2  0
 24 25  1  0
 24 26  1  0
 26 27  2  0
 20 28  1  0
 28 29  2  0
 29 30  1  0
 30 31  2  0
  6 32  1  0
 32 33  2  0
 33  3  1  0
 30 13  1  0
 29 17  1  0
 27 21  1  0
  1 34  1  0
  1 35  1  0
  1 36  1  0
  4 37  1  0
  5 38  1  0
  7 39  1  0
  7 40  1  0
  8 41  1  0
 11 42  1  0
 12 43  1  0
 12 44  1  0
 12 45  1  0
 16 46  1  0
 16 47  1  0
 16 48  1  0
 19 49  1  0
 19 50  1  0
 19 51  1  0
 22 52  1  0
 23 53  1  0
 25 54  1  0
 25 55  1  0
 25 56  1  0
 26 57  1  0
 27 58  1  0
 32 59  1  0
 33 60  1  0
M  END
$$$$
