
     RDKit          3D

 63 66  0  0  0  0  0  0  0  0999 V2000
    4.8077    2.2280    3.3054 C   0  0  0  0  0  0  0  0  0  0  0  0
    3.9456    1.5816    2.2587 C   0  0  0  0  0  0  0  0  0  0  0  0
    2.9660    0.8160    2.6512 N   0  0  0  0  0  0  0  0  0  0  0  0
    2.1403    0.1684    1.7271 N   0  0  0  0  0  0  0  0  0  0  0  0
    1.0729   -0.6504    2.2963 C   0  0  0  0  0  0  0  0  0  0  0  0
   -0.2513    0.1003    2.3241 C   0  0  0  0  0  0  0  0  0  0  0  0
   -1.3368   -0.7325    2.9647 C   0  0  0  0  0  0  0  0  0  0  0  0
   -1.1208   -1.7770    3.5687 O   0  0  0  0  0  0  0  0  0  0  0  0
   -2.5892   -0.1712    2.8316 N   0  0  0  0  0  0  0  0  0  0  0  0
   -3.7777   -0.8632    3.2761 C   0  0  0  0  0  0  0  0  0  0  0  0
   -4.4214   -1.6112    2.1380 C   0  0  0  0  0  0  0  0  0  0  0  0
   -5.4406   -1.0254    1.3759 C   0  0  0  0  0  0  0  0  0  0  0  0
   -6.0219   -1.7177    0.3059 C   0  0  0  0  0  0  0  0  0  0  0  0
   -5.5911   -3.0035   -0.0167 C   0  0  0  0  0  0  0  0  0  0  0  0
   -6.0638   -3.7902   -1.0280 O   0  0  0  0  0  0  0  0  0  0  0  0
   -7.2263   -3.3786   -1.7522 C   0  0  0  0  0  0  0  0  0  0  0  0
   -7.9279   -4.6543   -2.2148 C   0  0  0  0  0  0  0  0  0  0  0  0
   -6.8136   -2.5423   -2.9598 C   0  0  0  0  0  0  0  0  0  0  0  0
   -4.5619   -3.5816    0.7300 C   0  0  0  0  0  0  0  0  0  0  0  0
   -3.9784   -2.8943    1.7961 C   0  0  0  0  0  0  0  0  0  0  0  0
    2.2321    0.2976    0.3255 C   0  0  0  0  0  0  0  0  0  0  0  0
    1.4590   -0.2493   -0.4584 O   0  0  0  0  0  0  0  0  0  0  0  0
    3.3287    1.1636   -0.0870 C   0  0  0  0  0  0  0  0  0  0  0  0
    3.6448    1.4977   -1.3394 N   0  0  0  0  0  0  0  0  0  0  0  0
    4.7769    2.2450   -1.2321 N   0  0  0  0  0  0  0  0  0  0  0  0
    5.4903    2.5777   -2.4254 C   0  0  0  0  0  0  0  0  0  0  0  0
    4.8342    2.4521   -3.6628 C   0  0  0  0  0  0  0  0  0  0  0  0
    5.4948    2.7597   -4.8541 C   0  0  0  0  0  0  0  0  0  0  0  0
    6.8216    3.1799   -4.8258 C   0  0  0  0  0  0  0  0  0  0  0  0
    7.4895    3.2844   -3.6082 C   0  0  0  0  0  0  0  0  0  0  0  0
    6.8316    2.9787   -2.4115 C   0  0  0  0  0  0  0  0  0  0  0  0
    5.0400    2.5628    0.1068 C   0  0  0  0  0  0  0  0  0  0  0  0
    6.0245    3.5820    0.5541 C   0  0  0  0  0  0  0  0  0  0  0  0
    4.1620    1.7881    0.8473 C   0  0  0  0  0  0  0  0  0  0  0  0
    5.8646    2.0770    3.0708 H   0  0  0  0  0  0  0  0  0  0  0  0
    4.5872    3.2978    3.3494 H   0  0  0  0  0  0  0  0  0  0  0  0
    4.6037    1.7924    4.2886 H   0  0  0  0  0  0  0  0  0  0  0  0
    0.9760   -1.5638    1.6966 H   0  0  0  0  0  0  0  0  0  0  0  0
    1.3737   -0.9582    3.3053 H   0  0  0  0  0  0  0  0  0  0  0  0
   -0.1486    1.0292    2.8971 H   0  0  0  0  0  0  0  0  0  0  0  0
   -0.5599    0.3665    1.3070 H   0  0  0  0  0  0  0  0  0  0  0  0
   -2.7135    0.5610    2.1456 H   0  0  0  0  0  0  0  0  0  0  0  0
   -4.4654   -0.1068    3.6703 H   0  0  0  0  0  0  0  0  0  0  0  0
   -3.5433   -1.5474    4.0993 H   0  0  0  0  0  0  0  0  0  0  0  0
   -5.7915   -0.0219    1.6071 H   0  0  0  0  0  0  0  0  0  0  0  0
   -6.7997   -1.2157   -0.2586 H   0  0  0  0  0  0  0  0  0  0  0  0
   -7.9329   -2.8328   -1.1167 H   0  0  0  0  0  0  0  0  0  0  0  0
   -8.2096   -5.2665   -1.3510 H   0  0  0  0  0  0  0  0  0  0  0  0
   -7.2635   -5.2688   -2.8320 H   0  0  0  0  0  0  0  0  0  0  0  0
   -8.8314   -4.4265   -2.7890 H   0  0  0  0  0  0  0  0  0  0  0  0
   -6.3016   -1.6255   -2.6504 H   0  0  0  0  0  0  0  0  0  0  0  0
   -7.6831   -2.2634   -3.5626 H   0  0  0  0  0  0  0  0  0  0  0  0
   -6.1096   -3.0934   -3.5938 H   0  0  0  0  0  0  0  0  0  0  0  0
   -4.2088   -4.5789    0.4783 H   0  0  0  0  0  0  0  0  0  0  0  0
   -3.1703   -3.3638    2.3559 H   0  0  0  0  0  0  0  0  0  0  0  0
    3.7966    2.1234   -3.7149 H   0  0  0  0  0  0  0  0  0  0  0  0
    4.9712    2.6662   -5.8022 H   0  0  0  0  0  0  0  0  0  0  0  0
    7.3369    3.4133   -5.7537 H   0  0  0  0  0  0  0  0  0  0  0  0
    8.5337    3.5889   -3.5907 H   0  0  0  0  0  0  0  0  0  0  0  0
    7.4175    3.0173   -1.5012 H   0  0  0  0  0  0  0  0  0  0  0  0
    6.1302    4.3953   -0.1699 H   0  0  0  0  0  0  0  0  0  0  0  0
    5.7005    4.0593    1.4824 H   0  0  0  0  0  0  0  0  0  0  0  0
    7.0013    3.1247    0.7366 H   0  0  0  0  0  0  0  0  0  0  0  0
  1  2  1  0
  2  3  2  0
  3  4  1  0
  4  5  1  0
  5  6  1  0
  6  7  1  0
  7  8  2  0
  7  9  1  0
  9 10  1  0
 10 11  1  0
 11 12  2  0
 12 13  1  0
 13 14  2  0
 14 15  1  0
 15 16  1  0
 16 17  1  0
 16 18  1  0
 14 19  1  0
 19 20  2  0
  4 21  1  0
 21 22  2  0
 21 23  1  0
 23 24  2  0
 24 25  1  0
 25 26  1  0
 26 27  2  0
 27 28  1  0
 28 29  2  0
 29 30  1  0
 30 31  2  0
 25 32  1  0
 32 33  1  0
 32 34  2  0
 34  2  1  0
 20 11  1  0
 34 23  1  0
 31 26  1  0
  1 35  1  0
  1 36  1  0
  1 37  1  0
  5 38  1  0
  5 39  1  0
  6 40  1  0
  6 41  1  0
  9 42  1  0
 10 43  1  0
 10 44  1  0
 12 45  1  0
 13 46  1  0
 16 47  1  0
 17 48  1  0
 17 49  1  0
 17 50  1  0
 18 51  1  0
 18 52  1  0
 18 53  1  0
 19 54  1  0
 20 55  1  0
 27 56  1  0
 28 57  1  0
 29 58  1  0
 30 59  1  0
 31 60  1  0
 33 61  1  0
 33 62  1  0
 33 63  1  0
M  END
$$$$
