
     RDKit          3D

 36 37  0  0  0  0  0  0  0  0999 V2000
    4.9120   -0.7943    0.8648 C   0  0  0  0  0  0  0  0  0  0  0  0
    4.7016    0.4425    0.0941 N   0  0  0  0  0  0  0  0  0  0  0  0
    4.3608    1.6026    0.9337 C   0  0  0  0  0  0  0  0  0  0  0  0
    3.8908    0.2994   -1.3944 S   0  0  0  0  0  6  0  0  0  0  0  0
    3.8603    1.6038   -2.0218 O   0  0  0  0  0  0  0  0  0  0  0  0
    4.4169   -0.8545   -2.0921 O   0  0  0  0  0  0  0  0  0  0  0  0
    2.2195   -0.0917   -0.9074 C   0  0  0  0  0  0  0  0  0  0  0  0
    1.8376   -1.4278   -0.7568 C   0  0  0  0  0  0  0  0  0  0  0  0
    0.5212   -1.7315   -0.4008 C   0  0  0  0  0  0  0  0  0  0  0  0
   -0.4193   -0.7067   -0.2125 C   0  0  0  0  0  0  0  0  0  0  0  0
   -1.8059   -1.0913    0.1690 C   0  0  0  0  0  0  0  0  0  0  0  0
   -2.1462   -2.2395    0.4024 O   0  0  0  0  0  0  0  0  0  0  0  0
   -2.6070    0.0014    0.2401 O   0  0  0  0  0  0  0  0  0  0  0  0
   -3.9766   -0.2984    0.4631 C   0  0  0  0  0  0  0  0  0  0  0  0
   -4.7073    0.9369    0.9359 C   0  0  0  0  0  0  0  0  0  0  0  0
   -6.1315    0.6087    0.5698 C   0  0  0  0  0  0  0  0  0  0  0  0
   -6.0471   -0.1264   -0.6521 O   0  0  0  0  0  0  0  0  0  0  0  0
   -4.7761   -0.6239   -0.7882 C   0  0  0  0  0  0  0  0  0  0  0  0
   -4.3796   -1.2146   -1.7791 O   0  0  0  0  0  0  0  0  0  0  0  0
   -0.0306    0.6295   -0.3925 C   0  0  0  0  0  0  0  0  0  0  0  0
    1.2866    0.9378   -0.7459 C   0  0  0  0  0  0  0  0  0  0  0  0
    3.9975   -1.0952    1.3833 H   0  0  0  0  0  0  0  0  0  0  0  0
    5.2528   -1.6103    0.2220 H   0  0  0  0  0  0  0  0  0  0  0  0
    5.6959   -0.6320    1.6120 H   0  0  0  0  0  0  0  0  0  0  0  0
    5.1392    1.7508    1.6894 H   0  0  0  0  0  0  0  0  0  0  0  0
    3.4066    1.4507    1.4457 H   0  0  0  0  0  0  0  0  0  0  0  0
    4.3157    2.5211    0.3423 H   0  0  0  0  0  0  0  0  0  0  0  0
    2.5503   -2.2335   -0.9221 H   0  0  0  0  0  0  0  0  0  0  0  0
    0.2261   -2.7737   -0.2839 H   0  0  0  0  0  0  0  0  0  0  0  0
   -4.1102   -1.1084    1.1918 H   0  0  0  0  0  0  0  0  0  0  0  0
   -4.3591    1.8216    0.3878 H   0  0  0  0  0  0  0  0  0  0  0  0
   -4.5724    1.1383    2.0024 H   0  0  0  0  0  0  0  0  0  0  0  0
   -6.7311    1.5104    0.4160 H   0  0  0  0  0  0  0  0  0  0  0  0
   -6.6208   -0.0193    1.3219 H   0  0  0  0  0  0  0  0  0  0  0  0
   -0.7440    1.4414   -0.2715 H   0  0  0  0  0  0  0  0  0  0  0  0
    1.5733    1.9762   -0.9019 H   0  0  0  0  0  0  0  0  0  0  0  0
  1  2  1  0
  2  3  1  0
  2  4  1  0
  4  5  2  0
  4  6  2  0
  4  7  1  0
  7  8  2  0
  8  9  1  0
  9 10  2  0
 10 11  1  0
 11 12  2  0
 11 13  1  0
 13 14  1  0
 14 15  1  0
 15 16  1  0
 16 17  1  0
 17 18  1  0
 18 19  2  0
 10 20  1  0
 20 21  2  0
 21  7  1  0
 18 14  1  0
  1 22  1  0
  1 23  1  0
  1 24  1  0
  3 25  1  0
  3 26  1  0
  3 27  1  0
  8 28  1  0
  9 29  1  0
 14 30  1  0
 15 31  1  0
 15 32  1  0
 16 33  1  0
 16 34  1  0
 20 35  1  0
 21 36  1  0
M  END
$$$$
