
     RDKit          3D

 51 55  0  0  0  0  0  0  0  0999 V2000
    5.2860    0.0880   -3.4882 C   0  0  0  0  0  0  0  0  0  0  0  0
    4.0888   -0.8417   -3.3936 C   0  0  0  0  0  0  0  0  0  0  0  0
    3.8664   -1.2468   -2.0441 O   0  0  0  0  0  0  0  0  0  0  0  0
    3.0616   -0.4845   -1.2458 C   0  0  0  0  0  0  0  0  0  0  0  0
    2.8265   -1.0298    0.0217 C   0  0  0  0  0  0  0  0  0  0  0  0
    2.0245   -0.3648    0.9506 C   0  0  0  0  0  0  0  0  0  0  0  0
    1.4418    0.8533    0.5986 C   0  0  0  0  0  0  0  0  0  0  0  0
    0.4125    1.7178    1.7675 S   0  0  0  0  0  6  0  0  0  0  0  0
    0.7519    1.2197    3.0860 O   0  0  0  0  0  0  0  0  0  0  0  0
    0.5398    3.1317    1.4813 O   0  0  0  0  0  0  0  0  0  0  0  0
   -1.1378    1.1789    1.3360 N   0  0  0  0  0  0  0  0  0  0  0  0
   -2.2295    2.0819    1.4483 C   0  0  0  0  0  0  0  0  0  0  0  0
   -3.1130    1.9551    2.2903 O   0  0  0  0  0  0  0  0  0  0  0  0
   -2.2679    3.0963    0.4113 C   0  0  0  0  0  0  0  0  0  0  0  0
   -3.0629    4.2213    0.2811 C   0  0  0  0  0  0  0  0  0  0  0  0
   -2.7014    4.8412   -0.9385 C   0  0  0  0  0  0  0  0  0  0  0  0
   -1.7199    4.0540   -1.4906 C   0  0  0  0  0  0  0  0  0  0  0  0
   -1.4568    2.9889   -0.6913 O   0  0  0  0  0  0  0  0  0  0  0  0
   -1.4557   -0.1963    1.6535 C   0  0  0  0  0  0  0  0  0  0  0  0
   -1.6320   -0.5876    2.9899 C   0  0  0  0  0  0  0  0  0  0  0  0
   -1.9346   -1.9062    3.2665 C   0  0  0  0  0  0  0  0  0  0  0  0
   -2.1921   -2.6440    4.8350 S   0  0  0  0  0  0  0  0  0  0  0  0
   -2.4727   -4.1824    4.0151 C   0  0  0  0  0  0  0  0  0  0  0  0
   -2.7311   -5.2073    4.6314 O   0  0  0  0  0  0  0  0  0  0  0  0
   -2.3781   -4.1485    2.6266 O   0  0  0  0  0  0  0  0  0  0  0  0
   -2.0727   -2.8363    2.2438 C   0  0  0  0  0  0  0  0  0  0  0  0
   -1.9214   -2.4846    0.8959 C   0  0  0  0  0  0  0  0  0  0  0  0
   -2.0661   -3.4262   -0.1429 C   0  0  0  0  0  0  0  0  0  0  0  0
   -1.9158   -3.0532   -1.4768 C   0  0  0  0  0  0  0  0  0  0  0  0
   -1.6231   -1.7343   -1.7946 C   0  0  0  0  0  0  0  0  0  0  0  0
   -1.4775   -0.7880   -0.7782 C   0  0  0  0  0  0  0  0  0  0  0  0
   -1.6146   -1.1338    0.5864 C   0  0  0  0  0  0  0  0  0  0  0  0
    1.6887    1.4225   -0.6533 C   0  0  0  0  0  0  0  0  0  0  0  0
    2.4961    0.7485   -1.5755 C   0  0  0  0  0  0  0  0  0  0  0  0
    6.1727   -0.3843   -3.0523 H   0  0  0  0  0  0  0  0  0  0  0  0
    5.1176    1.0163   -2.9344 H   0  0  0  0  0  0  0  0  0  0  0  0
    5.4988    0.3389   -4.5313 H   0  0  0  0  0  0  0  0  0  0  0  0
    4.3158   -1.7543   -3.9565 H   0  0  0  0  0  0  0  0  0  0  0  0
    3.1918   -0.4188   -3.8591 H   0  0  0  0  0  0  0  0  0  0  0  0
    3.2776   -1.9839    0.2867 H   0  0  0  0  0  0  0  0  0  0  0  0
    1.8620   -0.8045    1.9317 H   0  0  0  0  0  0  0  0  0  0  0  0
   -3.8093    4.5491    0.9929 H   0  0  0  0  0  0  0  0  0  0  0  0
   -3.1067    5.7491   -1.3635 H   0  0  0  0  0  0  0  0  0  0  0  0
   -1.1393    4.1123   -2.4009 H   0  0  0  0  0  0  0  0  0  0  0  0
   -1.5369    0.1307    3.8007 H   0  0  0  0  0  0  0  0  0  0  0  0
   -2.2991   -4.4659    0.0825 H   0  0  0  0  0  0  0  0  0  0  0  0
   -2.0293   -3.7932   -2.2652 H   0  0  0  0  0  0  0  0  0  0  0  0
   -1.5058   -1.4373   -2.8339 H   0  0  0  0  0  0  0  0  0  0  0  0
   -1.2499    0.2345   -1.0725 H   0  0  0  0  0  0  0  0  0  0  0  0
    1.2603    2.3868   -0.9188 H   0  0  0  0  0  0  0  0  0  0  0  0
    2.6719    1.2219   -2.5355 H   0  0  0  0  0  0  0  0  0  0  0  0
  1  2  1  0
  2  3  1  0
  3  4  1  0
  4  5  2  0
  5  6  1  0
  6  7  2  0
  7  8  1  0
  8  9  2  0
  8 10  2  0
  8 11  1  0
 11 12  1  0
 12 13  2  0
 12 14  1  0
 14 15  2  0
 15 16  1  0
 16 17  2  0
 17 18  1  0
 11 19  1  0
 19 20  2  0
 20 21  1  0
 21 22  1  0
 22 23  1  0
 23 24  2  0
 23 25  1  0
 25 26  1  0
 26 27  1  0
 27 28  2  0
 28 29  1  0
 29 30  2  0
 30 31  1  0
 31 32  2  0
  7 33  1  0
 33 34  2  0
 34  4  1  0
 18 14  1  0
 32 19  1  0
 26 21  2  0
 32 27  1  0
  1 35  1  0
  1 36  1  0
  1 37  1  0
  2 38  1  0
  2 39  1  0
  5 40  1  0
  6 41  1  0
 15 42  1  0
 16 43  1  0
 17 44  1  0
 20 45  1  0
 28 46  1  0
 29 47  1  0
 30 48  1  0
 31 49  1  0
 33 50  1  0
 34 51  1  0
M  END
$$$$
