
     RDKit          3D

 40 44  0  0  0  0  0  0  0  0999 V2000
   -5.2203    2.8327    2.4510 O   0  0  0  0  0  0  0  0  0  0  0  0
   -5.2609    1.6172    2.4456 C   0  0  0  0  0  0  0  0  0  0  0  0
   -5.9296    0.9191    3.3772 O   0  0  0  0  0  0  0  0  0  0  0  0
   -4.5102    0.7395    1.5336 C   0  0  0  0  0  0  0  0  0  0  0  0
   -3.1543    1.0321    1.3479 C   0  0  0  0  0  0  0  0  0  0  0  0
   -2.3749    0.2377    0.5021 C   0  0  0  0  0  0  0  0  0  0  0  0
   -2.9339   -0.8524   -0.1812 C   0  0  0  0  0  0  0  0  0  0  0  0
   -2.1218   -1.6874   -1.0617 C   0  0  0  0  0  0  0  0  0  0  0  0
   -2.3023   -2.9032   -1.6823 C   0  0  0  0  0  0  0  0  0  0  0  0
   -1.1135   -3.1602   -2.4077 C   0  0  0  0  0  0  0  0  0  0  0  0
   -0.2437   -2.0974   -2.1959 C   0  0  0  0  0  0  0  0  0  0  0  0
    1.0511   -1.9037   -2.7444 C   0  0  0  0  0  0  0  0  0  0  0  0
    2.0238   -1.1539   -2.2042 C   0  0  0  0  0  0  0  0  0  0  0  0
    3.5548   -0.9553   -3.0669 S   0  0  0  0  0  0  0  0  0  0  0  0
    4.1271    0.0841   -1.8271 C   0  0  0  0  0  0  0  0  0  0  0  0
    5.2442    0.7364   -1.6667 N   0  0  0  0  0  0  0  0  0  0  0  0
    5.0728    1.3652   -0.4492 C   0  0  0  0  0  0  0  0  0  0  0  0
    5.9508    2.2106    0.2452 C   0  0  0  0  0  0  0  0  0  0  0  0
    5.5493    2.7320    1.4818 C   0  0  0  0  0  0  0  0  0  0  0  0
    4.2987    2.4198    2.0205 C   0  0  0  0  0  0  0  0  0  0  0  0
    3.4052    1.5793    1.3476 C   0  0  0  0  0  0  0  0  0  0  0  0
    3.8251    1.0702    0.1143 C   0  0  0  0  0  0  0  0  0  0  0  0
    3.2445    0.2420   -0.8135 N   0  0  0  0  0  0  0  0  0  0  0  0
    2.0357   -0.4176   -0.8956 C   0  0  0  0  0  0  0  0  0  0  0  0
    1.2277   -0.3615    0.0098 O   0  0  0  0  0  0  0  0  0  0  0  0
   -0.8933   -1.1980   -1.3899 O   0  0  0  0  0  0  0  0  0  0  0  0
   -4.2992   -1.1223   -0.0007 C   0  0  0  0  0  0  0  0  0  0  0  0
   -5.0887   -0.3298    0.8452 C   0  0  0  0  0  0  0  0  0  0  0  0
   -6.7748   -0.7023    0.9291 Cl  0  0  0  0  0  0  0  0  0  0  0  0
   -6.3562    1.6004    3.9372 H   0  0  0  0  0  0  0  0  0  0  0  0
   -2.6964    1.8732    1.8655 H   0  0  0  0  0  0  0  0  0  0  0  0
   -1.3174    0.4748    0.3873 H   0  0  0  0  0  0  0  0  0  0  0  0
   -3.1768   -3.5351   -1.6204 H   0  0  0  0  0  0  0  0  0  0  0  0
   -0.9064   -4.0303   -3.0162 H   0  0  0  0  0  0  0  0  0  0  0  0
    1.2397   -2.4099   -3.6891 H   0  0  0  0  0  0  0  0  0  0  0  0
    6.9218    2.4511   -0.1745 H   0  0  0  0  0  0  0  0  0  0  0  0
    6.2227    3.3884    2.0288 H   0  0  0  0  0  0  0  0  0  0  0  0
    4.0122    2.8383    2.9838 H   0  0  0  0  0  0  0  0  0  0  0  0
    2.4331    1.3366    1.7671 H   0  0  0  0  0  0  0  0  0  0  0  0
   -4.7654   -1.9481   -0.5335 H   0  0  0  0  0  0  0  0  0  0  0  0
  1  2  2  0
  2  3  1  0
  2  4  1  0
  4  5  2  0
  5  6  1  0
  6  7  2  0
  7  8  1  0
  8  9  2  0
  9 10  1  0
 10 11  2  0
 11 12  1  0
 12 13  2  3
 13 14  1  0
 14 15  1  0
 15 16  2  0
 16 17  1  0
 17 18  2  0
 18 19  1  0
 19 20  2  0
 20 21  1  0
 21 22  2  0
 22 23  1  0
 23 24  1  0
 24 25  2  0
 11 26  1  0
  7 27  1  0
 27 28  2  0
 28 29  1  0
 28  4  1  0
 26  8  1  0
 24 13  1  0
 23 15  1  0
 22 17  1  0
  3 30  1  0
  5 31  1  0
  6 32  1  0
  9 33  1  0
 10 34  1  0
 12 35  1  0
 18 36  1  0
 19 37  1  0
 20 38  1  0
 21 39  1  0
 27 40  1  0
M  END
$$$$
