
     RDKit          3D

 47 49  0  0  0  0  0  0  0  0999 V2000
   -2.4155   -3.2888    0.7924 O   0  0  0  0  0  0  0  0  0  0  0  0
   -2.8417   -2.1727    0.5080 C   0  0  0  0  0  0  0  0  0  0  0  0
   -4.3296   -1.8495    0.6728 C   0  0  0  0  0  0  0  0  0  0  0  0
   -4.6515   -0.5771    0.1074 O   0  0  0  0  0  0  0  0  0  0  0  0
   -5.9922   -0.3365   -0.0304 C   0  0  0  0  0  0  0  0  0  0  0  0
   -6.9725   -0.7783    0.8619 C   0  0  0  0  0  0  0  0  0  0  0  0
   -8.3160   -0.4620    0.6370 C   0  0  0  0  0  0  0  0  0  0  0  0
   -8.6731    0.3007   -0.4754 C   0  0  0  0  0  0  0  0  0  0  0  0
  -10.4899    0.7249   -0.7769 Br  0  0  0  0  0  0  0  0  0  0  0  0
   -7.6985    0.7572   -1.3601 C   0  0  0  0  0  0  0  0  0  0  0  0
   -6.3570    0.4459   -1.1312 C   0  0  0  0  0  0  0  0  0  0  0  0
   -2.0957   -1.0908    0.0744 N   0  0  0  0  0  0  0  0  0  0  0  0
   -0.7119   -1.0367   -0.1708 C   0  0  0  0  0  0  0  0  0  0  0  0
   -0.1646    0.2144   -0.4890 C   0  0  0  0  0  0  0  0  0  0  0  0
    1.2055    0.3534   -0.7374 C   0  0  0  0  0  0  0  0  0  0  0  0
    2.0390   -0.7682   -0.6803 C   0  0  0  0  0  0  0  0  0  0  0  0
    3.4999   -0.6694   -0.9441 C   0  0  0  0  0  0  0  0  0  0  0  0
    4.0345   -1.5640   -1.5882 O   0  0  0  0  0  0  0  0  0  0  0  0
    4.1116    0.4280   -0.3698 N   0  0  0  0  0  0  0  0  0  0  0  0
    5.4770    0.8025   -0.4252 C   0  0  0  0  0  0  0  0  0  0  0  0
    6.3871    0.1412   -1.2633 C   0  0  0  0  0  0  0  0  0  0  0  0
    7.7353    0.5110   -1.3059 C   0  0  0  0  0  0  0  0  0  0  0  0
    8.2003    1.5514   -0.5115 C   0  0  0  0  0  0  0  0  0  0  0  0
    7.3132    2.2286    0.3236 C   0  0  0  0  0  0  0  0  0  0  0  0
    5.9517    1.8698    0.3729 C   0  0  0  0  0  0  0  0  0  0  0  0
    5.1167    2.6705    1.3132 C   0  0  0  0  0  0  0  0  0  0  0  0
    5.5321    3.5222    2.0802 O   0  0  0  0  0  0  0  0  0  0  0  0
    3.7956    2.4000    1.2661 O   0  0  0  0  0  0  0  0  0  0  0  0
    1.4947   -2.0221   -0.3890 C   0  0  0  0  0  0  0  0  0  0  0  0
    0.1273   -2.1519   -0.1253 C   0  0  0  0  0  0  0  0  0  0  0  0
   -4.5334   -1.8484    1.7492 H   0  0  0  0  0  0  0  0  0  0  0  0
   -4.8918   -2.6465    0.1695 H   0  0  0  0  0  0  0  0  0  0  0  0
   -6.7214   -1.3523    1.7491 H   0  0  0  0  0  0  0  0  0  0  0  0
   -9.0721   -0.8062    1.3401 H   0  0  0  0  0  0  0  0  0  0  0  0
   -7.9704    1.3547   -2.2273 H   0  0  0  0  0  0  0  0  0  0  0  0
   -5.5975    0.8028   -1.8206 H   0  0  0  0  0  0  0  0  0  0  0  0
   -2.6289   -0.2367   -0.0622 H   0  0  0  0  0  0  0  0  0  0  0  0
   -0.7965    1.0980   -0.5455 H   0  0  0  0  0  0  0  0  0  0  0  0
    1.6029    1.3315   -0.9976 H   0  0  0  0  0  0  0  0  0  0  0  0
    3.5468    1.0012    0.2563 H   0  0  0  0  0  0  0  0  0  0  0  0
    6.0756   -0.6740   -1.9104 H   0  0  0  0  0  0  0  0  0  0  0  0
    8.4191   -0.0230   -1.9632 H   0  0  0  0  0  0  0  0  0  0  0  0
    9.2496    1.8354   -0.5404 H   0  0  0  0  0  0  0  0  0  0  0  0
    7.6909    3.0416    0.9432 H   0  0  0  0  0  0  0  0  0  0  0  0
    3.4327    3.0170    1.9418 H   0  0  0  0  0  0  0  0  0  0  0  0
    2.1331   -2.9039   -0.3625 H   0  0  0  0  0  0  0  0  0  0  0  0
   -0.2506   -3.1449    0.0978 H   0  0  0  0  0  0  0  0  0  0  0  0
  1  2  2  0
  2  3  1  0
  3  4  1  0
  4  5  1  0
  5  6  2  0
  6  7  1  0
  7  8  2  0
  8  9  1  0
  8 10  1  0
 10 11  2  0
  2 12  1  0
 12 13  1  0
 13 14  2  0
 14 15  1  0
 15 16  2  0
 16 17  1  0
 17 18  2  0
 17 19  1  0
 19 20  1  0
 20 21  2  0
 21 22  1  0
 22 23  2  0
 23 24  1  0
 24 25  2  0
 25 26  1  0
 26 27  2  0
 26 28  1  0
 16 29  1  0
 29 30  2  0
 11  5  1  0
 30 13  1  0
 25 20  1  0
  3 31  1  0
  3 32  1  0
  6 33  1  0
  7 34  1  0
 10 35  1  0
 11 36  1  0
 12 37  1  0
 14 38  1  0
 15 39  1  0
 19 40  1  0
 21 41  1  0
 22 42  1  0
 23 43  1  0
 24 44  1  0
 28 45  1  0
 29 46  1  0
 30 47  1  0
M  END
$$$$
