
     RDKit          3D

 59 64  0  0  0  0  0  0  0  0999 V2000
   -4.8446   -0.5931   -3.1216 C   0  0  0  0  0  0  0  0  0  0  0  0
   -5.5654    0.0361   -1.9852 C   0  0  0  0  0  0  0  0  0  0  0  0
   -6.7486    0.6108   -2.0612 N   0  0  0  0  0  0  0  0  0  0  0  0
   -7.0358    1.0513   -0.7938 C   0  0  0  0  0  0  0  0  0  0  0  0
   -8.1693    1.7293   -0.3204 C   0  0  0  0  0  0  0  0  0  0  0  0
   -8.2305    2.0786    1.0341 C   0  0  0  0  0  0  0  0  0  0  0  0
   -7.1825    1.7609    1.8997 C   0  0  0  0  0  0  0  0  0  0  0  0
   -6.0428    1.0863    1.4452 C   0  0  0  0  0  0  0  0  0  0  0  0
   -6.0039    0.7433    0.0871 C   0  0  0  0  0  0  0  0  0  0  0  0
   -5.0766    0.0958   -0.6977 N   0  0  0  0  0  0  0  0  0  0  0  0
   -3.8047   -0.4274   -0.2352 C   0  0  0  0  0  0  0  0  0  0  0  0
   -2.7070    0.6275   -0.2759 C   0  0  0  0  0  0  0  0  0  0  0  0
   -1.4162    0.0718    0.1963 C   0  0  0  0  0  0  0  0  0  0  0  0
   -1.0314    0.1469    1.5121 N   0  0  0  0  0  0  0  0  0  0  0  0
    0.1436   -0.4449    1.5060 C   0  0  0  0  0  0  0  0  0  0  0  0
    1.1030   -0.7107    2.5557 C   0  0  0  0  0  0  0  0  0  0  0  0
    0.9074   -0.3038    3.8762 C   0  0  0  0  0  0  0  0  0  0  0  0
    1.8764   -0.5982    4.8353 C   0  0  0  0  0  0  0  0  0  0  0  0
    3.0313   -1.2954    4.4741 C   0  0  0  0  0  0  0  0  0  0  0  0
    3.2253   -1.7018    3.1508 C   0  0  0  0  0  0  0  0  0  0  0  0
    2.2679   -1.4159    2.1780 C   0  0  0  0  0  0  0  0  0  0  0  0
    2.4997   -1.8453    0.8440 N   0  0  0  0  0  0  0  0  0  0  0  0
    1.6141   -1.5672   -0.0741 C   0  0  0  0  0  0  0  0  0  0  0  0
    1.9542   -2.1120   -1.7128 S   0  0  0  0  0  0  0  0  0  0  0  0
    2.2206   -0.4983   -2.5006 C   0  0  0  0  0  0  0  0  0  0  0  0
    3.1714    0.3467   -1.6742 C   0  0  0  0  0  0  0  0  0  0  0  0
    2.7633    1.1756   -0.8647 O   0  0  0  0  0  0  0  0  0  0  0  0
    4.5036    0.0785   -1.8824 N   0  0  0  0  0  0  0  0  0  0  0  0
    5.5011    0.6652   -1.0174 C   0  0  0  0  0  0  0  0  0  0  0  0
    6.8414    0.3502   -1.5653 C   0  0  0  0  0  0  0  0  0  0  0  0
    7.8881    1.1242   -2.0225 C   0  0  0  0  0  0  0  0  0  0  0  0
    8.9039    0.2244   -2.4276 C   0  0  0  0  0  0  0  0  0  0  0  0
    8.4137   -1.0392   -2.1934 C   0  0  0  0  0  0  0  0  0  0  0  0
    7.1618   -0.9744   -1.6719 O   0  0  0  0  0  0  0  0  0  0  0  0
    0.4379   -0.8744    0.2405 N   0  0  0  0  0  0  0  0  0  0  0  0
   -0.5669   -0.5704   -0.6183 N   0  0  0  0  0  0  0  0  0  0  0  0
   -4.7628   -1.6743   -2.9744 H   0  0  0  0  0  0  0  0  0  0  0  0
   -5.3843   -0.4197   -4.0579 H   0  0  0  0  0  0  0  0  0  0  0  0
   -3.8400   -0.1730   -3.2308 H   0  0  0  0  0  0  0  0  0  0  0  0
   -8.9775    1.9726   -1.0009 H   0  0  0  0  0  0  0  0  0  0  0  0
   -9.1051    2.6030    1.4121 H   0  0  0  0  0  0  0  0  0  0  0  0
   -7.2522    2.0424    2.9484 H   0  0  0  0  0  0  0  0  0  0  0  0
   -5.2325    0.8447    2.1245 H   0  0  0  0  0  0  0  0  0  0  0  0
   -3.5479   -1.2944   -0.8549 H   0  0  0  0  0  0  0  0  0  0  0  0
   -3.9508   -0.8099    0.7825 H   0  0  0  0  0  0  0  0  0  0  0  0
   -2.9816    1.4848    0.3509 H   0  0  0  0  0  0  0  0  0  0  0  0
   -2.5909    1.0191   -1.2940 H   0  0  0  0  0  0  0  0  0  0  0  0
    0.0091    0.2406    4.1572 H   0  0  0  0  0  0  0  0  0  0  0  0
    1.7322   -0.2828    5.8662 H   0  0  0  0  0  0  0  0  0  0  0  0
    3.7847   -1.5231    5.2249 H   0  0  0  0  0  0  0  0  0  0  0  0
    4.1266   -2.2438    2.8758 H   0  0  0  0  0  0  0  0  0  0  0  0
    1.2749    0.0383   -2.6221 H   0  0  0  0  0  0  0  0  0  0  0  0
    2.6386   -0.6526   -3.5006 H   0  0  0  0  0  0  0  0  0  0  0  0
    4.7429   -0.8244   -2.2773 H   0  0  0  0  0  0  0  0  0  0  0  0
    5.3810    0.2415   -0.0146 H   0  0  0  0  0  0  0  0  0  0  0  0
    5.3359    1.7460   -0.9575 H   0  0  0  0  0  0  0  0  0  0  0  0
    7.9125    2.2050   -2.0611 H   0  0  0  0  0  0  0  0  0  0  0  0
    9.8737    0.4648   -2.8414 H   0  0  0  0  0  0  0  0  0  0  0  0
    8.8100   -2.0352   -2.3361 H   0  0  0  0  0  0  0  0  0  0  0  0
  1  2  1  0
  2  3  2  0
  3  4  1  0
  4  5  2  0
  5  6  1  0
  6  7  2  0
  7  8  1  0
  8  9  2  0
  9 10  1  0
 10 11  1  0
 11 12  1  0
 12 13  1  0
 13 14  1  0
 14 15  2  0
 15 16  1  0
 16 17  2  0
 17 18  1  0
 18 19  2  0
 19 20  1  0
 20 21  2  0
 21 22  1  0
 22 23  2  0
 23 24  1  0
 24 25  1  0
 25 26  1  0
 26 27  2  0
 26 28  1  0
 28 29  1  0
 29 30  1  0
 30 31  2  0
 31 32  1  0
 32 33  2  0
 33 34  1  0
 23 35  1  0
 35 36  1  0
 10  2  1  0
 36 13  2  0
  9  4  1  0
 35 15  1  0
 21 16  1  0
 34 30  1  0
  1 37  1  0
  1 38  1  0
  1 39  1  0
  5 40  1  0
  6 41  1  0
  7 42  1  0
  8 43  1  0
 11 44  1  0
 11 45  1  0
 12 46  1  0
 12 47  1  0
 17 48  1  0
 18 49  1  0
 19 50  1  0
 20 51  1  0
 25 52  1  0
 25 53  1  0
 28 54  1  0
 29 55  1  0
 29 56  1  0
 31 57  1  0
 32 58  1  0
 33 59  1  0
M  END
$$$$
