
     RDKit          3D

 68 70  0  0  0  0  0  0  0  0999 V2000
   -5.4304    3.2807    4.9469 C   0  0  0  0  0  0  0  0  0  0  0  0
   -4.0537    3.0250    5.1871 O   0  0  0  0  0  0  0  0  0  0  0  0
   -3.3998    2.2589    4.2617 C   0  0  0  0  0  0  0  0  0  0  0  0
   -3.9243    1.8037    3.0520 C   0  0  0  0  0  0  0  0  0  0  0  0
   -3.1405    1.0294    2.1873 C   0  0  0  0  0  0  0  0  0  0  0  0
   -1.8155    0.6993    2.5179 C   0  0  0  0  0  0  0  0  0  0  0  0
   -0.9064   -0.1092    1.5911 C   0  0  0  0  0  0  0  0  0  0  0  0
   -1.6810   -1.1271    0.6935 C   0  0  0  0  0  0  0  0  0  0  0  0
   -2.2933   -2.0735    1.1907 O   0  0  0  0  0  0  0  0  0  0  0  0
   -1.7554   -0.8377   -0.6527 N   0  0  0  0  0  0  0  0  0  0  0  0
   -2.4610   -1.6370   -1.6649 C   0  0  0  0  0  0  0  0  0  0  0  0
   -1.8826   -3.0574   -1.7430 C   0  0  0  0  0  0  0  0  0  0  0  0
   -3.9696   -1.6913   -1.3728 C   0  0  0  0  0  0  0  0  0  0  0  0
   -2.2493   -0.9538   -3.0307 C   0  0  0  0  0  0  0  0  0  0  0  0
    0.1877    0.6780    0.9386 N   0  0  0  0  0  0  0  0  0  0  0  0
    1.4561    0.0781    0.9584 C   0  0  0  0  0  0  0  0  0  0  0  0
    1.6242   -1.1015    1.2736 O   0  0  0  0  0  0  0  0  0  0  0  0
    2.6584    1.0017    0.7471 C   0  0  0  0  0  0  0  0  0  0  0  0
    3.9703    0.2226    0.7926 C   0  0  0  0  0  0  0  0  0  0  0  0
    4.1650   -0.6092   -0.4646 C   0  0  0  0  0  0  0  0  0  0  0  0
    3.4882   -0.4396   -1.4766 O   0  0  0  0  0  0  0  0  0  0  0  0
    5.1958   -1.5102   -0.3247 N   0  0  0  0  0  0  0  0  0  0  0  0
    5.6332   -2.3812   -1.2978 C   0  0  0  0  0  0  0  0  0  0  0  0
    5.1926   -2.5413   -2.6294 C   0  0  0  0  0  0  0  0  0  0  0  0
    5.9789   -3.5486   -3.1328 C   0  0  0  0  0  0  0  0  0  0  0  0
    6.0676   -4.2337   -4.4306 C   0  0  0  0  0  0  0  0  0  0  0  0
    6.8390   -3.9671   -2.1681 O   0  0  0  0  0  0  0  0  0  0  0  0
    6.6302   -3.2292   -1.0175 N   0  0  0  0  0  0  0  0  0  0  0  0
   -0.1004    1.7854    0.0776 C   0  0  0  0  0  0  0  0  0  0  0  0
   -0.8431    2.8892    0.5092 C   0  0  0  0  0  0  0  0  0  0  0  0
   -1.1261    3.9535   -0.3556 C   0  0  0  0  0  0  0  0  0  0  0  0
   -0.6712    3.9237   -1.6682 C   0  0  0  0  0  0  0  0  0  0  0  0
    0.0674    2.8334   -2.1036 C   0  0  0  0  0  0  0  0  0  0  0  0
    0.5006    2.7942   -3.3681 F   0  0  0  0  0  0  0  0  0  0  0  0
    0.3578    1.7741   -1.2499 C   0  0  0  0  0  0  0  0  0  0  0  0
   -1.3053    1.1516    3.7467 C   0  0  0  0  0  0  0  0  0  0  0  0
   -2.0897    1.9282    4.6023 C   0  0  0  0  0  0  0  0  0  0  0  0
   -5.8166    3.8570    5.7940 H   0  0  0  0  0  0  0  0  0  0  0  0
   -5.5674    3.8842    4.0424 H   0  0  0  0  0  0  0  0  0  0  0  0
   -6.0011    2.3494    4.8939 H   0  0  0  0  0  0  0  0  0  0  0  0
   -4.9383    2.0347    2.7450 H   0  0  0  0  0  0  0  0  0  0  0  0
   -3.5815    0.6954    1.2492 H   0  0  0  0  0  0  0  0  0  0  0  0
   -0.3978   -0.7952    2.2884 H   0  0  0  0  0  0  0  0  0  0  0  0
   -1.4036    0.0614   -0.9488 H   0  0  0  0  0  0  0  0  0  0  0  0
   -2.0533   -3.6225   -0.8185 H   0  0  0  0  0  0  0  0  0  0  0  0
   -0.7988   -3.0317   -1.9178 H   0  0  0  0  0  0  0  0  0  0  0  0
   -2.3427   -3.6262   -2.5610 H   0  0  0  0  0  0  0  0  0  0  0  0
   -4.1880   -2.2396   -0.4479 H   0  0  0  0  0  0  0  0  0  0  0  0
   -4.3855   -0.6819   -1.2612 H   0  0  0  0  0  0  0  0  0  0  0  0
   -4.5126   -2.1922   -2.1825 H   0  0  0  0  0  0  0  0  0  0  0  0
   -1.1813   -0.8779   -3.2762 H   0  0  0  0  0  0  0  0  0  0  0  0
   -2.6541    0.0676   -3.0234 H   0  0  0  0  0  0  0  0  0  0  0  0
   -2.7415   -1.5072   -3.8378 H   0  0  0  0  0  0  0  0  0  0  0  0
    2.6020    1.5588   -0.1878 H   0  0  0  0  0  0  0  0  0  0  0  0
    2.6515    1.7285    1.5673 H   0  0  0  0  0  0  0  0  0  0  0  0
    4.0130   -0.4284    1.6750 H   0  0  0  0  0  0  0  0  0  0  0  0
    4.8108    0.9275    0.8496 H   0  0  0  0  0  0  0  0  0  0  0  0
    5.6736   -1.6123    0.5626 H   0  0  0  0  0  0  0  0  0  0  0  0
    4.4099   -2.0091   -3.1499 H   0  0  0  0  0  0  0  0  0  0  0  0
    7.0726   -4.1324   -4.8552 H   0  0  0  0  0  0  0  0  0  0  0  0
    5.3493   -3.8159   -5.1436 H   0  0  0  0  0  0  0  0  0  0  0  0
    5.8529   -5.3019   -4.3180 H   0  0  0  0  0  0  0  0  0  0  0  0
   -1.1726    2.9855    1.5385 H   0  0  0  0  0  0  0  0  0  0  0  0
   -1.6922    4.8090    0.0080 H   0  0  0  0  0  0  0  0  0  0  0  0
   -0.8805    4.7425   -2.3492 H   0  0  0  0  0  0  0  0  0  0  0  0
    0.9244    0.9354   -1.6511 H   0  0  0  0  0  0  0  0  0  0  0  0
   -0.2900    0.9024    4.0477 H   0  0  0  0  0  0  0  0  0  0  0  0
   -1.6751    2.2727    5.5457 H   0  0  0  0  0  0  0  0  0  0  0  0
  1  2  1  0
  2  3  1  0
  3  4  2  0
  4  5  1  0
  5  6  2  0
  6  7  1  0
  7  8  1  0
  8  9  2  0
  8 10  1  0
 10 11  1  0
 11 12  1  0
 11 13  1  0
 11 14  1  0
  7 15  1  0
 15 16  1  0
 16 17  2  0
 16 18  1  0
 18 19  1  0
 19 20  1  0
 20 21  2  0
 20 22  1  0
 22 23  1  0
 23 24  1  0
 24 25  2  0
 25 26  1  0
 25 27  1  0
 27 28  1  0
 15 29  1  0
 29 30  2  0
 30 31  1  0
 31 32  2  0
 32 33  1  0
 33 34  1  0
 33 35  2  0
  6 36  1  0
 36 37  2  0
 37  3  1  0
 28 23  2  0
 35 29  1  0
  1 38  1  0
  1 39  1  0
  1 40  1  0
  4 41  1  0
  5 42  1  0
  7 43  1  0
 10 44  1  0
 12 45  1  0
 12 46  1  0
 12 47  1  0
 13 48  1  0
 13 49  1  0
 13 50  1  0
 14 51  1  0
 14 52  1  0
 14 53  1  0
 18 54  1  0
 18 55  1  0
 19 56  1  0
 19 57  1  0
 22 58  1  0
 24 59  1  0
 26 60  1  0
 26 61  1  0
 26 62  1  0
 30 63  1  0
 31 64  1  0
 32 65  1  0
 35 66  1  0
 36 67  1  0
 37 68  1  0
M  END
$$$$
