
     RDKit          3D

 54 57  0  0  0  0  0  0  0  0999 V2000
   -4.2669   -0.9325   -4.3463 C   0  0  0  0  0  0  0  0  0  0  0  0
   -3.6847   -1.5048   -3.1817 O   0  0  0  0  0  0  0  0  0  0  0  0
   -3.2287   -0.6377   -2.2271 C   0  0  0  0  0  0  0  0  0  0  0  0
   -2.6903   -1.2545   -1.0913 C   0  0  0  0  0  0  0  0  0  0  0  0
   -2.1869   -0.4915   -0.0369 C   0  0  0  0  0  0  0  0  0  0  0  0
   -2.2112    0.8995   -0.1333 C   0  0  0  0  0  0  0  0  0  0  0  0
   -1.6775    1.7216    0.9708 C   0  0  0  0  0  0  0  0  0  0  0  0
   -2.5147    2.1206    1.8748 N   0  0  0  0  0  0  0  0  0  0  0  0
   -2.0395    2.9028    2.9317 C   0  0  0  0  0  0  0  0  0  0  0  0
   -2.9425    3.3469    3.9004 C   0  0  0  0  0  0  0  0  0  0  0  0
   -2.5080    4.1277    4.9755 C   0  0  0  0  0  0  0  0  0  0  0  0
   -1.1614    4.4714    5.0900 C   0  0  0  0  0  0  0  0  0  0  0  0
   -0.2503    4.0328    4.1300 C   0  0  0  0  0  0  0  0  0  0  0  0
   -0.6980    3.2513    3.0575 C   0  0  0  0  0  0  0  0  0  0  0  0
    0.2349    2.7673    2.0266 C   0  0  0  0  0  0  0  0  0  0  0  0
    1.4340    3.0141    2.1298 O   0  0  0  0  0  0  0  0  0  0  0  0
   -0.3188    2.0278    0.9823 N   0  0  0  0  0  0  0  0  0  0  0  0
    0.6185    1.5621   -0.0473 C   0  0  0  0  0  0  0  0  0  0  0  0
    1.3991    0.3188    0.3892 C   0  0  0  0  0  0  0  0  0  0  0  0
    2.0483   -0.2199   -0.7638 O   0  0  0  0  0  0  0  0  0  0  0  0
    2.6498   -1.4435   -0.6280 C   0  0  0  0  0  0  0  0  0  0  0  0
    2.9240   -2.0639    0.5935 C   0  0  0  0  0  0  0  0  0  0  0  0
    3.5474   -3.3146    0.6283 C   0  0  0  0  0  0  0  0  0  0  0  0
    3.9009   -3.9659   -0.5559 C   0  0  0  0  0  0  0  0  0  0  0  0
    4.6018   -5.2912   -0.5145 C   0  0  0  0  0  0  0  0  0  0  0  0
    3.6482   -3.3335   -1.7782 C   0  0  0  0  0  0  0  0  0  0  0  0
    3.0238   -2.0767   -1.8257 C   0  0  0  0  0  0  0  0  0  0  0  0
    2.7596   -1.4245   -3.1552 C   0  0  0  0  0  0  0  0  0  0  0  0
   -2.7614    1.5307   -1.2507 C   0  0  0  0  0  0  0  0  0  0  0  0
   -3.2665    0.7581   -2.3010 C   0  0  0  0  0  0  0  0  0  0  0  0
   -3.5375   -0.3278   -4.8957 H   0  0  0  0  0  0  0  0  0  0  0  0
   -5.1587   -0.3480   -4.0936 H   0  0  0  0  0  0  0  0  0  0  0  0
   -4.5796   -1.7523   -5.0001 H   0  0  0  0  0  0  0  0  0  0  0  0
   -2.6723   -2.3402   -1.0272 H   0  0  0  0  0  0  0  0  0  0  0  0
   -1.7937   -0.9805    0.8486 H   0  0  0  0  0  0  0  0  0  0  0  0
   -3.9924    3.0788    3.8136 H   0  0  0  0  0  0  0  0  0  0  0  0
   -3.2224    4.4651    5.7222 H   0  0  0  0  0  0  0  0  0  0  0  0
   -0.8221    5.0786    5.9258 H   0  0  0  0  0  0  0  0  0  0  0  0
    0.8011    4.2976    4.2161 H   0  0  0  0  0  0  0  0  0  0  0  0
    0.0983    1.3656   -0.9896 H   0  0  0  0  0  0  0  0  0  0  0  0
    1.3288    2.3673   -0.2752 H   0  0  0  0  0  0  0  0  0  0  0  0
    0.7095   -0.4204    0.8126 H   0  0  0  0  0  0  0  0  0  0  0  0
    2.1430    0.5953    1.1446 H   0  0  0  0  0  0  0  0  0  0  0  0
    2.6785   -1.5953    1.5409 H   0  0  0  0  0  0  0  0  0  0  0  0
    3.7586   -3.7751    1.5911 H   0  0  0  0  0  0  0  0  0  0  0  0
    4.2616   -5.8854    0.3399 H   0  0  0  0  0  0  0  0  0  0  0  0
    5.6825   -5.1402   -0.4340 H   0  0  0  0  0  0  0  0  0  0  0  0
    4.3939   -5.8736   -1.4185 H   0  0  0  0  0  0  0  0  0  0  0  0
    3.9423   -3.8231   -2.7050 H   0  0  0  0  0  0  0  0  0  0  0  0
    1.6842   -1.2752   -3.2966 H   0  0  0  0  0  0  0  0  0  0  0  0
    3.2727   -0.4592   -3.2124 H   0  0  0  0  0  0  0  0  0  0  0  0
    3.1220   -2.0404   -3.9852 H   0  0  0  0  0  0  0  0  0  0  0  0
   -2.7993    2.6156   -1.3055 H   0  0  0  0  0  0  0  0  0  0  0  0
   -3.6816    1.2737   -3.1602 H   0  0  0  0  0  0  0  0  0  0  0  0
  1  2  1  0
  2  3  1  0
  3  4  2  0
  4  5  1  0
  5  6  2  0
  6  7  1  0
  7  8  2  0
  8  9  1  0
  9 10  2  0
 10 11  1  0
 11 12  2  0
 12 13  1  0
 13 14  2  0
 14 15  1  0
 15 16  2  0
 15 17  1  0
 17 18  1  0
 18 19  1  0
 19 20  1  0
 20 21  1  0
 21 22  2  0
 22 23  1  0
 23 24  2  0
 24 25  1  0
 24 26  1  0
 26 27  2  0
 27 28  1  0
  6 29  1  0
 29 30  2  0
 30  3  1  0
 17  7  1  0
 27 21  1  0
 14  9  1  0
  1 31  1  0
  1 32  1  0
  1 33  1  0
  4 34  1  0
  5 35  1  0
 10 36  1  0
 11 37  1  0
 12 38  1  0
 13 39  1  0
 18 40  1  0
 18 41  1  0
 19 42  1  0
 19 43  1  0
 22 44  1  0
 23 45  1  0
 25 46  1  0
 25 47  1  0
 25 48  1  0
 26 49  1  0
 28 50  1  0
 28 51  1  0
 28 52  1  0
 29 53  1  0
 30 54  1  0
M  END
$$$$
