
     RDKit          3D

 50 52  0  0  0  0  0  0  0  0999 V2000
    8.0860   -0.5889    1.3660 C   0  0  0  0  0  0  0  0  0  0  0  0
    7.8151    0.7801    1.7688 N   0  0  0  0  0  0  0  0  0  0  0  0
    6.6604    1.1176    2.9297 S   0  0  0  0  0  6  0  0  0  0  0  0
    6.9529    0.3253    4.1034 O   0  0  0  0  0  0  0  0  0  0  0  0
    6.5404    2.5571    2.9875 O   0  0  0  0  0  0  0  0  0  0  0  0
    5.1753    0.4809    2.1874 C   0  0  0  0  0  0  0  0  0  0  0  0
    4.5235    1.2350    1.2074 C   0  0  0  0  0  0  0  0  0  0  0  0
    3.3511    0.7425    0.6296 C   0  0  0  0  0  0  0  0  0  0  0  0
    2.8208   -0.4888    1.0424 C   0  0  0  0  0  0  0  0  0  0  0  0
    1.5705   -0.9725    0.3928 C   0  0  0  0  0  0  0  0  0  0  0  0
    1.2570   -0.5735   -0.7236 O   0  0  0  0  0  0  0  0  0  0  0  0
    0.7916   -1.8427    1.1278 N   0  0  0  0  0  0  0  0  0  0  0  0
   -0.5382   -2.1803    0.6546 C   0  0  0  0  0  0  0  0  0  0  0  0
   -1.5259   -1.1520    1.2080 C   0  0  0  0  0  0  0  0  0  0  0  0
   -1.5540   -0.8548    2.4014 O   0  0  0  0  0  0  0  0  0  0  0  0
   -2.3690   -0.5995    0.2673 N   0  0  0  0  0  0  0  0  0  0  0  0
   -3.2344    0.5164    0.6197 C   0  0  0  0  0  0  0  0  0  0  0  0
   -4.3971    0.6981   -0.3599 C   0  0  0  0  0  0  0  0  0  0  0  0
   -5.3367   -0.5055   -0.3559 C   0  0  0  0  0  0  0  0  0  0  0  0
   -6.4703   -0.2593   -1.1988 O   0  0  0  0  0  0  0  0  0  0  0  0
   -6.0885    0.2641   -2.4080 C   0  0  0  0  0  0  0  0  0  0  0  0
   -7.0378    0.2387   -3.4286 C   0  0  0  0  0  0  0  0  0  0  0  0
   -6.7135    0.7350   -4.6927 C   0  0  0  0  0  0  0  0  0  0  0  0
   -5.4416    1.2585   -4.9333 C   0  0  0  0  0  0  0  0  0  0  0  0
   -4.4951    1.2969   -3.9072 C   0  0  0  0  0  0  0  0  0  0  0  0
   -4.8232    0.8133   -2.6416 C   0  0  0  0  0  0  0  0  0  0  0  0
   -3.8521    0.9034   -1.6772 O   0  0  0  0  0  0  0  0  0  0  0  0
    3.4819   -1.2364    2.0282 C   0  0  0  0  0  0  0  0  0  0  0  0
    4.6568   -0.7481    2.6076 C   0  0  0  0  0  0  0  0  0  0  0  0
    9.1326   -0.6698    1.0585 H   0  0  0  0  0  0  0  0  0  0  0  0
    7.4571   -0.8613    0.5142 H   0  0  0  0  0  0  0  0  0  0  0  0
    7.9223   -1.2975    2.1820 H   0  0  0  0  0  0  0  0  0  0  0  0
    8.0421    1.5493    1.1414 H   0  0  0  0  0  0  0  0  0  0  0  0
    4.9161    2.2000    0.8937 H   0  0  0  0  0  0  0  0  0  0  0  0
    2.8436    1.3251   -0.1380 H   0  0  0  0  0  0  0  0  0  0  0  0
    0.9015   -1.8310    2.1354 H   0  0  0  0  0  0  0  0  0  0  0  0
   -0.5640   -2.2195   -0.4384 H   0  0  0  0  0  0  0  0  0  0  0  0
   -0.8037   -3.1634    1.0551 H   0  0  0  0  0  0  0  0  0  0  0  0
   -2.0330   -0.6042   -0.6926 H   0  0  0  0  0  0  0  0  0  0  0  0
   -3.6095    0.3808    1.6401 H   0  0  0  0  0  0  0  0  0  0  0  0
   -2.5967    1.4081    0.6102 H   0  0  0  0  0  0  0  0  0  0  0  0
   -4.9489    1.6070   -0.0834 H   0  0  0  0  0  0  0  0  0  0  0  0
   -5.7165   -0.6962    0.6537 H   0  0  0  0  0  0  0  0  0  0  0  0
   -4.8416   -1.4184   -0.7105 H   0  0  0  0  0  0  0  0  0  0  0  0
   -8.0247   -0.1765   -3.2423 H   0  0  0  0  0  0  0  0  0  0  0  0
   -7.4518    0.7097   -5.4910 H   0  0  0  0  0  0  0  0  0  0  0  0
   -5.1891    1.6418   -5.9192 H   0  0  0  0  0  0  0  0  0  0  0  0
   -3.5090    1.7140   -4.0922 H   0  0  0  0  0  0  0  0  0  0  0  0
    3.1070   -2.2071    2.3427 H   0  0  0  0  0  0  0  0  0  0  0  0
    5.1603   -1.3296    3.3779 H   0  0  0  0  0  0  0  0  0  0  0  0
  1  2  1  0
  2  3  1  0
  3  4  2  0
  3  5  2  0
  3  6  1  0
  6  7  2  0
  7  8  1  0
  8  9  2  0
  9 10  1  0
 10 11  2  0
 10 12  1  0
 12 13  1  0
 13 14  1  0
 14 15  2  0
 14 16  1  0
 16 17  1  0
 17 18  1  0
 18 19  1  0
 19 20  1  0
 20 21  1  0
 21 22  2  0
 22 23  1  0
 23 24  2  0
 24 25  1  0
 25 26  2  0
 26 27  1  0
  9 28  1  0
 28 29  2  0
 29  6  1  0
 27 18  1  0
 26 21  1  0
  1 30  1  0
  1 31  1  0
  1 32  1  0
  2 33  1  0
  7 34  1  0
  8 35  1  0
 12 36  1  0
 13 37  1  0
 13 38  1  0
 16 39  1  0
 17 40  1  0
 17 41  1  0
 18 42  1  0
 19 43  1  0
 19 44  1  0
 22 45  1  0
 23 46  1  0
 24 47  1  0
 25 48  1  0
 28 49  1  0
 29 50  1  0
M  END
$$$$
