
     RDKit          3D

 63 67  0  0  0  0  0  0  0  0999 V2000
    2.5222    5.9309   -1.8714 C   0  0  0  0  0  0  0  0  0  0  0  0
    2.1570    5.1607   -0.7331 O   0  0  0  0  0  0  0  0  0  0  0  0
    2.5046    3.8385   -0.7433 C   0  0  0  0  0  0  0  0  0  0  0  0
    2.1269    3.1264    0.3970 C   0  0  0  0  0  0  0  0  0  0  0  0
    2.4168    1.7644    0.5169 C   0  0  0  0  0  0  0  0  0  0  0  0
    3.0908    1.0907   -0.5077 C   0  0  0  0  0  0  0  0  0  0  0  0
    3.3686   -0.3476   -0.3960 C   0  0  0  0  0  0  0  0  0  0  0  0
    5.0011   -0.8623   -0.3863 S   0  0  0  0  0  0  0  0  0  0  0  0
    4.5760   -2.5159   -0.2145 C   0  0  0  0  0  0  0  0  0  0  0  0
    5.4586   -3.6101   -0.1306 C   0  0  0  0  0  0  0  0  0  0  0  0
    4.9379   -4.9023    0.0023 C   0  0  0  0  0  0  0  0  0  0  0  0
    3.5664   -5.1101    0.0478 C   0  0  0  0  0  0  0  0  0  0  0  0
    2.9389   -6.3197    0.1711 O   0  0  0  0  0  0  0  0  0  0  0  0
    3.7685   -7.4723    0.2437 C   0  0  0  0  0  0  0  0  0  0  0  0
    2.7004   -4.0131   -0.0358 C   0  0  0  0  0  0  0  0  0  0  0  0
    3.1926   -2.6870   -0.1636 C   0  0  0  0  0  0  0  0  0  0  0  0
    2.4978   -1.4204   -0.2637 C   0  0  0  0  0  0  0  0  0  0  0  0
    1.0485   -1.2373   -0.2346 C   0  0  0  0  0  0  0  0  0  0  0  0
    0.3698   -0.7407   -1.3530 C   0  0  0  0  0  0  0  0  0  0  0  0
   -1.0154   -0.5467   -1.3134 C   0  0  0  0  0  0  0  0  0  0  0  0
   -1.7326   -0.8523   -0.1568 C   0  0  0  0  0  0  0  0  0  0  0  0
   -3.0815   -0.7063    0.0120 O   0  0  0  0  0  0  0  0  0  0  0  0
   -3.7764    0.0578   -0.9755 C   0  0  0  0  0  0  0  0  0  0  0  0
   -5.2432    0.2560   -0.5426 C   0  0  0  0  0  0  0  0  0  0  0  0
   -5.5524    1.2481    0.5017 N   0  0  0  0  0  0  0  0  0  0  0  0
   -5.2634    2.6361    0.1013 C   0  0  0  0  0  0  0  0  0  0  0  0
   -5.6969    3.6181    1.2041 C   0  0  0  0  0  0  0  0  0  0  0  0
   -5.0418    3.3291    2.4471 O   0  0  0  0  0  0  0  0  0  0  0  0
   -5.3314    1.9843    2.8563 C   0  0  0  0  0  0  0  0  0  0  0  0
   -4.8888    0.9692    1.7888 C   0  0  0  0  0  0  0  0  0  0  0  0
   -1.0577   -1.3699    0.9512 C   0  0  0  0  0  0  0  0  0  0  0  0
    0.3259   -1.5592    0.9178 C   0  0  0  0  0  0  0  0  0  0  0  0
    3.4690    1.8095   -1.6500 C   0  0  0  0  0  0  0  0  0  0  0  0
    3.1792    3.1747   -1.7674 C   0  0  0  0  0  0  0  0  0  0  0  0
    3.6098    5.9584   -1.9978 H   0  0  0  0  0  0  0  0  0  0  0  0
    2.1804    6.9569   -1.7044 H   0  0  0  0  0  0  0  0  0  0  0  0
    2.0280    5.5581   -2.7750 H   0  0  0  0  0  0  0  0  0  0  0  0
    1.5993    3.6353    1.2002 H   0  0  0  0  0  0  0  0  0  0  0  0
    2.1090    1.2356    1.4160 H   0  0  0  0  0  0  0  0  0  0  0  0
    6.5335   -3.4550   -0.1688 H   0  0  0  0  0  0  0  0  0  0  0  0
    5.6431   -5.7248    0.0658 H   0  0  0  0  0  0  0  0  0  0  0  0
    3.1178   -8.3478    0.3295 H   0  0  0  0  0  0  0  0  0  0  0  0
    4.4069   -7.4436    1.1330 H   0  0  0  0  0  0  0  0  0  0  0  0
    4.3644   -7.5885   -0.6678 H   0  0  0  0  0  0  0  0  0  0  0  0
    1.6267   -4.1866   -0.0049 H   0  0  0  0  0  0  0  0  0  0  0  0
    0.9141   -0.4963   -2.2622 H   0  0  0  0  0  0  0  0  0  0  0  0
   -1.4999   -0.1603   -2.2033 H   0  0  0  0  0  0  0  0  0  0  0  0
   -3.2891    1.0245   -1.1427 H   0  0  0  0  0  0  0  0  0  0  0  0
   -3.7799   -0.5059   -1.9165 H   0  0  0  0  0  0  0  0  0  0  0  0
   -5.6424   -0.7109   -0.2099 H   0  0  0  0  0  0  0  0  0  0  0  0
   -5.8241    0.5265   -1.4335 H   0  0  0  0  0  0  0  0  0  0  0  0
   -5.8003    2.8834   -0.8212 H   0  0  0  0  0  0  0  0  0  0  0  0
   -4.1908    2.7687   -0.0817 H   0  0  0  0  0  0  0  0  0  0  0  0
   -5.4260    4.6394    0.9181 H   0  0  0  0  0  0  0  0  0  0  0  0
   -6.7828    3.5920    1.3554 H   0  0  0  0  0  0  0  0  0  0  0  0
   -4.7900    1.8000    3.7897 H   0  0  0  0  0  0  0  0  0  0  0  0
   -6.4032    1.8957    3.0703 H   0  0  0  0  0  0  0  0  0  0  0  0
   -5.1401   -0.0402    2.1340 H   0  0  0  0  0  0  0  0  0  0  0  0
   -3.7996    1.0398    1.6838 H   0  0  0  0  0  0  0  0  0  0  0  0
   -1.6125   -1.6192    1.8521 H   0  0  0  0  0  0  0  0  0  0  0  0
    0.8316   -1.9503    1.7974 H   0  0  0  0  0  0  0  0  0  0  0  0
    3.9875    1.3089   -2.4650 H   0  0  0  0  0  0  0  0  0  0  0  0
    3.4925    3.6850   -2.6718 H   0  0  0  0  0  0  0  0  0  0  0  0
  1  2  1  0
  2  3  1  0
  3  4  2  0
  4  5  1  0
  5  6  2  0
  6  7  1  0
  7  8  1  0
  8  9  1  0
  9 10  2  0
 10 11  1  0
 11 12  2  0
 12 13  1  0
 13 14  1  0
 12 15  1  0
 15 16  2  0
 16 17  1  0
 17 18  1  0
 18 19  2  0
 19 20  1  0
 20 21  2  0
 21 22  1  0
 22 23  1  0
 23 24  1  0
 24 25  1  0
 25 26  1  0
 26 27  1  0
 27 28  1  0
 28 29  1  0
 29 30  1  0
 21 31  1  0
 31 32  2  0
  6 33  1  0
 33 34  2  0
 34  3  1  0
 17  7  2  0
 32 18  1  0
 16  9  1  0
 30 25  1  0
  1 35  1  0
  1 36  1  0
  1 37  1  0
  4 38  1  0
  5 39  1  0
 10 40  1  0
 11 41  1  0
 14 42  1  0
 14 43  1  0
 14 44  1  0
 15 45  1  0
 19 46  1  0
 20 47  1  0
 23 48  1  0
 23 49  1  0
 24 50  1  0
 24 51  1  0
 26 52  1  0
 26 53  1  0
 27 54  1  0
 27 55  1  0
 29 56  1  0
 29 57  1  0
 30 58  1  0
 30 59  1  0
 31 60  1  0
 32 61  1  0
 33 62  1  0
 34 63  1  0
M  END
$$$$
