
     RDKit          3D

 42 44  0  0  0  0  0  0  0  0999 V2000
    6.6711   -1.5697   -1.5854 C   0  0  0  0  0  0  0  0  0  0  0  0
    5.9400   -0.3448   -1.4922 O   0  0  0  0  0  0  0  0  0  0  0  0
    4.5988   -0.5092   -1.2881 C   0  0  0  0  0  0  0  0  0  0  0  0
    4.0354   -1.5930   -1.2200 O   0  0  0  0  0  0  0  0  0  0  0  0
    3.9338    0.8426   -1.2254 C   0  0  0  0  0  0  0  0  0  0  0  0
    2.6634    0.8055   -0.5149 N   0  0  0  0  0  0  0  0  0  0  0  0
    1.4383    0.7007   -1.1239 C   0  0  0  0  0  0  0  0  0  0  0  0
    0.4735    0.6936   -0.1407 C   0  0  0  0  0  0  0  0  0  0  0  0
   -0.9164    0.5465   -0.4349 C   0  0  0  0  0  0  0  0  0  0  0  0
   -1.8002   -0.1136    0.3322 C   0  0  0  0  0  0  0  0  0  0  0  0
   -3.2185   -0.2809   -0.0006 C   0  0  0  0  0  0  0  0  0  0  0  0
   -4.1678   -0.2021    1.0166 C   0  0  0  0  0  0  0  0  0  0  0  0
   -5.5133   -0.3911    0.7215 C   0  0  0  0  0  0  0  0  0  0  0  0
   -5.9087   -0.6686   -0.5407 N   0  0  0  0  0  4  0  0  0  0  0  0
   -7.3401   -0.8568   -0.8316 C   0  0  0  0  0  0  0  0  0  0  0  0
   -5.0057   -0.7589   -1.5423 C   0  0  0  0  0  0  0  0  0  0  0  0
   -3.6504   -0.5748   -1.2931 C   0  0  0  0  0  0  0  0  0  0  0  0
    1.1337    0.8661    1.1158 C   0  0  0  0  0  0  0  0  0  0  0  0
    0.7052    0.9952    2.4564 C   0  0  0  0  0  0  0  0  0  0  0  0
    1.6454    1.1470    3.4812 C   0  0  0  0  0  0  0  0  0  0  0  0
    3.0042    1.1765    3.1926 C   0  0  0  0  0  0  0  0  0  0  0  0
    3.4602    1.0659    1.8769 C   0  0  0  0  0  0  0  0  0  0  0  0
    2.5089    0.9203    0.8526 C   0  0  0  0  0  0  0  0  0  0  0  0
    6.5717   -2.1468   -0.6607 H   0  0  0  0  0  0  0  0  0  0  0  0
    6.3308   -2.1529   -2.4466 H   0  0  0  0  0  0  0  0  0  0  0  0
    7.7269   -1.3236   -1.7284 H   0  0  0  0  0  0  0  0  0  0  0  0
    3.7480    1.1985   -2.2439 H   0  0  0  0  0  0  0  0  0  0  0  0
    4.5770    1.5643   -0.7119 H   0  0  0  0  0  0  0  0  0  0  0  0
    1.3603    0.6036   -2.1993 H   0  0  0  0  0  0  0  0  0  0  0  0
   -1.2433    0.9858   -1.3748 H   0  0  0  0  0  0  0  0  0  0  0  0
   -1.4724   -0.5757    1.2615 H   0  0  0  0  0  0  0  0  0  0  0  0
   -3.8684    0.0153    2.0405 H   0  0  0  0  0  0  0  0  0  0  0  0
   -6.2797   -0.3234    1.4886 H   0  0  0  0  0  0  0  0  0  0  0  0
   -7.7520    0.1211   -1.0924 H   0  0  0  0  0  0  0  0  0  0  0  0
   -7.8356   -1.2650    0.0531 H   0  0  0  0  0  0  0  0  0  0  0  0
   -7.4475   -1.5594   -1.6621 H   0  0  0  0  0  0  0  0  0  0  0  0
   -5.3761   -0.9834   -2.5387 H   0  0  0  0  0  0  0  0  0  0  0  0
   -2.9392   -0.6757   -2.1109 H   0  0  0  0  0  0  0  0  0  0  0  0
   -0.3510    0.9888    2.7029 H   0  0  0  0  0  0  0  0  0  0  0  0
    1.3107    1.2445    4.5110 H   0  0  0  0  0  0  0  0  0  0  0  0
    3.7239    1.2922    4.0002 H   0  0  0  0  0  0  0  0  0  0  0  0
    4.5252    1.0954    1.6689 H   0  0  0  0  0  0  0  0  0  0  0  0
  1  2  1  0
  2  3  1  0
  3  4  2  0
  3  5  1  0
  5  6  1  0
  6  7  1  0
  7  8  2  0
  8  9  1  0
  9 10  2  3
 10 11  1  0
 11 12  2  0
 12 13  1  0
 13 14  2  0
 14 15  1  0
 14 16  1  0
 16 17  2  0
  8 18  1  0
 18 19  2  0
 19 20  1  0
 20 21  2  0
 21 22  1  0
 22 23  2  0
 23  6  1  0
 17 11  1  0
 23 18  1  0
  1 24  1  0
  1 25  1  0
  1 26  1  0
  5 27  1  0
  5 28  1  0
  7 29  1  0
  9 30  1  0
 10 31  1  0
 12 32  1  0
 13 33  1  0
 15 34  1  0
 15 35  1  0
 15 36  1  0
 16 37  1  0
 17 38  1  0
 19 39  1  0
 20 40  1  0
 21 41  1  0
 22 42  1  0
M  CHG  1  14   1
M  END
$$$$
