
     RDKit          3D

 71 75  0  0  0  0  0  0  0  0999 V2000
   -9.0199   -0.5640    3.9483 C   0  0  0  0  0  0  0  0  0  0  0  0
   -7.6707   -0.1145    3.4717 C   0  0  0  0  0  0  0  0  0  0  0  0
   -6.7374    0.4139    4.3625 C   0  0  0  0  0  0  0  0  0  0  0  0
   -5.4712    0.7920    3.9135 C   0  0  0  0  0  0  0  0  0  0  0  0
   -5.1045    0.6492    2.5644 C   0  0  0  0  0  0  0  0  0  0  0  0
   -3.7157    1.0566    2.1562 C   0  0  0  0  0  0  0  0  0  0  0  0
   -6.0330    0.1003    1.6560 C   0  0  0  0  0  0  0  0  0  0  0  0
   -5.7277   -0.1135    0.1886 C   0  0  0  0  0  0  0  0  0  0  0  0
   -5.3604   -1.4857   -0.1008 N   0  0  0  0  0  0  0  0  0  0  0  0
   -6.3125   -2.4360   -0.2881 N   0  0  0  0  0  0  0  0  0  0  0  0
   -5.6956   -3.5782   -0.5919 N   0  0  0  0  0  0  0  0  0  0  0  0
   -4.3615   -3.3187   -0.6266 C   0  0  0  0  0  0  0  0  0  0  0  0
   -3.2457   -4.1762   -0.9219 C   0  0  0  0  0  0  0  0  0  0  0  0
   -3.3081   -5.3662   -1.2128 O   0  0  0  0  0  0  0  0  0  0  0  0
   -2.0363   -3.4959   -0.8561 N   0  0  0  0  0  0  0  0  0  0  0  0
   -1.9161   -2.1343   -0.5831 C   0  0  0  0  0  0  0  0  0  0  0  0
   -0.4848   -1.6240   -0.5697 C   0  0  0  0  0  0  0  0  0  0  0  0
   -0.3989   -0.1046   -0.7372 C   0  0  0  0  0  0  0  0  0  0  0  0
    1.0578    0.3507   -0.7734 C   0  0  0  0  0  0  0  0  0  0  0  0
    1.8845   -0.2968    0.2851 N   0  0  0  0  0  0  0  0  0  0  0  0
    3.2761   -1.1327   -0.2443 S   0  0  0  0  0  6  0  0  0  0  0  0
    2.8554   -2.0467   -1.2859 O   0  0  0  0  0  0  0  0  0  0  0  0
    4.0047   -1.5984    0.9150 O   0  0  0  0  0  0  0  0  0  0  0  0
    4.2490    0.1578   -0.9829 C   0  0  0  0  0  0  0  0  0  0  0  0
    4.5905    0.0920   -2.3375 C   0  0  0  0  0  0  0  0  0  0  0  0
    5.3641    1.1092   -2.8990 C   0  0  0  0  0  0  0  0  0  0  0  0
    5.8012    2.1711   -2.0963 C   0  0  0  0  0  0  0  0  0  0  0  0
    6.7613    3.4884   -2.8236 S   0  0  0  0  0  6  0  0  0  0  0  0
    6.4944    3.4750   -4.2467 O   0  0  0  0  0  0  0  0  0  0  0  0
    6.5232    4.6770   -2.0318 O   0  0  0  0  0  0  0  0  0  0  0  0
    8.3646    2.9819   -2.5720 N   0  0  0  0  0  0  0  0  0  0  0  0
    8.8236    1.8015   -3.3236 C   0  0  0  0  0  0  0  0  0  0  0  0
    8.8729    3.0272   -1.1909 C   0  0  0  0  0  0  0  0  0  0  0  0
    5.4411    2.2451   -0.7456 C   0  0  0  0  0  0  0  0  0  0  0  0
    4.6704    1.2271   -0.1830 C   0  0  0  0  0  0  0  0  0  0  0  0
    1.0966   -0.9924    1.3301 C   0  0  0  0  0  0  0  0  0  0  0  0
    0.2155   -2.0798    0.7233 C   0  0  0  0  0  0  0  0  0  0  0  0
   -2.9233   -1.3501   -0.3125 N   0  0  0  0  0  0  0  0  0  0  0  0
   -4.1158   -1.9961   -0.3421 C   0  0  0  0  0  0  0  0  0  0  0  0
   -7.3062   -0.2796    2.1304 C   0  0  0  0  0  0  0  0  0  0  0  0
   -9.7882   -0.3446    3.1984 H   0  0  0  0  0  0  0  0  0  0  0  0
   -9.3072   -0.0439    4.8684 H   0  0  0  0  0  0  0  0  0  0  0  0
   -9.0076   -1.6412    4.1436 H   0  0  0  0  0  0  0  0  0  0  0  0
   -6.9850    0.5308    5.4151 H   0  0  0  0  0  0  0  0  0  0  0  0
   -4.7649    1.1995    4.6341 H   0  0  0  0  0  0  0  0  0  0  0  0
   -3.7402    1.7074    1.2784 H   0  0  0  0  0  0  0  0  0  0  0  0
   -3.2166    1.6225    2.9498 H   0  0  0  0  0  0  0  0  0  0  0  0
   -3.1082    0.1724    1.9472 H   0  0  0  0  0  0  0  0  0  0  0  0
   -6.6095    0.1250   -0.4188 H   0  0  0  0  0  0  0  0  0  0  0  0
   -4.9275    0.5397   -0.1714 H   0  0  0  0  0  0  0  0  0  0  0  0
   -1.2236   -4.0574   -1.0708 H   0  0  0  0  0  0  0  0  0  0  0  0
    0.0282   -2.0908   -1.4233 H   0  0  0  0  0  0  0  0  0  0  0  0
   -0.9035    0.2108   -1.6590 H   0  0  0  0  0  0  0  0  0  0  0  0
   -0.9239    0.4029    0.0835 H   0  0  0  0  0  0  0  0  0  0  0  0
    1.4641    0.1426   -1.7697 H   0  0  0  0  0  0  0  0  0  0  0  0
    1.1109    1.4370   -0.6344 H   0  0  0  0  0  0  0  0  0  0  0  0
    4.2606   -0.7387   -2.9583 H   0  0  0  0  0  0  0  0  0  0  0  0
    5.6199    1.0691   -3.9559 H   0  0  0  0  0  0  0  0  0  0  0  0
    8.4674    1.8209   -4.3571 H   0  0  0  0  0  0  0  0  0  0  0  0
    8.4937    0.8773   -2.8424 H   0  0  0  0  0  0  0  0  0  0  0  0
    9.9171    1.7988   -3.3653 H   0  0  0  0  0  0  0  0  0  0  0  0
    9.9646    2.9237   -1.1957 H   0  0  0  0  0  0  0  0  0  0  0  0
    8.4531    2.2160   -0.5876 H   0  0  0  0  0  0  0  0  0  0  0  0
    8.6480    3.9894   -0.7213 H   0  0  0  0  0  0  0  0  0  0  0  0
    5.7567    3.0864   -0.1305 H   0  0  0  0  0  0  0  0  0  0  0  0
    4.3975    1.2694    0.8699 H   0  0  0  0  0  0  0  0  0  0  0  0
    1.7509   -1.4176    2.0982 H   0  0  0  0  0  0  0  0  0  0  0  0
    0.4846   -0.2491    1.8563 H   0  0  0  0  0  0  0  0  0  0  0  0
    0.8239   -2.9673    0.5005 H   0  0  0  0  0  0  0  0  0  0  0  0
   -0.5113   -2.4001    1.4827 H   0  0  0  0  0  0  0  0  0  0  0  0
   -8.0254   -0.7225    1.4400 H   0  0  0  0  0  0  0  0  0  0  0  0
  1  2  1  0
  2  3  2  0
  3  4  1  0
  4  5  2  0
  5  6  1  0
  5  7  1  0
  7  8  1  0
  8  9  1  0
  9 10  1  0
 10 11  2  0
 11 12  1  0
 12 13  1  0
 13 14  2  0
 13 15  1  0
 15 16  1  0
 16 17  1  0
 17 18  1  0
 18 19  1  0
 19 20  1  0
 20 21  1  0
 21 22  2  0
 21 23  2  0
 21 24  1  0
 24 25  2  0
 25 26  1  0
 26 27  2  0
 27 28  1  0
 28 29  2  0
 28 30  2  0
 28 31  1  0
 31 32  1  0
 31 33  1  0
 27 34  1  0
 34 35  2  0
 20 36  1  0
 36 37  1  0
 16 38  2  0
 38 39  1  0
  7 40  2  0
 40  2  1  0
 39  9  1  0
 39 12  2  0
 37 17  1  0
 35 24  1  0
  1 41  1  0
  1 42  1  0
  1 43  1  0
  3 44  1  0
  4 45  1  0
  6 46  1  0
  6 47  1  0
  6 48  1  0
  8 49  1  0
  8 50  1  0
 15 51  1  0
 17 52  1  0
 18 53  1  0
 18 54  1  0
 19 55  1  0
 19 56  1  0
 25 57  1  0
 26 58  1  0
 32 59  1  0
 32 60  1  0
 32 61  1  0
 33 62  1  0
 33 63  1  0
 33 64  1  0
 34 65  1  0
 35 66  1  0
 36 67  1  0
 36 68  1  0
 37 69  1  0
 37 70  1  0
 40 71  1  0
M  END
$$$$
