
     RDKit          3D

 62 67  0  0  0  0  0  0  0  0999 V2000
   -3.8352   -3.3387   -2.1328 C   0  0  0  0  0  0  0  0  0  0  0  0
   -3.5991   -2.2972   -1.1959 O   0  0  0  0  0  0  0  0  0  0  0  0
   -3.0551   -2.6464    0.0151 C   0  0  0  0  0  0  0  0  0  0  0  0
   -2.5615   -3.9204    0.3207 C   0  0  0  0  0  0  0  0  0  0  0  0
   -2.0022   -4.1835    1.5747 C   0  0  0  0  0  0  0  0  0  0  0  0
   -1.9267   -3.1785    2.5341 C   0  0  0  0  0  0  0  0  0  0  0  0
   -2.4122   -1.9054    2.2421 C   0  0  0  0  0  0  0  0  0  0  0  0
   -2.9809   -1.6282    0.9881 C   0  0  0  0  0  0  0  0  0  0  0  0
   -3.4705   -0.2685    0.7235 C   0  0  0  0  0  0  0  0  0  0  0  0
   -5.1324    0.0524    0.9536 S   0  0  0  0  0  0  0  0  0  0  0  0
   -4.9665    1.7072    0.5151 C   0  0  0  0  0  0  0  0  0  0  0  0
   -6.0020    2.6666    0.4673 C   0  0  0  0  0  0  0  0  0  0  0  0
   -5.6443    3.9430    0.0856 C   0  0  0  0  0  0  0  0  0  0  0  0
   -4.3568    4.2767   -0.2334 C   0  0  0  0  0  0  0  0  0  0  0  0
   -3.3288    3.3553   -0.1931 C   0  0  0  0  0  0  0  0  0  0  0  0
   -3.6354    2.0214    0.1961 C   0  0  0  0  0  0  0  0  0  0  0  0
   -2.7782    0.8626    0.3253 C   0  0  0  0  0  0  0  0  0  0  0  0
   -1.3400    0.8319    0.0851 C   0  0  0  0  0  0  0  0  0  0  0  0
   -0.4681    1.4638    0.9753 C   0  0  0  0  0  0  0  0  0  0  0  0
    0.9087    1.4336    0.7416 C   0  0  0  0  0  0  0  0  0  0  0  0
    1.4283    0.7773   -0.3777 C   0  0  0  0  0  0  0  0  0  0  0  0
    2.7909    0.8211   -0.4809 O   0  0  0  0  0  0  0  0  0  0  0  0
    3.3843    0.1236   -1.5795 C   0  0  0  0  0  0  0  0  0  0  0  0
    4.9182    0.2364   -1.4870 C   0  0  0  0  0  0  0  0  0  0  0  0
    5.5613   -0.7939   -0.6420 N   0  0  0  0  0  0  0  0  0  0  0  0
    7.0341   -0.6630   -0.7190 C   0  0  0  0  0  0  0  0  0  0  0  0
    7.7396   -1.6766    0.1941 C   0  0  0  0  0  0  0  0  0  0  0  0
    7.3302   -1.5134    1.5575 O   0  0  0  0  0  0  0  0  0  0  0  0
    5.9115   -1.6873    1.6636 C   0  0  0  0  0  0  0  0  0  0  0  0
    5.1521   -0.6856    0.7767 C   0  0  0  0  0  0  0  0  0  0  0  0
    0.5563    0.1540   -1.2708 C   0  0  0  0  0  0  0  0  0  0  0  0
   -0.8236    0.1824   -1.0407 C   0  0  0  0  0  0  0  0  0  0  0  0
   -4.2284    5.5855   -0.5829 O   0  0  0  0  0  0  0  0  0  0  0  0
   -5.5914    6.0365   -0.4494 C   0  0  0  0  0  0  0  0  0  0  0  0
   -6.4967    4.9990   -0.0209 O   0  0  0  0  0  0  0  0  0  0  0  0
   -2.8927   -3.7702   -2.4850 H   0  0  0  0  0  0  0  0  0  0  0  0
   -4.4931   -4.1085   -1.7158 H   0  0  0  0  0  0  0  0  0  0  0  0
   -4.3427   -2.9009   -2.9977 H   0  0  0  0  0  0  0  0  0  0  0  0
   -2.5890   -4.7318   -0.3986 H   0  0  0  0  0  0  0  0  0  0  0  0
   -1.6207   -5.1765    1.7998 H   0  0  0  0  0  0  0  0  0  0  0  0
   -1.4883   -3.3834    3.5072 H   0  0  0  0  0  0  0  0  0  0  0  0
   -2.3464   -1.1238    2.9956 H   0  0  0  0  0  0  0  0  0  0  0  0
   -7.0255    2.4123    0.7160 H   0  0  0  0  0  0  0  0  0  0  0  0
   -2.3168    3.6453   -0.4561 H   0  0  0  0  0  0  0  0  0  0  0  0
   -0.8505    1.9763    1.8545 H   0  0  0  0  0  0  0  0  0  0  0  0
    1.5828    1.9239    1.4396 H   0  0  0  0  0  0  0  0  0  0  0  0
    3.0865   -0.9323   -1.5858 H   0  0  0  0  0  0  0  0  0  0  0  0
    3.0621    0.5977   -2.5149 H   0  0  0  0  0  0  0  0  0  0  0  0
    5.1973    1.2421   -1.1472 H   0  0  0  0  0  0  0  0  0  0  0  0
    5.3051    0.1098   -2.5061 H   0  0  0  0  0  0  0  0  0  0  0  0
    7.3349    0.3502   -0.4214 H   0  0  0  0  0  0  0  0  0  0  0  0
    7.3690   -0.8274   -1.7496 H   0  0  0  0  0  0  0  0  0  0  0  0
    7.5398   -2.7068   -0.1246 H   0  0  0  0  0  0  0  0  0  0  0  0
    8.8223   -1.5205    0.1532 H   0  0  0  0  0  0  0  0  0  0  0  0
    5.6542   -2.7210    1.4021 H   0  0  0  0  0  0  0  0  0  0  0  0
    5.6375   -1.5335    2.7124 H   0  0  0  0  0  0  0  0  0  0  0  0
    4.0833   -0.8954    0.8839 H   0  0  0  0  0  0  0  0  0  0  0  0
    5.3442    0.3308    1.1441 H   0  0  0  0  0  0  0  0  0  0  0  0
    0.9121   -0.3639   -2.1548 H   0  0  0  0  0  0  0  0  0  0  0  0
   -1.4932   -0.3090   -1.7439 H   0  0  0  0  0  0  0  0  0  0  0  0
   -5.9307    6.4203   -1.4184 H   0  0  0  0  0  0  0  0  0  0  0  0
   -5.6212    6.8524    0.2820 H   0  0  0  0  0  0  0  0  0  0  0  0
  1  2  1  0
  2  3  1  0
  3  4  2  0
  4  5  1  0
  5  6  2  0
  6  7  1  0
  7  8  2  0
  8  9  1  0
  9 10  1  0
 10 11  1  0
 11 12  2  0
 12 13  1  0
 13 14  2  0
 14 15  1  0
 15 16  2  0
 16 17  1  0
 17 18  1  0
 18 19  2  0
 19 20  1  0
 20 21  2  0
 21 22  1  0
 22 23  1  0
 23 24  1  0
 24 25  1  0
 25 26  1  0
 26 27  1  0
 27 28  1  0
 28 29  1  0
 29 30  1  0
 21 31  1  0
 31 32  2  0
 14 33  1  0
 33 34  1  0
 34 35  1  0
  8  3  1  0
 17  9  2  0
 32 18  1  0
 16 11  1  0
 30 25  1  0
 35 13  1  0
  1 36  1  0
  1 37  1  0
  1 38  1  0
  4 39  1  0
  5 40  1  0
  6 41  1  0
  7 42  1  0
 12 43  1  0
 15 44  1  0
 19 45  1  0
 20 46  1  0
 23 47  1  0
 23 48  1  0
 24 49  1  0
 24 50  1  0
 26 51  1  0
 26 52  1  0
 27 53  1  0
 27 54  1  0
 29 55  1  0
 29 56  1  0
 30 57  1  0
 30 58  1  0
 31 59  1  0
 32 60  1  0
 34 61  1  0
 34 62  1  0
M  END
$$$$
