
     RDKit          3D

 48 52  0  0  0  0  0  0  0  0999 V2000
   -2.8469   -3.2814   -1.0845 C   0  0  0  0  0  0  0  0  0  0  0  0
   -2.4546   -1.9504   -0.6810 N   0  0  0  0  0  0  0  0  0  0  0  0
   -1.1632   -1.5077   -0.6207 C   0  0  0  0  0  0  0  0  0  0  0  0
   -1.1631   -0.1829   -0.2144 C   0  0  0  0  0  0  0  0  0  0  0  0
    0.0199    0.7233    0.0142 C   0  0  0  0  0  0  0  0  0  0  0  0
    0.1628    1.6572   -1.1908 C   0  0  0  0  0  0  0  0  0  0  0  0
    0.5363    2.9872   -0.9636 C   0  0  0  0  0  0  0  0  0  0  0  0
    0.6825    3.8535   -2.0445 C   0  0  0  0  0  0  0  0  0  0  0  0
    0.4592    3.3808   -3.3301 C   0  0  0  0  0  0  0  0  0  0  0  0
    0.1046    2.0529   -3.4833 C   0  0  0  0  0  0  0  0  0  0  0  0
   -0.0377    1.1889   -2.4561 N   0  0  0  0  0  0  0  0  0  0  0  0
    1.3477    0.0349    0.2288 C   0  0  0  0  0  0  0  0  0  0  0  0
    2.2248   -0.4732   -0.7173 C   0  0  0  0  0  0  0  0  0  0  0  0
    3.3081   -1.0046   -0.0774 N   0  0  0  0  0  0  0  0  0  0  0  0
    4.4338   -1.6201   -0.7428 C   0  0  0  0  0  0  0  0  0  0  0  0
    3.1688   -0.8756    1.2863 C   0  0  0  0  0  0  0  0  0  0  0  0
    4.0101   -1.2702    2.3393 C   0  0  0  0  0  0  0  0  0  0  0  0
    3.5923   -1.0129    3.6477 C   0  0  0  0  0  0  0  0  0  0  0  0
    2.3764   -0.3864    3.8986 C   0  0  0  0  0  0  0  0  0  0  0  0
    1.5465    0.0042    2.8422 C   0  0  0  0  0  0  0  0  0  0  0  0
    1.9451   -0.2369    1.5090 C   0  0  0  0  0  0  0  0  0  0  0  0
   -2.5430    0.1710   -0.0083 C   0  0  0  0  0  0  0  0  0  0  0  0
   -3.1958    1.3536    0.4040 C   0  0  0  0  0  0  0  0  0  0  0  0
   -4.5904    1.3773    0.5130 C   0  0  0  0  0  0  0  0  0  0  0  0
   -5.3416    0.2446    0.2177 C   0  0  0  0  0  0  0  0  0  0  0  0
   -4.7234   -0.9386   -0.1955 C   0  0  0  0  0  0  0  0  0  0  0  0
   -3.3230   -0.9514   -0.3016 C   0  0  0  0  0  0  0  0  0  0  0  0
   -3.4986   -3.2004   -1.9583 H   0  0  0  0  0  0  0  0  0  0  0  0
   -1.9588   -3.8652   -1.3399 H   0  0  0  0  0  0  0  0  0  0  0  0
   -3.3728   -3.7547   -0.2514 H   0  0  0  0  0  0  0  0  0  0  0  0
   -0.3361   -2.1568   -0.8776 H   0  0  0  0  0  0  0  0  0  0  0  0
   -0.2030    1.3363    0.8982 H   0  0  0  0  0  0  0  0  0  0  0  0
    0.7186    3.3465    0.0446 H   0  0  0  0  0  0  0  0  0  0  0  0
    0.9704    4.8879   -1.8818 H   0  0  0  0  0  0  0  0  0  0  0  0
    0.5613    4.0292   -4.1923 H   0  0  0  0  0  0  0  0  0  0  0  0
   -0.0804    1.6319   -4.4669 H   0  0  0  0  0  0  0  0  0  0  0  0
    2.1462   -0.4874   -1.7980 H   0  0  0  0  0  0  0  0  0  0  0  0
    4.2848   -1.5859   -1.8252 H   0  0  0  0  0  0  0  0  0  0  0  0
    4.5050   -2.6596   -0.4126 H   0  0  0  0  0  0  0  0  0  0  0  0
    5.3379   -1.0662   -0.4773 H   0  0  0  0  0  0  0  0  0  0  0  0
    4.9575   -1.7648    2.1522 H   0  0  0  0  0  0  0  0  0  0  0  0
    4.2253   -1.3116    4.4798 H   0  0  0  0  0  0  0  0  0  0  0  0
    2.0640   -0.2008    4.9231 H   0  0  0  0  0  0  0  0  0  0  0  0
    0.5956    0.4835    3.0553 H   0  0  0  0  0  0  0  0  0  0  0  0
   -2.6234    2.2478    0.6299 H   0  0  0  0  0  0  0  0  0  0  0  0
   -5.0887    2.2904    0.8276 H   0  0  0  0  0  0  0  0  0  0  0  0
   -6.4247    0.2794    0.3053 H   0  0  0  0  0  0  0  0  0  0  0  0
   -5.3163   -1.8168   -0.4281 H   0  0  0  0  0  0  0  0  0  0  0  0
  1  2  1  0
  2  3  1  0
  3  4  2  0
  4  5  1  0
  5  6  1  0
  6  7  2  0
  7  8  1  0
  8  9  2  0
  9 10  1  0
 10 11  2  0
  5 12  1  0
 12 13  2  0
 13 14  1  0
 14 15  1  0
 14 16  1  0
 16 17  2  0
 17 18  1  0
 18 19  2  0
 19 20  1  0
 20 21  2  0
  4 22  1  0
 22 23  2  0
 23 24  1  0
 24 25  2  0
 25 26  1  0
 26 27  2  0
 27  2  1  0
 11  6  1  0
 21 12  1  0
 27 22  1  0
 21 16  1  0
  1 28  1  0
  1 29  1  0
  1 30  1  0
  3 31  1  0
  5 32  1  0
  7 33  1  0
  8 34  1  0
  9 35  1  0
 10 36  1  0
 13 37  1  0
 15 38  1  0
 15 39  1  0
 15 40  1  0
 17 41  1  0
 18 42  1  0
 19 43  1  0
 20 44  1  0
 23 45  1  0
 24 46  1  0
 25 47  1  0
 26 48  1  0
M  END
$$$$
