
     RDKit          3D

 55 60  0  0  0  0  0  0  0  0999 V2000
    5.3094   -0.2272   -0.1276 O   0  0  0  0  0  0  0  0  0  0  0  0
    4.3992   -0.2574    0.6991 C   0  0  0  0  0  0  0  0  0  0  0  0
    4.7102   -0.4261    2.1108 C   0  0  0  0  0  0  0  0  0  0  0  0
    5.8666    0.0487    2.7988 C   0  0  0  0  0  0  0  0  0  0  0  0
    5.7577   -0.3798    4.0999 C   0  0  0  0  0  0  0  0  0  0  0  0
    4.6278   -1.1133    4.2607 O   0  0  0  0  0  0  0  0  0  0  0  0
    4.0123   -1.1579    3.0513 C   0  0  0  0  0  0  0  0  0  0  0  0
    3.0594   -0.1431    0.3083 N   0  0  0  0  0  0  0  0  0  0  0  0
    1.9728    0.2727    1.1922 C   0  0  0  0  0  0  0  0  0  0  0  0
    0.9971    1.2319    0.5115 C   0  0  0  0  0  0  0  0  0  0  0  0
    0.4293    0.7170   -0.8473 C   0  0  0  0  0  0  0  0  0  0  0  0
    1.3086   -0.4336   -1.3984 C   0  0  0  0  0  0  0  0  0  0  0  0
    2.7831   -0.1671   -1.1226 C   0  0  0  0  0  0  0  0  0  0  0  0
    0.5979    1.8660   -1.7299 O   0  0  0  0  0  0  0  0  0  0  0  0
   -0.1389    1.9102   -2.8768 C   0  0  0  0  0  0  0  0  0  0  0  0
    0.2302    2.8840   -3.8062 C   0  0  0  0  0  0  0  0  0  0  0  0
   -0.4505    2.9830   -5.0211 C   0  0  0  0  0  0  0  0  0  0  0  0
   -1.4970    2.1082   -5.2971 C   0  0  0  0  0  0  0  0  0  0  0  0
   -2.1429    2.2034   -6.4659 F   0  0  0  0  0  0  0  0  0  0  0  0
   -1.8830    1.1412   -4.3787 C   0  0  0  0  0  0  0  0  0  0  0  0
   -1.2028    1.0583   -3.1617 C   0  0  0  0  0  0  0  0  0  0  0  0
   -1.5915    0.0648   -2.1533 C   0  0  0  0  0  0  0  0  0  0  0  0
   -2.2795   -0.9000   -2.4749 O   0  0  0  0  0  0  0  0  0  0  0  0
   -1.0708    0.3180   -0.7435 C   0  0  0  0  0  0  0  0  0  0  0  0
   -1.3762   -0.8522    0.1781 C   0  0  0  0  0  0  0  0  0  0  0  0
   -2.6753   -0.3712    0.7317 C   0  0  0  0  0  0  0  0  0  0  0  0
   -3.5991   -1.2623    1.4728 C   0  0  0  0  0  0  0  0  0  0  0  0
   -3.2707   -2.5947    1.7498 C   0  0  0  0  0  0  0  0  0  0  0  0
   -4.1669   -3.4046    2.4560 C   0  0  0  0  0  0  0  0  0  0  0  0
   -5.3869   -2.8847    2.8857 C   0  0  0  0  0  0  0  0  0  0  0  0
   -6.4832   -3.8851    3.7544 Cl  0  0  0  0  0  0  0  0  0  0  0  0
   -5.7215   -1.5601    2.6160 C   0  0  0  0  0  0  0  0  0  0  0  0
   -4.8280   -0.7492    1.9105 C   0  0  0  0  0  0  0  0  0  0  0  0
   -2.9061    0.8896    0.5462 N   0  0  0  0  0  0  0  0  0  0  0  0
   -1.8305    1.4137   -0.2035 O   0  0  0  0  0  0  0  0  0  0  0  0
    6.6753    0.6333    2.3814 H   0  0  0  0  0  0  0  0  0  0  0  0
    6.3727   -0.2654    4.9820 H   0  0  0  0  0  0  0  0  0  0  0  0
    3.1095   -1.7511    3.0201 H   0  0  0  0  0  0  0  0  0  0  0  0
    1.4568   -0.6368    1.5144 H   0  0  0  0  0  0  0  0  0  0  0  0
    2.3742    0.7646    2.0833 H   0  0  0  0  0  0  0  0  0  0  0  0
    1.5264    2.1821    0.3521 H   0  0  0  0  0  0  0  0  0  0  0  0
    0.1929    1.4676    1.2174 H   0  0  0  0  0  0  0  0  0  0  0  0
    1.1786   -0.5471   -2.4805 H   0  0  0  0  0  0  0  0  0  0  0  0
    1.0308   -1.3889   -0.9372 H   0  0  0  0  0  0  0  0  0  0  0  0
    3.3950   -0.9483   -1.5887 H   0  0  0  0  0  0  0  0  0  0  0  0
    3.1003    0.7933   -1.5464 H   0  0  0  0  0  0  0  0  0  0  0  0
    1.0522    3.5621   -3.5887 H   0  0  0  0  0  0  0  0  0  0  0  0
   -0.1707    3.7340   -5.7539 H   0  0  0  0  0  0  0  0  0  0  0  0
   -2.7084    0.4749   -4.6109 H   0  0  0  0  0  0  0  0  0  0  0  0
   -0.6785   -0.9395    1.0135 H   0  0  0  0  0  0  0  0  0  0  0  0
   -1.4569   -1.8145   -0.3316 H   0  0  0  0  0  0  0  0  0  0  0  0
   -2.3286   -3.0290    1.4299 H   0  0  0  0  0  0  0  0  0  0  0  0
   -3.9085   -4.4396    2.6666 H   0  0  0  0  0  0  0  0  0  0  0  0
   -6.6723   -1.1512    2.9480 H   0  0  0  0  0  0  0  0  0  0  0  0
   -5.1006    0.2844    1.7034 H   0  0  0  0  0  0  0  0  0  0  0  0
  1  2  2  0
  2  3  1  0
  3  4  1  0
  4  5  2  0
  5  6  1  0
  6  7  1  0
  2  8  1  0
  8  9  1  0
  9 10  1  0
 10 11  1  0
 11 12  1  0
 12 13  1  0
 11 14  1  0
 14 15  1  0
 15 16  2  0
 16 17  1  0
 17 18  2  0
 18 19  1  0
 18 20  1  0
 20 21  2  0
 21 22  1  0
 22 23  2  0
 22 24  1  0
 24 25  1  0
 25 26  1  0
 26 27  1  0
 27 28  2  0
 28 29  1  0
 29 30  2  0
 30 31  1  0
 30 32  1  0
 32 33  2  0
 26 34  2  0
 34 35  1  0
  7  3  2  0
 13  8  1  0
 21 15  1  0
 35 24  1  0
 24 11  1  0
 33 27  1  0
  4 36  1  0
  5 37  1  0
  7 38  1  0
  9 39  1  0
  9 40  1  0
 10 41  1  0
 10 42  1  0
 12 43  1  0
 12 44  1  0
 13 45  1  0
 13 46  1  0
 16 47  1  0
 17 48  1  0
 20 49  1  0
 25 50  1  0
 25 51  1  0
 28 52  1  0
 29 53  1  0
 32 54  1  0
 33 55  1  0
M  END
$$$$
