
     RDKit          3D

 53 55  0  0  0  0  0  0  0  0999 V2000
    8.4990    2.4524   -0.2437 C   0  0  0  0  0  0  0  0  0  0  0  0
    7.6351    2.3914    0.8842 O   0  0  0  0  0  0  0  0  0  0  0  0
    6.6030    1.4964    0.8301 C   0  0  0  0  0  0  0  0  0  0  0  0
    5.8115    1.4512    1.9826 C   0  0  0  0  0  0  0  0  0  0  0  0
    4.7227    0.5809    2.0689 C   0  0  0  0  0  0  0  0  0  0  0  0
    4.4104   -0.2356    0.9805 C   0  0  0  0  0  0  0  0  0  0  0  0
    3.0543   -1.3852    1.0918 S   0  0  0  0  0  6  0  0  0  0  0  0
    3.3484   -2.4849    0.1978 O   0  0  0  0  0  0  0  0  0  0  0  0
    2.7950   -1.6155    2.4973 O   0  0  0  0  0  0  0  0  0  0  0  0
    1.7428   -0.5598    0.4632 N   0  0  0  0  0  0  0  0  0  0  0  0
    1.7142   -0.1966   -0.9520 C   0  0  0  0  0  0  0  0  0  0  0  0
    0.5563    0.7741   -1.0000 C   0  0  0  0  0  0  0  0  0  0  0  0
    0.6245    1.4761    0.2457 O   0  0  0  0  0  0  0  0  0  0  0  0
    1.1819    0.5712    1.2201 C   0  0  0  0  0  0  0  0  0  0  0  0
    0.0964    0.1044    2.2200 C   0  0  0  0  0  0  0  0  0  0  0  0
   -0.8881   -0.7934    1.6351 N   0  0  0  0  0  0  0  0  0  0  0  0
   -2.1250   -0.3689    1.2156 C   0  0  0  0  0  0  0  0  0  0  0  0
   -2.6151    0.7366    1.3982 O   0  0  0  0  0  0  0  0  0  0  0  0
   -2.9122   -1.4372    0.4215 C   0  0  0  0  0  0  0  0  0  0  0  0
   -2.4022   -2.5183    0.1642 O   0  0  0  0  0  0  0  0  0  0  0  0
   -4.1656   -1.0236    0.0403 N   0  0  0  0  0  0  0  0  0  0  0  0
   -4.9729   -1.8099   -0.8535 C   0  0  0  0  0  0  0  0  0  0  0  0
   -6.2821   -1.1290   -1.1516 C   0  0  0  0  0  0  0  0  0  0  0  0
   -7.3934   -1.3991   -0.3311 C   0  0  0  0  0  0  0  0  0  0  0  0
   -8.6213   -0.7723   -0.5564 C   0  0  0  0  0  0  0  0  0  0  0  0
   -8.7568    0.1395   -1.5999 C   0  0  0  0  0  0  0  0  0  0  0  0
   -7.6623    0.4288   -2.4154 C   0  0  0  0  0  0  0  0  0  0  0  0
   -6.4309   -0.1966   -2.1913 C   0  0  0  0  0  0  0  0  0  0  0  0
   -5.1141    0.2355   -3.2261 Cl  0  0  0  0  0  0  0  0  0  0  0  0
    5.2117   -0.2197   -0.1652 C   0  0  0  0  0  0  0  0  0  0  0  0
    6.3015    0.6545   -0.2422 C   0  0  0  0  0  0  0  0  0  0  0  0
    7.9568    2.7799   -1.1367 H   0  0  0  0  0  0  0  0  0  0  0  0
    9.2741    3.1964   -0.0328 H   0  0  0  0  0  0  0  0  0  0  0  0
    8.9965    1.4919   -0.4123 H   0  0  0  0  0  0  0  0  0  0  0  0
    6.0564    2.0938    2.8261 H   0  0  0  0  0  0  0  0  0  0  0  0
    4.1399    0.5433    2.9862 H   0  0  0  0  0  0  0  0  0  0  0  0
    1.5503   -1.0583   -1.6031 H   0  0  0  0  0  0  0  0  0  0  0  0
    2.6340    0.3186   -1.2420 H   0  0  0  0  0  0  0  0  0  0  0  0
    0.6278    1.4790   -1.8327 H   0  0  0  0  0  0  0  0  0  0  0  0
   -0.4062    0.2563   -1.0601 H   0  0  0  0  0  0  0  0  0  0  0  0
    1.9493    1.1369    1.7541 H   0  0  0  0  0  0  0  0  0  0  0  0
    0.5530   -0.4446    3.0485 H   0  0  0  0  0  0  0  0  0  0  0  0
   -0.4215    0.9783    2.6301 H   0  0  0  0  0  0  0  0  0  0  0  0
   -0.5820   -1.7098    1.3147 H   0  0  0  0  0  0  0  0  0  0  0  0
   -4.3913   -0.0468    0.2168 H   0  0  0  0  0  0  0  0  0  0  0  0
   -5.1437   -2.7883   -0.3873 H   0  0  0  0  0  0  0  0  0  0  0  0
   -4.4018   -2.0149   -1.7654 H   0  0  0  0  0  0  0  0  0  0  0  0
   -7.3043   -2.1025    0.4959 H   0  0  0  0  0  0  0  0  0  0  0  0
   -9.4712   -0.9933    0.0867 H   0  0  0  0  0  0  0  0  0  0  0  0
   -9.7117    0.6300   -1.7756 H   0  0  0  0  0  0  0  0  0  0  0  0
   -7.7736    1.1488   -3.2227 H   0  0  0  0  0  0  0  0  0  0  0  0
    5.0024   -0.8884   -0.9975 H   0  0  0  0  0  0  0  0  0  0  0  0
    6.8998    0.6464   -1.1477 H   0  0  0  0  0  0  0  0  0  0  0  0
  1  2  1  0
  2  3  1  0
  3  4  2  0
  4  5  1  0
  5  6  2  0
  6  7  1  0
  7  8  2  0
  7  9  2  0
  7 10  1  0
 10 11  1  0
 11 12  1  0
 12 13  1  0
 13 14  1  0
 14 15  1  0
 15 16  1  0
 16 17  1  0
 17 18  2  0
 17 19  1  0
 19 20  2  0
 19 21  1  0
 21 22  1  0
 22 23  1  0
 23 24  2  0
 24 25  1  0
 25 26  2  0
 26 27  1  0
 27 28  2  0
 28 29  1  0
  6 30  1  0
 30 31  2  0
 31  3  1  0
 14 10  1  0
 28 23  1  0
  1 32  1  0
  1 33  1  0
  1 34  1  0
  4 35  1  0
  5 36  1  0
 11 37  1  0
 11 38  1  0
 12 39  1  0
 12 40  1  0
 14 41  1  0
 15 42  1  0
 15 43  1  0
 16 44  1  0
 21 45  1  0
 22 46  1  0
 22 47  1  0
 24 48  1  0
 25 49  1  0
 26 50  1  0
 27 51  1  0
 30 52  1  0
 31 53  1  0
M  END
$$$$
