
     RDKit          3D

 53 56  0  0  0  0  0  0  0  0999 V2000
   -8.5630    1.1365   -1.9966 C   0  0  0  0  0  0  0  0  0  0  0  0
   -7.2063    0.9732   -1.3785 C   0  0  0  0  0  0  0  0  0  0  0  0
   -6.2607    1.9976   -1.4710 C   0  0  0  0  0  0  0  0  0  0  0  0
   -4.9841    1.8352   -0.9245 C   0  0  0  0  0  0  0  0  0  0  0  0
   -4.6302    0.6451   -0.2675 C   0  0  0  0  0  0  0  0  0  0  0  0
   -3.3131    0.5221    0.2753 N   0  0  0  0  0  0  0  0  0  0  0  0
   -2.3542    1.3939   -0.1402 N   0  0  0  0  0  0  0  0  0  0  0  0
   -1.2093    0.9049    0.3413 C   0  0  0  0  0  0  0  0  0  0  0  0
    0.1266    1.4354    0.1043 C   0  0  0  0  0  0  0  0  0  0  0  0
    0.3637    2.4032   -0.6165 O   0  0  0  0  0  0  0  0  0  0  0  0
    1.1214    0.7335    0.8126 N   0  0  0  0  0  0  0  0  0  0  0  0
    2.5082    1.1097    0.5981 C   0  0  0  0  0  0  0  0  0  0  0  0
    3.0804    0.4316   -0.6491 C   0  0  0  0  0  0  0  0  0  0  0  0
    2.4769   -0.3928   -1.3313 O   0  0  0  0  0  0  0  0  0  0  0  0
    4.3762    0.8276   -0.9387 N   0  0  0  0  0  0  0  0  0  0  0  0
    5.1357    0.1916   -2.0005 C   0  0  0  0  0  0  0  0  0  0  0  0
    5.7329   -1.1576   -1.5839 C   0  0  0  0  0  0  0  0  0  0  0  0
    6.8000   -1.0034   -0.5333 C   0  0  0  0  0  0  0  0  0  0  0  0
    8.1358   -0.7006   -0.7130 C   0  0  0  0  0  0  0  0  0  0  0  0
    8.8468   -0.6349    0.5199 C   0  0  0  0  0  0  0  0  0  0  0  0
    8.0324   -0.8945    1.5991 C   0  0  0  0  0  0  0  0  0  0  0  0
    6.4216   -1.2145    1.1253 S   0  0  0  0  0  0  0  0  0  0  0  0
    0.8986   -0.3671    1.6490 N   0  0  0  0  0  0  0  0  0  0  0  0
   -0.3043   -0.8381    1.8270 C   0  0  0  0  0  0  0  0  0  0  0  0
   -0.4753   -2.0357    2.7175 C   0  0  0  0  0  0  0  0  0  0  0  0
   -1.4217   -0.1963    1.1779 C   0  0  0  0  0  0  0  0  0  0  0  0
   -2.7944   -0.3795    1.2139 C   0  0  0  0  0  0  0  0  0  0  0  0
   -3.6148   -1.2670    2.0778 C   0  0  0  0  0  0  0  0  0  0  0  0
   -5.5648   -0.3942   -0.2128 C   0  0  0  0  0  0  0  0  0  0  0  0
   -6.8422   -0.2285   -0.7632 C   0  0  0  0  0  0  0  0  0  0  0  0
   -8.5250    0.8742   -3.0582 H   0  0  0  0  0  0  0  0  0  0  0  0
   -8.9126    2.1693   -1.8968 H   0  0  0  0  0  0  0  0  0  0  0  0
   -9.3000    0.4953   -1.5015 H   0  0  0  0  0  0  0  0  0  0  0  0
   -6.5064    2.9317   -1.9718 H   0  0  0  0  0  0  0  0  0  0  0  0
   -4.2746    2.6572   -1.0137 H   0  0  0  0  0  0  0  0  0  0  0  0
    2.5829    2.1957    0.4762 H   0  0  0  0  0  0  0  0  0  0  0  0
    3.0992    0.8106    1.4708 H   0  0  0  0  0  0  0  0  0  0  0  0
    4.8964    1.3403   -0.2372 H   0  0  0  0  0  0  0  0  0  0  0  0
    4.4728    0.0448   -2.8607 H   0  0  0  0  0  0  0  0  0  0  0  0
    5.9213    0.8949   -2.2976 H   0  0  0  0  0  0  0  0  0  0  0  0
    6.1812   -1.6310   -2.4666 H   0  0  0  0  0  0  0  0  0  0  0  0
    4.9443   -1.8354   -1.2349 H   0  0  0  0  0  0  0  0  0  0  0  0
    8.5858   -0.5346   -1.6849 H   0  0  0  0  0  0  0  0  0  0  0  0
    9.9032   -0.4136    0.6102 H   0  0  0  0  0  0  0  0  0  0  0  0
    8.3056   -0.9166    2.6452 H   0  0  0  0  0  0  0  0  0  0  0  0
   -0.9140   -1.7228    3.6686 H   0  0  0  0  0  0  0  0  0  0  0  0
   -1.1208   -2.7762    2.2383 H   0  0  0  0  0  0  0  0  0  0  0  0
    0.4946   -2.5000    2.9196 H   0  0  0  0  0  0  0  0  0  0  0  0
   -3.1306   -1.4273    3.0450 H   0  0  0  0  0  0  0  0  0  0  0  0
   -4.5890   -0.8270    2.3100 H   0  0  0  0  0  0  0  0  0  0  0  0
   -3.7559   -2.2446    1.6075 H   0  0  0  0  0  0  0  0  0  0  0  0
   -5.3279   -1.3667    0.2010 H   0  0  0  0  0  0  0  0  0  0  0  0
   -7.5492   -1.0547   -0.7193 H   0  0  0  0  0  0  0  0  0  0  0  0
  1  2  1  0
  2  3  2  0
  3  4  1  0
  4  5  2  0
  5  6  1  0
  6  7  1  0
  7  8  2  0
  8  9  1  0
  9 10  2  0
  9 11  1  0
 11 12  1  0
 12 13  1  0
 13 14  2  0
 13 15  1  0
 15 16  1  0
 16 17  1  0
 17 18  1  0
 18 19  2  0
 19 20  1  0
 20 21  2  0
 21 22  1  0
 11 23  1  0
 23 24  2  0
 24 25  1  0
 24 26  1  0
 26 27  2  0
 27 28  1  0
  5 29  1  0
 29 30  2  0
 30  2  1  0
 27  6  1  0
 26  8  1  0
 22 18  1  0
  1 31  1  0
  1 32  1  0
  1 33  1  0
  3 34  1  0
  4 35  1  0
 12 36  1  0
 12 37  1  0
 15 38  1  0
 16 39  1  0
 16 40  1  0
 17 41  1  0
 17 42  1  0
 19 43  1  0
 20 44  1  0
 21 45  1  0
 25 46  1  0
 25 47  1  0
 25 48  1  0
 28 49  1  0
 28 50  1  0
 28 51  1  0
 29 52  1  0
 30 53  1  0
M  END
$$$$
