
     RDKit          3D

 61 67  0  0  0  0  0  0  0  0999 V2000
    3.6255   -1.1276    2.7602 O   0  0  0  0  0  0  0  0  0  0  0  0
    3.2678   -0.7965    1.6331 C   0  0  0  0  0  0  0  0  0  0  0  0
    4.3000   -0.2690    0.7149 C   0  0  0  0  0  0  0  0  0  0  0  0
    4.5504   -0.9085   -0.5183 C   0  0  0  0  0  0  0  0  0  0  0  0
    5.5399   -0.4189   -1.3750 C   0  0  0  0  0  0  0  0  0  0  0  0
    6.2535    0.6867   -0.9612 C   0  0  0  0  0  0  0  0  0  0  0  0
    6.0190    1.2953    0.2518 C   0  0  0  0  0  0  0  0  0  0  0  0
    5.0531    0.8384    1.1210 C   0  0  0  0  0  0  0  0  0  0  0  0
    6.8377    2.3602    0.4631 O   0  0  0  0  0  0  0  0  0  0  0  0
    7.6271    2.3422   -0.7443 C   0  0  0  0  0  0  0  0  0  0  0  0
    7.2487    1.2937   -1.6613 O   0  0  0  0  0  0  0  0  0  0  0  0
    1.9539   -0.8975    1.1775 N   0  0  0  0  0  0  0  0  0  0  0  0
    0.9638   -1.4977    2.0647 C   0  0  0  0  0  0  0  0  0  0  0  0
   -0.1590   -2.1441    1.2628 C   0  0  0  0  0  0  0  0  0  0  0  0
   -0.9094   -1.1365    0.3351 C   0  0  0  0  0  0  0  0  0  0  0  0
   -0.0249    0.1204    0.1047 C   0  0  0  0  0  0  0  0  0  0  0  0
    1.4513   -0.2450   -0.0308 C   0  0  0  0  0  0  0  0  0  0  0  0
   -1.0383   -1.7280   -0.9875 O   0  0  0  0  0  0  0  0  0  0  0  0
   -1.9604   -2.7289   -1.1097 C   0  0  0  0  0  0  0  0  0  0  0  0
   -1.8189   -3.5622   -2.2204 C   0  0  0  0  0  0  0  0  0  0  0  0
   -2.7070   -4.6214   -2.4134 C   0  0  0  0  0  0  0  0  0  0  0  0
   -3.7327   -4.8352   -1.4978 C   0  0  0  0  0  0  0  0  0  0  0  0
   -4.5817   -5.8524   -1.6881 F   0  0  0  0  0  0  0  0  0  0  0  0
   -3.8950   -4.0047   -0.3966 C   0  0  0  0  0  0  0  0  0  0  0  0
   -3.0067   -2.9418   -0.2127 C   0  0  0  0  0  0  0  0  0  0  0  0
   -3.1819   -2.0100    0.9163 C   0  0  0  0  0  0  0  0  0  0  0  0
   -4.0246   -2.2514    1.7743 O   0  0  0  0  0  0  0  0  0  0  0  0
   -2.3147   -0.7550    0.8818 C   0  0  0  0  0  0  0  0  0  0  0  0
   -3.0759    0.3020    0.0896 C   0  0  0  0  0  0  0  0  0  0  0  0
   -2.9244    1.4574    1.0155 C   0  0  0  0  0  0  0  0  0  0  0  0
   -3.3102    2.8341    0.6250 C   0  0  0  0  0  0  0  0  0  0  0  0
   -3.9369    3.0999   -0.5986 C   0  0  0  0  0  0  0  0  0  0  0  0
   -4.2802    4.4132   -0.9378 C   0  0  0  0  0  0  0  0  0  0  0  0
   -3.9997    5.4569   -0.0570 C   0  0  0  0  0  0  0  0  0  0  0  0
   -4.4198    7.0690   -0.4824 Cl  0  0  0  0  0  0  0  0  0  0  0  0
   -3.3809    5.2006    1.1642 C   0  0  0  0  0  0  0  0  0  0  0  0
   -3.0377    3.8898    1.5060 C   0  0  0  0  0  0  0  0  0  0  0  0
   -2.4322    1.1650    2.1754 N   0  0  0  0  0  0  0  0  0  0  0  0
   -2.2018   -0.2285    2.2083 O   0  0  0  0  0  0  0  0  0  0  0  0
    3.9854   -1.7945   -0.7972 H   0  0  0  0  0  0  0  0  0  0  0  0
    5.7505   -0.8955   -2.3258 H   0  0  0  0  0  0  0  0  0  0  0  0
    4.8863    1.3147    2.0809 H   0  0  0  0  0  0  0  0  0  0  0  0
    7.5143    3.3075   -1.2510 H   0  0  0  0  0  0  0  0  0  0  0  0
    8.6807    2.2079   -0.4729 H   0  0  0  0  0  0  0  0  0  0  0  0
    1.4442   -2.2504    2.6998 H   0  0  0  0  0  0  0  0  0  0  0  0
    0.5804   -0.7116    2.7255 H   0  0  0  0  0  0  0  0  0  0  0  0
    0.2739   -2.9523    0.6577 H   0  0  0  0  0  0  0  0  0  0  0  0
   -0.8476   -2.6299    1.9631 H   0  0  0  0  0  0  0  0  0  0  0  0
   -0.1185    0.8268    0.9366 H   0  0  0  0  0  0  0  0  0  0  0  0
   -0.3321    0.6446   -0.8082 H   0  0  0  0  0  0  0  0  0  0  0  0
    1.5998   -0.9364   -0.8677 H   0  0  0  0  0  0  0  0  0  0  0  0
    2.0318    0.6611   -0.2320 H   0  0  0  0  0  0  0  0  0  0  0  0
   -1.0110   -3.3970   -2.9294 H   0  0  0  0  0  0  0  0  0  0  0  0
   -2.6042   -5.2835   -3.2683 H   0  0  0  0  0  0  0  0  0  0  0  0
   -4.7108   -4.1861    0.2979 H   0  0  0  0  0  0  0  0  0  0  0  0
   -2.6522    0.4995   -0.8976 H   0  0  0  0  0  0  0  0  0  0  0  0
   -4.1429    0.0771   -0.0177 H   0  0  0  0  0  0  0  0  0  0  0  0
   -4.1758    2.3072   -1.3014 H   0  0  0  0  0  0  0  0  0  0  0  0
   -4.7685    4.6155   -1.8883 H   0  0  0  0  0  0  0  0  0  0  0  0
   -3.1636    6.0114    1.8549 H   0  0  0  0  0  0  0  0  0  0  0  0
   -2.5570    3.7000    2.4647 H   0  0  0  0  0  0  0  0  0  0  0  0
  1  2  2  0
  2  3  1  0
  3  4  2  0
  4  5  1  0
  5  6  2  0
  6  7  1  0
  7  8  2  0
  7  9  1  0
  9 10  1  0
 10 11  1  0
  2 12  1  0
 12 13  1  0
 13 14  1  0
 14 15  1  0
 15 16  1  0
 16 17  1  0
 15 18  1  0
 18 19  1  0
 19 20  2  0
 20 21  1  0
 21 22  2  0
 22 23  1  0
 22 24  1  0
 24 25  2  0
 25 26  1  0
 26 27  2  0
 26 28  1  0
 28 29  1  0
 29 30  1  0
 30 31  1  0
 31 32  2  0
 32 33  1  0
 33 34  2  0
 34 35  1  0
 34 36  1  0
 36 37  2  0
 30 38  2  0
 38 39  1  0
  8  3  1  0
 17 12  1  0
 25 19  1  0
 39 28  1  0
 11  6  1  0
 28 15  1  0
 37 31  1  0
  4 40  1  0
  5 41  1  0
  8 42  1  0
 10 43  1  0
 10 44  1  0
 13 45  1  0
 13 46  1  0
 14 47  1  0
 14 48  1  0
 16 49  1  0
 16 50  1  0
 17 51  1  0
 17 52  1  0
 20 53  1  0
 21 54  1  0
 24 55  1  0
 29 56  1  0
 29 57  1  0
 32 58  1  0
 33 59  1  0
 36 60  1  0
 37 61  1  0
M  END
$$$$
