
     RDKit          3D

 37 39  0  0  0  0  0  0  0  0999 V2000
   -4.2574    2.4213    0.8750 C   0  0  0  0  0  0  0  0  0  0  0  0
   -4.1536    1.0741    0.2136 C   0  0  0  0  0  0  0  0  0  0  0  0
   -4.8484    0.8351   -0.9816 C   0  0  0  0  0  0  0  0  0  0  0  0
   -4.7680   -0.4049   -1.6115 C   0  0  0  0  0  0  0  0  0  0  0  0
   -3.9944   -1.4165   -1.0518 C   0  0  0  0  0  0  0  0  0  0  0  0
   -3.2999   -1.1935    0.1400 C   0  0  0  0  0  0  0  0  0  0  0  0
   -3.3755    0.0475    0.7807 C   0  0  0  0  0  0  0  0  0  0  0  0
   -2.7225    0.3785    1.9404 O   0  0  0  0  0  0  0  0  0  0  0  0
   -1.9479   -0.6194    2.5920 C   0  0  0  0  0  0  0  0  0  0  0  0
   -0.5654   -0.8588    1.9727 C   0  0  0  0  0  0  0  0  0  0  0  0
    0.0270   -1.9166    2.1633 O   0  0  0  0  0  0  0  0  0  0  0  0
   -0.1139    0.2297    1.2614 N   0  0  0  0  0  0  0  0  0  0  0  0
    1.0762    0.3525    0.5940 C   0  0  0  0  0  0  0  0  0  0  0  0
    1.3859    1.4267   -0.0940 N   0  0  0  0  0  0  0  0  0  0  0  0
    2.6323    1.3265   -0.6768 N   0  0  0  0  0  0  0  0  0  0  0  0
    3.2299    0.1779   -0.4103 C   0  0  0  0  0  0  0  0  0  0  0  0
    4.5648   -0.1993   -0.9069 C   0  0  0  0  0  0  0  0  0  0  0  0
    5.2004   -1.4029   -0.5801 C   0  0  0  0  0  0  0  0  0  0  0  0
    6.4589   -1.6605   -1.1026 C   0  0  0  0  0  0  0  0  0  0  0  0
    7.1218   -0.8160   -1.9175 N   0  0  0  0  0  0  0  0  0  0  0  0
    6.5011    0.3398   -2.2255 C   0  0  0  0  0  0  0  0  0  0  0  0
    5.2460    0.6860   -1.7532 C   0  0  0  0  0  0  0  0  0  0  0  0
    2.2762   -0.8510    0.5891 S   0  0  0  0  0  0  0  0  0  0  0  0
   -3.2635    2.8670    0.9869 H   0  0  0  0  0  0  0  0  0  0  0  0
   -4.7264    2.3242    1.8592 H   0  0  0  0  0  0  0  0  0  0  0  0
   -4.8639    3.1141    0.2824 H   0  0  0  0  0  0  0  0  0  0  0  0
   -5.4572    1.6170   -1.4305 H   0  0  0  0  0  0  0  0  0  0  0  0
   -5.3079   -0.5810   -2.5384 H   0  0  0  0  0  0  0  0  0  0  0  0
   -3.9296   -2.3840   -1.5440 H   0  0  0  0  0  0  0  0  0  0  0  0
   -2.7095   -2.0164    0.5297 H   0  0  0  0  0  0  0  0  0  0  0  0
   -1.7699   -0.2642    3.6137 H   0  0  0  0  0  0  0  0  0  0  0  0
   -2.4974   -1.5633    2.6810 H   0  0  0  0  0  0  0  0  0  0  0  0
   -0.7416    1.0182    1.1466 H   0  0  0  0  0  0  0  0  0  0  0  0
    4.7480   -2.1448    0.0691 H   0  0  0  0  0  0  0  0  0  0  0  0
    6.9822   -2.5841   -0.8697 H   0  0  0  0  0  0  0  0  0  0  0  0
    7.0545    1.0043   -2.8833 H   0  0  0  0  0  0  0  0  0  0  0  0
    4.8087    1.6367   -2.0458 H   0  0  0  0  0  0  0  0  0  0  0  0
  1  2  1  0
  2  3  2  0
  3  4  1  0
  4  5  2  0
  5  6  1  0
  6  7  2  0
  7  8  1  0
  8  9  1  0
  9 10  1  0
 10 11  2  0
 10 12  1  0
 12 13  1  0
 13 14  2  0
 14 15  1  0
 15 16  2  0
 16 17  1  0
 17 18  2  0
 18 19  1  0
 19 20  2  0
 20 21  1  0
 21 22  2  0
 16 23  1  0
  7  2  1  0
 23 13  1  0
 22 17  1  0
  1 24  1  0
  1 25  1  0
  1 26  1  0
  3 27  1  0
  4 28  1  0
  5 29  1  0
  6 30  1  0
  9 31  1  0
  9 32  1  0
 12 33  1  0
 18 34  1  0
 19 35  1  0
 21 36  1  0
 22 37  1  0
M  END
$$$$
