
     RDKit          3D

 51 54  0  0  0  0  0  0  0  0999 V2000
    5.9116    2.0783   -4.2297 C   0  0  0  0  0  0  0  0  0  0  0  0
    5.8539    1.6309   -2.7772 C   0  0  0  0  0  0  0  0  0  0  0  0
    4.4447    1.6206   -2.2457 C   0  0  0  0  0  0  0  0  0  0  0  0
    3.9689    2.6735   -1.4626 C   0  0  0  0  0  0  0  0  0  0  0  0
    2.6541    2.6652   -0.9786 C   0  0  0  0  0  0  0  0  0  0  0  0
    1.7704    1.6106   -1.2634 C   0  0  0  0  0  0  0  0  0  0  0  0
    0.4092    1.6123   -0.7550 N   0  0  0  0  0  0  0  0  0  0  0  0
   -0.2547    2.8411   -0.6531 C   0  0  0  0  0  0  0  0  0  0  0  0
    0.1566    3.9219   -1.0792 O   0  0  0  0  0  0  0  0  0  0  0  0
   -1.5903    2.8448   -0.0372 C   0  0  0  0  0  0  0  0  0  0  0  0
   -2.2350    4.0713    0.2055 C   0  0  0  0  0  0  0  0  0  0  0  0
   -3.5025    4.0987    0.7787 C   0  0  0  0  0  0  0  0  0  0  0  0
   -4.1254    2.9026    1.1101 C   0  0  0  0  0  0  0  0  0  0  0  0
   -3.4833    1.6841    0.8624 C   0  0  0  0  0  0  0  0  0  0  0  0
   -2.2059    1.6401    0.2771 C   0  0  0  0  0  0  0  0  0  0  0  0
   -1.5269    0.4282    0.0022 N   0  0  0  0  0  0  0  0  0  0  0  0
   -2.1428   -0.8630    0.3167 C   0  0  0  0  0  0  0  0  0  0  0  0
   -1.9173   -1.2819    1.7742 C   0  0  0  0  0  0  0  0  0  0  0  0
   -1.5825   -0.5066    2.6664 O   0  0  0  0  0  0  0  0  0  0  0  0
   -2.1821   -2.6132    2.0120 N   0  0  0  0  0  0  0  0  0  0  0  0
   -2.1260   -3.1518    3.3508 C   0  0  0  0  0  0  0  0  0  0  0  0
   -2.2466   -4.6266    3.2737 C   0  0  0  0  0  0  0  0  0  0  0  0
   -1.4282   -5.6675    3.6615 C   0  0  0  0  0  0  0  0  0  0  0  0
   -2.1065   -6.8606    3.3139 C   0  0  0  0  0  0  0  0  0  0  0  0
   -3.2908   -6.4736    2.7325 C   0  0  0  0  0  0  0  0  0  0  0  0
   -3.3851   -5.1192    2.6996 O   0  0  0  0  0  0  0  0  0  0  0  0
   -0.1976    0.3898   -0.4270 C   0  0  0  0  0  0  0  0  0  0  0  0
    0.3780   -0.7032   -0.4791 O   0  0  0  0  0  0  0  0  0  0  0  0
    2.2632    0.5640   -2.0598 C   0  0  0  0  0  0  0  0  0  0  0  0
    3.5783    0.5666   -2.5430 C   0  0  0  0  0  0  0  0  0  0  0  0
    5.3398    1.4043   -4.8758 H   0  0  0  0  0  0  0  0  0  0  0  0
    5.5041    3.0882   -4.3509 H   0  0  0  0  0  0  0  0  0  0  0  0
    6.9486    2.0846   -4.5830 H   0  0  0  0  0  0  0  0  0  0  0  0
    6.2863    0.6278   -2.6783 H   0  0  0  0  0  0  0  0  0  0  0  0
    6.4799    2.2925   -2.1667 H   0  0  0  0  0  0  0  0  0  0  0  0
    4.6150    3.5129   -1.2160 H   0  0  0  0  0  0  0  0  0  0  0  0
    2.3496    3.4980   -0.3496 H   0  0  0  0  0  0  0  0  0  0  0  0
   -1.7463    5.0096   -0.0511 H   0  0  0  0  0  0  0  0  0  0  0  0
   -3.9958    5.0482    0.9705 H   0  0  0  0  0  0  0  0  0  0  0  0
   -5.1106    2.9131    1.5713 H   0  0  0  0  0  0  0  0  0  0  0  0
   -4.0103    0.7857    1.1670 H   0  0  0  0  0  0  0  0  0  0  0  0
   -1.7209   -1.6403   -0.3318 H   0  0  0  0  0  0  0  0  0  0  0  0
   -3.2149   -0.8477    0.0972 H   0  0  0  0  0  0  0  0  0  0  0  0
   -2.6290   -3.1818    1.3030 H   0  0  0  0  0  0  0  0  0  0  0  0
   -2.9528   -2.7259    3.9283 H   0  0  0  0  0  0  0  0  0  0  0  0
   -1.1848   -2.8502    3.8216 H   0  0  0  0  0  0  0  0  0  0  0  0
   -0.4611   -5.5739    4.1363 H   0  0  0  0  0  0  0  0  0  0  0  0
   -1.7728   -7.8776    3.4655 H   0  0  0  0  0  0  0  0  0  0  0  0
   -4.1279   -7.0128    2.3111 H   0  0  0  0  0  0  0  0  0  0  0  0
    1.6294   -0.2685   -2.3530 H   0  0  0  0  0  0  0  0  0  0  0  0
    3.9152   -0.2635   -3.1604 H   0  0  0  0  0  0  0  0  0  0  0  0
  1  2  1  0
  2  3  1  0
  3  4  2  0
  4  5  1  0
  5  6  2  0
  6  7  1  0
  7  8  1  0
  8  9  2  0
  8 10  1  0
 10 11  2  0
 11 12  1  0
 12 13  2  0
 13 14  1  0
 14 15  2  0
 15 16  1  0
 16 17  1  0
 17 18  1  0
 18 19  2  0
 18 20  1  0
 20 21  1  0
 21 22  1  0
 22 23  2  0
 23 24  1  0
 24 25  2  0
 25 26  1  0
 16 27  1  0
 27 28  2  0
  6 29  1  0
 29 30  2  0
 30  3  1  0
 27  7  1  0
 15 10  1  0
 26 22  1  0
  1 31  1  0
  1 32  1  0
  1 33  1  0
  2 34  1  0
  2 35  1  0
  4 36  1  0
  5 37  1  0
 11 38  1  0
 12 39  1  0
 13 40  1  0
 14 41  1  0
 17 42  1  0
 17 43  1  0
 20 44  1  0
 21 45  1  0
 21 46  1  0
 23 47  1  0
 24 48  1  0
 25 49  1  0
 29 50  1  0
 30 51  1  0
M  END
$$$$
