
     RDKit          3D

 57 59  0  0  0  0  0  0  0  0999 V2000
   -8.4197    1.3094   -0.3703 C   0  0  0  0  0  0  0  0  0  0  0  0
   -7.8559    0.1634   -0.9923 O   0  0  0  0  0  0  0  0  0  0  0  0
   -6.4869    0.0744   -1.0463 C   0  0  0  0  0  0  0  0  0  0  0  0
   -5.6119    1.0144   -0.4868 C   0  0  0  0  0  0  0  0  0  0  0  0
   -4.2313    0.8364   -0.5833 C   0  0  0  0  0  0  0  0  0  0  0  0
   -3.7278   -0.2894   -1.2354 C   0  0  0  0  0  0  0  0  0  0  0  0
   -1.9688   -0.5087   -1.3377 S   0  0  0  0  0  6  0  0  0  0  0  0
   -1.3909    0.7856   -1.6204 O   0  0  0  0  0  0  0  0  0  0  0  0
   -1.7010   -1.6564   -2.1771 O   0  0  0  0  0  0  0  0  0  0  0  0
   -1.5732   -0.9251    0.2505 N   0  0  0  0  0  0  0  0  0  0  0  0
   -2.1327   -2.1767    0.7806 C   0  0  0  0  0  0  0  0  0  0  0  0
   -1.2296   -2.4337    1.9621 C   0  0  0  0  0  0  0  0  0  0  0  0
    0.0676   -2.0301    1.5186 O   0  0  0  0  0  0  0  0  0  0  0  0
   -0.1147   -1.0130    0.5015 C   0  0  0  0  0  0  0  0  0  0  0  0
    0.4361    0.3251    1.0409 C   0  0  0  0  0  0  0  0  0  0  0  0
    1.8319    0.2562    1.4390 N   0  0  0  0  0  0  0  0  0  0  0  0
    2.8399    0.1455    0.5107 C   0  0  0  0  0  0  0  0  0  0  0  0
    2.7074    0.2215   -0.7024 O   0  0  0  0  0  0  0  0  0  0  0  0
    4.2327   -0.1203    1.1263 C   0  0  0  0  0  0  0  0  0  0  0  0
    4.3567   -0.2391    2.3370 O   0  0  0  0  0  0  0  0  0  0  0  0
    5.2365   -0.1907    0.1902 N   0  0  0  0  0  0  0  0  0  0  0  0
    6.6265   -0.2662    0.5535 C   0  0  0  0  0  0  0  0  0  0  0  0
    7.2455    1.1072    0.5995 C   0  0  0  0  0  0  0  0  0  0  0  0
    7.2017    1.8625    1.7832 C   0  0  0  0  0  0  0  0  0  0  0  0
    7.7526    3.1439    1.8245 C   0  0  0  0  0  0  0  0  0  0  0  0
    8.3398    3.6738    0.6820 C   0  0  0  0  0  0  0  0  0  0  0  0
    8.8679    4.9042    0.7213 F   0  0  0  0  0  0  0  0  0  0  0  0
    8.3835    2.9483   -0.5029 C   0  0  0  0  0  0  0  0  0  0  0  0
    7.8334    1.6660   -0.5469 C   0  0  0  0  0  0  0  0  0  0  0  0
   -4.5839   -1.2305   -1.8135 C   0  0  0  0  0  0  0  0  0  0  0  0
   -5.9674   -1.0527   -1.7209 C   0  0  0  0  0  0  0  0  0  0  0  0
   -6.8931   -1.9254   -2.2383 O   0  0  0  0  0  0  0  0  0  0  0  0
   -6.4209   -2.9532   -3.0988 C   0  0  0  0  0  0  0  0  0  0  0  0
   -8.1537    1.3533    0.6912 H   0  0  0  0  0  0  0  0  0  0  0  0
   -9.5086    1.2237   -0.4359 H   0  0  0  0  0  0  0  0  0  0  0  0
   -8.1262    2.2272   -0.8913 H   0  0  0  0  0  0  0  0  0  0  0  0
   -5.9746    1.8974    0.0292 H   0  0  0  0  0  0  0  0  0  0  0  0
   -3.5572    1.5732   -0.1507 H   0  0  0  0  0  0  0  0  0  0  0  0
   -3.1764   -2.0736    1.0845 H   0  0  0  0  0  0  0  0  0  0  0  0
   -2.0347   -2.9882    0.0518 H   0  0  0  0  0  0  0  0  0  0  0  0
   -1.5042   -1.8138    2.8229 H   0  0  0  0  0  0  0  0  0  0  0  0
   -1.2147   -3.4830    2.2690 H   0  0  0  0  0  0  0  0  0  0  0  0
    0.4390   -1.3513   -0.3806 H   0  0  0  0  0  0  0  0  0  0  0  0
    0.3359    1.1152    0.2906 H   0  0  0  0  0  0  0  0  0  0  0  0
   -0.1196    0.6313    1.9342 H   0  0  0  0  0  0  0  0  0  0  0  0
    2.0704   -0.0137    2.3904 H   0  0  0  0  0  0  0  0  0  0  0  0
    4.9760    0.0406   -0.7646 H   0  0  0  0  0  0  0  0  0  0  0  0
    6.7389   -0.7671    1.5219 H   0  0  0  0  0  0  0  0  0  0  0  0
    7.1318   -0.8870   -0.1946 H   0  0  0  0  0  0  0  0  0  0  0  0
    6.7306    1.4542    2.6766 H   0  0  0  0  0  0  0  0  0  0  0  0
    7.7229    3.7310    2.7367 H   0  0  0  0  0  0  0  0  0  0  0  0
    8.8417    3.3870   -1.3838 H   0  0  0  0  0  0  0  0  0  0  0  0
    7.8644    1.1069   -1.4799 H   0  0  0  0  0  0  0  0  0  0  0  0
   -4.1573   -2.0891   -2.3213 H   0  0  0  0  0  0  0  0  0  0  0  0
   -5.8156   -3.6786   -2.5459 H   0  0  0  0  0  0  0  0  0  0  0  0
   -7.2919   -3.4830   -3.4967 H   0  0  0  0  0  0  0  0  0  0  0  0
   -5.8665   -2.5394   -3.9480 H   0  0  0  0  0  0  0  0  0  0  0  0
  1  2  1  0
  2  3  1  0
  3  4  2  0
  4  5  1  0
  5  6  2  0
  6  7  1  0
  7  8  2  0
  7  9  2  0
  7 10  1  0
 10 11  1  0
 11 12  1  0
 12 13  1  0
 13 14  1  0
 14 15  1  0
 15 16  1  0
 16 17  1  0
 17 18  2  0
 17 19  1  0
 19 20  2  0
 19 21  1  0
 21 22  1  0
 22 23  1  0
 23 24  2  0
 24 25  1  0
 25 26  2  0
 26 27  1  0
 26 28  1  0
 28 29  2  0
  6 30  1  0
 30 31  2  0
 31 32  1  0
 32 33  1  0
 31  3  1  0
 14 10  1  0
 29 23  1  0
  1 34  1  0
  1 35  1  0
  1 36  1  0
  4 37  1  0
  5 38  1  0
 11 39  1  0
 11 40  1  0
 12 41  1  0
 12 42  1  0
 14 43  1  0
 15 44  1  0
 15 45  1  0
 16 46  1  0
 21 47  1  0
 22 48  1  0
 22 49  1  0
 24 50  1  0
 25 51  1  0
 28 52  1  0
 29 53  1  0
 30 54  1  0
 33 55  1  0
 33 56  1  0
 33 57  1  0
M  END
$$$$
