
     RDKit          3D

 61 65  0  0  0  0  0  0  0  0999 V2000
    1.6930   -4.4217    3.0851 C   0  0  0  0  0  0  0  0  0  0  0  0
    2.2449   -3.1064    2.6222 C   0  0  0  0  0  0  0  0  0  0  0  0
    3.1152   -2.3767    3.4290 C   0  0  0  0  0  0  0  0  0  0  0  0
    3.6583   -1.1732    2.9683 C   0  0  0  0  0  0  0  0  0  0  0  0
    3.3663   -0.6681    1.7095 C   0  0  0  0  0  0  0  0  0  0  0  0
    3.9233    0.4984    1.3361 N   0  0  0  0  0  0  0  0  0  0  0  0
    3.6794    1.0068    0.1012 C   0  0  0  0  0  0  0  0  0  0  0  0
    4.3589    2.2802   -0.2156 C   0  0  0  0  0  0  0  0  0  0  0  0
    4.7674    2.6057   -1.5227 C   0  0  0  0  0  0  0  0  0  0  0  0
    5.4004    3.8209   -1.8061 C   0  0  0  0  0  0  0  0  0  0  0  0
    5.6433    4.7364   -0.7867 C   0  0  0  0  0  0  0  0  0  0  0  0
    5.2611    4.4355    0.5167 C   0  0  0  0  0  0  0  0  0  0  0  0
    4.6295    3.2201    0.7969 C   0  0  0  0  0  0  0  0  0  0  0  0
    2.8253    0.3701   -0.7818 C   0  0  0  0  0  0  0  0  0  0  0  0
    2.2295   -0.8228   -0.3757 C   0  0  0  0  0  0  0  0  0  0  0  0
    1.2950   -1.4635   -1.3172 C   0  0  0  0  0  0  0  0  0  0  0  0
    1.7122   -2.3913   -2.0021 O   0  0  0  0  0  0  0  0  0  0  0  0
   -0.0009   -0.9694   -1.3853 N   0  0  0  0  0  0  0  0  0  0  0  0
   -0.5516    0.0830   -0.5216 C   0  0  0  0  0  0  0  0  0  0  0  0
   -2.0635   -0.0767   -0.3158 C   0  0  0  0  0  0  0  0  0  0  0  0
   -2.8142   -0.0577   -1.6140 N   0  0  0  0  0  0  0  0  0  0  0  0
   -4.3966   -0.6831   -1.5284 S   0  0  0  0  0  6  0  0  0  0  0  0
   -5.0654   -0.3915   -2.7762 O   0  0  0  0  0  0  0  0  0  0  0  0
   -4.3080   -2.0298   -1.0095 O   0  0  0  0  0  0  0  0  0  0  0  0
   -5.2648    0.2070   -0.3657 C   0  0  0  0  0  0  0  0  0  0  0  0
   -5.5626    1.5849   -0.4216 C   0  0  0  0  0  0  0  0  0  0  0  0
   -5.2424    2.5692   -1.4821 C   0  0  0  0  0  0  0  0  0  0  0  0
   -6.2255    1.9714    0.6770 N   0  0  0  0  0  0  0  0  0  0  0  0
   -6.3826    0.8326    1.4467 O   0  0  0  0  0  0  0  0  0  0  0  0
   -5.8064   -0.2286    0.8176 C   0  0  0  0  0  0  0  0  0  0  0  0
   -5.8882   -1.5251    1.5150 C   0  0  0  0  0  0  0  0  0  0  0  0
   -2.0233   -0.5849   -2.7788 C   0  0  0  0  0  0  0  0  0  0  0  0
   -0.9275   -1.5655   -2.3500 C   0  0  0  0  0  0  0  0  0  0  0  0
    2.4978   -1.3953    0.8814 C   0  0  0  0  0  0  0  0  0  0  0  0
    1.9494   -2.6180    1.3458 C   0  0  0  0  0  0  0  0  0  0  0  0
    0.7153   -4.6165    2.6327 H   0  0  0  0  0  0  0  0  0  0  0  0
    1.5541   -4.4257    4.1711 H   0  0  0  0  0  0  0  0  0  0  0  0
    2.3766   -5.2311    2.8124 H   0  0  0  0  0  0  0  0  0  0  0  0
    3.3859   -2.7364    4.4194 H   0  0  0  0  0  0  0  0  0  0  0  0
    4.3368   -0.6166    3.6114 H   0  0  0  0  0  0  0  0  0  0  0  0
    4.6179    1.9052   -2.3413 H   0  0  0  0  0  0  0  0  0  0  0  0
    5.7094    4.0475   -2.8240 H   0  0  0  0  0  0  0  0  0  0  0  0
    6.1379    5.6790   -1.0056 H   0  0  0  0  0  0  0  0  0  0  0  0
    5.4550    5.1421    1.3192 H   0  0  0  0  0  0  0  0  0  0  0  0
    4.3429    3.0044    1.8254 H   0  0  0  0  0  0  0  0  0  0  0  0
    2.6049    0.7845   -1.7593 H   0  0  0  0  0  0  0  0  0  0  0  0
   -0.3358    1.0404   -1.0107 H   0  0  0  0  0  0  0  0  0  0  0  0
   -0.0497    0.0808    0.4501 H   0  0  0  0  0  0  0  0  0  0  0  0
   -2.4264    0.7474    0.3077 H   0  0  0  0  0  0  0  0  0  0  0  0
   -2.2488   -1.0188    0.2133 H   0  0  0  0  0  0  0  0  0  0  0  0
   -5.8094    2.3492   -2.3918 H   0  0  0  0  0  0  0  0  0  0  0  0
   -5.4913    3.5890   -1.1705 H   0  0  0  0  0  0  0  0  0  0  0  0
   -4.1751    2.5479   -1.7234 H   0  0  0  0  0  0  0  0  0  0  0  0
   -6.4436   -1.4373    2.4545 H   0  0  0  0  0  0  0  0  0  0  0  0
   -4.8871   -1.8979    1.7519 H   0  0  0  0  0  0  0  0  0  0  0  0
   -6.3989   -2.2660    0.8925 H   0  0  0  0  0  0  0  0  0  0  0  0
   -1.5752    0.2825   -3.2795 H   0  0  0  0  0  0  0  0  0  0  0  0
   -2.6738   -1.0671   -3.5162 H   0  0  0  0  0  0  0  0  0  0  0  0
   -1.3695   -2.4452   -1.8670 H   0  0  0  0  0  0  0  0  0  0  0  0
   -0.3739   -1.9132   -3.2290 H   0  0  0  0  0  0  0  0  0  0  0  0
    1.2950   -3.2008    0.6979 H   0  0  0  0  0  0  0  0  0  0  0  0
  1  2  1  0
  2  3  2  0
  3  4  1  0
  4  5  2  0
  5  6  1  0
  6  7  2  0
  7  8  1  0
  8  9  2  0
  9 10  1  0
 10 11  2  0
 11 12  1  0
 12 13  2  0
  7 14  1  0
 14 15  2  0
 15 16  1  0
 16 17  2  0
 16 18  1  0
 18 19  1  0
 19 20  1  0
 20 21  1  0
 21 22  1  0
 22 23  2  0
 22 24  2  0
 22 25  1  0
 25 26  1  0
 26 27  1  0
 26 28  2  0
 28 29  1  0
 29 30  1  0
 30 31  1  0
 21 32  1  0
 32 33  1  0
 15 34  1  0
 34 35  2  0
 35  2  1  0
 34  5  1  0
 13  8  1  0
 33 18  1  0
 30 25  2  0
  1 36  1  0
  1 37  1  0
  1 38  1  0
  3 39  1  0
  4 40  1  0
  9 41  1  0
 10 42  1  0
 11 43  1  0
 12 44  1  0
 13 45  1  0
 14 46  1  0
 19 47  1  0
 19 48  1  0
 20 49  1  0
 20 50  1  0
 27 51  1  0
 27 52  1  0
 27 53  1  0
 31 54  1  0
 31 55  1  0
 31 56  1  0
 32 57  1  0
 32 58  1  0
 33 59  1  0
 33 60  1  0
 35 61  1  0
M  END
$$$$
