
     RDKit          3D

 42 44  0  0  0  0  0  0  0  0999 V2000
   -4.5362   -1.7632   -1.9312 C   0  0  0  0  0  0  0  0  0  0  0  0
   -3.4390   -1.5683   -0.9023 C   0  0  0  0  0  0  0  0  0  0  0  0
   -2.5880   -2.4534   -0.7788 O   0  0  0  0  0  0  0  0  0  0  0  0
   -3.4407   -0.3460   -0.1953 N   0  0  0  0  0  0  0  0  0  0  0  0
   -2.2532    0.1973    0.3155 C   0  0  0  0  0  0  0  0  0  0  0  0
   -0.9958   -0.1665    0.0172 C   0  0  0  0  0  0  0  0  0  0  0  0
    0.1635    0.4716    0.6085 C   0  0  0  0  0  0  0  0  0  0  0  0
    1.4225    0.1331    0.2876 C   0  0  0  0  0  0  0  0  0  0  0  0
    2.5797    0.7678    0.8856 C   0  0  0  0  0  0  0  0  0  0  0  0
    3.8718    0.5207    0.6185 C   0  0  0  0  0  0  0  0  0  0  0  0
    5.1540    1.3784    1.4489 S   0  0  0  0  0  0  0  0  0  0  0  0
    6.4031    0.4909    0.5647 C   0  0  0  0  0  0  0  0  0  0  0  0
    7.7752    0.6437    0.7087 C   0  0  0  0  0  0  0  0  0  0  0  0
    8.6291   -0.1419   -0.0734 C   0  0  0  0  0  0  0  0  0  0  0  0
    8.1091   -1.0689   -0.9885 C   0  0  0  0  0  0  0  0  0  0  0  0
    6.7293   -1.2195   -1.1306 C   0  0  0  0  0  0  0  0  0  0  0  0
    5.8980   -0.4306   -0.3447 C   0  0  0  0  0  0  0  0  0  0  0  0
    4.4306   -0.4607   -0.3678 C   0  0  0  0  0  0  0  0  0  0  0  0
    3.8028   -1.1969   -1.1090 O   0  0  0  0  0  0  0  0  0  0  0  0
   -4.6867    0.3123    0.1153 C   0  0  0  0  0  0  0  0  0  0  0  0
   -4.7777    1.7136    0.0980 C   0  0  0  0  0  0  0  0  0  0  0  0
   -5.9782    2.3571    0.4111 C   0  0  0  0  0  0  0  0  0  0  0  0
   -7.1004    1.6098    0.7590 C   0  0  0  0  0  0  0  0  0  0  0  0
   -7.0223    0.2201    0.7991 C   0  0  0  0  0  0  0  0  0  0  0  0
   -5.8229   -0.4244    0.4830 C   0  0  0  0  0  0  0  0  0  0  0  0
   -5.3138   -2.4183   -1.5321 H   0  0  0  0  0  0  0  0  0  0  0  0
   -4.0984   -2.2404   -2.8144 H   0  0  0  0  0  0  0  0  0  0  0  0
   -4.9664   -0.8161   -2.2652 H   0  0  0  0  0  0  0  0  0  0  0  0
   -2.3970    1.0110    1.0236 H   0  0  0  0  0  0  0  0  0  0  0  0
   -0.7941   -0.9600   -0.6981 H   0  0  0  0  0  0  0  0  0  0  0  0
   -0.0213    1.2529    1.3426 H   0  0  0  0  0  0  0  0  0  0  0  0
    1.5919   -0.6516   -0.4474 H   0  0  0  0  0  0  0  0  0  0  0  0
    2.3507    1.5240    1.6364 H   0  0  0  0  0  0  0  0  0  0  0  0
    8.1860    1.3593    1.4152 H   0  0  0  0  0  0  0  0  0  0  0  0
    9.7071   -0.0334    0.0288 H   0  0  0  0  0  0  0  0  0  0  0  0
    8.7847   -1.6733   -1.5901 H   0  0  0  0  0  0  0  0  0  0  0  0
    6.3125   -1.9337   -1.8352 H   0  0  0  0  0  0  0  0  0  0  0  0
   -3.9258    2.3225   -0.1950 H   0  0  0  0  0  0  0  0  0  0  0  0
   -6.0365    3.4422    0.3791 H   0  0  0  0  0  0  0  0  0  0  0  0
   -8.0335    2.1103    1.0055 H   0  0  0  0  0  0  0  0  0  0  0  0
   -7.8920   -0.3646    1.0890 H   0  0  0  0  0  0  0  0  0  0  0  0
   -5.7816   -1.5070    0.5744 H   0  0  0  0  0  0  0  0  0  0  0  0
  1  2  1  0
  2  3  2  0
  2  4  1  0
  4  5  1  0
  5  6  2  3
  6  7  1  0
  7  8  2  3
  8  9  1  0
  9 10  2  3
 10 11  1  0
 11 12  1  0
 12 13  2  0
 13 14  1  0
 14 15  2  0
 15 16  1  0
 16 17  2  0
 17 18  1  0
 18 19  2  0
  4 20  1  0
 20 21  2  0
 21 22  1  0
 22 23  2  0
 23 24  1  0
 24 25  2  0
 18 10  1  0
 25 20  1  0
 17 12  1  0
  1 26  1  0
  1 27  1  0
  1 28  1  0
  5 29  1  0
  6 30  1  0
  7 31  1  0
  8 32  1  0
  9 33  1  0
 13 34  1  0
 14 35  1  0
 15 36  1  0
 16 37  1  0
 21 38  1  0
 22 39  1  0
 23 40  1  0
 24 41  1  0
 25 42  1  0
M  END
$$$$
