
     RDKit          3D

 42 44  0  0  0  0  0  0  0  0999 V2000
    4.0872    1.3919    1.7736 C   0  0  0  0  0  0  0  0  0  0  0  0
    4.6858    0.5676    0.7803 O   0  0  0  0  0  0  0  0  0  0  0  0
    3.8511   -0.2378    0.0529 C   0  0  0  0  0  0  0  0  0  0  0  0
    4.4852   -0.9619   -0.9646 C   0  0  0  0  0  0  0  0  0  0  0  0
    3.7606   -1.8315   -1.7806 C   0  0  0  0  0  0  0  0  0  0  0  0
    4.2689   -2.5901   -2.7986 O   0  0  0  0  0  0  0  0  0  0  0  0
    5.6713   -2.5132   -3.0216 C   0  0  0  0  0  0  0  0  0  0  0  0
    2.3873   -1.9691   -1.5790 C   0  0  0  0  0  0  0  0  0  0  0  0
    1.7394   -1.2403   -0.5747 C   0  0  0  0  0  0  0  0  0  0  0  0
    0.2674   -1.4253   -0.4038 C   0  0  0  0  0  0  0  0  0  0  0  0
   -0.2025   -2.5269   -0.6592 O   0  0  0  0  0  0  0  0  0  0  0  0
   -0.4057   -0.2933    0.0111 N   0  0  0  0  0  0  0  0  0  0  0  0
   -1.7633   -0.1554    0.2669 C   0  0  0  0  0  0  0  0  0  0  0  0
   -2.8411   -1.4744    0.1032 S   0  0  0  0  0  0  0  0  0  0  0  0
   -4.1327   -0.5071    0.5122 C   0  0  0  0  0  0  0  0  0  0  0  0
   -3.7986    0.7896    0.7924 C   0  0  0  0  0  0  0  0  0  0  0  0
   -2.3944    1.0252    0.6808 C   0  0  0  0  0  0  0  0  0  0  0  0
   -1.6387    2.2542    0.9208 C   0  0  0  0  0  0  0  0  0  0  0  0
   -2.3147    3.3020    1.4733 N   0  0  0  0  0  0  0  0  0  0  0  0
   -0.4367    2.3598    0.6812 O   0  0  0  0  0  0  0  0  0  0  0  0
   -5.0194    1.5715    1.1280 C   0  0  0  0  0  0  0  0  0  0  0  0
   -6.1715    0.6279    0.6633 C   0  0  0  0  0  0  0  0  0  0  0  0
   -5.5784   -0.8097    0.6152 C   0  0  0  0  0  0  0  0  0  0  0  0
    2.4785   -0.3841    0.2545 C   0  0  0  0  0  0  0  0  0  0  0  0
    3.3509    2.0724    1.3331 H   0  0  0  0  0  0  0  0  0  0  0  0
    3.6411    0.7864    2.5693 H   0  0  0  0  0  0  0  0  0  0  0  0
    4.8774    2.0013    2.2225 H   0  0  0  0  0  0  0  0  0  0  0  0
    5.5545   -0.8249   -1.0912 H   0  0  0  0  0  0  0  0  0  0  0  0
    5.9686   -1.5014   -3.3162 H   0  0  0  0  0  0  0  0  0  0  0  0
    6.2305   -2.8504   -2.1425 H   0  0  0  0  0  0  0  0  0  0  0  0
    5.9154   -3.1860   -3.8494 H   0  0  0  0  0  0  0  0  0  0  0  0
    1.8178   -2.6484   -2.2111 H   0  0  0  0  0  0  0  0  0  0  0  0
    0.1131    0.5799    0.0871 H   0  0  0  0  0  0  0  0  0  0  0  0
   -3.2219    3.1929    1.8962 H   0  0  0  0  0  0  0  0  0  0  0  0
   -1.7623    4.1058    1.7386 H   0  0  0  0  0  0  0  0  0  0  0  0
   -5.0802    1.7407    2.2083 H   0  0  0  0  0  0  0  0  0  0  0  0
   -5.0683    2.5298    0.6037 H   0  0  0  0  0  0  0  0  0  0  0  0
   -7.0513    0.6951    1.3107 H   0  0  0  0  0  0  0  0  0  0  0  0
   -6.4841    0.9194   -0.3483 H   0  0  0  0  0  0  0  0  0  0  0  0
   -5.7982   -1.3481    1.5428 H   0  0  0  0  0  0  0  0  0  0  0  0
   -5.9677   -1.3716   -0.2381 H   0  0  0  0  0  0  0  0  0  0  0  0
    1.9797    0.1378    1.0632 H   0  0  0  0  0  0  0  0  0  0  0  0
  1  2  1  0
  2  3  1  0
  3  4  2  0
  4  5  1  0
  5  6  1  0
  6  7  1  0
  5  8  2  0
  8  9  1  0
  9 10  1  0
 10 11  2  0
 10 12  1  0
 12 13  1  0
 13 14  1  0
 14 15  1  0
 15 16  2  0
 16 17  1  0
 17 18  1  0
 18 19  1  0
 18 20  2  0
 16 21  1  0
 21 22  1  0
 22 23  1  0
  9 24  2  0
 24  3  1  0
 17 13  2  0
 23 15  1  0
  1 25  1  0
  1 26  1  0
  1 27  1  0
  4 28  1  0
  7 29  1  0
  7 30  1  0
  7 31  1  0
  8 32  1  0
 12 33  1  0
 19 34  1  0
 19 35  1  0
 21 36  1  0
 21 37  1  0
 22 38  1  0
 22 39  1  0
 23 40  1  0
 23 41  1  0
 24 42  1  0
M  END
$$$$
