
     RDKit          3D

 40 41  0  0  0  0  0  0  0  0999 V2000
   -6.8290   -0.7115   -0.9548 C   0  0  0  0  0  0  0  0  0  0  0  0
   -5.3812   -0.4046   -0.7058 C   0  0  0  0  0  0  0  0  0  0  0  0
   -4.5497   -0.0159   -1.7504 C   0  0  0  0  0  0  0  0  0  0  0  0
   -3.2066    0.2339   -1.4990 C   0  0  0  0  0  0  0  0  0  0  0  0
   -2.6941    0.0811   -0.2058 C   0  0  0  0  0  0  0  0  0  0  0  0
   -1.2835    0.3718    0.0659 C   0  0  0  0  0  0  0  0  0  0  0  0
   -0.2870   -0.3342   -0.4919 C   0  0  0  0  0  0  0  0  0  0  0  0
    1.1370   -0.0528   -0.2637 C   0  0  0  0  0  0  0  0  0  0  0  0
    1.6416    0.3562    0.9701 C   0  0  0  0  0  0  0  0  0  0  0  0
    3.0161    0.5910    1.1399 C   0  0  0  0  0  0  0  0  0  0  0  0
    3.9466    0.4133    0.1022 C   0  0  0  0  0  0  0  0  0  0  0  0
    5.3080    0.6744    0.2730 N   0  0  0  0  0  0  0  0  0  0  0  0
    5.8561    0.7774    1.6251 C   0  0  0  0  0  0  0  0  0  0  0  0
    6.2572    0.2646   -0.7619 C   0  0  0  0  0  0  0  0  0  0  0  0
    3.4109   -0.0038   -1.1274 C   0  0  0  0  0  0  0  0  0  0  0  0
    2.0394   -0.2436   -1.3090 C   0  0  0  0  0  0  0  0  0  0  0  0
   -3.5185   -0.3150    0.8018 N   0  0  0  0  0  4  0  0  0  0  0  0
   -2.9939   -0.5172    2.1675 C   0  0  0  0  0  0  0  0  0  0  0  0
   -4.8303   -0.5591    0.5654 C   0  0  0  0  0  0  0  0  0  0  0  0
   -7.4301   -0.5076   -0.0624 H   0  0  0  0  0  0  0  0  0  0  0  0
   -7.2263   -0.0890   -1.7634 H   0  0  0  0  0  0  0  0  0  0  0  0
   -6.9465   -1.7647   -1.2275 H   0  0  0  0  0  0  0  0  0  0  0  0
   -4.9401    0.1004   -2.7614 H   0  0  0  0  0  0  0  0  0  0  0  0
   -2.5611    0.5555   -2.3152 H   0  0  0  0  0  0  0  0  0  0  0  0
   -1.0850    1.2100    0.7286 H   0  0  0  0  0  0  0  0  0  0  0  0
   -0.4899   -1.1541   -1.1801 H   0  0  0  0  0  0  0  0  0  0  0  0
    0.9920    0.4991    1.8281 H   0  0  0  0  0  0  0  0  0  0  0  0
    3.3393    0.9251    2.1216 H   0  0  0  0  0  0  0  0  0  0  0  0
    5.4172    1.6224    2.1662 H   0  0  0  0  0  0  0  0  0  0  0  0
    6.9363    0.9606    1.6067 H   0  0  0  0  0  0  0  0  0  0  0  0
    5.6884   -0.1474    2.1881 H   0  0  0  0  0  0  0  0  0  0  0  0
    6.0371    0.7532   -1.7172 H   0  0  0  0  0  0  0  0  0  0  0  0
    6.2488   -0.8230   -0.8934 H   0  0  0  0  0  0  0  0  0  0  0  0
    7.2806    0.5592   -0.5035 H   0  0  0  0  0  0  0  0  0  0  0  0
    4.0517   -0.1557   -1.9914 H   0  0  0  0  0  0  0  0  0  0  0  0
    1.6991   -0.5680   -2.2901 H   0  0  0  0  0  0  0  0  0  0  0  0
   -2.6445    0.4476    2.5440 H   0  0  0  0  0  0  0  0  0  0  0  0
   -3.7837   -0.8962    2.8211 H   0  0  0  0  0  0  0  0  0  0  0  0
   -2.1849   -1.2509    2.1212 H   0  0  0  0  0  0  0  0  0  0  0  0
   -5.4376   -0.8824    1.4071 H   0  0  0  0  0  0  0  0  0  0  0  0
  1  2  1  0
  2  3  2  0
  3  4  1  0
  4  5  2  0
  5  6  1  0
  6  7  2  3
  7  8  1  0
  8  9  2  0
  9 10  1  0
 10 11  2  0
 11 12  1  0
 12 13  1  0
 12 14  1  0
 11 15  1  0
 15 16  2  0
  5 17  1  0
 17 18  1  0
 17 19  2  0
 19  2  1  0
 16  8  1  0
  1 20  1  0
  1 21  1  0
  1 22  1  0
  3 23  1  0
  4 24  1  0
  6 25  1  0
  7 26  1  0
  9 27  1  0
 10 28  1  0
 13 29  1  0
 13 30  1  0
 13 31  1  0
 14 32  1  0
 14 33  1  0
 14 34  1  0
 15 35  1  0
 16 36  1  0
 18 37  1  0
 18 38  1  0
 18 39  1  0
 19 40  1  0
M  CHG  1  17   1
M  END
$$$$
