
     RDKit          3D

 31 32  0  0  0  0  0  0  0  0999 V2000
    0.6272   -2.7518    2.6319 C   0  0  0  0  0  0  0  0  0  0  0  0
    0.7502   -3.2738    0.8990 S   0  0  0  0  0  0  0  0  0  0  0  0
    1.6150   -1.8884    0.1735 C   0  0  0  0  0  0  0  0  0  0  0  0
    2.5656   -2.1518   -0.8203 C   0  0  0  0  0  0  0  0  0  0  0  0
    3.2546   -1.1077   -1.4423 C   0  0  0  0  0  0  0  0  0  0  0  0
    2.9939    0.2122   -1.0792 C   0  0  0  0  0  0  0  0  0  0  0  0
    2.0485    0.4813   -0.0911 C   0  0  0  0  0  0  0  0  0  0  0  0
    1.7247    1.8318    0.2446 N   0  0  0  0  0  0  0  0  0  0  0  0
    0.4784    2.5419   -0.6742 S   0  0  0  0  0  6  0  0  0  0  0  0
    0.3189    3.8979   -0.1910 O   0  0  0  0  0  0  0  0  0  0  0  0
    0.7317    2.2815   -2.0777 O   0  0  0  0  0  0  0  0  0  0  0  0
   -1.0479    1.7687   -0.3340 C   0  0  0  0  0  0  0  0  0  0  0  0
   -2.0587    1.5309   -1.2459 C   0  0  0  0  0  0  0  0  0  0  0  0
   -3.0381    0.9043   -0.5316 N   0  0  0  0  0  0  0  0  0  0  0  0
   -4.3014    0.4439   -1.0493 C   0  0  0  0  0  0  0  0  0  0  0  0
   -2.6112    0.7856    0.7599 C   0  0  0  0  0  0  0  0  0  0  0  0
   -1.4098    1.2943    0.9201 N   0  0  0  0  0  0  0  0  0  0  0  0
    1.3524   -0.5611    0.5235 C   0  0  0  0  0  0  0  0  0  0  0  0
   -0.0941   -1.9384    2.7439 H   0  0  0  0  0  0  0  0  0  0  0  0
    1.6027   -2.4372    3.0127 H   0  0  0  0  0  0  0  0  0  0  0  0
    0.2796   -3.5977    3.2313 H   0  0  0  0  0  0  0  0  0  0  0  0
    2.7751   -3.1762   -1.1223 H   0  0  0  0  0  0  0  0  0  0  0  0
    3.9836   -1.3254   -2.2188 H   0  0  0  0  0  0  0  0  0  0  0  0
    3.5144    1.0191   -1.5876 H   0  0  0  0  0  0  0  0  0  0  0  0
    2.5208    2.4676    0.2249 H   0  0  0  0  0  0  0  0  0  0  0  0
   -2.1389    1.7495   -2.3022 H   0  0  0  0  0  0  0  0  0  0  0  0
   -4.9992    1.2846   -1.0432 H   0  0  0  0  0  0  0  0  0  0  0  0
   -4.6770   -0.3660   -0.4186 H   0  0  0  0  0  0  0  0  0  0  0  0
   -4.1550    0.0770   -2.0686 H   0  0  0  0  0  0  0  0  0  0  0  0
   -3.2081    0.3250    1.5371 H   0  0  0  0  0  0  0  0  0  0  0  0
    0.6021   -0.3218    1.2706 H   0  0  0  0  0  0  0  0  0  0  0  0
  1  2  1  0
  2  3  1  0
  3  4  2  0
  4  5  1  0
  5  6  2  0
  6  7  1  0
  7  8  1  0
  8  9  1  0
  9 10  2  0
  9 11  2  0
  9 12  1  0
 12 13  2  0
 13 14  1  0
 14 15  1  0
 14 16  1  0
 16 17  2  0
  7 18  2  0
 18  3  1  0
 17 12  1  0
  1 19  1  0
  1 20  1  0
  1 21  1  0
  4 22  1  0
  5 23  1  0
  6 24  1  0
  8 25  1  0
 13 26  1  0
 15 27  1  0
 15 28  1  0
 15 29  1  0
 16 30  1  0
 18 31  1  0
M  END
$$$$
