
     RDKit          3D

 27 27  0  0  0  0  0  0  0  0999 V2000
   -1.7240    1.2123    0.8870 C   0  0  0  0  0  0  0  0  0  0  0  0
   -1.4857    0.2469   -0.2834 C   0  0  0  0  0  0  0  0  0  0  0  0
   -2.5979    0.4504   -1.3281 C   0  0  0  0  0  0  0  0  0  0  0  0
   -1.5460   -1.1950    0.2265 C   0  0  0  0  0  0  0  0  0  0  0  0
    0.1033    0.6040   -1.0968 S   0  0  0  0  0  6  0  0  0  0  0  0
    0.1563    2.0173   -1.4225 O   0  0  0  0  0  0  0  0  0  0  0  0
    0.4086   -0.3924   -2.1010 O   0  0  0  0  0  0  0  0  0  0  0  0
    1.3564    0.4274    0.1002 C   0  0  0  0  0  0  0  0  0  0  0  0
    1.7603    1.5109    0.9481 C   0  0  0  0  0  0  0  0  0  0  0  0
    2.8066    1.1662    1.7719 C   0  0  0  0  0  0  0  0  0  0  0  0
    3.3152   -0.4426    1.5149 S   0  0  0  0  0  0  0  0  0  0  0  0
    2.1353   -0.7003    0.2912 C   0  0  0  0  0  0  0  0  0  0  0  0
    2.0527   -1.9934   -0.3387 C   0  0  0  0  0  0  0  0  0  0  0  0
    1.0586   -2.6880   -0.4828 O   0  0  0  0  0  0  0  0  0  0  0  0
    3.2561   -2.4216   -0.7778 O   0  0  0  0  0  0  0  0  0  0  0  0
   -1.6601    2.2580    0.5679 H   0  0  0  0  0  0  0  0  0  0  0  0
   -0.9936    1.0634    1.6884 H   0  0  0  0  0  0  0  0  0  0  0  0
   -2.7172    1.0601    1.3245 H   0  0  0  0  0  0  0  0  0  0  0  0
   -2.5942    1.4747   -1.7186 H   0  0  0  0  0  0  0  0  0  0  0  0
   -2.4692   -0.2248   -2.1817 H   0  0  0  0  0  0  0  0  0  0  0  0
   -3.5881    0.2614   -0.8981 H   0  0  0  0  0  0  0  0  0  0  0  0
   -2.5171   -1.4073    0.6893 H   0  0  0  0  0  0  0  0  0  0  0  0
   -1.4126   -1.9133   -0.5893 H   0  0  0  0  0  0  0  0  0  0  0  0
   -0.7791   -1.3882    0.9830 H   0  0  0  0  0  0  0  0  0  0  0  0
    1.3163    2.5006    0.9370 H   0  0  0  0  0  0  0  0  0  0  0  0
    3.3091    1.7875    2.5013 H   0  0  0  0  0  0  0  0  0  0  0  0
    3.0501   -3.2744   -1.2123 H   0  0  0  0  0  0  0  0  0  0  0  0
  1  2  1  0
  2  3  1  0
  2  4  1  0
  2  5  1  0
  5  6  2  0
  5  7  2  0
  5  8  1  0
  8  9  1  0
  9 10  2  0
 10 11  1  0
 11 12  1  0
 12 13  1  0
 13 14  2  0
 13 15  1  0
 12  8  2  0
  1 16  1  0
  1 17  1  0
  1 18  1  0
  3 19  1  0
  3 20  1  0
  3 21  1  0
  4 22  1  0
  4 23  1  0
  4 24  1  0
  9 25  1  0
 10 26  1  0
 15 27  1  0
M  END
$$$$
