
     RDKit          3D

 61 65  0  0  0  0  0  0  0  0999 V2000
    6.3568   -4.1723    2.4263 C   0  0  0  0  0  0  0  0  0  0  0  0
    5.1447   -3.4047    1.9861 C   0  0  0  0  0  0  0  0  0  0  0  0
    4.7305   -2.2700    2.6886 C   0  0  0  0  0  0  0  0  0  0  0  0
    3.6195   -1.5361    2.2605 C   0  0  0  0  0  0  0  0  0  0  0  0
    2.9003   -1.9119    1.1146 C   0  0  0  0  0  0  0  0  0  0  0  0
    1.7316   -1.1413    0.6658 C   0  0  0  0  0  0  0  0  0  0  0  0
    1.7990    0.2363    0.4742 C   0  0  0  0  0  0  0  0  0  0  0  0
    0.6805    0.9678    0.0492 C   0  0  0  0  0  0  0  0  0  0  0  0
    0.7663    2.4226   -0.1160 C   0  0  0  0  0  0  0  0  0  0  0  0
    0.2797    3.2927    0.8730 C   0  0  0  0  0  0  0  0  0  0  0  0
    0.3656    4.6778    0.7104 C   0  0  0  0  0  0  0  0  0  0  0  0
    0.9416    5.2226   -0.4410 C   0  0  0  0  0  0  0  0  0  0  0  0
    1.0654    6.7109   -0.5979 C   0  0  0  0  0  0  0  0  0  0  0  0
    1.4612    4.3630   -1.4133 C   0  0  0  0  0  0  0  0  0  0  0  0
    1.3756    2.9777   -1.2532 C   0  0  0  0  0  0  0  0  0  0  0  0
   -0.5085    0.3342   -0.1933 N   0  0  0  0  0  4  0  0  0  0  0  0
   -1.6574    1.0908   -0.6327 C   0  0  0  0  0  0  0  0  0  0  0  0
   -2.6633    1.3859    0.2899 C   0  0  0  0  0  0  0  0  0  0  0  0
   -3.7694    2.1142   -0.1419 C   0  0  0  0  0  0  0  0  0  0  0  0
   -3.8541    2.5340   -1.4726 C   0  0  0  0  0  0  0  0  0  0  0  0
   -2.8366    2.2301   -2.3820 C   0  0  0  0  0  0  0  0  0  0  0  0
   -1.7250    1.5012   -1.9657 C   0  0  0  0  0  0  0  0  0  0  0  0
   -0.6035   -1.0199   -0.0167 C   0  0  0  0  0  0  0  0  0  0  0  0
   -1.8728   -1.6951   -0.3067 C   0  0  0  0  0  0  0  0  0  0  0  0
   -2.7253   -2.0921    0.7365 C   0  0  0  0  0  0  0  0  0  0  0  0
   -3.9339   -2.7382    0.4646 C   0  0  0  0  0  0  0  0  0  0  0  0
   -4.3156   -3.0026   -0.8539 C   0  0  0  0  0  0  0  0  0  0  0  0
   -5.5978   -3.7287   -1.1434 C   0  0  0  0  0  0  0  0  0  0  0  0
   -3.4561   -2.6422   -1.8959 C   0  0  0  0  0  0  0  0  0  0  0  0
   -2.2466   -1.9967   -1.6263 C   0  0  0  0  0  0  0  0  0  0  0  0
    0.5086   -1.7577    0.4138 C   0  0  0  0  0  0  0  0  0  0  0  0
    3.3349   -3.0454    0.4087 C   0  0  0  0  0  0  0  0  0  0  0  0
    4.4464   -3.7794    0.8354 C   0  0  0  0  0  0  0  0  0  0  0  0
    6.2759   -5.2269    2.1427 H   0  0  0  0  0  0  0  0  0  0  0  0
    7.2547   -3.7497    1.9652 H   0  0  0  0  0  0  0  0  0  0  0  0
    6.4667   -4.1367    3.5153 H   0  0  0  0  0  0  0  0  0  0  0  0
    5.2701   -1.9515    3.5788 H   0  0  0  0  0  0  0  0  0  0  0  0
    3.3211   -0.6694    2.8469 H   0  0  0  0  0  0  0  0  0  0  0  0
    2.7381    0.7619    0.6550 H   0  0  0  0  0  0  0  0  0  0  0  0
   -0.1668    2.9087    1.7887 H   0  0  0  0  0  0  0  0  0  0  0  0
   -0.0155    5.3340    1.4919 H   0  0  0  0  0  0  0  0  0  0  0  0
    1.0365    6.9953   -1.6550 H   0  0  0  0  0  0  0  0  0  0  0  0
    2.0088    7.0554   -0.1635 H   0  0  0  0  0  0  0  0  0  0  0  0
    0.2366    7.2258   -0.1005 H   0  0  0  0  0  0  0  0  0  0  0  0
    1.9414    4.7713   -2.3017 H   0  0  0  0  0  0  0  0  0  0  0  0
    1.7960    2.3414   -2.0307 H   0  0  0  0  0  0  0  0  0  0  0  0
   -2.6006    1.0674    1.3253 H   0  0  0  0  0  0  0  0  0  0  0  0
   -4.5718    2.3597    0.5520 H   0  0  0  0  0  0  0  0  0  0  0  0
   -4.7217    3.1039   -1.8044 H   0  0  0  0  0  0  0  0  0  0  0  0
   -2.9194    2.5659   -3.4144 H   0  0  0  0  0  0  0  0  0  0  0  0
   -0.9411    1.2633   -2.6774 H   0  0  0  0  0  0  0  0  0  0  0  0
   -2.4613   -1.9082    1.7770 H   0  0  0  0  0  0  0  0  0  0  0  0
   -4.5775   -3.0405    1.2898 H   0  0  0  0  0  0  0  0  0  0  0  0
   -6.0114   -3.4191   -2.1090 H   0  0  0  0  0  0  0  0  0  0  0  0
   -5.4197   -4.8082   -1.1634 H   0  0  0  0  0  0  0  0  0  0  0  0
   -6.3524   -3.5078   -0.3811 H   0  0  0  0  0  0  0  0  0  0  0  0
   -3.7243   -2.8696   -2.9268 H   0  0  0  0  0  0  0  0  0  0  0  0
   -1.6007   -1.7424   -2.4650 H   0  0  0  0  0  0  0  0  0  0  0  0
    0.4074   -2.8352    0.5542 H   0  0  0  0  0  0  0  0  0  0  0  0
    2.8235   -3.3689   -0.4956 H   0  0  0  0  0  0  0  0  0  0  0  0
    4.7652   -4.6475    0.2610 H   0  0  0  0  0  0  0  0  0  0  0  0
  1  2  1  0
  2  3  2  0
  3  4  1  0
  4  5  2  0
  5  6  1  0
  6  7  2  0
  7  8  1  0
  8  9  1  0
  9 10  2  0
 10 11  1  0
 11 12  2  0
 12 13  1  0
 12 14  1  0
 14 15  2  0
  8 16  2  0
 16 17  1  0
 17 18  2  0
 18 19  1  0
 19 20  2  0
 20 21  1  0
 21 22  2  0
 16 23  1  0
 23 24  1  0
 24 25  2  0
 25 26  1  0
 26 27  2  0
 27 28  1  0
 27 29  1  0
 29 30  2  0
 23 31  2  0
  5 32  1  0
 32 33  2  0
 33  2  1  0
 31  6  1  0
 15  9  1  0
 22 17  1  0
 30 24  1  0
  1 34  1  0
  1 35  1  0
  1 36  1  0
  3 37  1  0
  4 38  1  0
  7 39  1  0
 10 40  1  0
 11 41  1  0
 13 42  1  0
 13 43  1  0
 13 44  1  0
 14 45  1  0
 15 46  1  0
 18 47  1  0
 19 48  1  0
 20 49  1  0
 21 50  1  0
 22 51  1  0
 25 52  1  0
 26 53  1  0
 28 54  1  0
 28 55  1  0
 28 56  1  0
 29 57  1  0
 30 58  1  0
 31 59  1  0
 32 60  1  0
 33 61  1  0
M  CHG  1  16   1
M  END
$$$$
