
     RDKit          3D

 59 62  0  0  0  0  0  0  0  0999 V2000
    9.2056    2.6574    0.0910 C   0  0  0  0  0  0  0  0  0  0  0  0
    7.8993    1.9660    0.3453 C   0  0  0  0  0  0  0  0  0  0  0  0
    6.7965    2.6788    0.8216 C   0  0  0  0  0  0  0  0  0  0  0  0
    5.5714    2.0362    1.0242 C   0  0  0  0  0  0  0  0  0  0  0  0
    5.4263    0.6642    0.7589 C   0  0  0  0  0  0  0  0  0  0  0  0
    4.1522    0.0512    0.9732 N   0  0  0  0  0  0  0  0  0  0  0  0
    3.0604    0.8520    1.1111 N   0  0  0  0  0  0  0  0  0  0  0  0
    2.0149    0.0245    1.0520 C   0  0  0  0  0  0  0  0  0  0  0  0
    0.6089    0.4039    1.0661 C   0  0  0  0  0  0  0  0  0  0  0  0
    0.2107    1.5668    1.1074 O   0  0  0  0  0  0  0  0  0  0  0  0
   -0.2528   -0.7101    1.0494 N   0  0  0  0  0  0  0  0  0  0  0  0
   -1.6825   -0.4636    0.9742 C   0  0  0  0  0  0  0  0  0  0  0  0
   -2.1196   -0.1837   -0.4665 C   0  0  0  0  0  0  0  0  0  0  0  0
   -1.4069   -0.3572   -1.4517 O   0  0  0  0  0  0  0  0  0  0  0  0
   -3.4251    0.2709   -0.5600 N   0  0  0  0  0  0  0  0  0  0  0  0
   -4.0600    0.4478   -1.8542 C   0  0  0  0  0  0  0  0  0  0  0  0
   -5.2457    1.4160   -1.8081 C   0  0  0  0  0  0  0  0  0  0  0  0
   -6.3676    0.9641   -0.8931 C   0  0  0  0  0  0  0  0  0  0  0  0
   -6.4448    1.5297    0.3940 C   0  0  0  0  0  0  0  0  0  0  0  0
   -7.4312    1.1338    1.2958 C   0  0  0  0  0  0  0  0  0  0  0  0
   -8.3556    0.1644    0.9268 C   0  0  0  0  0  0  0  0  0  0  0  0
   -8.2984   -0.4018   -0.3463 C   0  0  0  0  0  0  0  0  0  0  0  0
   -7.3179   -0.0069   -1.2726 C   0  0  0  0  0  0  0  0  0  0  0  0
   -7.3115   -0.6544   -2.6308 C   0  0  0  0  0  0  0  0  0  0  0  0
    0.1525   -2.0501    1.0190 N   0  0  0  0  0  0  0  0  0  0  0  0
    1.4180   -2.3638    0.9887 C   0  0  0  0  0  0  0  0  0  0  0  0
    1.7904   -3.8181    0.9327 C   0  0  0  0  0  0  0  0  0  0  0  0
    2.4107   -1.3169    1.0172 C   0  0  0  0  0  0  0  0  0  0  0  0
    3.7947   -1.2996    1.0742 C   0  0  0  0  0  0  0  0  0  0  0  0
    4.7546   -2.4172    1.2641 C   0  0  0  0  0  0  0  0  0  0  0  0
    6.5212   -0.0382    0.2449 C   0  0  0  0  0  0  0  0  0  0  0  0
    7.7470    0.6090    0.0430 C   0  0  0  0  0  0  0  0  0  0  0  0
    9.2828    2.9341   -0.9648 H   0  0  0  0  0  0  0  0  0  0  0  0
   10.0452    2.0045    0.3512 H   0  0  0  0  0  0  0  0  0  0  0  0
    9.2976    3.5638    0.6984 H   0  0  0  0  0  0  0  0  0  0  0  0
    6.8764    3.7422    1.0365 H   0  0  0  0  0  0  0  0  0  0  0  0
    4.7345    2.6249    1.3983 H   0  0  0  0  0  0  0  0  0  0  0  0
   -1.9395    0.3980    1.6000 H   0  0  0  0  0  0  0  0  0  0  0  0
   -2.2206   -1.3429    1.3444 H   0  0  0  0  0  0  0  0  0  0  0  0
   -4.0366    0.1097    0.2316 H   0  0  0  0  0  0  0  0  0  0  0  0
   -4.3641   -0.5458   -2.1976 H   0  0  0  0  0  0  0  0  0  0  0  0
   -3.3158    0.8245   -2.5651 H   0  0  0  0  0  0  0  0  0  0  0  0
   -5.6374    1.5691   -2.8200 H   0  0  0  0  0  0  0  0  0  0  0  0
   -4.8905    2.4034   -1.4844 H   0  0  0  0  0  0  0  0  0  0  0  0
   -5.7292    2.2906    0.7019 H   0  0  0  0  0  0  0  0  0  0  0  0
   -7.4784    1.5836    2.2840 H   0  0  0  0  0  0  0  0  0  0  0  0
   -9.1265   -0.1482    1.6264 H   0  0  0  0  0  0  0  0  0  0  0  0
   -9.0353   -1.1562   -0.6159 H   0  0  0  0  0  0  0  0  0  0  0  0
   -6.4726   -1.3502   -2.7173 H   0  0  0  0  0  0  0  0  0  0  0  0
   -7.2499    0.0982   -3.4224 H   0  0  0  0  0  0  0  0  0  0  0  0
   -8.2327   -1.2207   -2.8067 H   0  0  0  0  0  0  0  0  0  0  0  0
    2.5514   -3.9857    0.1664 H   0  0  0  0  0  0  0  0  0  0  0  0
    2.1711   -4.1346    1.9074 H   0  0  0  0  0  0  0  0  0  0  0  0
    0.9133   -4.4254    0.6894 H   0  0  0  0  0  0  0  0  0  0  0  0
    5.6413   -2.1049    1.8228 H   0  0  0  0  0  0  0  0  0  0  0  0
    5.0562   -2.8384    0.3010 H   0  0  0  0  0  0  0  0  0  0  0  0
    4.3065   -3.2205    1.8553 H   0  0  0  0  0  0  0  0  0  0  0  0
    6.4546   -1.0748   -0.0617 H   0  0  0  0  0  0  0  0  0  0  0  0
    8.5826    0.0463   -0.3689 H   0  0  0  0  0  0  0  0  0  0  0  0
  1  2  1  0
  2  3  2  0
  3  4  1  0
  4  5  2  0
  5  6  1  0
  6  7  1  0
  7  8  2  0
  8  9  1  0
  9 10  2  0
  9 11  1  0
 11 12  1  0
 12 13  1  0
 13 14  2  0
 13 15  1  0
 15 16  1  0
 16 17  1  0
 17 18  1  0
 18 19  2  0
 19 20  1  0
 20 21  2  0
 21 22  1  0
 22 23  2  0
 23 24  1  0
 11 25  1  0
 25 26  2  0
 26 27  1  0
 26 28  1  0
 28 29  2  0
 29 30  1  0
  5 31  1  0
 31 32  2  0
 32  2  1  0
 29  6  1  0
 28  8  1  0
 23 18  1  0
  1 33  1  0
  1 34  1  0
  1 35  1  0
  3 36  1  0
  4 37  1  0
 12 38  1  0
 12 39  1  0
 15 40  1  0
 16 41  1  0
 16 42  1  0
 17 43  1  0
 17 44  1  0
 19 45  1  0
 20 46  1  0
 21 47  1  0
 22 48  1  0
 24 49  1  0
 24 50  1  0
 24 51  1  0
 27 52  1  0
 27 53  1  0
 27 54  1  0
 30 55  1  0
 30 56  1  0
 30 57  1  0
 31 58  1  0
 32 59  1  0
M  END
$$$$
