
     RDKit          3D

 32 34  0  0  0  0  0  0  0  0999 V2000
    5.0022    0.8649   -0.5350 C   0  0  0  0  0  0  0  0  0  0  0  0
    4.4146   -0.4790   -0.1466 C   0  0  0  0  0  0  0  0  0  0  0  0
    2.9912   -0.4620   -0.3136 O   0  0  0  0  0  0  0  0  0  0  0  0
    2.2831   -0.0057    0.7522 C   0  0  0  0  0  0  0  0  0  0  0  0
    2.7387    0.4098    1.8077 O   0  0  0  0  0  0  0  0  0  0  0  0
    0.8506   -0.0649    0.4325 C   0  0  0  0  0  0  0  0  0  0  0  0
    0.1829    1.0943    0.2423 C   0  0  0  0  0  0  0  0  0  0  0  0
    0.8031    2.3253    0.3277 O   0  0  0  0  0  0  0  0  0  0  0  0
   -1.2553    1.0767   -0.0773 C   0  0  0  0  0  0  0  0  0  0  0  0
   -2.0879    2.1615   -0.3593 C   0  0  0  0  0  0  0  0  0  0  0  0
   -3.4566    1.9565   -0.6500 C   0  0  0  0  0  0  0  0  0  0  0  0
   -4.0162    0.6696   -0.6743 C   0  0  0  0  0  0  0  0  0  0  0  0
   -3.1882   -0.4024   -0.4136 C   0  0  0  0  0  0  0  0  0  0  0  0
   -1.8520   -0.1694   -0.1295 C   0  0  0  0  0  0  0  0  0  0  0  0
   -1.1685   -1.3543    0.0810 N   0  0  0  0  0  0  0  0  0  0  0  0
    0.1752   -1.3994    0.3514 C   0  0  0  0  0  0  0  0  0  0  0  0
    0.7843   -2.4499    0.5306 O   0  0  0  0  0  0  0  0  0  0  0  0
   -2.0880   -2.4811   -0.0669 C   0  0  0  0  0  0  0  0  0  0  0  0
   -3.4769   -1.8727   -0.3827 C   0  0  0  0  0  0  0  0  0  0  0  0
    4.6254    1.6611    0.1149 H   0  0  0  0  0  0  0  0  0  0  0  0
    4.7165    1.1278   -1.5588 H   0  0  0  0  0  0  0  0  0  0  0  0
    6.0935    0.8454   -0.4668 H   0  0  0  0  0  0  0  0  0  0  0  0
    4.8059   -1.2571   -0.8101 H   0  0  0  0  0  0  0  0  0  0  0  0
    4.6938   -0.7581    0.8759 H   0  0  0  0  0  0  0  0  0  0  0  0
    0.1645    2.9758    0.6641 H   0  0  0  0  0  0  0  0  0  0  0  0
   -1.7062    3.1781   -0.3792 H   0  0  0  0  0  0  0  0  0  0  0  0
   -4.0887    2.8162   -0.8672 H   0  0  0  0  0  0  0  0  0  0  0  0
   -5.0680    0.5283   -0.9026 H   0  0  0  0  0  0  0  0  0  0  0  0
   -1.7312   -3.1283   -0.8758 H   0  0  0  0  0  0  0  0  0  0  0  0
   -2.0954   -3.0634    0.8609 H   0  0  0  0  0  0  0  0  0  0  0  0
   -3.8483   -2.2268   -1.3491 H   0  0  0  0  0  0  0  0  0  0  0  0
   -4.1981   -2.1167    0.4033 H   0  0  0  0  0  0  0  0  0  0  0  0
  1  2  1  0
  2  3  1  0
  3  4  1  0
  4  5  2  0
  4  6  1  0
  6  7  2  0
  7  8  1  0
  7  9  1  0
  9 10  2  0
 10 11  1  0
 11 12  2  0
 12 13  1  0
 13 14  2  0
 14 15  1  0
 15 16  1  0
 16 17  2  0
 15 18  1  0
 18 19  1  0
 16  6  1  0
 14  9  1  0
 19 13  1  0
  1 20  1  0
  1 21  1  0
  1 22  1  0
  2 23  1  0
  2 24  1  0
  8 25  1  0
 10 26  1  0
 11 27  1  0
 12 28  1  0
 18 29  1  0
 18 30  1  0
 19 31  1  0
 19 32  1  0
M  END
$$$$
