
     RDKit          3D

 33 34  0  0  0  0  0  0  0  0999 V2000
   -6.1430    0.9801   -0.9714 C   0  0  0  0  0  0  0  0  0  0  0  0
   -4.8687    0.6811   -0.2022 C   0  0  0  0  0  0  0  0  0  0  0  0
   -3.9081    0.1691   -1.1246 O   0  0  0  0  0  0  0  0  0  0  0  0
   -2.6817   -0.1683   -0.6234 C   0  0  0  0  0  0  0  0  0  0  0  0
   -1.7867   -0.6775   -1.5689 C   0  0  0  0  0  0  0  0  0  0  0  0
   -0.4948   -1.0635   -1.1985 C   0  0  0  0  0  0  0  0  0  0  0  0
   -0.0842   -0.9330    0.1321 C   0  0  0  0  0  0  0  0  0  0  0  0
    1.2785   -1.3293    0.5857 C   0  0  0  0  0  0  0  0  0  0  0  0
    1.4705   -1.6410    1.7558 O   0  0  0  0  0  0  0  0  0  0  0  0
    2.2758   -1.2859   -0.3642 N   0  0  0  0  0  0  0  0  0  0  0  0
    3.6610   -1.4842    0.0006 C   0  0  0  0  0  0  0  0  0  0  0  0
    4.2727   -0.1578    0.2567 C   0  0  0  0  0  0  0  0  0  0  0  0
    4.4241    0.6096    1.3931 C   0  0  0  0  0  0  0  0  0  0  0  0
    5.0845    1.7942    0.9897 C   0  0  0  0  0  0  0  0  0  0  0  0
    5.2897    1.6765   -0.3649 C   0  0  0  0  0  0  0  0  0  0  0  0
    4.7966    0.4962   -0.8213 O   0  0  0  0  0  0  0  0  0  0  0  0
   -0.9848   -0.4373    1.0828 C   0  0  0  0  0  0  0  0  0  0  0  0
   -2.2769   -0.0522    0.7063 C   0  0  0  0  0  0  0  0  0  0  0  0
   -6.9154    1.3772   -0.3069 H   0  0  0  0  0  0  0  0  0  0  0  0
   -5.9515    1.7084   -1.7664 H   0  0  0  0  0  0  0  0  0  0  0  0
   -6.5234    0.0738   -1.4543 H   0  0  0  0  0  0  0  0  0  0  0  0
   -4.5012    1.6072    0.2547 H   0  0  0  0  0  0  0  0  0  0  0  0
   -5.0853   -0.0623    0.5736 H   0  0  0  0  0  0  0  0  0  0  0  0
   -2.1041   -0.7825   -2.6042 H   0  0  0  0  0  0  0  0  0  0  0  0
    0.1607   -1.4852   -1.9542 H   0  0  0  0  0  0  0  0  0  0  0  0
    2.1145   -0.7700   -1.2176 H   0  0  0  0  0  0  0  0  0  0  0  0
    3.7412   -2.1307    0.8802 H   0  0  0  0  0  0  0  0  0  0  0  0
    4.1542   -1.9811   -0.8407 H   0  0  0  0  0  0  0  0  0  0  0  0
    4.0874    0.3407    2.3856 H   0  0  0  0  0  0  0  0  0  0  0  0
    5.3721    2.6323    1.6085 H   0  0  0  0  0  0  0  0  0  0  0  0
    5.7455    2.3122   -1.1111 H   0  0  0  0  0  0  0  0  0  0  0  0
   -0.6810   -0.3467    2.1243 H   0  0  0  0  0  0  0  0  0  0  0  0
   -2.9380    0.3300    1.4769 H   0  0  0  0  0  0  0  0  0  0  0  0
  1  2  1  0
  2  3  1  0
  3  4  1  0
  4  5  2  0
  5  6  1  0
  6  7  2  0
  7  8  1  0
  8  9  2  0
  8 10  1  0
 10 11  1  0
 11 12  1  0
 12 13  2  0
 13 14  1  0
 14 15  2  0
 15 16  1  0
  7 17  1  0
 17 18  2  0
 18  4  1  0
 16 12  1  0
  1 19  1  0
  1 20  1  0
  1 21  1  0
  2 22  1  0
  2 23  1  0
  5 24  1  0
  6 25  1  0
 10 26  1  0
 11 27  1  0
 11 28  1  0
 13 29  1  0
 14 30  1  0
 15 31  1  0
 17 32  1  0
 18 33  1  0
M  END
$$$$
