
     RDKit          3D

 61 67  0  0  0  0  0  0  0  0999 V2000
    2.8503   -1.0822   -3.1553 O   0  0  0  0  0  0  0  0  0  0  0  0
    2.8118   -0.5856   -2.0329 C   0  0  0  0  0  0  0  0  0  0  0  0
    4.0513   -0.6281   -1.2264 C   0  0  0  0  0  0  0  0  0  0  0  0
    4.7163   -1.8622   -1.0730 C   0  0  0  0  0  0  0  0  0  0  0  0
    5.9035   -1.9359   -0.3391 C   0  0  0  0  0  0  0  0  0  0  0  0
    6.3933   -0.7664    0.2038 C   0  0  0  0  0  0  0  0  0  0  0  0
    5.7533    0.4405    0.0330 C   0  0  0  0  0  0  0  0  0  0  0  0
    4.5828    0.5497   -0.6852 C   0  0  0  0  0  0  0  0  0  0  0  0
    6.4084    1.4651    0.6416 O   0  0  0  0  0  0  0  0  0  0  0  0
    7.5427    0.7698    1.2014 C   0  0  0  0  0  0  0  0  0  0  0  0
    7.5296   -0.6492    0.9411 O   0  0  0  0  0  0  0  0  0  0  0  0
    1.6724    0.0241   -1.4953 N   0  0  0  0  0  0  0  0  0  0  0  0
    1.3975    0.0827   -0.0644 C   0  0  0  0  0  0  0  0  0  0  0  0
    0.5065   -1.0886    0.3346 C   0  0  0  0  0  0  0  0  0  0  0  0
   -0.8085   -1.1950   -0.4870 C   0  0  0  0  0  0  0  0  0  0  0  0
   -0.5048   -0.9936   -2.0033 C   0  0  0  0  0  0  0  0  0  0  0  0
    0.4915    0.1091   -2.3420 C   0  0  0  0  0  0  0  0  0  0  0  0
   -1.2147   -2.6031   -0.4520 O   0  0  0  0  0  0  0  0  0  0  0  0
   -1.8773   -3.0639    0.6440 C   0  0  0  0  0  0  0  0  0  0  0  0
   -1.9860   -4.4504    0.7608 C   0  0  0  0  0  0  0  0  0  0  0  0
   -2.6318   -5.0096    1.8650 C   0  0  0  0  0  0  0  0  0  0  0  0
   -3.1672   -4.1768    2.8426 C   0  0  0  0  0  0  0  0  0  0  0  0
   -3.7804   -4.7165    3.9034 F   0  0  0  0  0  0  0  0  0  0  0  0
   -3.0778   -2.7958    2.7333 C   0  0  0  0  0  0  0  0  0  0  0  0
   -2.4390   -2.2479    1.6185 C   0  0  0  0  0  0  0  0  0  0  0  0
   -2.3363   -0.7949    1.4508 C   0  0  0  0  0  0  0  0  0  0  0  0
   -2.5121   -0.0590    2.4191 O   0  0  0  0  0  0  0  0  0  0  0  0
   -1.9731   -0.3018    0.0480 C   0  0  0  0  0  0  0  0  0  0  0  0
   -1.7753    1.2041    0.0671 C   0  0  0  0  0  0  0  0  0  0  0  0
   -3.1791    1.6208   -0.2260 C   0  0  0  0  0  0  0  0  0  0  0  0
   -3.6591    3.0057   -0.0077 C   0  0  0  0  0  0  0  0  0  0  0  0
   -5.0087    3.2992   -0.2484 C   0  0  0  0  0  0  0  0  0  0  0  0
   -5.4949    4.5958   -0.0587 C   0  0  0  0  0  0  0  0  0  0  0  0
   -4.6321    5.6009    0.3711 C   0  0  0  0  0  0  0  0  0  0  0  0
   -5.2261    7.1980    0.6043 Cl  0  0  0  0  0  0  0  0  0  0  0  0
   -3.2878    5.3201    0.6118 C   0  0  0  0  0  0  0  0  0  0  0  0
   -2.7987    4.0230    0.4220 C   0  0  0  0  0  0  0  0  0  0  0  0
   -3.9217    0.6841   -0.7239 N   0  0  0  0  0  0  0  0  0  0  0  0
   -3.1395   -0.4905   -0.7760 O   0  0  0  0  0  0  0  0  0  0  0  0
    4.3067   -2.7588   -1.5345 H   0  0  0  0  0  0  0  0  0  0  0  0
    6.4275   -2.8760   -0.2091 H   0  0  0  0  0  0  0  0  0  0  0  0
    4.1034    1.5106   -0.8297 H   0  0  0  0  0  0  0  0  0  0  0  0
    7.5488    0.9272    2.2861 H   0  0  0  0  0  0  0  0  0  0  0  0
    8.4594    1.1963    0.7783 H   0  0  0  0  0  0  0  0  0  0  0  0
    0.9271    1.0452    0.1536 H   0  0  0  0  0  0  0  0  0  0  0  0
    2.3134    0.0361    0.5274 H   0  0  0  0  0  0  0  0  0  0  0  0
    1.0784   -2.0181    0.2002 H   0  0  0  0  0  0  0  0  0  0  0  0
    0.3000   -1.0343    1.4094 H   0  0  0  0  0  0  0  0  0  0  0  0
   -0.0887   -1.9334   -2.3967 H   0  0  0  0  0  0  0  0  0  0  0  0
   -1.4300   -0.8425   -2.5717 H   0  0  0  0  0  0  0  0  0  0  0  0
    0.0640    1.1052   -2.2200 H   0  0  0  0  0  0  0  0  0  0  0  0
    0.7692    0.0365   -3.3998 H   0  0  0  0  0  0  0  0  0  0  0  0
   -1.5629   -5.0959   -0.0053 H   0  0  0  0  0  0  0  0  0  0  0  0
   -2.7194   -6.0867    1.9689 H   0  0  0  0  0  0  0  0  0  0  0  0
   -3.5114   -2.1642    3.5029 H   0  0  0  0  0  0  0  0  0  0  0  0
   -1.3976    1.5968    1.0134 H   0  0  0  0  0  0  0  0  0  0  0  0
   -1.1686    1.5857   -0.7490 H   0  0  0  0  0  0  0  0  0  0  0  0
   -5.6919    2.5205   -0.5837 H   0  0  0  0  0  0  0  0  0  0  0  0
   -6.5437    4.8103   -0.2477 H   0  0  0  0  0  0  0  0  0  0  0  0
   -2.6160    6.1066    0.9472 H   0  0  0  0  0  0  0  0  0  0  0  0
   -1.7466    3.8372    0.6147 H   0  0  0  0  0  0  0  0  0  0  0  0
  1  2  2  0
  2  3  1  0
  3  4  2  0
  4  5  1  0
  5  6  2  0
  6  7  1  0
  7  8  2  0
  7  9  1  0
  9 10  1  0
 10 11  1  0
  2 12  1  0
 12 13  1  0
 13 14  1  0
 14 15  1  0
 15 16  1  0
 16 17  1  0
 15 18  1  0
 18 19  1  0
 19 20  2  0
 20 21  1  0
 21 22  2  0
 22 23  1  0
 22 24  1  0
 24 25  2  0
 25 26  1  0
 26 27  2  0
 26 28  1  0
 28 29  1  0
 29 30  1  0
 30 31  1  0
 31 32  2  0
 32 33  1  0
 33 34  2  0
 34 35  1  0
 34 36  1  0
 36 37  2  0
 30 38  2  0
 38 39  1  0
  8  3  1  0
 17 12  1  0
 25 19  1  0
 39 28  1  0
 11  6  1  0
 28 15  1  0
 37 31  1  0
  4 40  1  0
  5 41  1  0
  8 42  1  0
 10 43  1  0
 10 44  1  0
 13 45  1  0
 13 46  1  0
 14 47  1  0
 14 48  1  0
 16 49  1  0
 16 50  1  0
 17 51  1  0
 17 52  1  0
 20 53  1  0
 21 54  1  0
 24 55  1  0
 29 56  1  0
 29 57  1  0
 32 58  1  0
 33 59  1  0
 36 60  1  0
 37 61  1  0
M  END
$$$$
