
     RDKit          3D

 44 46  0  0  0  0  0  0  0  0999 V2000
   -5.6463   -0.7539   -3.2030 C   0  0  0  0  0  0  0  0  0  0  0  0
   -4.6650   -1.0988   -2.1211 C   0  0  0  0  0  0  0  0  0  0  0  0
   -4.4889   -0.2386   -1.0280 C   0  0  0  0  0  0  0  0  0  0  0  0
   -3.6029   -0.5709   -0.0013 C   0  0  0  0  0  0  0  0  0  0  0  0
   -2.8895   -1.7701   -0.0701 C   0  0  0  0  0  0  0  0  0  0  0  0
   -1.7656   -2.2052    1.2322 S   0  0  0  0  0  6  0  0  0  0  0  0
   -1.9734   -1.3152    2.3542 O   0  0  0  0  0  0  0  0  0  0  0  0
   -1.8346   -3.6423    1.4017 O   0  0  0  0  0  0  0  0  0  0  0  0
   -0.2529   -1.8917    0.5395 N   0  0  0  0  0  0  0  0  0  0  0  0
    0.1951   -0.5421    0.5097 C   0  0  0  0  0  0  0  0  0  0  0  0
   -0.1423    0.2694   -0.5746 C   0  0  0  0  0  0  0  0  0  0  0  0
    0.2524    1.6133   -0.6047 C   0  0  0  0  0  0  0  0  0  0  0  0
   -0.0968    2.4794   -1.7794 C   0  0  0  0  0  0  0  0  0  0  0  0
    0.9940    2.1185    0.4708 C   0  0  0  0  0  0  0  0  0  0  0  0
    1.3769    3.4349    0.4204 O   0  0  0  0  0  0  0  0  0  0  0  0
    1.3335    1.3086    1.5669 C   0  0  0  0  0  0  0  0  0  0  0  0
    2.2566    1.9666    2.9465 S   0  0  0  0  0  0  0  0  0  0  0  0
    3.8835    1.4587    2.5671 C   0  0  0  0  0  0  0  0  0  0  0  0
    4.9377    2.0156    3.1728 N   0  0  0  0  0  0  0  0  0  0  0  0
    5.9567    1.3574    2.6011 N   0  0  0  0  0  0  0  0  0  0  0  0
    5.5105    0.4448    1.6883 C   0  0  0  0  0  0  0  0  0  0  0  0
    6.4133   -0.4217    0.9042 C   0  0  0  0  0  0  0  0  0  0  0  0
    4.1961    0.4866    1.6544 N   0  0  0  0  0  0  0  0  0  0  0  0
    0.9174   -0.0263    1.5841 C   0  0  0  0  0  0  0  0  0  0  0  0
   -3.0747   -2.6507   -1.1389 C   0  0  0  0  0  0  0  0  0  0  0  0
   -3.9636   -2.3127   -2.1612 C   0  0  0  0  0  0  0  0  0  0  0  0
   -5.3541   -1.2078   -4.1559 H   0  0  0  0  0  0  0  0  0  0  0  0
   -5.6886    0.3295   -3.3590 H   0  0  0  0  0  0  0  0  0  0  0  0
   -6.6437   -1.1132   -2.9315 H   0  0  0  0  0  0  0  0  0  0  0  0
   -5.0446    0.6949   -0.9682 H   0  0  0  0  0  0  0  0  0  0  0  0
   -3.4735    0.1074    0.8399 H   0  0  0  0  0  0  0  0  0  0  0  0
    0.4211   -2.6009    0.8256 H   0  0  0  0  0  0  0  0  0  0  0  0
   -0.7048   -0.1476   -1.4060 H   0  0  0  0  0  0  0  0  0  0  0  0
   -0.7714    1.9619   -2.4708 H   0  0  0  0  0  0  0  0  0  0  0  0
   -0.6065    3.3891   -1.4464 H   0  0  0  0  0  0  0  0  0  0  0  0
    0.8092    2.7510   -2.3305 H   0  0  0  0  0  0  0  0  0  0  0  0
    1.8697    3.6215    1.2404 H   0  0  0  0  0  0  0  0  0  0  0  0
    6.9085    1.5804    2.8719 H   0  0  0  0  0  0  0  0  0  0  0  0
    7.2935    0.1330    0.5629 H   0  0  0  0  0  0  0  0  0  0  0  0
    5.8970   -0.8143    0.0215 H   0  0  0  0  0  0  0  0  0  0  0  0
    6.7488   -1.2700    1.5100 H   0  0  0  0  0  0  0  0  0  0  0  0
    1.1582   -0.6602    2.4337 H   0  0  0  0  0  0  0  0  0  0  0  0
   -2.5364   -3.5947   -1.1798 H   0  0  0  0  0  0  0  0  0  0  0  0
   -4.1095   -3.0036   -2.9894 H   0  0  0  0  0  0  0  0  0  0  0  0
  1  2  1  0
  2  3  2  0
  3  4  1  0
  4  5  2  0
  5  6  1  0
  6  7  2  0
  6  8  2  0
  6  9  1  0
  9 10  1  0
 10 11  2  0
 11 12  1  0
 12 13  1  0
 12 14  2  0
 14 15  1  0
 14 16  1  0
 16 17  1  0
 17 18  1  0
 18 19  2  0
 19 20  1  0
 20 21  1  0
 21 22  1  0
 21 23  2  0
 16 24  2  0
  5 25  1  0
 25 26  2  0
 26  2  1  0
 24 10  1  0
 23 18  1  0
  1 27  1  0
  1 28  1  0
  1 29  1  0
  3 30  1  0
  4 31  1  0
  9 32  1  0
 11 33  1  0
 13 34  1  0
 13 35  1  0
 13 36  1  0
 15 37  1  0
 20 38  1  0
 22 39  1  0
 22 40  1  0
 22 41  1  0
 24 42  1  0
 25 43  1  0
 26 44  1  0
M  END
$$$$
