
     RDKit          3D

 51 55  0  0  0  0  0  0  0  0999 V2000
   -8.3632    1.8491   -0.6886 F   0  0  0  0  0  0  0  0  0  0  0  0
   -7.4692    0.8718   -0.4883 C   0  0  0  0  0  0  0  0  0  0  0  0
   -7.7378   -0.4075   -0.9599 C   0  0  0  0  0  0  0  0  0  0  0  0
   -6.8061   -1.4233   -0.7552 C   0  0  0  0  0  0  0  0  0  0  0  0
   -5.6135   -1.1506   -0.0793 C   0  0  0  0  0  0  0  0  0  0  0  0
   -5.3443    0.1401    0.4016 C   0  0  0  0  0  0  0  0  0  0  0  0
   -4.0462    0.4382    1.1140 C   0  0  0  0  0  0  0  0  0  0  0  0
   -2.9374    0.8395    0.1250 C   0  0  0  0  0  0  0  0  0  0  0  0
   -1.6760    1.2120    0.7888 N   0  0  0  0  0  0  0  0  0  0  0  0
   -0.7019    1.7802   -0.1692 C   0  0  0  0  0  0  0  0  0  0  0  0
    0.3103    0.7733   -0.7594 C   0  0  0  0  0  0  0  0  0  0  0  0
    1.0638    0.0679    0.2884 N   0  0  0  0  0  0  0  0  0  0  0  0
    2.4320   -0.1639    0.1725 C   0  0  0  0  0  0  0  0  0  0  0  0
    3.1671   -0.0501    1.2524 N   0  0  0  0  0  0  0  0  0  0  0  0
    4.5618   -0.2297    1.2026 C   0  0  0  0  0  0  0  0  0  0  0  0
    5.2924   -0.0769    2.3827 C   0  0  0  0  0  0  0  0  0  0  0  0
    6.6812   -0.2320    2.3877 C   0  0  0  0  0  0  0  0  0  0  0  0
    7.3547   -0.5422    1.2060 C   0  0  0  0  0  0  0  0  0  0  0  0
    6.6444   -0.6997    0.0153 C   0  0  0  0  0  0  0  0  0  0  0  0
    5.2552   -0.5407    0.0263 C   0  0  0  0  0  0  0  0  0  0  0  0
    4.4614   -0.6947   -1.1215 N   0  0  0  0  0  0  0  0  0  0  0  0
    4.8382   -1.0228   -2.4024 C   0  0  0  0  0  0  0  0  0  0  0  0
    3.7009   -1.1344   -3.1706 C   0  0  0  0  0  0  0  0  0  0  0  0
    2.6001   -0.8488   -2.3301 C   0  0  0  0  0  0  0  0  0  0  0  0
    3.0915   -0.5377   -1.0733 C   0  0  0  0  0  0  0  0  0  0  0  0
    0.4570    0.1229    1.6312 C   0  0  0  0  0  0  0  0  0  0  0  0
   -1.0816    0.0745    1.5307 C   0  0  0  0  0  0  0  0  0  0  0  0
   -6.2856    1.1551    0.1861 C   0  0  0  0  0  0  0  0  0  0  0  0
   -8.6683   -0.6032   -1.4825 H   0  0  0  0  0  0  0  0  0  0  0  0
   -7.0069   -2.4271   -1.1207 H   0  0  0  0  0  0  0  0  0  0  0  0
   -4.8947   -1.9537    0.0721 H   0  0  0  0  0  0  0  0  0  0  0  0
   -3.7549   -0.4449    1.6956 H   0  0  0  0  0  0  0  0  0  0  0  0
   -4.2086    1.2419    1.8440 H   0  0  0  0  0  0  0  0  0  0  0  0
   -3.3016    1.7031   -0.4476 H   0  0  0  0  0  0  0  0  0  0  0  0
   -2.7678    0.0341   -0.6022 H   0  0  0  0  0  0  0  0  0  0  0  0
   -0.1377    2.5536    0.3693 H   0  0  0  0  0  0  0  0  0  0  0  0
   -1.2097    2.3109   -0.9840 H   0  0  0  0  0  0  0  0  0  0  0  0
   -0.2231    0.0370   -1.3710 H   0  0  0  0  0  0  0  0  0  0  0  0
    0.9883    1.3325   -1.4143 H   0  0  0  0  0  0  0  0  0  0  0  0
    4.7703    0.1674    3.3039 H   0  0  0  0  0  0  0  0  0  0  0  0
    7.2349   -0.1092    3.3150 H   0  0  0  0  0  0  0  0  0  0  0  0
    8.4354   -0.6624    1.2143 H   0  0  0  0  0  0  0  0  0  0  0  0
    7.1899   -0.9435   -0.8900 H   0  0  0  0  0  0  0  0  0  0  0  0
    5.8736   -1.1720   -2.6716 H   0  0  0  0  0  0  0  0  0  0  0  0
    3.6688   -1.4045   -4.2183 H   0  0  0  0  0  0  0  0  0  0  0  0
    1.5595   -0.8738   -2.6204 H   0  0  0  0  0  0  0  0  0  0  0  0
    0.7752    1.0336    2.1540 H   0  0  0  0  0  0  0  0  0  0  0  0
    0.7889   -0.7386    2.2232 H   0  0  0  0  0  0  0  0  0  0  0  0
   -1.3486   -0.8764    1.0494 H   0  0  0  0  0  0  0  0  0  0  0  0
   -1.5025    0.0585    2.5424 H   0  0  0  0  0  0  0  0  0  0  0  0
   -6.1097    2.1676    0.5378 H   0  0  0  0  0  0  0  0  0  0  0  0
  1  2  1  0
  2  3  2  0
  3  4  1  0
  4  5  2  0
  5  6  1  0
  6  7  1  0
  7  8  1  0
  8  9  1  0
  9 10  1  0
 10 11  1  0
 11 12  1  0
 12 13  1  0
 13 14  2  0
 14 15  1  0
 15 16  2  0
 16 17  1  0
 17 18  2  0
 18 19  1  0
 19 20  2  0
 20 21  1  0
 21 22  1  0
 22 23  2  0
 23 24  1  0
 24 25  2  0
 12 26  1  0
 26 27  1  0
  6 28  2  0
 28  2  1  0
 27  9  1  0
 25 13  1  0
 20 15  1  0
 25 21  1  0
  3 29  1  0
  4 30  1  0
  5 31  1  0
  7 32  1  0
  7 33  1  0
  8 34  1  0
  8 35  1  0
 10 36  1  0
 10 37  1  0
 11 38  1  0
 11 39  1  0
 16 40  1  0
 17 41  1  0
 18 42  1  0
 19 43  1  0
 22 44  1  0
 23 45  1  0
 24 46  1  0
 26 47  1  0
 26 48  1  0
 27 49  1  0
 27 50  1  0
 28 51  1  0
M  END
$$$$
