
     RDKit          3D

 58 62  0  0  0  0  0  0  0  0999 V2000
    9.2009    0.6186    1.9508 C   0  0  0  0  0  0  0  0  0  0  0  0
    8.4324    0.0668    0.8884 O   0  0  0  0  0  0  0  0  0  0  0  0
    7.0707    0.1087    1.0221 C   0  0  0  0  0  0  0  0  0  0  0  0
    6.3689    0.6340    2.1099 C   0  0  0  0  0  0  0  0  0  0  0  0
    4.9677    0.6158    2.1207 C   0  0  0  0  0  0  0  0  0  0  0  0
    4.2492    0.0766    1.0529 C   0  0  0  0  0  0  0  0  0  0  0  0
    2.8424    0.1009    1.1122 N   0  0  0  0  0  0  0  0  0  0  0  0
    2.1236   -0.3757    0.1258 C   0  0  0  0  0  0  0  0  0  0  0  0
    0.7377   -0.2908    0.1995 N   0  0  0  0  0  0  0  0  0  0  0  0
   -0.0108    0.3868   -0.8635 C   0  0  0  0  0  0  0  0  0  0  0  0
   -1.4704   -0.1244   -0.9246 C   0  0  0  0  0  0  0  0  0  0  0  0
   -2.1506   -0.3022    0.3808 N   0  0  0  0  0  0  0  0  0  0  0  0
   -3.5352    0.1933    0.3746 C   0  0  0  0  0  0  0  0  0  0  0  0
   -4.4586   -0.6521   -0.5230 C   0  0  0  0  0  0  0  0  0  0  0  0
   -5.8826   -0.1259   -0.5208 C   0  0  0  0  0  0  0  0  0  0  0  0
   -6.7336   -0.5148    0.5314 C   0  0  0  0  0  0  0  0  0  0  0  0
   -8.0495   -0.0564    0.5978 C   0  0  0  0  0  0  0  0  0  0  0  0
   -8.5376    0.7970   -0.3856 C   0  0  0  0  0  0  0  0  0  0  0  0
   -7.7080    1.1956   -1.4349 C   0  0  0  0  0  0  0  0  0  0  0  0
   -6.3730    0.7509   -1.5178 C   0  0  0  0  0  0  0  0  0  0  0  0
   -5.5206    1.2065   -2.6843 C   0  0  0  0  0  0  0  0  0  0  0  0
   -4.3127    1.7069   -2.2966 F   0  0  0  0  0  0  0  0  0  0  0  0
   -6.0968    2.1938   -3.4311 F   0  0  0  0  0  0  0  0  0  0  0  0
   -5.2445    0.1973   -3.5586 F   0  0  0  0  0  0  0  0  0  0  0  0
   -1.3623    0.3056    1.4666 C   0  0  0  0  0  0  0  0  0  0  0  0
    0.0899   -0.2249    1.5257 C   0  0  0  0  0  0  0  0  0  0  0  0
    2.8144   -0.9841   -1.0024 C   0  0  0  0  0  0  0  0  0  0  0  0
    2.3463   -1.6763   -2.1055 C   0  0  0  0  0  0  0  0  0  0  0  0
    3.4638   -2.0402   -2.8927 C   0  0  0  0  0  0  0  0  0  0  0  0
    4.5891   -1.5938   -2.2342 C   0  0  0  0  0  0  0  0  0  0  0  0
    4.1905   -0.9879   -1.0662 N   0  0  0  0  0  0  0  0  0  0  0  0
    4.9667   -0.4461   -0.0297 C   0  0  0  0  0  0  0  0  0  0  0  0
    6.3648   -0.4366   -0.0543 C   0  0  0  0  0  0  0  0  0  0  0  0
    8.9919    1.6877    2.0769 H   0  0  0  0  0  0  0  0  0  0  0  0
    9.0347    0.0692    2.8844 H   0  0  0  0  0  0  0  0  0  0  0  0
   10.2589    0.5155    1.6864 H   0  0  0  0  0  0  0  0  0  0  0  0
    6.8765    1.0649    2.9666 H   0  0  0  0  0  0  0  0  0  0  0  0
    4.4271    1.0284    2.9694 H   0  0  0  0  0  0  0  0  0  0  0  0
   -0.0024    1.4674   -0.6694 H   0  0  0  0  0  0  0  0  0  0  0  0
    0.4477    0.2499   -1.8470 H   0  0  0  0  0  0  0  0  0  0  0  0
   -1.4751   -1.1030   -1.4216 H   0  0  0  0  0  0  0  0  0  0  0  0
   -2.0226    0.5642   -1.5776 H   0  0  0  0  0  0  0  0  0  0  0  0
   -3.9344    0.1494    1.3972 H   0  0  0  0  0  0  0  0  0  0  0  0
   -3.5654    1.2509    0.0795 H   0  0  0  0  0  0  0  0  0  0  0  0
   -4.4651   -1.6931   -0.1697 H   0  0  0  0  0  0  0  0  0  0  0  0
   -4.0810   -0.7025   -1.5500 H   0  0  0  0  0  0  0  0  0  0  0  0
   -6.3712   -1.1859    1.3100 H   0  0  0  0  0  0  0  0  0  0  0  0
   -8.6939   -0.3691    1.4171 H   0  0  0  0  0  0  0  0  0  0  0  0
   -9.5647    1.1525   -0.3374 H   0  0  0  0  0  0  0  0  0  0  0  0
   -8.1126    1.8619   -2.1974 H   0  0  0  0  0  0  0  0  0  0  0  0
   -1.3436    1.3983    1.3517 H   0  0  0  0  0  0  0  0  0  0  0  0
   -1.8341    0.0965    2.4347 H   0  0  0  0  0  0  0  0  0  0  0  0
    0.0859   -1.2389    1.9469 H   0  0  0  0  0  0  0  0  0  0  0  0
    0.6513    0.4189    2.2153 H   0  0  0  0  0  0  0  0  0  0  0  0
    1.3088   -1.8973   -2.3195 H   0  0  0  0  0  0  0  0  0  0  0  0
    3.4526   -2.5800   -3.8307 H   0  0  0  0  0  0  0  0  0  0  0  0
    5.6317   -1.6839   -2.5024 H   0  0  0  0  0  0  0  0  0  0  0  0
    6.9267   -0.8450   -0.8891 H   0  0  0  0  0  0  0  0  0  0  0  0
  1  2  1  0
  2  3  1  0
  3  4  2  0
  4  5  1  0
  5  6  2  0
  6  7  1  0
  7  8  2  0
  8  9  1  0
  9 10  1  0
 10 11  1  0
 11 12  1  0
 12 13  1  0
 13 14  1  0
 14 15  1  0
 15 16  2  0
 16 17  1  0
 17 18  2  0
 18 19  1  0
 19 20  2  0
 20 21  1  0
 21 22  1  0
 21 23  1  0
 21 24  1  0
 12 25  1  0
 25 26  1  0
  8 27  1  0
 27 28  2  0
 28 29  1  0
 29 30  2  0
 30 31  1  0
 31 32  1  0
 32 33  2  0
 33  3  1  0
 32  6  1  0
 26  9  1  0
 31 27  1  0
 20 15  1  0
  1 34  1  0
  1 35  1  0
  1 36  1  0
  4 37  1  0
  5 38  1  0
 10 39  1  0
 10 40  1  0
 11 41  1  0
 11 42  1  0
 13 43  1  0
 13 44  1  0
 14 45  1  0
 14 46  1  0
 16 47  1  0
 17 48  1  0
 18 49  1  0
 19 50  1  0
 25 51  1  0
 25 52  1  0
 26 53  1  0
 26 54  1  0
 28 55  1  0
 29 56  1  0
 30 57  1  0
 33 58  1  0
M  END
$$$$
