
     RDKit          3D

 48 51  0  0  0  0  0  0  0  0999 V2000
    2.7111   -2.2809    2.2253 C   0  0  0  0  0  0  0  0  0  0  0  0
    2.5291   -0.9113    1.6552 C   0  0  0  0  0  0  0  0  0  0  0  0
    1.4087   -0.3459    1.1754 C   0  0  0  0  0  0  0  0  0  0  0  0
    0.0938   -0.7106    1.0831 N   0  0  0  0  0  0  0  0  0  0  0  0
   -0.5817   -1.7433    1.6890 C   0  0  0  0  0  0  0  0  0  0  0  0
   -0.0936   -2.5029    2.5244 O   0  0  0  0  0  0  0  0  0  0  0  0
   -2.0649   -1.8488    1.3469 C   0  0  0  0  0  0  0  0  0  0  0  0
   -2.4995   -1.0534   -0.2383 S   0  0  0  0  0  0  0  0  0  0  0  0
   -4.2726   -1.3487   -0.2902 C   0  0  0  0  0  0  0  0  0  0  0  0
   -4.7740   -2.0638    0.7358 N   0  0  0  0  0  0  0  0  0  0  0  0
   -6.0882   -2.2935    0.7032 C   0  0  0  0  0  0  0  0  0  0  0  0
   -6.9369   -1.8791   -0.2416 N   0  0  0  0  0  0  0  0  0  0  0  0
   -6.4234   -1.1673   -1.2504 C   0  0  0  0  0  0  0  0  0  0  0  0
   -7.2856   -0.7208   -2.2449 C   0  0  0  0  0  0  0  0  0  0  0  0
   -6.8366    0.0312   -3.3335 C   0  0  0  0  0  0  0  0  0  0  0  0
   -5.4909    0.3491   -3.4399 C   0  0  0  0  0  0  0  0  0  0  0  0
   -4.6057   -0.0886   -2.4569 C   0  0  0  0  0  0  0  0  0  0  0  0
   -5.0607   -0.8532   -1.3463 C   0  0  0  0  0  0  0  0  0  0  0  0
    1.8337    0.9768    0.6112 C   0  0  0  0  0  0  0  0  0  0  0  0
    1.0476    1.7180    0.0369 O   0  0  0  0  0  0  0  0  0  0  0  0
    3.2082    1.0841    0.8303 N   0  0  0  0  0  0  0  0  0  0  0  0
    4.1033    1.8924    0.0822 C   0  0  0  0  0  0  0  0  0  0  0  0
    5.4462    1.5222   -0.0915 C   0  0  0  0  0  0  0  0  0  0  0  0
    6.3265    2.3205   -0.8292 C   0  0  0  0  0  0  0  0  0  0  0  0
    5.8763    3.5029   -1.4087 C   0  0  0  0  0  0  0  0  0  0  0  0
    4.5467    3.8833   -1.2539 C   0  0  0  0  0  0  0  0  0  0  0  0
    3.6677    3.0829   -0.5161 C   0  0  0  0  0  0  0  0  0  0  0  0
    3.6562   -0.0723    1.5325 N   0  0  0  0  0  0  0  0  0  0  0  0
    4.3912    0.2472    2.7718 C   0  0  0  0  0  0  0  0  0  0  0  0
    2.4680   -2.2933    3.2921 H   0  0  0  0  0  0  0  0  0  0  0  0
    2.1060   -3.0214    1.6946 H   0  0  0  0  0  0  0  0  0  0  0  0
    3.7503   -2.6114    2.1140 H   0  0  0  0  0  0  0  0  0  0  0  0
   -0.4747   -0.0645    0.5352 H   0  0  0  0  0  0  0  0  0  0  0  0
   -2.6234   -1.3808    2.1635 H   0  0  0  0  0  0  0  0  0  0  0  0
   -2.3127   -2.9133    1.2865 H   0  0  0  0  0  0  0  0  0  0  0  0
   -6.5083   -2.8717    1.5192 H   0  0  0  0  0  0  0  0  0  0  0  0
   -8.3435   -0.9641   -2.1705 H   0  0  0  0  0  0  0  0  0  0  0  0
   -7.5411    0.3641   -4.0916 H   0  0  0  0  0  0  0  0  0  0  0  0
   -5.1290    0.9342   -4.2821 H   0  0  0  0  0  0  0  0  0  0  0  0
   -3.5544    0.1706   -2.5607 H   0  0  0  0  0  0  0  0  0  0  0  0
    5.8216    0.5885    0.3178 H   0  0  0  0  0  0  0  0  0  0  0  0
    7.3602    2.0096   -0.9589 H   0  0  0  0  0  0  0  0  0  0  0  0
    6.5570    4.1223   -1.9864 H   0  0  0  0  0  0  0  0  0  0  0  0
    4.1866    4.8028   -1.7081 H   0  0  0  0  0  0  0  0  0  0  0  0
    2.6406    3.4220   -0.4084 H   0  0  0  0  0  0  0  0  0  0  0  0
    4.8255   -0.6616    3.2008 H   0  0  0  0  0  0  0  0  0  0  0  0
    5.2157    0.9425    2.5905 H   0  0  0  0  0  0  0  0  0  0  0  0
    3.7237    0.6992    3.5146 H   0  0  0  0  0  0  0  0  0  0  0  0
  1  2  1  0
  2  3  2  0
  3  4  1  0
  4  5  1  0
  5  6  2  0
  5  7  1  0
  7  8  1  0
  8  9  1  0
  9 10  2  0
 10 11  1  0
 11 12  2  0
 12 13  1  0
 13 14  2  0
 14 15  1  0
 15 16  2  0
 16 17  1  0
 17 18  2  0
  3 19  1  0
 19 20  2  0
 19 21  1  0
 21 22  1  0
 22 23  2  0
 23 24  1  0
 24 25  2  0
 25 26  1  0
 26 27  2  0
 21 28  1  0
 28 29  1  0
 28  2  1  0
 18  9  1  0
 27 22  1  0
 18 13  1  0
  1 30  1  0
  1 31  1  0
  1 32  1  0
  4 33  1  0
  7 34  1  0
  7 35  1  0
 11 36  1  0
 14 37  1  0
 15 38  1  0
 16 39  1  0
 17 40  1  0
 23 41  1  0
 24 42  1  0
 25 43  1  0
 26 44  1  0
 27 45  1  0
 29 46  1  0
 29 47  1  0
 29 48  1  0
M  END
$$$$
