
     RDKit          3D

 47 49  0  0  0  0  0  0  0  0999 V2000
   -0.6290    0.3117    1.4714 C   0  0  0  0  0  0  0  0  0  0  0  0
   -1.6768   -0.7859    1.5752 C   0  0  0  0  0  0  0  0  0  0  0  0
   -2.7323   -0.6657    0.5563 N   0  0  0  0  0  4  0  0  0  0  0  0
   -2.8058   -1.4428   -0.5197 C   0  0  0  0  0  0  0  0  0  0  0  0
   -1.9224   -2.4743   -0.9269 C   0  0  0  0  0  0  0  0  0  0  0  0
   -0.6300   -2.2215   -1.1804 C   0  0  0  0  0  0  0  0  0  0  0  0
    0.3201   -3.2330   -1.5945 C   0  0  0  0  0  0  0  0  0  0  0  0
    1.6509   -3.0559   -1.6508 C   0  0  0  0  0  0  0  0  0  0  0  0
    2.3393   -1.8253   -1.2551 C   0  0  0  0  0  0  0  0  0  0  0  0
    2.7092   -1.6209    0.0718 C   0  0  0  0  0  0  0  0  0  0  0  0
    3.3008   -0.4107    0.4623 C   0  0  0  0  0  0  0  0  0  0  0  0
    3.5475    0.6332   -0.4462 C   0  0  0  0  0  0  0  0  0  0  0  0
    4.1319    1.8301   -0.0501 N   0  0  0  0  0  0  0  0  0  0  0  0
    4.3844    2.8991   -1.0117 C   0  0  0  0  0  0  0  0  0  0  0  0
    4.3401    2.1414    1.3594 C   0  0  0  0  0  0  0  0  0  0  0  0
    3.1795    0.3847   -1.7808 C   0  0  0  0  0  0  0  0  0  0  0  0
    2.5861   -0.8203   -2.1855 C   0  0  0  0  0  0  0  0  0  0  0  0
   -4.2162   -1.0937   -1.4351 S   0  0  0  0  0  0  0  0  0  0  0  0
   -4.6974    0.1520   -0.3543 C   0  0  0  0  0  0  0  0  0  0  0  0
   -5.8245    0.9858   -0.4256 C   0  0  0  0  0  0  0  0  0  0  0  0
   -6.0171    1.9218    0.5935 C   0  0  0  0  0  0  0  0  0  0  0  0
   -5.1205    2.0194    1.6527 C   0  0  0  0  0  0  0  0  0  0  0  0
   -3.9982    1.1852    1.7176 C   0  0  0  0  0  0  0  0  0  0  0  0
   -3.7802    0.2429    0.6896 C   0  0  0  0  0  0  0  0  0  0  0  0
   -1.0686    1.3005    1.6292 H   0  0  0  0  0  0  0  0  0  0  0  0
   -0.1523    0.3233    0.4892 H   0  0  0  0  0  0  0  0  0  0  0  0
    0.1485    0.1657    2.2271 H   0  0  0  0  0  0  0  0  0  0  0  0
   -1.1958   -1.7671    1.5148 H   0  0  0  0  0  0  0  0  0  0  0  0
   -2.1453   -0.7593    2.5667 H   0  0  0  0  0  0  0  0  0  0  0  0
   -2.3313   -3.4727   -1.0709 H   0  0  0  0  0  0  0  0  0  0  0  0
   -0.2385   -1.2102   -1.0998 H   0  0  0  0  0  0  0  0  0  0  0  0
   -0.0737   -4.2071   -1.8843 H   0  0  0  0  0  0  0  0  0  0  0  0
    2.2993   -3.8651   -1.9831 H   0  0  0  0  0  0  0  0  0  0  0  0
    2.5449   -2.3961    0.8172 H   0  0  0  0  0  0  0  0  0  0  0  0
    3.5770   -0.3099    1.5091 H   0  0  0  0  0  0  0  0  0  0  0  0
    3.4403    3.3076   -1.3881 H   0  0  0  0  0  0  0  0  0  0  0  0
    4.9903    2.5449   -1.8527 H   0  0  0  0  0  0  0  0  0  0  0  0
    4.9432    3.7272   -0.5599 H   0  0  0  0  0  0  0  0  0  0  0  0
    3.3897    2.1157    1.9068 H   0  0  0  0  0  0  0  0  0  0  0  0
    5.0422    1.4350    1.8173 H   0  0  0  0  0  0  0  0  0  0  0  0
    4.7635    3.1417    1.5015 H   0  0  0  0  0  0  0  0  0  0  0  0
    3.3480    1.1313   -2.5530 H   0  0  0  0  0  0  0  0  0  0  0  0
    2.3156   -0.9536   -3.2306 H   0  0  0  0  0  0  0  0  0  0  0  0
   -6.5333    0.9102   -1.2473 H   0  0  0  0  0  0  0  0  0  0  0  0
   -6.8821    2.5831    0.5575 H   0  0  0  0  0  0  0  0  0  0  0  0
   -5.2966    2.7550    2.4380 H   0  0  0  0  0  0  0  0  0  0  0  0
   -3.3245    1.2948    2.5623 H   0  0  0  0  0  0  0  0  0  0  0  0
  1  2  1  0
  2  3  1  0
  3  4  2  0
  4  5  1  0
  5  6  2  3
  6  7  1  0
  7  8  2  3
  8  9  1  0
  9 10  2  0
 10 11  1  0
 11 12  2  0
 12 13  1  0
 13 14  1  0
 13 15  1  0
 12 16  1  0
 16 17  2  0
  4 18  1  0
 18 19  1  0
 19 20  2  0
 20 21  1  0
 21 22  2  0
 22 23  1  0
 23 24  2  0
 24  3  1  0
 17  9  1  0
 24 19  1  0
  1 25  1  0
  1 26  1  0
  1 27  1  0
  2 28  1  0
  2 29  1  0
  5 30  1  0
  6 31  1  0
  7 32  1  0
  8 33  1  0
 10 34  1  0
 11 35  1  0
 14 36  1  0
 14 37  1  0
 14 38  1  0
 15 39  1  0
 15 40  1  0
 15 41  1  0
 16 42  1  0
 17 43  1  0
 20 44  1  0
 21 45  1  0
 22 46  1  0
 23 47  1  0
M  CHG  1   3   1
M  END
$$$$
