
     RDKit          3D

 46 49  0  0  0  0  0  0  0  0999 V2000
   -6.4628    2.4613    2.0008 C   0  0  0  0  0  0  0  0  0  0  0  0
   -5.5002    1.5774    2.5620 O   0  0  0  0  0  0  0  0  0  0  0  0
   -4.4860    1.1657    1.7435 C   0  0  0  0  0  0  0  0  0  0  0  0
   -4.3082    1.5278    0.4083 C   0  0  0  0  0  0  0  0  0  0  0  0
   -3.2223    1.0280   -0.3225 C   0  0  0  0  0  0  0  0  0  0  0  0
   -2.3083    0.1568    0.2800 C   0  0  0  0  0  0  0  0  0  0  0  0
   -1.2087   -0.3697   -0.4566 N   0  0  0  0  0  0  0  0  0  0  0  0
   -0.3560    0.2899   -1.3363 C   0  0  0  0  0  0  0  0  0  0  0  0
   -0.3626    2.0089   -1.6203 S   0  0  0  0  0  0  0  0  0  0  0  0
    1.2467    2.2543   -2.4235 C   0  0  0  0  0  0  0  0  0  0  0  0
    2.3790    2.0879   -1.4217 C   0  0  0  0  0  0  0  0  0  0  0  0
    2.6633    2.9720   -0.6168 O   0  0  0  0  0  0  0  0  0  0  0  0
    2.9854    0.8482   -1.4938 N   0  0  0  0  0  0  0  0  0  0  0  0
    4.0112    0.4359   -0.6332 C   0  0  0  0  0  0  0  0  0  0  0  0
    3.8068   -0.8079   -0.1333 N   0  0  0  0  0  0  0  0  0  0  0  0
    4.7238   -1.2867    0.7404 C   0  0  0  0  0  0  0  0  0  0  0  0
    5.8679   -0.6010    1.1070 C   0  0  0  0  0  0  0  0  0  0  0  0
    6.9918   -1.2874    2.2057 Cl  0  0  0  0  0  0  0  0  0  0  0  0
    6.1013    0.6448    0.5407 C   0  0  0  0  0  0  0  0  0  0  0  0
    5.1670    1.1775   -0.3518 C   0  0  0  0  0  0  0  0  0  0  0  0
    5.6050    2.6371   -1.1682 Cl  0  0  0  0  0  0  0  0  0  0  0  0
    0.5697   -0.5008   -1.8363 N   0  0  0  0  0  0  0  0  0  0  0  0
    0.3314   -1.7271   -1.2780 C   0  0  0  0  0  0  0  0  0  0  0  0
    1.0301   -2.9285   -1.4747 C   0  0  0  0  0  0  0  0  0  0  0  0
    0.5917   -4.0840   -0.8205 C   0  0  0  0  0  0  0  0  0  0  0  0
   -0.5299   -4.0469    0.0056 C   0  0  0  0  0  0  0  0  0  0  0  0
   -1.2350   -2.8562    0.2171 C   0  0  0  0  0  0  0  0  0  0  0  0
   -0.7654   -1.6930   -0.4192 C   0  0  0  0  0  0  0  0  0  0  0  0
   -2.4875   -0.2088    1.6192 C   0  0  0  0  0  0  0  0  0  0  0  0
   -3.5702    0.2989    2.3425 C   0  0  0  0  0  0  0  0  0  0  0  0
   -6.0004    3.4041    1.6919 H   0  0  0  0  0  0  0  0  0  0  0  0
   -6.9936    1.9876    1.1669 H   0  0  0  0  0  0  0  0  0  0  0  0
   -7.1996    2.6909    2.7780 H   0  0  0  0  0  0  0  0  0  0  0  0
   -4.9990    2.1926   -0.1000 H   0  0  0  0  0  0  0  0  0  0  0  0
   -3.1416    1.3028   -1.3725 H   0  0  0  0  0  0  0  0  0  0  0  0
    1.3683    1.5784   -3.2767 H   0  0  0  0  0  0  0  0  0  0  0  0
    1.2956    3.2749   -2.8171 H   0  0  0  0  0  0  0  0  0  0  0  0
    2.3364    0.0903   -1.7096 H   0  0  0  0  0  0  0  0  0  0  0  0
    4.4986   -2.2684    1.1462 H   0  0  0  0  0  0  0  0  0  0  0  0
    7.0121    1.1878    0.7706 H   0  0  0  0  0  0  0  0  0  0  0  0
    1.8951   -2.9541   -2.1282 H   0  0  0  0  0  0  0  0  0  0  0  0
    1.1244   -5.0197   -0.9696 H   0  0  0  0  0  0  0  0  0  0  0  0
   -0.8690   -4.9608    0.4899 H   0  0  0  0  0  0  0  0  0  0  0  0
   -2.1224   -2.8535    0.8420 H   0  0  0  0  0  0  0  0  0  0  0  0
   -1.7768   -0.8494    2.1356 H   0  0  0  0  0  0  0  0  0  0  0  0
   -3.6972    0.0222    3.3867 H   0  0  0  0  0  0  0  0  0  0  0  0
  1  2  1  0
  2  3  1  0
  3  4  2  0
  4  5  1  0
  5  6  2  0
  6  7  1  0
  7  8  1  0
  8  9  1  0
  9 10  1  0
 10 11  1  0
 11 12  2  0
 11 13  1  0
 13 14  1  0
 14 15  2  0
 15 16  1  0
 16 17  2  0
 17 18  1  0
 17 19  1  0
 19 20  2  0
 20 21  1  0
  8 22  2  0
 22 23  1  0
 23 24  2  0
 24 25  1  0
 25 26  2  0
 26 27  1  0
 27 28  2  0
  6 29  1  0
 29 30  2  0
 30  3  1  0
 28  7  1  0
 20 14  1  0
 28 23  1  0
  1 31  1  0
  1 32  1  0
  1 33  1  0
  4 34  1  0
  5 35  1  0
 10 36  1  0
 10 37  1  0
 13 38  1  0
 16 39  1  0
 19 40  1  0
 24 41  1  0
 25 42  1  0
 26 43  1  0
 27 44  1  0
 29 45  1  0
 30 46  1  0
M  END
$$$$
