
     RDKit          3D

 46 48  0  0  0  0  0  0  0  0999 V2000
    1.9060    3.5599   -1.0567 O   0  0  0  0  0  0  0  0  0  0  0  0
    1.2977    2.4940   -1.1596 C   0  0  0  0  0  0  0  0  0  0  0  0
   -0.1885    2.3532   -0.8497 C   0  0  0  0  0  0  0  0  0  0  0  0
   -0.5230    0.9856   -0.6340 O   0  0  0  0  0  0  0  0  0  0  0  0
   -1.8280    0.7048   -0.3414 C   0  0  0  0  0  0  0  0  0  0  0  0
   -2.8671    1.6282   -0.2494 C   0  0  0  0  0  0  0  0  0  0  0  0
   -4.1649    1.1979    0.0582 C   0  0  0  0  0  0  0  0  0  0  0  0
   -4.4520   -0.1586    0.2784 C   0  0  0  0  0  0  0  0  0  0  0  0
   -5.8175   -0.6046    0.5992 C   0  0  0  0  0  0  0  0  0  0  0  0
   -6.5316   -0.0392    1.6690 C   0  0  0  0  0  0  0  0  0  0  0  0
   -7.8281   -0.4626    1.9743 C   0  0  0  0  0  0  0  0  0  0  0  0
   -8.4335   -1.4591    1.2130 C   0  0  0  0  0  0  0  0  0  0  0  0
   -7.7437   -2.0327    0.1481 C   0  0  0  0  0  0  0  0  0  0  0  0
   -6.4468   -1.6090   -0.1551 C   0  0  0  0  0  0  0  0  0  0  0  0
   -3.3944   -1.0744    0.1822 C   0  0  0  0  0  0  0  0  0  0  0  0
   -2.0985   -0.6465   -0.1235 C   0  0  0  0  0  0  0  0  0  0  0  0
    1.9018    1.3356   -1.6139 N   0  0  0  0  0  0  0  0  0  0  0  0
    3.3191    1.3330   -1.6480 N   0  0  0  0  0  0  0  0  0  0  0  0
    3.9392    0.3173   -0.9299 C   0  0  0  0  0  0  0  0  0  0  0  0
    3.3012   -0.6120   -0.4456 O   0  0  0  0  0  0  0  0  0  0  0  0
    5.3016    0.5004   -0.8793 N   0  0  0  0  0  0  0  0  0  0  0  0
    6.2555   -0.2946   -0.2115 C   0  0  0  0  0  0  0  0  0  0  0  0
    5.9394   -1.3694    0.6223 C   0  0  0  0  0  0  0  0  0  0  0  0
    6.9608   -2.0948    1.2460 C   0  0  0  0  0  0  0  0  0  0  0  0
    8.2910   -1.7431    1.0375 C   0  0  0  0  0  0  0  0  0  0  0  0
    9.2602   -2.4434    1.6401 F   0  0  0  0  0  0  0  0  0  0  0  0
    8.6275   -0.6776    0.2174 C   0  0  0  0  0  0  0  0  0  0  0  0
    7.6066    0.0366   -0.3978 C   0  0  0  0  0  0  0  0  0  0  0  0
    7.9268    1.0712   -1.1921 F   0  0  0  0  0  0  0  0  0  0  0  0
   -0.3876    2.9356    0.0572 H   0  0  0  0  0  0  0  0  0  0  0  0
   -0.7380    2.7556   -1.7083 H   0  0  0  0  0  0  0  0  0  0  0  0
   -2.7125    2.6897   -0.4116 H   0  0  0  0  0  0  0  0  0  0  0  0
   -4.9626    1.9369    0.1131 H   0  0  0  0  0  0  0  0  0  0  0  0
   -6.0731    0.7321    2.2846 H   0  0  0  0  0  0  0  0  0  0  0  0
   -8.3619   -0.0155    2.8089 H   0  0  0  0  0  0  0  0  0  0  0  0
   -9.4415   -1.7889    1.4500 H   0  0  0  0  0  0  0  0  0  0  0  0
   -8.2138   -2.8091   -0.4499 H   0  0  0  0  0  0  0  0  0  0  0  0
   -5.9300   -2.0634   -0.9982 H   0  0  0  0  0  0  0  0  0  0  0  0
   -3.5695   -2.1340    0.3581 H   0  0  0  0  0  0  0  0  0  0  0  0
   -1.2957   -1.3774   -0.1870 H   0  0  0  0  0  0  0  0  0  0  0  0
    1.4753    0.4480   -1.3312 H   0  0  0  0  0  0  0  0  0  0  0  0
    3.7156    2.2669   -1.5489 H   0  0  0  0  0  0  0  0  0  0  0  0
    5.6801    1.2328   -1.4678 H   0  0  0  0  0  0  0  0  0  0  0  0
    4.9119   -1.6656    0.8106 H   0  0  0  0  0  0  0  0  0  0  0  0
    6.7221   -2.9325    1.8950 H   0  0  0  0  0  0  0  0  0  0  0  0
    9.6646   -0.4073    0.0603 H   0  0  0  0  0  0  0  0  0  0  0  0
  1  2  2  0
  2  3  1  0
  3  4  1  0
  4  5  1  0
  5  6  2  0
  6  7  1  0
  7  8  2  0
  8  9  1  0
  9 10  2  0
 10 11  1  0
 11 12  2  0
 12 13  1  0
 13 14  2  0
  8 15  1  0
 15 16  2  0
  2 17  1  0
 17 18  1  0
 18 19  1  0
 19 20  2  0
 19 21  1  0
 21 22  1  0
 22 23  2  0
 23 24  1  0
 24 25  2  0
 25 26  1  0
 25 27  1  0
 27 28  2  0
 28 29  1  0
 16  5  1  0
 28 22  1  0
 14  9  1  0
  3 30  1  0
  3 31  1  0
  6 32  1  0
  7 33  1  0
 10 34  1  0
 11 35  1  0
 12 36  1  0
 13 37  1  0
 14 38  1  0
 15 39  1  0
 16 40  1  0
 17 41  1  0
 18 42  1  0
 21 43  1  0
 23 44  1  0
 24 45  1  0
 27 46  1  0
M  END
$$$$
