
     RDKit          3D

 49 51  0  0  0  0  0  0  0  0999 V2000
   -0.5138    1.8857    2.6257 C   0  0  0  0  0  0  0  0  0  0  0  0
   -0.6038    1.1030    1.3433 C   0  0  0  0  0  0  0  0  0  0  0  0
   -1.6491    0.1835    1.1663 C   0  0  0  0  0  0  0  0  0  0  0  0
   -1.7434   -0.5490   -0.0194 C   0  0  0  0  0  0  0  0  0  0  0  0
   -3.0587   -1.7343   -0.2264 S   0  0  0  0  0  6  0  0  0  0  0  0
   -3.5222   -2.1027    1.0947 O   0  0  0  0  0  0  0  0  0  0  0  0
   -2.5943   -2.7341   -1.1648 O   0  0  0  0  0  0  0  0  0  0  0  0
   -4.2805   -0.8390   -0.9762 N   0  0  0  0  0  0  0  0  0  0  0  0
   -5.0259    0.1426   -0.1426 C   0  0  0  0  0  0  0  0  0  0  0  0
   -5.9858    0.9492   -1.0231 C   0  0  0  0  0  0  0  0  0  0  0  0
   -5.3074    1.7263   -2.0209 O   0  0  0  0  0  0  0  0  0  0  0  0
   -4.0923    1.1241   -2.4890 C   0  0  0  0  0  0  0  0  0  0  0  0
   -4.0841   -0.4048   -2.3866 C   0  0  0  0  0  0  0  0  0  0  0  0
   -0.7734   -0.4100   -1.0127 C   0  0  0  0  0  0  0  0  0  0  0  0
    0.2699    0.5043   -0.8416 C   0  0  0  0  0  0  0  0  0  0  0  0
    0.3581    1.2691    0.3273 C   0  0  0  0  0  0  0  0  0  0  0  0
    1.3494    2.1754    0.6019 O   0  0  0  0  0  0  0  0  0  0  0  0
    2.2894    2.4862   -0.4191 C   0  0  0  0  0  0  0  0  0  0  0  0
    3.4176    1.4619   -0.5900 C   0  0  0  0  0  0  0  0  0  0  0  0
    4.0358    1.3804   -1.6473 O   0  0  0  0  0  0  0  0  0  0  0  0
    3.6401    0.7162    0.5507 N   0  0  0  0  0  0  0  0  0  0  0  0
    4.5896   -0.3045    0.7526 C   0  0  0  0  0  0  0  0  0  0  0  0
    5.5346   -0.6989   -0.1950 C   0  0  0  0  0  0  0  0  0  0  0  0
    6.4373   -1.7291    0.0986 C   0  0  0  0  0  0  0  0  0  0  0  0
    6.3945   -2.3664    1.3392 C   0  0  0  0  0  0  0  0  0  0  0  0
    7.6155   -3.7568    1.7225 Br  0  0  0  0  0  0  0  0  0  0  0  0
    5.4610   -1.9838    2.2956 C   0  0  0  0  0  0  0  0  0  0  0  0
    4.5712   -0.9584    1.9927 C   0  0  0  0  0  0  0  0  0  0  0  0
    3.6707   -0.5891    2.9182 F   0  0  0  0  0  0  0  0  0  0  0  0
    0.4006    1.6203    3.1661 H   0  0  0  0  0  0  0  0  0  0  0  0
   -0.5146    2.9602    2.4158 H   0  0  0  0  0  0  0  0  0  0  0  0
   -1.3642    1.6786    3.2840 H   0  0  0  0  0  0  0  0  0  0  0  0
   -2.3840    0.0361    1.9560 H   0  0  0  0  0  0  0  0  0  0  0  0
   -5.5976   -0.3925    0.6218 H   0  0  0  0  0  0  0  0  0  0  0  0
   -4.3253    0.8282    0.3429 H   0  0  0  0  0  0  0  0  0  0  0  0
   -6.6932    0.2869   -1.5354 H   0  0  0  0  0  0  0  0  0  0  0  0
   -6.5702    1.6423   -0.4100 H   0  0  0  0  0  0  0  0  0  0  0  0
   -3.2667    1.5531   -1.9096 H   0  0  0  0  0  0  0  0  0  0  0  0
   -3.9538    1.4332   -3.5298 H   0  0  0  0  0  0  0  0  0  0  0  0
   -4.9092   -0.8248   -2.9738 H   0  0  0  0  0  0  0  0  0  0  0  0
   -3.1553   -0.7987   -2.8074 H   0  0  0  0  0  0  0  0  0  0  0  0
   -0.8112   -1.0157   -1.9160 H   0  0  0  0  0  0  0  0  0  0  0  0
    1.0047    0.5752   -1.6384 H   0  0  0  0  0  0  0  0  0  0  0  0
    2.7700    3.4284   -0.1314 H   0  0  0  0  0  0  0  0  0  0  0  0
    1.7927    2.6686   -1.3790 H   0  0  0  0  0  0  0  0  0  0  0  0
    3.0006    0.8823    1.3265 H   0  0  0  0  0  0  0  0  0  0  0  0
    5.5988   -0.2269   -1.1711 H   0  0  0  0  0  0  0  0  0  0  0  0
    7.1673   -2.0250   -0.6518 H   0  0  0  0  0  0  0  0  0  0  0  0
    5.4104   -2.4661    3.2663 H   0  0  0  0  0  0  0  0  0  0  0  0
  1  2  1  0
  2  3  2  0
  3  4  1  0
  4  5  1  0
  5  6  2  0
  5  7  2  0
  5  8  1  0
  8  9  1  0
  9 10  1  0
 10 11  1  0
 11 12  1  0
 12 13  1  0
  4 14  2  0
 14 15  1  0
 15 16  2  0
 16 17  1  0
 17 18  1  0
 18 19  1  0
 19 20  2  0
 19 21  1  0
 21 22  1  0
 22 23  2  0
 23 24  1  0
 24 25  2  0
 25 26  1  0
 25 27  1  0
 27 28  2  0
 28 29  1  0
 16  2  1  0
 28 22  1  0
 13  8  1  0
  1 30  1  0
  1 31  1  0
  1 32  1  0
  3 33  1  0
  9 34  1  0
  9 35  1  0
 10 36  1  0
 10 37  1  0
 12 38  1  0
 12 39  1  0
 13 40  1  0
 13 41  1  0
 14 42  1  0
 15 43  1  0
 18 44  1  0
 18 45  1  0
 21 46  1  0
 23 47  1  0
 24 48  1  0
 27 49  1  0
M  END
$$$$
