
     RDKit          3D

 61 64  0  0  0  0  0  0  0  0999 V2000
    9.4917    0.5252   -0.5255 C   0  0  0  0  0  0  0  0  0  0  0  0
    8.6542   -0.5814   -0.1917 O   0  0  0  0  0  0  0  0  0  0  0  0
    7.3330   -0.2325   -0.3225 C   0  0  0  0  0  0  0  0  0  0  0  0
    6.6634   -0.6774   -1.4598 C   0  0  0  0  0  0  0  0  0  0  0  0
    5.3147   -0.3669   -1.6327 C   0  0  0  0  0  0  0  0  0  0  0  0
    4.6274    0.3799   -0.6677 C   0  0  0  0  0  0  0  0  0  0  0  0
    3.2723    0.6706   -0.9326 N   0  0  0  0  0  0  0  0  0  0  0  0
    2.3828    1.3767   -0.1346 C   0  0  0  0  0  0  0  0  0  0  0  0
    2.6190    1.8617    0.9690 O   0  0  0  0  0  0  0  0  0  0  0  0
    1.0113    1.5229   -0.7704 C   0  0  0  0  0  0  0  0  0  0  0  0
    0.0678   -0.0075   -0.5171 S   0  0  0  0  0  0  0  0  0  0  0  0
   -1.4367    0.4440   -1.2549 C   0  0  0  0  0  0  0  0  0  0  0  0
   -1.5497    1.4003   -2.1485 N   0  0  0  0  0  0  0  0  0  0  0  0
   -2.8356    1.3961   -2.6045 N   0  0  0  0  0  0  0  0  0  0  0  0
   -3.5007    0.4471   -1.9676 C   0  0  0  0  0  0  0  0  0  0  0  0
   -4.9831    0.2776   -2.0399 C   0  0  0  0  0  0  0  0  0  0  0  0
   -5.6807    0.7554   -0.7999 C   0  0  0  0  0  0  0  0  0  0  0  0
   -6.3256    0.0156    0.1779 C   0  0  0  0  0  0  0  0  0  0  0  0
   -6.8206    0.9145    1.1477 C   0  0  0  0  0  0  0  0  0  0  0  0
   -6.4707    2.1828    0.7457 C   0  0  0  0  0  0  0  0  0  0  0  0
   -5.7852    2.0833   -0.4381 N   0  0  0  0  0  0  0  0  0  0  0  0
   -5.2533    3.2208   -1.1605 C   0  0  0  0  0  0  0  0  0  0  0  0
   -2.6370   -0.2348   -1.1160 N   0  0  0  0  0  0  0  0  0  0  0  0
   -2.9319   -1.3560   -0.2986 C   0  0  0  0  0  0  0  0  0  0  0  0
   -2.5118   -1.3877    1.0357 C   0  0  0  0  0  0  0  0  0  0  0  0
   -2.8035   -2.4966    1.8339 C   0  0  0  0  0  0  0  0  0  0  0  0
   -3.5016   -3.5895    1.3083 C   0  0  0  0  0  0  0  0  0  0  0  0
   -3.8338   -4.7653    2.1790 C   0  0  0  0  0  0  0  0  0  0  0  0
   -3.9290   -3.5467   -0.0235 C   0  0  0  0  0  0  0  0  0  0  0  0
   -3.6431   -2.4396   -0.8273 C   0  0  0  0  0  0  0  0  0  0  0  0
    5.3054    0.7956    0.4846 C   0  0  0  0  0  0  0  0  0  0  0  0
    6.6564    0.4803    0.6765 C   0  0  0  0  0  0  0  0  0  0  0  0
    7.3930    0.8319    1.7782 O   0  0  0  0  0  0  0  0  0  0  0  0
    6.6767    1.3176    2.9065 C   0  0  0  0  0  0  0  0  0  0  0  0
    9.2298    1.4380    0.0235 H   0  0  0  0  0  0  0  0  0  0  0  0
    9.4522    0.7148   -1.6032 H   0  0  0  0  0  0  0  0  0  0  0  0
   10.5210    0.2583   -0.2639 H   0  0  0  0  0  0  0  0  0  0  0  0
    7.1946   -1.2600   -2.2080 H   0  0  0  0  0  0  0  0  0  0  0  0
    4.8146   -0.7157   -2.5323 H   0  0  0  0  0  0  0  0  0  0  0  0
    2.8968    0.2881   -1.7925 H   0  0  0  0  0  0  0  0  0  0  0  0
    1.1258    1.7390   -1.8383 H   0  0  0  0  0  0  0  0  0  0  0  0
    0.4983    2.3717   -0.3045 H   0  0  0  0  0  0  0  0  0  0  0  0
   -5.3637    0.8467   -2.8989 H   0  0  0  0  0  0  0  0  0  0  0  0
   -5.2559   -0.7597   -2.2525 H   0  0  0  0  0  0  0  0  0  0  0  0
   -6.4217   -1.0629    0.1964 H   0  0  0  0  0  0  0  0  0  0  0  0
   -7.3694    0.6647    2.0460 H   0  0  0  0  0  0  0  0  0  0  0  0
   -6.6554    3.1440    1.2059 H   0  0  0  0  0  0  0  0  0  0  0  0
   -5.4510    3.0954   -2.2272 H   0  0  0  0  0  0  0  0  0  0  0  0
   -4.1809    3.2814   -0.9610 H   0  0  0  0  0  0  0  0  0  0  0  0
   -5.7483    4.1317   -0.8108 H   0  0  0  0  0  0  0  0  0  0  0  0
   -1.9936   -0.5475    1.4925 H   0  0  0  0  0  0  0  0  0  0  0  0
   -2.4841   -2.4988    2.8746 H   0  0  0  0  0  0  0  0  0  0  0  0
   -4.7777   -4.5888    2.7039 H   0  0  0  0  0  0  0  0  0  0  0  0
   -3.9257   -5.6793    1.5837 H   0  0  0  0  0  0  0  0  0  0  0  0
   -3.0438   -4.9379    2.9172 H   0  0  0  0  0  0  0  0  0  0  0  0
   -4.4774   -4.3855   -0.4479 H   0  0  0  0  0  0  0  0  0  0  0  0
   -3.9443   -2.4713   -1.8709 H   0  0  0  0  0  0  0  0  0  0  0  0
    4.7824    1.3719    1.2351 H   0  0  0  0  0  0  0  0  0  0  0  0
    6.2263    2.2948    2.6977 H   0  0  0  0  0  0  0  0  0  0  0  0
    5.9226    0.5966    3.2403 H   0  0  0  0  0  0  0  0  0  0  0  0
    7.3932    1.4525    3.7217 H   0  0  0  0  0  0  0  0  0  0  0  0
  1  2  1  0
  2  3  1  0
  3  4  2  0
  4  5  1  0
  5  6  2  0
  6  7  1  0
  7  8  1  0
  8  9  2  0
  8 10  1  0
 10 11  1  0
 11 12  1  0
 12 13  2  0
 13 14  1  0
 14 15  2  0
 15 16  1  0
 16 17  1  0
 17 18  2  0
 18 19  1  0
 19 20  2  0
 20 21  1  0
 21 22  1  0
 15 23  1  0
 23 24  1  0
 24 25  2  0
 25 26  1  0
 26 27  2  0
 27 28  1  0
 27 29  1  0
 29 30  2  0
  6 31  1  0
 31 32  2  0
 32 33  1  0
 33 34  1  0
 32  3  1  0
 23 12  1  0
 30 24  1  0
 21 17  1  0
  1 35  1  0
  1 36  1  0
  1 37  1  0
  4 38  1  0
  5 39  1  0
  7 40  1  0
 10 41  1  0
 10 42  1  0
 16 43  1  0
 16 44  1  0
 18 45  1  0
 19 46  1  0
 20 47  1  0
 22 48  1  0
 22 49  1  0
 22 50  1  0
 25 51  1  0
 26 52  1  0
 28 53  1  0
 28 54  1  0
 28 55  1  0
 29 56  1  0
 30 57  1  0
 31 58  1  0
 34 59  1  0
 34 60  1  0
 34 61  1  0
M  END
$$$$
