
     RDKit          3D

 38 41  0  0  0  0  0  0  0  0999 V2000
   -5.5069    1.9400    3.1553 O   0  0  0  0  0  0  0  0  0  0  0  0
   -5.3582    1.4703    2.0307 C   0  0  0  0  0  0  0  0  0  0  0  0
   -4.1589    0.7834    1.5899 C   0  0  0  0  0  0  0  0  0  0  0  0
   -3.0190    0.6137    2.3510 C   0  0  0  0  0  0  0  0  0  0  0  0
   -2.0964   -0.0698    1.6053 N   0  0  0  0  0  0  0  0  0  0  0  0
   -0.7882   -0.4782    2.0953 C   0  0  0  0  0  0  0  0  0  0  0  0
    0.3384    0.3299    1.4742 C   0  0  0  0  0  0  0  0  0  0  0  0
    0.3609    1.5546    1.5516 O   0  0  0  0  0  0  0  0  0  0  0  0
    1.3020   -0.4644    0.8645 N   0  0  0  0  0  0  0  0  0  0  0  0
    2.4575   -0.0364    0.1739 C   0  0  0  0  0  0  0  0  0  0  0  0
    2.7969    1.3151   -0.0289 C   0  0  0  0  0  0  0  0  0  0  0  0
    3.9586    1.6725   -0.7277 C   0  0  0  0  0  0  0  0  0  0  0  0
    4.7565    0.6614   -1.2105 C   0  0  0  0  0  0  0  0  0  0  0  0
    4.4331   -0.6587   -1.0196 C   0  0  0  0  0  0  0  0  0  0  0  0
    3.2962   -1.0396   -0.3360 C   0  0  0  0  0  0  0  0  0  0  0  0
    5.3459   -1.5022   -1.5725 O   0  0  0  0  0  0  0  0  0  0  0  0
    6.2826   -0.5570   -2.1331 C   0  0  0  0  0  0  0  0  0  0  0  0
    5.9126    0.8185   -1.9068 O   0  0  0  0  0  0  0  0  0  0  0  0
   -2.6187   -0.3713    0.3628 C   0  0  0  0  0  0  0  0  0  0  0  0
   -2.0659   -1.0567   -0.7319 C   0  0  0  0  0  0  0  0  0  0  0  0
   -2.8462   -1.2041   -1.8818 C   0  0  0  0  0  0  0  0  0  0  0  0
   -4.1354   -0.6874   -1.9421 C   0  0  0  0  0  0  0  0  0  0  0  0
   -4.6792   -0.0055   -0.8489 C   0  0  0  0  0  0  0  0  0  0  0  0
   -3.9141    0.1598    0.3265 C   0  0  0  0  0  0  0  0  0  0  0  0
   -6.1631    1.5486    1.2815 H   0  0  0  0  0  0  0  0  0  0  0  0
   -2.8012    0.9424    3.3604 H   0  0  0  0  0  0  0  0  0  0  0  0
   -0.7587   -0.3368    3.1812 H   0  0  0  0  0  0  0  0  0  0  0  0
   -0.6893   -1.5507    1.8979 H   0  0  0  0  0  0  0  0  0  0  0  0
    1.1796   -1.4680    0.9174 H   0  0  0  0  0  0  0  0  0  0  0  0
    2.1718    2.1215    0.3436 H   0  0  0  0  0  0  0  0  0  0  0  0
    4.2176    2.7140   -0.8828 H   0  0  0  0  0  0  0  0  0  0  0  0
    3.0805   -2.0941   -0.2090 H   0  0  0  0  0  0  0  0  0  0  0  0
    6.3497   -0.7294   -3.2135 H   0  0  0  0  0  0  0  0  0  0  0  0
    7.2679   -0.7337   -1.6866 H   0  0  0  0  0  0  0  0  0  0  0  0
   -1.0591   -1.4583   -0.7079 H   0  0  0  0  0  0  0  0  0  0  0  0
   -2.4365   -1.7260   -2.7438 H   0  0  0  0  0  0  0  0  0  0  0  0
   -4.7255   -0.8101   -2.8471 H   0  0  0  0  0  0  0  0  0  0  0  0
   -5.6875    0.3928   -0.9169 H   0  0  0  0  0  0  0  0  0  0  0  0
  1  2  2  0
  2  3  1  0
  3  4  2  0
  4  5  1  0
  5  6  1  0
  6  7  1  0
  7  8  2  0
  7  9  1  0
  9 10  1  0
 10 11  2  0
 11 12  1  0
 12 13  2  0
 13 14  1  0
 14 15  2  0
 14 16  1  0
 16 17  1  0
 17 18  1  0
  5 19  1  0
 19 20  2  0
 20 21  1  0
 21 22  2  0
 22 23  1  0
 23 24  2  0
 24  3  1  0
 15 10  1  0
 24 19  1  0
 18 13  1  0
  2 25  1  0
  4 26  1  0
  6 27  1  0
  6 28  1  0
  9 29  1  0
 11 30  1  0
 12 31  1  0
 15 32  1  0
 17 33  1  0
 17 34  1  0
 20 35  1  0
 21 36  1  0
 22 37  1  0
 23 38  1  0
M  END
$$$$
