
     RDKit          3D

 50 52  0  0  0  0  0  0  0  0999 V2000
   -3.3133    0.2401    3.3406 C   0  0  0  0  0  0  0  0  0  0  0  0
   -3.8979   -0.4047    2.2164 O   0  0  0  0  0  0  0  0  0  0  0  0
   -3.2636   -0.2602    1.0118 C   0  0  0  0  0  0  0  0  0  0  0  0
   -2.0557    0.4084    0.8050 C   0  0  0  0  0  0  0  0  0  0  0  0
   -1.4976    0.4635   -0.4815 C   0  0  0  0  0  0  0  0  0  0  0  0
   -0.2184    1.1825   -0.6627 C   0  0  0  0  0  0  0  0  0  0  0  0
    0.3774    1.2337   -1.8129 N   0  0  0  0  0  0  0  0  0  0  0  0
    1.5854    1.8804   -1.8844 N   0  0  0  0  0  0  0  0  0  0  0  0
    2.5754    1.8433   -0.8954 C   0  0  0  0  0  0  0  0  0  0  0  0
    2.4511    1.3440    0.2195 O   0  0  0  0  0  0  0  0  0  0  0  0
    3.8715    2.5107   -1.3781 C   0  0  0  0  0  0  0  0  0  0  0  0
    4.9384    2.5580   -0.4459 O   0  0  0  0  0  0  0  0  0  0  0  0
    5.7948    1.4927   -0.4166 C   0  0  0  0  0  0  0  0  0  0  0  0
    5.5129    0.2046   -0.8690 C   0  0  0  0  0  0  0  0  0  0  0  0
    6.4811   -0.8017   -0.7742 C   0  0  0  0  0  0  0  0  0  0  0  0
    7.7413   -0.5320   -0.2290 C   0  0  0  0  0  0  0  0  0  0  0  0
    8.7612   -1.6231   -0.0943 C   0  0  0  0  0  0  0  0  0  0  0  0
    8.0082    0.7534    0.2514 C   0  0  0  0  0  0  0  0  0  0  0  0
    7.0400    1.7560    0.1571 C   0  0  0  0  0  0  0  0  0  0  0  0
   -2.1317   -0.1529   -1.5661 C   0  0  0  0  0  0  0  0  0  0  0  0
   -3.3378   -0.8204   -1.3705 C   0  0  0  0  0  0  0  0  0  0  0  0
   -3.8967   -0.8512   -0.0924 C   0  0  0  0  0  0  0  0  0  0  0  0
   -5.0945   -1.5550    0.0775 O   0  0  0  0  0  0  0  0  0  0  0  0
   -6.2080   -0.7245    0.1801 C   0  0  0  0  0  0  0  0  0  0  0  0
   -6.2025    0.4909    0.0019 O   0  0  0  0  0  0  0  0  0  0  0  0
   -7.4047   -1.4915    0.4961 C   0  0  0  0  0  0  0  0  0  0  0  0
   -8.6838   -0.9849    0.6567 C   0  0  0  0  0  0  0  0  0  0  0  0
   -9.6433   -1.9928    0.9619 C   0  0  0  0  0  0  0  0  0  0  0  0
   -9.0697   -3.2418    1.0267 C   0  0  0  0  0  0  0  0  0  0  0  0
   -7.3891   -3.1915    0.7210 S   0  0  0  0  0  0  0  0  0  0  0  0
   -3.9563    0.0514    4.2057 H   0  0  0  0  0  0  0  0  0  0  0  0
   -2.3254   -0.1760    3.5632 H   0  0  0  0  0  0  0  0  0  0  0  0
   -3.2630    1.3239    3.1929 H   0  0  0  0  0  0  0  0  0  0  0  0
   -1.5276    0.8832    1.6251 H   0  0  0  0  0  0  0  0  0  0  0  0
    0.1740    1.6916    0.2341 H   0  0  0  0  0  0  0  0  0  0  0  0
    1.8799    2.0547   -2.8412 H   0  0  0  0  0  0  0  0  0  0  0  0
    3.6161    3.5549   -1.5980 H   0  0  0  0  0  0  0  0  0  0  0  0
    4.1898    2.0658   -2.3301 H   0  0  0  0  0  0  0  0  0  0  0  0
    4.5423   -0.0628   -1.2721 H   0  0  0  0  0  0  0  0  0  0  0  0
    6.2377   -1.8043   -1.1196 H   0  0  0  0  0  0  0  0  0  0  0  0
    8.6750   -2.3406   -0.9170 H   0  0  0  0  0  0  0  0  0  0  0  0
    8.6207   -2.1519    0.8535 H   0  0  0  0  0  0  0  0  0  0  0  0
    9.7771   -1.2151   -0.1244 H   0  0  0  0  0  0  0  0  0  0  0  0
    8.9685    0.9839    0.7067 H   0  0  0  0  0  0  0  0  0  0  0  0
    7.2591    2.7513    0.5353 H   0  0  0  0  0  0  0  0  0  0  0  0
   -1.6915   -0.1152   -2.5595 H   0  0  0  0  0  0  0  0  0  0  0  0
   -3.8382   -1.3048   -2.2033 H   0  0  0  0  0  0  0  0  0  0  0  0
   -8.9143    0.0705    0.5575 H   0  0  0  0  0  0  0  0  0  0  0  0
  -10.6985   -1.8100    1.1257 H   0  0  0  0  0  0  0  0  0  0  0  0
   -9.5558   -4.1842    1.2398 H   0  0  0  0  0  0  0  0  0  0  0  0
  1  2  1  0
  2  3  1  0
  3  4  2  0
  4  5  1  0
  5  6  1  0
  6  7  2  3
  7  8  1  0
  8  9  1  0
  9 10  2  0
  9 11  1  0
 11 12  1  0
 12 13  1  0
 13 14  2  0
 14 15  1  0
 15 16  2  0
 16 17  1  0
 16 18  1  0
 18 19  2  0
  5 20  2  0
 20 21  1  0
 21 22  2  0
 22 23  1  0
 23 24  1  0
 24 25  2  0
 24 26  1  0
 26 27  2  0
 27 28  1  0
 28 29  2  0
 29 30  1  0
 22  3  1  0
 30 26  1  0
 19 13  1  0
  1 31  1  0
  1 32  1  0
  1 33  1  0
  4 34  1  0
  6 35  1  0
  8 36  1  0
 11 37  1  0
 11 38  1  0
 14 39  1  0
 15 40  1  0
 17 41  1  0
 17 42  1  0
 17 43  1  0
 18 44  1  0
 19 45  1  0
 20 46  1  0
 21 47  1  0
 27 48  1  0
 28 49  1  0
 29 50  1  0
M  END
$$$$
