
     RDKit          3D

 38 39  0  0  0  0  0  0  0  0999 V2000
   -4.6427    1.9530    3.3194 C   0  0  0  0  0  0  0  0  0  0  0  0
   -3.4616    1.7615    2.7169 C   0  0  0  0  0  0  0  0  0  0  0  0
   -3.2331    1.8906    1.2376 C   0  0  0  0  0  0  0  0  0  0  0  0
   -2.7360    0.6040    0.6217 C   0  0  0  0  0  0  0  0  0  0  0  0
   -3.6395   -0.3977    0.2477 C   0  0  0  0  0  0  0  0  0  0  0  0
   -3.1784   -1.5914   -0.3046 C   0  0  0  0  0  0  0  0  0  0  0  0
   -1.8118   -1.7954   -0.4823 C   0  0  0  0  0  0  0  0  0  0  0  0
   -1.4533   -2.9990   -1.0273 O   0  0  0  0  0  0  0  0  0  0  0  0
   -0.8736   -0.8193   -0.1080 C   0  0  0  0  0  0  0  0  0  0  0  0
    0.5784   -1.0092   -0.2596 C   0  0  0  0  0  0  0  0  0  0  0  0
    1.2831   -0.2364   -1.2019 C   0  0  0  0  0  0  0  0  0  0  0  0
    2.6661   -0.3919   -1.3942 C   0  0  0  0  0  0  0  0  0  0  0  0
    3.4035    0.4597   -2.4007 C   0  0  0  0  0  0  0  0  0  0  0  0
    4.0463    1.6608   -1.7671 C   0  0  0  0  0  0  0  0  0  0  0  0
    5.3607    1.9180   -1.7950 C   0  0  0  0  0  0  0  0  0  0  0  0
    3.3575   -1.3296   -0.6180 C   0  0  0  0  0  0  0  0  0  0  0  0
    2.6784   -2.1046    0.3205 C   0  0  0  0  0  0  0  0  0  0  0  0
    1.3059   -1.9431    0.4964 C   0  0  0  0  0  0  0  0  0  0  0  0
    0.7251   -2.7492    1.4381 O   0  0  0  0  0  0  0  0  0  0  0  0
   -1.3604    0.3799    0.4459 C   0  0  0  0  0  0  0  0  0  0  0  0
   -4.7398    1.8453    4.3955 H   0  0  0  0  0  0  0  0  0  0  0  0
   -5.5348    2.2163    2.7598 H   0  0  0  0  0  0  0  0  0  0  0  0
   -2.5976    1.5008    3.3251 H   0  0  0  0  0  0  0  0  0  0  0  0
   -2.5028    2.6902    1.0613 H   0  0  0  0  0  0  0  0  0  0  0  0
   -4.1482    2.2058    0.7199 H   0  0  0  0  0  0  0  0  0  0  0  0
   -4.7087   -0.2539    0.3884 H   0  0  0  0  0  0  0  0  0  0  0  0
   -3.8839   -2.3650   -0.5960 H   0  0  0  0  0  0  0  0  0  0  0  0
   -0.4901   -3.0147   -1.1666 H   0  0  0  0  0  0  0  0  0  0  0  0
    0.7422    0.4953   -1.8016 H   0  0  0  0  0  0  0  0  0  0  0  0
    4.1449   -0.1611   -2.9198 H   0  0  0  0  0  0  0  0  0  0  0  0
    2.7069    0.8007   -3.1768 H   0  0  0  0  0  0  0  0  0  0  0  0
    3.3845    2.3605   -1.2606 H   0  0  0  0  0  0  0  0  0  0  0  0
    6.0637    1.2535   -2.2876 H   0  0  0  0  0  0  0  0  0  0  0  0
    5.7620    2.8065   -1.3168 H   0  0  0  0  0  0  0  0  0  0  0  0
    4.4313   -1.4572   -0.7376 H   0  0  0  0  0  0  0  0  0  0  0  0
    3.2196   -2.8311    0.9209 H   0  0  0  0  0  0  0  0  0  0  0  0
   -0.2109   -2.5018    1.5402 H   0  0  0  0  0  0  0  0  0  0  0  0
   -0.6530    1.1491    0.7553 H   0  0  0  0  0  0  0  0  0  0  0  0
  1  2  2  0
  2  3  1  0
  3  4  1  0
  4  5  2  0
  5  6  1  0
  6  7  2  0
  7  8  1  0
  7  9  1  0
  9 10  1  0
 10 11  2  0
 11 12  1  0
 12 13  1  0
 13 14  1  0
 14 15  2  0
 12 16  2  0
 16 17  1  0
 17 18  2  0
 18 19  1  0
  9 20  2  0
 20  4  1  0
 18 10  1  0
  1 21  1  0
  1 22  1  0
  2 23  1  0
  3 24  1  0
  3 25  1  0
  5 26  1  0
  6 27  1  0
  8 28  1  0
 11 29  1  0
 13 30  1  0
 13 31  1  0
 14 32  1  0
 15 33  1  0
 15 34  1  0
 16 35  1  0
 17 36  1  0
 19 37  1  0
 20 38  1  0
M  END
$$$$
