
     RDKit          3D

 61 67  0  0  0  0  0  0  0  0999 V2000
    4.1669   -2.4295   -0.7746 O   0  0  0  0  0  0  0  0  0  0  0  0
    3.6412   -1.4083   -0.3355 C   0  0  0  0  0  0  0  0  0  0  0  0
    4.5282   -0.3556    0.1950 C   0  0  0  0  0  0  0  0  0  0  0  0
    5.4414    0.2640   -0.6833 C   0  0  0  0  0  0  0  0  0  0  0  0
    6.2836    1.2771   -0.2177 C   0  0  0  0  0  0  0  0  0  0  0  0
    6.1889    1.6229    1.1156 C   0  0  0  0  0  0  0  0  0  0  0  0
    5.3160    0.9919    1.9754 C   0  0  0  0  0  0  0  0  0  0  0  0
    4.4689   -0.0077    1.5508 C   0  0  0  0  0  0  0  0  0  0  0  0
    5.3979    1.4747    3.2438 O   0  0  0  0  0  0  0  0  0  0  0  0
    6.4213    2.4789    3.0882 C   0  0  0  0  0  0  0  0  0  0  0  0
    6.9174    2.5878    1.7357 O   0  0  0  0  0  0  0  0  0  0  0  0
    2.2609   -1.1950   -0.3152 N   0  0  0  0  0  0  0  0  0  0  0  0
    1.4160   -2.2844   -0.7864 C   0  0  0  0  0  0  0  0  0  0  0  0
   -0.0619   -2.0288   -0.5105 C   0  0  0  0  0  0  0  0  0  0  0  0
   -0.5394   -0.7304   -1.2088 C   0  0  0  0  0  0  0  0  0  0  0  0
    0.5144    0.4072   -1.0286 C   0  0  0  0  0  0  0  0  0  0  0  0
    1.6122    0.0810   -0.0186 C   0  0  0  0  0  0  0  0  0  0  0  0
   -0.5299   -0.9707   -2.6468 O   0  0  0  0  0  0  0  0  0  0  0  0
   -1.6041   -1.6032   -3.2002 C   0  0  0  0  0  0  0  0  0  0  0  0
   -1.4451   -2.0391   -4.5167 C   0  0  0  0  0  0  0  0  0  0  0  0
   -2.4851   -2.7142   -5.1603 C   0  0  0  0  0  0  0  0  0  0  0  0
   -3.6771   -2.9482   -4.4808 C   0  0  0  0  0  0  0  0  0  0  0  0
   -4.6709   -3.5972   -5.1014 F   0  0  0  0  0  0  0  0  0  0  0  0
   -3.8529   -2.5154   -3.1723 C   0  0  0  0  0  0  0  0  0  0  0  0
   -2.8101   -1.8302   -2.5423 C   0  0  0  0  0  0  0  0  0  0  0  0
   -2.9605   -1.3364   -1.1665 C   0  0  0  0  0  0  0  0  0  0  0  0
   -3.8512   -1.7838   -0.4489 O   0  0  0  0  0  0  0  0  0  0  0  0
   -1.9498   -0.2834   -0.7294 C   0  0  0  0  0  0  0  0  0  0  0  0
   -2.0624    0.0123    0.7578 C   0  0  0  0  0  0  0  0  0  0  0  0
   -2.9793    1.1875    0.6894 C   0  0  0  0  0  0  0  0  0  0  0  0
   -3.6716    1.7245    1.8853 C   0  0  0  0  0  0  0  0  0  0  0  0
   -4.4832    2.8576    1.7443 C   0  0  0  0  0  0  0  0  0  0  0  0
   -5.1532    3.3876    2.8490 C   0  0  0  0  0  0  0  0  0  0  0  0
   -5.0182    2.7876    4.0989 C   0  0  0  0  0  0  0  0  0  0  0  0
   -4.2107    1.6615    4.2466 C   0  0  0  0  0  0  0  0  0  0  0  0
   -3.5360    1.1289    3.1436 C   0  0  0  0  0  0  0  0  0  0  0  0
   -3.0846    1.7212   -0.4860 N   0  0  0  0  0  0  0  0  0  0  0  0
   -2.3129    0.9472   -1.3791 O   0  0  0  0  0  0  0  0  0  0  0  0
    5.4890   -0.0489   -1.7235 H   0  0  0  0  0  0  0  0  0  0  0  0
    6.9876    1.7724   -0.8778 H   0  0  0  0  0  0  0  0  0  0  0  0
    3.7935   -0.4997    2.2374 H   0  0  0  0  0  0  0  0  0  0  0  0
    7.2605    2.2337    3.7482 H   0  0  0  0  0  0  0  0  0  0  0  0
    6.0064    3.4491    3.3875 H   0  0  0  0  0  0  0  0  0  0  0  0
    1.7341   -3.2103   -0.2933 H   0  0  0  0  0  0  0  0  0  0  0  0
    1.5985   -2.4111   -1.8608 H   0  0  0  0  0  0  0  0  0  0  0  0
   -0.6290   -2.8980   -0.8608 H   0  0  0  0  0  0  0  0  0  0  0  0
   -0.2148   -1.9641    0.5738 H   0  0  0  0  0  0  0  0  0  0  0  0
    0.9964    0.6229   -1.9924 H   0  0  0  0  0  0  0  0  0  0  0  0
    0.0430    1.3483   -0.7213 H   0  0  0  0  0  0  0  0  0  0  0  0
    2.3364    0.9006   -0.0153 H   0  0  0  0  0  0  0  0  0  0  0  0
    1.2008    0.0059    0.9946 H   0  0  0  0  0  0  0  0  0  0  0  0
   -0.5099   -1.8573   -5.0415 H   0  0  0  0  0  0  0  0  0  0  0  0
   -2.3728   -3.0593   -6.1838 H   0  0  0  0  0  0  0  0  0  0  0  0
   -4.7940   -2.7023   -2.6630 H   0  0  0  0  0  0  0  0  0  0  0  0
   -2.4646   -0.8146    1.3454 H   0  0  0  0  0  0  0  0  0  0  0  0
   -1.1239    0.3513    1.2029 H   0  0  0  0  0  0  0  0  0  0  0  0
   -4.6023    3.3371    0.7743 H   0  0  0  0  0  0  0  0  0  0  0  0
   -5.7843    4.2645    2.7310 H   0  0  0  0  0  0  0  0  0  0  0  0
   -5.5454    3.1974    4.9579 H   0  0  0  0  0  0  0  0  0  0  0  0
   -4.1102    1.1933    5.2230 H   0  0  0  0  0  0  0  0  0  0  0  0
   -2.9199    0.2494    3.2957 H   0  0  0  0  0  0  0  0  0  0  0  0
  1  2  2  0
  2  3  1  0
  3  4  2  0
  4  5  1  0
  5  6  2  0
  6  7  1  0
  7  8  2  0
  7  9  1  0
  9 10  1  0
 10 11  1  0
  2 12  1  0
 12 13  1  0
 13 14  1  0
 14 15  1  0
 15 16  1  0
 16 17  1  0
 15 18  1  0
 18 19  1  0
 19 20  2  0
 20 21  1  0
 21 22  2  0
 22 23  1  0
 22 24  1  0
 24 25  2  0
 25 26  1  0
 26 27  2  0
 26 28  1  0
 28 29  1  0
 29 30  1  0
 30 31  1  0
 31 32  2  0
 32 33  1  0
 33 34  2  0
 34 35  1  0
 35 36  2  0
 30 37  2  0
 37 38  1  0
  8  3  1  0
 17 12  1  0
 25 19  1  0
 38 28  1  0
 11  6  1  0
 28 15  1  0
 36 31  1  0
  4 39  1  0
  5 40  1  0
  8 41  1  0
 10 42  1  0
 10 43  1  0
 13 44  1  0
 13 45  1  0
 14 46  1  0
 14 47  1  0
 16 48  1  0
 16 49  1  0
 17 50  1  0
 17 51  1  0
 20 52  1  0
 21 53  1  0
 24 54  1  0
 29 55  1  0
 29 56  1  0
 32 57  1  0
 33 58  1  0
 34 59  1  0
 35 60  1  0
 36 61  1  0
M  END
$$$$
