
     RDKit          3D

 58 63  0  0  0  0  0  0  0  0999 V2000
    7.8550   -0.0874    0.8528 C   0  0  0  0  0  0  0  0  0  0  0  0
    6.7034    0.5634    0.1663 C   0  0  0  0  0  0  0  0  0  0  0  0
    6.5002    1.9039   -0.0851 C   0  0  0  0  0  0  0  0  0  0  0  0
    5.2747    2.1425   -0.7718 C   0  0  0  0  0  0  0  0  0  0  0  0
    4.5573    0.9815   -0.9865 C   0  0  0  0  0  0  0  0  0  0  0  0
    3.2926    0.8521   -1.6923 C   0  0  0  0  0  0  0  0  0  0  0  0
    3.1215    1.3829   -2.7926 O   0  0  0  0  0  0  0  0  0  0  0  0
    2.2472    0.1374   -1.0877 N   0  0  0  0  0  0  0  0  0  0  0  0
    2.1852   -0.1685    0.3433 C   0  0  0  0  0  0  0  0  0  0  0  0
    0.7627   -0.0180    0.8757 C   0  0  0  0  0  0  0  0  0  0  0  0
   -0.2104   -1.0042    0.1744 C   0  0  0  0  0  0  0  0  0  0  0  0
    0.1839   -1.2110   -1.3141 C   0  0  0  0  0  0  0  0  0  0  0  0
    1.0417   -0.0830   -1.8738 C   0  0  0  0  0  0  0  0  0  0  0  0
    0.0510   -2.2607    0.8658 O   0  0  0  0  0  0  0  0  0  0  0  0
   -0.8957   -3.2377    0.7933 C   0  0  0  0  0  0  0  0  0  0  0  0
   -0.4985   -4.5073    1.2148 C   0  0  0  0  0  0  0  0  0  0  0  0
   -1.3944   -5.5781    1.1574 C   0  0  0  0  0  0  0  0  0  0  0  0
   -2.6895   -5.3744    0.6812 C   0  0  0  0  0  0  0  0  0  0  0  0
   -3.7881   -6.6955    0.6059 Cl  0  0  0  0  0  0  0  0  0  0  0  0
   -3.0989   -4.1087    0.2700 C   0  0  0  0  0  0  0  0  0  0  0  0
   -2.1954   -3.0428    0.3402 C   0  0  0  0  0  0  0  0  0  0  0  0
   -2.6043   -1.6930   -0.0674 C   0  0  0  0  0  0  0  0  0  0  0  0
   -3.6272   -1.5416   -0.7304 O   0  0  0  0  0  0  0  0  0  0  0  0
   -1.6868   -0.5534    0.3648 C   0  0  0  0  0  0  0  0  0  0  0  0
   -2.0715    0.7457   -0.3309 C   0  0  0  0  0  0  0  0  0  0  0  0
   -2.9489    1.3218    0.7289 C   0  0  0  0  0  0  0  0  0  0  0  0
   -3.8307    2.4866    0.4774 C   0  0  0  0  0  0  0  0  0  0  0  0
   -3.8187    3.1655   -0.7466 C   0  0  0  0  0  0  0  0  0  0  0  0
   -4.6590    4.2666   -0.9443 C   0  0  0  0  0  0  0  0  0  0  0  0
   -5.5077    4.6895    0.0781 C   0  0  0  0  0  0  0  0  0  0  0  0
   -6.5346    6.0456   -0.1704 Cl  0  0  0  0  0  0  0  0  0  0  0  0
   -5.5255    4.0209    1.2993 C   0  0  0  0  0  0  0  0  0  0  0  0
   -4.6874    2.9206    1.4991 C   0  0  0  0  0  0  0  0  0  0  0  0
   -2.8500    0.7497    1.8864 N   0  0  0  0  0  0  0  0  0  0  0  0
   -1.9345   -0.3167    1.7611 O   0  0  0  0  0  0  0  0  0  0  0  0
    5.4221   -0.3929   -0.4440 S   0  0  0  0  0  0  0  0  0  0  0  0
    7.5196   -0.6243    1.7465 H   0  0  0  0  0  0  0  0  0  0  0  0
    8.5915    0.6575    1.1693 H   0  0  0  0  0  0  0  0  0  0  0  0
    8.3580   -0.7942    0.1859 H   0  0  0  0  0  0  0  0  0  0  0  0
    7.2051    2.6781    0.1953 H   0  0  0  0  0  0  0  0  0  0  0  0
    4.9267    3.1187   -1.0899 H   0  0  0  0  0  0  0  0  0  0  0  0
    2.8433    0.5020    0.9036 H   0  0  0  0  0  0  0  0  0  0  0  0
    2.5422   -1.1955    0.4807 H   0  0  0  0  0  0  0  0  0  0  0  0
    0.4554    1.0234    0.7317 H   0  0  0  0  0  0  0  0  0  0  0  0
    0.7747   -0.2005    1.9583 H   0  0  0  0  0  0  0  0  0  0  0  0
   -0.7045   -1.3266   -1.9460 H   0  0  0  0  0  0  0  0  0  0  0  0
    0.7471   -2.1488   -1.4199 H   0  0  0  0  0  0  0  0  0  0  0  0
    0.4846    0.8594   -1.8996 H   0  0  0  0  0  0  0  0  0  0  0  0
    1.3243   -0.3156   -2.9074 H   0  0  0  0  0  0  0  0  0  0  0  0
    0.5128   -4.6678    1.5829 H   0  0  0  0  0  0  0  0  0  0  0  0
   -1.0754   -6.5658    1.4835 H   0  0  0  0  0  0  0  0  0  0  0  0
   -4.1122   -3.9476   -0.0916 H   0  0  0  0  0  0  0  0  0  0  0  0
   -1.2366    1.4337   -0.4787 H   0  0  0  0  0  0  0  0  0  0  0  0
   -2.5904    0.6080   -1.2822 H   0  0  0  0  0  0  0  0  0  0  0  0
   -3.1661    2.8633   -1.5604 H   0  0  0  0  0  0  0  0  0  0  0  0
   -4.6461    4.7900   -1.8972 H   0  0  0  0  0  0  0  0  0  0  0  0
   -6.1858    4.3471    2.0991 H   0  0  0  0  0  0  0  0  0  0  0  0
   -4.7094    2.4042    2.4574 H   0  0  0  0  0  0  0  0  0  0  0  0
  1  2  1  0
  2  3  2  0
  3  4  1  0
  4  5  2  0
  5  6  1  0
  6  7  2  0
  6  8  1  0
  8  9  1  0
  9 10  1  0
 10 11  1  0
 11 12  1  0
 12 13  1  0
 11 14  1  0
 14 15  1  0
 15 16  2  0
 16 17  1  0
 17 18  2  0
 18 19  1  0
 18 20  1  0
 20 21  2  0
 21 22  1  0
 22 23  2  0
 22 24  1  0
 24 25  1  0
 25 26  1  0
 26 27  1  0
 27 28  2  0
 28 29  1  0
 29 30  2  0
 30 31  1  0
 30 32  1  0
 32 33  2  0
 26 34  2  0
 34 35  1  0
  5 36  1  0
 36  2  1  0
 13  8  1  0
 21 15  1  0
 35 24  1  0
 24 11  1  0
 33 27  1  0
  1 37  1  0
  1 38  1  0
  1 39  1  0
  3 40  1  0
  4 41  1  0
  9 42  1  0
  9 43  1  0
 10 44  1  0
 10 45  1  0
 12 46  1  0
 12 47  1  0
 13 48  1  0
 13 49  1  0
 16 50  1  0
 17 51  1  0
 20 52  1  0
 25 53  1  0
 25 54  1  0
 28 55  1  0
 29 56  1  0
 32 57  1  0
 33 58  1  0
M  END
$$$$
