
     RDKit          3D

 56 58  0  0  0  0  0  0  0  0999 V2000
   -7.6543   -0.0325    0.2332 C   0  0  0  0  0  0  0  0  0  0  0  0
   -6.2675   -0.1295    0.5379 O   0  0  0  0  0  0  0  0  0  0  0  0
   -5.5437   -1.1126   -0.0826 C   0  0  0  0  0  0  0  0  0  0  0  0
   -6.0876   -2.0261   -0.9964 C   0  0  0  0  0  0  0  0  0  0  0  0
   -5.2964   -3.0326   -1.5600 C   0  0  0  0  0  0  0  0  0  0  0  0
   -3.9540   -3.1455   -1.2139 C   0  0  0  0  0  0  0  0  0  0  0  0
   -3.3978   -2.2436   -0.3098 C   0  0  0  0  0  0  0  0  0  0  0  0
   -4.1811   -1.2194    0.2482 C   0  0  0  0  0  0  0  0  0  0  0  0
   -3.4916   -0.2923    1.1886 C   0  0  0  0  0  0  0  0  0  0  0  0
   -2.5859   -0.7304    1.9003 O   0  0  0  0  0  0  0  0  0  0  0  0
   -3.8991    1.1794    1.2001 C   0  0  0  0  0  0  0  0  0  0  0  0
   -2.8260    2.0329    1.6118 O   0  0  0  0  0  0  0  0  0  0  0  0
   -1.8328    2.1455    0.6926 C   0  0  0  0  0  0  0  0  0  0  0  0
   -1.8388    1.6691   -0.4309 O   0  0  0  0  0  0  0  0  0  0  0  0
   -0.7226    2.9451    1.2599 C   0  0  0  0  0  0  0  0  0  0  0  0
   -0.9950    4.0437    2.0895 C   0  0  0  0  0  0  0  0  0  0  0  0
    0.0518    4.8121    2.6046 C   0  0  0  0  0  0  0  0  0  0  0  0
    1.3733    4.4867    2.3005 C   0  0  0  0  0  0  0  0  0  0  0  0
    1.6529    3.3949    1.4785 C   0  0  0  0  0  0  0  0  0  0  0  0
    0.6059    2.6365    0.9448 C   0  0  0  0  0  0  0  0  0  0  0  0
    0.9202    1.5312    0.2015 O   0  0  0  0  0  0  0  0  0  0  0  0
    1.2483    1.8804   -1.1494 C   0  0  0  0  0  0  0  0  0  0  0  0
    2.6130    1.3065   -1.5397 C   0  0  0  0  0  0  0  0  0  0  0  0
    3.2214    1.7341   -2.5170 O   0  0  0  0  0  0  0  0  0  0  0  0
    3.0164    0.2805   -0.7018 N   0  0  0  0  0  0  0  0  0  0  0  0
    4.2037   -0.4697   -0.7522 C   0  0  0  0  0  0  0  0  0  0  0  0
    5.2093   -0.2760   -1.6999 C   0  0  0  0  0  0  0  0  0  0  0  0
    6.3684   -1.0623   -1.6770 C   0  0  0  0  0  0  0  0  0  0  0  0
    6.5298   -2.0622   -0.7154 C   0  0  0  0  0  0  0  0  0  0  0  0
    8.0182   -3.0381   -0.7105 S   0  0  0  0  0  0  0  0  0  0  0  0
    7.3066   -4.6615   -1.0533 C   0  0  0  0  0  0  0  0  0  0  0  0
    6.5953   -5.1097    0.0134 F   0  0  0  0  0  0  0  0  0  0  0  0
    8.3020   -5.5640   -1.2541 F   0  0  0  0  0  0  0  0  0  0  0  0
    5.5307   -2.2499    0.2419 C   0  0  0  0  0  0  0  0  0  0  0  0
    4.3749   -1.4612    0.2208 C   0  0  0  0  0  0  0  0  0  0  0  0
   -8.1867   -0.9437    0.5240 H   0  0  0  0  0  0  0  0  0  0  0  0
   -7.8086    0.1984   -0.8259 H   0  0  0  0  0  0  0  0  0  0  0  0
   -8.0658    0.7963    0.8174 H   0  0  0  0  0  0  0  0  0  0  0  0
   -7.1315   -1.9904   -1.2916 H   0  0  0  0  0  0  0  0  0  0  0  0
   -5.7340   -3.7351   -2.2662 H   0  0  0  0  0  0  0  0  0  0  0  0
   -3.3399   -3.9311   -1.6464 H   0  0  0  0  0  0  0  0  0  0  0  0
   -2.3452   -2.3317   -0.0439 H   0  0  0  0  0  0  0  0  0  0  0  0
   -4.2696    1.5044    0.2216 H   0  0  0  0  0  0  0  0  0  0  0  0
   -4.6976    1.3053    1.9379 H   0  0  0  0  0  0  0  0  0  0  0  0
   -2.0205    4.3080    2.3393 H   0  0  0  0  0  0  0  0  0  0  0  0
   -0.1638    5.6611    3.2494 H   0  0  0  0  0  0  0  0  0  0  0  0
    2.1877    5.0787    2.7123 H   0  0  0  0  0  0  0  0  0  0  0  0
    2.6862    3.1325    1.2660 H   0  0  0  0  0  0  0  0  0  0  0  0
    1.2680    2.9642   -1.3219 H   0  0  0  0  0  0  0  0  0  0  0  0
    0.4996    1.4302   -1.8100 H   0  0  0  0  0  0  0  0  0  0  0  0
    2.3649    0.0704    0.0517 H   0  0  0  0  0  0  0  0  0  0  0  0
    5.1301    0.4871   -2.4684 H   0  0  0  0  0  0  0  0  0  0  0  0
    7.1410   -0.8772   -2.4207 H   0  0  0  0  0  0  0  0  0  0  0  0
    6.6630   -4.6525   -1.9377 H   0  0  0  0  0  0  0  0  0  0  0  0
    5.6396   -3.0020    1.0208 H   0  0  0  0  0  0  0  0  0  0  0  0
    3.6147   -1.6326    0.9803 H   0  0  0  0  0  0  0  0  0  0  0  0
  1  2  1  0
  2  3  1  0
  3  4  2  0
  4  5  1  0
  5  6  2  0
  6  7  1  0
  7  8  2  0
  8  9  1  0
  9 10  2  0
  9 11  1  0
 11 12  1  0
 12 13  1  0
 13 14  2  0
 13 15  1  0
 15 16  2  0
 16 17  1  0
 17 18  2  0
 18 19  1  0
 19 20  2  0
 20 21  1  0
 21 22  1  0
 22 23  1  0
 23 24  2  0
 23 25  1  0
 25 26  1  0
 26 27  2  0
 27 28  1  0
 28 29  2  0
 29 30  1  0
 30 31  1  0
 31 32  1  0
 31 33  1  0
 29 34  1  0
 34 35  2  0
  8  3  1  0
 20 15  1  0
 35 26  1  0
  1 36  1  0
  1 37  1  0
  1 38  1  0
  4 39  1  0
  5 40  1  0
  6 41  1  0
  7 42  1  0
 11 43  1  0
 11 44  1  0
 16 45  1  0
 17 46  1  0
 18 47  1  0
 19 48  1  0
 22 49  1  0
 22 50  1  0
 25 51  1  0
 27 52  1  0
 28 53  1  0
 31 54  1  0
 34 55  1  0
 35 56  1  0
M  END
$$$$
