
     RDKit          3D

 35 36  0  0  0  0  0  0  0  0999 V2000
    6.2411   -0.6677   -0.4830 C   0  0  0  0  0  0  0  0  0  0  0  0
    5.1190   -0.2647    0.4260 C   0  0  0  0  0  0  0  0  0  0  0  0
    5.3904    0.1629    1.7196 C   0  0  0  0  0  0  0  0  0  0  0  0
    4.3259    0.5285    2.5336 C   0  0  0  0  0  0  0  0  0  0  0  0
    3.0268    0.4577    2.0369 C   0  0  0  0  0  0  0  0  0  0  0  0
    2.8360    0.0211    0.7356 C   0  0  0  0  0  0  0  0  0  0  0  0
    1.5929   -0.0969    0.1153 N   0  0  0  0  0  0  0  0  0  0  0  0
    0.3438    0.1807    0.6342 C   0  0  0  0  0  0  0  0  0  0  0  0
    0.1179    0.5917    1.7679 O   0  0  0  0  0  0  0  0  0  0  0  0
   -0.7657   -0.0883   -0.3910 C   0  0  0  0  0  0  0  0  0  0  0  0
   -2.0469    0.1980    0.1456 O   0  0  0  0  0  0  0  0  0  0  0  0
   -3.1357    0.0028   -0.6623 C   0  0  0  0  0  0  0  0  0  0  0  0
   -3.0836   -0.4590   -1.9815 C   0  0  0  0  0  0  0  0  0  0  0  0
   -4.2587   -0.6233   -2.7198 C   0  0  0  0  0  0  0  0  0  0  0  0
   -5.4920   -0.3282   -2.1470 C   0  0  0  0  0  0  0  0  0  0  0  0
   -5.5543    0.1324   -0.8333 C   0  0  0  0  0  0  0  0  0  0  0  0
   -4.3819    0.3017   -0.0814 C   0  0  0  0  0  0  0  0  0  0  0  0
   -4.4687    0.8001    1.3354 C   0  0  0  0  0  0  0  0  0  0  0  0
    3.8599   -0.3384   -0.0701 N   0  0  0  0  0  0  0  0  0  0  0  0
    6.7937   -1.5083   -0.0520 H   0  0  0  0  0  0  0  0  0  0  0  0
    5.8583   -0.9771   -1.4609 H   0  0  0  0  0  0  0  0  0  0  0  0
    6.9250    0.1729   -0.6353 H   0  0  0  0  0  0  0  0  0  0  0  0
    6.4088    0.2122    2.0909 H   0  0  0  0  0  0  0  0  0  0  0  0
    4.5013    0.8677    3.5507 H   0  0  0  0  0  0  0  0  0  0  0  0
    2.2032    0.7449    2.6791 H   0  0  0  0  0  0  0  0  0  0  0  0
    1.6824   -0.4332   -0.8336 H   0  0  0  0  0  0  0  0  0  0  0  0
   -0.5698    0.5531   -1.2590 H   0  0  0  0  0  0  0  0  0  0  0  0
   -0.7027   -1.1475   -0.6689 H   0  0  0  0  0  0  0  0  0  0  0  0
   -2.1463   -0.7016   -2.4695 H   0  0  0  0  0  0  0  0  0  0  0  0
   -4.2102   -0.9827   -3.7446 H   0  0  0  0  0  0  0  0  0  0  0  0
   -6.4055   -0.4562   -2.7217 H   0  0  0  0  0  0  0  0  0  0  0  0
   -6.5242    0.3597   -0.3967 H   0  0  0  0  0  0  0  0  0  0  0  0
   -5.5062    0.9846    1.6335 H   0  0  0  0  0  0  0  0  0  0  0  0
   -4.0527    0.0580    2.0246 H   0  0  0  0  0  0  0  0  0  0  0  0
   -3.9211    1.7423    1.4402 H   0  0  0  0  0  0  0  0  0  0  0  0
  1  2  1  0
  2  3  2  0
  3  4  1  0
  4  5  2  0
  5  6  1  0
  6  7  1  0
  7  8  1  0
  8  9  2  0
  8 10  1  0
 10 11  1  0
 11 12  1  0
 12 13  2  0
 13 14  1  0
 14 15  2  0
 15 16  1  0
 16 17  2  0
 17 18  1  0
  6 19  2  0
 19  2  1  0
 17 12  1  0
  1 20  1  0
  1 21  1  0
  1 22  1  0
  3 23  1  0
  4 24  1  0
  5 25  1  0
  7 26  1  0
 10 27  1  0
 10 28  1  0
 13 29  1  0
 14 30  1  0
 15 31  1  0
 16 32  1  0
 18 33  1  0
 18 34  1  0
 18 35  1  0
M  END
$$$$
