
     RDKit          3D

 67 72  0  0  0  0  0  0  0  0999 V2000
    2.1279   -2.7619    1.9081 O   0  0  0  0  0  0  0  0  0  0  0  0
    2.0213   -1.5917    1.5310 C   0  0  0  0  0  0  0  0  0  0  0  0
    3.2152   -0.6190    1.5725 C   0  0  0  0  0  0  0  0  0  0  0  0
    4.2828   -1.1206    2.5619 C   0  0  0  0  0  0  0  0  0  0  0  0
    5.5570   -0.3050    2.5215 C   0  0  0  0  0  0  0  0  0  0  0  0
    6.5005   -0.5096    1.5044 C   0  0  0  0  0  0  0  0  0  0  0  0
    7.6623    0.2621    1.4538 C   0  0  0  0  0  0  0  0  0  0  0  0
    7.8906    1.2442    2.4164 C   0  0  0  0  0  0  0  0  0  0  0  0
    6.9589    1.4545    3.4322 C   0  0  0  0  0  0  0  0  0  0  0  0
    5.7977    0.6832    3.4860 C   0  0  0  0  0  0  0  0  0  0  0  0
    2.7669    0.7224    1.9401 N   0  0  0  0  0  0  0  0  0  0  0  0
    1.7452    1.1833    1.1043 C   0  0  0  0  0  0  0  0  0  0  0  0
    1.8079    2.4972    0.8430 N   0  0  0  0  0  0  0  0  0  0  0  0
    0.8062    2.9938    0.1228 C   0  0  0  0  0  0  0  0  0  0  0  0
   -0.2491    2.3091   -0.3228 N   0  0  0  0  0  0  0  0  0  0  0  0
   -0.3076    0.9875   -0.0321 C   0  0  0  0  0  0  0  0  0  0  0  0
   -1.5015    0.3347   -0.4095 N   0  0  0  0  0  0  0  0  0  0  0  0
   -1.9525    0.7133   -1.7784 C   0  0  0  0  0  0  0  0  0  0  0  0
   -3.1215    1.7231   -1.7958 C   0  0  0  0  0  0  0  0  0  0  0  0
   -4.2774    1.1981   -1.0455 N   0  0  0  0  0  0  0  0  0  0  0  0
   -5.5684    1.6404   -1.2810 C   0  0  0  0  0  0  0  0  0  0  0  0
   -6.6866    0.9083   -0.8469 C   0  0  0  0  0  0  0  0  0  0  0  0
   -7.9980    1.3398   -1.0878 C   0  0  0  0  0  0  0  0  0  0  0  0
   -8.2258    2.5259   -1.7738 C   0  0  0  0  0  0  0  0  0  0  0  0
   -7.1426    3.2732   -2.2197 C   0  0  0  0  0  0  0  0  0  0  0  0
   -5.8347    2.8307   -1.9765 C   0  0  0  0  0  0  0  0  0  0  0  0
   -3.9654    0.3400    0.1136 C   0  0  0  0  0  0  0  0  0  0  0  0
   -2.5342    0.6029    0.6352 C   0  0  0  0  0  0  0  0  0  0  0  0
    0.7254    0.3278    0.6564 C   0  0  0  0  0  0  0  0  0  0  0  0
    0.8509   -1.0884    0.9309 N   0  0  0  0  0  0  0  0  0  0  0  0
   -0.1277   -2.0893    0.5318 C   0  0  0  0  0  0  0  0  0  0  0  0
    0.2793   -2.8470   -0.7210 C   0  0  0  0  0  0  0  0  0  0  0  0
    0.4694   -4.2383   -0.6703 C   0  0  0  0  0  0  0  0  0  0  0  0
    0.8418   -4.9522   -1.8127 C   0  0  0  0  0  0  0  0  0  0  0  0
    1.0263   -4.2787   -3.0171 C   0  0  0  0  0  0  0  0  0  0  0  0
    1.5347   -5.2392   -4.5640 Br  0  0  0  0  0  0  0  0  0  0  0  0
    0.8428   -2.9001   -3.0885 C   0  0  0  0  0  0  0  0  0  0  0  0
    0.4704   -2.1890   -1.9448 C   0  0  0  0  0  0  0  0  0  0  0  0
    3.6434   -0.6017    0.5597 H   0  0  0  0  0  0  0  0  0  0  0  0
    4.5450   -2.1652    2.3473 H   0  0  0  0  0  0  0  0  0  0  0  0
    3.8794   -1.1243    3.5838 H   0  0  0  0  0  0  0  0  0  0  0  0
    6.3384   -1.2744    0.7477 H   0  0  0  0  0  0  0  0  0  0  0  0
    8.3918    0.0963    0.6643 H   0  0  0  0  0  0  0  0  0  0  0  0
    8.7953    1.8447    2.3770 H   0  0  0  0  0  0  0  0  0  0  0  0
    7.1370    2.2201    4.1835 H   0  0  0  0  0  0  0  0  0  0  0  0
    5.0778    0.8615    4.2830 H   0  0  0  0  0  0  0  0  0  0  0  0
    3.4923    1.4363    1.9624 H   0  0  0  0  0  0  0  0  0  0  0  0
    0.8438    4.0516   -0.1123 H   0  0  0  0  0  0  0  0  0  0  0  0
   -1.1248    1.0796   -2.3991 H   0  0  0  0  0  0  0  0  0  0  0  0
   -2.2955   -0.2126   -2.2591 H   0  0  0  0  0  0  0  0  0  0  0  0
   -3.3894    1.8914   -2.8459 H   0  0  0  0  0  0  0  0  0  0  0  0
   -2.8091    2.6808   -1.3642 H   0  0  0  0  0  0  0  0  0  0  0  0
   -6.5562   -0.0394   -0.3330 H   0  0  0  0  0  0  0  0  0  0  0  0
   -8.8357    0.7399   -0.7427 H   0  0  0  0  0  0  0  0  0  0  0  0
   -9.2414    2.8641   -1.9637 H   0  0  0  0  0  0  0  0  0  0  0  0
   -7.3068    4.2045   -2.7543 H   0  0  0  0  0  0  0  0  0  0  0  0
   -5.0210    3.4589   -2.3270 H   0  0  0  0  0  0  0  0  0  0  0  0
   -4.6555    0.5326    0.9439 H   0  0  0  0  0  0  0  0  0  0  0  0
   -4.0668   -0.7112   -0.1817 H   0  0  0  0  0  0  0  0  0  0  0  0
   -2.3470   -0.0406    1.5035 H   0  0  0  0  0  0  0  0  0  0  0  0
   -2.4868    1.6444    0.9850 H   0  0  0  0  0  0  0  0  0  0  0  0
   -1.1396   -1.7119    0.4272 H   0  0  0  0  0  0  0  0  0  0  0  0
   -0.2132   -2.8048    1.3612 H   0  0  0  0  0  0  0  0  0  0  0  0
    0.3441   -4.7763    0.2681 H   0  0  0  0  0  0  0  0  0  0  0  0
    0.9888   -6.0271   -1.7474 H   0  0  0  0  0  0  0  0  0  0  0  0
    0.9877   -2.3688   -4.0255 H   0  0  0  0  0  0  0  0  0  0  0  0
    0.3360   -1.1140   -2.0190 H   0  0  0  0  0  0  0  0  0  0  0  0
  1  2  2  0
  2  3  1  0
  3  4  1  0
  4  5  1  0
  5  6  2  0
  6  7  1  0
  7  8  2  0
  8  9  1  0
  9 10  2  0
  3 11  1  0
 11 12  1  0
 12 13  2  0
 13 14  1  0
 14 15  2  0
 15 16  1  0
 16 17  1  0
 17 18  1  0
 18 19  1  0
 19 20  1  0
 20 21  1  0
 21 22  2  0
 22 23  1  0
 23 24  2  0
 24 25  1  0
 25 26  2  0
 20 27  1  0
 27 28  1  0
 16 29  2  0
 29 30  1  0
 30 31  1  0
 31 32  1  0
 32 33  2  0
 33 34  1  0
 34 35  2  0
 35 36  1  0
 35 37  1  0
 37 38  2  0
 30  2  1  0
 38 32  1  0
 10  5  1  0
 29 12  1  0
 28 17  1  0
 26 21  1  0
  3 39  1  0
  4 40  1  0
  4 41  1  0
  6 42  1  0
  7 43  1  0
  8 44  1  0
  9 45  1  0
 10 46  1  0
 11 47  1  0
 14 48  1  0
 18 49  1  0
 18 50  1  0
 19 51  1  0
 19 52  1  0
 22 53  1  0
 23 54  1  0
 24 55  1  0
 25 56  1  0
 26 57  1  0
 27 58  1  0
 27 59  1  0
 28 60  1  0
 28 61  1  0
 31 62  1  0
 31 63  1  0
 33 64  1  0
 34 65  1  0
 37 66  1  0
 38 67  1  0
M  END
$$$$
