
     RDKit          3D

 61 65  0  0  0  0  0  0  0  0999 V2000
    6.3403   -4.1823    2.4655 C   0  0  0  0  0  0  0  0  0  0  0  0
    5.1581   -3.3740    2.0168 C   0  0  0  0  0  0  0  0  0  0  0  0
    3.9660   -3.3968    2.7453 C   0  0  0  0  0  0  0  0  0  0  0  0
    2.8541   -2.6682    2.3107 C   0  0  0  0  0  0  0  0  0  0  0  0
    2.9024   -1.9063    1.1322 C   0  0  0  0  0  0  0  0  0  0  0  0
    1.7345   -1.1387    0.6765 C   0  0  0  0  0  0  0  0  0  0  0  0
    1.8308    0.2162    0.3703 C   0  0  0  0  0  0  0  0  0  0  0  0
    0.7154    0.9450   -0.0670 C   0  0  0  0  0  0  0  0  0  0  0  0
    0.8485    2.3637   -0.4147 C   0  0  0  0  0  0  0  0  0  0  0  0
    0.9102    3.3426    0.5907 C   0  0  0  0  0  0  0  0  0  0  0  0
    1.0398    4.6948    0.2641 C   0  0  0  0  0  0  0  0  0  0  0  0
    1.1333    5.0957   -1.0719 C   0  0  0  0  0  0  0  0  0  0  0  0
    1.2403    6.5520   -1.4222 C   0  0  0  0  0  0  0  0  0  0  0  0
    1.0785    4.1270   -2.0784 C   0  0  0  0  0  0  0  0  0  0  0  0
    0.9498    2.7741   -1.7539 C   0  0  0  0  0  0  0  0  0  0  0  0
   -0.5025    0.3334   -0.1964 N   0  0  0  0  0  4  0  0  0  0  0  0
   -1.6497    1.0882   -0.6438 C   0  0  0  0  0  0  0  0  0  0  0  0
   -2.2857    1.9456    0.2564 C   0  0  0  0  0  0  0  0  0  0  0  0
   -3.3908    2.6711   -0.1830 C   0  0  0  0  0  0  0  0  0  0  0  0
   -3.8412    2.5307   -1.4990 C   0  0  0  0  0  0  0  0  0  0  0  0
   -3.1924    1.6666   -2.3860 C   0  0  0  0  0  0  0  0  0  0  0  0
   -2.0849    0.9357   -1.9619 C   0  0  0  0  0  0  0  0  0  0  0  0
   -0.6279   -0.9972    0.1005 C   0  0  0  0  0  0  0  0  0  0  0  0
   -1.9424   -1.6379   -0.0133 C   0  0  0  0  0  0  0  0  0  0  0  0
   -2.2436   -2.4600   -1.1115 C   0  0  0  0  0  0  0  0  0  0  0  0
   -3.4945   -3.0723   -1.2236 C   0  0  0  0  0  0  0  0  0  0  0  0
   -4.4696   -2.8779   -0.2410 C   0  0  0  0  0  0  0  0  0  0  0  0
   -5.8013   -3.5639   -0.3454 C   0  0  0  0  0  0  0  0  0  0  0  0
   -4.1648   -2.0905    0.8732 C   0  0  0  0  0  0  0  0  0  0  0  0
   -2.9143   -1.4778    0.9876 C   0  0  0  0  0  0  0  0  0  0  0  0
    0.4841   -1.7343    0.5324 C   0  0  0  0  0  0  0  0  0  0  0  0
    4.1011   -1.9033    0.4007 C   0  0  0  0  0  0  0  0  0  0  0  0
    5.2132   -2.6323    0.8340 C   0  0  0  0  0  0  0  0  0  0  0  0
    6.2864   -5.1901    2.0428 H   0  0  0  0  0  0  0  0  0  0  0  0
    7.2775   -3.7140    2.1467 H   0  0  0  0  0  0  0  0  0  0  0  0
    6.3701   -4.2567    3.5575 H   0  0  0  0  0  0  0  0  0  0  0  0
    3.8966   -3.9810    3.6613 H   0  0  0  0  0  0  0  0  0  0  0  0
    1.9514   -2.7001    2.9174 H   0  0  0  0  0  0  0  0  0  0  0  0
    2.7902    0.7264    0.4721 H   0  0  0  0  0  0  0  0  0  0  0  0
    0.8565    3.0690    1.6435 H   0  0  0  0  0  0  0  0  0  0  0  0
    1.0747    5.4377    1.0600 H   0  0  0  0  0  0  0  0  0  0  0  0
    1.7890    7.0998   -0.6487 H   0  0  0  0  0  0  0  0  0  0  0  0
    0.2408    6.9859   -1.5231 H   0  0  0  0  0  0  0  0  0  0  0  0
    1.7825    6.6891   -2.3638 H   0  0  0  0  0  0  0  0  0  0  0  0
    1.1441    4.4234   -3.1244 H   0  0  0  0  0  0  0  0  0  0  0  0
    0.9330    2.0494   -2.5662 H   0  0  0  0  0  0  0  0  0  0  0  0
   -1.9443    2.0545    1.2807 H   0  0  0  0  0  0  0  0  0  0  0  0
   -3.9083    3.3492    0.4937 H   0  0  0  0  0  0  0  0  0  0  0  0
   -4.7067    3.1004   -1.8367 H   0  0  0  0  0  0  0  0  0  0  0  0
   -3.5578    1.5693   -3.4070 H   0  0  0  0  0  0  0  0  0  0  0  0
   -1.5821    0.2707   -2.6567 H   0  0  0  0  0  0  0  0  0  0  0  0
   -1.5094   -2.6391   -1.8957 H   0  0  0  0  0  0  0  0  0  0  0  0
   -3.7050   -3.7082   -2.0825 H   0  0  0  0  0  0  0  0  0  0  0  0
   -5.7536   -4.5476    0.1316 H   0  0  0  0  0  0  0  0  0  0  0  0
   -6.5842   -2.9717    0.1399 H   0  0  0  0  0  0  0  0  0  0  0  0
   -6.0933   -3.6914   -1.3932 H   0  0  0  0  0  0  0  0  0  0  0  0
   -4.9023   -1.9552    1.6632 H   0  0  0  0  0  0  0  0  0  0  0  0
   -2.7129   -0.8807    1.8755 H   0  0  0  0  0  0  0  0  0  0  0  0
    0.3617   -2.7952    0.7571 H   0  0  0  0  0  0  0  0  0  0  0  0
    4.1856   -1.3437   -0.5287 H   0  0  0  0  0  0  0  0  0  0  0  0
    6.1252   -2.6184    0.2397 H   0  0  0  0  0  0  0  0  0  0  0  0
  1  2  1  0
  2  3  2  0
  3  4  1  0
  4  5  2  0
  5  6  1  0
  6  7  2  0
  7  8  1  0
  8  9  1  0
  9 10  2  0
 10 11  1  0
 11 12  2  0
 12 13  1  0
 12 14  1  0
 14 15  2  0
  8 16  2  0
 16 17  1  0
 17 18  2  0
 18 19  1  0
 19 20  2  0
 20 21  1  0
 21 22  2  0
 16 23  1  0
 23 24  1  0
 24 25  2  0
 25 26  1  0
 26 27  2  0
 27 28  1  0
 27 29  1  0
 29 30  2  0
 23 31  2  0
  5 32  1  0
 32 33  2  0
 33  2  1  0
 31  6  1  0
 15  9  1  0
 22 17  1  0
 30 24  1  0
  1 34  1  0
  1 35  1  0
  1 36  1  0
  3 37  1  0
  4 38  1  0
  7 39  1  0
 10 40  1  0
 11 41  1  0
 13 42  1  0
 13 43  1  0
 13 44  1  0
 14 45  1  0
 15 46  1  0
 18 47  1  0
 19 48  1  0
 20 49  1  0
 21 50  1  0
 22 51  1  0
 25 52  1  0
 26 53  1  0
 28 54  1  0
 28 55  1  0
 28 56  1  0
 29 57  1  0
 30 58  1  0
 31 59  1  0
 32 60  1  0
 33 61  1  0
M  CHG  1  16   1
M  END
$$$$
