
     RDKit          3D

 37 39  0  0  0  0  0  0  0  0999 V2000
   -7.3172    1.9771    1.1329 C   0  0  0  0  0  0  0  0  0  0  0  0
   -6.1788    2.6290    0.5834 O   0  0  0  0  0  0  0  0  0  0  0  0
   -5.0687    1.8631    0.3706 C   0  0  0  0  0  0  0  0  0  0  0  0
   -5.0031    0.4709    0.4409 C   0  0  0  0  0  0  0  0  0  0  0  0
   -3.7969   -0.1977    0.1812 C   0  0  0  0  0  0  0  0  0  0  0  0
   -2.6318    0.5151   -0.1490 C   0  0  0  0  0  0  0  0  0  0  0  0
   -1.3387   -0.1245   -0.4338 C   0  0  0  0  0  0  0  0  0  0  0  0
   -0.2007    0.5151   -0.6154 N   0  0  0  0  0  0  0  0  0  0  0  0
    0.8109   -0.3890   -0.8689 C   0  0  0  0  0  0  0  0  0  0  0  0
    2.1038    0.0176   -1.0821 N   0  0  0  0  0  0  0  0  0  0  0  0
    2.5603    1.3065   -0.9272 C   0  0  0  0  0  0  0  0  0  0  0  0
    1.8984    2.2794   -0.5734 O   0  0  0  0  0  0  0  0  0  0  0  0
    4.0388    1.4675   -1.2437 C   0  0  0  0  0  0  0  0  0  0  0  0
    5.0561    1.1382    0.2235 S   0  0  0  0  0  0  0  0  0  0  0  0
    5.1356   -0.6062    0.1915 C   0  0  0  0  0  0  0  0  0  0  0  0
    4.5533   -1.3185   -0.7515 N   0  0  0  0  0  0  0  0  0  0  0  0
    4.7286   -2.6722   -0.5646 N   0  0  0  0  0  0  0  0  0  0  0  0
    5.4492   -2.9345    0.5079 C   0  0  0  0  0  0  0  0  0  0  0  0
    5.8175   -4.2948    0.9774 C   0  0  0  0  0  0  0  0  0  0  0  0
    5.9565   -1.5388    1.3716 S   0  0  0  0  0  0  0  0  0  0  0  0
    0.5139   -1.6878   -0.9250 N   0  0  0  0  0  0  0  0  0  0  0  0
   -1.1159   -1.8215   -0.6064 S   0  0  0  0  0  0  0  0  0  0  0  0
   -2.7146    1.9179   -0.2090 C   0  0  0  0  0  0  0  0  0  0  0  0
   -3.9198    2.5809    0.0390 C   0  0  0  0  0  0  0  0  0  0  0  0
   -7.7160    1.2202    0.4490 H   0  0  0  0  0  0  0  0  0  0  0  0
   -7.0880    1.5389    2.1132 H   0  0  0  0  0  0  0  0  0  0  0  0
   -8.0984    2.7336    1.2775 H   0  0  0  0  0  0  0  0  0  0  0  0
   -5.8751   -0.1311    0.6841 H   0  0  0  0  0  0  0  0  0  0  0  0
   -3.7999   -1.2855    0.2482 H   0  0  0  0  0  0  0  0  0  0  0  0
    2.7566   -0.7510   -1.2201 H   0  0  0  0  0  0  0  0  0  0  0  0
    4.3294    0.8522   -2.0994 H   0  0  0  0  0  0  0  0  0  0  0  0
    4.2056    2.5086   -1.5445 H   0  0  0  0  0  0  0  0  0  0  0  0
    6.9048   -4.4363    0.9448 H   0  0  0  0  0  0  0  0  0  0  0  0
    5.4707   -4.4651    2.0024 H   0  0  0  0  0  0  0  0  0  0  0  0
    5.3601   -5.0552    0.3390 H   0  0  0  0  0  0  0  0  0  0  0  0
   -1.8304    2.5105   -0.4511 H   0  0  0  0  0  0  0  0  0  0  0  0
   -3.9562    3.6675   -0.0247 H   0  0  0  0  0  0  0  0  0  0  0  0
  1  2  1  0
  2  3  1  0
  3  4  2  0
  4  5  1  0
  5  6  2  0
  6  7  1  0
  7  8  2  0
  8  9  1  0
  9 10  1  0
 10 11  1  0
 11 12  2  0
 11 13  1  0
 13 14  1  0
 14 15  1  0
 15 16  2  0
 16 17  1  0
 17 18  2  0
 18 19  1  0
 18 20  1  0
  9 21  2  0
 21 22  1  0
  6 23  1  0
 23 24  2  0
 24  3  1  0
 22  7  1  0
 20 15  1  0
  1 25  1  0
  1 26  1  0
  1 27  1  0
  4 28  1  0
  5 29  1  0
 10 30  1  0
 13 31  1  0
 13 32  1  0
 19 33  1  0
 19 34  1  0
 19 35  1  0
 23 36  1  0
 24 37  1  0
M  END
$$$$
