
     RDKit          3D

 40 42  0  0  0  0  0  0  0  0999 V2000
   -2.8508    4.0992    3.6847 C   0  0  0  0  0  0  0  0  0  0  0  0
   -2.0498    3.4424    2.7094 O   0  0  0  0  0  0  0  0  0  0  0  0
   -2.1710    2.0808    2.6239 C   0  0  0  0  0  0  0  0  0  0  0  0
   -3.0100    1.2842    3.3978 C   0  0  0  0  0  0  0  0  0  0  0  0
   -3.0519   -0.1052    3.2226 C   0  0  0  0  0  0  0  0  0  0  0  0
   -2.2253   -0.6783    2.2441 C   0  0  0  0  0  0  0  0  0  0  0  0
   -1.3721    0.0927    1.4500 C   0  0  0  0  0  0  0  0  0  0  0  0
   -1.3528    1.4907    1.6517 C   0  0  0  0  0  0  0  0  0  0  0  0
   -0.6853   -0.8025    0.5700 C   0  0  0  0  0  0  0  0  0  0  0  0
    0.2826   -0.4375   -0.4184 C   0  0  0  0  0  0  0  0  0  0  0  0
    0.9641   -1.2823   -1.2113 C   0  0  0  0  0  0  0  0  0  0  0  0
    1.9492   -0.8407   -2.2043 C   0  0  0  0  0  0  0  0  0  0  0  0
    1.7100    0.2368   -3.0563 C   0  0  0  0  0  0  0  0  0  0  0  0
    2.6695    0.6003   -3.9941 C   0  0  0  0  0  0  0  0  0  0  0  0
    3.8315   -0.0833   -4.0905 N   0  0  0  0  0  4  0  0  0  0  0  0
    4.8301    0.3171   -5.0963 C   0  0  0  0  0  0  0  0  0  0  0  0
    4.0753   -1.1460   -3.2916 C   0  0  0  0  0  0  0  0  0  0  0  0
    3.1428   -1.5462   -2.3410 C   0  0  0  0  0  0  0  0  0  0  0  0
   -1.1329   -2.0765    0.8476 C   0  0  0  0  0  0  0  0  0  0  0  0
   -2.0584   -1.9906    1.8565 N   0  0  0  0  0  0  0  0  0  0  0  0
   -2.7602   -3.1183    2.4299 C   0  0  0  0  0  0  0  0  0  0  0  0
   -2.6356    5.1706    3.6268 H   0  0  0  0  0  0  0  0  0  0  0  0
   -3.9171    3.9622    3.4767 H   0  0  0  0  0  0  0  0  0  0  0  0
   -2.5971    3.7629    4.6954 H   0  0  0  0  0  0  0  0  0  0  0  0
   -3.6560    1.7113    4.1587 H   0  0  0  0  0  0  0  0  0  0  0  0
   -3.7116   -0.7130    3.8344 H   0  0  0  0  0  0  0  0  0  0  0  0
   -0.7018    2.1225    1.0557 H   0  0  0  0  0  0  0  0  0  0  0  0
    0.4743    0.6299   -0.5055 H   0  0  0  0  0  0  0  0  0  0  0  0
    0.8204   -2.3567   -1.1250 H   0  0  0  0  0  0  0  0  0  0  0  0
    0.7756    0.7930   -3.0048 H   0  0  0  0  0  0  0  0  0  0  0  0
    2.5142    1.4329   -4.6746 H   0  0  0  0  0  0  0  0  0  0  0  0
    4.7670    1.3970   -5.2530 H   0  0  0  0  0  0  0  0  0  0  0  0
    5.8286    0.0627   -4.7315 H   0  0  0  0  0  0  0  0  0  0  0  0
    4.6019   -0.2247   -6.0174 H   0  0  0  0  0  0  0  0  0  0  0  0
    5.0177   -1.6708   -3.4213 H   0  0  0  0  0  0  0  0  0  0  0  0
    3.3588   -2.4018   -1.7034 H   0  0  0  0  0  0  0  0  0  0  0  0
   -0.8799   -3.0364    0.4182 H   0  0  0  0  0  0  0  0  0  0  0  0
   -3.8324   -2.9727    2.2755 H   0  0  0  0  0  0  0  0  0  0  0  0
   -2.5241   -3.1662    3.4960 H   0  0  0  0  0  0  0  0  0  0  0  0
   -2.4375   -4.0394    1.9381 H   0  0  0  0  0  0  0  0  0  0  0  0
  1  2  1  0
  2  3  1  0
  3  4  2  0
  4  5  1  0
  5  6  2  0
  6  7  1  0
  7  8  2  0
  7  9  1  0
  9 10  1  0
 10 11  2  3
 11 12  1  0
 12 13  2  0
 13 14  1  0
 14 15  2  0
 15 16  1  0
 15 17  1  0
 17 18  2  0
  9 19  2  0
 19 20  1  0
 20 21  1  0
  8  3  1  0
 18 12  1  0
 20  6  1  0
  1 22  1  0
  1 23  1  0
  1 24  1  0
  4 25  1  0
  5 26  1  0
  8 27  1  0
 10 28  1  0
 11 29  1  0
 13 30  1  0
 14 31  1  0
 16 32  1  0
 16 33  1  0
 16 34  1  0
 17 35  1  0
 18 36  1  0
 19 37  1  0
 21 38  1  0
 21 39  1  0
 21 40  1  0
M  CHG  1  15   1
M  END
$$$$
