
     RDKit          3D

 28 28  0  0  0  0  0  0  0  0999 V2000
   -1.9658   -2.2551   -0.5303 C   0  0  0  0  0  0  0  0  0  0  0  0
   -1.6812   -0.8467    0.0286 C   0  0  0  0  0  0  0  0  0  0  0  0
   -2.8375   -0.4712    0.9637 C   0  0  0  0  0  0  0  0  0  0  0  0
   -1.6158    0.1452   -1.1404 C   0  0  0  0  0  0  0  0  0  0  0  0
   -0.3033   -0.8864    0.7305 C   0  0  0  0  0  0  0  0  0  0  0  0
    0.6275   -1.5359    0.2364 O   0  0  0  0  0  0  0  0  0  0  0  0
   -0.0697   -0.1099    2.0154 C   0  0  0  0  0  0  0  0  0  0  0  0
    0.1461    1.6603    1.7182 S   0  0  0  0  0  0  0  0  0  0  0  0
    1.6174    1.5675    0.7371 C   0  0  0  0  0  0  0  0  0  0  0  0
    1.5136    1.9346   -0.5505 N   0  0  0  0  0  0  0  0  0  0  0  0
    2.6324    1.8173   -1.2881 C   0  0  0  0  0  0  0  0  0  0  0  0
    3.8286    1.3621   -0.7866 C   0  0  0  0  0  0  0  0  0  0  0  0
    3.8230    1.0264    0.5463 C   0  0  0  0  0  0  0  0  0  0  0  0
    2.7360    1.1236    1.3331 N   0  0  0  0  0  0  0  0  0  0  0  0
   -2.9436   -2.2991   -1.0233 H   0  0  0  0  0  0  0  0  0  0  0  0
   -1.2130   -2.5566   -1.2678 H   0  0  0  0  0  0  0  0  0  0  0  0
   -1.9574   -3.0042    0.2701 H   0  0  0  0  0  0  0  0  0  0  0  0
   -2.7386    0.5490    1.3479 H   0  0  0  0  0  0  0  0  0  0  0  0
   -3.8004   -0.5251    0.4424 H   0  0  0  0  0  0  0  0  0  0  0  0
   -2.8891   -1.1486    1.8235 H   0  0  0  0  0  0  0  0  0  0  0  0
   -0.7660   -0.0695   -1.7983 H   0  0  0  0  0  0  0  0  0  0  0  0
   -1.5039    1.1759   -0.7900 H   0  0  0  0  0  0  0  0  0  0  0  0
   -2.5277    0.1034   -1.7468 H   0  0  0  0  0  0  0  0  0  0  0  0
   -0.8969   -0.2753    2.7099 H   0  0  0  0  0  0  0  0  0  0  0  0
    0.8195   -0.5156    2.5110 H   0  0  0  0  0  0  0  0  0  0  0  0
    2.5337    2.1073   -2.3300 H   0  0  0  0  0  0  0  0  0  0  0  0
    4.7138    1.2718   -1.4000 H   0  0  0  0  0  0  0  0  0  0  0  0
    4.7185    0.6550    1.0360 H   0  0  0  0  0  0  0  0  0  0  0  0
  1  2  1  0
  2  3  1  0
  2  4  1  0
  2  5  1  0
  5  6  2  0
  5  7  1  0
  7  8  1  0
  8  9  1  0
  9 10  2  0
 10 11  1  0
 11 12  2  0
 12 13  1  0
 13 14  2  0
 14  9  1  0
  1 15  1  0
  1 16  1  0
  1 17  1  0
  3 18  1  0
  3 19  1  0
  3 20  1  0
  4 21  1  0
  4 22  1  0
  4 23  1  0
  7 24  1  0
  7 25  1  0
 11 26  1  0
 12 27  1  0
 13 28  1  0
M  END
$$$$
