
     RDKit          3D

 55 58  0  0  0  0  0  0  0  0999 V2000
    8.9456    1.1467   -0.2173 C   0  0  0  0  0  0  0  0  0  0  0  0
    8.2284   -0.0727   -0.3668 O   0  0  0  0  0  0  0  0  0  0  0  0
    6.8625   -0.0096   -0.3165 C   0  0  0  0  0  0  0  0  0  0  0  0
    6.2508   -1.0880   -0.9718 C   0  0  0  0  0  0  0  0  0  0  0  0
    4.8608   -1.2149   -1.0245 C   0  0  0  0  0  0  0  0  0  0  0  0
    4.0494   -0.2482   -0.4268 C   0  0  0  0  0  0  0  0  0  0  0  0
    2.5465   -0.3208   -0.4248 C   0  0  0  0  0  0  0  0  0  0  0  0
    1.8783   -1.3209   -1.3211 C   0  0  0  0  0  0  0  0  0  0  0  0
    0.5320   -1.3901   -1.2608 C   0  0  0  0  0  0  0  0  0  0  0  0
   -0.2850   -2.3198   -2.0731 C   0  0  0  0  0  0  0  0  0  0  0  0
   -1.0405   -3.1578   -1.3210 F   0  0  0  0  0  0  0  0  0  0  0  0
    0.5012   -3.1227   -2.8448 F   0  0  0  0  0  0  0  0  0  0  0  0
   -1.1120   -1.6744   -2.9340 F   0  0  0  0  0  0  0  0  0  0  0  0
   -0.1624   -0.5496   -0.4012 N   0  0  0  0  0  0  0  0  0  0  0  0
   -1.4968   -0.4790   -0.1876 N   0  0  0  0  0  0  0  0  0  0  0  0
   -1.6695    0.4710    0.7499 C   0  0  0  0  0  0  0  0  0  0  0  0
   -2.9860    0.8956    1.2795 C   0  0  0  0  0  0  0  0  0  0  0  0
   -3.0955    2.0052    1.8060 O   0  0  0  0  0  0  0  0  0  0  0  0
   -4.0856    0.0417    1.1616 N   0  0  0  0  0  0  0  0  0  0  0  0
   -3.9775   -1.3971    0.9513 C   0  0  0  0  0  0  0  0  0  0  0  0
   -5.4078    0.5734    1.4800 C   0  0  0  0  0  0  0  0  0  0  0  0
   -6.4701    0.1852    0.4766 C   0  0  0  0  0  0  0  0  0  0  0  0
   -6.3537    0.5706   -0.8681 C   0  0  0  0  0  0  0  0  0  0  0  0
   -7.3361    0.2136   -1.7939 C   0  0  0  0  0  0  0  0  0  0  0  0
   -8.4464   -0.5249   -1.3864 C   0  0  0  0  0  0  0  0  0  0  0  0
   -8.5758   -0.9074   -0.0515 C   0  0  0  0  0  0  0  0  0  0  0  0
   -7.5944   -0.5514    0.8762 C   0  0  0  0  0  0  0  0  0  0  0  0
   -0.4278    1.0536    1.0996 C   0  0  0  0  0  0  0  0  0  0  0  0
    0.5245    0.3768    0.3788 C   0  0  0  0  0  0  0  0  0  0  0  0
    1.8825    0.4875    0.3551 N   0  0  0  0  0  0  0  0  0  0  0  0
    4.6645    0.8259    0.2472 C   0  0  0  0  0  0  0  0  0  0  0  0
    6.0615    0.9448    0.3334 C   0  0  0  0  0  0  0  0  0  0  0  0
    6.6864    1.9450    1.0320 O   0  0  0  0  0  0  0  0  0  0  0  0
    5.8934    2.7417    1.9060 C   0  0  0  0  0  0  0  0  0  0  0  0
    8.4840    1.9700   -0.7725 H   0  0  0  0  0  0  0  0  0  0  0  0
    9.0689    1.3905    0.8431 H   0  0  0  0  0  0  0  0  0  0  0  0
    9.9452    0.9949   -0.6358 H   0  0  0  0  0  0  0  0  0  0  0  0
    6.8756   -1.8442   -1.4466 H   0  0  0  0  0  0  0  0  0  0  0  0
    4.4628   -2.0901   -1.5277 H   0  0  0  0  0  0  0  0  0  0  0  0
    2.4448   -1.9375   -2.0021 H   0  0  0  0  0  0  0  0  0  0  0  0
   -3.0018   -1.7802    1.2629 H   0  0  0  0  0  0  0  0  0  0  0  0
   -4.7295   -1.9133    1.5588 H   0  0  0  0  0  0  0  0  0  0  0  0
   -4.1516   -1.6213   -0.1043 H   0  0  0  0  0  0  0  0  0  0  0  0
   -5.3914    1.6674    1.5437 H   0  0  0  0  0  0  0  0  0  0  0  0
   -5.6645    0.2059    2.4817 H   0  0  0  0  0  0  0  0  0  0  0  0
   -5.4893    1.1431   -1.1967 H   0  0  0  0  0  0  0  0  0  0  0  0
   -7.2348    0.5104   -2.8345 H   0  0  0  0  0  0  0  0  0  0  0  0
   -9.2103   -0.8059   -2.1081 H   0  0  0  0  0  0  0  0  0  0  0  0
   -9.4414   -1.4840    0.2673 H   0  0  0  0  0  0  0  0  0  0  0  0
   -7.7114   -0.8588    1.9135 H   0  0  0  0  0  0  0  0  0  0  0  0
   -0.2550    1.8560    1.8027 H   0  0  0  0  0  0  0  0  0  0  0  0
    4.0233    1.5695    0.7132 H   0  0  0  0  0  0  0  0  0  0  0  0
    5.2465    3.4175    1.3353 H   0  0  0  0  0  0  0  0  0  0  0  0
    6.5738    3.3593    2.5035 H   0  0  0  0  0  0  0  0  0  0  0  0
    5.3106    2.1217    2.6002 H   0  0  0  0  0  0  0  0  0  0  0  0
  1  2  1  0
  2  3  1  0
  3  4  2  0
  4  5  1  0
  5  6  2  0
  6  7  1  0
  7  8  1  0
  8  9  2  0
  9 10  1  0
 10 11  1  0
 10 12  1  0
 10 13  1  0
  9 14  1  0
 14 15  1  0
 15 16  2  0
 16 17  1  0
 17 18  2  0
 17 19  1  0
 19 20  1  0
 19 21  1  0
 21 22  1  0
 22 23  2  0
 23 24  1  0
 24 25  2  0
 25 26  1  0
 26 27  2  0
 16 28  1  0
 28 29  2  0
 29 30  1  0
  6 31  1  0
 31 32  2  0
 32 33  1  0
 33 34  1  0
 32  3  1  0
 30  7  2  0
 29 14  1  0
 27 22  1  0
  1 35  1  0
  1 36  1  0
  1 37  1  0
  4 38  1  0
  5 39  1  0
  8 40  1  0
 20 41  1  0
 20 42  1  0
 20 43  1  0
 21 44  1  0
 21 45  1  0
 23 46  1  0
 24 47  1  0
 25 48  1  0
 26 49  1  0
 27 50  1  0
 28 51  1  0
 31 52  1  0
 34 53  1  0
 34 54  1  0
 34 55  1  0
M  END
$$$$
