
     RDKit          3D

 39 40  0  0  0  0  0  0  0  0999 V2000
   -0.6504   -3.7312   -0.3704 C   0  0  0  0  0  0  0  0  0  0  0  0
   -1.1369   -2.3194   -0.6993 C   0  0  0  0  0  0  0  0  0  0  0  0
   -2.5277   -2.2940   -0.3801 O   0  0  0  0  0  0  0  0  0  0  0  0
   -3.1584   -1.0872   -0.5377 C   0  0  0  0  0  0  0  0  0  0  0  0
   -3.0001   -0.3035   -1.6857 C   0  0  0  0  0  0  0  0  0  0  0  0
   -3.6710    0.9177   -1.7991 C   0  0  0  0  0  0  0  0  0  0  0  0
   -4.5142    1.3462   -0.7641 C   0  0  0  0  0  0  0  0  0  0  0  0
   -5.2147    2.6312   -0.8835 N   0  0  0  0  0  4  0  0  0  0  0  0
   -5.0903    3.2566   -1.9461 O   0  0  0  0  0  0  0  0  0  0  0  0
   -5.8898    3.0118    0.0824 O   0  0  0  0  0  1  0  0  0  0  0  0
   -4.7036    0.5576    0.3757 C   0  0  0  0  0  0  0  0  0  0  0  0
   -4.0315   -0.6619    0.4779 C   0  0  0  0  0  0  0  0  0  0  0  0
   -4.2965   -1.6212    1.8914 Cl  0  0  0  0  0  0  0  0  0  0  0  0
   -0.2329   -1.2989    0.0477 C   0  0  0  0  0  0  0  0  0  0  0  0
   -0.6277   -0.6768    1.0300 O   0  0  0  0  0  0  0  0  0  0  0  0
    1.0249   -1.1762   -0.5331 N   0  0  0  0  0  0  0  0  0  0  0  0
    2.0729   -0.3194   -0.1350 C   0  0  0  0  0  0  0  0  0  0  0  0
    1.9925    0.5712    0.9373 C   0  0  0  0  0  0  0  0  0  0  0  0
    3.0768    1.3961    1.2645 C   0  0  0  0  0  0  0  0  0  0  0  0
    4.2582    1.3350    0.5203 C   0  0  0  0  0  0  0  0  0  0  0  0
    5.4298    2.1979    0.8220 C   0  0  0  0  0  0  0  0  0  0  0  0
    5.5581    2.6604    2.1020 N   0  0  0  0  0  0  0  0  0  0  0  0
    6.2689    2.4621   -0.0301 O   0  0  0  0  0  0  0  0  0  0  0  0
    4.3402    0.4552   -0.5617 C   0  0  0  0  0  0  0  0  0  0  0  0
    3.2571   -0.3704   -0.8819 C   0  0  0  0  0  0  0  0  0  0  0  0
   -0.7455   -3.9327    0.7025 H   0  0  0  0  0  0  0  0  0  0  0  0
   -1.2614   -4.4777   -0.8898 H   0  0  0  0  0  0  0  0  0  0  0  0
    0.3960   -3.8821   -0.6521 H   0  0  0  0  0  0  0  0  0  0  0  0
   -1.0129   -2.1748   -1.7793 H   0  0  0  0  0  0  0  0  0  0  0  0
   -2.3764   -0.6302   -2.5124 H   0  0  0  0  0  0  0  0  0  0  0  0
   -3.5309    1.5170   -2.6970 H   0  0  0  0  0  0  0  0  0  0  0  0
   -5.3624    0.8781    1.1801 H   0  0  0  0  0  0  0  0  0  0  0  0
    1.2231   -1.7639   -1.3340 H   0  0  0  0  0  0  0  0  0  0  0  0
    1.0940    0.6629    1.5399 H   0  0  0  0  0  0  0  0  0  0  0  0
    2.9633    2.0983    2.0848 H   0  0  0  0  0  0  0  0  0  0  0  0
    6.4223    3.1434    2.3143 H   0  0  0  0  0  0  0  0  0  0  0  0
    5.0474    2.2608    2.8758 H   0  0  0  0  0  0  0  0  0  0  0  0
    5.2499    0.4084   -1.1579 H   0  0  0  0  0  0  0  0  0  0  0  0
    3.3596   -1.0467   -1.7260 H   0  0  0  0  0  0  0  0  0  0  0  0
  1  2  1  0
  2  3  1  0
  3  4  1  0
  4  5  2  0
  5  6  1  0
  6  7  2  0
  7  8  1  0
  8  9  2  0
  8 10  1  0
  7 11  1  0
 11 12  2  0
 12 13  1  0
  2 14  1  0
 14 15  2  0
 14 16  1  0
 16 17  1  0
 17 18  2  0
 18 19  1  0
 19 20  2  0
 20 21  1  0
 21 22  1  0
 21 23  2  0
 20 24  1  0
 24 25  2  0
 12  4  1  0
 25 17  1  0
  1 26  1  0
  1 27  1  0
  1 28  1  0
  2 29  1  0
  5 30  1  0
  6 31  1  0
 11 32  1  0
 16 33  1  0
 18 34  1  0
 19 35  1  0
 22 36  1  0
 22 37  1  0
 24 38  1  0
 25 39  1  0
M  CHG  2   8   1  10  -1
M  END
$$$$
