
     RDKit          3D

 67 72  0  0  0  0  0  0  0  0999 V2000
   -4.9034   -4.0238   -1.7525 C   0  0  0  0  0  0  0  0  0  0  0  0
   -4.0451   -3.3420   -0.7300 C   0  0  0  0  0  0  0  0  0  0  0  0
   -4.1078   -3.6885    0.6338 C   0  0  0  0  0  0  0  0  0  0  0  0
   -5.1807   -4.9261    1.1951 Cl  0  0  0  0  0  0  0  0  0  0  0  0
   -3.3023   -3.0504    1.5982 C   0  0  0  0  0  0  0  0  0  0  0  0
   -2.4140   -2.0398    1.2313 C   0  0  0  0  0  0  0  0  0  0  0  0
   -2.3545   -1.6804   -0.1050 C   0  0  0  0  0  0  0  0  0  0  0  0
   -3.1518   -2.3300   -1.0604 C   0  0  0  0  0  0  0  0  0  0  0  0
   -2.8825   -1.8091   -2.3266 N   0  0  0  0  0  0  0  0  0  0  0  0
   -1.9144   -0.8032   -2.2802 C   0  0  0  0  0  0  0  0  0  0  0  0
   -1.4780   -0.2097   -3.2557 O   0  0  0  0  0  0  0  0  0  0  0  0
   -1.5126   -0.6470   -0.7936 C   0  0  1  0  0  0  0  0  0  0  0  0
   -1.8074    0.7022   -0.2449 C   0  0  0  0  0  0  0  0  0  0  0  0
   -0.6178    1.4327   -0.0834 C   0  0  0  0  0  0  0  0  0  0  0  0
   -0.9180    2.6571    0.4497 C   0  0  0  0  0  0  0  0  0  0  0  0
   -0.1273    3.6896    0.7300 O   0  0  0  0  0  0  0  0  0  0  0  0
   -2.3213    2.7151    0.5862 N   0  0  0  0  0  0  0  0  0  0  0  0
   -3.0820    3.8552    1.0002 C   0  0  0  0  0  0  0  0  0  0  0  0
   -4.3567    4.0872    0.4599 C   0  0  0  0  0  0  0  0  0  0  0  0
   -5.1043    5.1949    0.8672 C   0  0  0  0  0  0  0  0  0  0  0  0
   -4.5854    6.0800    1.8093 C   0  0  0  0  0  0  0  0  0  0  0  0
   -3.3147    5.8648    2.3389 C   0  0  0  0  0  0  0  0  0  0  0  0
   -2.5611    4.7601    1.9333 C   0  0  0  0  0  0  0  0  0  0  0  0
   -2.8513    1.4625    0.2076 C   0  0  0  0  0  0  0  0  0  0  0  0
   -4.1280    1.1050    0.3419 O   0  0  0  0  0  0  0  0  0  0  0  0
    0.5233    0.6387   -0.5860 C   0  0  1  0  0  0  0  0  0  0  0  0
    1.8350    0.6446    0.1884 C   0  0  0  0  0  0  0  0  0  0  0  0
    2.7583   -0.3717   -0.3454 N   0  0  0  0  0  0  0  0  0  0  0  0
    4.1121   -0.1929   -0.1156 C   0  0  0  0  0  0  0  0  0  0  0  0
    4.5871    0.8444    0.3292 O   0  0  0  0  0  0  0  0  0  0  0  0
    4.8359   -1.2935   -0.4419 O   0  0  0  0  0  0  0  0  0  0  0  0
    6.2769   -1.3187   -0.2786 C   0  0  0  0  0  0  0  0  0  0  0  0
    6.6735   -1.1645    1.1938 C   0  0  0  0  0  0  0  0  0  0  0  0
    6.9591   -0.2753   -1.1701 C   0  0  0  0  0  0  0  0  0  0  0  0
    6.6959   -2.7181   -0.7549 C   0  0  0  0  0  0  0  0  0  0  0  0
    2.1897   -1.7063   -0.6205 C   0  0  0  0  0  0  0  0  0  0  0  0
    0.7735   -1.6751   -1.2535 C   0  0  0  0  0  0  0  0  0  0  0  0
   -0.0585   -0.7385   -0.5172 N   0  0  0  0  0  0  0  0  0  0  0  0
   -4.7027   -3.6740   -2.7689 H   0  0  0  0  0  0  0  0  0  0  0  0
   -4.7200   -5.1033   -1.7461 H   0  0  0  0  0  0  0  0  0  0  0  0
   -5.9618   -3.8331   -1.5468 H   0  0  0  0  0  0  0  0  0  0  0  0
   -3.3718   -3.3417    2.6440 H   0  0  0  0  0  0  0  0  0  0  0  0
   -1.7939   -1.5425    1.9710 H   0  0  0  0  0  0  0  0  0  0  0  0
   -3.3150   -2.0927   -3.1919 H   0  0  0  0  0  0  0  0  0  0  0  0
    0.7786    3.4694    0.4526 H   0  0  0  0  0  0  0  0  0  0  0  0
   -4.7671    3.4510   -0.3217 H   0  0  0  0  0  0  0  0  0  0  0  0
   -6.0854    5.3767    0.4353 H   0  0  0  0  0  0  0  0  0  0  0  0
   -5.1658    6.9441    2.1223 H   0  0  0  0  0  0  0  0  0  0  0  0
   -2.9057    6.5579    3.0699 H   0  0  0  0  0  0  0  0  0  0  0  0
   -1.5830    4.6119    2.3834 H   0  0  0  0  0  0  0  0  0  0  0  0
   -4.5395    1.6708    1.0202 H   0  0  0  0  0  0  0  0  0  0  0  0
    0.7086    0.9188   -1.6332 H   0  0  0  0  0  0  0  0  0  0  0  0
    2.3003    1.6354    0.1356 H   0  0  0  0  0  0  0  0  0  0  0  0
    1.6784    0.4194    1.2515 H   0  0  0  0  0  0  0  0  0  0  0  0
    7.7427   -1.3524    1.3404 H   0  0  0  0  0  0  0  0  0  0  0  0
    6.4644   -0.1590    1.5711 H   0  0  0  0  0  0  0  0  0  0  0  0
    6.1077   -1.8600    1.8236 H   0  0  0  0  0  0  0  0  0  0  0  0
    8.0467   -0.4064   -1.1757 H   0  0  0  0  0  0  0  0  0  0  0  0
    6.7553    0.7460   -0.8350 H   0  0  0  0  0  0  0  0  0  0  0  0
    6.5944   -0.3461   -2.2011 H   0  0  0  0  0  0  0  0  0  0  0  0
    6.3964   -2.8809   -1.7968 H   0  0  0  0  0  0  0  0  0  0  0  0
    7.7780   -2.8672   -0.6789 H   0  0  0  0  0  0  0  0  0  0  0  0
    6.1967   -3.4959   -0.1652 H   0  0  0  0  0  0  0  0  0  0  0  0
    2.1522   -2.2320    0.3422 H   0  0  0  0  0  0  0  0  0  0  0  0
    2.8613   -2.2705   -1.2763 H   0  0  0  0  0  0  0  0  0  0  0  0
    0.8567   -1.3868   -2.3083 H   0  0  0  0  0  0  0  0  0  0  0  0
    0.3536   -2.6863   -1.2169 H   0  0  0  0  0  0  0  0  0  0  0  0
  1  2  1  0
  2  3  2  0
  3  4  1  0
  3  5  1  0
  5  6  2  0
  6  7  1  0
  7  8  2  0
  8  9  1  0
  9 10  1  0
 10 11  2  0
 10 12  1  0
 12 13  1  0
 13 14  1  0
 14 15  2  0
 15 16  1  0
 15 17  1  0
 17 18  1  0
 18 19  2  0
 19 20  1  0
 20 21  2  0
 21 22  1  0
 22 23  2  0
 17 24  1  0
 24 25  1  0
 14 26  1  0
 26 27  1  0
 27 28  1  0
 28 29  1  0
 29 30  2  0
 29 31  1  0
 31 32  1  0
 32 33  1  0
 32 34  1  0
 32 35  1  0
 28 36  1  0
 36 37  1  0
 37 38  1  0
  8  2  1  0
 12 38  1  6
 12  7  1  0
 24 13  2  0
 38 26  1  0
 23 18  1  0
  1 39  1  0
  1 40  1  0
  1 41  1  0
  5 42  1  0
  6 43  1  0
  9 44  1  0
 16 45  1  0
 19 46  1  0
 20 47  1  0
 21 48  1  0
 22 49  1  0
 23 50  1  0
 25 51  1  0
 26 52  1  6
 27 53  1  0
 27 54  1  0
 33 55  1  0
 33 56  1  0
 33 57  1  0
 34 58  1  0
 34 59  1  0
 34 60  1  0
 35 61  1  0
 35 62  1  0
 35 63  1  0
 36 64  1  0
 36 65  1  0
 37 66  1  0
 37 67  1  0
M  END
$$$$
