
     RDKit          3D

 57 60  0  0  0  0  0  0  0  0999 V2000
    8.9187    1.7998    2.0302 C   0  0  0  0  0  0  0  0  0  0  0  0
    8.1316    2.4583    0.9098 C   0  0  0  0  0  0  0  0  0  0  0  0
    6.7727    2.6549    1.3068 O   0  0  0  0  0  0  0  0  0  0  0  0
    5.8415    1.7706    0.8396 C   0  0  0  0  0  0  0  0  0  0  0  0
    6.0937    0.4632    0.4339 C   0  0  0  0  0  0  0  0  0  0  0  0
    5.0470   -0.3498   -0.0216 C   0  0  0  0  0  0  0  0  0  0  0  0
    3.7406    0.1351   -0.0778 C   0  0  0  0  0  0  0  0  0  0  0  0
    2.6475   -0.6031   -0.5631 N   0  0  0  0  0  0  0  0  0  0  0  0
    2.6131   -1.9457   -0.8944 C   0  0  0  0  0  0  0  0  0  0  0  0
    3.5363   -2.7477   -0.7638 O   0  0  0  0  0  0  0  0  0  0  0  0
    1.2895   -2.3901   -1.4954 C   0  0  0  0  0  0  0  0  0  0  0  0
    0.0035   -2.5855   -0.2301 S   0  0  0  0  0  0  0  0  0  0  0  0
   -0.7404   -1.0208   -0.2778 C   0  0  0  0  0  0  0  0  0  0  0  0
   -0.0804    0.0890   -0.5241 N   0  0  0  0  0  0  0  0  0  0  0  0
   -0.9331    1.1319   -0.3427 N   0  0  0  0  0  0  0  0  0  0  0  0
   -2.1229    0.6462   -0.0290 C   0  0  0  0  0  0  0  0  0  0  0  0
   -3.3875    1.4550   -0.0041 C   0  0  0  0  0  0  0  0  0  0  0  0
   -4.2378    1.2233   -1.2286 C   0  0  0  0  0  0  0  0  0  0  0  0
   -3.8430    1.1643   -2.5612 C   0  0  0  0  0  0  0  0  0  0  0  0
   -4.9905    0.9241   -3.3508 C   0  0  0  0  0  0  0  0  0  0  0  0
   -6.0683    0.8681   -2.4934 C   0  0  0  0  0  0  0  0  0  0  0  0
   -5.6107    1.0756   -1.2116 N   0  0  0  0  0  0  0  0  0  0  0  0
   -6.4778    1.1514   -0.0536 C   0  0  0  0  0  0  0  0  0  0  0  0
   -2.0429   -0.7398    0.0798 N   0  0  0  0  0  0  0  0  0  0  0  0
   -3.0851   -1.6376    0.4252 C   0  0  0  0  0  0  0  0  0  0  0  0
   -3.3269   -2.7746   -0.3562 C   0  0  0  0  0  0  0  0  0  0  0  0
   -4.3764   -3.6338   -0.0263 C   0  0  0  0  0  0  0  0  0  0  0  0
   -5.1659   -3.3618    1.0815 C   0  0  0  0  0  0  0  0  0  0  0  0
   -6.1774   -4.1836    1.3886 F   0  0  0  0  0  0  0  0  0  0  0  0
   -4.9243   -2.2475    1.8734 C   0  0  0  0  0  0  0  0  0  0  0  0
   -3.8819   -1.3783    1.5467 C   0  0  0  0  0  0  0  0  0  0  0  0
    3.4852    1.4444    0.3498 C   0  0  0  0  0  0  0  0  0  0  0  0
    4.5288    2.2491    0.8170 C   0  0  0  0  0  0  0  0  0  0  0  0
    8.5320    0.7977    2.2564 H   0  0  0  0  0  0  0  0  0  0  0  0
    8.8436    2.3846    2.9515 H   0  0  0  0  0  0  0  0  0  0  0  0
    9.9758    1.7113    1.7551 H   0  0  0  0  0  0  0  0  0  0  0  0
    8.2258    1.9111   -0.0365 H   0  0  0  0  0  0  0  0  0  0  0  0
    8.5515    3.4533    0.7264 H   0  0  0  0  0  0  0  0  0  0  0  0
    7.0917    0.0345    0.4671 H   0  0  0  0  0  0  0  0  0  0  0  0
    5.2954   -1.3560   -0.3391 H   0  0  0  0  0  0  0  0  0  0  0  0
    1.7597   -0.1025   -0.6026 H   0  0  0  0  0  0  0  0  0  0  0  0
    1.4451   -3.3632   -1.9704 H   0  0  0  0  0  0  0  0  0  0  0  0
    0.9724   -1.7127   -2.2974 H   0  0  0  0  0  0  0  0  0  0  0  0
   -3.9432    1.2762    0.9176 H   0  0  0  0  0  0  0  0  0  0  0  0
   -3.1170    2.5190    0.0185 H   0  0  0  0  0  0  0  0  0  0  0  0
   -2.8237    1.2816   -2.9183 H   0  0  0  0  0  0  0  0  0  0  0  0
   -5.0230    0.8195   -4.4266 H   0  0  0  0  0  0  0  0  0  0  0  0
   -7.1209    0.7162   -2.6965 H   0  0  0  0  0  0  0  0  0  0  0  0
   -6.4625    2.1816    0.3147 H   0  0  0  0  0  0  0  0  0  0  0  0
   -7.4939    0.8716   -0.3367 H   0  0  0  0  0  0  0  0  0  0  0  0
   -6.1146    0.4642    0.7097 H   0  0  0  0  0  0  0  0  0  0  0  0
   -2.7488   -2.9867   -1.2493 H   0  0  0  0  0  0  0  0  0  0  0  0
   -4.5888   -4.5071   -0.6330 H   0  0  0  0  0  0  0  0  0  0  0  0
   -5.5423   -2.0705    2.7448 H   0  0  0  0  0  0  0  0  0  0  0  0
   -3.6823   -0.5373    2.2043 H   0  0  0  0  0  0  0  0  0  0  0  0
    2.4753    1.8501    0.3399 H   0  0  0  0  0  0  0  0  0  0  0  0
    4.3162    3.2588    1.1521 H   0  0  0  0  0  0  0  0  0  0  0  0
  1  2  1  0
  2  3  1  0
  3  4  1  0
  4  5  2  0
  5  6  1  0
  6  7  2  0
  7  8  1  0
  8  9  1  0
  9 10  2  0
  9 11  1  0
 11 12  1  0
 12 13  1  0
 13 14  2  0
 14 15  1  0
 15 16  2  0
 16 17  1  0
 17 18  1  0
 18 19  2  0
 19 20  1  0
 20 21  2  0
 21 22  1  0
 22 23  1  0
 16 24  1  0
 24 25  1  0
 25 26  2  0
 26 27  1  0
 27 28  2  0
 28 29  1  0
 28 30  1  0
 30 31  2  0
  7 32  1  0
 32 33  2  0
 33  4  1  0
 24 13  1  0
 31 25  1  0
 22 18  1  0
  1 34  1  0
  1 35  1  0
  1 36  1  0
  2 37  1  0
  2 38  1  0
  5 39  1  0
  6 40  1  0
  8 41  1  0
 11 42  1  0
 11 43  1  0
 17 44  1  0
 17 45  1  0
 19 46  1  0
 20 47  1  0
 21 48  1  0
 23 49  1  0
 23 50  1  0
 23 51  1  0
 26 52  1  0
 27 53  1  0
 30 54  1  0
 31 55  1  0
 32 56  1  0
 33 57  1  0
M  END
$$$$
