
     RDKit          3D

 60 65  0  0  0  0  0  0  0  0999 V2000
    1.5917   -2.2067    3.1012 O   0  0  0  0  0  0  0  0  0  0  0  0
    2.0405   -1.4530    2.2464 C   0  0  0  0  0  0  0  0  0  0  0  0
    1.2613   -0.9389    1.2166 N   0  0  0  0  0  0  0  0  0  0  0  0
    1.7324   -0.0922    0.2208 C   0  0  0  0  0  0  0  0  0  0  0  0
    0.7237    0.3674   -0.8301 C   0  0  0  0  0  0  0  0  0  0  0  0
   -0.0047   -0.8150   -1.4888 C   0  0  0  0  0  0  0  0  0  0  0  0
   -1.4583   -0.9497   -1.0383 C   0  0  0  0  0  0  0  0  0  0  0  0
   -1.5364   -0.6262    0.4029 N   0  0  0  0  0  0  0  0  0  0  0  0
   -2.8078   -1.3656    1.2848 S   0  0  0  0  0  6  0  0  0  0  0  0
   -2.7926   -2.7752    0.9603 O   0  0  0  0  0  0  0  0  0  0  0  0
   -2.7026   -0.9054    2.6517 O   0  0  0  0  0  0  0  0  0  0  0  0
   -4.2796   -0.6622    0.5778 C   0  0  0  0  0  0  0  0  0  0  0  0
   -4.8979   -1.2971   -0.5062 C   0  0  0  0  0  0  0  0  0  0  0  0
   -6.0639   -0.7547   -1.0487 C   0  0  0  0  0  0  0  0  0  0  0  0
   -6.6112    0.4050   -0.5009 C   0  0  0  0  0  0  0  0  0  0  0  0
   -6.0162    1.0050    0.6150 C   0  0  0  0  0  0  0  0  0  0  0  0
   -4.8468    0.4770    1.1562 C   0  0  0  0  0  0  0  0  0  0  0  0
   -6.5255    2.1218    1.2258 O   0  0  0  0  0  0  0  0  0  0  0  0
   -7.8861    2.3504    0.8391 C   0  0  0  0  0  0  0  0  0  0  0  0
   -8.0403    2.2244   -0.6674 C   0  0  0  0  0  0  0  0  0  0  0  0
   -7.7445    0.8910   -1.0999 O   0  0  0  0  0  0  0  0  0  0  0  0
   -1.2931    0.8116    0.6985 C   0  0  0  0  0  0  0  0  0  0  0  0
   -0.2470    1.4009   -0.2510 C   0  0  0  0  0  0  0  0  0  0  0  0
    2.9635    0.3372    0.1478 N   0  0  0  0  0  0  0  0  0  0  0  0
    3.7484   -0.1506    1.1402 C   0  0  0  0  0  0  0  0  0  0  0  0
    3.4009   -0.9932    2.1685 C   0  0  0  0  0  0  0  0  0  0  0  0
    4.4748   -1.2445    2.9664 N   0  0  0  0  0  0  0  0  0  0  0  0
    5.5105   -0.5752    2.4597 N   0  0  0  0  0  0  0  0  0  0  0  0
    5.0798    0.0695    1.3470 N   0  0  0  0  0  0  0  0  0  0  0  0
    5.9799    0.8995    0.5754 C   0  0  0  0  0  0  0  0  0  0  0  0
    6.5594    0.1441   -0.5962 C   0  0  0  0  0  0  0  0  0  0  0  0
    5.9975    0.2762   -1.8768 C   0  0  0  0  0  0  0  0  0  0  0  0
    6.5268   -0.4333   -2.9557 C   0  0  0  0  0  0  0  0  0  0  0  0
    7.6113   -1.2786   -2.7555 C   0  0  0  0  0  0  0  0  0  0  0  0
    8.1163   -1.9594   -3.7926 F   0  0  0  0  0  0  0  0  0  0  0  0
    8.1764   -1.4311   -1.4954 C   0  0  0  0  0  0  0  0  0  0  0  0
    7.6505   -0.7224   -0.4144 C   0  0  0  0  0  0  0  0  0  0  0  0
    0.2900   -1.2345    1.2232 H   0  0  0  0  0  0  0  0  0  0  0  0
    1.3137    0.8658   -1.6122 H   0  0  0  0  0  0  0  0  0  0  0  0
    0.0030   -0.6894   -2.5789 H   0  0  0  0  0  0  0  0  0  0  0  0
    0.5292   -1.7536   -1.2939 H   0  0  0  0  0  0  0  0  0  0  0  0
   -2.1003   -0.2676   -1.6080 H   0  0  0  0  0  0  0  0  0  0  0  0
   -1.7933   -1.9706   -1.2448 H   0  0  0  0  0  0  0  0  0  0  0  0
   -4.4860   -2.2119   -0.9272 H   0  0  0  0  0  0  0  0  0  0  0  0
   -6.5475   -1.2345   -1.8960 H   0  0  0  0  0  0  0  0  0  0  0  0
   -4.3986    0.9456    2.0291 H   0  0  0  0  0  0  0  0  0  0  0  0
   -8.5255    1.6348    1.3707 H   0  0  0  0  0  0  0  0  0  0  0  0
   -8.1585    3.3593    1.1648 H   0  0  0  0  0  0  0  0  0  0  0  0
   -9.0701    2.4476   -0.9625 H   0  0  0  0  0  0  0  0  0  0  0  0
   -7.3747    2.9163   -1.1977 H   0  0  0  0  0  0  0  0  0  0  0  0
   -2.2132    1.3963    0.6177 H   0  0  0  0  0  0  0  0  0  0  0  0
   -0.9274    0.8965    1.7279 H   0  0  0  0  0  0  0  0  0  0  0  0
   -0.7728    1.8796   -1.0885 H   0  0  0  0  0  0  0  0  0  0  0  0
    0.2962    2.2039    0.2622 H   0  0  0  0  0  0  0  0  0  0  0  0
    6.7770    1.2550    1.2389 H   0  0  0  0  0  0  0  0  0  0  0  0
    5.4240    1.7836    0.2425 H   0  0  0  0  0  0  0  0  0  0  0  0
    5.1389    0.9255   -2.0388 H   0  0  0  0  0  0  0  0  0  0  0  0
    6.0983   -0.3368   -3.9481 H   0  0  0  0  0  0  0  0  0  0  0  0
    9.0171   -2.1042   -1.3608 H   0  0  0  0  0  0  0  0  0  0  0  0
    8.0893   -0.8575    0.5734 H   0  0  0  0  0  0  0  0  0  0  0  0
  1  2  2  0
  2  3  1  0
  3  4  1  0
  4  5  1  0
  5  6  1  0
  6  7  1  0
  7  8  1  0
  8  9  1  0
  9 10  2  0
  9 11  2  0
  9 12  1  0
 12 13  2  0
 13 14  1  0
 14 15  2  0
 15 16  1  0
 16 17  2  0
 16 18  1  0
 18 19  1  0
 19 20  1  0
 20 21  1  0
  8 22  1  0
 22 23  1  0
  4 24  2  0
 24 25  1  0
 25 26  2  0
 26 27  1  0
 27 28  2  0
 28 29  1  0
 29 30  1  0
 30 31  1  0
 31 32  2  0
 32 33  1  0
 33 34  2  0
 34 35  1  0
 34 36  1  0
 36 37  2  0
 26  2  1  0
 37 31  1  0
 23  5  1  0
 29 25  1  0
 17 12  1  0
 21 15  1  0
  3 38  1  0
  5 39  1  0
  6 40  1  0
  6 41  1  0
  7 42  1  0
  7 43  1  0
 13 44  1  0
 14 45  1  0
 17 46  1  0
 19 47  1  0
 19 48  1  0
 20 49  1  0
 20 50  1  0
 22 51  1  0
 22 52  1  0
 23 53  1  0
 23 54  1  0
 30 55  1  0
 30 56  1  0
 32 57  1  0
 33 58  1  0
 36 59  1  0
 37 60  1  0
M  END
$$$$
