
     RDKit          3D

 33 35  0  0  0  0  0  0  0  0999 V2000
    5.0529    2.0905   -0.2557 C   0  0  0  0  0  0  0  0  0  0  0  0
    4.3376    0.8685    0.0308 N   0  0  0  0  0  0  0  0  0  0  0  0
    4.8797   -0.3408    0.3412 C   0  0  0  0  0  0  0  0  0  0  0  0
    3.8077   -1.1910    0.5180 C   0  0  0  0  0  0  0  0  0  0  0  0
    3.8915   -2.5815    0.8112 N   0  0  0  0  0  4  0  0  0  0  0  0
    4.5975   -2.8990    1.7762 O   0  0  0  0  0  0  0  0  0  0  0  0
    3.3197   -3.3481    0.0293 O   0  0  0  0  0  1  0  0  0  0  0  0
    2.6516   -0.4030    0.3312 C   0  0  0  0  0  0  0  0  0  0  0  0
    1.2444   -0.8021    0.4851 C   0  0  0  0  0  0  0  0  0  0  0  0
    0.9302   -1.8800    0.9644 O   0  0  0  0  0  0  0  0  0  0  0  0
    0.3874    0.1845    0.0603 N   0  0  0  0  0  0  0  0  0  0  0  0
   -0.9866    0.1493    0.0688 C   0  0  0  0  0  0  0  0  0  0  0  0
   -1.6222    1.6310   -0.5653 S   0  0  0  0  0  0  0  0  0  0  0  0
   -3.1817    1.0873   -0.3477 C   0  0  0  0  0  0  0  0  0  0  0  0
   -3.2600   -0.1669    0.1866 C   0  0  0  0  0  0  0  0  0  0  0  0
   -1.9848   -0.7400    0.4432 C   0  0  0  0  0  0  0  0  0  0  0  0
   -1.8451   -2.0476    1.0120 C   0  0  0  0  0  0  0  0  0  0  0  0
   -1.8647   -3.1103    1.4800 N   0  0  0  0  0  0  0  0  0  0  0  0
   -4.6767   -0.5845    0.3584 C   0  0  0  0  0  0  0  0  0  0  0  0
   -5.4418    0.4825   -0.4864 C   0  0  0  0  0  0  0  0  0  0  0  0
   -4.4950    1.7142   -0.6227 C   0  0  0  0  0  0  0  0  0  0  0  0
    2.9891    0.8662   -0.0028 N   0  0  0  0  0  0  0  0  0  0  0  0
    4.7502    2.8447    0.4749 H   0  0  0  0  0  0  0  0  0  0  0  0
    4.7957    2.4094   -1.2688 H   0  0  0  0  0  0  0  0  0  0  0  0
    6.1278    1.9082   -0.1820 H   0  0  0  0  0  0  0  0  0  0  0  0
    5.9475   -0.5053    0.3981 H   0  0  0  0  0  0  0  0  0  0  0  0
    0.8303    1.0344   -0.2817 H   0  0  0  0  0  0  0  0  0  0  0  0
   -4.8705   -1.5946   -0.0128 H   0  0  0  0  0  0  0  0  0  0  0  0
   -4.9691   -0.5202    1.4118 H   0  0  0  0  0  0  0  0  0  0  0  0
   -6.4080    0.7468   -0.0457 H   0  0  0  0  0  0  0  0  0  0  0  0
   -5.6373    0.0712   -1.4857 H   0  0  0  0  0  0  0  0  0  0  0  0
   -4.7333    2.4675    0.1351 H   0  0  0  0  0  0  0  0  0  0  0  0
   -4.5640    2.1589   -1.6191 H   0  0  0  0  0  0  0  0  0  0  0  0
  1  2  1  0
  2  3  1  0
  3  4  2  0
  4  5  1  0
  5  6  2  0
  5  7  1  0
  4  8  1  0
  8  9  1  0
  9 10  2  0
  9 11  1  0
 11 12  1  0
 12 13  1  0
 13 14  1  0
 14 15  2  0
 15 16  1  0
 16 17  1  0
 17 18  3  0
 15 19  1  0
 19 20  1  0
 20 21  1  0
  8 22  2  0
 22  2  1  0
 16 12  2  0
 21 14  1  0
  1 23  1  0
  1 24  1  0
  1 25  1  0
  3 26  1  0
 11 27  1  0
 19 28  1  0
 19 29  1  0
 20 30  1  0
 20 31  1  0
 21 32  1  0
 21 33  1  0
M  CHG  2   5   1   7  -1
M  END
$$$$
