
     RDKit          3D

 54 57  0  0  0  0  0  0  0  0999 V2000
   -2.7806   -4.5727   -2.0125 C   0  0  0  0  0  0  0  0  0  0  0  0
   -3.3352   -3.3165   -2.3841 O   0  0  0  0  0  0  0  0  0  0  0  0
   -2.9834   -2.2341   -1.6261 C   0  0  0  0  0  0  0  0  0  0  0  0
   -2.1471   -2.2528   -0.5071 C   0  0  0  0  0  0  0  0  0  0  0  0
   -1.8665   -1.0672    0.1796 C   0  0  0  0  0  0  0  0  0  0  0  0
   -2.4159    0.1366   -0.2665 C   0  0  0  0  0  0  0  0  0  0  0  0
   -2.1195    1.3961    0.4474 C   0  0  0  0  0  0  0  0  0  0  0  0
   -3.0170    1.8407    1.2683 N   0  0  0  0  0  0  0  0  0  0  0  0
   -2.7671    3.0300    1.9595 C   0  0  0  0  0  0  0  0  0  0  0  0
   -3.7418    3.5201    2.8321 C   0  0  0  0  0  0  0  0  0  0  0  0
   -3.5294    4.7026    3.5464 C   0  0  0  0  0  0  0  0  0  0  0  0
   -2.3349    5.4061    3.3936 C   0  0  0  0  0  0  0  0  0  0  0  0
   -1.3542    4.9264    2.5262 C   0  0  0  0  0  0  0  0  0  0  0  0
   -1.5798    3.7412    1.8151 C   0  0  0  0  0  0  0  0  0  0  0  0
   -0.5692    3.2046    0.8895 C   0  0  0  0  0  0  0  0  0  0  0  0
    0.5112    3.7780    0.7715 O   0  0  0  0  0  0  0  0  0  0  0  0
   -0.9089    2.0397    0.2023 N   0  0  0  0  0  0  0  0  0  0  0  0
    0.0908    1.5381   -0.7491 C   0  0  0  0  0  0  0  0  0  0  0  0
    1.2438    0.8055   -0.0559 C   0  0  0  0  0  0  0  0  0  0  0  0
    1.9530    0.0586   -1.0462 O   0  0  0  0  0  0  0  0  0  0  0  0
    2.8999   -0.8276   -0.6016 C   0  0  0  0  0  0  0  0  0  0  0  0
    3.4296   -0.8415    0.6946 C   0  0  0  0  0  0  0  0  0  0  0  0
    4.3975   -1.7877    1.0644 C   0  0  0  0  0  0  0  0  0  0  0  0
    4.9825   -1.7698    2.4467 C   0  0  0  0  0  0  0  0  0  0  0  0
    4.8544   -2.7047    0.1126 C   0  0  0  0  0  0  0  0  0  0  0  0
    4.3395   -2.6904   -1.1843 C   0  0  0  0  0  0  0  0  0  0  0  0
    3.3605   -1.7564   -1.5521 C   0  0  0  0  0  0  0  0  0  0  0  0
    2.8182   -1.7568   -2.9544 C   0  0  0  0  0  0  0  0  0  0  0  0
   -3.2710    0.1647   -1.3679 C   0  0  0  0  0  0  0  0  0  0  0  0
   -3.5454   -1.0231   -2.0474 C   0  0  0  0  0  0  0  0  0  0  0  0
   -3.1010   -4.8675   -1.0078 H   0  0  0  0  0  0  0  0  0  0  0  0
   -1.6881   -4.5608   -2.0896 H   0  0  0  0  0  0  0  0  0  0  0  0
   -3.1562   -5.3235   -2.7138 H   0  0  0  0  0  0  0  0  0  0  0  0
   -1.7060   -3.1732   -0.1371 H   0  0  0  0  0  0  0  0  0  0  0  0
   -1.2321   -1.0920    1.0611 H   0  0  0  0  0  0  0  0  0  0  0  0
   -4.6731    2.9722    2.9541 H   0  0  0  0  0  0  0  0  0  0  0  0
   -4.2977    5.0718    4.2216 H   0  0  0  0  0  0  0  0  0  0  0  0
   -2.1685    6.3262    3.9486 H   0  0  0  0  0  0  0  0  0  0  0  0
   -0.4215    5.4719    2.4037 H   0  0  0  0  0  0  0  0  0  0  0  0
   -0.3733    0.8898   -1.4989 H   0  0  0  0  0  0  0  0  0  0  0  0
    0.4985    2.3853   -1.3161 H   0  0  0  0  0  0  0  0  0  0  0  0
    0.8451    0.1299    0.7098 H   0  0  0  0  0  0  0  0  0  0  0  0
    1.9140    1.5324    0.4172 H   0  0  0  0  0  0  0  0  0  0  0  0
    3.1149   -0.1143    1.4372 H   0  0  0  0  0  0  0  0  0  0  0  0
    5.3713   -2.7567    2.7213 H   0  0  0  0  0  0  0  0  0  0  0  0
    5.7998   -1.0431    2.4964 H   0  0  0  0  0  0  0  0  0  0  0  0
    4.2208   -1.5029    3.1875 H   0  0  0  0  0  0  0  0  0  0  0  0
    5.6207   -3.4327    0.3710 H   0  0  0  0  0  0  0  0  0  0  0  0
    4.7124   -3.4114   -1.9094 H   0  0  0  0  0  0  0  0  0  0  0  0
    1.7365   -1.9310   -2.9422 H   0  0  0  0  0  0  0  0  0  0  0  0
    3.2741   -2.5464   -3.5626 H   0  0  0  0  0  0  0  0  0  0  0  0
    3.0280   -0.7987   -3.4421 H   0  0  0  0  0  0  0  0  0  0  0  0
   -3.7251    1.0969   -1.6921 H   0  0  0  0  0  0  0  0  0  0  0  0
   -4.2075   -1.0103   -2.9106 H   0  0  0  0  0  0  0  0  0  0  0  0
  1  2  1  0
  2  3  1  0
  3  4  2  0
  4  5  1  0
  5  6  2  0
  6  7  1  0
  7  8  2  0
  8  9  1  0
  9 10  2  0
 10 11  1  0
 11 12  2  0
 12 13  1  0
 13 14  2  0
 14 15  1  0
 15 16  2  0
 15 17  1  0
 17 18  1  0
 18 19  1  0
 19 20  1  0
 20 21  1  0
 21 22  2  0
 22 23  1  0
 23 24  1  0
 23 25  2  0
 25 26  1  0
 26 27  2  0
 27 28  1  0
  6 29  1  0
 29 30  2  0
 30  3  1  0
 17  7  1  0
 27 21  1  0
 14  9  1  0
  1 31  1  0
  1 32  1  0
  1 33  1  0
  4 34  1  0
  5 35  1  0
 10 36  1  0
 11 37  1  0
 12 38  1  0
 13 39  1  0
 18 40  1  0
 18 41  1  0
 19 42  1  0
 19 43  1  0
 22 44  1  0
 24 45  1  0
 24 46  1  0
 24 47  1  0
 25 48  1  0
 26 49  1  0
 28 50  1  0
 28 51  1  0
 28 52  1  0
 29 53  1  0
 30 54  1  0
M  END
$$$$
