
     RDKit          3D

 48 51  0  0  0  0  0  0  0  0999 V2000
   -0.1420    1.8735    0.8263 C   0  0  0  0  0  0  0  0  0  0  0  0
    1.0614    1.0844    0.4176 C   0  0  0  0  0  0  0  0  0  0  0  0
    1.0750   -0.1102   -0.2004 C   0  0  0  0  0  0  0  0  0  0  0  0
    0.0047   -0.8922   -0.5351 N   0  0  0  0  0  0  0  0  0  0  0  0
   -0.0228   -1.8122   -1.5647 C   0  0  0  0  0  0  0  0  0  0  0  0
    0.8193   -1.9006   -2.4542 O   0  0  0  0  0  0  0  0  0  0  0  0
   -1.2547   -2.6992   -1.5515 C   0  0  0  0  0  0  0  0  0  0  0  0
   -2.6954   -1.7954   -2.2146 S   0  0  0  0  0  0  0  0  0  0  0  0
   -3.4995   -1.2407   -0.7060 C   0  0  0  0  0  0  0  0  0  0  0  0
   -2.6806   -1.0542    0.3543 N   0  0  0  0  0  0  0  0  0  0  0  0
   -3.2774   -0.6566    1.4843 C   0  0  0  0  0  0  0  0  0  0  0  0
   -4.5759   -0.3892    1.6393 N   0  0  0  0  0  0  0  0  0  0  0  0
   -5.3646   -0.5523    0.5716 C   0  0  0  0  0  0  0  0  0  0  0  0
   -6.7204   -0.2759    0.7055 C   0  0  0  0  0  0  0  0  0  0  0  0
   -7.6148   -0.4191   -0.3569 C   0  0  0  0  0  0  0  0  0  0  0  0
   -7.1519   -0.8543   -1.5896 C   0  0  0  0  0  0  0  0  0  0  0  0
   -5.7971   -1.1386   -1.7497 C   0  0  0  0  0  0  0  0  0  0  0  0
   -4.8834   -0.9898   -0.6696 C   0  0  0  0  0  0  0  0  0  0  0  0
    2.5249   -0.4828   -0.3463 C   0  0  0  0  0  0  0  0  0  0  0  0
    2.9308   -1.5837   -0.6867 O   0  0  0  0  0  0  0  0  0  0  0  0
    3.2541    0.6138    0.1531 N   0  0  0  0  0  0  0  0  0  0  0  0
    4.5807    0.5407    0.6586 C   0  0  0  0  0  0  0  0  0  0  0  0
    5.0050    1.3612    1.7169 C   0  0  0  0  0  0  0  0  0  0  0  0
    6.3131    1.2901    2.2079 C   0  0  0  0  0  0  0  0  0  0  0  0
    7.2205    0.3990    1.6444 C   0  0  0  0  0  0  0  0  0  0  0  0
    6.8177   -0.4256    0.5971 C   0  0  0  0  0  0  0  0  0  0  0  0
    5.5082   -0.3561    0.1096 C   0  0  0  0  0  0  0  0  0  0  0  0
    2.3466    1.6171    0.6118 N   0  0  0  0  0  0  0  0  0  0  0  0
    2.6359    2.9494    0.0499 C   0  0  0  0  0  0  0  0  0  0  0  0
   -1.0792    1.3601    0.6007 H   0  0  0  0  0  0  0  0  0  0  0  0
   -0.1164    2.0628    1.9041 H   0  0  0  0  0  0  0  0  0  0  0  0
   -0.1716    2.8365    0.3065 H   0  0  0  0  0  0  0  0  0  0  0  0
   -0.9034   -0.6680   -0.1340 H   0  0  0  0  0  0  0  0  0  0  0  0
   -1.4324   -3.1018   -0.5496 H   0  0  0  0  0  0  0  0  0  0  0  0
   -1.0590   -3.5568   -2.2047 H   0  0  0  0  0  0  0  0  0  0  0  0
   -2.6485   -0.5379    2.3613 H   0  0  0  0  0  0  0  0  0  0  0  0
   -7.0949    0.0615    1.6709 H   0  0  0  0  0  0  0  0  0  0  0  0
   -8.6694   -0.1942   -0.2149 H   0  0  0  0  0  0  0  0  0  0  0  0
   -7.8393   -0.9745   -2.4231 H   0  0  0  0  0  0  0  0  0  0  0  0
   -5.4551   -1.4799   -2.7242 H   0  0  0  0  0  0  0  0  0  0  0  0
    4.3127    2.0428    2.2005 H   0  0  0  0  0  0  0  0  0  0  0  0
    6.6177    1.9246    3.0355 H   0  0  0  0  0  0  0  0  0  0  0  0
    8.2369    0.3400    2.0256 H   0  0  0  0  0  0  0  0  0  0  0  0
    7.5194   -1.1284    0.1545 H   0  0  0  0  0  0  0  0  0  0  0  0
    5.2343   -1.0048   -0.7204 H   0  0  0  0  0  0  0  0  0  0  0  0
    2.0211    3.7090    0.5406 H   0  0  0  0  0  0  0  0  0  0  0  0
    2.4297    2.9689   -1.0272 H   0  0  0  0  0  0  0  0  0  0  0  0
    3.6802    3.2394    0.1998 H   0  0  0  0  0  0  0  0  0  0  0  0
  1  2  1  0
  2  3  2  0
  3  4  1  0
  4  5  1  0
  5  6  2  0
  5  7  1  0
  7  8  1  0
  8  9  1  0
  9 10  2  0
 10 11  1  0
 11 12  2  0
 12 13  1  0
 13 14  2  0
 14 15  1  0
 15 16  2  0
 16 17  1  0
 17 18  2  0
  3 19  1  0
 19 20  2  0
 19 21  1  0
 21 22  1  0
 22 23  2  0
 23 24  1  0
 24 25  2  0
 25 26  1  0
 26 27  2  0
 21 28  1  0
 28 29  1  0
 28  2  1  0
 18  9  1  0
 27 22  1  0
 18 13  1  0
  1 30  1  0
  1 31  1  0
  1 32  1  0
  4 33  1  0
  7 34  1  0
  7 35  1  0
 11 36  1  0
 14 37  1  0
 15 38  1  0
 16 39  1  0
 17 40  1  0
 23 41  1  0
 24 42  1  0
 25 43  1  0
 26 44  1  0
 27 45  1  0
 29 46  1  0
 29 47  1  0
 29 48  1  0
M  END
$$$$
