
     RDKit          3D

 73 75  0  0  0  0  0  0  0  0999 V2000
   -2.1708   -0.9368    2.4064 C   0  0  0  0  0  0  0  0  0  0  0  0
   -2.6565   -0.1399    1.2009 C   0  0  0  0  0  0  0  0  0  0  0  0
   -2.1916   -0.6641   -0.1692 C   0  0  0  0  0  0  0  0  0  0  0  0
   -0.3778   -0.8097   -0.3568 S   0  0  0  0  0  0  0  0  0  0  0  0
    0.1109    0.8654   -0.2224 C   0  0  0  0  0  0  0  0  0  0  0  0
   -0.6688    1.7583   -0.7377 N   0  0  0  0  0  0  0  0  0  0  0  0
   -0.2930    3.1018   -0.6616 C   0  0  0  0  0  0  0  0  0  0  0  0
   -1.1512    4.0712   -1.1865 C   0  0  0  0  0  0  0  0  0  0  0  0
   -0.8136    5.4295   -1.1360 C   0  0  0  0  0  0  0  0  0  0  0  0
   -1.5990    6.4419   -1.6287 O   0  0  0  0  0  0  0  0  0  0  0  0
   -2.8248    6.0840   -2.2496 C   0  0  0  0  0  0  0  0  0  0  0  0
    0.4075    5.8241   -0.5506 C   0  0  0  0  0  0  0  0  0  0  0  0
    0.6622    7.1727   -0.5359 O   0  0  0  0  0  0  0  0  0  0  0  0
    1.9235    7.6016   -0.0381 C   0  0  0  0  0  0  0  0  0  0  0  0
    1.2656    4.8543   -0.0273 C   0  0  0  0  0  0  0  0  0  0  0  0
    0.9062    3.5030   -0.0891 C   0  0  0  0  0  0  0  0  0  0  0  0
    1.7895    2.4564    0.4519 C   0  0  0  0  0  0  0  0  0  0  0  0
    2.8870    2.7758    0.9023 O   0  0  0  0  0  0  0  0  0  0  0  0
    1.3144    1.1481    0.4051 N   0  0  0  0  0  0  0  0  0  0  0  0
    2.1993    0.1214    0.9744 C   0  0  0  0  0  0  0  0  0  0  0  0
    3.1798   -0.4296   -0.0682 C   0  0  0  0  0  0  0  0  0  0  0  0
    3.9695   -1.5923    0.4780 C   0  0  0  0  0  0  0  0  0  0  0  0
    5.2622   -1.4065    0.9724 C   0  0  0  0  0  0  0  0  0  0  0  0
    5.9812   -2.4849    1.4957 C   0  0  0  0  0  0  0  0  0  0  0  0
    5.4133   -3.7629    1.5419 C   0  0  0  0  0  0  0  0  0  0  0  0
    6.0433   -4.8748    2.0460 O   0  0  0  0  0  0  0  0  0  0  0  0
    7.3849   -4.7276    2.4866 C   0  0  0  0  0  0  0  0  0  0  0  0
    4.1037   -3.9565    1.0595 C   0  0  0  0  0  0  0  0  0  0  0  0
    3.6078   -5.2347    1.1449 O   0  0  0  0  0  0  0  0  0  0  0  0
    2.2322   -5.4252    0.8432 C   0  0  0  0  0  0  0  0  0  0  0  0
    3.3969   -2.8725    0.5241 C   0  0  0  0  0  0  0  0  0  0  0  0
   -2.8545   -2.0192   -0.4671 C   0  0  0  0  0  0  0  0  0  0  0  0
   -2.3277   -3.1090   -0.2510 O   0  0  0  0  0  0  0  0  0  0  0  0
   -4.1450   -1.9107   -0.9554 N   0  0  0  0  0  0  0  0  0  0  0  0
   -4.8514   -3.0811   -1.4496 C   0  0  0  0  0  0  0  0  0  0  0  0
   -6.3416   -2.7960   -1.6223 C   0  0  0  0  0  0  0  0  0  0  0  0
   -6.4981   -1.6827   -2.5092 O   0  0  0  0  0  0  0  0  0  0  0  0
   -7.8720   -1.4143   -2.7691 C   0  0  0  0  0  0  0  0  0  0  0  0
   -2.4757   -1.9854    2.3429 H   0  0  0  0  0  0  0  0  0  0  0  0
   -2.6020   -0.5206    3.3224 H   0  0  0  0  0  0  0  0  0  0  0  0
   -1.0834   -0.8948    2.5096 H   0  0  0  0  0  0  0  0  0  0  0  0
   -3.7533   -0.1285    1.2264 H   0  0  0  0  0  0  0  0  0  0  0  0
   -2.3446    0.9037    1.3262 H   0  0  0  0  0  0  0  0  0  0  0  0
   -2.5391    0.0284   -0.9457 H   0  0  0  0  0  0  0  0  0  0  0  0
   -2.0794    3.7310   -1.6329 H   0  0  0  0  0  0  0  0  0  0  0  0
   -3.4987    5.5957   -1.5385 H   0  0  0  0  0  0  0  0  0  0  0  0
   -2.6539    5.4528   -3.1272 H   0  0  0  0  0  0  0  0  0  0  0  0
   -3.3072    7.0050   -2.5913 H   0  0  0  0  0  0  0  0  0  0  0  0
    1.9702    8.6910   -0.1374 H   0  0  0  0  0  0  0  0  0  0  0  0
    2.0311    7.3629    1.0258 H   0  0  0  0  0  0  0  0  0  0  0  0
    2.7439    7.1751   -0.6255 H   0  0  0  0  0  0  0  0  0  0  0  0
    2.2115    5.1176    0.4349 H   0  0  0  0  0  0  0  0  0  0  0  0
    2.7641    0.5550    1.8102 H   0  0  0  0  0  0  0  0  0  0  0  0
    1.6007   -0.6794    1.4207 H   0  0  0  0  0  0  0  0  0  0  0  0
    2.6526   -0.7542   -0.9735 H   0  0  0  0  0  0  0  0  0  0  0  0
    3.8596    0.3650   -0.3998 H   0  0  0  0  0  0  0  0  0  0  0  0
    5.7218   -0.4205    0.9545 H   0  0  0  0  0  0  0  0  0  0  0  0
    6.9825   -2.2908    1.8651 H   0  0  0  0  0  0  0  0  0  0  0  0
    7.7357   -5.7069    2.8261 H   0  0  0  0  0  0  0  0  0  0  0  0
    8.0363   -4.4046    1.6677 H   0  0  0  0  0  0  0  0  0  0  0  0
    7.4486   -4.0426    3.3385 H   0  0  0  0  0  0  0  0  0  0  0  0
    2.0346   -5.2520   -0.2195 H   0  0  0  0  0  0  0  0  0  0  0  0
    1.5955   -4.7961    1.4746 H   0  0  0  0  0  0  0  0  0  0  0  0
    1.9859   -6.4700    1.0554 H   0  0  0  0  0  0  0  0  0  0  0  0
    2.3919   -2.9998    0.1321 H   0  0  0  0  0  0  0  0  0  0  0  0
   -4.4281   -1.0347   -1.3820 H   0  0  0  0  0  0  0  0  0  0  0  0
   -4.6978   -3.9203   -0.7629 H   0  0  0  0  0  0  0  0  0  0  0  0
   -4.3965   -3.3342   -2.4144 H   0  0  0  0  0  0  0  0  0  0  0  0
   -6.8400   -3.6765   -2.0418 H   0  0  0  0  0  0  0  0  0  0  0  0
   -6.7944   -2.5505   -0.6552 H   0  0  0  0  0  0  0  0  0  0  0  0
   -8.3992   -1.1815   -1.8392 H   0  0  0  0  0  0  0  0  0  0  0  0
   -8.3428   -2.2692   -3.2645 H   0  0  0  0  0  0  0  0  0  0  0  0
   -7.9337   -0.5487   -3.4337 H   0  0  0  0  0  0  0  0  0  0  0  0
  1  2  1  0
  2  3  1  0
  3  4  1  0
  4  5  1  0
  5  6  2  0
  6  7  1  0
  7  8  2  0
  8  9  1  0
  9 10  1  0
 10 11  1  0
  9 12  2  0
 12 13  1  0
 13 14  1  0
 12 15  1  0
 15 16  2  0
 16 17  1  0
 17 18  2  0
 17 19  1  0
 19 20  1  0
 20 21  1  0
 21 22  1  0
 22 23  2  0
 23 24  1  0
 24 25  2  0
 25 26  1  0
 26 27  1  0
 25 28  1  0
 28 29  1  0
 29 30  1  0
 28 31  2  0
  3 32  1  0
 32 33  2  0
 32 34  1  0
 34 35  1  0
 35 36  1  0
 36 37  1  0
 37 38  1  0
 19  5  1  0
 31 22  1  0
 16  7  1  0
  1 39  1  0
  1 40  1  0
  1 41  1  0
  2 42  1  0
  2 43  1  0
  3 44  1  0
  8 45  1  0
 11 46  1  0
 11 47  1  0
 11 48  1  0
 14 49  1  0
 14 50  1  0
 14 51  1  0
 15 52  1  0
 20 53  1  0
 20 54  1  0
 21 55  1  0
 21 56  1  0
 23 57  1  0
 24 58  1  0
 27 59  1  0
 27 60  1  0
 27 61  1  0
 30 62  1  0
 30 63  1  0
 30 64  1  0
 31 65  1  0
 34 66  1  0
 35 67  1  0
 35 68  1  0
 36 69  1  0
 36 70  1  0
 38 71  1  0
 38 72  1  0
 38 73  1  0
M  END
$$$$
