
     RDKit          3D

 33 34  0  0  0  0  0  0  0  0999 V2000
   -0.6254    1.3017   -0.5745 N   0  0  0  0  0  0  0  0  0  0  0  0
   -1.4103    0.2613   -0.5808 C   0  0  0  0  0  0  0  0  0  0  0  0
   -0.9928   -0.9091   -1.1776 N   0  0  0  0  0  0  0  0  0  0  0  0
    0.4064   -1.0713   -1.1312 O   0  0  0  0  0  0  0  0  0  0  0  0
    0.7881   -1.9812   -0.1787 C   0  0  0  0  0  0  0  0  0  0  0  0
   -0.0032   -2.6827    0.4464 O   0  0  0  0  0  0  0  0  0  0  0  0
    2.2889   -2.0762   -0.0459 C   0  0  0  0  0  0  0  0  0  0  0  0
    3.0317   -0.7898   -0.3202 C   0  0  0  0  0  0  0  0  0  0  0  0
    3.8534   -0.6674   -1.4492 C   0  0  0  0  0  0  0  0  0  0  0  0
    4.5215    0.5300   -1.7097 C   0  0  0  0  0  0  0  0  0  0  0  0
    4.3741    1.6146   -0.8475 C   0  0  0  0  0  0  0  0  0  0  0  0
    3.5607    1.5032    0.2781 C   0  0  0  0  0  0  0  0  0  0  0  0
    2.8942    0.3066    0.5438 C   0  0  0  0  0  0  0  0  0  0  0  0
   -2.7639    0.3801    0.0747 C   0  0  0  0  0  0  0  0  0  0  0  0
   -3.0360    1.5859    0.7524 C   0  0  0  0  0  0  0  0  0  0  0  0
   -4.2556    1.8009    1.3990 C   0  0  0  0  0  0  0  0  0  0  0  0
   -5.2314    0.8127    1.3811 C   0  0  0  0  0  0  0  0  0  0  0  0
   -4.9851   -0.3867    0.7151 C   0  0  0  0  0  0  0  0  0  0  0  0
   -3.7615   -0.6091    0.0625 C   0  0  0  0  0  0  0  0  0  0  0  0
   -3.6070   -2.1409   -0.7272 Cl  0  0  0  0  0  0  0  0  0  0  0  0
    0.2299    1.0306   -1.0783 H   0  0  0  0  0  0  0  0  0  0  0  0
   -1.4864   -1.7539   -0.8732 H   0  0  0  0  0  0  0  0  0  0  0  0
    2.5224   -2.3930    0.9777 H   0  0  0  0  0  0  0  0  0  0  0  0
    2.6302   -2.8704   -0.7196 H   0  0  0  0  0  0  0  0  0  0  0  0
    3.9785   -1.4998   -2.1383 H   0  0  0  0  0  0  0  0  0  0  0  0
    5.1553    0.6189   -2.5884 H   0  0  0  0  0  0  0  0  0  0  0  0
    4.8907    2.5484   -1.0538 H   0  0  0  0  0  0  0  0  0  0  0  0
    3.4402    2.3513    0.9477 H   0  0  0  0  0  0  0  0  0  0  0  0
    2.2581    0.2440    1.4250 H   0  0  0  0  0  0  0  0  0  0  0  0
   -2.2881    2.3777    0.7813 H   0  0  0  0  0  0  0  0  0  0  0  0
   -4.4367    2.7417    1.9135 H   0  0  0  0  0  0  0  0  0  0  0  0
   -6.1825    0.9745    1.8822 H   0  0  0  0  0  0  0  0  0  0  0  0
   -5.7584   -1.1523    0.7062 H   0  0  0  0  0  0  0  0  0  0  0  0
  1  2  2  3
  2  3  1  0
  3  4  1  0
  4  5  1  0
  5  6  2  0
  5  7  1  0
  7  8  1  0
  8  9  2  0
  9 10  1  0
 10 11  2  0
 11 12  1  0
 12 13  2  0
  2 14  1  0
 14 15  2  0
 15 16  1  0
 16 17  2  0
 17 18  1  0
 18 19  2  0
 19 20  1  0
 13  8  1  0
 19 14  1  0
  1 21  1  0
  3 22  1  0
  7 23  1  0
  7 24  1  0
  9 25  1  0
 10 26  1  0
 11 27  1  0
 12 28  1  0
 13 29  1  0
 15 30  1  0
 16 31  1  0
 17 32  1  0
 18 33  1  0
M  END
$$$$
