
     RDKit          3D

 61 65  0  0  0  0  0  0  0  0999 V2000
    1.4356   -2.5343    4.7412 C   0  0  0  0  0  0  0  0  0  0  0  0
    2.1677   -1.8743    3.6111 C   0  0  0  0  0  0  0  0  0  0  0  0
    3.4795   -2.2279    3.3044 C   0  0  0  0  0  0  0  0  0  0  0  0
    4.1601   -1.5735    2.2730 C   0  0  0  0  0  0  0  0  0  0  0  0
    3.5732   -0.5579    1.5315 C   0  0  0  0  0  0  0  0  0  0  0  0
    4.2901    0.0219    0.5520 N   0  0  0  0  0  0  0  0  0  0  0  0
    3.7574    1.0370   -0.1745 C   0  0  0  0  0  0  0  0  0  0  0  0
    4.6377    1.6165   -1.2108 C   0  0  0  0  0  0  0  0  0  0  0  0
    5.6016    0.8218   -1.8593 C   0  0  0  0  0  0  0  0  0  0  0  0
    6.4380    1.3472   -2.8489 C   0  0  0  0  0  0  0  0  0  0  0  0
    6.3328    2.6866   -3.2097 C   0  0  0  0  0  0  0  0  0  0  0  0
    5.3968    3.4995   -2.5782 C   0  0  0  0  0  0  0  0  0  0  0  0
    4.5609    2.9706   -1.5884 C   0  0  0  0  0  0  0  0  0  0  0  0
    2.4616    1.4710    0.0421 C   0  0  0  0  0  0  0  0  0  0  0  0
    1.7138    0.8446    1.0388 C   0  0  0  0  0  0  0  0  0  0  0  0
    0.3260    1.3039    1.2335 C   0  0  0  0  0  0  0  0  0  0  0  0
    0.0793    2.0049    2.2094 O   0  0  0  0  0  0  0  0  0  0  0  0
   -0.6249    0.9274    0.2932 N   0  0  0  0  0  0  0  0  0  0  0  0
   -0.3873   -0.0092   -0.8146 C   0  0  0  0  0  0  0  0  0  0  0  0
   -1.6767   -0.7033   -1.2754 C   0  0  0  0  0  0  0  0  0  0  0  0
   -2.7025    0.2892   -1.6831 N   0  0  0  0  0  0  0  0  0  0  0  0
   -4.1619   -0.2974   -2.2947 S   0  0  0  0  0  6  0  0  0  0  0  0
   -4.9532    0.8272   -2.7404 O   0  0  0  0  0  0  0  0  0  0  0  0
   -3.8643   -1.4094   -3.1706 O   0  0  0  0  0  0  0  0  0  0  0  0
   -5.0667   -0.9960   -1.0234 C   0  0  0  0  0  0  0  0  0  0  0  0
   -6.0717   -0.3932   -0.2308 C   0  0  0  0  0  0  0  0  0  0  0  0
   -6.6601    0.9659   -0.2970 C   0  0  0  0  0  0  0  0  0  0  0  0
   -6.5303   -1.2559    0.6878 N   0  0  0  0  0  0  0  0  0  0  0  0
   -5.8663   -2.4443    0.4633 O   0  0  0  0  0  0  0  0  0  0  0  0
   -4.9992   -2.2948   -0.5739 C   0  0  0  0  0  0  0  0  0  0  0  0
   -4.2558   -3.5059   -0.9712 C   0  0  0  0  0  0  0  0  0  0  0  0
   -2.7172    1.5580   -0.9038 C   0  0  0  0  0  0  0  0  0  0  0  0
   -1.9915    1.4307    0.4403 C   0  0  0  0  0  0  0  0  0  0  0  0
    2.2555   -0.1825    1.8342 C   0  0  0  0  0  0  0  0  0  0  0  0
    1.5651   -0.8447    2.8813 C   0  0  0  0  0  0  0  0  0  0  0  0
    0.3784   -2.6691    4.4895 H   0  0  0  0  0  0  0  0  0  0  0  0
    1.5119   -1.9226    5.6452 H   0  0  0  0  0  0  0  0  0  0  0  0
    1.8480   -3.5264    4.9523 H   0  0  0  0  0  0  0  0  0  0  0  0
    3.9892   -3.0091    3.8641 H   0  0  0  0  0  0  0  0  0  0  0  0
    5.1845   -1.8620    2.0466 H   0  0  0  0  0  0  0  0  0  0  0  0
    5.7056   -0.2289   -1.5906 H   0  0  0  0  0  0  0  0  0  0  0  0
    7.1726    0.7082   -3.3314 H   0  0  0  0  0  0  0  0  0  0  0  0
    6.9851    3.0974   -3.9757 H   0  0  0  0  0  0  0  0  0  0  0  0
    5.3208    4.5498   -2.8481 H   0  0  0  0  0  0  0  0  0  0  0  0
    3.8603    3.6441   -1.1005 H   0  0  0  0  0  0  0  0  0  0  0  0
    2.0221    2.2657   -0.5504 H   0  0  0  0  0  0  0  0  0  0  0  0
    0.0385    0.5755   -1.6385 H   0  0  0  0  0  0  0  0  0  0  0  0
    0.3480   -0.7624   -0.5160 H   0  0  0  0  0  0  0  0  0  0  0  0
   -1.4406   -1.3583   -2.1199 H   0  0  0  0  0  0  0  0  0  0  0  0
   -2.0670   -1.3120   -0.4531 H   0  0  0  0  0  0  0  0  0  0  0  0
   -7.1922    1.1075   -1.2425 H   0  0  0  0  0  0  0  0  0  0  0  0
   -5.8904    1.7353   -0.2064 H   0  0  0  0  0  0  0  0  0  0  0  0
   -7.3798    1.1290    0.5126 H   0  0  0  0  0  0  0  0  0  0  0  0
   -3.1896   -3.2971   -1.0882 H   0  0  0  0  0  0  0  0  0  0  0  0
   -4.6382   -3.8920   -1.9210 H   0  0  0  0  0  0  0  0  0  0  0  0
   -4.3582   -4.2966   -0.2212 H   0  0  0  0  0  0  0  0  0  0  0  0
   -3.7358    1.9057   -0.7227 H   0  0  0  0  0  0  0  0  0  0  0  0
   -2.2226    2.3199   -1.5185 H   0  0  0  0  0  0  0  0  0  0  0  0
   -2.5218    0.7225    1.0890 H   0  0  0  0  0  0  0  0  0  0  0  0
   -1.9821    2.4000    0.9504 H   0  0  0  0  0  0  0  0  0  0  0  0
    0.5503   -0.5435    3.1396 H   0  0  0  0  0  0  0  0  0  0  0  0
  1  2  1  0
  2  3  2  0
  3  4  1  0
  4  5  2  0
  5  6  1  0
  6  7  2  0
  7  8  1  0
  8  9  2  0
  9 10  1  0
 10 11  2  0
 11 12  1  0
 12 13  2  0
  7 14  1  0
 14 15  2  0
 15 16  1  0
 16 17  2  0
 16 18  1  0
 18 19  1  0
 19 20  1  0
 20 21  1  0
 21 22  1  0
 22 23  2  0
 22 24  2  0
 22 25  1  0
 25 26  1  0
 26 27  1  0
 26 28  2  0
 28 29  1  0
 29 30  1  0
 30 31  1  0
 21 32  1  0
 32 33  1  0
 15 34  1  0
 34 35  2  0
 35  2  1  0
 34  5  1  0
 13  8  1  0
 33 18  1  0
 30 25  2  0
  1 36  1  0
  1 37  1  0
  1 38  1  0
  3 39  1  0
  4 40  1  0
  9 41  1  0
 10 42  1  0
 11 43  1  0
 12 44  1  0
 13 45  1  0
 14 46  1  0
 19 47  1  0
 19 48  1  0
 20 49  1  0
 20 50  1  0
 27 51  1  0
 27 52  1  0
 27 53  1  0
 31 54  1  0
 31 55  1  0
 31 56  1  0
 32 57  1  0
 32 58  1  0
 33 59  1  0
 33 60  1  0
 35 61  1  0
M  END
$$$$
