
     RDKit          3D

 39 40  0  0  0  0  0  0  0  0999 V2000
    3.7320   -0.3634    1.8206 C   0  0  0  0  0  0  0  0  0  0  0  0
    4.1791    0.7456    0.8763 C   0  0  0  0  0  0  0  0  0  0  0  0
    4.0742    0.3948   -0.6195 C   0  0  0  0  0  0  0  0  0  0  0  0
    4.9798   -0.7776   -0.9993 C   0  0  0  0  0  0  0  0  0  0  0  0
    2.6222    0.1380   -1.0468 C   0  0  0  0  0  0  0  0  0  0  0  0
    2.2532   -0.9676   -1.4264 O   0  0  0  0  0  0  0  0  0  0  0  0
    1.8448    1.2713   -0.9506 N   0  0  0  0  0  0  0  0  0  0  0  0
    0.5026    1.3787   -1.2149 C   0  0  0  0  0  0  0  0  0  0  0  0
   -0.1293    2.5295   -1.1363 N   0  0  0  0  0  0  0  0  0  0  0  0
   -1.4714    2.4094   -1.4346 N   0  0  0  0  0  0  0  0  0  0  0  0
   -1.8029    1.1642   -1.7104 C   0  0  0  0  0  0  0  0  0  0  0  0
   -3.1843    0.7080   -2.0532 C   0  0  0  0  0  0  0  0  0  0  0  0
   -4.1544    0.8669   -0.8788 C   0  0  0  0  0  0  0  0  0  0  0  0
   -3.8728   -0.0859    0.2589 C   0  0  0  0  0  0  0  0  0  0  0  0
   -4.3050   -1.4174    0.1964 C   0  0  0  0  0  0  0  0  0  0  0  0
   -4.0202   -2.3019    1.2377 C   0  0  0  0  0  0  0  0  0  0  0  0
   -3.3000   -1.8652    2.3480 C   0  0  0  0  0  0  0  0  0  0  0  0
   -2.8639   -0.5438    2.4189 C   0  0  0  0  0  0  0  0  0  0  0  0
   -3.1480    0.3427    1.3795 C   0  0  0  0  0  0  0  0  0  0  0  0
   -0.4869    0.0632   -1.6463 S   0  0  0  0  0  0  0  0  0  0  0  0
    3.7998   -0.0185    2.8577 H   0  0  0  0  0  0  0  0  0  0  0  0
    2.6942   -0.6551    1.6337 H   0  0  0  0  0  0  0  0  0  0  0  0
    4.3649   -1.2505    1.7275 H   0  0  0  0  0  0  0  0  0  0  0  0
    5.2189    1.0059    1.1102 H   0  0  0  0  0  0  0  0  0  0  0  0
    3.5845    1.6409    1.0930 H   0  0  0  0  0  0  0  0  0  0  0  0
    4.4217    1.2655   -1.1929 H   0  0  0  0  0  0  0  0  0  0  0  0
    4.6554   -1.7155   -0.5369 H   0  0  0  0  0  0  0  0  0  0  0  0
    4.9696   -0.9327   -2.0841 H   0  0  0  0  0  0  0  0  0  0  0  0
    6.0147   -0.5854   -0.6981 H   0  0  0  0  0  0  0  0  0  0  0  0
    2.2690    2.1513   -0.6932 H   0  0  0  0  0  0  0  0  0  0  0  0
   -3.1822   -0.3291   -2.4102 H   0  0  0  0  0  0  0  0  0  0  0  0
   -3.5430    1.3227   -2.8883 H   0  0  0  0  0  0  0  0  0  0  0  0
   -5.1780    0.6884   -1.2330 H   0  0  0  0  0  0  0  0  0  0  0  0
   -4.1460    1.9002   -0.5079 H   0  0  0  0  0  0  0  0  0  0  0  0
   -4.8657   -1.7756   -0.6639 H   0  0  0  0  0  0  0  0  0  0  0  0
   -4.3583   -3.3333    1.1820 H   0  0  0  0  0  0  0  0  0  0  0  0
   -3.0767   -2.5554    3.1572 H   0  0  0  0  0  0  0  0  0  0  0  0
   -2.2992   -0.2031    3.2826 H   0  0  0  0  0  0  0  0  0  0  0  0
   -2.7928    1.3695    1.4455 H   0  0  0  0  0  0  0  0  0  0  0  0
  1  2  1  0
  2  3  1  0
  3  4  1  0
  3  5  1  0
  5  6  2  0
  5  7  1  0
  7  8  1  0
  8  9  2  0
  9 10  1  0
 10 11  2  0
 11 12  1  0
 12 13  1  0
 13 14  1  0
 14 15  2  0
 15 16  1  0
 16 17  2  0
 17 18  1  0
 18 19  2  0
 11 20  1  0
 20  8  1  0
 19 14  1  0
  1 21  1  0
  1 22  1  0
  1 23  1  0
  2 24  1  0
  2 25  1  0
  3 26  1  0
  4 27  1  0
  4 28  1  0
  4 29  1  0
  7 30  1  0
 12 31  1  0
 12 32  1  0
 13 33  1  0
 13 34  1  0
 15 35  1  0
 16 36  1  0
 17 37  1  0
 18 38  1  0
 19 39  1  0
M  END
$$$$
