
     RDKit          3D

 42 46  0  0  0  0  0  0  0  0999 V2000
    1.0101   -0.2014   -2.1937 O   0  0  0  0  0  0  0  0  0  0  0  0
    1.7270   -0.2246   -1.1986 C   0  0  0  0  0  0  0  0  0  0  0  0
    1.2874   -0.3821    0.0980 O   0  0  0  0  0  0  0  0  0  0  0  0
   -0.1132   -0.3693    0.2178 C   0  0  0  0  0  0  0  0  0  0  0  0
   -0.8304    0.7751    0.3413 C   0  0  0  0  0  0  0  0  0  0  0  0
   -0.1436    2.0785    0.3307 C   0  0  0  0  0  0  0  0  0  0  0  0
   -0.0609    2.8212   -0.8536 C   0  0  0  0  0  0  0  0  0  0  0  0
    0.6255    4.0363   -0.8750 C   0  0  0  0  0  0  0  0  0  0  0  0
    1.2310    4.5167    0.2854 C   0  0  0  0  0  0  0  0  0  0  0  0
    1.1510    3.7842    1.4692 C   0  0  0  0  0  0  0  0  0  0  0  0
    0.4671    2.5675    1.4930 C   0  0  0  0  0  0  0  0  0  0  0  0
   -2.3396    0.7301    0.4870 C   0  0  0  0  0  0  0  0  0  0  0  0
   -3.0115    1.7535    0.5856 O   0  0  0  0  0  0  0  0  0  0  0  0
   -2.8896   -0.5246    0.5130 N   0  0  0  0  0  0  0  0  0  0  0  0
   -2.1358   -1.6797    0.4173 C   0  0  0  0  0  0  0  0  0  0  0  0
   -2.9302   -2.8123    0.4852 C   0  0  0  0  0  0  0  0  0  0  0  0
   -2.3349   -4.0553    0.4120 C   0  0  0  0  0  0  0  0  0  0  0  0
   -0.9387   -4.1127    0.2719 C   0  0  0  0  0  0  0  0  0  0  0  0
   -0.1562   -2.9379    0.2053 C   0  0  0  0  0  0  0  0  0  0  0  0
   -0.7638   -1.6844    0.2776 C   0  0  0  0  0  0  0  0  0  0  0  0
   -4.3700   -2.4248    0.6335 C   0  0  0  0  0  0  0  0  0  0  0  0
   -4.3015   -0.8767    0.6487 C   0  0  0  0  0  0  0  0  0  0  0  0
    3.1685   -0.1123   -1.1924 C   0  0  0  0  0  0  0  0  0  0  0  0
    4.1026   -0.0677   -0.1702 C   0  0  0  0  0  0  0  0  0  0  0  0
    5.3753    0.0521   -0.7793 C   0  0  0  0  0  0  0  0  0  0  0  0
    5.1485    0.0737   -2.1339 C   0  0  0  0  0  0  0  0  0  0  0  0
    3.8211   -0.0256   -2.3952 O   0  0  0  0  0  0  0  0  0  0  0  0
   -0.5262    2.4548   -1.7669 H   0  0  0  0  0  0  0  0  0  0  0  0
    0.6844    4.6079   -1.7977 H   0  0  0  0  0  0  0  0  0  0  0  0
    1.7606    5.4657    0.2675 H   0  0  0  0  0  0  0  0  0  0  0  0
    1.6171    4.1634    2.3748 H   0  0  0  0  0  0  0  0  0  0  0  0
    0.4089    2.0072    2.4232 H   0  0  0  0  0  0  0  0  0  0  0  0
   -2.9231   -4.9663    0.4592 H   0  0  0  0  0  0  0  0  0  0  0  0
   -0.4478   -5.0824    0.2096 H   0  0  0  0  0  0  0  0  0  0  0  0
    0.9207   -3.0293    0.0935 H   0  0  0  0  0  0  0  0  0  0  0  0
   -4.7893   -2.8063    1.5694 H   0  0  0  0  0  0  0  0  0  0  0  0
   -4.9661   -2.7811   -0.2121 H   0  0  0  0  0  0  0  0  0  0  0  0
   -4.8623   -0.4335   -0.1815 H   0  0  0  0  0  0  0  0  0  0  0  0
   -4.6867   -0.4587    1.5852 H   0  0  0  0  0  0  0  0  0  0  0  0
    3.8863   -0.1099    0.8888 H   0  0  0  0  0  0  0  0  0  0  0  0
    6.3384    0.1183   -0.2926 H   0  0  0  0  0  0  0  0  0  0  0  0
    5.7898    0.1526   -3.0011 H   0  0  0  0  0  0  0  0  0  0  0  0
  1  2  2  0
  2  3  1  0
  3  4  1  0
  4  5  2  0
  5  6  1  0
  6  7  2  0
  7  8  1  0
  8  9  2  0
  9 10  1  0
 10 11  2  0
  5 12  1  0
 12 13  2  0
 12 14  1  0
 14 15  1  0
 15 16  2  0
 16 17  1  0
 17 18  2  0
 18 19  1  0
 19 20  2  0
 16 21  1  0
 21 22  1  0
  2 23  1  0
 23 24  2  0
 24 25  1  0
 25 26  2  0
 26 27  1  0
 20  4  1  0
 27 23  1  0
 11  6  1  0
 22 14  1  0
 20 15  1  0
  7 28  1  0
  8 29  1  0
  9 30  1  0
 10 31  1  0
 11 32  1  0
 17 33  1  0
 18 34  1  0
 19 35  1  0
 21 36  1  0
 21 37  1  0
 22 38  1  0
 22 39  1  0
 24 40  1  0
 25 41  1  0
 26 42  1  0
M  END
$$$$
