
     RDKit          3D

 42 44  0  0  0  0  0  0  0  0999 V2000
   -3.3631   -2.4351    0.0239 C   0  0  0  0  0  0  0  0  0  0  0  0
   -3.5586   -0.9921   -0.3670 C   0  0  0  0  0  0  0  0  0  0  0  0
   -4.7856   -0.6286   -0.9532 C   0  0  0  0  0  0  0  0  0  0  0  0
   -5.0414    0.6928   -1.3078 C   0  0  0  0  0  0  0  0  0  0  0  0
   -4.0692    1.6558   -1.0799 C   0  0  0  0  0  0  0  0  0  0  0  0
   -4.3684    3.2946   -1.5139 Cl  0  0  0  0  0  0  0  0  0  0  0  0
   -2.8409    1.3081   -0.5131 C   0  0  0  0  0  0  0  0  0  0  0  0
   -2.5513   -0.0188   -0.1605 C   0  0  0  0  0  0  0  0  0  0  0  0
   -1.3121   -0.3930    0.3705 N   0  0  0  0  0  0  0  0  0  0  0  0
   -0.6540    0.4753    1.3616 C   0  0  0  0  0  0  0  0  0  0  0  0
    0.4528    1.3759    0.7683 C   0  0  0  0  0  0  0  0  0  0  0  0
    1.3381    0.7102   -0.2220 N   0  0  0  0  0  0  0  0  0  0  0  0
    2.5158    0.1596    0.2628 C   0  0  0  0  0  0  0  0  0  0  0  0
    2.5602   -0.8740    1.2108 C   0  0  0  0  0  0  0  0  0  0  0  0
    3.7767   -1.3838    1.6513 C   0  0  0  0  0  0  0  0  0  0  0  0
    4.9518   -0.8588    1.1445 C   0  0  0  0  0  0  0  0  0  0  0  0
    4.8847    0.1643    0.2110 C   0  0  0  0  0  0  0  0  0  0  0  0
    3.6953    0.6515   -0.2087 N   0  0  0  0  0  4  0  0  0  0  0  0
    3.6778    1.7525   -1.1903 C   0  0  0  0  0  0  0  0  0  0  0  0
    0.6009   -0.1192   -1.2111 C   0  0  0  0  0  0  0  0  0  0  0  0
   -0.4166   -1.0863   -0.5737 C   0  0  0  0  0  0  0  0  0  0  0  0
   -2.8443   -2.9759   -0.7730 H   0  0  0  0  0  0  0  0  0  0  0  0
   -4.3257   -2.9269    0.2026 H   0  0  0  0  0  0  0  0  0  0  0  0
   -2.7917   -2.5207    0.9537 H   0  0  0  0  0  0  0  0  0  0  0  0
   -5.5564   -1.3785   -1.1232 H   0  0  0  0  0  0  0  0  0  0  0  0
   -5.9966    0.9605   -1.7516 H   0  0  0  0  0  0  0  0  0  0  0  0
   -2.1092    2.0936   -0.3727 H   0  0  0  0  0  0  0  0  0  0  0  0
   -0.2089   -0.1788    2.1194 H   0  0  0  0  0  0  0  0  0  0  0  0
   -1.3830    1.0893    1.9054 H   0  0  0  0  0  0  0  0  0  0  0  0
    1.0433    1.8194    1.5805 H   0  0  0  0  0  0  0  0  0  0  0  0
   -0.0128    2.2217    0.2510 H   0  0  0  0  0  0  0  0  0  0  0  0
    1.6483   -1.3027    1.6151 H   0  0  0  0  0  0  0  0  0  0  0  0
    3.8026   -2.1876    2.3857 H   0  0  0  0  0  0  0  0  0  0  0  0
    5.9147   -1.2423    1.4749 H   0  0  0  0  0  0  0  0  0  0  0  0
    5.7868    0.6029   -0.2065 H   0  0  0  0  0  0  0  0  0  0  0  0
    4.7001    2.0503   -1.4371 H   0  0  0  0  0  0  0  0  0  0  0  0
    3.1541    2.6029   -0.7453 H   0  0  0  0  0  0  0  0  0  0  0  0
    3.1771    1.3974   -2.0948 H   0  0  0  0  0  0  0  0  0  0  0  0
    1.3008   -0.6778   -1.8453 H   0  0  0  0  0  0  0  0  0  0  0  0
    0.0655    0.5692   -1.8771 H   0  0  0  0  0  0  0  0  0  0  0  0
    0.1112   -1.8738   -0.0252 H   0  0  0  0  0  0  0  0  0  0  0  0
   -0.9690   -1.5932   -1.3740 H   0  0  0  0  0  0  0  0  0  0  0  0
  1  2  1  0
  2  3  2  0
  3  4  1  0
  4  5  2  0
  5  6  1  0
  5  7  1  0
  7  8  2  0
  8  9  1  0
  9 10  1  0
 10 11  1  0
 11 12  1  0
 12 13  1  0
 13 14  2  0
 14 15  1  0
 15 16  2  0
 16 17  1  0
 17 18  2  0
 18 19  1  0
 12 20  1  0
 20 21  1  0
  8  2  1  0
 21  9  1  0
 18 13  1  0
  1 22  1  0
  1 23  1  0
  1 24  1  0
  3 25  1  0
  4 26  1  0
  7 27  1  0
 10 28  1  0
 10 29  1  0
 11 30  1  0
 11 31  1  0
 14 32  1  0
 15 33  1  0
 16 34  1  0
 17 35  1  0
 19 36  1  0
 19 37  1  0
 19 38  1  0
 20 39  1  0
 20 40  1  0
 21 41  1  0
 21 42  1  0
M  CHG  1  18   1
M  END
$$$$
