
     RDKit          3D

 55 57  0  0  0  0  0  0  0  0999 V2000
   -2.0523   -2.4693    3.0621 C   0  0  0  0  0  0  0  0  0  0  0  0
   -2.2103   -2.4145    1.6495 O   0  0  0  0  0  0  0  0  0  0  0  0
   -3.1623   -1.5583    1.1525 C   0  0  0  0  0  0  0  0  0  0  0  0
   -3.9183   -0.6754    1.9300 C   0  0  0  0  0  0  0  0  0  0  0  0
   -4.8505    0.1843    1.3310 C   0  0  0  0  0  0  0  0  0  0  0  0
   -5.6392    1.1008    2.2099 C   0  0  0  0  0  0  0  0  0  0  0  0
   -6.6248    2.0509    1.5798 C   0  0  0  0  0  0  0  0  0  0  0  0
   -5.4759    1.0694    3.4282 O   0  0  0  0  0  0  0  0  0  0  0  0
   -5.0148    0.1598   -0.0563 C   0  0  0  0  0  0  0  0  0  0  0  0
   -4.2633   -0.7220   -0.8409 C   0  0  0  0  0  0  0  0  0  0  0  0
   -3.3399   -1.5850   -0.2451 C   0  0  0  0  0  0  0  0  0  0  0  0
   -2.5618   -2.4897   -0.9246 O   0  0  0  0  0  0  0  0  0  0  0  0
   -2.4646   -2.3866   -2.3378 C   0  0  0  0  0  0  0  0  0  0  0  0
   -1.6163   -1.2062   -2.8264 C   0  0  0  0  0  0  0  0  0  0  0  0
   -1.7861   -0.7288   -3.9442 O   0  0  0  0  0  0  0  0  0  0  0  0
   -0.6718   -0.8118   -1.8926 N   0  0  0  0  0  0  0  0  0  0  0  0
    0.2793    0.2169   -2.0036 C   0  0  0  0  0  0  0  0  0  0  0  0
    0.4814    0.9709   -3.1582 C   0  0  0  0  0  0  0  0  0  0  0  0
    1.4535    1.9784   -3.1858 C   0  0  0  0  0  0  0  0  0  0  0  0
    2.2402    2.2471   -2.0618 C   0  0  0  0  0  0  0  0  0  0  0  0
    3.4229    3.4921   -2.2206 Cl  0  0  0  0  0  0  0  0  0  0  0  0
    2.0438    1.4921   -0.9071 C   0  0  0  0  0  0  0  0  0  0  0  0
    2.9908    1.7755    0.5595 S   0  0  0  0  0  6  0  0  0  0  0  0
    2.8949    3.1793    0.8906 O   0  0  0  0  0  0  0  0  0  0  0  0
    2.6173    0.7726    1.5374 O   0  0  0  0  0  0  0  0  0  0  0  0
    4.5885    1.4185    0.0913 N   0  0  0  0  0  0  0  0  0  0  0  0
    4.8247    0.0251   -0.4085 C   0  0  0  0  0  0  0  0  0  0  0  0
    6.3154   -0.3199   -0.3480 C   0  0  0  0  0  0  0  0  0  0  0  0
    6.8301   -0.3205    0.9896 O   0  0  0  0  0  0  0  0  0  0  0  0
    6.1818    0.6307    1.8471 C   0  0  0  0  0  0  0  0  0  0  0  0
    5.6244    1.8412    1.0927 C   0  0  0  0  0  0  0  0  0  0  0  0
    1.0645    0.4832   -0.8778 C   0  0  0  0  0  0  0  0  0  0  0  0
   -2.9856   -2.7592    3.5556 H   0  0  0  0  0  0  0  0  0  0  0  0
   -1.6742   -1.5180    3.4492 H   0  0  0  0  0  0  0  0  0  0  0  0
   -1.3075   -3.2396    3.2863 H   0  0  0  0  0  0  0  0  0  0  0  0
   -3.7987   -0.6329    3.0087 H   0  0  0  0  0  0  0  0  0  0  0  0
   -7.3872    1.4969    1.0272 H   0  0  0  0  0  0  0  0  0  0  0  0
   -7.1292    2.6225    2.3652 H   0  0  0  0  0  0  0  0  0  0  0  0
   -6.1051    2.7556    0.9266 H   0  0  0  0  0  0  0  0  0  0  0  0
   -5.7230    0.8139   -0.5575 H   0  0  0  0  0  0  0  0  0  0  0  0
   -4.4319   -0.7059   -1.9130 H   0  0  0  0  0  0  0  0  0  0  0  0
   -1.9612   -3.2944   -2.6889 H   0  0  0  0  0  0  0  0  0  0  0  0
   -3.4509   -2.3767   -2.8121 H   0  0  0  0  0  0  0  0  0  0  0  0
   -0.7365   -1.2889   -0.9945 H   0  0  0  0  0  0  0  0  0  0  0  0
   -0.0985    0.8017   -4.0614 H   0  0  0  0  0  0  0  0  0  0  0  0
    1.5880    2.5523   -4.1012 H   0  0  0  0  0  0  0  0  0  0  0  0
    4.2670   -0.6945    0.2006 H   0  0  0  0  0  0  0  0  0  0  0  0
    4.4799   -0.0411   -1.4449 H   0  0  0  0  0  0  0  0  0  0  0  0
    6.9043    0.3919   -0.9381 H   0  0  0  0  0  0  0  0  0  0  0  0
    6.4899   -1.3158   -0.7667 H   0  0  0  0  0  0  0  0  0  0  0  0
    5.3835    0.1069    2.3848 H   0  0  0  0  0  0  0  0  0  0  0  0
    6.9186    0.9548    2.5884 H   0  0  0  0  0  0  0  0  0  0  0  0
    5.2222    2.5687    1.8036 H   0  0  0  0  0  0  0  0  0  0  0  0
    6.4242    2.3448    0.5366 H   0  0  0  0  0  0  0  0  0  0  0  0
    0.9104   -0.0914    0.0339 H   0  0  0  0  0  0  0  0  0  0  0  0
  1  2  1  0
  2  3  1  0
  3  4  2  0
  4  5  1  0
  5  6  1  0
  6  7  1  0
  6  8  2  0
  5  9  2  0
  9 10  1  0
 10 11  2  0
 11 12  1  0
 12 13  1  0
 13 14  1  0
 14 15  2  0
 14 16  1  0
 16 17  1  0
 17 18  2  0
 18 19  1  0
 19 20  2  0
 20 21  1  0
 20 22  1  0
 22 23  1  0
 23 24  2  0
 23 25  2  0
 23 26  1  0
 26 27  1  0
 27 28  1  0
 28 29  1  0
 29 30  1  0
 30 31  1  0
 22 32  2  0
 11  3  1  0
 32 17  1  0
 31 26  1  0
  1 33  1  0
  1 34  1  0
  1 35  1  0
  4 36  1  0
  7 37  1  0
  7 38  1  0
  7 39  1  0
  9 40  1  0
 10 41  1  0
 13 42  1  0
 13 43  1  0
 16 44  1  0
 18 45  1  0
 19 46  1  0
 27 47  1  0
 27 48  1  0
 28 49  1  0
 28 50  1  0
 30 51  1  0
 30 52  1  0
 31 53  1  0
 31 54  1  0
 32 55  1  0
M  END
$$$$
