
     RDKit          3D

 53 56  0  0  0  0  0  0  0  0999 V2000
    8.0385    1.0701   -1.6359 C   0  0  0  0  0  0  0  0  0  0  0  0
    7.0661    0.0472   -1.8265 O   0  0  0  0  0  0  0  0  0  0  0  0
    6.0027    0.0407   -0.9671 C   0  0  0  0  0  0  0  0  0  0  0  0
    5.0751   -0.9801   -1.1870 C   0  0  0  0  0  0  0  0  0  0  0  0
    3.9382   -1.1069   -0.3793 C   0  0  0  0  0  0  0  0  0  0  0  0
    3.7109   -0.2058    0.6587 C   0  0  0  0  0  0  0  0  0  0  0  0
    2.6021   -0.2622    1.5259 N   0  0  0  0  0  0  0  0  0  0  0  0
    1.4914   -1.0797    1.4217 C   0  0  0  0  0  0  0  0  0  0  0  0
    1.2613   -1.8946    0.5311 O   0  0  0  0  0  0  0  0  0  0  0  0
    0.5167   -0.9240    2.5796 C   0  0  0  0  0  0  0  0  0  0  0  0
   -0.0786    0.7799    2.7926 S   0  0  0  0  0  0  0  0  0  0  0  0
   -0.4100    1.2475    1.1528 C   0  0  0  0  0  0  0  0  0  0  0  0
    0.2947    2.1584    0.5247 N   0  0  0  0  0  0  0  0  0  0  0  0
   -0.0975    2.1573   -0.7849 N   0  0  0  0  0  0  0  0  0  0  0  0
   -1.0461    1.2497   -0.9370 C   0  0  0  0  0  0  0  0  0  0  0  0
   -1.8230    1.0495   -2.1980 C   0  0  0  0  0  0  0  0  0  0  0  0
   -3.2116    1.6230   -2.1135 C   0  0  0  0  0  0  0  0  0  0  0  0
   -3.5828    2.9296   -1.8528 C   0  0  0  0  0  0  0  0  0  0  0  0
   -4.9972    3.0994   -1.8362 C   0  0  0  0  0  0  0  0  0  0  0  0
   -5.6597    1.9218   -2.0983 C   0  0  0  0  0  0  0  0  0  0  0  0
   -4.5814    0.6240   -2.3702 S   0  0  0  0  0  0  0  0  0  0  0  0
   -1.2948    0.6342    0.2842 N   0  0  0  0  0  0  0  0  0  0  0  0
   -2.2501   -0.3685    0.5738 C   0  0  0  0  0  0  0  0  0  0  0  0
   -3.1028   -0.2201    1.6738 C   0  0  0  0  0  0  0  0  0  0  0  0
   -4.0395   -1.2147    1.9646 C   0  0  0  0  0  0  0  0  0  0  0  0
   -4.1319   -2.3612    1.1657 C   0  0  0  0  0  0  0  0  0  0  0  0
   -5.1131   -3.4469    1.4996 C   0  0  0  0  0  0  0  0  0  0  0  0
   -3.2577   -2.5107    0.0819 C   0  0  0  0  0  0  0  0  0  0  0  0
   -2.3232   -1.5173   -0.2208 C   0  0  0  0  0  0  0  0  0  0  0  0
    4.6419    0.8183    0.8783 C   0  0  0  0  0  0  0  0  0  0  0  0
    5.7799    0.9436    0.0707 C   0  0  0  0  0  0  0  0  0  0  0  0
    8.5159    0.9792   -0.6536 H   0  0  0  0  0  0  0  0  0  0  0  0
    8.8161    0.9402   -2.3948 H   0  0  0  0  0  0  0  0  0  0  0  0
    7.5999    2.0641   -1.7773 H   0  0  0  0  0  0  0  0  0  0  0  0
    5.2372   -1.6915   -1.9936 H   0  0  0  0  0  0  0  0  0  0  0  0
    3.2575   -1.9260   -0.5880 H   0  0  0  0  0  0  0  0  0  0  0  0
    2.5512    0.4692    2.2278 H   0  0  0  0  0  0  0  0  0  0  0  0
    1.0168   -1.2437    3.5001 H   0  0  0  0  0  0  0  0  0  0  0  0
   -0.3355   -1.5928    2.4227 H   0  0  0  0  0  0  0  0  0  0  0  0
   -1.8322   -0.0060   -2.4904 H   0  0  0  0  0  0  0  0  0  0  0  0
   -1.2977    1.5687   -3.0131 H   0  0  0  0  0  0  0  0  0  0  0  0
   -2.8683    3.7262   -1.6722 H   0  0  0  0  0  0  0  0  0  0  0  0
   -5.5011    4.0378   -1.6395 H   0  0  0  0  0  0  0  0  0  0  0  0
   -6.7280    1.7588   -2.1485 H   0  0  0  0  0  0  0  0  0  0  0  0
   -3.0811    0.6733    2.2955 H   0  0  0  0  0  0  0  0  0  0  0  0
   -4.7025   -1.0855    2.8179 H   0  0  0  0  0  0  0  0  0  0  0  0
   -5.9660   -3.0486    2.0586 H   0  0  0  0  0  0  0  0  0  0  0  0
   -5.5083   -3.9065    0.5878 H   0  0  0  0  0  0  0  0  0  0  0  0
   -4.6257   -4.2183    2.1043 H   0  0  0  0  0  0  0  0  0  0  0  0
   -3.2927   -3.4113   -0.5286 H   0  0  0  0  0  0  0  0  0  0  0  0
   -1.6300   -1.6918   -1.0404 H   0  0  0  0  0  0  0  0  0  0  0  0
    4.4930    1.5417    1.6765 H   0  0  0  0  0  0  0  0  0  0  0  0
    6.4632    1.7613    0.2771 H   0  0  0  0  0  0  0  0  0  0  0  0
  1  2  1  0
  2  3  1  0
  3  4  2  0
  4  5  1  0
  5  6  2  0
  6  7  1  0
  7  8  1  0
  8  9  2  0
  8 10  1  0
 10 11  1  0
 11 12  1  0
 12 13  2  0
 13 14  1  0
 14 15  2  0
 15 16  1  0
 16 17  1  0
 17 18  2  0
 18 19  1  0
 19 20  2  0
 20 21  1  0
 15 22  1  0
 22 23  1  0
 23 24  2  0
 24 25  1  0
 25 26  2  0
 26 27  1  0
 26 28  1  0
 28 29  2  0
  6 30  1  0
 30 31  2  0
 31  3  1  0
 22 12  1  0
 29 23  1  0
 21 17  1  0
  1 32  1  0
  1 33  1  0
  1 34  1  0
  4 35  1  0
  5 36  1  0
  7 37  1  0
 10 38  1  0
 10 39  1  0
 16 40  1  0
 16 41  1  0
 18 42  1  0
 19 43  1  0
 20 44  1  0
 24 45  1  0
 25 46  1  0
 27 47  1  0
 27 48  1  0
 27 49  1  0
 28 50  1  0
 29 51  1  0
 30 52  1  0
 31 53  1  0
M  END
$$$$
