
     RDKit          3D

 53 58  0  0  0  0  0  0  0  0999 V2000
    0.4221   -1.6410    1.0063 O   0  0  0  0  0  0  0  0  0  0  0  0
    1.1945   -1.1394    0.1834 C   0  0  0  0  0  0  0  0  0  0  0  0
    0.5897   -0.5592   -1.1143 C   0  0  0  0  0  0  0  0  0  0  0  0
   -0.7694   -0.0362   -0.8665 N   0  0  0  0  0  4  0  0  0  0  0  0
   -1.9549   -0.4551   -1.4652 C   0  0  0  0  0  0  0  0  0  0  0  0
   -3.0189    0.2342   -0.8928 C   0  0  0  0  0  0  0  0  0  0  0  0
   -4.5431    0.0425   -1.2311 C   0  0  0  0  0  0  0  0  0  0  0  0
   -4.9301   -0.9039   -2.1926 C   0  0  0  0  0  0  0  0  0  0  0  0
   -6.2834   -1.0942   -2.4867 C   0  0  0  0  0  0  0  0  0  0  0  0
   -7.2427   -0.3406   -1.8244 C   0  0  0  0  0  0  0  0  0  0  0  0
   -8.5381   -0.5260   -2.1038 F   0  0  0  0  0  0  0  0  0  0  0  0
   -6.8737    0.6016   -0.8727 C   0  0  0  0  0  0  0  0  0  0  0  0
   -5.5212    0.7936   -0.5720 C   0  0  0  0  0  0  0  0  0  0  0  0
   -2.4011    1.0737    0.0177 N   0  0  0  0  0  0  0  0  0  0  0  0
   -1.0902    0.8568    0.0650 C   0  0  0  0  0  0  0  0  0  0  0  0
   -0.3990    1.6641    1.0970 C   0  0  0  0  0  0  0  0  0  0  0  0
   -1.4813    2.6934    1.4754 C   0  0  0  0  0  0  0  0  0  0  0  0
   -2.8193    2.0614    1.0030 C   0  0  0  0  0  0  0  0  0  0  0  0
    2.5617   -0.8850    0.3919 N   0  0  0  0  0  0  0  0  0  0  0  0
    3.1020   -0.7599    1.7257 C   0  0  0  0  0  0  0  0  0  0  0  0
    2.5880   -1.5180    2.7927 C   0  0  0  0  0  0  0  0  0  0  0  0
    3.0902   -1.3890    4.0921 C   0  0  0  0  0  0  0  0  0  0  0  0
    4.1174   -0.4941    4.3565 C   0  0  0  0  0  0  0  0  0  0  0  0
    4.6463    0.2672    3.3187 C   0  0  0  0  0  0  0  0  0  0  0  0
    4.1505    0.1365    2.0126 C   0  0  0  0  0  0  0  0  0  0  0  0
    4.8333    1.2135    0.7726 S   0  0  0  0  0  0  0  0  0  0  0  0
    4.5605    0.1835   -0.6427 C   0  0  0  0  0  0  0  0  0  0  0  0
    5.4270    0.3209   -1.7363 C   0  0  0  0  0  0  0  0  0  0  0  0
    5.2605   -0.4634   -2.8753 C   0  0  0  0  0  0  0  0  0  0  0  0
    4.2338   -1.3982   -2.9239 C   0  0  0  0  0  0  0  0  0  0  0  0
    3.3608   -1.5317   -1.8414 C   0  0  0  0  0  0  0  0  0  0  0  0
    3.4890   -0.7219   -0.6959 C   0  0  0  0  0  0  0  0  0  0  0  0
    1.1735    0.2833   -1.4950 H   0  0  0  0  0  0  0  0  0  0  0  0
    0.5254   -1.3487   -1.8674 H   0  0  0  0  0  0  0  0  0  0  0  0
   -1.8930   -1.2185   -2.2216 H   0  0  0  0  0  0  0  0  0  0  0  0
   -4.2082   -1.5153   -2.7269 H   0  0  0  0  0  0  0  0  0  0  0  0
   -6.5976   -1.8301   -3.2224 H   0  0  0  0  0  0  0  0  0  0  0  0
   -7.6448    1.1776   -0.3684 H   0  0  0  0  0  0  0  0  0  0  0  0
   -5.2749    1.5327    0.1792 H   0  0  0  0  0  0  0  0  0  0  0  0
    0.4957    2.1091    0.6619 H   0  0  0  0  0  0  0  0  0  0  0  0
   -0.1637    0.9888    1.9215 H   0  0  0  0  0  0  0  0  0  0  0  0
   -1.4819    2.9428    2.5400 H   0  0  0  0  0  0  0  0  0  0  0  0
   -1.3079    3.6183    0.9129 H   0  0  0  0  0  0  0  0  0  0  0  0
   -3.3266    1.5486    1.8251 H   0  0  0  0  0  0  0  0  0  0  0  0
   -3.4673    2.8149    0.5515 H   0  0  0  0  0  0  0  0  0  0  0  0
    1.8168   -2.2686    2.6416 H   0  0  0  0  0  0  0  0  0  0  0  0
    2.6816   -2.0002    4.8945 H   0  0  0  0  0  0  0  0  0  0  0  0
    4.5108   -0.3925    5.3649 H   0  0  0  0  0  0  0  0  0  0  0  0
    5.4492    0.9687    3.5379 H   0  0  0  0  0  0  0  0  0  0  0  0
    6.2508    1.0324   -1.7025 H   0  0  0  0  0  0  0  0  0  0  0  0
    5.9491   -0.3600   -3.7114 H   0  0  0  0  0  0  0  0  0  0  0  0
    4.1302   -2.0407   -3.7961 H   0  0  0  0  0  0  0  0  0  0  0  0
    2.6218   -2.3286   -1.8924 H   0  0  0  0  0  0  0  0  0  0  0  0
  1  2  2  0
  2  3  1  0
  3  4  1  0
  4  5  1  0
  5  6  2  0
  6  7  1  0
  7  8  2  0
  8  9  1  0
  9 10  2  0
 10 11  1  0
 10 12  1  0
 12 13  2  0
  6 14  1  0
 14 15  1  0
 15 16  1  0
 16 17  1  0
 17 18  1  0
  2 19  1  0
 19 20  1  0
 20 21  2  0
 21 22  1  0
 22 23  2  0
 23 24  1  0
 24 25  2  0
 25 26  1  0
 26 27  1  0
 27 28  2  0
 28 29  1  0
 29 30  2  0
 30 31  1  0
 31 32  2  0
 15  4  2  0
 32 19  1  0
 13  7  1  0
 18 14  1  0
 25 20  1  0
 32 27  1  0
  3 33  1  0
  3 34  1  0
  5 35  1  0
  8 36  1  0
  9 37  1  0
 12 38  1  0
 13 39  1  0
 16 40  1  0
 16 41  1  0
 17 42  1  0
 17 43  1  0
 18 44  1  0
 18 45  1  0
 21 46  1  0
 22 47  1  0
 23 48  1  0
 24 49  1  0
 28 50  1  0
 29 51  1  0
 30 52  1  0
 31 53  1  0
M  CHG  1   4   1
M  END
$$$$
