
     RDKit          3D

 39 41  0  0  0  0  0  0  0  0999 V2000
    4.4422    1.4404    0.2100 C   0  0  0  0  0  0  0  0  0  0  0  0
    3.4840    0.4166   -0.2158 N   0  0  0  0  0  0  0  0  0  0  0  0
    4.1996   -0.7106   -0.8163 C   0  0  0  0  0  0  0  0  0  0  0  0
    2.6540   -0.0035    0.9318 C   0  0  0  0  0  0  0  0  0  0  0  0
    1.4404   -0.8890    0.5704 C   0  0  0  0  0  0  0  0  0  0  0  0
    0.4516   -0.1937   -0.3361 C   0  0  0  0  0  0  0  0  0  0  0  0
   -0.8990   -0.1593   -0.2584 C   0  0  0  0  0  0  0  0  0  0  0  0
   -1.6187    0.7775   -1.1684 C   0  0  0  0  0  0  0  0  0  0  0  0
   -1.3218    0.8638   -2.5383 C   0  0  0  0  0  0  0  0  0  0  0  0
   -2.0183    1.7500   -3.3624 C   0  0  0  0  0  0  0  0  0  0  0  0
   -3.0239    2.5532   -2.8307 C   0  0  0  0  0  0  0  0  0  0  0  0
   -3.3435    2.4645   -1.4754 C   0  0  0  0  0  0  0  0  0  0  0  0
   -2.6556    1.5729   -0.6416 C   0  0  0  0  0  0  0  0  0  0  0  0
   -3.1313    1.4909    1.0865 S   0  0  0  0  0  0  0  0  0  0  0  0
   -2.6950   -0.2039    1.4727 C   0  0  0  0  0  0  0  0  0  0  0  0
   -3.4301   -0.8655    2.4660 C   0  0  0  0  0  0  0  0  0  0  0  0
   -3.1684   -2.2039    2.7629 C   0  0  0  0  0  0  0  0  0  0  0  0
   -2.1813   -2.8859    2.0570 C   0  0  0  0  0  0  0  0  0  0  0  0
   -1.8784   -4.5445    2.4011 Cl  0  0  0  0  0  0  0  0  0  0  0  0
   -1.4384   -2.2379    1.0713 C   0  0  0  0  0  0  0  0  0  0  0  0
   -1.6613   -0.8801    0.7948 C   0  0  0  0  0  0  0  0  0  0  0  0
    5.1288    1.0695    0.9797 H   0  0  0  0  0  0  0  0  0  0  0  0
    5.0351    1.7918   -0.6420 H   0  0  0  0  0  0  0  0  0  0  0  0
    3.9188    2.3177    0.6065 H   0  0  0  0  0  0  0  0  0  0  0  0
    4.8401   -1.2271   -0.0923 H   0  0  0  0  0  0  0  0  0  0  0  0
    3.5050   -1.4376   -1.2479 H   0  0  0  0  0  0  0  0  0  0  0  0
    4.8291   -0.3676   -1.6456 H   0  0  0  0  0  0  0  0  0  0  0  0
    2.2621    0.8908    1.4356 H   0  0  0  0  0  0  0  0  0  0  0  0
    3.2704   -0.5325    1.6708 H   0  0  0  0  0  0  0  0  0  0  0  0
    1.7725   -1.8158    0.0910 H   0  0  0  0  0  0  0  0  0  0  0  0
    0.9717   -1.1730    1.5180 H   0  0  0  0  0  0  0  0  0  0  0  0
    0.9438    0.3979   -1.1096 H   0  0  0  0  0  0  0  0  0  0  0  0
   -0.5491    0.2364   -2.9765 H   0  0  0  0  0  0  0  0  0  0  0  0
   -1.7751    1.8112   -4.4203 H   0  0  0  0  0  0  0  0  0  0  0  0
   -3.5646    3.2449   -3.4718 H   0  0  0  0  0  0  0  0  0  0  0  0
   -4.1372    3.0913   -1.0758 H   0  0  0  0  0  0  0  0  0  0  0  0
   -4.2206   -0.3468    3.0040 H   0  0  0  0  0  0  0  0  0  0  0  0
   -3.7477   -2.7093    3.5310 H   0  0  0  0  0  0  0  0  0  0  0  0
   -0.6898   -2.7938    0.5128 H   0  0  0  0  0  0  0  0  0  0  0  0
  1  2  1  0
  2  3  1  0
  2  4  1  0
  4  5  1  0
  5  6  1  0
  6  7  2  3
  7  8  1  0
  8  9  2  0
  9 10  1  0
 10 11  2  0
 11 12  1  0
 12 13  2  0
 13 14  1  0
 14 15  1  0
 15 16  2  0
 16 17  1  0
 17 18  2  0
 18 19  1  0
 18 20  1  0
 20 21  2  0
 21  7  1  0
 13  8  1  0
 21 15  1  0
  1 22  1  0
  1 23  1  0
  1 24  1  0
  3 25  1  0
  3 26  1  0
  3 27  1  0
  4 28  1  0
  4 29  1  0
  5 30  1  0
  5 31  1  0
  6 32  1  0
  9 33  1  0
 10 34  1  0
 11 35  1  0
 12 36  1  0
 16 37  1  0
 17 38  1  0
 20 39  1  0
M  END
$$$$
