
     RDKit          3D

 50 53  0  0  0  0  0  0  0  0999 V2000
   -5.1085   -0.3932    5.2063 C   0  0  0  0  0  0  0  0  0  0  0  0
   -4.2500   -0.5067    3.9814 C   0  0  0  0  0  0  0  0  0  0  0  0
   -3.1794   -1.4104    3.9479 C   0  0  0  0  0  0  0  0  0  0  0  0
   -2.3613   -1.4947    2.8171 C   0  0  0  0  0  0  0  0  0  0  0  0
   -2.6039   -0.6799    1.6921 C   0  0  0  0  0  0  0  0  0  0  0  0
   -1.7467   -0.8086    0.5553 N   0  0  0  0  0  0  0  0  0  0  0  0
   -0.5515   -1.4376    0.7147 N   0  0  0  0  0  0  0  0  0  0  0  0
    0.0942   -1.2632   -0.4386 C   0  0  0  0  0  0  0  0  0  0  0  0
    1.4399   -1.7246   -0.7516 C   0  0  0  0  0  0  0  0  0  0  0  0
    2.1697   -2.2991    0.0508 O   0  0  0  0  0  0  0  0  0  0  0  0
    1.8179   -1.4379   -2.0790 N   0  0  0  0  0  0  0  0  0  0  0  0
    3.1363   -1.8777   -2.5355 C   0  0  0  0  0  0  0  0  0  0  0  0
    4.2109   -0.8193   -2.2972 C   0  0  0  0  0  0  0  0  0  0  0  0
    5.3986   -1.1130   -2.2020 O   0  0  0  0  0  0  0  0  0  0  0  0
    3.7595    0.4803   -2.3392 N   0  0  0  0  0  0  0  0  0  0  0  0
    4.6150    1.6222   -2.1291 C   0  0  0  0  0  0  0  0  0  0  0  0
    4.3207    2.2626   -0.8027 C   0  0  0  0  0  0  0  0  0  0  0  0
    3.5713    1.8076    0.2701 C   0  0  0  0  0  0  0  0  0  0  0  0
    3.5615    2.7244    1.3568 C   0  0  0  0  0  0  0  0  0  0  0  0
    4.3224    3.8439    1.0930 C   0  0  0  0  0  0  0  0  0  0  0  0
    5.0171    3.8041   -0.4644 S   0  0  0  0  0  0  0  0  0  0  0  0
    1.0436   -0.7211   -3.0001 N   0  0  0  0  0  0  0  0  0  0  0  0
   -0.1584   -0.3126   -2.6931 C   0  0  0  0  0  0  0  0  0  0  0  0
   -0.9383    0.4448   -3.7268 C   0  0  0  0  0  0  0  0  0  0  0  0
   -0.6893   -0.5926   -1.3821 C   0  0  0  0  0  0  0  0  0  0  0  0
   -1.9160   -0.3860   -0.7711 C   0  0  0  0  0  0  0  0  0  0  0  0
   -3.1991    0.0955   -1.3493 C   0  0  0  0  0  0  0  0  0  0  0  0
   -3.6493    0.2539    1.7454 C   0  0  0  0  0  0  0  0  0  0  0  0
   -4.4646    0.3376    2.8813 C   0  0  0  0  0  0  0  0  0  0  0  0
   -6.1281   -0.0889    4.9412 H   0  0  0  0  0  0  0  0  0  0  0  0
   -5.1794   -1.3588    5.7232 H   0  0  0  0  0  0  0  0  0  0  0  0
   -4.6825    0.3476    5.8943 H   0  0  0  0  0  0  0  0  0  0  0  0
   -2.9702   -2.0601    4.8008 H   0  0  0  0  0  0  0  0  0  0  0  0
   -1.5405   -2.2177    2.8267 H   0  0  0  0  0  0  0  0  0  0  0  0
    3.4231   -2.7888   -2.0053 H   0  0  0  0  0  0  0  0  0  0  0  0
    3.0886   -2.0914   -3.6070 H   0  0  0  0  0  0  0  0  0  0  0  0
    2.7613    0.6221   -2.4577 H   0  0  0  0  0  0  0  0  0  0  0  0
    5.6703    1.3263   -2.1890 H   0  0  0  0  0  0  0  0  0  0  0  0
    4.4022    2.3282   -2.9461 H   0  0  0  0  0  0  0  0  0  0  0  0
    3.0558    0.8482    0.2891 H   0  0  0  0  0  0  0  0  0  0  0  0
    3.0419    2.5592    2.2931 H   0  0  0  0  0  0  0  0  0  0  0  0
    4.5048    4.6905    1.7437 H   0  0  0  0  0  0  0  0  0  0  0  0
   -1.7179   -0.2010   -4.1417 H   0  0  0  0  0  0  0  0  0  0  0  0
   -1.3928    1.3347   -3.2829 H   0  0  0  0  0  0  0  0  0  0  0  0
   -0.2776    0.7604   -4.5399 H   0  0  0  0  0  0  0  0  0  0  0  0
   -3.2626   -0.1466   -2.4127 H   0  0  0  0  0  0  0  0  0  0  0  0
   -3.2878    1.1814   -1.2460 H   0  0  0  0  0  0  0  0  0  0  0  0
   -4.0651   -0.3918   -0.8897 H   0  0  0  0  0  0  0  0  0  0  0  0
   -3.8388    0.9697    0.9498 H   0  0  0  0  0  0  0  0  0  0  0  0
   -5.2668    1.0780    2.9053 H   0  0  0  0  0  0  0  0  0  0  0  0
  1  2  1  0
  2  3  2  0
  3  4  1  0
  4  5  2  0
  5  6  1  0
  6  7  1  0
  7  8  2  0
  8  9  1  0
  9 10  2  0
  9 11  1  0
 11 12  1  0
 12 13  1  0
 13 14  2  0
 13 15  1  0
 15 16  1  0
 16 17  1  0
 17 18  2  0
 18 19  1  0
 19 20  2  0
 20 21  1  0
 11 22  1  0
 22 23  2  0
 23 24  1  0
 23 25  1  0
 25 26  2  0
 26 27  1  0
  5 28  1  0
 28 29  2  0
 29  2  1  0
 26  6  1  0
 25  8  1  0
 21 17  1  0
  1 30  1  0
  1 31  1  0
  1 32  1  0
  3 33  1  0
  4 34  1  0
 12 35  1  0
 12 36  1  0
 15 37  1  0
 16 38  1  0
 16 39  1  0
 18 40  1  0
 19 41  1  0
 20 42  1  0
 24 43  1  0
 24 44  1  0
 24 45  1  0
 27 46  1  0
 27 47  1  0
 27 48  1  0
 28 49  1  0
 29 50  1  0
M  END
$$$$
