
     RDKit          3D

 61 67  0  0  0  0  0  0  0  0999 V2000
    2.8501    0.3174    3.0179 O   0  0  0  0  0  0  0  0  0  0  0  0
    2.7793    0.0183    1.8285 C   0  0  0  0  0  0  0  0  0  0  0  0
    4.0156    0.1053    1.0189 C   0  0  0  0  0  0  0  0  0  0  0  0
    4.4727   -1.0115    0.2867 C   0  0  0  0  0  0  0  0  0  0  0  0
    5.6513   -0.9285   -0.4603 C   0  0  0  0  0  0  0  0  0  0  0  0
    6.3405    0.2660   -0.4369 C   0  0  0  0  0  0  0  0  0  0  0  0
    5.9029    1.3464    0.2958 C   0  0  0  0  0  0  0  0  0  0  0  0
    4.7469    1.2988    1.0436 C   0  0  0  0  0  0  0  0  0  0  0  0
    6.7338    2.4171    0.1857 O   0  0  0  0  0  0  0  0  0  0  0  0
    7.7505    1.8856   -0.6894 C   0  0  0  0  0  0  0  0  0  0  0  0
    7.5004    0.5242   -1.0979 O   0  0  0  0  0  0  0  0  0  0  0  0
    1.5960   -0.3959    1.2142 N   0  0  0  0  0  0  0  0  0  0  0  0
    1.3882   -0.3882   -0.2350 C   0  0  0  0  0  0  0  0  0  0  0  0
   -0.0655   -0.0896   -0.5914 C   0  0  0  0  0  0  0  0  0  0  0  0
   -1.0190   -1.1575    0.0021 C   0  0  0  0  0  0  0  0  0  0  0  0
   -0.5903   -1.5303    1.4517 C   0  0  0  0  0  0  0  0  0  0  0  0
    0.4226   -0.5650    2.0588 C   0  0  0  0  0  0  0  0  0  0  0  0
   -0.7728   -2.3251   -0.8366 O   0  0  0  0  0  0  0  0  0  0  0  0
   -1.7067   -3.3186   -0.8273 C   0  0  0  0  0  0  0  0  0  0  0  0
   -1.3136   -4.5336   -1.3920 C   0  0  0  0  0  0  0  0  0  0  0  0
   -2.1960   -5.6151   -1.4066 C   0  0  0  0  0  0  0  0  0  0  0  0
   -3.4670   -5.4723   -0.8595 C   0  0  0  0  0  0  0  0  0  0  0  0
   -4.3090   -6.5132   -0.8717 F   0  0  0  0  0  0  0  0  0  0  0  0
   -3.8767   -4.2667   -0.3059 C   0  0  0  0  0  0  0  0  0  0  0  0
   -2.9899   -3.1867   -0.3043 C   0  0  0  0  0  0  0  0  0  0  0  0
   -3.3993   -1.8868    0.2466 C   0  0  0  0  0  0  0  0  0  0  0  0
   -4.4031   -1.8179    0.9503 O   0  0  0  0  0  0  0  0  0  0  0  0
   -2.5064   -0.7044   -0.0998 C   0  0  0  0  0  0  0  0  0  0  0  0
   -2.8822    0.5396    0.6940 C   0  0  0  0  0  0  0  0  0  0  0  0
   -3.0441    1.5139   -0.4198 C   0  0  0  0  0  0  0  0  0  0  0  0
   -3.2372    2.9630   -0.1732 C   0  0  0  0  0  0  0  0  0  0  0  0
   -3.3800    3.4730    1.1229 C   0  0  0  0  0  0  0  0  0  0  0  0
   -3.5553    4.8471    1.3190 C   0  0  0  0  0  0  0  0  0  0  0  0
   -3.5898    5.7089    0.2237 C   0  0  0  0  0  0  0  0  0  0  0  0
   -3.8050    7.3970    0.4712 Cl  0  0  0  0  0  0  0  0  0  0  0  0
   -3.4525    5.2097   -1.0693 C   0  0  0  0  0  0  0  0  0  0  0  0
   -3.2772    3.8375   -1.2680 C   0  0  0  0  0  0  0  0  0  0  0  0
   -2.9980    1.0018   -1.6063 N   0  0  0  0  0  0  0  0  0  0  0  0
   -2.8287   -0.3918   -1.4705 O   0  0  0  0  0  0  0  0  0  0  0  0
    3.9187   -1.9467    0.3140 H   0  0  0  0  0  0  0  0  0  0  0  0
    6.0196   -1.7744   -1.0301 H   0  0  0  0  0  0  0  0  0  0  0  0
    4.4200    2.1510    1.6291 H   0  0  0  0  0  0  0  0  0  0  0  0
    8.7155    1.9249   -0.1711 H   0  0  0  0  0  0  0  0  0  0  0  0
    7.8061    2.5152   -1.5848 H   0  0  0  0  0  0  0  0  0  0  0  0
    1.6854   -1.3709   -0.6169 H   0  0  0  0  0  0  0  0  0  0  0  0
    2.0348    0.3643   -0.6980 H   0  0  0  0  0  0  0  0  0  0  0  0
   -0.3106    0.9112   -0.2189 H   0  0  0  0  0  0  0  0  0  0  0  0
   -0.1540   -0.0646   -1.6846 H   0  0  0  0  0  0  0  0  0  0  0  0
   -1.4584   -1.5828    2.1189 H   0  0  0  0  0  0  0  0  0  0  0  0
   -0.1440   -2.5339    1.4606 H   0  0  0  0  0  0  0  0  0  0  0  0
   -0.0185    0.4263    2.2118 H   0  0  0  0  0  0  0  0  0  0  0  0
    0.7293   -0.9316    3.0454 H   0  0  0  0  0  0  0  0  0  0  0  0
   -0.3177   -4.6414   -1.8150 H   0  0  0  0  0  0  0  0  0  0  0  0
   -1.9009   -6.5664   -1.8392 H   0  0  0  0  0  0  0  0  0  0  0  0
   -4.8779   -4.1760    0.1053 H   0  0  0  0  0  0  0  0  0  0  0  0
   -2.1100    0.8596    1.3949 H   0  0  0  0  0  0  0  0  0  0  0  0
   -3.8320    0.4639    1.2309 H   0  0  0  0  0  0  0  0  0  0  0  0
   -3.3674    2.8262    1.9955 H   0  0  0  0  0  0  0  0  0  0  0  0
   -3.6675    5.2383    2.3275 H   0  0  0  0  0  0  0  0  0  0  0  0
   -3.4824    5.8784   -1.9258 H   0  0  0  0  0  0  0  0  0  0  0  0
   -3.1738    3.4579   -2.2833 H   0  0  0  0  0  0  0  0  0  0  0  0
  1  2  2  0
  2  3  1  0
  3  4  2  0
  4  5  1  0
  5  6  2  0
  6  7  1  0
  7  8  2  0
  7  9  1  0
  9 10  1  0
 10 11  1  0
  2 12  1  0
 12 13  1  0
 13 14  1  0
 14 15  1  0
 15 16  1  0
 16 17  1  0
 15 18  1  0
 18 19  1  0
 19 20  2  0
 20 21  1  0
 21 22  2  0
 22 23  1  0
 22 24  1  0
 24 25  2  0
 25 26  1  0
 26 27  2  0
 26 28  1  0
 28 29  1  0
 29 30  1  0
 30 31  1  0
 31 32  2  0
 32 33  1  0
 33 34  2  0
 34 35  1  0
 34 36  1  0
 36 37  2  0
 30 38  2  0
 38 39  1  0
  8  3  1  0
 17 12  1  0
 25 19  1  0
 39 28  1  0
 11  6  1  0
 28 15  1  0
 37 31  1  0
  4 40  1  0
  5 41  1  0
  8 42  1  0
 10 43  1  0
 10 44  1  0
 13 45  1  0
 13 46  1  0
 14 47  1  0
 14 48  1  0
 16 49  1  0
 16 50  1  0
 17 51  1  0
 17 52  1  0
 20 53  1  0
 21 54  1  0
 24 55  1  0
 29 56  1  0
 29 57  1  0
 32 58  1  0
 33 59  1  0
 36 60  1  0
 37 61  1  0
M  END
$$$$
