
     RDKit          3D

 46 48  0  0  0  0  0  0  0  0999 V2000
    1.1206    2.4158   -0.5851 C   0  0  0  0  0  0  0  0  0  0  0  0
    0.2703    2.5220   -1.8353 C   0  0  0  0  0  0  0  0  0  0  0  0
    0.8965    3.0362   -3.0873 C   0  0  0  0  0  0  0  0  0  0  0  0
    2.0926    2.6982   -3.5925 C   0  0  0  0  0  0  0  0  0  0  0  0
    3.0347    1.7013   -3.0746 C   0  0  0  0  0  0  0  0  0  0  0  0
    4.3761    2.0569   -2.8904 C   0  0  0  0  0  0  0  0  0  0  0  0
    5.2988    1.1179   -2.4234 C   0  0  0  0  0  0  0  0  0  0  0  0
    4.8893   -0.1854   -2.1471 C   0  0  0  0  0  0  0  0  0  0  0  0
    3.5594   -0.5524   -2.3433 C   0  0  0  0  0  0  0  0  0  0  0  0
    2.6369    0.3845   -2.8136 C   0  0  0  0  0  0  0  0  0  0  0  0
   -1.0128    2.2762   -1.8831 N   0  0  0  0  0  0  0  0  0  0  0  0
   -1.5985    1.7108   -0.7816 N   0  0  0  0  0  0  0  0  0  0  0  0
   -1.3309    0.3882   -0.4471 C   0  0  0  0  0  0  0  0  0  0  0  0
   -0.4342   -0.3139   -0.8959 O   0  0  0  0  0  0  0  0  0  0  0  0
   -2.2989   -0.1886    0.5221 C   0  0  0  0  0  0  0  0  0  0  0  0
   -2.7567    0.5536    1.7501 C   0  0  0  0  0  0  0  0  0  0  0  0
   -1.8281   -0.6355    1.9099 C   0  0  0  0  0  0  0  0  0  0  0  0
   -0.4065   -0.3499    2.3405 C   0  0  0  0  0  0  0  0  0  0  0  0
   -2.3913   -1.9449    2.4465 C   0  0  0  0  0  0  0  0  0  0  0  0
   -2.1992   -3.1535    1.7544 C   0  0  0  0  0  0  0  0  0  0  0  0
   -2.7044   -4.3613    2.2419 C   0  0  0  0  0  0  0  0  0  0  0  0
   -3.4105   -4.3862    3.4409 C   0  0  0  0  0  0  0  0  0  0  0  0
   -3.6068   -3.2057    4.1519 C   0  0  0  0  0  0  0  0  0  0  0  0
   -3.0991   -2.0006    3.6592 C   0  0  0  0  0  0  0  0  0  0  0  0
    2.0265    3.0214   -0.6765 H   0  0  0  0  0  0  0  0  0  0  0  0
    0.5640    2.7972    0.2764 H   0  0  0  0  0  0  0  0  0  0  0  0
    1.4048    1.3798   -0.3950 H   0  0  0  0  0  0  0  0  0  0  0  0
    0.2660    3.7299   -3.6369 H   0  0  0  0  0  0  0  0  0  0  0  0
    2.4127    3.1750   -4.5173 H   0  0  0  0  0  0  0  0  0  0  0  0
    4.7119    3.0694   -3.1013 H   0  0  0  0  0  0  0  0  0  0  0  0
    6.3368    1.4037   -2.2754 H   0  0  0  0  0  0  0  0  0  0  0  0
    5.6055   -0.9162   -1.7810 H   0  0  0  0  0  0  0  0  0  0  0  0
    3.2336   -1.5672   -2.1292 H   0  0  0  0  0  0  0  0  0  0  0  0
    1.6030    0.0754   -2.9615 H   0  0  0  0  0  0  0  0  0  0  0  0
   -2.5687    1.9839   -0.6588 H   0  0  0  0  0  0  0  0  0  0  0  0
   -3.0372   -0.8197    0.0345 H   0  0  0  0  0  0  0  0  0  0  0  0
   -3.7974    0.4467    2.0378 H   0  0  0  0  0  0  0  0  0  0  0  0
   -2.3564    1.5411    1.9529 H   0  0  0  0  0  0  0  0  0  0  0  0
   -0.0653    0.6388    2.0157 H   0  0  0  0  0  0  0  0  0  0  0  0
   -0.3243   -0.3798    3.4325 H   0  0  0  0  0  0  0  0  0  0  0  0
    0.2781   -1.0964    1.9239 H   0  0  0  0  0  0  0  0  0  0  0  0
   -1.6409   -3.1516    0.8193 H   0  0  0  0  0  0  0  0  0  0  0  0
   -2.5415   -5.2803    1.6852 H   0  0  0  0  0  0  0  0  0  0  0  0
   -3.8027   -5.3248    3.8229 H   0  0  0  0  0  0  0  0  0  0  0  0
   -4.1517   -3.2209    5.0919 H   0  0  0  0  0  0  0  0  0  0  0  0
   -3.2545   -1.0891    4.2321 H   0  0  0  0  0  0  0  0  0  0  0  0
  1  2  1  0
  2  3  1  0
  3  4  2  3
  4  5  1  0
  5  6  2  0
  6  7  1  0
  7  8  2  0
  8  9  1  0
  9 10  2  0
  2 11  2  3
 11 12  1  0
 12 13  1  0
 13 14  2  0
 13 15  1  0
 15 16  1  0
 16 17  1  0
 17 18  1  0
 17 19  1  0
 19 20  2  0
 20 21  1  0
 21 22  2  0
 22 23  1  0
 23 24  2  0
 10  5  1  0
 17 15  1  0
 24 19  1  0
  1 25  1  0
  1 26  1  0
  1 27  1  0
  3 28  1  0
  4 29  1  0
  6 30  1  0
  7 31  1  0
  8 32  1  0
  9 33  1  0
 10 34  1  0
 12 35  1  0
 15 36  1  0
 16 37  1  0
 16 38  1  0
 18 39  1  0
 18 40  1  0
 18 41  1  0
 20 42  1  0
 21 43  1  0
 22 44  1  0
 23 45  1  0
 24 46  1  0
M  END
$$$$
