
     RDKit          3D

 24 26  0  0  0  0  0  0  0  0999 V2000
   -4.4062   -1.3685   -1.3753 F   0  0  0  0  0  0  0  0  0  0  0  0
   -3.2788   -0.7768   -0.9653 C   0  0  0  0  0  0  0  0  0  0  0  0
   -3.1308   -0.4372    0.3745 C   0  0  0  0  0  0  0  0  0  0  0  0
   -1.9539    0.1787    0.8061 C   0  0  0  0  0  0  0  0  0  0  0  0
   -0.9276    0.4487   -0.1115 C   0  0  0  0  0  0  0  0  0  0  0  0
    0.3014    1.0675    0.3344 C   0  0  0  0  0  0  0  0  0  0  0  0
    0.3925    2.3800    0.7626 C   0  0  0  0  0  0  0  0  0  0  0  0
    2.0308    2.7557    1.1922 S   0  0  0  0  0  0  0  0  0  0  0  0
    2.5231    1.1865    0.8130 C   0  0  0  0  0  0  0  0  0  0  0  0
    1.5274    0.4481    0.3930 N   0  0  0  0  0  4  0  0  0  0  0  0
    1.8761   -0.9178    0.0282 C   0  0  0  0  0  0  0  0  0  0  0  0
    3.2536   -1.2321    0.6361 C   0  0  0  0  0  0  0  0  0  0  0  0
    4.0543    0.3965    0.8992 S   0  0  0  0  0  0  0  0  0  0  0  0
   -1.0915    0.1050   -1.4619 C   0  0  0  0  0  0  0  0  0  0  0  0
   -2.2718   -0.5098   -1.8860 C   0  0  0  0  0  0  0  0  0  0  0  0
   -3.9377   -0.6522    1.0708 H   0  0  0  0  0  0  0  0  0  0  0  0
   -1.8590    0.4399    1.8592 H   0  0  0  0  0  0  0  0  0  0  0  0
   -0.3828    3.1330    0.8374 H   0  0  0  0  0  0  0  0  0  0  0  0
    1.1216   -1.6220    0.3931 H   0  0  0  0  0  0  0  0  0  0  0  0
    1.9171   -0.9799   -1.0658 H   0  0  0  0  0  0  0  0  0  0  0  0
    3.8527   -1.8766   -0.0125 H   0  0  0  0  0  0  0  0  0  0  0  0
    3.1371   -1.7159    1.6110 H   0  0  0  0  0  0  0  0  0  0  0  0
   -0.3253    0.3249   -2.2032 H   0  0  0  0  0  0  0  0  0  0  0  0
   -2.4223   -0.7756   -2.9294 H   0  0  0  0  0  0  0  0  0  0  0  0
  1  2  1  0
  2  3  2  0
  3  4  1  0
  4  5  2  0
  5  6  1  0
  6  7  2  0
  7  8  1  0
  8  9  1  0
  9 10  2  0
 10 11  1  0
 11 12  1  0
 12 13  1  0
  5 14  1  0
 14 15  2  0
 15  2  1  0
 10  6  1  0
 13  9  1  0
  3 16  1  0
  4 17  1  0
  7 18  1  0
 11 19  1  0
 11 20  1  0
 12 21  1  0
 12 22  1  0
 14 23  1  0
 15 24  1  0
M  CHG  1  10   1
M  END
$$$$
