
     RDKit          3D

 49 53  0  0  0  0  0  0  0  0999 V2000
   -7.1654   -1.4145    0.2994 C   0  0  0  0  0  0  0  0  0  0  0  0
   -5.7305   -1.6438   -0.0753 C   0  0  0  0  0  0  0  0  0  0  0  0
   -5.4010   -2.5278   -1.1125 C   0  0  0  0  0  0  0  0  0  0  0  0
   -4.0691   -2.7286   -1.4837 C   0  0  0  0  0  0  0  0  0  0  0  0
   -3.0510   -2.0376   -0.8305 C   0  0  0  0  0  0  0  0  0  0  0  0
   -3.3781   -1.1392    0.1891 C   0  0  0  0  0  0  0  0  0  0  0  0
   -2.0729   -0.2594    1.0092 S   0  0  0  0  0  6  0  0  0  0  0  0
   -2.6591    0.5738    2.0346 O   0  0  0  0  0  0  0  0  0  0  0  0
   -1.0340   -1.2233    1.3108 O   0  0  0  0  0  0  0  0  0  0  0  0
   -1.5491    0.7530   -0.2349 N   0  0  0  0  0  0  0  0  0  0  0  0
   -0.3548    1.4692    0.0730 C   0  0  0  0  0  0  0  0  0  0  0  0
   -0.6276    2.7829    0.2110 N   0  0  0  0  0  0  0  0  0  0  0  0
    0.4265    3.5725    0.4815 C   0  0  0  0  0  0  0  0  0  0  0  0
    0.2318    4.9371    0.6574 C   0  0  0  0  0  0  0  0  0  0  0  0
    1.2980    5.7929    0.9381 C   0  0  0  0  0  0  0  0  0  0  0  0
    2.5823    5.2757    1.0444 C   0  0  0  0  0  0  0  0  0  0  0  0
    2.7898    3.9069    0.8693 C   0  0  0  0  0  0  0  0  0  0  0  0
    1.7366    3.0454    0.5904 C   0  0  0  0  0  0  0  0  0  0  0  0
    1.9843    1.7319    0.4259 N   0  0  0  0  0  0  0  0  0  0  0  0
    0.9391    0.9133    0.1661 C   0  0  0  0  0  0  0  0  0  0  0  0
    1.1475   -0.4684   -0.0668 N   0  0  0  0  0  0  0  0  0  0  0  0
    2.3666   -1.1694   -0.2078 C   0  0  0  0  0  0  0  0  0  0  0  0
    2.3873   -2.5525    0.0995 C   0  0  0  0  0  0  0  0  0  0  0  0
    3.5411   -3.3262   -0.0731 C   0  0  0  0  0  0  0  0  0  0  0  0
    4.6573   -2.7002   -0.5767 C   0  0  0  0  0  0  0  0  0  0  0  0
    4.6465   -1.3671   -0.9079 C   0  0  0  0  0  0  0  0  0  0  0  0
    3.5208   -0.5839   -0.7472 C   0  0  0  0  0  0  0  0  0  0  0  0
    5.8420   -0.9478   -1.4050 O   0  0  0  0  0  0  0  0  0  0  0  0
    6.6079   -2.1673   -1.3330 C   0  0  0  0  0  0  0  0  0  0  0  0
    5.8595   -3.2874   -0.8169 O   0  0  0  0  0  0  0  0  0  0  0  0
   -4.7081   -0.9377    0.5708 C   0  0  0  0  0  0  0  0  0  0  0  0
   -7.7645   -2.3136    0.1208 H   0  0  0  0  0  0  0  0  0  0  0  0
   -7.5788   -0.5907   -0.2905 H   0  0  0  0  0  0  0  0  0  0  0  0
   -7.2566   -1.1700    1.3630 H   0  0  0  0  0  0  0  0  0  0  0  0
   -6.1845   -3.0719   -1.6372 H   0  0  0  0  0  0  0  0  0  0  0  0
   -3.8282   -3.4247   -2.2838 H   0  0  0  0  0  0  0  0  0  0  0  0
   -2.0150   -2.1975   -1.1213 H   0  0  0  0  0  0  0  0  0  0  0  0
   -2.2555    1.4783   -0.3723 H   0  0  0  0  0  0  0  0  0  0  0  0
   -0.7738    5.3431    0.5761 H   0  0  0  0  0  0  0  0  0  0  0  0
    1.1220    6.8573    1.0733 H   0  0  0  0  0  0  0  0  0  0  0  0
    3.4227    5.9300    1.2630 H   0  0  0  0  0  0  0  0  0  0  0  0
    3.7950    3.4995    0.9526 H   0  0  0  0  0  0  0  0  0  0  0  0
    0.4730   -1.0000    0.4931 H   0  0  0  0  0  0  0  0  0  0  0  0
    1.4922   -3.0343    0.4883 H   0  0  0  0  0  0  0  0  0  0  0  0
    3.5537   -4.3806    0.1761 H   0  0  0  0  0  0  0  0  0  0  0  0
    3.5463    0.4576   -1.0446 H   0  0  0  0  0  0  0  0  0  0  0  0
    7.4769   -1.9983   -0.6864 H   0  0  0  0  0  0  0  0  0  0  0  0
    6.9631   -2.4176   -2.3393 H   0  0  0  0  0  0  0  0  0  0  0  0
   -4.9523   -0.2394    1.3693 H   0  0  0  0  0  0  0  0  0  0  0  0
  1  2  1  0
  2  3  2  0
  3  4  1  0
  4  5  2  0
  5  6  1  0
  6  7  1  0
  7  8  2  0
  7  9  2  0
  7 10  1  0
 10 11  1  0
 11 12  2  0
 12 13  1  0
 13 14  2  0
 14 15  1  0
 15 16  2  0
 16 17  1  0
 17 18  2  0
 18 19  1  0
 19 20  2  0
 20 21  1  0
 21 22  1  0
 22 23  2  0
 23 24  1  0
 24 25  2  0
 25 26  1  0
 26 27  2  0
 26 28  1  0
 28 29  1  0
 29 30  1  0
  6 31  2  0
 31  2  1  0
 20 11  1  0
 27 22  1  0
 18 13  1  0
 30 25  1  0
  1 32  1  0
  1 33  1  0
  1 34  1  0
  3 35  1  0
  4 36  1  0
  5 37  1  0
 10 38  1  0
 14 39  1  0
 15 40  1  0
 16 41  1  0
 17 42  1  0
 21 43  1  0
 23 44  1  0
 24 45  1  0
 27 46  1  0
 29 47  1  0
 29 48  1  0
 31 49  1  0
M  END
$$$$
