
     RDKit          3D

 45 44  0  0  0  0  0  0  0  0999 V2000
    5.6701   -2.9717    2.5951 C   0  0  0  0  0  0  0  0  0  0  0  0
    4.2778   -3.3600    2.1241 C   0  0  0  0  0  0  0  0  0  0  0  0
    3.4836   -2.1406    1.6594 C   0  0  0  0  0  0  0  0  0  0  0  0
    2.0857   -2.5349    1.1886 C   0  0  0  0  0  0  0  0  0  0  0  0
    1.3212   -1.3835    0.7746 N   0  0  0  0  0  0  0  0  0  0  0  0
    1.4162   -0.8351   -0.4658 C   0  0  0  0  0  0  0  0  0  0  0  0
    2.0789   -1.2710   -1.3940 O   0  0  0  0  0  0  0  0  0  0  0  0
    0.6579    0.2822   -0.5033 O   0  0  0  0  0  0  0  0  0  0  0  0
    0.6455    0.9605   -1.7670 C   0  0  0  0  0  0  0  0  0  0  0  0
   -0.3525    2.1348   -1.7031 C   0  0  0  0  0  0  0  0  0  0  0  0
   -0.2506    2.9850   -2.9778 C   0  0  0  0  0  0  0  0  0  0  0  0
   -1.0924    4.2527   -2.9060 C   0  0  0  0  0  0  0  0  0  0  0  0
   -1.7168    1.6445   -1.5278 N   0  0  0  0  0  0  0  0  0  0  0  0
   -2.2459    1.3690   -0.3028 C   0  0  0  0  0  0  0  0  0  0  0  0
   -1.7581    1.6738    0.7740 O   0  0  0  0  0  0  0  0  0  0  0  0
   -3.4043    0.6875   -0.4773 O   0  0  0  0  0  0  0  0  0  0  0  0
   -4.0883    0.2886    0.7246 C   0  0  0  0  0  0  0  0  0  0  0  0
   -5.5567    0.0992    0.3638 C   0  0  0  0  0  0  0  0  0  0  0  0
   -3.4890   -1.0136    1.2450 C   0  0  0  0  0  0  0  0  0  0  0  0
    6.2391   -2.4976    1.7889 H   0  0  0  0  0  0  0  0  0  0  0  0
    5.6191   -2.2734    3.4366 H   0  0  0  0  0  0  0  0  0  0  0  0
    6.2206   -3.8590    2.9230 H   0  0  0  0  0  0  0  0  0  0  0  0
    3.7475   -3.8599    2.9430 H   0  0  0  0  0  0  0  0  0  0  0  0
    4.3641   -4.0826    1.3043 H   0  0  0  0  0  0  0  0  0  0  0  0
    4.0212   -1.6365    0.8466 H   0  0  0  0  0  0  0  0  0  0  0  0
    3.4035   -1.4151    2.4787 H   0  0  0  0  0  0  0  0  0  0  0  0
    2.1508   -3.2372    0.3500 H   0  0  0  0  0  0  0  0  0  0  0  0
    1.5281   -3.0173    1.9981 H   0  0  0  0  0  0  0  0  0  0  0  0
    0.7877   -0.8474    1.4468 H   0  0  0  0  0  0  0  0  0  0  0  0
    1.6547    1.3377   -1.9702 H   0  0  0  0  0  0  0  0  0  0  0  0
    0.3513    0.2596   -2.5584 H   0  0  0  0  0  0  0  0  0  0  0  0
   -0.1057    2.7499   -0.8284 H   0  0  0  0  0  0  0  0  0  0  0  0
    0.7941    3.2752   -3.1424 H   0  0  0  0  0  0  0  0  0  0  0  0
   -0.5633    2.3988   -3.8508 H   0  0  0  0  0  0  0  0  0  0  0  0
   -0.9514    4.8495   -3.8128 H   0  0  0  0  0  0  0  0  0  0  0  0
   -0.8024    4.8671   -2.0477 H   0  0  0  0  0  0  0  0  0  0  0  0
   -2.1586    4.0213   -2.8203 H   0  0  0  0  0  0  0  0  0  0  0  0
   -2.1889    1.1877   -2.2955 H   0  0  0  0  0  0  0  0  0  0  0  0
   -4.0175    1.0745    1.4865 H   0  0  0  0  0  0  0  0  0  0  0  0
   -6.1445   -0.2070    1.2345 H   0  0  0  0  0  0  0  0  0  0  0  0
   -5.6751   -0.6539   -0.4233 H   0  0  0  0  0  0  0  0  0  0  0  0
   -5.9752    1.0323   -0.0290 H   0  0  0  0  0  0  0  0  0  0  0  0
   -2.4343   -0.8817    1.5079 H   0  0  0  0  0  0  0  0  0  0  0  0
   -4.0224   -1.3682    2.1322 H   0  0  0  0  0  0  0  0  0  0  0  0
   -3.5245   -1.7948    0.4775 H   0  0  0  0  0  0  0  0  0  0  0  0
  1  2  1  0
  2  3  1  0
  3  4  1  0
  4  5  1  0
  5  6  1  0
  6  7  2  0
  6  8  1  0
  8  9  1  0
  9 10  1  0
 10 11  1  0
 11 12  1  0
 10 13  1  0
 13 14  1  0
 14 15  2  0
 14 16  1  0
 16 17  1  0
 17 18  1  0
 17 19  1  0
  1 20  1  0
  1 21  1  0
  1 22  1  0
  2 23  1  0
  2 24  1  0
  3 25  1  0
  3 26  1  0
  4 27  1  0
  4 28  1  0
  5 29  1  0
  9 30  1  0
  9 31  1  0
 10 32  1  0
 11 33  1  0
 11 34  1  0
 12 35  1  0
 12 36  1  0
 12 37  1  0
 13 38  1  0
 17 39  1  0
 18 40  1  0
 18 41  1  0
 18 42  1  0
 19 43  1  0
 19 44  1  0
 19 45  1  0
M  END
$$$$
