
     RDKit          3D

 69 75  0  0  0  0  0  0  0  0999 V2000
   -4.7094    5.1638    2.4550 C   0  0  0  0  0  0  0  0  0  0  0  0
   -4.0648    4.3356    1.3839 C   0  0  0  0  0  0  0  0  0  0  0  0
   -4.4165    4.4832    0.0306 C   0  0  0  0  0  0  0  0  0  0  0  0
   -5.6014    5.6411   -0.4695 Cl  0  0  0  0  0  0  0  0  0  0  0  0
   -3.8328    3.6866   -0.9709 C   0  0  0  0  0  0  0  0  0  0  0  0
   -2.8733    2.7237   -0.6512 C   0  0  0  0  0  0  0  0  0  0  0  0
   -2.4945    2.5753    0.6760 C   0  0  0  0  0  0  0  0  0  0  0  0
   -3.1104    3.3615    1.6654 C   0  0  0  0  0  0  0  0  0  0  0  0
   -2.6526    2.9820    2.9230 N   0  0  0  0  0  0  0  0  0  0  0  0
   -1.7460    1.9294    2.8486 C   0  0  0  0  0  0  0  0  0  0  0  0
   -1.2418    1.3877    3.8240 O   0  0  0  0  0  0  0  0  0  0  0  0
   -1.5119    1.6291    1.3259 C   0  0  1  0  0  0  0  0  0  0  0  0
   -1.8106    0.2199    0.9857 C   0  0  0  0  0  0  0  0  0  0  0  0
   -0.6201   -0.5121    0.9267 C   0  0  0  0  0  0  0  0  0  0  0  0
   -0.9127   -1.8199    0.6583 C   0  0  0  0  0  0  0  0  0  0  0  0
   -0.0843   -2.8636    0.6516 O   0  0  0  0  0  0  0  0  0  0  0  0
   -2.3076   -1.8965    0.4797 N   0  0  0  0  0  0  0  0  0  0  0  0
   -3.0398   -3.0771    0.1595 C   0  0  0  0  0  0  0  0  0  0  0  0
   -2.5215   -3.9931   -0.7654 C   0  0  0  0  0  0  0  0  0  0  0  0
   -3.2359   -5.1526   -1.0716 C   0  0  0  0  0  0  0  0  0  0  0  0
   -4.4627   -5.4014   -0.4565 C   0  0  0  0  0  0  0  0  0  0  0  0
   -4.9814   -4.4911    0.4632 C   0  0  0  0  0  0  0  0  0  0  0  0
   -4.2738   -3.3285    0.7740 C   0  0  0  0  0  0  0  0  0  0  0  0
   -2.8549   -0.6153    0.6897 C   0  0  0  0  0  0  0  0  0  0  0  0
   -4.1429   -0.3067    0.5481 O   0  0  0  0  0  0  0  0  0  0  0  0
    0.5446    0.3457    1.2783 C   0  0  1  0  0  0  0  0  0  0  0  0
    1.8895   -0.0239    0.6111 C   0  0  0  0  0  0  0  0  0  0  0  0
    2.1517    0.6361   -0.6708 N   0  0  0  0  0  0  0  0  0  0  0  0
    2.9381    0.1419   -1.6943 C   0  0  0  0  0  0  0  0  0  0  0  0
    3.1227    0.7566   -2.7427 O   0  0  0  0  0  0  0  0  0  0  0  0
    3.4826   -1.0937   -1.4741 N   0  0  0  0  0  0  0  0  0  0  0  0
    4.3795   -1.7006   -2.4328 C   0  0  0  0  0  0  0  0  0  0  0  0
    5.8193   -1.4620   -2.0522 C   0  0  0  0  0  0  0  0  0  0  0  0
    6.5422   -2.4287   -1.3380 C   0  0  0  0  0  0  0  0  0  0  0  0
    7.8671   -2.1902   -0.9664 C   0  0  0  0  0  0  0  0  0  0  0  0
    8.4796   -0.9831   -1.2993 C   0  0  0  0  0  0  0  0  0  0  0  0
    7.7679   -0.0115   -2.0011 C   0  0  0  0  0  0  0  0  0  0  0  0
    6.4437   -0.2481   -2.3734 C   0  0  0  0  0  0  0  0  0  0  0  0
    1.7429    2.0348   -0.7218 C   0  0  0  0  0  0  0  0  0  0  0  0
    0.2682    2.1815   -0.3359 C   0  0  0  0  0  0  0  0  0  0  0  0
   -0.0169    1.7474    1.0472 N   0  0  0  0  0  0  0  0  0  0  0  0
   -5.7763    4.9281    2.5244 H   0  0  0  0  0  0  0  0  0  0  0  0
   -4.5852    6.2308    2.2414 H   0  0  0  0  0  0  0  0  0  0  0  0
   -4.2713    4.9896    3.4424 H   0  0  0  0  0  0  0  0  0  0  0  0
   -4.1355    3.8091   -2.0087 H   0  0  0  0  0  0  0  0  0  0  0  0
   -2.4590    2.0954   -1.4329 H   0  0  0  0  0  0  0  0  0  0  0  0
   -2.9616    3.3478    3.8100 H   0  0  0  0  0  0  0  0  0  0  0  0
   -0.5990   -3.6776    0.7962 H   0  0  0  0  0  0  0  0  0  0  0  0
   -1.5862   -3.8023   -1.2895 H   0  0  0  0  0  0  0  0  0  0  0  0
   -2.8381   -5.8601   -1.7946 H   0  0  0  0  0  0  0  0  0  0  0  0
   -5.0163   -6.3067   -0.6957 H   0  0  0  0  0  0  0  0  0  0  0  0
   -5.9332   -4.6938    0.9498 H   0  0  0  0  0  0  0  0  0  0  0  0
   -4.6786   -2.6598    1.5313 H   0  0  0  0  0  0  0  0  0  0  0  0
   -4.5719   -0.9756   -0.0146 H   0  0  0  0  0  0  0  0  0  0  0  0
    0.6975    0.2345    2.3613 H   0  0  0  0  0  0  0  0  0  0  0  0
    1.9699   -1.1093    0.5084 H   0  0  0  0  0  0  0  0  0  0  0  0
    2.7066    0.3002    1.2688 H   0  0  0  0  0  0  0  0  0  0  0  0
    3.6608   -1.3377   -0.5144 H   0  0  0  0  0  0  0  0  0  0  0  0
    4.1644   -2.7753   -2.4346 H   0  0  0  0  0  0  0  0  0  0  0  0
    4.1846   -1.3322   -3.4467 H   0  0  0  0  0  0  0  0  0  0  0  0
    6.0769   -3.3744   -1.0679 H   0  0  0  0  0  0  0  0  0  0  0  0
    8.4225   -2.9446   -0.4154 H   0  0  0  0  0  0  0  0  0  0  0  0
    9.5107   -0.7977   -1.0084 H   0  0  0  0  0  0  0  0  0  0  0  0
    8.2402    0.9336   -2.2564 H   0  0  0  0  0  0  0  0  0  0  0  0
    5.8922    0.5215   -2.9125 H   0  0  0  0  0  0  0  0  0  0  0  0
    2.3838    2.5957   -0.0313 H   0  0  0  0  0  0  0  0  0  0  0  0
    1.8970    2.4557   -1.7201 H   0  0  0  0  0  0  0  0  0  0  0  0
   -0.3128    1.6032   -1.0640 H   0  0  0  0  0  0  0  0  0  0  0  0
   -0.0012    3.2386   -0.4396 H   0  0  0  0  0  0  0  0  0  0  0  0
  1  2  1  0
  2  3  2  0
  3  4  1  0
  3  5  1  0
  5  6  2  0
  6  7  1  0
  7  8  2  0
  8  9  1  0
  9 10  1  0
 10 11  2  0
 10 12  1  0
 12 13  1  0
 13 14  1  0
 14 15  2  0
 15 16  1  0
 15 17  1  0
 17 18  1  0
 18 19  2  0
 19 20  1  0
 20 21  2  0
 21 22  1  0
 22 23  2  0
 17 24  1  0
 24 25  1  0
 14 26  1  0
 26 27  1  0
 27 28  1  0
 28 29  1  0
 29 30  2  0
 29 31  1  0
 31 32  1  0
 32 33  1  0
 33 34  2  0
 34 35  1  0
 35 36  2  0
 36 37  1  0
 37 38  2  0
 28 39  1  0
 39 40  1  0
 40 41  1  0
  8  2  1  0
 12 41  1  6
 12  7  1  0
 24 13  2  0
 41 26  1  0
 23 18  1  0
 38 33  1  0
  1 42  1  0
  1 43  1  0
  1 44  1  0
  5 45  1  0
  6 46  1  0
  9 47  1  0
 16 48  1  0
 19 49  1  0
 20 50  1  0
 21 51  1  0
 22 52  1  0
 23 53  1  0
 25 54  1  0
 26 55  1  1
 27 56  1  0
 27 57  1  0
 31 58  1  0
 32 59  1  0
 32 60  1  0
 34 61  1  0
 35 62  1  0
 36 63  1  0
 37 64  1  0
 38 65  1  0
 39 66  1  0
 39 67  1  0
 40 68  1  0
 40 69  1  0
M  END
$$$$
