
     RDKit          3D

 47 49  0  0  0  0  0  0  0  0999 V2000
   -3.4100    2.0118   -1.4931 C   0  0  0  0  0  0  0  0  0  0  0  0
   -2.9539    1.3861   -0.1847 C   0  0  0  0  0  0  0  0  0  0  0  0
   -3.3953   -0.0115   -0.0700 N   0  0  0  0  0  4  0  0  0  0  0  0
   -2.6549   -1.0387   -0.4672 C   0  0  0  0  0  0  0  0  0  0  0  0
   -1.3584   -1.0014   -1.0312 C   0  0  0  0  0  0  0  0  0  0  0  0
   -0.2393   -0.7889   -0.3192 C   0  0  0  0  0  0  0  0  0  0  0  0
   -0.1265   -0.5926    1.1155 C   0  0  0  0  0  0  0  0  0  0  0  0
    1.0030   -0.2741    1.7693 C   0  0  0  0  0  0  0  0  0  0  0  0
    2.3087   -0.0497    1.1471 C   0  0  0  0  0  0  0  0  0  0  0  0
    3.1943   -1.1078    0.9651 C   0  0  0  0  0  0  0  0  0  0  0  0
    4.4384   -0.8918    0.3540 C   0  0  0  0  0  0  0  0  0  0  0  0
    4.8423    0.3743   -0.1045 C   0  0  0  0  0  0  0  0  0  0  0  0
    6.0901    0.5948   -0.6948 N   0  0  0  0  0  0  0  0  0  0  0  0
    6.2612    1.7599   -1.5676 C   0  0  0  0  0  0  0  0  0  0  0  0
    6.9634   -0.5399   -0.9867 C   0  0  0  0  0  0  0  0  0  0  0  0
    3.9305    1.4233    0.1125 C   0  0  0  0  0  0  0  0  0  0  0  0
    2.6833    1.2215    0.7226 C   0  0  0  0  0  0  0  0  0  0  0  0
   -3.4926   -2.5208   -0.2657 S   0  0  0  0  0  0  0  0  0  0  0  0
   -4.8665   -1.7322    0.4028 C   0  0  0  0  0  0  0  0  0  0  0  0
   -6.0657   -2.2998    0.8610 C   0  0  0  0  0  0  0  0  0  0  0  0
   -7.0529   -1.4447    1.3536 C   0  0  0  0  0  0  0  0  0  0  0  0
   -6.8526   -0.0686    1.3897 C   0  0  0  0  0  0  0  0  0  0  0  0
   -5.6534    0.4927    0.9333 C   0  0  0  0  0  0  0  0  0  0  0  0
   -4.6450   -0.3572    0.4344 C   0  0  0  0  0  0  0  0  0  0  0  0
   -3.0721    3.0510   -1.5564 H   0  0  0  0  0  0  0  0  0  0  0  0
   -3.0037    1.4640   -2.3497 H   0  0  0  0  0  0  0  0  0  0  0  0
   -4.5013    2.0001   -1.5787 H   0  0  0  0  0  0  0  0  0  0  0  0
   -1.8659    1.4564   -0.1065 H   0  0  0  0  0  0  0  0  0  0  0  0
   -3.3399    1.9605    0.6639 H   0  0  0  0  0  0  0  0  0  0  0  0
   -1.2674   -1.1932   -2.1017 H   0  0  0  0  0  0  0  0  0  0  0  0
    0.7009   -0.7902   -0.8766 H   0  0  0  0  0  0  0  0  0  0  0  0
   -1.0144   -0.7398    1.7269 H   0  0  0  0  0  0  0  0  0  0  0  0
    0.9954   -0.1696    2.8529 H   0  0  0  0  0  0  0  0  0  0  0  0
    2.9377   -2.1104    1.2988 H   0  0  0  0  0  0  0  0  0  0  0  0
    5.0864   -1.7574    0.2473 H   0  0  0  0  0  0  0  0  0  0  0  0
    7.2582    1.7767   -2.0205 H   0  0  0  0  0  0  0  0  0  0  0  0
    6.1706    2.6963   -1.0070 H   0  0  0  0  0  0  0  0  0  0  0  0
    5.5307    1.7479   -2.3852 H   0  0  0  0  0  0  0  0  0  0  0  0
    7.9375   -0.2016   -1.3569 H   0  0  0  0  0  0  0  0  0  0  0  0
    7.1723   -1.1253   -0.0857 H   0  0  0  0  0  0  0  0  0  0  0  0
    6.5219   -1.1849   -1.7516 H   0  0  0  0  0  0  0  0  0  0  0  0
    4.1812    2.4413   -0.1694 H   0  0  0  0  0  0  0  0  0  0  0  0
    2.0283    2.0734    0.8752 H   0  0  0  0  0  0  0  0  0  0  0  0
   -6.2299   -3.3739    0.8341 H   0  0  0  0  0  0  0  0  0  0  0  0
   -7.9935   -1.8626    1.7137 H   0  0  0  0  0  0  0  0  0  0  0  0
   -7.6409    0.5765    1.7779 H   0  0  0  0  0  0  0  0  0  0  0  0
   -5.5401    1.5725    0.9790 H   0  0  0  0  0  0  0  0  0  0  0  0
  1  2  1  0
  2  3  1  0
  3  4  2  0
  4  5  1  0
  5  6  2  3
  6  7  1  0
  7  8  2  3
  8  9  1  0
  9 10  2  0
 10 11  1  0
 11 12  2  0
 12 13  1  0
 13 14  1  0
 13 15  1  0
 12 16  1  0
 16 17  2  0
  4 18  1  0
 18 19  1  0
 19 20  2  0
 20 21  1  0
 21 22  2  0
 22 23  1  0
 23 24  2  0
 24  3  1  0
 17  9  1  0
 24 19  1  0
  1 25  1  0
  1 26  1  0
  1 27  1  0
  2 28  1  0
  2 29  1  0
  5 30  1  0
  6 31  1  0
  7 32  1  0
  8 33  1  0
 10 34  1  0
 11 35  1  0
 14 36  1  0
 14 37  1  0
 14 38  1  0
 15 39  1  0
 15 40  1  0
 15 41  1  0
 16 42  1  0
 17 43  1  0
 20 44  1  0
 21 45  1  0
 22 46  1  0
 23 47  1  0
M  CHG  1   3   1
M  END
$$$$
