
     RDKit          3D

 39 41  0  0  0  0  0  0  0  0999 V2000
    5.4078   -0.8474   -1.5117 C   0  0  0  0  0  0  0  0  0  0  0  0
    4.5002    0.3007   -1.9161 C   0  0  0  0  0  0  0  0  0  0  0  0
    4.0665    1.0889   -0.7734 N   0  0  0  0  0  0  0  0  0  0  0  0
    4.8399    2.1335   -0.3948 N   0  0  0  0  0  0  0  0  0  0  0  0
    4.1929    2.6474    0.6500 C   0  0  0  0  0  0  0  0  0  0  0  0
    3.0081    1.9535    0.9176 C   0  0  0  0  0  0  0  0  0  0  0  0
    1.8842    2.3749    2.3550 Br  0  0  0  0  0  0  0  0  0  0  0  0
    2.9125    0.9492   -0.0262 C   0  0  0  0  0  0  0  0  0  0  0  0
    1.9186   -0.0851   -0.2453 C   0  0  0  0  0  0  0  0  0  0  0  0
    2.2297   -1.1555   -0.7538 O   0  0  0  0  0  0  0  0  0  0  0  0
    0.6393    0.2872    0.1219 N   0  0  0  0  0  0  0  0  0  0  0  0
   -0.5207   -0.4755    0.0675 C   0  0  0  0  0  0  0  0  0  0  0  0
   -0.4736   -2.1413   -0.3427 S   0  0  0  0  0  0  0  0  0  0  0  0
   -2.1225   -2.2709   -0.1536 C   0  0  0  0  0  0  0  0  0  0  0  0
   -2.7333   -1.1066    0.2153 C   0  0  0  0  0  0  0  0  0  0  0  0
   -1.8155   -0.0250    0.3477 C   0  0  0  0  0  0  0  0  0  0  0  0
   -2.1182    1.3579    0.7055 C   0  0  0  0  0  0  0  0  0  0  0  0
   -1.2579    2.2302    0.7784 O   0  0  0  0  0  0  0  0  0  0  0  0
   -3.4449    1.5703    0.9415 O   0  0  0  0  0  0  0  0  0  0  0  0
   -3.7677    2.9156    1.2931 C   0  0  0  0  0  0  0  0  0  0  0  0
   -4.1997   -1.3052    0.3616 C   0  0  0  0  0  0  0  0  0  0  0  0
   -4.3311   -2.8607    0.3553 C   0  0  0  0  0  0  0  0  0  0  0  0
   -3.0415   -3.4200   -0.3171 C   0  0  0  0  0  0  0  0  0  0  0  0
    4.9069   -1.5307   -0.8187 H   0  0  0  0  0  0  0  0  0  0  0  0
    5.7132   -1.4183   -2.3940 H   0  0  0  0  0  0  0  0  0  0  0  0
    6.3118   -0.4777   -1.0160 H   0  0  0  0  0  0  0  0  0  0  0  0
    5.0312    0.9776   -2.5961 H   0  0  0  0  0  0  0  0  0  0  0  0
    3.6166   -0.0544   -2.4538 H   0  0  0  0  0  0  0  0  0  0  0  0
    4.6203    3.4971    1.1666 H   0  0  0  0  0  0  0  0  0  0  0  0
    0.5028    1.2484    0.4297 H   0  0  0  0  0  0  0  0  0  0  0  0
   -4.8466    2.9717    1.4621 H   0  0  0  0  0  0  0  0  0  0  0  0
   -3.5094    3.5978    0.4772 H   0  0  0  0  0  0  0  0  0  0  0  0
   -3.2574    3.2038    2.2174 H   0  0  0  0  0  0  0  0  0  0  0  0
   -4.5968   -0.8859    1.2901 H   0  0  0  0  0  0  0  0  0  0  0  0
   -4.7315   -0.8724   -0.4921 H   0  0  0  0  0  0  0  0  0  0  0  0
   -5.2428   -3.1987   -0.1471 H   0  0  0  0  0  0  0  0  0  0  0  0
   -4.3758   -3.2180    1.3928 H   0  0  0  0  0  0  0  0  0  0  0  0
   -2.6952   -4.3282    0.1835 H   0  0  0  0  0  0  0  0  0  0  0  0
   -3.2202   -3.6283   -1.3769 H   0  0  0  0  0  0  0  0  0  0  0  0
  1  2  1  0
  2  3  1  0
  3  4  1  0
  4  5  2  0
  5  6  1  0
  6  7  1  0
  6  8  2  0
  8  9  1  0
  9 10  2  0
  9 11  1  0
 11 12  1  0
 12 13  1  0
 13 14  1  0
 14 15  2  0
 15 16  1  0
 16 17  1  0
 17 18  2  0
 17 19  1  0
 19 20  1  0
 15 21  1  0
 21 22  1  0
 22 23  1  0
  8  3  1  0
 16 12  2  0
 23 14  1  0
  1 24  1  0
  1 25  1  0
  1 26  1  0
  2 27  1  0
  2 28  1  0
  5 29  1  0
 11 30  1  0
 20 31  1  0
 20 32  1  0
 20 33  1  0
 21 34  1  0
 21 35  1  0
 22 36  1  0
 22 37  1  0
 23 38  1  0
 23 39  1  0
M  END
$$$$
