
     RDKit          3D

 42 44  0  0  0  0  0  0  0  0999 V2000
   -3.2546    3.2230    0.9853 C   0  0  0  0  0  0  0  0  0  0  0  0
   -2.1905    2.6694    1.7535 O   0  0  0  0  0  0  0  0  0  0  0  0
   -1.9534    1.3313    1.5852 C   0  0  0  0  0  0  0  0  0  0  0  0
   -1.0867    0.7698    2.5282 C   0  0  0  0  0  0  0  0  0  0  0  0
   -0.7018   -0.5677    2.4328 C   0  0  0  0  0  0  0  0  0  0  0  0
   -1.2000   -1.3507    1.3901 C   0  0  0  0  0  0  0  0  0  0  0  0
   -0.6675   -3.0382    1.2309 S   0  0  0  0  0  6  0  0  0  0  0  0
    0.4683   -3.2432    2.1038 O   0  0  0  0  0  0  0  0  0  0  0  0
   -1.8530   -3.8632    1.3364 O   0  0  0  0  0  0  0  0  0  0  0  0
   -0.1552   -3.1718   -0.3610 N   0  0  0  0  0  0  0  0  0  0  0  0
    0.7480   -2.2700   -1.0047 C   0  0  0  0  0  0  0  0  0  0  0  0
    1.7241   -1.5604   -0.2938 C   0  0  0  0  0  0  0  0  0  0  0  0
    2.5765   -0.6582   -0.9450 C   0  0  0  0  0  0  0  0  0  0  0  0
    3.7452    0.3063    0.0012 S   0  0  0  0  0  0  0  0  0  0  0  0
    2.7282    1.5675    0.6603 C   0  0  0  0  0  0  0  0  0  0  0  0
    3.1206    2.3396    1.7216 N   0  0  0  0  0  0  0  0  0  0  0  0
    2.0917    3.1315    1.9120 C   0  0  0  0  0  0  0  0  0  0  0  0
    1.1272    2.8467    0.9996 N   0  0  0  0  0  0  0  0  0  0  0  0
    1.5225    1.8709    0.1676 N   0  0  0  0  0  0  0  0  0  0  0  0
    2.4910   -0.5261   -2.3316 C   0  0  0  0  0  0  0  0  0  0  0  0
    3.2958    0.3267   -3.0360 O   0  0  0  0  0  0  0  0  0  0  0  0
    1.5692   -1.2677   -3.0607 C   0  0  0  0  0  0  0  0  0  0  0  0
    0.6899   -2.1475   -2.4093 C   0  0  0  0  0  0  0  0  0  0  0  0
   -0.2971   -2.9174   -3.2445 C   0  0  0  0  0  0  0  0  0  0  0  0
   -2.0920   -0.8114    0.4597 C   0  0  0  0  0  0  0  0  0  0  0  0
   -2.4609    0.5346    0.5551 C   0  0  0  0  0  0  0  0  0  0  0  0
   -4.1890    2.6734    1.1423 H   0  0  0  0  0  0  0  0  0  0  0  0
   -3.4115    4.2515    1.3254 H   0  0  0  0  0  0  0  0  0  0  0  0
   -2.9891    3.2593   -0.0762 H   0  0  0  0  0  0  0  0  0  0  0  0
   -0.6956    1.3799    3.3388 H   0  0  0  0  0  0  0  0  0  0  0  0
   -0.0136   -0.9828    3.1656 H   0  0  0  0  0  0  0  0  0  0  0  0
   -0.8068   -3.7094   -0.9269 H   0  0  0  0  0  0  0  0  0  0  0  0
    1.8318   -1.6833    0.7795 H   0  0  0  0  0  0  0  0  0  0  0  0
    1.9879    3.8930    2.6719 H   0  0  0  0  0  0  0  0  0  0  0  0
    0.1964    3.2398    0.9032 H   0  0  0  0  0  0  0  0  0  0  0  0
    3.8377    0.8071   -2.3832 H   0  0  0  0  0  0  0  0  0  0  0  0
    1.5369   -1.1466   -4.1410 H   0  0  0  0  0  0  0  0  0  0  0  0
   -0.1455   -3.9943   -3.1174 H   0  0  0  0  0  0  0  0  0  0  0  0
   -1.3207   -2.6527   -2.9618 H   0  0  0  0  0  0  0  0  0  0  0  0
   -0.1839   -2.6968   -4.3113 H   0  0  0  0  0  0  0  0  0  0  0  0
   -2.4896   -1.4224   -0.3463 H   0  0  0  0  0  0  0  0  0  0  0  0
   -3.1312    0.9335   -0.1993 H   0  0  0  0  0  0  0  0  0  0  0  0
  1  2  1  0
  2  3  1  0
  3  4  2  0
  4  5  1  0
  5  6  2  0
  6  7  1  0
  7  8  2  0
  7  9  2  0
  7 10  1  0
 10 11  1  0
 11 12  2  0
 12 13  1  0
 13 14  1  0
 14 15  1  0
 15 16  1  0
 16 17  2  0
 17 18  1  0
 18 19  1  0
 13 20  2  0
 20 21  1  0
 20 22  1  0
 22 23  2  0
 23 24  1  0
  6 25  1  0
 25 26  2  0
 26  3  1  0
 23 11  1  0
 19 15  2  0
  1 27  1  0
  1 28  1  0
  1 29  1  0
  4 30  1  0
  5 31  1  0
 10 32  1  0
 12 33  1  0
 17 34  1  0
 18 35  1  0
 21 36  1  0
 22 37  1  0
 24 38  1  0
 24 39  1  0
 24 40  1  0
 25 41  1  0
 26 42  1  0
M  END
$$$$
