
     RDKit          3D

 37 39  0  0  0  0  0  0  0  0999 V2000
    6.4312   -0.2669    0.3458 C   0  0  0  0  0  0  0  0  0  0  0  0
    5.3324    0.0080   -0.5155 O   0  0  0  0  0  0  0  0  0  0  0  0
    4.0775   -0.0879    0.0231 C   0  0  0  0  0  0  0  0  0  0  0  0
    3.7797   -0.4492    1.3439 C   0  0  0  0  0  0  0  0  0  0  0  0
    2.4531   -0.5114    1.7782 C   0  0  0  0  0  0  0  0  0  0  0  0
    1.4443   -0.2109    0.8752 C   0  0  0  0  0  0  0  0  0  0  0  0
    1.7169    0.1539   -0.4589 C   0  0  0  0  0  0  0  0  0  0  0  0
    3.0425    0.2131   -0.8755 C   0  0  0  0  0  0  0  0  0  0  0  0
    0.5618    0.4178   -1.2288 N   0  0  0  0  0  0  0  0  0  0  0  0
    0.7236    0.9919   -2.5543 C   0  0  0  0  0  0  0  0  0  0  0  0
   -0.6021    0.3194   -0.4641 C   0  0  0  0  0  0  0  0  0  0  0  0
   -1.8589    0.5592   -0.8836 C   0  0  0  0  0  0  0  0  0  0  0  0
   -3.0661    0.4467   -0.0600 C   0  0  0  0  0  0  0  0  0  0  0  0
   -3.5440    1.5759    0.6157 C   0  0  0  0  0  0  0  0  0  0  0  0
   -4.6773    1.4813    1.4121 C   0  0  0  0  0  0  0  0  0  0  0  0
   -5.3197    0.2592    1.5286 C   0  0  0  0  0  0  0  0  0  0  0  0
   -4.8209   -0.8421    0.8442 C   0  0  0  0  0  0  0  0  0  0  0  0
   -3.7216   -0.7411    0.0589 N   0  0  0  0  0  4  0  0  0  0  0  0
   -3.2378   -1.9496   -0.6397 C   0  0  0  0  0  0  0  0  0  0  0  0
   -0.3080   -0.2068    1.2225 S   0  0  0  0  0  0  0  0  0  0  0  0
    6.4629    0.4391    1.1821 H   0  0  0  0  0  0  0  0  0  0  0  0
    6.4031   -1.3020    0.7017 H   0  0  0  0  0  0  0  0  0  0  0  0
    7.3504   -0.1386   -0.2338 H   0  0  0  0  0  0  0  0  0  0  0  0
    4.5616   -0.6855    2.0594 H   0  0  0  0  0  0  0  0  0  0  0  0
    2.2251   -0.7853    2.8035 H   0  0  0  0  0  0  0  0  0  0  0  0
    3.3071    0.4885   -1.8912 H   0  0  0  0  0  0  0  0  0  0  0  0
   -0.2259    1.0553   -3.0939 H   0  0  0  0  0  0  0  0  0  0  0  0
    1.3844    0.3759   -3.1743 H   0  0  0  0  0  0  0  0  0  0  0  0
    1.1362    2.0048   -2.4896 H   0  0  0  0  0  0  0  0  0  0  0  0
   -2.0485    0.8812   -1.9022 H   0  0  0  0  0  0  0  0  0  0  0  0
   -3.0255    2.5301    0.5328 H   0  0  0  0  0  0  0  0  0  0  0  0
   -5.0499    2.3547    1.9455 H   0  0  0  0  0  0  0  0  0  0  0  0
   -6.2042    0.1625    2.1551 H   0  0  0  0  0  0  0  0  0  0  0  0
   -5.2997   -1.8145    0.9232 H   0  0  0  0  0  0  0  0  0  0  0  0
   -2.3255   -2.2883   -0.1442 H   0  0  0  0  0  0  0  0  0  0  0  0
   -3.0617   -1.7035   -1.6899 H   0  0  0  0  0  0  0  0  0  0  0  0
   -3.9967   -2.7349   -0.5883 H   0  0  0  0  0  0  0  0  0  0  0  0
  1  2  1  0
  2  3  1  0
  3  4  2  0
  4  5  1  0
  5  6  2  0
  6  7  1  0
  7  8  2  0
  7  9  1  0
  9 10  1  0
  9 11  1  0
 11 12  2  3
 12 13  1  0
 13 14  2  0
 14 15  1  0
 15 16  2  0
 16 17  1  0
 17 18  2  0
 18 19  1  0
 11 20  1  0
  8  3  1  0
 18 13  1  0
 20  6  1  0
  1 21  1  0
  1 22  1  0
  1 23  1  0
  4 24  1  0
  5 25  1  0
  8 26  1  0
 10 27  1  0
 10 28  1  0
 10 29  1  0
 12 30  1  0
 14 31  1  0
 15 32  1  0
 16 33  1  0
 17 34  1  0
 19 35  1  0
 19 36  1  0
 19 37  1  0
M  CHG  1  18   1
M  END
$$$$
