
     RDKit          3D

 39 40  0  0  0  0  0  0  0  0999 V2000
   -1.5417    0.5812   -2.3220 C   0  0  0  0  0  0  0  0  0  0  0  0
   -2.4280    0.2341   -1.1430 C   0  0  0  0  0  0  0  0  0  0  0  0
   -1.9308   -0.0992    0.0637 C   0  0  0  0  0  0  0  0  0  0  0  0
   -0.4728   -0.2314    0.3270 C   0  0  0  0  0  0  0  0  0  0  0  0
    0.3421   -0.8561   -0.4659 N   0  0  0  0  0  0  0  0  0  0  0  0
    1.6688   -0.8522   -0.1159 N   0  0  0  0  0  0  0  0  0  0  0  0
    2.3558    0.2684    0.3356 C   0  0  0  0  0  0  0  0  0  0  0  0
    1.8273    1.3402    0.6260 O   0  0  0  0  0  0  0  0  0  0  0  0
    3.8439    0.1319    0.4576 C   0  0  0  0  0  0  0  0  0  0  0  0
    4.5315    1.1842    1.0864 C   0  0  0  0  0  0  0  0  0  0  0  0
    5.9160    1.1293    1.2405 C   0  0  0  0  0  0  0  0  0  0  0  0
    6.8239    2.5522    2.0915 Br  0  0  0  0  0  0  0  0  0  0  0  0
    6.6374    0.0338    0.7730 C   0  0  0  0  0  0  0  0  0  0  0  0
    5.9700   -1.0168    0.1426 C   0  0  0  0  0  0  0  0  0  0  0  0
    4.5812   -0.9668   -0.0154 C   0  0  0  0  0  0  0  0  0  0  0  0
    3.9564   -2.0077   -0.6514 O   0  0  0  0  0  0  0  0  0  0  0  0
   -2.8545   -0.3128    1.2005 C   0  0  0  0  0  0  0  0  0  0  0  0
   -2.4043   -0.6458    2.2969 O   0  0  0  0  0  0  0  0  0  0  0  0
   -4.1983   -0.1277    0.9541 N   0  0  0  0  0  0  0  0  0  0  0  0
   -5.1293   -0.3227    2.0496 C   0  0  0  0  0  0  0  0  0  0  0  0
   -4.7342    0.1015   -0.3039 C   0  0  0  0  0  0  0  0  0  0  0  0
   -5.9524    0.1393   -0.4891 O   0  0  0  0  0  0  0  0  0  0  0  0
   -3.8134    0.2860   -1.3384 N   0  0  0  0  0  0  0  0  0  0  0  0
   -4.3627    0.5548   -2.6670 C   0  0  0  0  0  0  0  0  0  0  0  0
   -1.4860   -0.2612   -3.0189 H   0  0  0  0  0  0  0  0  0  0  0  0
   -0.5246    0.8581   -2.0333 H   0  0  0  0  0  0  0  0  0  0  0  0
   -1.9209    1.4573   -2.8585 H   0  0  0  0  0  0  0  0  0  0  0  0
   -0.1482    0.1885    1.2963 H   0  0  0  0  0  0  0  0  0  0  0  0
    2.2274   -1.5789   -0.5647 H   0  0  0  0  0  0  0  0  0  0  0  0
    3.9805    2.0467    1.4579 H   0  0  0  0  0  0  0  0  0  0  0  0
    7.7174   -0.0094    0.8932 H   0  0  0  0  0  0  0  0  0  0  0  0
    6.5500   -1.8615   -0.2191 H   0  0  0  0  0  0  0  0  0  0  0  0
    4.6217   -2.6721   -0.9082 H   0  0  0  0  0  0  0  0  0  0  0  0
   -5.9641    0.3809    1.9703 H   0  0  0  0  0  0  0  0  0  0  0  0
   -5.5227   -1.3425    1.9899 H   0  0  0  0  0  0  0  0  0  0  0  0
   -4.6463   -0.1834    3.0209 H   0  0  0  0  0  0  0  0  0  0  0  0
   -5.4367    0.3552   -2.7195 H   0  0  0  0  0  0  0  0  0  0  0  0
   -3.8762   -0.0853   -3.4094 H   0  0  0  0  0  0  0  0  0  0  0  0
   -4.2033    1.6098   -2.9100 H   0  0  0  0  0  0  0  0  0  0  0  0
  1  2  1  0
  2  3  2  0
  3  4  1  0
  4  5  2  3
  5  6  1  0
  6  7  1  0
  7  8  2  0
  7  9  1  0
  9 10  2  0
 10 11  1  0
 11 12  1  0
 11 13  2  0
 13 14  1  0
 14 15  2  0
 15 16  1  0
  3 17  1  0
 17 18  2  0
 17 19  1  0
 19 20  1  0
 19 21  1  0
 21 22  2  0
 21 23  1  0
 23 24  1  0
 23  2  1  0
 15  9  1  0
  1 25  1  0
  1 26  1  0
  1 27  1  0
  4 28  1  0
  6 29  1  0
 10 30  1  0
 13 31  1  0
 14 32  1  0
 16 33  1  0
 20 34  1  0
 20 35  1  0
 20 36  1  0
 24 37  1  0
 24 38  1  0
 24 39  1  0
M  END
$$$$
