
     RDKit          3D

 71 77  0  0  0  0  0  0  0  0999 V2000
    5.2206    0.2778    3.2704 C   0  0  0  0  0  0  0  0  0  0  0  0
    5.1161   -0.2361    1.9478 O   0  0  0  0  0  0  0  0  0  0  0  0
    5.0187    0.8018    0.9672 C   0  0  0  0  0  0  0  0  0  0  0  0
    3.6128    1.4756    0.9560 C   0  0  0  0  0  0  0  0  0  0  0  0
    3.5278    2.6988    1.1292 O   0  0  0  0  0  0  0  0  0  0  0  0
    2.4760    0.6986    0.7632 N   0  0  0  0  0  0  0  0  0  0  0  0
    2.4976   -0.7293    0.4085 C   0  0  0  0  0  0  0  0  0  0  0  0
    1.0885   -1.3562    0.3463 C   0  0  0  0  0  0  0  0  0  0  0  0
    0.2138   -0.6291   -0.5696 N   0  0  0  0  0  0  0  0  0  0  0  0
    0.3142    0.8669   -0.4583 C   0  0  2  0  0  0  0  0  0  0  0  0
    1.1585    1.3451    0.7384 C   0  0  0  0  0  0  0  0  0  0  0  0
   -1.1032    1.2901   -0.4141 C   0  0  0  0  0  0  0  0  0  0  0  0
   -1.9678    0.2078   -0.5611 C   0  0  0  0  0  0  0  0  0  0  0  0
   -3.2594    0.6720   -0.5404 C   0  0  0  0  0  0  0  0  0  0  0  0
   -4.4026   -0.0065   -0.5914 O   0  0  0  0  0  0  0  0  0  0  0  0
   -3.2072    2.0755   -0.3781 N   0  0  0  0  0  0  0  0  0  0  0  0
   -4.3341    2.9679   -0.2874 C   0  0  0  0  0  0  0  0  0  0  0  0
   -4.2177    4.2130    0.3473 C   0  0  0  0  0  0  0  0  0  0  0  0
   -5.3160    5.0751    0.4410 C   0  0  0  0  0  0  0  0  0  0  0  0
   -6.5443    4.7082   -0.0987 C   0  0  0  0  0  0  0  0  0  0  0  0
   -6.6759    3.4775   -0.7331 C   0  0  0  0  0  0  0  0  0  0  0  0
   -5.5795    2.6133   -0.8272 C   0  0  0  0  0  0  0  0  0  0  0  0
   -1.8428    2.4391   -0.3140 C   0  0  0  0  0  0  0  0  0  0  0  0
   -1.4347    3.7033   -0.2347 O   0  0  0  0  0  0  0  0  0  0  0  0
   -1.2112   -1.0585   -0.6752 C   0  0  1  0  0  0  0  0  0  0  0  0
   -1.4435   -1.8043   -2.0206 C   0  0  0  0  0  0  0  0  0  0  0  0
   -1.1933   -1.4383   -3.1584 O   0  0  0  0  0  0  0  0  0  0  0  0
   -2.0201   -3.0351   -1.7032 N   0  0  0  0  0  0  0  0  0  0  0  0
   -2.2224   -3.1807   -0.3339 C   0  0  0  0  0  0  0  0  0  0  0  0
   -1.7820   -2.0267    0.3339 C   0  0  0  0  0  0  0  0  0  0  0  0
   -1.9437   -1.9092    1.7065 C   0  0  0  0  0  0  0  0  0  0  0  0
   -2.5327   -2.9703    2.3957 C   0  0  0  0  0  0  0  0  0  0  0  0
   -2.9541   -4.1289    1.7147 C   0  0  0  0  0  0  0  0  0  0  0  0
   -3.6858   -5.3786    2.6611 Cl  0  0  0  0  0  0  0  0  0  0  0  0
   -2.8002   -4.2618    0.3219 C   0  0  0  0  0  0  0  0  0  0  0  0
   -3.2759   -5.4817   -0.4102 C   0  0  0  0  0  0  0  0  0  0  0  0
    5.4503    0.3059   -0.4115 C   0  0  0  0  0  0  0  0  0  0  0  0
    6.0513   -0.9519   -0.5855 C   0  0  0  0  0  0  0  0  0  0  0  0
    6.4471   -1.3876   -1.8523 C   0  0  0  0  0  0  0  0  0  0  0  0
    6.2561   -0.5696   -2.9647 C   0  0  0  0  0  0  0  0  0  0  0  0
    5.6807    0.6893   -2.8090 C   0  0  0  0  0  0  0  0  0  0  0  0
    5.2889    1.1279   -1.5425 C   0  0  0  0  0  0  0  0  0  0  0  0
    4.3627    0.9098    3.5178 H   0  0  0  0  0  0  0  0  0  0  0  0
    6.1538    0.8386    3.3909 H   0  0  0  0  0  0  0  0  0  0  0  0
    5.2362   -0.5704    3.9625 H   0  0  0  0  0  0  0  0  0  0  0  0
    5.7450    1.5834    1.2284 H   0  0  0  0  0  0  0  0  0  0  0  0
    3.1002   -1.2736    1.1393 H   0  0  0  0  0  0  0  0  0  0  0  0
    2.9748   -0.8230   -0.5722 H   0  0  0  0  0  0  0  0  0  0  0  0
    1.1829   -2.3977    0.0227 H   0  0  0  0  0  0  0  0  0  0  0  0
    0.6892   -1.3578    1.3645 H   0  0  0  0  0  0  0  0  0  0  0  0
    0.7748    1.2289   -1.3863 H   0  0  0  0  0  0  0  0  0  0  0  0
    0.6677    1.1000    1.6909 H   0  0  0  0  0  0  0  0  0  0  0  0
    1.2558    2.4370    0.7107 H   0  0  0  0  0  0  0  0  0  0  0  0
   -4.1999   -0.9567   -0.6361 H   0  0  0  0  0  0  0  0  0  0  0  0
   -3.2917    4.5351    0.8118 H   0  0  0  0  0  0  0  0  0  0  0  0
   -5.2072    6.0341    0.9403 H   0  0  0  0  0  0  0  0  0  0  0  0
   -7.3949    5.3797   -0.0266 H   0  0  0  0  0  0  0  0  0  0  0  0
   -7.6300    3.1876   -1.1647 H   0  0  0  0  0  0  0  0  0  0  0  0
   -5.7238    1.6816   -1.3646 H   0  0  0  0  0  0  0  0  0  0  0  0
   -0.4668    3.7239   -0.3037 H   0  0  0  0  0  0  0  0  0  0  0  0
   -2.2548   -3.7044   -2.4211 H   0  0  0  0  0  0  0  0  0  0  0  0
   -1.6365   -1.0113    2.2353 H   0  0  0  0  0  0  0  0  0  0  0  0
   -2.6737   -2.8920    3.4725 H   0  0  0  0  0  0  0  0  0  0  0  0
   -4.3701   -5.5080   -0.4264 H   0  0  0  0  0  0  0  0  0  0  0  0
   -2.9263   -5.5072   -1.4461 H   0  0  0  0  0  0  0  0  0  0  0  0
   -2.8953   -6.3931    0.0640 H   0  0  0  0  0  0  0  0  0  0  0  0
    6.2165   -1.6071    0.2694 H   0  0  0  0  0  0  0  0  0  0  0  0
    6.8975   -2.3688   -1.9712 H   0  0  0  0  0  0  0  0  0  0  0  0
    6.5590   -0.9109   -3.9515 H   0  0  0  0  0  0  0  0  0  0  0  0
    5.5336    1.3313   -3.6754 H   0  0  0  0  0  0  0  0  0  0  0  0
    4.8521    2.1209   -1.4492 H   0  0  0  0  0  0  0  0  0  0  0  0
  1  2  1  0
  2  3  1  0
  3  4  1  0
  4  5  2  0
  4  6  1  0
  6  7  1  0
  7  8  1  0
  8  9  1  0
  9 10  1  0
 10 11  1  0
 10 12  1  0
 12 13  1  0
 13 14  2  0
 14 15  1  0
 14 16  1  0
 16 17  1  0
 17 18  2  0
 18 19  1  0
 19 20  2  0
 20 21  1  0
 21 22  2  0
 16 23  1  0
 23 24  1  0
 13 25  1  0
 25 26  1  0
 26 27  2  0
 26 28  1  0
 28 29  1  0
 29 30  2  0
 30 31  1  0
 31 32  2  0
 32 33  1  0
 33 34  1  0
 33 35  2  0
 35 36  1  0
  3 37  1  0
 37 38  2  0
 38 39  1  0
 39 40  2  0
 40 41  1  0
 41 42  2  0
 11  6  1  0
 23 12  2  0
 30 25  1  0
 42 37  1  0
 25  9  1  1
 35 29  1  0
 22 17  1  0
  1 43  1  0
  1 44  1  0
  1 45  1  0
  3 46  1  0
  7 47  1  0
  7 48  1  0
  8 49  1  0
  8 50  1  0
 10 51  1  6
 11 52  1  0
 11 53  1  0
 15 54  1  0
 18 55  1  0
 19 56  1  0
 20 57  1  0
 21 58  1  0
 22 59  1  0
 24 60  1  0
 28 61  1  0
 31 62  1  0
 32 63  1  0
 36 64  1  0
 36 65  1  0
 36 66  1  0
 38 67  1  0
 39 68  1  0
 40 69  1  0
 41 70  1  0
 42 71  1  0
M  END
$$$$
