
     RDKit          3D

 43 46  0  0  0  0  0  0  0  0999 V2000
   -1.5614    1.9730    0.0024 O   0  0  0  0  0  0  0  0  0  0  0  0
   -1.8373    0.7866    0.1278 C   0  0  0  0  0  0  0  0  0  0  0  0
   -0.9517   -0.2759    0.1594 N   0  0  0  0  0  0  0  0  0  0  0  0
    0.4571   -0.2141    0.1446 C   0  0  0  0  0  0  0  0  0  0  0  0
    1.1893    0.9701    0.2016 C   0  0  0  0  0  0  0  0  0  0  0  0
    2.5928    0.9483    0.1923 C   0  0  0  0  0  0  0  0  0  0  0  0
    3.2865   -0.2587    0.1287 C   0  0  0  0  0  0  0  0  0  0  0  0
    4.6925   -0.3716    0.1081 N   0  0  0  0  0  0  0  0  0  0  0  0
    5.6332    0.6432    0.2348 C   0  0  0  0  0  0  0  0  0  0  0  0
    5.3511    1.8182    0.4488 O   0  0  0  0  0  0  0  0  0  0  0  0
    7.0165    0.1758    0.1118 C   0  0  0  0  0  0  0  0  0  0  0  0
    7.5299   -0.9642   -0.4864 C   0  0  0  0  0  0  0  0  0  0  0  0
    8.9505   -1.0493   -0.3816 C   0  0  0  0  0  0  0  0  0  0  0  0
    9.4828    0.0298    0.2845 C   0  0  0  0  0  0  0  0  0  0  0  0
    8.2793    1.1400    0.7697 S   0  0  0  0  0  0  0  0  0  0  0  0
    2.5513   -1.4477    0.0701 C   0  0  0  0  0  0  0  0  0  0  0  0
    1.1513   -1.4260    0.0817 C   0  0  0  0  0  0  0  0  0  0  0  0
   -3.2744    0.4020    0.2119 C   0  0  0  0  0  0  0  0  0  0  0  0
   -3.7068   -0.6445    1.0329 C   0  0  0  0  0  0  0  0  0  0  0  0
   -5.0636   -0.9748    1.0825 C   0  0  0  0  0  0  0  0  0  0  0  0
   -6.0051   -0.2619    0.3225 C   0  0  0  0  0  0  0  0  0  0  0  0
   -7.3711   -0.5841    0.3617 C   0  0  0  0  0  0  0  0  0  0  0  0
   -8.2963    0.1385   -0.3934 C   0  0  0  0  0  0  0  0  0  0  0  0
   -7.8688    1.1926   -1.1953 C   0  0  0  0  0  0  0  0  0  0  0  0
   -6.5147    1.5268   -1.2451 C   0  0  0  0  0  0  0  0  0  0  0  0
   -5.5709    0.8090   -0.4936 C   0  0  0  0  0  0  0  0  0  0  0  0
   -4.2060    1.1337   -0.5347 C   0  0  0  0  0  0  0  0  0  0  0  0
   -1.3509   -1.2039    0.1179 H   0  0  0  0  0  0  0  0  0  0  0  0
    0.7032    1.9396    0.2594 H   0  0  0  0  0  0  0  0  0  0  0  0
    3.1049    1.9050    0.2327 H   0  0  0  0  0  0  0  0  0  0  0  0
    5.0523   -1.3127    0.0531 H   0  0  0  0  0  0  0  0  0  0  0  0
    6.9306   -1.7055   -0.9997 H   0  0  0  0  0  0  0  0  0  0  0  0
    9.5518   -1.8564   -0.7826 H   0  0  0  0  0  0  0  0  0  0  0  0
   10.5234    0.2281    0.5034 H   0  0  0  0  0  0  0  0  0  0  0  0
    3.0522   -2.4108    0.0179 H   0  0  0  0  0  0  0  0  0  0  0  0
    0.6176   -2.3715    0.0373 H   0  0  0  0  0  0  0  0  0  0  0  0
   -3.0093   -1.1903    1.6623 H   0  0  0  0  0  0  0  0  0  0  0  0
   -5.3855   -1.7881    1.7299 H   0  0  0  0  0  0  0  0  0  0  0  0
   -7.7271   -1.4018    0.9844 H   0  0  0  0  0  0  0  0  0  0  0  0
   -9.3512   -0.1206   -0.3532 H   0  0  0  0  0  0  0  0  0  0  0  0
   -8.5888    1.7577   -1.7817 H   0  0  0  0  0  0  0  0  0  0  0  0
   -6.2005    2.3562   -1.8756 H   0  0  0  0  0  0  0  0  0  0  0  0
   -3.8586    1.9604   -1.1530 H   0  0  0  0  0  0  0  0  0  0  0  0
  1  2  2  0
  2  3  1  0
  3  4  1  0
  4  5  2  0
  5  6  1  0
  6  7  2  0
  7  8  1  0
  8  9  1  0
  9 10  2  0
  9 11  1  0
 11 12  2  0
 12 13  1  0
 13 14  2  0
 14 15  1  0
  7 16  1  0
 16 17  2  0
  2 18  1  0
 18 19  2  0
 19 20  1  0
 20 21  2  0
 21 22  1  0
 22 23  2  0
 23 24  1  0
 24 25  2  0
 25 26  1  0
 26 27  2  0
 17  4  1  0
 27 18  1  0
 15 11  1  0
 26 21  1  0
  3 28  1  0
  5 29  1  0
  6 30  1  0
  8 31  1  0
 12 32  1  0
 13 33  1  0
 14 34  1  0
 16 35  1  0
 17 36  1  0
 19 37  1  0
 20 38  1  0
 22 39  1  0
 23 40  1  0
 24 41  1  0
 25 42  1  0
 27 43  1  0
M  END
$$$$
