
     RDKit          3D

 45 44  0  0  0  0  0  0  0  0999 V2000
    2.4158   -3.8769    1.3514 C   0  0  0  0  0  0  0  0  0  0  0  0
    1.3531   -2.7960    1.2329 C   0  0  0  0  0  0  0  0  0  0  0  0
    1.6465   -1.5525    2.0780 C   0  0  0  0  0  0  0  0  0  0  0  0
    2.9414   -0.8205    1.7190 C   0  0  0  0  0  0  0  0  0  0  0  0
    2.9695   -0.3737    0.3465 N   0  0  0  0  0  0  0  0  0  0  0  0
    2.2811    0.7182   -0.0815 C   0  0  0  0  0  0  0  0  0  0  0  0
    1.6836    1.5090    0.6340 O   0  0  0  0  0  0  0  0  0  0  0  0
    2.3250    0.7662   -1.4349 O   0  0  0  0  0  0  0  0  0  0  0  0
    1.5556    1.8215   -2.0455 C   0  0  0  0  0  0  0  0  0  0  0  0
    0.0923    1.3803   -2.2518 C   0  0  0  0  0  0  0  0  0  0  0  0
   -0.6791    2.3479   -3.1680 C   0  0  0  0  0  0  0  0  0  0  0  0
   -0.7943    3.7694   -2.6318 C   0  0  0  0  0  0  0  0  0  0  0  0
   -0.5980    1.1997   -0.9818 N   0  0  0  0  0  0  0  0  0  0  0  0
   -1.6784    0.3917   -0.8200 C   0  0  0  0  0  0  0  0  0  0  0  0
   -2.2347   -0.2314   -1.7110 O   0  0  0  0  0  0  0  0  0  0  0  0
   -2.0263    0.3792    0.4887 O   0  0  0  0  0  0  0  0  0  0  0  0
   -3.1455   -0.4535    0.8393 C   0  0  0  0  0  0  0  0  0  0  0  0
   -3.7547    0.1240    2.1111 C   0  0  0  0  0  0  0  0  0  0  0  0
   -2.6623   -1.8803    1.0730 C   0  0  0  0  0  0  0  0  0  0  0  0
    2.0995   -4.7749    0.8109 H   0  0  0  0  0  0  0  0  0  0  0  0
    2.5816   -4.1523    2.3977 H   0  0  0  0  0  0  0  0  0  0  0  0
    3.3682   -3.5518    0.9227 H   0  0  0  0  0  0  0  0  0  0  0  0
    0.3935   -3.2152    1.5582 H   0  0  0  0  0  0  0  0  0  0  0  0
    1.2301   -2.5186    0.1797 H   0  0  0  0  0  0  0  0  0  0  0  0
    0.7991   -0.8632    1.9747 H   0  0  0  0  0  0  0  0  0  0  0  0
    1.6877   -1.8388    3.1360 H   0  0  0  0  0  0  0  0  0  0  0  0
    3.8157   -1.4592    1.8761 H   0  0  0  0  0  0  0  0  0  0  0  0
    3.0502    0.0551    2.3692 H   0  0  0  0  0  0  0  0  0  0  0  0
    3.2992   -0.9929   -0.3807 H   0  0  0  0  0  0  0  0  0  0  0  0
    2.0239    2.0182   -3.0162 H   0  0  0  0  0  0  0  0  0  0  0  0
    1.6363    2.7432   -1.4571 H   0  0  0  0  0  0  0  0  0  0  0  0
    0.1026    0.3956   -2.7376 H   0  0  0  0  0  0  0  0  0  0  0  0
   -1.6913    1.9617   -3.3391 H   0  0  0  0  0  0  0  0  0  0  0  0
   -0.1899    2.3813   -4.1491 H   0  0  0  0  0  0  0  0  0  0  0  0
   -1.2816    3.7899   -1.6523 H   0  0  0  0  0  0  0  0  0  0  0  0
   -1.3941    4.3781   -3.3164 H   0  0  0  0  0  0  0  0  0  0  0  0
    0.1866    4.2452   -2.5419 H   0  0  0  0  0  0  0  0  0  0  0  0
   -0.2000    1.5836   -0.1275 H   0  0  0  0  0  0  0  0  0  0  0  0
   -3.9064   -0.4315    0.0496 H   0  0  0  0  0  0  0  0  0  0  0  0
   -4.6163   -0.4635    2.4423 H   0  0  0  0  0  0  0  0  0  0  0  0
   -4.0804    1.1561    1.9418 H   0  0  0  0  0  0  0  0  0  0  0  0
   -3.0179    0.1561    2.9215 H   0  0  0  0  0  0  0  0  0  0  0  0
   -2.2117   -2.2942    0.1650 H   0  0  0  0  0  0  0  0  0  0  0  0
   -1.8884   -1.9084    1.8478 H   0  0  0  0  0  0  0  0  0  0  0  0
   -3.4866   -2.5326    1.3772 H   0  0  0  0  0  0  0  0  0  0  0  0
  1  2  1  0
  2  3  1  0
  3  4  1  0
  4  5  1  0
  5  6  1  0
  6  7  2  0
  6  8  1  0
  8  9  1  0
  9 10  1  0
 10 11  1  0
 11 12  1  0
 10 13  1  0
 13 14  1  0
 14 15  2  0
 14 16  1  0
 16 17  1  0
 17 18  1  0
 17 19  1  0
  1 20  1  0
  1 21  1  0
  1 22  1  0
  2 23  1  0
  2 24  1  0
  3 25  1  0
  3 26  1  0
  4 27  1  0
  4 28  1  0
  5 29  1  0
  9 30  1  0
  9 31  1  0
 10 32  1  0
 11 33  1  0
 11 34  1  0
 12 35  1  0
 12 36  1  0
 12 37  1  0
 13 38  1  0
 17 39  1  0
 18 40  1  0
 18 41  1  0
 18 42  1  0
 19 43  1  0
 19 44  1  0
 19 45  1  0
M  END
$$$$
