
     RDKit          3D

 34 34  0  0  0  0  0  0  0  0999 V2000
    4.6975    0.1586   -1.9095 C   0  0  0  0  0  0  0  0  0  0  0  0
    4.0503    1.0955   -0.9018 C   0  0  0  0  0  0  0  0  0  0  0  0
    4.1905    0.6225    0.5481 C   0  0  0  0  0  0  0  0  0  0  0  0
    3.5170   -0.7166    0.8453 C   0  0  0  0  0  0  0  0  0  0  0  0
    2.1391   -0.7061    0.4441 O   0  0  0  0  0  0  0  0  0  0  0  0
    1.2655   -0.1950    1.3470 C   0  0  0  0  0  0  0  0  0  0  0  0
    1.5476    0.2396    2.4519 O   0  0  0  0  0  0  0  0  0  0  0  0
   -0.1202   -0.2269    0.8042 C   0  0  0  0  0  0  0  0  0  0  0  0
   -1.1615    0.2412    1.6129 C   0  0  0  0  0  0  0  0  0  0  0  0
   -2.4834    0.2346    1.1486 C   0  0  0  0  0  0  0  0  0  0  0  0
   -2.7836   -0.2392   -0.1293 C   0  0  0  0  0  0  0  0  0  0  0  0
   -4.0844   -0.2791   -0.6716 N   0  0  0  0  0  0  0  0  0  0  0  0
   -5.2630    0.1140   -0.0628 C   0  0  0  0  0  0  0  0  0  0  0  0
   -6.4607   -0.0813   -0.9592 C   0  0  0  0  0  0  0  0  0  0  0  0
   -5.3965    0.5520    1.0738 O   0  0  0  0  0  0  0  0  0  0  0  0
   -1.7394   -0.7062   -0.9385 C   0  0  0  0  0  0  0  0  0  0  0  0
   -0.4170   -0.7014   -0.4783 C   0  0  0  0  0  0  0  0  0  0  0  0
    4.6522    0.5962   -2.9120 H   0  0  0  0  0  0  0  0  0  0  0  0
    5.7495   -0.0171   -1.6639 H   0  0  0  0  0  0  0  0  0  0  0  0
    4.1838   -0.8065   -1.9465 H   0  0  0  0  0  0  0  0  0  0  0  0
    4.5207    2.0822   -0.9902 H   0  0  0  0  0  0  0  0  0  0  0  0
    2.9928    1.2299   -1.1564 H   0  0  0  0  0  0  0  0  0  0  0  0
    5.2518    0.5572    0.8150 H   0  0  0  0  0  0  0  0  0  0  0  0
    3.7485    1.3936    1.1905 H   0  0  0  0  0  0  0  0  0  0  0  0
    4.0070   -1.5230    0.2900 H   0  0  0  0  0  0  0  0  0  0  0  0
    3.6132   -0.9734    1.9072 H   0  0  0  0  0  0  0  0  0  0  0  0
   -0.9543    0.6166    2.6139 H   0  0  0  0  0  0  0  0  0  0  0  0
   -3.2537    0.6095    1.8160 H   0  0  0  0  0  0  0  0  0  0  0  0
   -4.1614   -0.6457   -1.6119 H   0  0  0  0  0  0  0  0  0  0  0  0
   -6.2150    0.1572   -1.9981 H   0  0  0  0  0  0  0  0  0  0  0  0
   -6.7997   -1.1182   -0.8896 H   0  0  0  0  0  0  0  0  0  0  0  0
   -7.2659    0.5867   -0.6401 H   0  0  0  0  0  0  0  0  0  0  0  0
   -1.9360   -1.0814   -1.9398 H   0  0  0  0  0  0  0  0  0  0  0  0
    0.3685   -1.0702   -1.1333 H   0  0  0  0  0  0  0  0  0  0  0  0
  1  2  1  0
  2  3  1  0
  3  4  1  0
  4  5  1  0
  5  6  1  0
  6  7  2  0
  6  8  1  0
  8  9  2  0
  9 10  1  0
 10 11  2  0
 11 12  1  0
 12 13  1  0
 13 14  1  0
 13 15  2  0
 11 16  1  0
 16 17  2  0
 17  8  1  0
  1 18  1  0
  1 19  1  0
  1 20  1  0
  2 21  1  0
  2 22  1  0
  3 23  1  0
  3 24  1  0
  4 25  1  0
  4 26  1  0
  9 27  1  0
 10 28  1  0
 12 29  1  0
 14 30  1  0
 14 31  1  0
 14 32  1  0
 16 33  1  0
 17 34  1  0
M  END
$$$$
