
     RDKit          3D

 33 34  0  0  0  0  0  0  0  0999 V2000
   -2.1391   -2.0031   -1.0219 N   0  0  0  0  0  0  0  0  0  0  0  0
   -2.1158   -1.2727    0.0545 C   0  0  0  0  0  0  0  0  0  0  0  0
   -1.0111   -1.2175    0.8827 N   0  0  0  0  0  0  0  0  0  0  0  0
    0.1691   -1.6268    0.2332 O   0  0  0  0  0  0  0  0  0  0  0  0
    0.9177   -0.5584   -0.1979 C   0  0  0  0  0  0  0  0  0  0  0  0
    0.6498    0.6112    0.0610 O   0  0  0  0  0  0  0  0  0  0  0  0
    2.0668   -1.0510   -1.0469 C   0  0  0  0  0  0  0  0  0  0  0  0
    3.3312   -0.2443   -0.8677 C   0  0  0  0  0  0  0  0  0  0  0  0
    4.2968   -0.6379    0.0711 C   0  0  0  0  0  0  0  0  0  0  0  0
    5.4585    0.1175    0.2481 C   0  0  0  0  0  0  0  0  0  0  0  0
    5.6642    1.2731   -0.5070 C   0  0  0  0  0  0  0  0  0  0  0  0
    4.7072    1.6774   -1.4381 C   0  0  0  0  0  0  0  0  0  0  0  0
    3.5447    0.9246   -1.6168 C   0  0  0  0  0  0  0  0  0  0  0  0
   -3.3012   -0.4350    0.4031 C   0  0  0  0  0  0  0  0  0  0  0  0
   -3.8133    0.4057   -0.5993 C   0  0  0  0  0  0  0  0  0  0  0  0
   -4.9096    1.2277   -0.3349 C   0  0  0  0  0  0  0  0  0  0  0  0
   -5.4988    1.2162    0.9283 C   0  0  0  0  0  0  0  0  0  0  0  0
   -4.9927    0.3825    1.9285 C   0  0  0  0  0  0  0  0  0  0  0  0
   -3.8945   -0.4468    1.6719 C   0  0  0  0  0  0  0  0  0  0  0  0
   -3.3588   -1.4715    2.9563 Cl  0  0  0  0  0  0  0  0  0  0  0  0
   -3.0464   -1.9429   -1.4940 H   0  0  0  0  0  0  0  0  0  0  0  0
   -0.8876   -0.3381    1.3878 H   0  0  0  0  0  0  0  0  0  0  0  0
    1.7488   -1.0341   -2.0973 H   0  0  0  0  0  0  0  0  0  0  0  0
    2.2808   -2.0999   -0.7990 H   0  0  0  0  0  0  0  0  0  0  0  0
    4.1559   -1.5341    0.6748 H   0  0  0  0  0  0  0  0  0  0  0  0
    6.2022   -0.1927    0.9801 H   0  0  0  0  0  0  0  0  0  0  0  0
    6.5672    1.8625   -0.3658 H   0  0  0  0  0  0  0  0  0  0  0  0
    4.8645    2.5836   -2.0205 H   0  0  0  0  0  0  0  0  0  0  0  0
    2.8004    1.2615   -2.3366 H   0  0  0  0  0  0  0  0  0  0  0  0
   -3.3455    0.4391   -1.5818 H   0  0  0  0  0  0  0  0  0  0  0  0
   -5.2945    1.8860   -1.1102 H   0  0  0  0  0  0  0  0  0  0  0  0
   -6.3524    1.8577    1.1372 H   0  0  0  0  0  0  0  0  0  0  0  0
   -5.4645    0.3807    2.9095 H   0  0  0  0  0  0  0  0  0  0  0  0
  1  2  2  3
  2  3  1  0
  3  4  1  0
  4  5  1  0
  5  6  2  0
  5  7  1  0
  7  8  1  0
  8  9  2  0
  9 10  1  0
 10 11  2  0
 11 12  1  0
 12 13  2  0
  2 14  1  0
 14 15  2  0
 15 16  1  0
 16 17  2  0
 17 18  1  0
 18 19  2  0
 19 20  1  0
 13  8  1  0
 19 14  1  0
  1 21  1  0
  3 22  1  0
  7 23  1  0
  7 24  1  0
  9 25  1  0
 10 26  1  0
 11 27  1  0
 12 28  1  0
 13 29  1  0
 15 30  1  0
 16 31  1  0
 17 32  1  0
 18 33  1  0
M  END
$$$$
