
     RDKit          3D

 51 55  0  0  0  0  0  0  0  0999 V2000
    2.5897   -1.7222    3.0214 O   0  0  0  0  0  0  0  0  0  0  0  0
    2.0098   -2.0688    1.9966 C   0  0  0  0  0  0  0  0  0  0  0  0
    0.6006   -2.6699    2.0132 C   0  0  0  0  0  0  0  0  0  0  0  0
   -0.3791   -1.7418    1.4317 N   0  0  0  0  0  0  0  0  0  0  0  0
   -0.4365   -1.6546    0.0443 C   0  0  0  0  0  0  0  0  0  0  0  0
    0.1886   -2.4252   -0.6898 O   0  0  0  0  0  0  0  0  0  0  0  0
   -1.2097   -0.5056   -0.5543 C   0  0  0  0  0  0  0  0  0  0  0  0
   -2.6705   -0.8667   -0.7479 C   0  0  0  0  0  0  0  0  0  0  0  0
   -3.4616    0.3021   -1.2443 C   0  0  0  0  0  0  0  0  0  0  0  0
   -4.3089    0.4756   -2.3209 C   0  0  0  0  0  0  0  0  0  0  0  0
   -4.7536    1.8193   -2.2687 C   0  0  0  0  0  0  0  0  0  0  0  0
   -4.1526    2.3798   -1.1655 C   0  0  0  0  0  0  0  0  0  0  0  0
   -3.3665    1.4697   -0.5391 O   0  0  0  0  0  0  0  0  0  0  0  0
   -3.4897   -1.5931    0.7220 S   0  0  0  0  0  0  0  0  0  0  0  0
   -2.5957   -0.7774    2.0464 C   0  0  0  0  0  0  0  0  0  0  0  0
   -3.3710   -0.0157    2.9356 C   0  0  0  0  0  0  0  0  0  0  0  0
   -2.8033    0.5384    4.0814 C   0  0  0  0  0  0  0  0  0  0  0  0
   -1.4607    0.3149    4.3620 C   0  0  0  0  0  0  0  0  0  0  0  0
   -0.6797   -0.4508    3.4916 C   0  0  0  0  0  0  0  0  0  0  0  0
   -1.2226   -0.9893    2.3127 C   0  0  0  0  0  0  0  0  0  0  0  0
    2.5514   -1.9415    0.7400 N   0  0  0  0  0  0  0  0  0  0  0  0
    3.8070   -1.2821    0.4792 C   0  0  0  0  0  0  0  0  0  0  0  0
    3.6682   -0.3872   -0.7268 C   0  0  0  0  0  0  0  0  0  0  0  0
    4.2029   -0.7731   -1.9775 C   0  0  0  0  0  0  0  0  0  0  0  0
    4.0295    0.0286   -3.1117 C   0  0  0  0  0  0  0  0  0  0  0  0
    3.3180    1.1988   -2.9676 C   0  0  0  0  0  0  0  0  0  0  0  0
    2.7916    1.5822   -1.7570 C   0  0  0  0  0  0  0  0  0  0  0  0
    2.9493    0.8164   -0.6215 C   0  0  0  0  0  0  0  0  0  0  0  0
    2.1158    2.7595   -1.8336 O   0  0  0  0  0  0  0  0  0  0  0  0
    2.2841    3.0767   -3.2307 C   0  0  0  0  0  0  0  0  0  0  0  0
    3.0415    2.0879   -3.9589 O   0  0  0  0  0  0  0  0  0  0  0  0
    0.3256   -2.9412    3.0398 H   0  0  0  0  0  0  0  0  0  0  0  0
    0.6149   -3.6015    1.4336 H   0  0  0  0  0  0  0  0  0  0  0  0
   -1.0599    0.4016    0.0452 H   0  0  0  0  0  0  0  0  0  0  0  0
   -0.7529   -0.2703   -1.5261 H   0  0  0  0  0  0  0  0  0  0  0  0
   -2.7247   -1.6528   -1.5122 H   0  0  0  0  0  0  0  0  0  0  0  0
   -4.5765   -0.2775   -3.0497 H   0  0  0  0  0  0  0  0  0  0  0  0
   -5.4351    2.3146   -2.9461 H   0  0  0  0  0  0  0  0  0  0  0  0
   -4.1807    3.3626   -0.7149 H   0  0  0  0  0  0  0  0  0  0  0  0
   -4.4315    0.1419    2.7461 H   0  0  0  0  0  0  0  0  0  0  0  0
   -3.4138    1.1302    4.7587 H   0  0  0  0  0  0  0  0  0  0  0  0
   -1.0147    0.7423    5.2558 H   0  0  0  0  0  0  0  0  0  0  0  0
    0.3718   -0.5776    3.7403 H   0  0  0  0  0  0  0  0  0  0  0  0
    2.0121   -2.2801   -0.0580 H   0  0  0  0  0  0  0  0  0  0  0  0
    4.1326   -0.6988    1.3476 H   0  0  0  0  0  0  0  0  0  0  0  0
    4.5569   -2.0618    0.3064 H   0  0  0  0  0  0  0  0  0  0  0  0
    4.7491   -1.7101   -2.0728 H   0  0  0  0  0  0  0  0  0  0  0  0
    4.4331   -0.2634   -4.0755 H   0  0  0  0  0  0  0  0  0  0  0  0
    2.5153    1.1324    0.3222 H   0  0  0  0  0  0  0  0  0  0  0  0
    2.7979    4.0420   -3.3117 H   0  0  0  0  0  0  0  0  0  0  0  0
    1.2941    3.1668   -3.6911 H   0  0  0  0  0  0  0  0  0  0  0  0
  1  2  2  0
  2  3  1  0
  3  4  1  0
  4  5  1  0
  5  6  2  0
  5  7  1  0
  7  8  1  0
  8  9  1  0
  9 10  2  0
 10 11  1  0
 11 12  2  0
 12 13  1  0
  8 14  1  0
 14 15  1  0
 15 16  2  0
 16 17  1  0
 17 18  2  0
 18 19  1  0
 19 20  2  0
  2 21  1  0
 21 22  1  0
 22 23  1  0
 23 24  2  0
 24 25  1  0
 25 26  2  0
 26 27  1  0
 27 28  2  0
 27 29  1  0
 29 30  1  0
 30 31  1  0
 20  4  1  0
 28 23  1  0
 13  9  1  0
 20 15  1  0
 31 26  1  0
  3 32  1  0
  3 33  1  0
  7 34  1  0
  7 35  1  0
  8 36  1  0
 10 37  1  0
 11 38  1  0
 12 39  1  0
 16 40  1  0
 17 41  1  0
 18 42  1  0
 19 43  1  0
 21 44  1  0
 22 45  1  0
 22 46  1  0
 24 47  1  0
 25 48  1  0
 28 49  1  0
 30 50  1  0
 30 51  1  0
M  END
$$$$
