
     RDKit          3D

 37 39  0  0  0  0  0  0  0  0999 V2000
   -0.9224   -1.7997    2.3110 C   0  0  0  0  0  0  0  0  0  0  0  0
   -1.1078   -1.0004    1.1147 N   0  0  0  0  0  0  0  0  0  0  0  0
   -0.1312   -0.3676    0.3211 C   0  0  0  0  0  0  0  0  0  0  0  0
    1.2006   -0.5379    0.4624 C   0  0  0  0  0  0  0  0  0  0  0  0
    2.2714    0.0530   -0.3168 C   0  0  0  0  0  0  0  0  0  0  0  0
    3.5867   -0.1153   -0.1189 C   0  0  0  0  0  0  0  0  0  0  0  0
    4.3832   -1.0511    1.0944 S   0  0  0  0  0  0  0  0  0  0  0  0
    5.9720   -0.6193    0.5053 C   0  0  0  0  0  0  0  0  0  0  0  0
    7.4223   -1.1137    1.1310 S   0  0  0  0  0  0  0  0  0  0  0  0
    5.8554    0.2047   -0.5713 N   0  0  0  0  0  0  0  0  0  0  0  0
    4.5994    0.5410   -0.9915 C   0  0  0  0  0  0  0  0  0  0  0  0
    4.3564    1.2700   -1.9393 O   0  0  0  0  0  0  0  0  0  0  0  0
   -0.8708    0.5482   -0.7153 C   0  0  0  0  0  0  0  0  0  0  0  0
   -0.6941    0.0605   -2.1605 C   0  0  0  0  0  0  0  0  0  0  0  0
   -0.5113    2.0346   -0.5632 C   0  0  0  0  0  0  0  0  0  0  0  0
   -2.3276    0.3529   -0.2998 C   0  0  0  0  0  0  0  0  0  0  0  0
   -3.4749    0.9339   -0.8290 C   0  0  0  0  0  0  0  0  0  0  0  0
   -4.7054    0.6110   -0.2588 C   0  0  0  0  0  0  0  0  0  0  0  0
   -4.7735   -0.2773    0.8224 C   0  0  0  0  0  0  0  0  0  0  0  0
   -3.6120   -0.8576    1.3450 C   0  0  0  0  0  0  0  0  0  0  0  0
   -2.3867   -0.5432    0.7783 C   0  0  0  0  0  0  0  0  0  0  0  0
    0.0515   -2.2977    2.3271 H   0  0  0  0  0  0  0  0  0  0  0  0
   -1.6659   -2.6016    2.3779 H   0  0  0  0  0  0  0  0  0  0  0  0
   -0.9977   -1.1734    3.2064 H   0  0  0  0  0  0  0  0  0  0  0  0
    1.5344   -1.2080    1.2497 H   0  0  0  0  0  0  0  0  0  0  0  0
    1.9811    0.6876   -1.1485 H   0  0  0  0  0  0  0  0  0  0  0  0
    6.6639    0.5653   -1.0545 H   0  0  0  0  0  0  0  0  0  0  0  0
    0.3347    0.1746   -2.5129 H   0  0  0  0  0  0  0  0  0  0  0  0
   -0.9614   -0.9984   -2.2625 H   0  0  0  0  0  0  0  0  0  0  0  0
   -1.3317    0.6235   -2.8524 H   0  0  0  0  0  0  0  0  0  0  0  0
    0.5174    2.2489   -0.8637 H   0  0  0  0  0  0  0  0  0  0  0  0
   -0.6287    2.3712    0.4742 H   0  0  0  0  0  0  0  0  0  0  0  0
   -1.1565    2.6677   -1.1839 H   0  0  0  0  0  0  0  0  0  0  0  0
   -3.4215    1.6251   -1.6636 H   0  0  0  0  0  0  0  0  0  0  0  0
   -5.6176    1.0520   -0.6531 H   0  0  0  0  0  0  0  0  0  0  0  0
   -5.7394   -0.5198    1.2589 H   0  0  0  0  0  0  0  0  0  0  0  0
   -3.6925   -1.5438    2.1798 H   0  0  0  0  0  0  0  0  0  0  0  0
  1  2  1  0
  2  3  1  0
  3  4  2  3
  4  5  1  0
  5  6  2  3
  6  7  1  0
  7  8  1  0
  8  9  2  0
  8 10  1  0
 10 11  1  0
 11 12  2  0
  3 13  1  0
 13 14  1  0
 13 15  1  0
 13 16  1  0
 16 17  2  0
 17 18  1  0
 18 19  2  0
 19 20  1  0
 20 21  2  0
 21  2  1  0
 11  6  1  0
 21 16  1  0
  1 22  1  0
  1 23  1  0
  1 24  1  0
  4 25  1  0
  5 26  1  0
 10 27  1  0
 14 28  1  0
 14 29  1  0
 14 30  1  0
 15 31  1  0
 15 32  1  0
 15 33  1  0
 17 34  1  0
 18 35  1  0
 19 36  1  0
 20 37  1  0
M  END
$$$$
