
     RDKit          3D

 48 50  0  0  0  0  0  0  0  0999 V2000
   -4.6045    0.0805    2.0805 C   0  0  0  0  0  0  0  0  0  0  0  0
   -4.8451   -0.0002    0.6815 O   0  0  0  0  0  0  0  0  0  0  0  0
   -3.7967    0.2865   -0.1542 C   0  0  0  0  0  0  0  0  0  0  0  0
   -2.4600    0.3608    0.2457 C   0  0  0  0  0  0  0  0  0  0  0  0
   -1.4532    0.6618   -0.6837 C   0  0  0  0  0  0  0  0  0  0  0  0
   -0.0330    0.7160   -0.2981 C   0  0  0  0  0  0  0  0  0  0  0  0
    0.4974    1.4391    0.7086 C   0  0  0  0  0  0  0  0  0  0  0  0
   -0.2449    2.3243    1.5381 C   0  0  0  0  0  0  0  0  0  0  0  0
   -0.8928    2.9955    2.2291 N   0  0  0  0  0  0  0  0  0  0  0  0
    1.9751    1.3875    0.9161 C   0  0  0  0  0  0  0  0  0  0  0  0
    2.6089    2.4324    0.9807 O   0  0  0  0  0  0  0  0  0  0  0  0
    2.4640    0.0978    1.0447 N   0  0  0  0  0  0  0  0  0  0  0  0
    3.8153   -0.3122    1.2183 C   0  0  0  0  0  0  0  0  0  0  0  0
    4.8630    0.6148    1.2183 C   0  0  0  0  0  0  0  0  0  0  0  0
    6.1794    0.1968    1.3795 C   0  0  0  0  0  0  0  0  0  0  0  0
    6.4614   -1.1554    1.5401 C   0  0  0  0  0  0  0  0  0  0  0  0
    5.4613   -2.1111    1.5454 C   0  0  0  0  0  0  0  0  0  0  0  0
    5.8393   -3.3910    1.7049 N   0  0  0  0  0  0  0  0  0  0  0  0
    4.8901   -4.3461    1.7166 C   0  0  0  0  0  0  0  0  0  0  0  0
    3.5473   -4.0818    1.5724 C   0  0  0  0  0  0  0  0  0  0  0  0
    3.1584   -2.7554    1.4058 C   0  0  0  0  0  0  0  0  0  0  0  0
    4.1127   -1.7062    1.3845 C   0  0  0  0  0  0  0  0  0  0  0  0
   -1.7876    0.8521   -2.0334 C   0  0  0  0  0  0  0  0  0  0  0  0
   -3.1159    0.7645   -2.4576 C   0  0  0  0  0  0  0  0  0  0  0  0
   -3.5397    0.9306   -3.7503 O   0  0  0  0  0  0  0  0  0  0  0  0
   -2.5508    1.1358   -4.7490 C   0  0  0  0  0  0  0  0  0  0  0  0
   -4.1141    0.4947   -1.5066 C   0  0  0  0  0  0  0  0  0  0  0  0
   -5.4211    0.3611   -1.9212 O   0  0  0  0  0  0  0  0  0  0  0  0
   -6.0848    1.6216   -1.8423 C   0  0  0  0  0  0  0  0  0  0  0  0
   -3.9596   -0.7395    2.4123 H   0  0  0  0  0  0  0  0  0  0  0  0
   -4.1840    1.0527    2.3595 H   0  0  0  0  0  0  0  0  0  0  0  0
   -5.5661   -0.0256    2.5916 H   0  0  0  0  0  0  0  0  0  0  0  0
   -2.1891    0.1697    1.2789 H   0  0  0  0  0  0  0  0  0  0  0  0
    0.6193    0.1324   -0.9478 H   0  0  0  0  0  0  0  0  0  0  0  0
    1.7771   -0.6408    1.0504 H   0  0  0  0  0  0  0  0  0  0  0  0
    4.6967    1.6797    1.0920 H   0  0  0  0  0  0  0  0  0  0  0  0
    6.9865    0.9252    1.3793 H   0  0  0  0  0  0  0  0  0  0  0  0
    7.4944   -1.4732    1.6652 H   0  0  0  0  0  0  0  0  0  0  0  0
    5.2545   -5.3607    1.8497 H   0  0  0  0  0  0  0  0  0  0  0  0
    2.8193   -4.8849    1.5894 H   0  0  0  0  0  0  0  0  0  0  0  0
    2.0964   -2.5677    1.2970 H   0  0  0  0  0  0  0  0  0  0  0  0
   -0.9941    1.0713   -2.7411 H   0  0  0  0  0  0  0  0  0  0  0  0
   -3.0609    1.2131   -5.7141 H   0  0  0  0  0  0  0  0  0  0  0  0
   -2.0117    2.0741   -4.5821 H   0  0  0  0  0  0  0  0  0  0  0  0
   -1.8613    0.2869   -4.8037 H   0  0  0  0  0  0  0  0  0  0  0  0
   -7.1173    1.4767   -2.1742 H   0  0  0  0  0  0  0  0  0  0  0  0
   -5.6186    2.3604   -2.5033 H   0  0  0  0  0  0  0  0  0  0  0  0
   -6.1110    1.9971   -0.8136 H   0  0  0  0  0  0  0  0  0  0  0  0
  1  2  1  0
  2  3  1  0
  3  4  2  0
  4  5  1  0
  5  6  1  0
  6  7  2  3
  7  8  1  0
  8  9  3  0
  7 10  1  0
 10 11  2  0
 10 12  1  0
 12 13  1  0
 13 14  2  0
 14 15  1  0
 15 16  2  0
 16 17  1  0
 17 18  2  0
 18 19  1  0
 19 20  2  0
 20 21  1  0
 21 22  2  0
  5 23  2  0
 23 24  1  0
 24 25  1  0
 25 26  1  0
 24 27  2  0
 27 28  1  0
 28 29  1  0
 27  3  1  0
 22 13  1  0
 22 17  1  0
  1 30  1  0
  1 31  1  0
  1 32  1  0
  4 33  1  0
  6 34  1  0
 12 35  1  0
 14 36  1  0
 15 37  1  0
 16 38  1  0
 19 39  1  0
 20 40  1  0
 21 41  1  0
 23 42  1  0
 26 43  1  0
 26 44  1  0
 26 45  1  0
 29 46  1  0
 29 47  1  0
 29 48  1  0
M  END
$$$$
