
     RDKit          3D

 59 62  0  0  0  0  0  0  0  0999 V2000
   -8.8137   -0.7624    2.0630 C   0  0  0  0  0  0  0  0  0  0  0  0
   -7.6430   -0.0843    1.4110 C   0  0  0  0  0  0  0  0  0  0  0  0
   -7.5844    0.0411    0.0158 C   0  0  0  0  0  0  0  0  0  0  0  0
   -6.5115    0.7004   -0.5915 C   0  0  0  0  0  0  0  0  0  0  0  0
   -5.4890    1.2386    0.1955 C   0  0  0  0  0  0  0  0  0  0  0  0
   -4.3730    1.9545   -0.4725 C   0  0  0  0  0  0  0  0  0  0  0  0
   -4.6417    2.7104   -1.4053 O   0  0  0  0  0  0  0  0  0  0  0  0
   -3.0722    1.7611   -0.0009 N   0  0  0  0  0  0  0  0  0  0  0  0
   -2.0158    2.5645   -0.6295 C   0  0  0  0  0  0  0  0  0  0  0  0
   -1.4098    1.8252   -1.8420 C   0  0  0  0  0  0  0  0  0  0  0  0
   -0.8988    0.4837   -1.4298 N   0  0  0  0  0  0  0  0  0  0  0  0
    0.4318    0.4541   -1.0023 C   0  0  0  0  0  0  0  0  0  0  0  0
    1.4433    0.9176   -1.8554 C   0  0  0  0  0  0  0  0  0  0  0  0
    2.7897    0.9399   -1.4697 C   0  0  0  0  0  0  0  0  0  0  0  0
    3.1725    0.4978   -0.2044 C   0  0  0  0  0  0  0  0  0  0  0  0
    4.5372    0.6081    0.1321 N   0  0  0  0  0  0  0  0  0  0  0  0
    5.1326    0.3205    1.3537 C   0  0  0  0  0  0  0  0  0  0  0  0
    4.5621   -0.1256    2.3465 O   0  0  0  0  0  0  0  0  0  0  0  0
    6.6232    0.6439    1.3751 C   0  0  0  0  0  0  0  0  0  0  0  0
    7.6323   -0.8366    1.7037 S   0  0  0  0  0  0  0  0  0  0  0  0
    7.1328   -1.8591    0.3326 C   0  0  0  0  0  0  0  0  0  0  0  0
    6.1608   -2.8496    0.5247 C   0  0  0  0  0  0  0  0  0  0  0  0
    5.7687   -3.6695   -0.5399 C   0  0  0  0  0  0  0  0  0  0  0  0
    6.3540   -3.5001   -1.7922 C   0  0  0  0  0  0  0  0  0  0  0  0
    5.8805   -4.5134   -3.1020 Cl  0  0  0  0  0  0  0  0  0  0  0  0
    7.3252   -2.5165   -1.9918 C   0  0  0  0  0  0  0  0  0  0  0  0
    7.7175   -1.6968   -0.9270 C   0  0  0  0  0  0  0  0  0  0  0  0
    2.1913   -0.0076    0.6417 C   0  0  0  0  0  0  0  0  0  0  0  0
    0.8453   -0.0390    0.2398 C   0  0  0  0  0  0  0  0  0  0  0  0
   -1.9276   -0.3304   -0.7381 C   0  0  0  0  0  0  0  0  0  0  0  0
   -2.5964    0.4351    0.4317 C   0  0  0  0  0  0  0  0  0  0  0  0
   -5.5616    1.1553    1.5916 C   0  0  0  0  0  0  0  0  0  0  0  0
   -6.6323    0.4909    2.1942 C   0  0  0  0  0  0  0  0  0  0  0  0
   -9.5970   -0.0289    2.2843 H   0  0  0  0  0  0  0  0  0  0  0  0
   -9.2283   -1.5381    1.4094 H   0  0  0  0  0  0  0  0  0  0  0  0
   -8.5114   -1.2521    2.9963 H   0  0  0  0  0  0  0  0  0  0  0  0
   -8.3770   -0.3687   -0.6071 H   0  0  0  0  0  0  0  0  0  0  0  0
   -6.4781    0.8002   -1.6758 H   0  0  0  0  0  0  0  0  0  0  0  0
   -1.2471    2.7444    0.1331 H   0  0  0  0  0  0  0  0  0  0  0  0
   -2.4109    3.5395   -0.9368 H   0  0  0  0  0  0  0  0  0  0  0  0
   -0.6383    2.4521   -2.3048 H   0  0  0  0  0  0  0  0  0  0  0  0
   -2.1843    1.6718   -2.6054 H   0  0  0  0  0  0  0  0  0  0  0  0
    1.1894    1.2535   -2.8576 H   0  0  0  0  0  0  0  0  0  0  0  0
    3.5208    1.3170   -2.1786 H   0  0  0  0  0  0  0  0  0  0  0  0
    5.1349    0.9639   -0.6027 H   0  0  0  0  0  0  0  0  0  0  0  0
    6.7909    1.3698    2.1758 H   0  0  0  0  0  0  0  0  0  0  0  0
    6.9522    1.1098    0.4417 H   0  0  0  0  0  0  0  0  0  0  0  0
    5.6957   -2.9894    1.5018 H   0  0  0  0  0  0  0  0  0  0  0  0
    5.0127   -4.4357   -0.3777 H   0  0  0  0  0  0  0  0  0  0  0  0
    7.7913   -2.3906   -2.9668 H   0  0  0  0  0  0  0  0  0  0  0  0
    8.4903   -0.9467   -1.0902 H   0  0  0  0  0  0  0  0  0  0  0  0
    2.4281   -0.3867    1.6301 H   0  0  0  0  0  0  0  0  0  0  0  0
    0.1337   -0.4419    0.9521 H   0  0  0  0  0  0  0  0  0  0  0  0
   -1.5256   -1.2933   -0.3997 H   0  0  0  0  0  0  0  0  0  0  0  0
   -2.7014   -0.5728   -1.4791 H   0  0  0  0  0  0  0  0  0  0  0  0
   -1.8842    0.6046    1.2458 H   0  0  0  0  0  0  0  0  0  0  0  0
   -3.4108   -0.1779    0.8262 H   0  0  0  0  0  0  0  0  0  0  0  0
   -4.7958    1.6146    2.2122 H   0  0  0  0  0  0  0  0  0  0  0  0
   -6.6797    0.4297    3.2796 H   0  0  0  0  0  0  0  0  0  0  0  0
  1  2  1  0
  2  3  2  0
  3  4  1  0
  4  5  2  0
  5  6  1  0
  6  7  2  0
  6  8  1  0
  8  9  1  0
  9 10  1  0
 10 11  1  0
 11 12  1  0
 12 13  2  0
 13 14  1  0
 14 15  2  0
 15 16  1  0
 16 17  1  0
 17 18  2  0
 17 19  1  0
 19 20  1  0
 20 21  1  0
 21 22  2  0
 22 23  1  0
 23 24  2  0
 24 25  1  0
 24 26  1  0
 26 27  2  0
 15 28  1  0
 28 29  2  0
 11 30  1  0
 30 31  1  0
  5 32  1  0
 32 33  2  0
 33  2  1  0
 31  8  1  0
 29 12  1  0
 27 21  1  0
  1 34  1  0
  1 35  1  0
  1 36  1  0
  3 37  1  0
  4 38  1  0
  9 39  1  0
  9 40  1  0
 10 41  1  0
 10 42  1  0
 13 43  1  0
 14 44  1  0
 16 45  1  0
 19 46  1  0
 19 47  1  0
 22 48  1  0
 23 49  1  0
 26 50  1  0
 27 51  1  0
 28 52  1  0
 29 53  1  0
 30 54  1  0
 30 55  1  0
 31 56  1  0
 31 57  1  0
 32 58  1  0
 33 59  1  0
M  END
$$$$
