
     RDKit          3D

 61 66  0  0  0  0  0  0  0  0999 V2000
   10.0952   -0.9822    0.7536 F   0  0  0  0  0  0  0  0  0  0  0  0
    8.7717   -0.7803    0.7219 C   0  0  0  0  0  0  0  0  0  0  0  0
    7.9115   -1.8427    0.9717 C   0  0  0  0  0  0  0  0  0  0  0  0
    6.5320   -1.6350    0.9340 C   0  0  0  0  0  0  0  0  0  0  0  0
    6.0145   -0.3629    0.6418 C   0  0  0  0  0  0  0  0  0  0  0  0
    4.5199   -0.1347    0.6138 C   0  0  0  0  0  0  0  0  0  0  0  0
    3.9698    0.1909    2.0151 C   0  0  0  0  0  0  0  0  0  0  0  0
    2.5265    0.4317    2.1200 N   0  0  0  0  0  0  0  0  0  0  0  0
    1.7123   -0.7861    1.9471 C   0  0  0  0  0  0  0  0  0  0  0  0
    0.2237   -0.4732    1.6884 C   0  0  0  0  0  0  0  0  0  0  0  0
    0.0512    0.2737    0.4124 N   0  0  0  0  0  0  0  0  0  0  0  0
   -1.2142    0.7562    0.2032 C   0  0  0  0  0  0  0  0  0  0  0  0
   -1.7534    1.9602    0.6162 C   0  0  0  0  0  0  0  0  0  0  0  0
   -3.1272    1.9560    0.2997 C   0  0  0  0  0  0  0  0  0  0  0  0
   -3.4046    0.7657   -0.3454 C   0  0  0  0  0  0  0  0  0  0  0  0
   -4.6381    0.2102   -0.8606 C   0  0  0  0  0  0  0  0  0  0  0  0
   -5.9115    0.9676   -0.7662 C   0  0  0  0  0  0  0  0  0  0  0  0
   -7.0369    0.3282   -0.2339 C   0  0  0  0  0  0  0  0  0  0  0  0
   -8.2505    1.0114   -0.1500 C   0  0  0  0  0  0  0  0  0  0  0  0
   -8.3432    2.3258   -0.6090 C   0  0  0  0  0  0  0  0  0  0  0  0
   -7.2269    2.9573   -1.1602 C   0  0  0  0  0  0  0  0  0  0  0  0
   -6.0105    2.2779   -1.2462 C   0  0  0  0  0  0  0  0  0  0  0  0
   -4.6652   -0.9732   -1.3975 N   0  0  0  0  0  0  0  0  0  0  0  0
   -3.4631   -1.6933   -1.5362 C   0  0  0  0  0  0  0  0  0  0  0  0
   -3.5256   -2.9341   -2.1775 C   0  0  0  0  0  0  0  0  0  0  0  0
   -2.3726   -3.6922   -2.3821 C   0  0  0  0  0  0  0  0  0  0  0  0
   -1.1397   -3.2072   -1.9525 C   0  0  0  0  0  0  0  0  0  0  0  0
   -1.0572   -1.9705   -1.3085 C   0  0  0  0  0  0  0  0  0  0  0  0
   -2.2172   -1.2217   -1.0869 C   0  0  0  0  0  0  0  0  0  0  0  0
   -2.2263    0.0372   -0.4336 N   0  0  0  0  0  0  0  0  0  0  0  0
    1.1888    1.1639    0.0743 C   0  0  0  0  0  0  0  0  0  0  0  0
    2.0253    1.5596    1.3120 C   0  0  0  0  0  0  0  0  0  0  0  0
    6.8999    0.6992    0.4010 C   0  0  0  0  0  0  0  0  0  0  0  0
    8.2791    0.4881    0.4386 C   0  0  0  0  0  0  0  0  0  0  0  0
    8.3199   -2.8234    1.1943 H   0  0  0  0  0  0  0  0  0  0  0  0
    5.8633   -2.4702    1.1317 H   0  0  0  0  0  0  0  0  0  0  0  0
    4.2999    0.6793   -0.0878 H   0  0  0  0  0  0  0  0  0  0  0  0
    4.0388   -1.0281    0.1984 H   0  0  0  0  0  0  0  0  0  0  0  0
    4.2380   -0.6171    2.7092 H   0  0  0  0  0  0  0  0  0  0  0  0
    4.4895    1.0761    2.4048 H   0  0  0  0  0  0  0  0  0  0  0  0
    1.7961   -1.3972    2.8528 H   0  0  0  0  0  0  0  0  0  0  0  0
    2.0768   -1.3926    1.1098 H   0  0  0  0  0  0  0  0  0  0  0  0
   -0.1797    0.1064    2.5297 H   0  0  0  0  0  0  0  0  0  0  0  0
   -0.3362   -1.4147    1.6380 H   0  0  0  0  0  0  0  0  0  0  0  0
   -1.2202    2.7348    1.1509 H   0  0  0  0  0  0  0  0  0  0  0  0
   -3.8364    2.7366    0.5434 H   0  0  0  0  0  0  0  0  0  0  0  0
   -6.9674   -0.7001    0.1132 H   0  0  0  0  0  0  0  0  0  0  0  0
   -9.1242    0.5162    0.2666 H   0  0  0  0  0  0  0  0  0  0  0  0
   -9.2911    2.8552   -0.5480 H   0  0  0  0  0  0  0  0  0  0  0  0
   -7.3085    3.9754   -1.5323 H   0  0  0  0  0  0  0  0  0  0  0  0
   -5.1545    2.7665   -1.7039 H   0  0  0  0  0  0  0  0  0  0  0  0
   -4.4866   -3.3036   -2.5265 H   0  0  0  0  0  0  0  0  0  0  0  0
   -2.4376   -4.6527   -2.8857 H   0  0  0  0  0  0  0  0  0  0  0  0
   -0.2376   -3.7887   -2.1251 H   0  0  0  0  0  0  0  0  0  0  0  0
   -0.0779   -1.6145   -1.0120 H   0  0  0  0  0  0  0  0  0  0  0  0
    0.8528    2.0711   -0.4435 H   0  0  0  0  0  0  0  0  0  0  0  0
    1.8271    0.6259   -0.6371 H   0  0  0  0  0  0  0  0  0  0  0  0
    1.3864    2.1627    1.9710 H   0  0  0  0  0  0  0  0  0  0  0  0
    2.8403    2.2280    1.0082 H   0  0  0  0  0  0  0  0  0  0  0  0
    6.5204    1.6949    0.1814 H   0  0  0  0  0  0  0  0  0  0  0  0
    8.9712    1.3026    0.2495 H   0  0  0  0  0  0  0  0  0  0  0  0
  1  2  1  0
  2  3  2  0
  3  4  1  0
  4  5  2  0
  5  6  1  0
  6  7  1  0
  7  8  1  0
  8  9  1  0
  9 10  1  0
 10 11  1  0
 11 12  1  0
 12 13  2  0
 13 14  1  0
 14 15  2  0
 15 16  1  0
 16 17  1  0
 17 18  2  0
 18 19  1  0
 19 20  2  0
 20 21  1  0
 21 22  2  0
 16 23  2  0
 23 24  1  0
 24 25  2  0
 25 26  1  0
 26 27  2  0
 27 28  1  0
 28 29  2  0
 29 30  1  0
 11 31  1  0
 31 32  1  0
  5 33  1  0
 33 34  2  0
 34  2  1  0
 32  8  1  0
 30 12  1  0
 30 15  1  0
 22 17  1  0
 29 24  1  0
  3 35  1  0
  4 36  1  0
  6 37  1  0
  6 38  1  0
  7 39  1  0
  7 40  1  0
  9 41  1  0
  9 42  1  0
 10 43  1  0
 10 44  1  0
 13 45  1  0
 14 46  1  0
 18 47  1  0
 19 48  1  0
 20 49  1  0
 21 50  1  0
 22 51  1  0
 25 52  1  0
 26 53  1  0
 27 54  1  0
 28 55  1  0
 31 56  1  0
 31 57  1  0
 32 58  1  0
 32 59  1  0
 33 60  1  0
 34 61  1  0
M  END
$$$$
