
     RDKit          3D

 40 42  0  0  0  0  0  0  0  0999 V2000
   -5.4097    0.2714   -0.4423 C   0  0  0  0  0  0  0  0  0  0  0  0
   -3.9733   -0.0175   -0.1186 C   0  0  0  0  0  0  0  0  0  0  0  0
   -3.3994   -1.2401   -0.4719 C   0  0  0  0  0  0  0  0  0  0  0  0
   -2.0654   -1.5550   -0.1459 C   0  0  0  0  0  0  0  0  0  0  0  0
   -1.5697   -2.9115   -0.5687 C   0  0  0  0  0  0  0  0  0  0  0  0
   -1.2915   -0.5989    0.5561 C   0  0  0  0  0  0  0  0  0  0  0  0
    0.4387   -0.9146    0.9857 S   0  0  0  0  0  6  0  0  0  0  0  0
    0.5895   -0.5896    2.3898 O   0  0  0  0  0  0  0  0  0  0  0  0
    0.8419   -2.2200    0.5046 O   0  0  0  0  0  0  0  0  0  0  0  0
    1.2497    0.2421    0.0276 N   0  0  0  0  0  0  0  0  0  0  0  0
    1.0338    0.1349   -1.4545 C   0  0  0  0  0  0  0  0  0  0  0  0
    2.2894    0.7275   -2.1132 C   0  0  0  0  0  0  0  0  0  0  0  0
    3.2878    0.6554   -1.0055 C   0  0  0  0  0  0  0  0  0  0  0  0
    4.6523    0.8907   -1.0812 C   0  0  0  0  0  0  0  0  0  0  0  0
    5.3964    0.8508    0.0986 C   0  0  0  0  0  0  0  0  0  0  0  0
    4.7680    0.6029    1.3278 C   0  0  0  0  0  0  0  0  0  0  0  0
    3.3891    0.3787    1.3915 C   0  0  0  0  0  0  0  0  0  0  0  0
    2.6667    0.3729    0.2112 C   0  0  0  0  0  0  0  0  0  0  0  0
   -1.8714    0.6392    0.9418 C   0  0  0  0  0  0  0  0  0  0  0  0
   -1.1508    1.6920    1.7458 C   0  0  0  0  0  0  0  0  0  0  0  0
   -3.2111    0.9021    0.6017 C   0  0  0  0  0  0  0  0  0  0  0  0
   -5.7075   -0.2229   -1.3730 H   0  0  0  0  0  0  0  0  0  0  0  0
   -5.5707    1.3458   -0.5806 H   0  0  0  0  0  0  0  0  0  0  0  0
   -6.0543   -0.0818    0.3684 H   0  0  0  0  0  0  0  0  0  0  0  0
   -4.0092   -1.9683   -1.0066 H   0  0  0  0  0  0  0  0  0  0  0  0
   -2.3563   -3.4902   -1.0667 H   0  0  0  0  0  0  0  0  0  0  0  0
   -0.7527   -2.8171   -1.2897 H   0  0  0  0  0  0  0  0  0  0  0  0
   -1.2624   -3.4983    0.3020 H   0  0  0  0  0  0  0  0  0  0  0  0
    0.1361    0.6816   -1.7585 H   0  0  0  0  0  0  0  0  0  0  0  0
    0.9282   -0.9129   -1.7584 H   0  0  0  0  0  0  0  0  0  0  0  0
    2.1227    1.7717   -2.3981 H   0  0  0  0  0  0  0  0  0  0  0  0
    2.5910    0.1492   -2.9911 H   0  0  0  0  0  0  0  0  0  0  0  0
    5.1328    1.1123   -2.0288 H   0  0  0  0  0  0  0  0  0  0  0  0
    6.4687    1.0299    0.0695 H   0  0  0  0  0  0  0  0  0  0  0  0
    5.3560    0.5949    2.2427 H   0  0  0  0  0  0  0  0  0  0  0  0
    2.9168    0.2178    2.3542 H   0  0  0  0  0  0  0  0  0  0  0  0
   -1.0140    1.3564    2.7777 H   0  0  0  0  0  0  0  0  0  0  0  0
   -0.1883    1.9537    1.3021 H   0  0  0  0  0  0  0  0  0  0  0  0
   -1.7270    2.6237    1.7857 H   0  0  0  0  0  0  0  0  0  0  0  0
   -3.6707    1.8410    0.9092 H   0  0  0  0  0  0  0  0  0  0  0  0
  1  2  1  0
  2  3  2  0
  3  4  1  0
  4  5  1  0
  4  6  2  0
  6  7  1  0
  7  8  2  0
  7  9  2  0
  7 10  1  0
 10 11  1  0
 11 12  1  0
 12 13  1  0
 13 14  2  0
 14 15  1  0
 15 16  2  0
 16 17  1  0
 17 18  2  0
  6 19  1  0
 19 20  1  0
 19 21  2  0
 21  2  1  0
 18 10  1  0
 18 13  1  0
  1 22  1  0
  1 23  1  0
  1 24  1  0
  3 25  1  0
  5 26  1  0
  5 27  1  0
  5 28  1  0
 11 29  1  0
 11 30  1  0
 12 31  1  0
 12 32  1  0
 14 33  1  0
 15 34  1  0
 16 35  1  0
 17 36  1  0
 20 37  1  0
 20 38  1  0
 20 39  1  0
 21 40  1  0
M  END
$$$$
