
     RDKit          3D

 23 24  0  0  0  0  0  0  0  0999 V2000
    4.7394   -2.1449   -0.5555 O   0  0  0  0  0  0  0  0  0  0  0  0
    3.4432   -1.6344   -0.4030 N   0  0  0  0  0  0  0  0  0  0  0  0
    3.4999   -0.5124    0.2429 C   0  0  0  0  0  0  0  0  0  0  0  0
    2.3224    0.2491    0.5531 C   0  0  0  0  0  0  0  0  0  0  0  0
    2.1643    1.4382    1.2349 C   0  0  0  0  0  0  0  0  0  0  0  0
    0.7749    1.7183    1.2433 C   0  0  0  0  0  0  0  0  0  0  0  0
    0.1562    0.6920    0.5575 C   0  0  0  0  0  0  0  0  0  0  0  0
   -1.2217    0.3552    0.2046 C   0  0  0  0  0  0  0  0  0  0  0  0
   -1.6026   -1.0017    0.2195 C   0  0  0  0  0  0  0  0  0  0  0  0
   -2.9070   -1.3864   -0.0915 C   0  0  0  0  0  0  0  0  0  0  0  0
   -3.3412   -3.0504   -0.0560 Cl  0  0  0  0  0  0  0  0  0  0  0  0
   -3.8610   -0.4326   -0.4270 C   0  0  0  0  0  0  0  0  0  0  0  0
   -3.5036    0.9151   -0.4560 C   0  0  0  0  0  0  0  0  0  0  0  0
   -2.1942    1.3106   -0.1450 C   0  0  0  0  0  0  0  0  0  0  0  0
   -1.8567    3.0043   -0.2607 Cl  0  0  0  0  0  0  0  0  0  0  0  0
    1.1009   -0.2064    0.1458 O   0  0  0  0  0  0  0  0  0  0  0  0
    4.5784   -2.9706   -1.0507 H   0  0  0  0  0  0  0  0  0  0  0  0
    4.4678   -0.1019    0.5818 H   0  0  0  0  0  0  0  0  0  0  0  0
    2.9529    2.0304    1.6781 H   0  0  0  0  0  0  0  0  0  0  0  0
    0.2880    2.5666    1.7040 H   0  0  0  0  0  0  0  0  0  0  0  0
   -0.8718   -1.7660    0.4812 H   0  0  0  0  0  0  0  0  0  0  0  0
   -4.8778   -0.7290   -0.6714 H   0  0  0  0  0  0  0  0  0  0  0  0
   -4.2506    1.6570   -0.7302 H   0  0  0  0  0  0  0  0  0  0  0  0
  1  2  1  0
  2  3  2  3
  3  4  1  0
  4  5  2  0
  5  6  1  0
  6  7  2  0
  7  8  1  0
  8  9  2  0
  9 10  1  0
 10 11  1  0
 10 12  2  0
 12 13  1  0
 13 14  2  0
 14 15  1  0
  7 16  1  0
 16  4  1  0
 14  8  1  0
  1 17  1  0
  3 18  1  0
  5 19  1  0
  6 20  1  0
  9 21  1  0
 12 22  1  0
 13 23  1  0
M  END
$$$$
