
     RDKit          3D

 46 48  0  0  0  0  0  0  0  0999 V2000
    3.2445    1.4908    1.6547 C   0  0  0  0  0  0  0  0  0  0  0  0
    3.6786    0.9961    0.2833 C   0  0  0  0  0  0  0  0  0  0  0  0
    2.5319    0.3595   -0.5466 N   0  0  0  0  0  4  0  0  0  0  0  0
    3.1505   -0.0977   -1.8687 C   0  0  0  0  0  0  0  0  0  0  0  0
    1.9954   -0.8687    0.1881 C   0  0  0  0  0  0  0  0  0  0  0  0
    1.4230    1.4169   -0.7818 C   0  0  0  0  0  0  0  0  0  0  0  0
    0.3737    1.0887   -1.8635 C   0  0  0  0  0  0  0  0  0  0  0  0
   -0.5454   -0.0787   -1.6122 C   0  0  0  0  0  0  0  0  0  0  0  0
   -1.4687   -0.2469   -0.6369 C   0  0  0  0  0  0  0  0  0  0  0  0
   -1.7113    0.7633    0.4241 C   0  0  0  0  0  0  0  0  0  0  0  0
   -2.0181    2.0989    0.1287 C   0  0  0  0  0  0  0  0  0  0  0  0
   -2.2289    3.0203    1.1561 C   0  0  0  0  0  0  0  0  0  0  0  0
   -2.1582    2.6120    2.4859 C   0  0  0  0  0  0  0  0  0  0  0  0
   -1.9041    1.2752    2.7933 C   0  0  0  0  0  0  0  0  0  0  0  0
   -1.7011    0.3429    1.7695 C   0  0  0  0  0  0  0  0  0  0  0  0
   -1.4548   -1.3771    2.2162 S   0  0  0  0  0  0  0  0  0  0  0  0
   -2.1325   -2.1949    0.7690 C   0  0  0  0  0  0  0  0  0  0  0  0
   -2.7016   -3.4647    0.9239 C   0  0  0  0  0  0  0  0  0  0  0  0
   -3.2449   -4.1300   -0.1771 C   0  0  0  0  0  0  0  0  0  0  0  0
   -3.2226   -3.5258   -1.4319 C   0  0  0  0  0  0  0  0  0  0  0  0
   -3.8948   -4.3449   -2.7865 Cl  0  0  0  0  0  0  0  0  0  0  0  0
   -2.6547   -2.2635   -1.6027 C   0  0  0  0  0  0  0  0  0  0  0  0
   -2.0891   -1.5947   -0.5071 C   0  0  0  0  0  0  0  0  0  0  0  0
    4.1130    1.8968    2.1847 H   0  0  0  0  0  0  0  0  0  0  0  0
    2.8358    0.6879    2.2741 H   0  0  0  0  0  0  0  0  0  0  0  0
    2.5063    2.2947    1.5896 H   0  0  0  0  0  0  0  0  0  0  0  0
    4.0821    1.8247   -0.3105 H   0  0  0  0  0  0  0  0  0  0  0  0
    4.4601    0.2347    0.3903 H   0  0  0  0  0  0  0  0  0  0  0  0
    4.0047   -0.7446   -1.6461 H   0  0  0  0  0  0  0  0  0  0  0  0
    3.4740    0.7884   -2.4226 H   0  0  0  0  0  0  0  0  0  0  0  0
    2.4065   -0.6625   -2.4361 H   0  0  0  0  0  0  0  0  0  0  0  0
    1.3931   -1.4650   -0.4994 H   0  0  0  0  0  0  0  0  0  0  0  0
    2.8476   -1.4663    0.5257 H   0  0  0  0  0  0  0  0  0  0  0  0
    1.3995   -0.5377    1.0402 H   0  0  0  0  0  0  0  0  0  0  0  0
    0.9466    1.6009    0.1844 H   0  0  0  0  0  0  0  0  0  0  0  0
    1.9430    2.3351   -1.0811 H   0  0  0  0  0  0  0  0  0  0  0  0
    0.8752    0.9284   -2.8257 H   0  0  0  0  0  0  0  0  0  0  0  0
   -0.2345    1.9838   -2.0378 H   0  0  0  0  0  0  0  0  0  0  0  0
   -0.3840   -0.8972   -2.3167 H   0  0  0  0  0  0  0  0  0  0  0  0
   -2.1315    2.4308   -0.9003 H   0  0  0  0  0  0  0  0  0  0  0  0
   -2.4740    4.0541    0.9202 H   0  0  0  0  0  0  0  0  0  0  0  0
   -2.3373    3.3282    3.2856 H   0  0  0  0  0  0  0  0  0  0  0  0
   -1.8952    0.9648    3.8365 H   0  0  0  0  0  0  0  0  0  0  0  0
   -2.7380   -3.9418    1.9012 H   0  0  0  0  0  0  0  0  0  0  0  0
   -3.6916   -5.1133   -0.0468 H   0  0  0  0  0  0  0  0  0  0  0  0
   -2.6682   -1.8020   -2.5871 H   0  0  0  0  0  0  0  0  0  0  0  0
  1  2  1  0
  2  3  1  0
  3  4  1  0
  3  5  1  0
  3  6  1  0
  6  7  1  0
  7  8  1  0
  8  9  2  3
  9 10  1  0
 10 11  2  0
 11 12  1  0
 12 13  2  0
 13 14  1  0
 14 15  2  0
 15 16  1  0
 16 17  1  0
 17 18  2  0
 18 19  1  0
 19 20  2  0
 20 21  1  0
 20 22  1  0
 22 23  2  0
 23  9  1  0
 15 10  1  0
 23 17  1  0
  1 24  1  0
  1 25  1  0
  1 26  1  0
  2 27  1  0
  2 28  1  0
  4 29  1  0
  4 30  1  0
  4 31  1  0
  5 32  1  0
  5 33  1  0
  5 34  1  0
  6 35  1  0
  6 36  1  0
  7 37  1  0
  7 38  1  0
  8 39  1  0
 11 40  1  0
 12 41  1  0
 13 42  1  0
 14 43  1  0
 18 44  1  0
 19 45  1  0
 22 46  1  0
M  CHG  1   3   1
M  END
$$$$
