
     RDKit          3D

 33 35  0  0  0  0  0  0  0  0999 V2000
    5.4628   -0.3128    1.0049 C   0  0  0  0  0  0  0  0  0  0  0  0
    4.6384   -1.2859    0.3764 O   0  0  0  0  0  0  0  0  0  0  0  0
    3.3434   -0.9317    0.1175 C   0  0  0  0  0  0  0  0  0  0  0  0
    2.5828   -1.9245   -0.5034 C   0  0  0  0  0  0  0  0  0  0  0  0
    1.2413   -1.7012   -0.8184 C   0  0  0  0  0  0  0  0  0  0  0  0
    0.6465   -0.4724   -0.5155 C   0  0  0  0  0  0  0  0  0  0  0  0
    1.4050    0.5425    0.0919 C   0  0  0  0  0  0  0  0  0  0  0  0
    2.7517    0.2976    0.4173 C   0  0  0  0  0  0  0  0  0  0  0  0
    0.7843    1.8719    0.4361 C   0  0  0  0  0  0  0  0  0  0  0  0
   -0.4196    2.1757   -0.4519 C   0  0  0  0  0  0  0  0  0  0  0  0
   -1.3979    1.0300   -0.4125 C   0  0  0  0  0  0  0  0  0  0  0  0
   -2.6795    1.2258   -0.0544 C   0  0  0  0  0  0  0  0  0  0  0  0
   -3.7079    0.2555    0.1020 C   0  0  0  0  0  0  0  0  0  0  0  0
   -3.6878   -1.1042    0.3956 C   0  0  0  0  0  0  0  0  0  0  0  0
   -5.0244   -1.5649    0.4687 C   0  0  0  0  0  0  0  0  0  0  0  0
   -5.8084   -0.4661    0.2406 C   0  0  0  0  0  0  0  0  0  0  0  0
   -5.0378    0.6279    0.0376 O   0  0  0  0  0  0  0  0  0  0  0  0
   -0.7935   -0.2702   -0.8426 C   0  0  0  0  0  0  0  0  0  0  0  0
   -1.4123   -1.1163   -1.4744 O   0  0  0  0  0  0  0  0  0  0  0  0
    5.0798   -0.0528    1.9972 H   0  0  0  0  0  0  0  0  0  0  0  0
    6.4568   -0.7510    1.1361 H   0  0  0  0  0  0  0  0  0  0  0  0
    5.5716    0.5775    0.3766 H   0  0  0  0  0  0  0  0  0  0  0  0
    3.0376   -2.8836   -0.7409 H   0  0  0  0  0  0  0  0  0  0  0  0
    0.6642   -2.4905   -1.2962 H   0  0  0  0  0  0  0  0  0  0  0  0
    3.3183    1.0864    0.9029 H   0  0  0  0  0  0  0  0  0  0  0  0
    0.4841    1.8551    1.4913 H   0  0  0  0  0  0  0  0  0  0  0  0
    1.5225    2.6731    0.3116 H   0  0  0  0  0  0  0  0  0  0  0  0
   -0.8795    3.1151   -0.1226 H   0  0  0  0  0  0  0  0  0  0  0  0
   -0.0955    2.3322   -1.4894 H   0  0  0  0  0  0  0  0  0  0  0  0
   -3.0033    2.2420    0.1608 H   0  0  0  0  0  0  0  0  0  0  0  0
   -2.8023   -1.7073    0.5379 H   0  0  0  0  0  0  0  0  0  0  0  0
   -5.3660   -2.5708    0.6650 H   0  0  0  0  0  0  0  0  0  0  0  0
   -6.8756   -0.3020    0.1951 H   0  0  0  0  0  0  0  0  0  0  0  0
  1  2  1  0
  2  3  1  0
  3  4  2  0
  4  5  1  0
  5  6  2  0
  6  7  1  0
  7  8  2  0
  7  9  1  0
  9 10  1  0
 10 11  1  0
 11 12  2  3
 12 13  1  0
 13 14  2  0
 14 15  1  0
 15 16  2  0
 16 17  1  0
 11 18  1  0
 18 19  2  0
  8  3  1  0
 17 13  1  0
 18  6  1  0
  1 20  1  0
  1 21  1  0
  1 22  1  0
  4 23  1  0
  5 24  1  0
  8 25  1  0
  9 26  1  0
  9 27  1  0
 10 28  1  0
 10 29  1  0
 12 30  1  0
 14 31  1  0
 15 32  1  0
 16 33  1  0
M  END
$$$$
