
     RDKit          3D

 46 49  0  0  0  0  0  0  0  0999 V2000
    4.2166    2.0613    0.9573 O   0  0  0  0  0  0  0  0  0  0  0  0
    3.3676    1.6716    0.1597 C   0  0  0  0  0  0  0  0  0  0  0  0
    2.3230    2.6311   -0.3860 C   0  0  0  0  0  0  0  0  0  0  0  0
    0.7978    2.5615    0.6005 S   0  0  0  0  0  0  0  0  0  0  0  0
   -0.0200    1.2307   -0.1325 C   0  0  0  0  0  0  0  0  0  0  0  0
    0.5033    0.3944   -0.9975 N   0  0  0  0  0  0  0  0  0  0  0  0
   -0.4607   -0.5220   -1.3318 N   0  0  0  0  0  0  0  0  0  0  0  0
   -1.5602   -0.2250   -0.6665 C   0  0  0  0  0  0  0  0  0  0  0  0
   -2.8528   -0.9733   -0.7482 C   0  0  0  0  0  0  0  0  0  0  0  0
   -3.8552   -0.2973   -1.6448 C   0  0  0  0  0  0  0  0  0  0  0  0
   -3.7077    0.0825   -2.9665 C   0  0  0  0  0  0  0  0  0  0  0  0
   -4.8805    0.6958   -3.4917 C   0  0  0  0  0  0  0  0  0  0  0  0
   -5.8899    0.7625   -2.5569 C   0  0  0  0  0  0  0  0  0  0  0  0
   -5.4288    0.0719   -1.0656 S   0  0  0  0  0  0  0  0  0  0  0  0
   -1.3209    0.8806    0.1222 N   0  0  0  0  0  0  0  0  0  0  0  0
   -2.2551    1.5362    1.0148 C   0  0  0  0  0  0  0  0  0  0  0  0
   -2.3465    0.8106    2.3035 C   0  0  0  0  0  0  0  0  0  0  0  0
   -1.4467    0.5351    3.3111 C   0  0  0  0  0  0  0  0  0  0  0  0
   -2.1552   -0.2004    4.2898 C   0  0  0  0  0  0  0  0  0  0  0  0
   -3.4396   -0.3226    3.8221 C   0  0  0  0  0  0  0  0  0  0  0  0
   -3.5651    0.2872    2.6169 O   0  0  0  0  0  0  0  0  0  0  0  0
    3.2322    0.3769   -0.3136 N   0  0  0  0  0  0  0  0  0  0  0  0
    4.0892   -0.7118   -0.0673 C   0  0  0  0  0  0  0  0  0  0  0  0
    3.6270   -1.9862   -0.4269 C   0  0  0  0  0  0  0  0  0  0  0  0
    4.4249   -3.1157   -0.2194 C   0  0  0  0  0  0  0  0  0  0  0  0
    5.6954   -2.9708    0.3402 C   0  0  0  0  0  0  0  0  0  0  0  0
    6.7813   -4.4934    0.6255 Br  0  0  0  0  0  0  0  0  0  0  0  0
    6.1703   -1.7083    0.6906 C   0  0  0  0  0  0  0  0  0  0  0  0
    5.3679   -0.5810    0.4838 C   0  0  0  0  0  0  0  0  0  0  0  0
    2.1348    2.4452   -1.4519 H   0  0  0  0  0  0  0  0  0  0  0  0
    2.7282    3.6462   -0.3093 H   0  0  0  0  0  0  0  0  0  0  0  0
   -2.6505   -1.9750   -1.1532 H   0  0  0  0  0  0  0  0  0  0  0  0
   -3.2572   -1.1364    0.2538 H   0  0  0  0  0  0  0  0  0  0  0  0
   -2.7941   -0.0663   -3.5299 H   0  0  0  0  0  0  0  0  0  0  0  0
   -4.9797    1.0704   -4.5024 H   0  0  0  0  0  0  0  0  0  0  0  0
   -6.8788    1.1770   -2.6838 H   0  0  0  0  0  0  0  0  0  0  0  0
   -1.9374    2.5720    1.1819 H   0  0  0  0  0  0  0  0  0  0  0  0
   -3.2202    1.5923    0.5078 H   0  0  0  0  0  0  0  0  0  0  0  0
   -0.4040    0.8263    3.3356 H   0  0  0  0  0  0  0  0  0  0  0  0
   -1.7786   -0.5910    5.2226 H   0  0  0  0  0  0  0  0  0  0  0  0
   -4.3367   -0.7880    4.2106 H   0  0  0  0  0  0  0  0  0  0  0  0
    2.3465    0.1535   -0.7751 H   0  0  0  0  0  0  0  0  0  0  0  0
    2.6347   -2.1180   -0.8571 H   0  0  0  0  0  0  0  0  0  0  0  0
    4.0459   -4.0971   -0.4954 H   0  0  0  0  0  0  0  0  0  0  0  0
    7.1600   -1.5832    1.1208 H   0  0  0  0  0  0  0  0  0  0  0  0
    5.7753    0.3900    0.7536 H   0  0  0  0  0  0  0  0  0  0  0  0
  1  2  2  0
  2  3  1  0
  3  4  1  0
  4  5  1  0
  5  6  2  0
  6  7  1  0
  7  8  2  0
  8  9  1  0
  9 10  1  0
 10 11  2  0
 11 12  1  0
 12 13  2  0
 13 14  1  0
  8 15  1  0
 15 16  1  0
 16 17  1  0
 17 18  2  0
 18 19  1  0
 19 20  2  0
 20 21  1  0
  2 22  1  0
 22 23  1  0
 23 24  2  0
 24 25  1  0
 25 26  2  0
 26 27  1  0
 26 28  1  0
 28 29  2  0
 15  5  1  0
 21 17  1  0
 29 23  1  0
 14 10  1  0
  3 30  1  0
  3 31  1  0
  9 32  1  0
  9 33  1  0
 11 34  1  0
 12 35  1  0
 13 36  1  0
 16 37  1  0
 16 38  1  0
 18 39  1  0
 19 40  1  0
 20 41  1  0
 22 42  1  0
 24 43  1  0
 25 44  1  0
 28 45  1  0
 29 46  1  0
M  END
$$$$
