
     RDKit          3D

 43 45  0  0  0  0  0  0  0  0999 V2000
   -2.7563   -0.4957    1.7265 C   0  0  0  0  0  0  0  0  0  0  0  0
   -2.6086    0.0243    0.2808 C   0  0  0  0  0  0  0  0  0  0  0  0
   -2.7970    1.5539    0.3467 C   0  0  0  0  0  0  0  0  0  0  0  0
   -3.5434   -0.6704   -0.7487 C   0  0  0  0  0  0  0  0  0  0  0  0
   -3.0685   -0.0874   -2.0988 C   0  0  0  0  0  0  0  0  0  0  0  0
   -1.5412    0.0367   -1.9103 C   0  0  0  0  0  0  0  0  0  0  0  0
   -1.3157   -0.4506   -0.4577 C   0  0  0  0  0  0  0  0  0  0  0  0
    0.0008   -0.1277    0.2263 C   0  0  0  0  0  0  0  0  0  0  0  0
    1.4142   -0.1146   -0.8779 S   0  0  0  0  0  6  0  0  0  0  0  0
    1.4582   -1.3448   -1.6336 O   0  0  0  0  0  0  0  0  0  0  0  0
    1.4552    1.1655   -1.5540 O   0  0  0  0  0  0  0  0  0  0  0  0
    2.7188   -0.1368    0.2155 N   0  0  0  0  0  0  0  0  0  0  0  0
    2.8171    1.0327    1.1483 C   0  0  0  0  0  0  0  0  0  0  0  0
    4.2249    1.1276    1.7456 C   0  0  0  0  0  0  0  0  0  0  0  0
    5.2363    1.3635    0.7576 O   0  0  0  0  0  0  0  0  0  0  0  0
    4.9237    0.7868   -0.5199 C   0  0  0  0  0  0  0  0  0  0  0  0
    4.0443   -0.4625   -0.4173 C   0  0  0  0  0  0  0  0  0  0  0  0
   -1.6233   -1.9512   -0.5114 C   0  0  0  0  0  0  0  0  0  0  0  0
   -0.8189   -2.8555   -0.3574 O   0  0  0  0  0  0  0  0  0  0  0  0
   -3.1110   -2.1540   -0.7155 C   0  0  0  0  0  0  0  0  0  0  0  0
   -3.7716   -0.3118    2.0958 H   0  0  0  0  0  0  0  0  0  0  0  0
   -2.5592   -1.5650    1.8399 H   0  0  0  0  0  0  0  0  0  0  0  0
   -2.0587    0.0196    2.3968 H   0  0  0  0  0  0  0  0  0  0  0  0
   -2.6400    2.0687   -0.6037 H   0  0  0  0  0  0  0  0  0  0  0  0
   -2.0986    2.0031    1.0617 H   0  0  0  0  0  0  0  0  0  0  0  0
   -3.8127    1.7970    0.6795 H   0  0  0  0  0  0  0  0  0  0  0  0
   -4.6141   -0.5347   -0.5773 H   0  0  0  0  0  0  0  0  0  0  0  0
   -3.3209   -0.7329   -2.9468 H   0  0  0  0  0  0  0  0  0  0  0  0
   -3.5168    0.8931   -2.2915 H   0  0  0  0  0  0  0  0  0  0  0  0
   -1.2247    1.0744   -2.0563 H   0  0  0  0  0  0  0  0  0  0  0  0
   -1.0197   -0.5841   -2.6474 H   0  0  0  0  0  0  0  0  0  0  0  0
   -0.0317    0.8682    0.6786 H   0  0  0  0  0  0  0  0  0  0  0  0
    0.2211   -0.8573    1.0131 H   0  0  0  0  0  0  0  0  0  0  0  0
    2.5919    1.9614    0.6133 H   0  0  0  0  0  0  0  0  0  0  0  0
    2.0903    0.9000    1.9557 H   0  0  0  0  0  0  0  0  0  0  0  0
    4.2742    1.9494    2.4669 H   0  0  0  0  0  0  0  0  0  0  0  0
    4.4829    0.2064    2.2810 H   0  0  0  0  0  0  0  0  0  0  0  0
    5.8729    0.5415   -1.0066 H   0  0  0  0  0  0  0  0  0  0  0  0
    4.4341    1.5580   -1.1256 H   0  0  0  0  0  0  0  0  0  0  0  0
    3.9203   -0.9078   -1.4089 H   0  0  0  0  0  0  0  0  0  0  0  0
    4.5263   -1.2170    0.2158 H   0  0  0  0  0  0  0  0  0  0  0  0
   -3.5404   -2.6874    0.1357 H   0  0  0  0  0  0  0  0  0  0  0  0
   -3.3144   -2.6828   -1.6492 H   0  0  0  0  0  0  0  0  0  0  0  0
  1  2  1  0
  2  3  1  0
  2  4  1  0
  4  5  1  0
  5  6  1  0
  6  7  1  0
  7  8  1  0
  8  9  1  0
  9 10  2  0
  9 11  2  0
  9 12  1  0
 12 13  1  0
 13 14  1  0
 14 15  1  0
 15 16  1  0
 16 17  1  0
  7 18  1  0
 18 19  2  0
 18 20  1  0
  7  2  1  0
 17 12  1  0
 20  4  1  0
  1 21  1  0
  1 22  1  0
  1 23  1  0
  3 24  1  0
  3 25  1  0
  3 26  1  0
  4 27  1  0
  5 28  1  0
  5 29  1  0
  6 30  1  0
  6 31  1  0
  8 32  1  0
  8 33  1  0
 13 34  1  0
 13 35  1  0
 14 36  1  0
 14 37  1  0
 16 38  1  0
 16 39  1  0
 17 40  1  0
 17 41  1  0
 20 42  1  0
 20 43  1  0
M  END
$$$$
