
     RDKit          3D

 49 50  0  0  0  0  0  0  0  0999 V2000
    2.7768   -0.7488    2.0799 C   0  0  0  0  0  0  0  0  0  0  0  0
    3.9092   -0.8566    1.0570 C   0  0  0  0  0  0  0  0  0  0  0  0
    4.5482   -2.2450    1.1408 C   0  0  0  0  0  0  0  0  0  0  0  0
    3.4244   -0.5906   -0.3788 C   0  0  0  0  0  0  0  0  0  0  0  0
    2.9384    0.8411   -0.5928 C   0  0  0  0  0  0  0  0  0  0  0  0
    2.5269    1.0157   -2.0135 N   0  0  0  0  0  4  0  0  0  0  0  0
    3.4649    1.4287   -2.9027 C   0  0  0  0  0  0  0  0  0  0  0  0
    3.1485    1.6467   -4.2371 C   0  0  0  0  0  0  0  0  0  0  0  0
    1.8490    1.4413   -4.6698 C   0  0  0  0  0  0  0  0  0  0  0  0
    0.8923    1.0180   -3.7571 C   0  0  0  0  0  0  0  0  0  0  0  0
    1.2422    0.8049   -2.4174 C   0  0  0  0  0  0  0  0  0  0  0  0
    0.2288    0.3352   -1.4705 C   0  0  0  0  0  0  0  0  0  0  0  0
   -0.7759    1.1234   -1.0566 C   0  0  0  0  0  0  0  0  0  0  0  0
   -1.8163    0.6986   -0.1086 C   0  0  0  0  0  0  0  0  0  0  0  0
   -1.5799   -0.2053    0.9268 C   0  0  0  0  0  0  0  0  0  0  0  0
   -2.6018   -0.5480    1.8278 C   0  0  0  0  0  0  0  0  0  0  0  0
   -3.8964   -0.0093    1.7419 C   0  0  0  0  0  0  0  0  0  0  0  0
   -4.8995   -0.3396    2.6566 N   0  0  0  0  0  0  0  0  0  0  0  0
   -4.7563   -1.5482    3.4685 C   0  0  0  0  0  0  0  0  0  0  0  0
   -6.2756    0.0872    2.4030 C   0  0  0  0  0  0  0  0  0  0  0  0
   -4.0987    0.9192    0.7079 C   0  0  0  0  0  0  0  0  0  0  0  0
   -3.0855    1.2690   -0.1992 C   0  0  0  0  0  0  0  0  0  0  0  0
    2.3787    0.2689    2.1304 H   0  0  0  0  0  0  0  0  0  0  0  0
    1.9522   -1.4257    1.8319 H   0  0  0  0  0  0  0  0  0  0  0  0
    3.1343   -1.0061    3.0829 H   0  0  0  0  0  0  0  0  0  0  0  0
    4.6778   -0.1166    1.3136 H   0  0  0  0  0  0  0  0  0  0  0  0
    3.8253   -3.0308    0.8962 H   0  0  0  0  0  0  0  0  0  0  0  0
    4.9305   -2.4376    2.1488 H   0  0  0  0  0  0  0  0  0  0  0  0
    5.3895   -2.3291    0.4447 H   0  0  0  0  0  0  0  0  0  0  0  0
    4.2473   -0.7899   -1.0775 H   0  0  0  0  0  0  0  0  0  0  0  0
    2.6311   -1.3014   -0.6393 H   0  0  0  0  0  0  0  0  0  0  0  0
    2.0982    1.1123    0.0509 H   0  0  0  0  0  0  0  0  0  0  0  0
    3.7383    1.5628   -0.3883 H   0  0  0  0  0  0  0  0  0  0  0  0
    4.4754    1.5825   -2.5330 H   0  0  0  0  0  0  0  0  0  0  0  0
    3.9137    1.9770   -4.9368 H   0  0  0  0  0  0  0  0  0  0  0  0
    1.5806    1.6060   -5.7125 H   0  0  0  0  0  0  0  0  0  0  0  0
   -0.1295    0.8466   -4.0941 H   0  0  0  0  0  0  0  0  0  0  0  0
    0.3278   -0.6923   -1.1326 H   0  0  0  0  0  0  0  0  0  0  0  0
   -0.8791    2.1431   -1.4270 H   0  0  0  0  0  0  0  0  0  0  0  0
   -0.6030   -0.6546    1.0760 H   0  0  0  0  0  0  0  0  0  0  0  0
   -2.3455   -1.2482    2.6177 H   0  0  0  0  0  0  0  0  0  0  0  0
   -5.6298   -1.7046    4.1114 H   0  0  0  0  0  0  0  0  0  0  0  0
   -3.8968   -1.4718    4.1429 H   0  0  0  0  0  0  0  0  0  0  0  0
   -4.6501   -2.4364    2.8357 H   0  0  0  0  0  0  0  0  0  0  0  0
   -6.3478    1.1786    2.3457 H   0  0  0  0  0  0  0  0  0  0  0  0
   -6.9424   -0.2143    3.2186 H   0  0  0  0  0  0  0  0  0  0  0  0
   -6.6603   -0.3570    1.4785 H   0  0  0  0  0  0  0  0  0  0  0  0
   -5.0610    1.4058    0.5763 H   0  0  0  0  0  0  0  0  0  0  0  0
   -3.3192    1.9947   -0.9753 H   0  0  0  0  0  0  0  0  0  0  0  0
  1  2  1  0
  2  3  1  0
  2  4  1  0
  4  5  1  0
  5  6  1  0
  6  7  2  0
  7  8  1  0
  8  9  2  0
  9 10  1  0
 10 11  2  0
 11 12  1  0
 12 13  2  3
 13 14  1  0
 14 15  2  0
 15 16  1  0
 16 17  2  0
 17 18  1  0
 18 19  1  0
 18 20  1  0
 17 21  1  0
 21 22  2  0
 11  6  1  0
 22 14  1  0
  1 23  1  0
  1 24  1  0
  1 25  1  0
  2 26  1  0
  3 27  1  0
  3 28  1  0
  3 29  1  0
  4 30  1  0
  4 31  1  0
  5 32  1  0
  5 33  1  0
  7 34  1  0
  8 35  1  0
  9 36  1  0
 10 37  1  0
 12 38  1  0
 13 39  1  0
 15 40  1  0
 16 41  1  0
 19 42  1  0
 19 43  1  0
 19 44  1  0
 20 45  1  0
 20 46  1  0
 20 47  1  0
 21 48  1  0
 22 49  1  0
M  CHG  1   6   1
M  END
$$$$
