
     RDKit          3D

 42 43  0  0  0  0  0  0  0  0999 V2000
   -5.1111   -1.1336   -1.2654 C   0  0  0  0  0  0  0  0  0  0  0  0
   -4.9554    0.3293   -0.9923 C   0  0  0  0  0  0  0  0  0  0  0  0
   -4.0593    0.9093   -0.1669 C   0  0  0  0  0  0  0  0  0  0  0  0
   -4.0384    2.4059    0.0028 C   0  0  0  0  0  0  0  0  0  0  0  0
   -3.0518    0.1459    0.6711 C   0  0  0  0  0  0  0  0  0  0  0  0
   -1.9493   -0.4236   -0.1129 N   0  0  0  0  0  0  0  0  0  0  0  0
   -1.1029    0.6235   -0.7260 C   0  0  0  0  0  0  0  0  0  0  0  0
    0.3429    0.1715   -1.0378 C   0  0  0  0  0  0  0  0  0  0  0  0
    1.0321   -0.2294    0.1995 N   0  0  0  0  0  0  0  0  0  0  0  0
    2.4129   -0.2247    0.3051 C   0  0  0  0  0  0  0  0  0  0  0  0
    3.0578   -0.2726    1.5513 C   0  0  0  0  0  0  0  0  0  0  0  0
    4.4546   -0.2640    1.6708 C   0  0  0  0  0  0  0  0  0  0  0  0
    5.2619   -0.2163    0.5352 C   0  0  0  0  0  0  0  0  0  0  0  0
    6.7547   -0.1735    0.6568 C   0  0  0  0  0  0  0  0  0  0  0  0
    4.6459   -0.1493   -0.7139 C   0  0  0  0  0  0  0  0  0  0  0  0
    3.2478   -0.1567   -0.8207 C   0  0  0  0  0  0  0  0  0  0  0  0
    0.1845   -0.7920    1.2634 C   0  0  0  0  0  0  0  0  0  0  0  0
   -1.1345   -1.3614    0.6888 C   0  0  0  0  0  0  0  0  0  0  0  0
   -4.4208   -1.7606   -0.6966 H   0  0  0  0  0  0  0  0  0  0  0  0
   -6.1299   -1.4468   -1.0164 H   0  0  0  0  0  0  0  0  0  0  0  0
   -4.9452   -1.3288   -2.3294 H   0  0  0  0  0  0  0  0  0  0  0  0
   -5.6474    0.9625   -1.5453 H   0  0  0  0  0  0  0  0  0  0  0  0
   -3.0694    2.8158   -0.2966 H   0  0  0  0  0  0  0  0  0  0  0  0
   -4.2201    2.6705    1.0497 H   0  0  0  0  0  0  0  0  0  0  0  0
   -4.8060    2.9023   -0.6003 H   0  0  0  0  0  0  0  0  0  0  0  0
   -2.6663    0.7827    1.4788 H   0  0  0  0  0  0  0  0  0  0  0  0
   -3.5997   -0.6589    1.1799 H   0  0  0  0  0  0  0  0  0  0  0  0
   -1.0310    1.4934   -0.0588 H   0  0  0  0  0  0  0  0  0  0  0  0
   -1.5727    0.9612   -1.6569 H   0  0  0  0  0  0  0  0  0  0  0  0
    0.3351   -0.6628   -1.7496 H   0  0  0  0  0  0  0  0  0  0  0  0
    0.8549    1.0195   -1.5085 H   0  0  0  0  0  0  0  0  0  0  0  0
    2.4778   -0.2907    2.4697 H   0  0  0  0  0  0  0  0  0  0  0  0
    4.9002   -0.2905    2.6623 H   0  0  0  0  0  0  0  0  0  0  0  0
    7.0903   -0.7217    1.5435 H   0  0  0  0  0  0  0  0  0  0  0  0
    7.0948    0.8638    0.7327 H   0  0  0  0  0  0  0  0  0  0  0  0
    7.2311   -0.6396   -0.2121 H   0  0  0  0  0  0  0  0  0  0  0  0
    5.2441   -0.0953   -1.6204 H   0  0  0  0  0  0  0  0  0  0  0  0
    2.8250   -0.1282   -1.8208 H   0  0  0  0  0  0  0  0  0  0  0  0
   -0.0365   -0.0130    2.0028 H   0  0  0  0  0  0  0  0  0  0  0  0
    0.6954   -1.6153    1.7772 H   0  0  0  0  0  0  0  0  0  0  0  0
   -0.8758   -2.1970    0.0244 H   0  0  0  0  0  0  0  0  0  0  0  0
   -1.7204   -1.8109    1.5000 H   0  0  0  0  0  0  0  0  0  0  0  0
  1  2  1  0
  2  3  2  3
  3  4  1  0
  3  5  1  0
  5  6  1  0
  6  7  1  0
  7  8  1  0
  8  9  1  0
  9 10  1  0
 10 11  2  0
 11 12  1  0
 12 13  2  0
 13 14  1  0
 13 15  1  0
 15 16  2  0
  9 17  1  0
 17 18  1  0
 18  6  1  0
 16 10  1  0
  1 19  1  0
  1 20  1  0
  1 21  1  0
  2 22  1  0
  4 23  1  0
  4 24  1  0
  4 25  1  0
  5 26  1  0
  5 27  1  0
  7 28  1  0
  7 29  1  0
  8 30  1  0
  8 31  1  0
 11 32  1  0
 12 33  1  0
 14 34  1  0
 14 35  1  0
 14 36  1  0
 15 37  1  0
 16 38  1  0
 17 39  1  0
 17 40  1  0
 18 41  1  0
 18 42  1  0
M  END
$$$$
