
     RDKit          3D

 40 42  0  0  0  0  0  0  0  0999 V2000
   -2.2490   -0.8579   -2.5993 O   0  0  0  0  0  0  0  0  0  0  0  0
   -1.9377   -0.5015   -1.4692 C   0  0  0  0  0  0  0  0  0  0  0  0
   -2.7961   -0.1616   -0.4427 N   0  0  0  0  0  0  0  0  0  0  0  0
   -4.2113   -0.2139   -0.4174 C   0  0  0  0  0  0  0  0  0  0  0  0
   -4.9482   -0.7484   -1.4834 C   0  0  0  0  0  0  0  0  0  0  0  0
   -6.3454   -0.7982   -1.4461 C   0  0  0  0  0  0  0  0  0  0  0  0
   -7.0337   -0.3165   -0.3401 C   0  0  0  0  0  0  0  0  0  0  0  0
   -6.3226    0.2145    0.7332 C   0  0  0  0  0  0  0  0  0  0  0  0
   -4.9156    0.2701    0.7098 C   0  0  0  0  0  0  0  0  0  0  0  0
   -4.2829    0.8616    1.9234 C   0  0  0  0  0  0  0  0  0  0  0  0
   -4.8791    1.3121    2.8857 O   0  0  0  0  0  0  0  0  0  0  0  0
   -2.9341    0.8719    1.9076 O   0  0  0  0  0  0  0  0  0  0  0  0
   -0.4865   -0.3688   -1.1475 C   0  0  0  0  0  0  0  0  0  0  0  0
    0.3963   -0.0191   -2.1740 C   0  0  0  0  0  0  0  0  0  0  0  0
    1.7636    0.1149   -1.9120 C   0  0  0  0  0  0  0  0  0  0  0  0
    2.2699   -0.1061   -0.6251 C   0  0  0  0  0  0  0  0  0  0  0  0
    3.6561    0.0528   -0.4469 N   0  0  0  0  0  0  0  0  0  0  0  0
    4.3960   -0.0866    0.7143 C   0  0  0  0  0  0  0  0  0  0  0  0
    3.9436   -0.3729    1.8177 O   0  0  0  0  0  0  0  0  0  0  0  0
    5.8135    0.1510    0.5040 C   0  0  0  0  0  0  0  0  0  0  0  0
    6.8826    0.1124    1.3792 C   0  0  0  0  0  0  0  0  0  0  0  0
    8.0389    0.4289    0.6254 C   0  0  0  0  0  0  0  0  0  0  0  0
    7.6098    0.6424   -0.6639 C   0  0  0  0  0  0  0  0  0  0  0  0
    8.7264    1.1047   -2.1324 Br  0  0  0  0  0  0  0  0  0  0  0  0
    6.2626    0.4773   -0.7506 O   0  0  0  0  0  0  0  0  0  0  0  0
    1.3878   -0.4746    0.3929 C   0  0  0  0  0  0  0  0  0  0  0  0
    0.0173   -0.6112    0.1350 C   0  0  0  0  0  0  0  0  0  0  0  0
   -2.3841    0.2471    0.3949 H   0  0  0  0  0  0  0  0  0  0  0  0
   -4.4615   -1.1454   -2.3694 H   0  0  0  0  0  0  0  0  0  0  0  0
   -6.8908   -1.2176   -2.2886 H   0  0  0  0  0  0  0  0  0  0  0  0
   -8.1198   -0.3550   -0.3119 H   0  0  0  0  0  0  0  0  0  0  0  0
   -6.8736    0.5877    1.5954 H   0  0  0  0  0  0  0  0  0  0  0  0
   -2.7157    1.2938    2.7693 H   0  0  0  0  0  0  0  0  0  0  0  0
    0.0215    0.1521   -3.1816 H   0  0  0  0  0  0  0  0  0  0  0  0
    2.4225    0.3926   -2.7313 H   0  0  0  0  0  0  0  0  0  0  0  0
    4.1995    0.3059   -1.2660 H   0  0  0  0  0  0  0  0  0  0  0  0
    6.8206   -0.1190    2.4346 H   0  0  0  0  0  0  0  0  0  0  0  0
    9.0579    0.4926    0.9810 H   0  0  0  0  0  0  0  0  0  0  0  0
    1.7335   -0.6773    1.4021 H   0  0  0  0  0  0  0  0  0  0  0  0
   -0.6320   -0.9347    0.9443 H   0  0  0  0  0  0  0  0  0  0  0  0
  1  2  2  0
  2  3  1  0
  3  4  1  0
  4  5  2  0
  5  6  1  0
  6  7  2  0
  7  8  1  0
  8  9  2  0
  9 10  1  0
 10 11  2  0
 10 12  1  0
  2 13  1  0
 13 14  2  0
 14 15  1  0
 15 16  2  0
 16 17  1  0
 17 18  1  0
 18 19  2  0
 18 20  1  0
 20 21  2  0
 21 22  1  0
 22 23  2  0
 23 24  1  0
 23 25  1  0
 16 26  1  0
 26 27  2  0
  9  4  1  0
 27 13  1  0
 25 20  1  0
  3 28  1  0
  5 29  1  0
  6 30  1  0
  7 31  1  0
  8 32  1  0
 12 33  1  0
 14 34  1  0
 15 35  1  0
 17 36  1  0
 21 37  1  0
 22 38  1  0
 26 39  1  0
 27 40  1  0
M  END
$$$$
