
     RDKit          3D

 64 69  0  0  0  0  0  0  0  0999 V2000
    1.8436   -3.8603    1.6715 C   0  0  0  0  0  0  0  0  0  0  0  0
    1.1865   -2.5908    1.6747 O   0  0  0  0  0  0  0  0  0  0  0  0
   -0.0715   -2.6511    2.2150 C   0  0  0  0  0  0  0  0  0  0  0  0
   -0.2715   -3.1226    3.5173 C   0  0  0  0  0  0  0  0  0  0  0  0
   -1.5550   -3.1566    4.0612 C   0  0  0  0  0  0  0  0  0  0  0  0
   -2.6392   -2.7107    3.3099 C   0  0  0  0  0  0  0  0  0  0  0  0
   -2.4380   -2.2194    2.0191 C   0  0  0  0  0  0  0  0  0  0  0  0
   -1.1477   -2.1592    1.4602 C   0  0  0  0  0  0  0  0  0  0  0  0
   -0.9597   -1.6546    0.0406 C   0  0  0  0  0  0  0  0  0  0  0  0
   -1.6754   -0.3899   -0.2468 N   0  0  0  0  0  0  0  0  0  0  0  0
   -1.1319    0.7647    0.5028 C   0  0  0  0  0  0  0  0  0  0  0  0
    0.2864    1.2039    0.2273 C   0  0  0  0  0  0  0  0  0  0  0  0
    1.3334    0.8010    0.9706 C   0  0  0  0  0  0  0  0  0  0  0  0
    2.6921    1.2567    0.6833 C   0  0  0  0  0  0  0  0  0  0  0  0
    3.7879    0.7920    1.4140 C   0  0  0  0  0  0  0  0  0  0  0  0
    5.0701    1.2411    1.0975 C   0  0  0  0  0  0  0  0  0  0  0  0
    5.2576    2.1759    0.0718 C   0  0  0  0  0  0  0  0  0  0  0  0
    4.1700    2.6331   -0.6698 C   0  0  0  0  0  0  0  0  0  0  0  0
    2.8927    2.1707   -0.3585 C   0  0  0  0  0  0  0  0  0  0  0  0
    1.7885    2.6242   -1.0870 N   0  0  0  0  0  0  0  0  0  0  0  0
    0.5026    2.2174   -0.8523 C   0  0  0  0  0  0  0  0  0  0  0  0
   -0.4305    2.6682   -1.5142 O   0  0  0  0  0  0  0  0  0  0  0  0
    6.4865    2.6815   -0.2686 O   0  0  0  0  0  0  0  0  0  0  0  0
    7.4622    2.4188    0.7481 C   0  0  0  0  0  0  0  0  0  0  0  0
    7.3696    0.9776    1.2219 C   0  0  0  0  0  0  0  0  0  0  0  0
    6.1026    0.7301    1.8434 O   0  0  0  0  0  0  0  0  0  0  0  0
   -1.7172   -0.1260   -1.6960 C   0  0  0  0  0  0  0  0  0  0  0  0
   -2.6408   -1.0447   -2.4160 C   0  0  0  0  0  0  0  0  0  0  0  0
   -2.3119   -2.0130   -3.2484 N   0  0  0  0  0  0  0  0  0  0  0  0
   -3.4891   -2.5898   -3.6535 N   0  0  0  0  0  0  0  0  0  0  0  0
   -4.5282   -1.9986   -3.0839 N   0  0  0  0  0  0  0  0  0  0  0  0
   -4.0072   -1.0176   -2.3209 N   0  0  0  0  0  0  0  0  0  0  0  0
   -4.8588   -0.2039   -1.4806 C   0  0  0  0  0  0  0  0  0  0  0  0
   -5.2795    1.0363   -2.1798 C   0  0  0  0  0  0  0  0  0  0  0  0
   -4.6884    2.2654   -2.3931 C   0  0  0  0  0  0  0  0  0  0  0  0
   -5.6241    3.0377   -3.1265 C   0  0  0  0  0  0  0  0  0  0  0  0
   -6.7270    2.2385   -3.3048 C   0  0  0  0  0  0  0  0  0  0  0  0
   -6.5323    1.0272   -2.7257 O   0  0  0  0  0  0  0  0  0  0  0  0
    2.2527   -4.0906    2.6620 H   0  0  0  0  0  0  0  0  0  0  0  0
    2.6811   -3.7995    0.9689 H   0  0  0  0  0  0  0  0  0  0  0  0
    1.1761   -4.6622    1.3300 H   0  0  0  0  0  0  0  0  0  0  0  0
    0.5664   -3.4503    4.1243 H   0  0  0  0  0  0  0  0  0  0  0  0
   -1.7094   -3.5270    5.0717 H   0  0  0  0  0  0  0  0  0  0  0  0
   -3.6426   -2.7400    3.7290 H   0  0  0  0  0  0  0  0  0  0  0  0
   -3.2965   -1.8751    1.4455 H   0  0  0  0  0  0  0  0  0  0  0  0
    0.0999   -1.5579   -0.2207 H   0  0  0  0  0  0  0  0  0  0  0  0
   -1.3461   -2.4614   -0.5950 H   0  0  0  0  0  0  0  0  0  0  0  0
   -1.2336    0.5622    1.5776 H   0  0  0  0  0  0  0  0  0  0  0  0
   -1.8091    1.6175    0.3550 H   0  0  0  0  0  0  0  0  0  0  0  0
    1.1989    0.1047    1.7926 H   0  0  0  0  0  0  0  0  0  0  0  0
    3.6561    0.0723    2.2178 H   0  0  0  0  0  0  0  0  0  0  0  0
    4.3304    3.3481   -1.4714 H   0  0  0  0  0  0  0  0  0  0  0  0
    1.9110    3.2961   -1.8324 H   0  0  0  0  0  0  0  0  0  0  0  0
    8.4504    2.6123    0.3185 H   0  0  0  0  0  0  0  0  0  0  0  0
    7.3052    3.1241    1.5743 H   0  0  0  0  0  0  0  0  0  0  0  0
    8.1486    0.7743    1.9640 H   0  0  0  0  0  0  0  0  0  0  0  0
    7.4937    0.2721    0.3907 H   0  0  0  0  0  0  0  0  0  0  0  0
   -2.0837    0.8879   -1.8806 H   0  0  0  0  0  0  0  0  0  0  0  0
   -0.7163   -0.1883   -2.1398 H   0  0  0  0  0  0  0  0  0  0  0  0
   -5.7257   -0.8127   -1.2017 H   0  0  0  0  0  0  0  0  0  0  0  0
   -4.3231    0.0345   -0.5589 H   0  0  0  0  0  0  0  0  0  0  0  0
   -3.7039    2.5790   -2.0698 H   0  0  0  0  0  0  0  0  0  0  0  0
   -5.5049    4.0513   -3.4813 H   0  0  0  0  0  0  0  0  0  0  0  0
   -7.6827    2.3753   -3.7941 H   0  0  0  0  0  0  0  0  0  0  0  0
  1  2  1  0
  2  3  1  0
  3  4  2  0
  4  5  1  0
  5  6  2  0
  6  7  1  0
  7  8  2  0
  8  9  1  0
  9 10  1  0
 10 11  1  0
 11 12  1  0
 12 13  2  0
 13 14  1  0
 14 15  2  0
 15 16  1  0
 16 17  2  0
 17 18  1  0
 18 19  2  0
 19 20  1  0
 20 21  1  0
 21 22  2  0
 17 23  1  0
 23 24  1  0
 24 25  1  0
 25 26  1  0
 10 27  1  0
 27 28  1  0
 28 29  2  0
 29 30  1  0
 30 31  2  0
 31 32  1  0
 32 33  1  0
 33 34  1  0
 34 35  2  0
 35 36  1  0
 36 37  2  0
 37 38  1  0
  8  3  1  0
 21 12  1  0
 32 28  1  0
 38 34  1  0
 19 14  1  0
 26 16  1  0
  1 39  1  0
  1 40  1  0
  1 41  1  0
  4 42  1  0
  5 43  1  0
  6 44  1  0
  7 45  1  0
  9 46  1  0
  9 47  1  0
 11 48  1  0
 11 49  1  0
 13 50  1  0
 15 51  1  0
 18 52  1  0
 20 53  1  0
 24 54  1  0
 24 55  1  0
 25 56  1  0
 25 57  1  0
 27 58  1  0
 27 59  1  0
 33 60  1  0
 33 61  1  0
 35 62  1  0
 36 63  1  0
 37 64  1  0
M  END
$$$$
