
     RDKit          3D

 46 48  0  0  0  0  0  0  0  0999 V2000
   -3.6485    0.9018   -2.8968 C   0  0  0  0  0  0  0  0  0  0  0  0
   -2.5288    0.8372   -2.1637 C   0  0  0  0  0  0  0  0  0  0  0  0
   -2.3437    1.5087   -0.8330 C   0  0  0  0  0  0  0  0  0  0  0  0
   -2.2069    0.5438    0.2412 N   0  0  0  0  0  0  0  0  0  0  0  0
   -1.0538    0.0247    0.7660 C   0  0  0  0  0  0  0  0  0  0  0  0
    0.5339    0.4709    0.2513 S   0  0  0  0  0  0  0  0  0  0  0  0
    1.5392   -0.5668    1.3569 C   0  0  0  0  0  0  0  0  0  0  0  0
    3.0137   -0.3647    1.1008 C   0  0  0  0  0  0  0  0  0  0  0  0
    3.7239    0.6349    1.7808 C   0  0  0  0  0  0  0  0  0  0  0  0
    5.0847    0.8322    1.5313 C   0  0  0  0  0  0  0  0  0  0  0  0
    5.7563    0.0362    0.5947 C   0  0  0  0  0  0  0  0  0  0  0  0
    7.2051    0.2906    0.3666 C   0  0  0  0  0  0  0  0  0  0  0  0
    7.8365    1.1613    0.9450 O   0  0  0  0  0  0  0  0  0  0  0  0
    7.7043   -0.5695   -0.5564 O   0  0  0  0  0  0  0  0  0  0  0  0
    9.0946   -0.3860   -0.8267 C   0  0  0  0  0  0  0  0  0  0  0  0
    5.0496   -0.9594   -0.0916 C   0  0  0  0  0  0  0  0  0  0  0  0
    3.6879   -1.1556    0.1588 C   0  0  0  0  0  0  0  0  0  0  0  0
   -1.3429   -0.8656    1.6856 N   0  0  0  0  0  0  0  0  0  0  0  0
   -2.7113   -0.9494    1.7702 N   0  0  0  0  0  0  0  0  0  0  0  0
   -3.2267   -0.0894    0.9151 C   0  0  0  0  0  0  0  0  0  0  0  0
   -4.6268    0.0751    0.6998 C   0  0  0  0  0  0  0  0  0  0  0  0
   -5.4640    1.4968    1.1573 S   0  0  0  0  0  0  0  0  0  0  0  0
   -6.9215    0.8248    0.5576 C   0  0  0  0  0  0  0  0  0  0  0  0
   -8.0801    1.5042    0.6069 N   0  0  0  0  0  0  0  0  0  0  0  0
   -6.8261   -0.3853    0.0697 N   0  0  0  0  0  0  0  0  0  0  0  0
   -5.5177   -0.8395    0.1647 C   0  0  0  0  0  0  0  0  0  0  0  0
   -5.2071   -2.2122   -0.3156 C   0  0  0  0  0  0  0  0  0  0  0  0
   -3.7150    0.3951   -3.8558 H   0  0  0  0  0  0  0  0  0  0  0  0
   -4.5275    1.4477   -2.5645 H   0  0  0  0  0  0  0  0  0  0  0  0
   -1.6805    0.2746   -2.5504 H   0  0  0  0  0  0  0  0  0  0  0  0
   -1.4542    2.1454   -0.8578 H   0  0  0  0  0  0  0  0  0  0  0  0
   -3.1788    2.1733   -0.5933 H   0  0  0  0  0  0  0  0  0  0  0  0
    1.2833   -1.6225    1.2088 H   0  0  0  0  0  0  0  0  0  0  0  0
    1.3118   -0.3237    2.4014 H   0  0  0  0  0  0  0  0  0  0  0  0
    3.2211    1.2692    2.5087 H   0  0  0  0  0  0  0  0  0  0  0  0
    5.6186    1.6128    2.0705 H   0  0  0  0  0  0  0  0  0  0  0  0
    9.3945   -1.1251   -1.5747 H   0  0  0  0  0  0  0  0  0  0  0  0
    9.6866   -0.5503    0.0792 H   0  0  0  0  0  0  0  0  0  0  0  0
    9.2773    0.6134   -1.2344 H   0  0  0  0  0  0  0  0  0  0  0  0
    5.5436   -1.5899   -0.8268 H   0  0  0  0  0  0  0  0  0  0  0  0
    3.1546   -1.9304   -0.3891 H   0  0  0  0  0  0  0  0  0  0  0  0
   -8.1705    2.1973    1.3399 H   0  0  0  0  0  0  0  0  0  0  0  0
   -8.9049    0.9214    0.5076 H   0  0  0  0  0  0  0  0  0  0  0  0
   -4.8638   -2.8394    0.5129 H   0  0  0  0  0  0  0  0  0  0  0  0
   -4.4266   -2.1853   -1.0826 H   0  0  0  0  0  0  0  0  0  0  0  0
   -6.0934   -2.6831   -0.7526 H   0  0  0  0  0  0  0  0  0  0  0  0
  1  2  2  0
  2  3  1  0
  3  4  1  0
  4  5  1  0
  5  6  1  0
  6  7  1  0
  7  8  1  0
  8  9  2  0
  9 10  1  0
 10 11  2  0
 11 12  1  0
 12 13  2  0
 12 14  1  0
 14 15  1  0
 11 16  1  0
 16 17  2  0
  5 18  2  0
 18 19  1  0
 19 20  2  0
 20 21  1  0
 21 22  1  0
 22 23  1  0
 23 24  1  0
 23 25  2  0
 25 26  1  0
 26 27  1  0
 20  4  1  0
 26 21  2  0
 17  8  1  0
  1 28  1  0
  1 29  1  0
  2 30  1  0
  3 31  1  0
  3 32  1  0
  7 33  1  0
  7 34  1  0
  9 35  1  0
 10 36  1  0
 15 37  1  0
 15 38  1  0
 15 39  1  0
 16 40  1  0
 17 41  1  0
 24 42  1  0
 24 43  1  0
 27 44  1  0
 27 45  1  0
 27 46  1  0
M  END
$$$$
