
     RDKit          3D

 38 40  0  0  0  0  0  0  0  0999 V2000
   -7.1385    1.5023   -2.2461 C   0  0  0  0  0  0  0  0  0  0  0  0
   -6.6479    0.1651   -1.7268 C   0  0  0  0  0  0  0  0  0  0  0  0
   -6.4862    0.2678   -0.3112 O   0  0  0  0  0  0  0  0  0  0  0  0
   -6.0213   -0.9521    0.2784 C   0  0  0  0  0  0  0  0  0  0  0  0
   -4.5390   -1.0423    0.1305 C   0  0  0  0  0  0  0  0  0  0  0  0
   -3.9139   -1.9017   -0.6493 N   0  0  0  0  0  0  0  0  0  0  0  0
   -2.5404   -1.7512   -0.5934 N   0  0  0  0  0  0  0  0  0  0  0  0
   -2.1892   -0.7896    0.2223 C   0  0  0  0  0  0  0  0  0  0  0  0
   -0.9529   -0.3115    0.5607 N   0  0  0  0  0  0  0  0  0  0  0  0
    0.2088   -0.8404    0.0273 C   0  0  0  0  0  0  0  0  0  0  0  0
    0.2750   -1.7660   -0.7731 O   0  0  0  0  0  0  0  0  0  0  0  0
    1.4518   -0.1176    0.5644 C   0  0  0  0  0  0  0  0  0  0  0  0
    2.6487   -0.6665    0.0385 O   0  0  0  0  0  0  0  0  0  0  0  0
    3.8310   -0.1084    0.4408 C   0  0  0  0  0  0  0  0  0  0  0  0
    3.9703    0.9713    1.3336 C   0  0  0  0  0  0  0  0  0  0  0  0
    5.2399    1.4581    1.6718 C   0  0  0  0  0  0  0  0  0  0  0  0
    6.3366    0.8477    1.1044 C   0  0  0  0  0  0  0  0  0  0  0  0
    6.2046   -0.2056    0.2330 C   0  0  0  0  0  0  0  0  0  0  0  0
    4.9684   -0.7044   -0.1170 C   0  0  0  0  0  0  0  0  0  0  0  0
    7.4050   -0.6632   -0.2126 O   0  0  0  0  0  0  0  0  0  0  0  0
    8.3077    0.2241    0.4787 C   0  0  0  0  0  0  0  0  0  0  0  0
    7.6354    1.1869    1.3180 O   0  0  0  0  0  0  0  0  0  0  0  0
   -3.4848    0.0051    1.0008 S   0  0  0  0  0  0  0  0  0  0  0  0
   -6.4219    2.2949   -2.0065 H   0  0  0  0  0  0  0  0  0  0  0  0
   -7.2815    1.4714   -3.3299 H   0  0  0  0  0  0  0  0  0  0  0  0
   -8.0868    1.7760   -1.7720 H   0  0  0  0  0  0  0  0  0  0  0  0
   -5.6939   -0.0862   -2.2019 H   0  0  0  0  0  0  0  0  0  0  0  0
   -7.3823   -0.6140   -1.9584 H   0  0  0  0  0  0  0  0  0  0  0  0
   -6.5250   -1.8172   -0.1677 H   0  0  0  0  0  0  0  0  0  0  0  0
   -6.2895   -0.9291    1.3402 H   0  0  0  0  0  0  0  0  0  0  0  0
   -0.9296    0.4530    1.2175 H   0  0  0  0  0  0  0  0  0  0  0  0
    1.4414   -0.2198    1.6566 H   0  0  0  0  0  0  0  0  0  0  0  0
    1.3640    0.9369    0.2751 H   0  0  0  0  0  0  0  0  0  0  0  0
    3.1103    1.4559    1.7830 H   0  0  0  0  0  0  0  0  0  0  0  0
    5.3600    2.2889    2.3580 H   0  0  0  0  0  0  0  0  0  0  0  0
    4.8796   -1.5370   -0.8068 H   0  0  0  0  0  0  0  0  0  0  0  0
    8.9799   -0.3758    1.1030 H   0  0  0  0  0  0  0  0  0  0  0  0
    8.9061    0.7643   -0.2640 H   0  0  0  0  0  0  0  0  0  0  0  0
  1  2  1  0
  2  3  1  0
  3  4  1  0
  4  5  1  0
  5  6  2  0
  6  7  1  0
  7  8  2  0
  8  9  1  0
  9 10  1  0
 10 11  2  0
 10 12  1  0
 12 13  1  0
 13 14  1  0
 14 15  2  0
 15 16  1  0
 16 17  2  0
 17 18  1  0
 18 19  2  0
 18 20  1  0
 20 21  1  0
 21 22  1  0
  8 23  1  0
 23  5  1  0
 19 14  1  0
 22 17  1  0
  1 24  1  0
  1 25  1  0
  1 26  1  0
  2 27  1  0
  2 28  1  0
  4 29  1  0
  4 30  1  0
  9 31  1  0
 12 32  1  0
 12 33  1  0
 15 34  1  0
 16 35  1  0
 19 36  1  0
 21 37  1  0
 21 38  1  0
M  END
$$$$
