
     RDKit          3D

 37 39  0  0  0  0  0  0  0  0999 V2000
   -7.6296    0.0279   -0.6915 C   0  0  0  0  0  0  0  0  0  0  0  0
   -6.9671    0.4152    0.6212 C   0  0  0  0  0  0  0  0  0  0  0  0
   -5.4932    0.1871    0.5789 C   0  0  0  0  0  0  0  0  0  0  0  0
   -4.9032   -0.9589    0.8496 N   0  0  0  0  0  0  0  0  0  0  0  0
   -3.5307   -0.8726    0.7269 N   0  0  0  0  0  0  0  0  0  0  0  0
   -3.1376    0.3304    0.3709 C   0  0  0  0  0  0  0  0  0  0  0  0
   -1.8170    0.6433    0.1900 N   0  0  0  0  0  0  0  0  0  0  0  0
   -1.2826    1.8552   -0.1791 C   0  0  0  0  0  0  0  0  0  0  0  0
   -1.8956    2.8920   -0.4171 O   0  0  0  0  0  0  0  0  0  0  0  0
    0.2457    1.8228   -0.2814 C   0  0  0  0  0  0  0  0  0  0  0  0
    0.7554    0.5293    0.0336 O   0  0  0  0  0  0  0  0  0  0  0  0
    2.1127    0.3676   -0.0215 C   0  0  0  0  0  0  0  0  0  0  0  0
    3.0417    1.3500   -0.3567 C   0  0  0  0  0  0  0  0  0  0  0  0
    4.4077    1.0469   -0.3741 C   0  0  0  0  0  0  0  0  0  0  0  0
    4.8657   -0.2409   -0.0572 C   0  0  0  0  0  0  0  0  0  0  0  0
    6.2337   -0.5583   -0.0709 C   0  0  0  0  0  0  0  0  0  0  0  0
    6.6700   -1.8453    0.2473 C   0  0  0  0  0  0  0  0  0  0  0  0
    5.7454   -2.8299    0.5828 C   0  0  0  0  0  0  0  0  0  0  0  0
    4.3824   -2.5297    0.6008 C   0  0  0  0  0  0  0  0  0  0  0  0
    3.9273   -1.2395    0.2831 C   0  0  0  0  0  0  0  0  0  0  0  0
    2.5596   -0.9188    0.2958 C   0  0  0  0  0  0  0  0  0  0  0  0
   -4.4052    1.4476    0.1587 S   0  0  0  0  0  0  0  0  0  0  0  0
   -7.2465    0.6293   -1.5229 H   0  0  0  0  0  0  0  0  0  0  0  0
   -8.7114    0.1834   -0.6306 H   0  0  0  0  0  0  0  0  0  0  0  0
   -7.4506   -1.0262   -0.9297 H   0  0  0  0  0  0  0  0  0  0  0  0
   -7.1935    1.4625    0.8530 H   0  0  0  0  0  0  0  0  0  0  0  0
   -7.3964   -0.1851    1.4322 H   0  0  0  0  0  0  0  0  0  0  0  0
   -1.1740   -0.1242    0.3522 H   0  0  0  0  0  0  0  0  0  0  0  0
    0.5034    2.0898   -1.3128 H   0  0  0  0  0  0  0  0  0  0  0  0
    0.6300    2.5639    0.4291 H   0  0  0  0  0  0  0  0  0  0  0  0
    2.7466    2.3628   -0.6105 H   0  0  0  0  0  0  0  0  0  0  0  0
    5.1159    1.8295   -0.6387 H   0  0  0  0  0  0  0  0  0  0  0  0
    6.9717    0.1974   -0.3305 H   0  0  0  0  0  0  0  0  0  0  0  0
    7.7316   -2.0780    0.2329 H   0  0  0  0  0  0  0  0  0  0  0  0
    6.0837   -3.8326    0.8309 H   0  0  0  0  0  0  0  0  0  0  0  0
    3.6753   -3.3129    0.8656 H   0  0  0  0  0  0  0  0  0  0  0  0
    1.8286   -1.6812    0.5566 H   0  0  0  0  0  0  0  0  0  0  0  0
  1  2  1  0
  2  3  1  0
  3  4  2  0
  4  5  1  0
  5  6  2  0
  6  7  1  0
  7  8  1  0
  8  9  2  0
  8 10  1  0
 10 11  1  0
 11 12  1  0
 12 13  2  0
 13 14  1  0
 14 15  2  0
 15 16  1  0
 16 17  2  0
 17 18  1  0
 18 19  2  0
 19 20  1  0
 20 21  2  0
  6 22  1  0
 22  3  1  0
 21 12  1  0
 20 15  1  0
  1 23  1  0
  1 24  1  0
  1 25  1  0
  2 26  1  0
  2 27  1  0
  7 28  1  0
 10 29  1  0
 10 30  1  0
 13 31  1  0
 14 32  1  0
 16 33  1  0
 17 34  1  0
 18 35  1  0
 19 36  1  0
 21 37  1  0
M  END
$$$$
