
     RDKit          3D

 38 39  0  0  0  0  0  0  0  0999 V2000
    0.0183    1.6249   -1.3832 C   0  0  0  0  0  0  0  0  0  0  0  0
   -0.3612    0.3681   -0.7478 N   0  0  0  0  0  0  0  0  0  0  0  0
   -1.7840    0.0207   -0.7701 C   0  0  0  0  0  0  0  0  0  0  0  0
   -2.5374    0.5634    0.4440 C   0  0  0  0  0  0  0  0  0  0  0  0
   -3.9824    0.1463    0.3995 C   0  0  0  0  0  0  0  0  0  0  0  0
   -4.4225   -0.9560    1.1288 C   0  0  0  0  0  0  0  0  0  0  0  0
   -5.7623   -1.3225    1.0462 C   0  0  0  0  0  0  0  0  0  0  0  0
   -6.6207   -0.5900    0.2372 C   0  0  0  0  0  0  0  0  0  0  0  0
   -6.1008    0.4888   -0.4570 C   0  0  0  0  0  0  0  0  0  0  0  0
   -4.8063    0.8708   -0.3952 N   0  0  0  0  0  0  0  0  0  0  0  0
    0.4956   -0.4473   -0.0071 C   0  0  0  0  0  0  0  0  0  0  0  0
    0.0944   -1.3379    0.7431 O   0  0  0  0  0  0  0  0  0  0  0  0
    1.9610   -0.2666   -0.1318 C   0  0  0  0  0  0  0  0  0  0  0  0
    2.7366   -0.2137    1.0319 C   0  0  0  0  0  0  0  0  0  0  0  0
    4.1287   -0.0982    0.9458 C   0  0  0  0  0  0  0  0  0  0  0  0
    4.7519   -0.0541   -0.3052 C   0  0  0  0  0  0  0  0  0  0  0  0
    6.0941    0.0518   -0.5330 O   0  0  0  0  0  0  0  0  0  0  0  0
    6.9635   -0.2658    0.5449 C   0  0  0  0  0  0  0  0  0  0  0  0
    6.6861   -1.4883    1.0530 F   0  0  0  0  0  0  0  0  0  0  0  0
    6.8870    0.6645    1.5232 F   0  0  0  0  0  0  0  0  0  0  0  0
    8.2333   -0.2828    0.0831 F   0  0  0  0  0  0  0  0  0  0  0  0
    3.9691   -0.1110   -1.4660 C   0  0  0  0  0  0  0  0  0  0  0  0
    2.5798   -0.2341   -1.3850 C   0  0  0  0  0  0  0  0  0  0  0  0
    0.0699    1.4611   -2.4637 H   0  0  0  0  0  0  0  0  0  0  0  0
    0.9780    1.9928   -1.0157 H   0  0  0  0  0  0  0  0  0  0  0  0
   -0.7388    2.3850   -1.1691 H   0  0  0  0  0  0  0  0  0  0  0  0
   -1.8701   -1.0731   -0.8015 H   0  0  0  0  0  0  0  0  0  0  0  0
   -2.2163    0.3933   -1.7070 H   0  0  0  0  0  0  0  0  0  0  0  0
   -2.0748    0.2227    1.3773 H   0  0  0  0  0  0  0  0  0  0  0  0
   -2.4843    1.6588    0.4628 H   0  0  0  0  0  0  0  0  0  0  0  0
   -3.7356   -1.5206    1.7520 H   0  0  0  0  0  0  0  0  0  0  0  0
   -6.1327   -2.1724    1.6131 H   0  0  0  0  0  0  0  0  0  0  0  0
   -7.6692   -0.8505    0.1516 H   0  0  0  0  0  0  0  0  0  0  0  0
   -6.7307    1.0931   -1.1016 H   0  0  0  0  0  0  0  0  0  0  0  0
    2.2571   -0.2696    2.0078 H   0  0  0  0  0  0  0  0  0  0  0  0
    4.6884   -0.0475    1.8777 H   0  0  0  0  0  0  0  0  0  0  0  0
    4.4457   -0.0820   -2.4438 H   0  0  0  0  0  0  0  0  0  0  0  0
    1.9918   -0.3219   -2.2963 H   0  0  0  0  0  0  0  0  0  0  0  0
  1  2  1  0
  2  3  1  0
  3  4  1  0
  4  5  1  0
  5  6  2  0
  6  7  1  0
  7  8  2  0
  8  9  1  0
  9 10  2  0
  2 11  1  0
 11 12  2  0
 11 13  1  0
 13 14  2  0
 14 15  1  0
 15 16  2  0
 16 17  1  0
 17 18  1  0
 18 19  1  0
 18 20  1  0
 18 21  1  0
 16 22  1  0
 22 23  2  0
 10  5  1  0
 23 13  1  0
  1 24  1  0
  1 25  1  0
  1 26  1  0
  3 27  1  0
  3 28  1  0
  4 29  1  0
  4 30  1  0
  6 31  1  0
  7 32  1  0
  8 33  1  0
  9 34  1  0
 14 35  1  0
 15 36  1  0
 22 37  1  0
 23 38  1  0
M  END
$$$$
