
     RDKit          3D

 92 95  0  0  0  0  0  0  0  0999 V2000
    2.0827    2.7383    5.7149 C   0  0  0  0  0  0  0  0  0  0  0  0
    2.2973    1.4924    5.2749 C   0  0  0  0  0  0  0  0  0  0  0  0
    1.3402    0.7423    4.3878 C   0  0  0  0  0  0  0  0  0  0  0  0
    1.8602    0.5705    2.9502 C   0  0  0  0  0  0  0  0  0  0  0  0
    3.0112   -0.4471    2.8614 C   0  0  0  0  0  0  0  0  0  0  0  0
    3.6892   -0.3858    1.4995 C   0  0  0  0  0  0  0  0  0  0  0  0
    3.3918    0.4957    0.6903 O   0  0  0  0  0  0  0  0  0  0  0  0
    4.6657   -1.3315    1.2161 N   0  0  0  0  0  0  0  0  0  0  0  0
    5.2495   -1.3156   -0.1299 C   0  0  0  0  0  0  0  0  0  0  0  0
    4.3104   -1.9070   -1.1850 C   0  0  0  0  0  0  0  0  0  0  0  0
    5.0076   -2.0752   -2.4171 O   0  0  0  0  0  0  0  0  0  0  0  0
    5.0382   -2.4501    2.0853 C   0  0  0  0  0  0  0  0  0  0  0  0
    6.4787   -2.3858    2.5397 C   0  0  0  0  0  0  0  0  0  0  0  0
    6.9462   -1.2931    3.2856 C   0  0  0  0  0  0  0  0  0  0  0  0
    8.2733   -1.2429    3.7138 C   0  0  0  0  0  0  0  0  0  0  0  0
    9.1481   -2.2810    3.4009 C   0  0  0  0  0  0  0  0  0  0  0  0
    8.6966   -3.3718    2.6606 C   0  0  0  0  0  0  0  0  0  0  0  0
    7.3686   -3.4274    2.2344 C   0  0  0  0  0  0  0  0  0  0  0  0
    0.6925    0.0962    2.0866 C   0  0  0  0  0  0  0  0  0  0  0  0
    0.4737   -1.0895    1.8577 O   0  0  0  0  0  0  0  0  0  0  0  0
   -0.1326    1.1165    1.6593 N   0  0  0  0  0  0  0  0  0  0  0  0
   -1.2375    0.8701    0.7157 C   0  0  0  0  0  0  0  0  0  0  0  0
   -2.3112   -0.0673    1.3223 C   0  0  0  0  0  0  0  0  0  0  0  0
   -3.5441   -0.0885    0.5760 O   0  0  0  0  0  0  0  0  0  0  0  0
   -3.5244   -0.7915   -0.5916 C   0  0  0  0  0  0  0  0  0  0  0  0
   -2.5443   -1.3600   -1.0502 O   0  0  0  0  0  0  0  0  0  0  0  0
   -4.8971   -0.7677   -1.2381 C   0  0  0  0  0  0  0  0  0  0  0  0
   -5.7238   -1.8947   -0.5961 C   0  0  0  0  0  0  0  0  0  0  0  0
   -7.2005   -1.8028   -0.8602 C   0  0  0  0  0  0  0  0  0  0  0  0
   -7.9407   -2.8153   -1.3283 C   0  0  0  0  0  0  0  0  0  0  0  0
   -4.7137   -0.8968   -2.7639 C   0  0  0  0  0  0  0  0  0  0  0  0
   -5.9151   -0.5015   -3.5914 C   0  0  0  0  0  0  0  0  0  0  0  0
   -6.6202   -1.4693   -4.3248 C   0  0  0  0  0  0  0  0  0  0  0  0
   -7.7266   -1.1082   -5.0946 C   0  0  0  0  0  0  0  0  0  0  0  0
   -8.1228    0.2228   -5.1385 C   0  0  0  0  0  0  0  0  0  0  0  0
   -9.1849    0.5703   -5.8770 F   0  0  0  0  0  0  0  0  0  0  0  0
   -7.4316    1.1994   -4.4294 C   0  0  0  0  0  0  0  0  0  0  0  0
   -6.3266    0.8390   -3.6563 C   0  0  0  0  0  0  0  0  0  0  0  0
   -1.8781    2.2085    0.2773 C   0  0  0  0  0  0  0  0  0  0  0  0
   -0.9358    3.1058   -0.4706 C   0  0  0  0  0  0  0  0  0  0  0  0
   -0.3820    4.2841   -0.0095 C   0  0  0  0  0  0  0  0  0  0  0  0
    0.4155    4.7994   -0.9959 N   0  0  0  0  0  0  0  0  0  0  0  0
    0.3908    3.9833   -2.1020 C   0  0  0  0  0  0  0  0  0  0  0  0
    1.0462    4.1137   -3.3323 C   0  0  0  0  0  0  0  0  0  0  0  0
    0.8340    3.1174   -4.2887 C   0  0  0  0  0  0  0  0  0  0  0  0
    0.0012    2.0335   -4.0229 C   0  0  0  0  0  0  0  0  0  0  0  0
   -0.6456    1.9172   -2.7869 C   0  0  0  0  0  0  0  0  0  0  0  0
   -0.4501    2.9109   -1.8044 C   0  0  0  0  0  0  0  0  0  0  0  0
    1.1917    3.2957    5.4433 H   0  0  0  0  0  0  0  0  0  0  0  0
    2.8016    3.2302    6.3630 H   0  0  0  0  0  0  0  0  0  0  0  0
    3.2025    0.9765    5.5856 H   0  0  0  0  0  0  0  0  0  0  0  0
    1.1435   -0.2399    4.8379 H   0  0  0  0  0  0  0  0  0  0  0  0
    0.3727    1.2610    4.3764 H   0  0  0  0  0  0  0  0  0  0  0  0
    2.1990    1.5450    2.5741 H   0  0  0  0  0  0  0  0  0  0  0  0
    2.6271   -1.4571    3.0375 H   0  0  0  0  0  0  0  0  0  0  0  0
    3.7762   -0.2274    3.6125 H   0  0  0  0  0  0  0  0  0  0  0  0
    6.2065   -1.8498   -0.1305 H   0  0  0  0  0  0  0  0  0  0  0  0
    5.4847   -0.2799   -0.4047 H   0  0  0  0  0  0  0  0  0  0  0  0
    3.9385   -2.8875   -0.8696 H   0  0  0  0  0  0  0  0  0  0  0  0
    3.4484   -1.2524   -1.3527 H   0  0  0  0  0  0  0  0  0  0  0  0
    4.3304   -2.2454   -3.0957 H   0  0  0  0  0  0  0  0  0  0  0  0
    4.4140   -2.5020    2.9798 H   0  0  0  0  0  0  0  0  0  0  0  0
    4.8448   -3.3738    1.5260 H   0  0  0  0  0  0  0  0  0  0  0  0
    6.2790   -0.4696    3.5300 H   0  0  0  0  0  0  0  0  0  0  0  0
    8.6254   -0.3900    4.2875 H   0  0  0  0  0  0  0  0  0  0  0  0
   10.1831   -2.2378    3.7301 H   0  0  0  0  0  0  0  0  0  0  0  0
    9.3800   -4.1787    2.4106 H   0  0  0  0  0  0  0  0  0  0  0  0
    7.0366   -4.2868    1.6549 H   0  0  0  0  0  0  0  0  0  0  0  0
    0.3420    2.0056    1.5403 H   0  0  0  0  0  0  0  0  0  0  0  0
   -0.7983    0.3765   -0.1592 H   0  0  0  0  0  0  0  0  0  0  0  0
   -2.5722    0.2834    2.3277 H   0  0  0  0  0  0  0  0  0  0  0  0
   -1.9455   -1.0932    1.4411 H   0  0  0  0  0  0  0  0  0  0  0  0
   -5.3448    0.2088   -1.0111 H   0  0  0  0  0  0  0  0  0  0  0  0
   -5.5945   -1.8667    0.4939 H   0  0  0  0  0  0  0  0  0  0  0  0
   -5.3309   -2.8685   -0.9152 H   0  0  0  0  0  0  0  0  0  0  0  0
   -7.6881   -0.8530   -0.6460 H   0  0  0  0  0  0  0  0  0  0  0  0
   -9.0051   -2.6898   -1.5010 H   0  0  0  0  0  0  0  0  0  0  0  0
   -7.5078   -3.7851   -1.5546 H   0  0  0  0  0  0  0  0  0  0  0  0
   -4.4064   -1.9208   -3.0148 H   0  0  0  0  0  0  0  0  0  0  0  0
   -3.8801   -0.2601   -3.0935 H   0  0  0  0  0  0  0  0  0  0  0  0
   -6.3157   -2.5136   -4.2942 H   0  0  0  0  0  0  0  0  0  0  0  0
   -8.2794   -1.8537   -5.6572 H   0  0  0  0  0  0  0  0  0  0  0  0
   -7.7559    2.2337   -4.4866 H   0  0  0  0  0  0  0  0  0  0  0  0
   -5.7839    1.6110   -3.1141 H   0  0  0  0  0  0  0  0  0  0  0  0
   -2.2576    2.7377    1.1609 H   0  0  0  0  0  0  0  0  0  0  0  0
   -2.7418    2.0309   -0.3741 H   0  0  0  0  0  0  0  0  0  0  0  0
   -0.4904    4.8024    0.9333 H   0  0  0  0  0  0  0  0  0  0  0  0
    0.9473    5.6564   -0.9315 H   0  0  0  0  0  0  0  0  0  0  0  0
    1.7001    4.9542   -3.5415 H   0  0  0  0  0  0  0  0  0  0  0  0
    1.3324    3.1876   -5.2530 H   0  0  0  0  0  0  0  0  0  0  0  0
   -0.1435    1.2645   -4.7777 H   0  0  0  0  0  0  0  0  0  0  0  0
   -1.2853    1.0614   -2.5926 H   0  0  0  0  0  0  0  0  0  0  0  0
  1  2  2  0
  2  3  1  0
  3  4  1  0
  4  5  1  0
  5  6  1  0
  6  7  2  0
  6  8  1  0
  8  9  1  0
  9 10  1  0
 10 11  1  0
  8 12  1  0
 12 13  1  0
 13 14  2  0
 14 15  1  0
 15 16  2  0
 16 17  1  0
 17 18  2  0
  4 19  1  0
 19 20  2  0
 19 21  1  0
 21 22  1  0
 22 23  1  0
 23 24  1  0
 24 25  1  0
 25 26  2  0
 25 27  1  0
 27 28  1  0
 28 29  1  0
 29 30  2  0
 27 31  1  0
 31 32  1  0
 32 33  2  0
 33 34  1  0
 34 35  2  0
 35 36  1  0
 35 37  1  0
 37 38  2  0
 22 39  1  0
 39 40  1  0
 40 41  2  0
 41 42  1  0
 42 43  1  0
 43 44  2  0
 44 45  1  0
 45 46  2  0
 46 47  1  0
 47 48  2  0
 18 13  1  0
 38 32  1  0
 48 40  1  0
 48 43  1  0
  1 49  1  0
  1 50  1  0
  2 51  1  0
  3 52  1  0
  3 53  1  0
  4 54  1  0
  5 55  1  0
  5 56  1  0
  9 57  1  0
  9 58  1  0
 10 59  1  0
 10 60  1  0
 11 61  1  0
 12 62  1  0
 12 63  1  0
 14 64  1  0
 15 65  1  0
 16 66  1  0
 17 67  1  0
 18 68  1  0
 21 69  1  0
 22 70  1  0
 23 71  1  0
 23 72  1  0
 27 73  1  0
 28 74  1  0
 28 75  1  0
 29 76  1  0
 30 77  1  0
 30 78  1  0
 31 79  1  0
 31 80  1  0
 33 81  1  0
 34 82  1  0
 37 83  1  0
 38 84  1  0
 39 85  1  0
 39 86  1  0
 41 87  1  0
 42 88  1  0
 44 89  1  0
 45 90  1  0
 46 91  1  0
 47 92  1  0
M  END
$$$$
