
     RDKit          3D

 35 37  0  0  0  0  0  0  0  0999 V2000
   -1.6207   -3.3221   -0.7045 C   0  0  0  0  0  0  0  0  0  0  0  0
   -1.8399   -2.0415    0.0963 C   0  0  0  0  0  0  0  0  0  0  0  0
   -2.5941   -1.1574   -0.7340 O   0  0  0  0  0  0  0  0  0  0  0  0
   -3.2195   -0.0908   -0.1493 C   0  0  0  0  0  0  0  0  0  0  0  0
   -3.1398    0.2822    1.1936 C   0  0  0  0  0  0  0  0  0  0  0  0
   -3.8272    1.4128    1.6503 C   0  0  0  0  0  0  0  0  0  0  0  0
   -4.5921    2.1689    0.7647 C   0  0  0  0  0  0  0  0  0  0  0  0
   -5.5179    3.6940    1.3871 Br  0  0  0  0  0  0  0  0  0  0  0  0
   -4.6765    1.8064   -0.5760 C   0  0  0  0  0  0  0  0  0  0  0  0
   -3.9890    0.6781   -1.0285 C   0  0  0  0  0  0  0  0  0  0  0  0
   -0.4656   -1.4630    0.4813 C   0  0  0  0  0  0  0  0  0  0  0  0
    0.0272   -1.7102    1.5779 O   0  0  0  0  0  0  0  0  0  0  0  0
    0.0945   -0.7196   -0.5335 N   0  0  0  0  0  0  0  0  0  0  0  0
    1.3108   -0.0887   -0.5288 C   0  0  0  0  0  0  0  0  0  0  0  0
    1.7167    0.6544   -1.5358 N   0  0  0  0  0  0  0  0  0  0  0  0
    2.9740    1.1854   -1.3167 N   0  0  0  0  0  0  0  0  0  0  0  0
    3.4582    0.8054   -0.1557 C   0  0  0  0  0  0  0  0  0  0  0  0
    4.8585    1.2651    0.3535 C   0  0  0  0  0  0  0  0  0  0  0  0
    6.0082    1.3348   -0.6194 C   0  0  0  0  0  0  0  0  0  0  0  0
    5.9823    0.2629    0.4305 C   0  0  0  0  0  0  0  0  0  0  0  0
    2.4264   -0.2065    0.7542 S   0  0  0  0  0  0  0  0  0  0  0  0
   -1.0288   -4.0487   -0.1389 H   0  0  0  0  0  0  0  0  0  0  0  0
   -1.1014   -3.1177   -1.6478 H   0  0  0  0  0  0  0  0  0  0  0  0
   -2.5817   -3.7781   -0.9654 H   0  0  0  0  0  0  0  0  0  0  0  0
   -2.4005   -2.2980    1.0033 H   0  0  0  0  0  0  0  0  0  0  0  0
   -2.5533   -0.2724    1.9198 H   0  0  0  0  0  0  0  0  0  0  0  0
   -3.7563    1.6938    2.6983 H   0  0  0  0  0  0  0  0  0  0  0  0
   -5.2698    2.3900   -1.2747 H   0  0  0  0  0  0  0  0  0  0  0  0
   -4.0569    0.3966   -2.0770 H   0  0  0  0  0  0  0  0  0  0  0  0
   -0.4683   -0.5299   -1.3549 H   0  0  0  0  0  0  0  0  0  0  0  0
    4.8172    2.0328    1.1187 H   0  0  0  0  0  0  0  0  0  0  0  0
    5.8319    1.0450   -1.6498 H   0  0  0  0  0  0  0  0  0  0  0  0
    6.7169    2.1467   -0.5053 H   0  0  0  0  0  0  0  0  0  0  0  0
    6.6765    0.3450    1.2589 H   0  0  0  0  0  0  0  0  0  0  0  0
    5.8000   -0.7554    0.1056 H   0  0  0  0  0  0  0  0  0  0  0  0
  1  2  1  0
  2  3  1  0
  3  4  1  0
  4  5  2  0
  5  6  1  0
  6  7  2  0
  7  8  1  0
  7  9  1  0
  9 10  2  0
  2 11  1  0
 11 12  2  0
 11 13  1  0
 13 14  1  0
 14 15  2  0
 15 16  1  0
 16 17  2  0
 17 18  1  0
 18 19  1  0
 19 20  1  0
 17 21  1  0
 10  4  1  0
 21 14  1  0
 20 18  1  0
  1 22  1  0
  1 23  1  0
  1 24  1  0
  2 25  1  0
  5 26  1  0
  6 27  1  0
  9 28  1  0
 10 29  1  0
 13 30  1  0
 18 31  1  0
 19 32  1  0
 19 33  1  0
 20 34  1  0
 20 35  1  0
M  END
$$$$
