
     RDKit          3D

 61 67  0  0  0  0  0  0  0  0999 V2000
    3.0897    2.1721   -1.6002 O   0  0  0  0  0  0  0  0  0  0  0  0
    3.0944    1.1679   -0.8915 C   0  0  0  0  0  0  0  0  0  0  0  0
    4.3206    0.8771   -0.1153 C   0  0  0  0  0  0  0  0  0  0  0  0
    4.8875    1.9118    0.6570 C   0  0  0  0  0  0  0  0  0  0  0  0
    6.0565    1.6867    1.3896 C   0  0  0  0  0  0  0  0  0  0  0  0
    6.6305    0.4363    1.3083 C   0  0  0  0  0  0  0  0  0  0  0  0
    6.0890   -0.5645    0.5341 C   0  0  0  0  0  0  0  0  0  0  0  0
    4.9356   -0.3782   -0.1964 C   0  0  0  0  0  0  0  0  0  0  0  0
    6.8197   -1.7106    0.5843 O   0  0  0  0  0  0  0  0  0  0  0  0
    7.9065   -1.3040    1.4424 C   0  0  0  0  0  0  0  0  0  0  0  0
    7.7631    0.0409    1.9477 O   0  0  0  0  0  0  0  0  0  0  0  0
    2.0031    0.3024   -0.7983 N   0  0  0  0  0  0  0  0  0  0  0  0
    1.8039   -0.6648    0.2842 C   0  0  0  0  0  0  0  0  0  0  0  0
    0.3622   -0.6327    0.7796 C   0  0  0  0  0  0  0  0  0  0  0  0
   -0.6354   -1.0280   -0.3437 C   0  0  0  0  0  0  0  0  0  0  0  0
   -0.1031   -0.5996   -1.7392 C   0  0  0  0  0  0  0  0  0  0  0  0
    0.8743    0.5660   -1.6801 C   0  0  0  0  0  0  0  0  0  0  0  0
   -0.6027   -2.4855   -0.3057 O   0  0  0  0  0  0  0  0  0  0  0  0
   -1.6483   -3.1627   -0.8578 C   0  0  0  0  0  0  0  0  0  0  0  0
   -1.4568   -4.5321   -1.0524 C   0  0  0  0  0  0  0  0  0  0  0  0
   -2.4654   -5.3041   -1.6319 C   0  0  0  0  0  0  0  0  0  0  0  0
   -3.6614   -4.7018   -2.0086 C   0  0  0  0  0  0  0  0  0  0  0  0
   -4.6250   -5.4446   -2.5674 F   0  0  0  0  0  0  0  0  0  0  0  0
   -3.8715   -3.3440   -1.8102 C   0  0  0  0  0  0  0  0  0  0  0  0
   -2.8586   -2.5816   -1.2218 C   0  0  0  0  0  0  0  0  0  0  0  0
   -3.0535   -1.1475   -0.9790 C   0  0  0  0  0  0  0  0  0  0  0  0
   -3.9700   -0.5548   -1.5427 O   0  0  0  0  0  0  0  0  0  0  0  0
   -2.0594   -0.4855   -0.0304 C   0  0  0  0  0  0  0  0  0  0  0  0
   -2.2060    1.0292   -0.0665 C   0  0  0  0  0  0  0  0  0  0  0  0
   -3.1338    1.1968    1.0885 C   0  0  0  0  0  0  0  0  0  0  0  0
   -3.8461    2.4702    1.3491 C   0  0  0  0  0  0  0  0  0  0  0  0
   -4.7363    2.5391    2.4294 C   0  0  0  0  0  0  0  0  0  0  0  0
   -5.4209    3.7258    2.7060 C   0  0  0  0  0  0  0  0  0  0  0  0
   -5.2158    4.8454    1.9033 C   0  0  0  0  0  0  0  0  0  0  0  0
   -6.0562    6.3070    2.2418 Cl  0  0  0  0  0  0  0  0  0  0  0  0
   -4.3312    4.7885    0.8275 C   0  0  0  0  0  0  0  0  0  0  0  0
   -3.6442    3.6018    0.5491 C   0  0  0  0  0  0  0  0  0  0  0  0
   -3.2313    0.1608    1.8603 N   0  0  0  0  0  0  0  0  0  0  0  0
   -2.4315   -0.8621    1.3066 O   0  0  0  0  0  0  0  0  0  0  0  0
    4.4143    2.8920    0.6799 H   0  0  0  0  0  0  0  0  0  0  0  0
    6.5024    2.4706    1.9914 H   0  0  0  0  0  0  0  0  0  0  0  0
    4.5364   -1.1710   -0.8165 H   0  0  0  0  0  0  0  0  0  0  0  0
    8.8433   -1.3655    0.8761 H   0  0  0  0  0  0  0  0  0  0  0  0
    7.9617   -1.9957    2.2912 H   0  0  0  0  0  0  0  0  0  0  0  0
    2.0610   -1.6561   -0.1052 H   0  0  0  0  0  0  0  0  0  0  0  0
    2.4711   -0.4452    1.1224 H   0  0  0  0  0  0  0  0  0  0  0  0
    0.1599    0.3726    1.1629 H   0  0  0  0  0  0  0  0  0  0  0  0
    0.2692   -1.3206    1.6293 H   0  0  0  0  0  0  0  0  0  0  0  0
    0.4092   -1.4485   -2.2125 H   0  0  0  0  0  0  0  0  0  0  0  0
   -0.9265   -0.3410   -2.4146 H   0  0  0  0  0  0  0  0  0  0  0  0
    1.2548    0.7818   -2.6858 H   0  0  0  0  0  0  0  0  0  0  0  0
    0.3822    1.4782   -1.3276 H   0  0  0  0  0  0  0  0  0  0  0  0
   -0.5197   -4.9992   -0.7592 H   0  0  0  0  0  0  0  0  0  0  0  0
   -2.3262   -6.3691   -1.7921 H   0  0  0  0  0  0  0  0  0  0  0  0
   -4.8173   -2.8965   -2.1021 H   0  0  0  0  0  0  0  0  0  0  0  0
   -1.2885    1.5699    0.1742 H   0  0  0  0  0  0  0  0  0  0  0  0
   -2.6135    1.4165   -1.0026 H   0  0  0  0  0  0  0  0  0  0  0  0
   -4.9045    1.6699    3.0632 H   0  0  0  0  0  0  0  0  0  0  0  0
   -6.1096    3.7660    3.5460 H   0  0  0  0  0  0  0  0  0  0  0  0
   -4.1721    5.6633    0.2015 H   0  0  0  0  0  0  0  0  0  0  0  0
   -2.9599    3.5905   -0.2937 H   0  0  0  0  0  0  0  0  0  0  0  0
  1  2  2  0
  2  3  1  0
  3  4  2  0
  4  5  1  0
  5  6  2  0
  6  7  1  0
  7  8  2  0
  7  9  1  0
  9 10  1  0
 10 11  1  0
  2 12  1  0
 12 13  1  0
 13 14  1  0
 14 15  1  0
 15 16  1  0
 16 17  1  0
 15 18  1  0
 18 19  1  0
 19 20  2  0
 20 21  1  0
 21 22  2  0
 22 23  1  0
 22 24  1  0
 24 25  2  0
 25 26  1  0
 26 27  2  0
 26 28  1  0
 28 29  1  0
 29 30  1  0
 30 31  1  0
 31 32  2  0
 32 33  1  0
 33 34  2  0
 34 35  1  0
 34 36  1  0
 36 37  2  0
 30 38  2  0
 38 39  1  0
  8  3  1  0
 17 12  1  0
 25 19  1  0
 39 28  1  0
 11  6  1  0
 28 15  1  0
 37 31  1  0
  4 40  1  0
  5 41  1  0
  8 42  1  0
 10 43  1  0
 10 44  1  0
 13 45  1  0
 13 46  1  0
 14 47  1  0
 14 48  1  0
 16 49  1  0
 16 50  1  0
 17 51  1  0
 17 52  1  0
 20 53  1  0
 21 54  1  0
 24 55  1  0
 29 56  1  0
 29 57  1  0
 32 58  1  0
 33 59  1  0
 36 60  1  0
 37 61  1  0
M  END
$$$$
