
     RDKit          3D

 32 34  0  0  0  0  0  0  0  0999 V2000
   -4.3885   -2.1139    0.7049 O   0  0  0  0  0  0  0  0  0  0  0  0
   -3.4898   -1.4640    1.2146 C   0  0  0  0  0  0  0  0  0  0  0  0
   -3.1883   -1.4663    2.5469 N   0  0  0  0  0  0  0  0  0  0  0  0
   -2.1558   -0.6874    2.9702 C   0  0  0  0  0  0  0  0  0  0  0  0
   -1.6573   -0.6045    4.5465 S   0  0  0  0  0  0  0  0  0  0  0  0
   -1.4781    0.1765    1.6139 S   0  0  0  0  0  0  0  0  0  0  0  0
   -2.5551   -0.5626    0.4872 C   0  0  0  0  0  0  0  0  0  0  0  0
   -2.6486   -0.4102   -0.8394 C   0  0  0  0  0  0  0  0  0  0  0  0
   -1.7818    0.4017   -1.6202 C   0  0  0  0  0  0  0  0  0  0  0  0
   -2.0516    1.0422   -2.8228 C   0  0  0  0  0  0  0  0  0  0  0  0
   -0.8786    1.7282   -3.2213 C   0  0  0  0  0  0  0  0  0  0  0  0
    0.0736    1.4619   -2.2635 C   0  0  0  0  0  0  0  0  0  0  0  0
    1.7139    2.0388   -2.1956 S   0  0  0  0  0  0  0  0  0  0  0  0
    2.6010    0.5444   -1.6726 C   0  0  0  0  0  0  0  0  0  0  0  0
    2.5263    0.2352   -0.1962 C   0  0  0  0  0  0  0  0  0  0  0  0
    2.9922    1.1466    0.7639 C   0  0  0  0  0  0  0  0  0  0  0  0
    2.9497    0.8314    2.1238 C   0  0  0  0  0  0  0  0  0  0  0  0
    2.4546   -0.4027    2.5406 C   0  0  0  0  0  0  0  0  0  0  0  0
    1.9996   -1.3225    1.5986 C   0  0  0  0  0  0  0  0  0  0  0  0
    2.0339   -1.0058    0.2386 C   0  0  0  0  0  0  0  0  0  0  0  0
   -0.4678    0.6582   -1.3097 O   0  0  0  0  0  0  0  0  0  0  0  0
   -3.7174   -2.0392    3.1867 H   0  0  0  0  0  0  0  0  0  0  0  0
   -3.4413   -0.9287   -1.3742 H   0  0  0  0  0  0  0  0  0  0  0  0
   -2.9990    1.0278   -3.3438 H   0  0  0  0  0  0  0  0  0  0  0  0
   -0.7417    2.3415   -4.1016 H   0  0  0  0  0  0  0  0  0  0  0  0
    3.6569    0.6776   -1.9338 H   0  0  0  0  0  0  0  0  0  0  0  0
    2.2458   -0.3036   -2.2699 H   0  0  0  0  0  0  0  0  0  0  0  0
    3.3892    2.1129    0.4582 H   0  0  0  0  0  0  0  0  0  0  0  0
    3.3019    1.5521    2.8574 H   0  0  0  0  0  0  0  0  0  0  0  0
    2.4208   -0.6471    3.5995 H   0  0  0  0  0  0  0  0  0  0  0  0
    1.6134   -2.2844    1.9226 H   0  0  0  0  0  0  0  0  0  0  0  0
    1.6678   -1.7341   -0.4806 H   0  0  0  0  0  0  0  0  0  0  0  0
  1  2  2  0
  2  3  1  0
  3  4  1  0
  4  5  2  0
  4  6  1  0
  6  7  1  0
  7  8  2  3
  8  9  1  0
  9 10  2  0
 10 11  1  0
 11 12  2  0
 12 13  1  0
 13 14  1  0
 14 15  1  0
 15 16  2  0
 16 17  1  0
 17 18  2  0
 18 19  1  0
 19 20  2  0
 12 21  1  0
  7  2  1  0
 21  9  1  0
 20 15  1  0
  3 22  1  0
  8 23  1  0
 10 24  1  0
 11 25  1  0
 14 26  1  0
 14 27  1  0
 16 28  1  0
 17 29  1  0
 18 30  1  0
 19 31  1  0
 20 32  1  0
M  END
$$$$
