
     RDKit          3D

 35 37  0  0  0  0  0  0  0  0999 V2000
   -1.7646   -2.0973    1.6294 C   0  0  0  0  0  0  0  0  0  0  0  0
   -1.5890   -1.3384    0.3190 C   0  0  0  0  0  0  0  0  0  0  0  0
   -2.0140    0.0194    0.4844 O   0  0  0  0  0  0  0  0  0  0  0  0
   -3.3165    0.3430    0.2304 C   0  0  0  0  0  0  0  0  0  0  0  0
   -3.5869    1.7151    0.2653 C   0  0  0  0  0  0  0  0  0  0  0  0
   -4.8769    2.1960    0.0290 C   0  0  0  0  0  0  0  0  0  0  0  0
   -5.9047    1.2978   -0.2402 C   0  0  0  0  0  0  0  0  0  0  0  0
   -7.6537    1.9371   -0.5603 Br  0  0  0  0  0  0  0  0  0  0  0  0
   -5.6504   -0.0715   -0.2719 C   0  0  0  0  0  0  0  0  0  0  0  0
   -4.3560   -0.5492   -0.0348 C   0  0  0  0  0  0  0  0  0  0  0  0
   -0.0919   -1.3400   -0.0428 C   0  0  0  0  0  0  0  0  0  0  0  0
    0.4022   -2.2919   -0.6409 O   0  0  0  0  0  0  0  0  0  0  0  0
    0.5691   -0.2275    0.4269 N   0  0  0  0  0  0  0  0  0  0  0  0
    1.9017    0.0655    0.3085 C   0  0  0  0  0  0  0  0  0  0  0  0
    2.4109    1.1969    0.7467 N   0  0  0  0  0  0  0  0  0  0  0  0
    3.7736    1.2738    0.5273 N   0  0  0  0  0  0  0  0  0  0  0  0
    4.2234    0.1935   -0.0708 C   0  0  0  0  0  0  0  0  0  0  0  0
    5.7287    0.0076   -0.4327 C   0  0  0  0  0  0  0  0  0  0  0  0
    6.1501    0.0406   -1.8800 C   0  0  0  0  0  0  0  0  0  0  0  0
    6.5055    1.1817   -0.9725 C   0  0  0  0  0  0  0  0  0  0  0  0
    3.0385   -0.9935   -0.3923 S   0  0  0  0  0  0  0  0  0  0  0  0
   -1.3878   -3.1218    1.5470 H   0  0  0  0  0  0  0  0  0  0  0  0
   -2.8161   -2.1383    1.9288 H   0  0  0  0  0  0  0  0  0  0  0  0
   -1.2247   -1.6017    2.4446 H   0  0  0  0  0  0  0  0  0  0  0  0
   -2.1018   -1.8233   -0.5197 H   0  0  0  0  0  0  0  0  0  0  0  0
   -2.7862    2.4206    0.4758 H   0  0  0  0  0  0  0  0  0  0  0  0
   -5.0649    3.2659    0.0581 H   0  0  0  0  0  0  0  0  0  0  0  0
   -6.4516   -0.7772   -0.4776 H   0  0  0  0  0  0  0  0  0  0  0  0
   -4.2060   -1.6234   -0.0579 H   0  0  0  0  0  0  0  0  0  0  0  0
    0.0120    0.5075    0.8480 H   0  0  0  0  0  0  0  0  0  0  0  0
    6.2593   -0.6684    0.2292 H   0  0  0  0  0  0  0  0  0  0  0  0
    5.3982    0.2181   -2.6409 H   0  0  0  0  0  0  0  0  0  0  0  0
    6.9437   -0.6291   -2.1906 H   0  0  0  0  0  0  0  0  0  0  0  0
    7.5389    1.2877   -0.6636 H   0  0  0  0  0  0  0  0  0  0  0  0
    5.9876    2.1247   -1.1109 H   0  0  0  0  0  0  0  0  0  0  0  0
  1  2  1  0
  2  3  1  0
  3  4  1  0
  4  5  2  0
  5  6  1  0
  6  7  2  0
  7  8  1  0
  7  9  1  0
  9 10  2  0
  2 11  1  0
 11 12  2  0
 11 13  1  0
 13 14  1  0
 14 15  2  0
 15 16  1  0
 16 17  2  0
 17 18  1  0
 18 19  1  0
 19 20  1  0
 17 21  1  0
 10  4  1  0
 21 14  1  0
 20 18  1  0
  1 22  1  0
  1 23  1  0
  1 24  1  0
  2 25  1  0
  5 26  1  0
  6 27  1  0
  9 28  1  0
 10 29  1  0
 13 30  1  0
 18 31  1  0
 19 32  1  0
 19 33  1  0
 20 34  1  0
 20 35  1  0
M  END
$$$$
