
     RDKit          3D

 60 65  0  0  0  0  0  0  0  0999 V2000
    5.1682   -2.0534   -4.2254 C   0  0  0  0  0  0  0  0  0  0  0  0
    4.2348   -2.8232   -3.4780 O   0  0  0  0  0  0  0  0  0  0  0  0
    3.6281   -2.2001   -2.4229 C   0  0  0  0  0  0  0  0  0  0  0  0
    2.7267   -2.9906   -1.7140 C   0  0  0  0  0  0  0  0  0  0  0  0
    2.0295   -2.4738   -0.6165 C   0  0  0  0  0  0  0  0  0  0  0  0
    2.2104   -1.1469   -0.2025 C   0  0  0  0  0  0  0  0  0  0  0  0
    3.1504   -0.3768   -0.9025 C   0  0  0  0  0  0  0  0  0  0  0  0
    3.8366   -0.8874   -2.0121 C   0  0  0  0  0  0  0  0  0  0  0  0
    3.4386    0.9279   -0.5995 O   0  0  0  0  0  0  0  0  0  0  0  0
    3.0914    1.3096    0.7284 C   0  0  0  0  0  0  0  0  0  0  0  0
    1.6633    0.9509    1.0911 C   0  0  0  0  0  0  0  0  0  0  0  0
    1.4533   -0.5654    0.9835 C   0  0  0  0  0  0  0  0  0  0  0  0
   -0.0104   -0.6981    0.8840 N   0  0  0  0  0  0  0  0  0  0  0  0
   -0.6412   -1.8372    1.3442 C   0  0  0  0  0  0  0  0  0  0  0  0
   -0.0179   -2.8055    1.7791 O   0  0  0  0  0  0  0  0  0  0  0  0
   -2.1181   -1.9327    1.3588 C   0  0  0  0  0  0  0  0  0  0  0  0
   -2.6586   -3.1957    1.0597 C   0  0  0  0  0  0  0  0  0  0  0  0
   -4.0239   -3.4440    1.2032 C   0  0  0  0  0  0  0  0  0  0  0  0
   -4.8720   -2.4387    1.6688 C   0  0  0  0  0  0  0  0  0  0  0  0
   -6.3314   -2.7156    1.8819 C   0  0  0  0  0  0  0  0  0  0  0  0
   -4.3294   -1.1874    1.9930 C   0  0  0  0  0  0  0  0  0  0  0  0
   -2.9636   -0.9132    1.8097 C   0  0  0  0  0  0  0  0  0  0  0  0
   -2.5481    0.3806    2.1461 N   0  0  0  0  0  0  0  0  0  0  0  0
   -1.4403    1.0700    1.7373 C   0  0  0  0  0  0  0  0  0  0  0  0
   -1.1508    2.0748    2.3872 O   0  0  0  0  0  0  0  0  0  0  0  0
   -0.6557    0.5757    0.4884 C   0  0  0  0  0  0  0  0  0  0  0  0
   -1.5538    0.4534   -0.7546 C   0  0  0  0  0  0  0  0  0  0  0  0
    0.5760    1.4878    0.1291 C   0  0  0  0  0  0  0  0  0  0  0  0
    0.3906    2.9912    0.0257 C   0  0  0  0  0  0  0  0  0  0  0  0
   -0.0661    3.5402   -1.1860 C   0  0  0  0  0  0  0  0  0  0  0  0
   -0.2308    4.9187   -1.3400 C   0  0  0  0  0  0  0  0  0  0  0  0
    0.0630    5.7765   -0.2855 C   0  0  0  0  0  0  0  0  0  0  0  0
    0.5218    5.2547    0.9200 C   0  0  0  0  0  0  0  0  0  0  0  0
    0.6883    3.8753    1.0720 C   0  0  0  0  0  0  0  0  0  0  0  0
    6.0143   -1.7443   -3.6027 H   0  0  0  0  0  0  0  0  0  0  0  0
    4.6837   -1.1896   -4.6926 H   0  0  0  0  0  0  0  0  0  0  0  0
    5.5592   -2.6884   -5.0261 H   0  0  0  0  0  0  0  0  0  0  0  0
    2.5620   -4.0227   -2.0144 H   0  0  0  0  0  0  0  0  0  0  0  0
    1.3480   -3.1367   -0.0927 H   0  0  0  0  0  0  0  0  0  0  0  0
    4.5324   -0.2321   -2.5245 H   0  0  0  0  0  0  0  0  0  0  0  0
    3.2444    2.3912    0.8017 H   0  0  0  0  0  0  0  0  0  0  0  0
    3.8006    0.8465    1.4268 H   0  0  0  0  0  0  0  0  0  0  0  0
    1.4562    1.2720    2.1198 H   0  0  0  0  0  0  0  0  0  0  0  0
    1.8135   -1.0626    1.8927 H   0  0  0  0  0  0  0  0  0  0  0  0
   -2.0034   -4.0053    0.7402 H   0  0  0  0  0  0  0  0  0  0  0  0
   -4.4122   -4.4343    0.9732 H   0  0  0  0  0  0  0  0  0  0  0  0
   -6.4927   -3.1182    2.8864 H   0  0  0  0  0  0  0  0  0  0  0  0
   -6.7026   -3.4370    1.1463 H   0  0  0  0  0  0  0  0  0  0  0  0
   -6.9241   -1.8020    1.7676 H   0  0  0  0  0  0  0  0  0  0  0  0
   -4.9929   -0.4103    2.3694 H   0  0  0  0  0  0  0  0  0  0  0  0
   -3.1146    0.9057    2.8029 H   0  0  0  0  0  0  0  0  0  0  0  0
   -0.9703    0.1609   -1.6351 H   0  0  0  0  0  0  0  0  0  0  0  0
   -2.3465   -0.2900   -0.6637 H   0  0  0  0  0  0  0  0  0  0  0  0
   -2.0498    1.4052   -0.9715 H   0  0  0  0  0  0  0  0  0  0  0  0
    0.8961    1.1976   -0.8835 H   0  0  0  0  0  0  0  0  0  0  0  0
   -0.2871    2.8960   -2.0347 H   0  0  0  0  0  0  0  0  0  0  0  0
   -0.5833    5.3210   -2.2860 H   0  0  0  0  0  0  0  0  0  0  0  0
   -0.0657    6.8489   -0.4014 H   0  0  0  0  0  0  0  0  0  0  0  0
    0.7457    5.9196    1.7502 H   0  0  0  0  0  0  0  0  0  0  0  0
    1.0303    3.5074    2.0363 H   0  0  0  0  0  0  0  0  0  0  0  0
  1  2  1  0
  2  3  1  0
  3  4  2  0
  4  5  1  0
  5  6  2  0
  6  7  1  0
  7  8  2  0
  7  9  1  0
  9 10  1  0
 10 11  1  0
 11 12  1  0
 12 13  1  0
 13 14  1  0
 14 15  2  0
 14 16  1  0
 16 17  2  0
 17 18  1  0
 18 19  2  0
 19 20  1  0
 19 21  1  0
 21 22  2  0
 22 23  1  0
 23 24  1  0
 24 25  2  0
 24 26  1  0
 26 27  1  0
 26 28  1  0
 28 29  1  0
 29 30  2  0
 30 31  1  0
 31 32  2  0
 32 33  1  0
 33 34  2  0
  8  3  1  0
 28 11  1  0
 34 29  1  0
 12  6  1  0
 26 13  1  0
 22 16  1  0
  1 35  1  0
  1 36  1  0
  1 37  1  0
  4 38  1  0
  5 39  1  0
  8 40  1  0
 10 41  1  0
 10 42  1  0
 11 43  1  0
 12 44  1  0
 17 45  1  0
 18 46  1  0
 20 47  1  0
 20 48  1  0
 20 49  1  0
 21 50  1  0
 23 51  1  0
 27 52  1  0
 27 53  1  0
 27 54  1  0
 28 55  1  0
 30 56  1  0
 31 57  1  0
 32 58  1  0
 33 59  1  0
 34 60  1  0
M  END
$$$$
