
     RDKit          3D

 26 28  0  0  0  0  0  0  0  0999 V2000
    5.6714    0.9578    0.4013 Cl  0  0  0  0  0  0  0  0  0  0  0  0
    4.0207    0.6025    0.0395 C   0  0  0  0  0  0  0  0  0  0  0  0
    3.2089    0.1479    1.0799 C   0  0  0  0  0  0  0  0  0  0  0  0
    1.8648   -0.1553    0.8418 C   0  0  0  0  0  0  0  0  0  0  0  0
    1.3129   -0.0127   -0.4380 C   0  0  0  0  0  0  0  0  0  0  0  0
   -0.0913   -0.3313   -0.6719 C   0  0  0  0  0  0  0  0  0  0  0  0
   -0.5798   -0.8838   -1.8481 N   0  0  0  0  0  0  0  0  0  0  0  0
   -1.9194   -1.1020   -1.8586 N   0  0  0  0  0  0  0  0  0  0  0  0
   -2.2734   -0.6867   -0.6537 C   0  0  0  0  0  0  0  0  0  0  0  0
   -1.2107   -0.2150    0.1133 C   0  0  0  0  0  0  0  0  0  0  0  0
   -1.6569    0.2419    1.4417 C   0  0  0  0  0  0  0  0  0  0  0  0
   -3.2132    0.2943    1.2628 C   0  0  0  0  0  0  0  0  0  0  0  0
   -3.5712   -0.6158    0.0400 C   0  0  0  0  0  0  0  0  0  0  0  0
    2.1343    0.4482   -1.4762 C   0  0  0  0  0  0  0  0  0  0  0  0
    3.4813    0.7542   -1.2412 C   0  0  0  0  0  0  0  0  0  0  0  0
    4.4197    1.3169   -2.5794 Cl  0  0  0  0  0  0  0  0  0  0  0  0
    3.6148    0.0243    2.0813 H   0  0  0  0  0  0  0  0  0  0  0  0
    1.2560   -0.5172    1.6679 H   0  0  0  0  0  0  0  0  0  0  0  0
   -0.0514   -1.1451   -2.6724 H   0  0  0  0  0  0  0  0  0  0  0  0
   -1.3886   -0.4874    2.2129 H   0  0  0  0  0  0  0  0  0  0  0  0
   -1.2584    1.2230    1.7136 H   0  0  0  0  0  0  0  0  0  0  0  0
   -3.7445   -0.0052    2.1717 H   0  0  0  0  0  0  0  0  0  0  0  0
   -3.5085    1.3271    1.0344 H   0  0  0  0  0  0  0  0  0  0  0  0
   -3.8851   -1.6076    0.3804 H   0  0  0  0  0  0  0  0  0  0  0  0
   -4.3615   -0.1685   -0.5685 H   0  0  0  0  0  0  0  0  0  0  0  0
    1.7289    0.5954   -2.4746 H   0  0  0  0  0  0  0  0  0  0  0  0
  1  2  1  0
  2  3  2  0
  3  4  1  0
  4  5  2  0
  5  6  1  0
  6  7  1  0
  7  8  1  0
  8  9  2  0
  9 10  1  0
 10 11  1  0
 11 12  1  0
 12 13  1  0
  5 14  1  0
 14 15  2  0
 15 16  1  0
 15  2  1  0
 10  6  2  0
 13  9  1  0
  3 17  1  0
  4 18  1  0
  7 19  1  0
 11 20  1  0
 11 21  1  0
 12 22  1  0
 12 23  1  0
 13 24  1  0
 13 25  1  0
 14 26  1  0
M  END
$$$$
