
     RDKit          3D

 46 49  0  0  0  0  0  0  0  0999 V2000
   -4.6462   -3.3969    0.6920 C   0  0  0  0  0  0  0  0  0  0  0  0
   -3.4103   -2.7178    0.8775 O   0  0  0  0  0  0  0  0  0  0  0  0
   -3.2539   -1.5250    0.2295 C   0  0  0  0  0  0  0  0  0  0  0  0
   -4.1951   -0.9007   -0.5793 C   0  0  0  0  0  0  0  0  0  0  0  0
   -3.8978    0.3242   -1.1873 C   0  0  0  0  0  0  0  0  0  0  0  0
   -2.6556    0.9448   -0.9922 C   0  0  0  0  0  0  0  0  0  0  0  0
   -2.2967    2.1269   -1.5916 O   0  0  0  0  0  0  0  0  0  0  0  0
   -3.2328    2.7475   -2.4633 C   0  0  0  0  0  0  0  0  0  0  0  0
   -1.6907    0.3328   -0.1615 C   0  0  0  0  0  0  0  0  0  0  0  0
   -0.3682    0.9239    0.1045 C   0  0  0  0  0  0  0  0  0  0  0  0
   -0.2983    2.2516    0.3437 N   0  0  0  0  0  0  0  0  0  0  0  0
    0.9316    2.7559    0.6042 C   0  0  0  0  0  0  0  0  0  0  0  0
    1.0164    4.2224    0.8465 C   0  0  0  0  0  0  0  0  0  0  0  0
   -0.1674    4.9023    0.7485 N   0  0  0  0  0  0  0  0  0  0  0  0
    2.0706    4.7860    1.1121 O   0  0  0  0  0  0  0  0  0  0  0  0
    2.0411    1.9666    0.6456 C   0  0  0  0  0  0  0  0  0  0  0  0
    3.3754    2.2346    0.9023 N   0  0  0  0  0  0  0  0  0  0  0  0
    4.0944    1.0344    0.8318 C   0  0  0  0  0  0  0  0  0  0  0  0
    5.2991    0.9690    1.0132 O   0  0  0  0  0  0  0  0  0  0  0  0
    3.1486    0.0104    0.5133 N   0  0  0  0  0  0  0  0  0  0  0  0
    3.4125   -1.3770    0.3430 C   0  0  0  0  0  0  0  0  0  0  0  0
    2.4459   -2.2894   -0.1175 C   0  0  0  0  0  0  0  0  0  0  0  0
    2.7345   -3.6523   -0.2746 C   0  0  0  0  0  0  0  0  0  0  0  0
    4.0001   -4.1261    0.0252 C   0  0  0  0  0  0  0  0  0  0  0  0
    4.2764   -5.4273   -0.1251 F   0  0  0  0  0  0  0  0  0  0  0  0
    4.9813   -3.2611    0.4768 C   0  0  0  0  0  0  0  0  0  0  0  0
    4.6877   -1.8999    0.6319 C   0  0  0  0  0  0  0  0  0  0  0  0
    1.8734    0.6247    0.4043 C   0  0  0  0  0  0  0  0  0  0  0  0
    0.6840    0.0741    0.1434 N   0  0  0  0  0  0  0  0  0  0  0  0
   -2.0174   -0.9081    0.4296 C   0  0  0  0  0  0  0  0  0  0  0  0
   -4.7959   -3.6623   -0.3596 H   0  0  0  0  0  0  0  0  0  0  0  0
   -4.6066   -4.3267    1.2676 H   0  0  0  0  0  0  0  0  0  0  0  0
   -5.4835   -2.8037    1.0741 H   0  0  0  0  0  0  0  0  0  0  0  0
   -5.1707   -1.3384   -0.7647 H   0  0  0  0  0  0  0  0  0  0  0  0
   -4.6640    0.7660   -1.8168 H   0  0  0  0  0  0  0  0  0  0  0  0
   -4.1440    3.0311   -1.9264 H   0  0  0  0  0  0  0  0  0  0  0  0
   -2.7748    3.6649   -2.8458 H   0  0  0  0  0  0  0  0  0  0  0  0
   -3.4587    2.1059   -3.3212 H   0  0  0  0  0  0  0  0  0  0  0  0
   -0.1854    5.9024    0.8879 H   0  0  0  0  0  0  0  0  0  0  0  0
   -1.0184    4.4041    0.5068 H   0  0  0  0  0  0  0  0  0  0  0  0
    3.7688    3.1443    1.1139 H   0  0  0  0  0  0  0  0  0  0  0  0
    1.4425   -1.9817   -0.3882 H   0  0  0  0  0  0  0  0  0  0  0  0
    1.9733   -4.3382   -0.6329 H   0  0  0  0  0  0  0  0  0  0  0  0
    5.9711   -3.6410    0.7096 H   0  0  0  0  0  0  0  0  0  0  0  0
    5.4933   -1.2704    0.9991 H   0  0  0  0  0  0  0  0  0  0  0  0
   -1.2895   -1.4065    1.0701 H   0  0  0  0  0  0  0  0  0  0  0  0
  1  2  1  0
  2  3  1  0
  3  4  2  0
  4  5  1  0
  5  6  2  0
  6  7  1  0
  7  8  1  0
  6  9  1  0
  9 10  1  0
 10 11  2  0
 11 12  1  0
 12 13  1  0
 13 14  1  0
 13 15  2  0
 12 16  2  0
 16 17  1  0
 17 18  1  0
 18 19  2  0
 18 20  1  0
 20 21  1  0
 21 22  2  0
 22 23  1  0
 23 24  2  0
 24 25  1  0
 24 26  1  0
 26 27  2  0
 20 28  1  0
 28 29  2  0
  9 30  2  0
 30  3  1  0
 29 10  1  0
 28 16  1  0
 27 21  1  0
  1 31  1  0
  1 32  1  0
  1 33  1  0
  4 34  1  0
  5 35  1  0
  8 36  1  0
  8 37  1  0
  8 38  1  0
 14 39  1  0
 14 40  1  0
 17 41  1  0
 22 42  1  0
 23 43  1  0
 26 44  1  0
 27 45  1  0
 30 46  1  0
M  END
$$$$
