
     RDKit          3D

 48 51  0  0  0  0  0  0  0  0999 V2000
   -0.5666    2.3308    2.1941 C   0  0  0  0  0  0  0  0  0  0  0  0
   -0.5760    0.8136    2.1189 C   0  0  0  0  0  0  0  0  0  0  0  0
   -0.6417    0.3239    0.7602 N   0  0  0  0  0  0  0  0  0  0  0  0
   -1.7733   -0.0258    0.0684 C   0  0  0  0  0  0  0  0  0  0  0  0
   -3.3803    0.1339    0.6842 S   0  0  0  0  0  0  0  0  0  0  0  0
   -4.3382   -0.4563   -0.7456 C   0  0  0  0  0  0  0  0  0  0  0  0
   -5.8212   -0.4106   -0.4629 C   0  0  0  0  0  0  0  0  0  0  0  0
   -6.4696   -1.5132    0.1181 C   0  0  0  0  0  0  0  0  0  0  0  0
   -7.8370   -1.4637    0.3928 C   0  0  0  0  0  0  0  0  0  0  0  0
   -8.5556   -0.3130    0.0922 C   0  0  0  0  0  0  0  0  0  0  0  0
   -9.8677   -0.2665    0.3577 F   0  0  0  0  0  0  0  0  0  0  0  0
   -7.9331    0.7913   -0.4769 C   0  0  0  0  0  0  0  0  0  0  0  0
   -6.5658    0.7450   -0.7527 C   0  0  0  0  0  0  0  0  0  0  0  0
   -1.4486   -0.4838   -1.1147 N   0  0  0  0  0  0  0  0  0  0  0  0
   -0.0854   -0.4207   -1.2207 N   0  0  0  0  0  0  0  0  0  0  0  0
    0.4041    0.0878   -0.1067 C   0  0  0  0  0  0  0  0  0  0  0  0
    1.9364    0.3102    0.0874 C   0  0  0  0  0  0  0  0  0  0  0  0
    2.6478    0.8033    1.1846 C   0  0  0  0  0  0  0  0  0  0  0  0
    3.9601    0.8239    0.9675 N   0  0  0  0  0  0  0  0  0  0  0  0
    4.1223    0.2013   -0.2358 N   0  0  0  0  0  0  0  0  0  0  0  0
    5.4289   -0.2535   -0.5915 C   0  0  0  0  0  0  0  0  0  0  0  0
    5.6342   -1.2838   -1.5176 C   0  0  0  0  0  0  0  0  0  0  0  0
    6.9317   -1.7117   -1.8187 C   0  0  0  0  0  0  0  0  0  0  0  0
    8.0299   -1.1294   -1.1897 C   0  0  0  0  0  0  0  0  0  0  0  0
    7.8355   -0.1241   -0.2470 C   0  0  0  0  0  0  0  0  0  0  0  0
    6.5425    0.3070    0.0582 C   0  0  0  0  0  0  0  0  0  0  0  0
    2.9043    0.0827   -0.8791 C   0  0  0  0  0  0  0  0  0  0  0  0
    2.7720   -0.1695   -2.3223 C   0  0  0  0  0  0  0  0  0  0  0  0
    2.5737   -1.4822   -2.5937 F   0  0  0  0  0  0  0  0  0  0  0  0
    1.7476    0.5234   -2.8793 F   0  0  0  0  0  0  0  0  0  0  0  0
    3.8707    0.2149   -3.0233 F   0  0  0  0  0  0  0  0  0  0  0  0
   -1.4820    2.7530    1.7664 H   0  0  0  0  0  0  0  0  0  0  0  0
   -0.4965    2.6579    3.2361 H   0  0  0  0  0  0  0  0  0  0  0  0
    0.2801    2.7555    1.6457 H   0  0  0  0  0  0  0  0  0  0  0  0
    0.3092    0.3846    2.5947 H   0  0  0  0  0  0  0  0  0  0  0  0
   -1.4264    0.4152    2.6813 H   0  0  0  0  0  0  0  0  0  0  0  0
   -4.0435   -1.4835   -0.9906 H   0  0  0  0  0  0  0  0  0  0  0  0
   -4.1134    0.1615   -1.6229 H   0  0  0  0  0  0  0  0  0  0  0  0
   -5.9108   -2.4149    0.3606 H   0  0  0  0  0  0  0  0  0  0  0  0
   -8.3445   -2.3123    0.8398 H   0  0  0  0  0  0  0  0  0  0  0  0
   -8.5146    1.6800   -0.6999 H   0  0  0  0  0  0  0  0  0  0  0  0
   -6.0824    1.6147   -1.1934 H   0  0  0  0  0  0  0  0  0  0  0  0
    2.2975    1.1686    2.1390 H   0  0  0  0  0  0  0  0  0  0  0  0
    4.8170   -1.8086   -2.0008 H   0  0  0  0  0  0  0  0  0  0  0  0
    7.0836   -2.5109   -2.5409 H   0  0  0  0  0  0  0  0  0  0  0  0
    9.0356   -1.4666   -1.4270 H   0  0  0  0  0  0  0  0  0  0  0  0
    8.6890    0.3257    0.2539 H   0  0  0  0  0  0  0  0  0  0  0  0
    6.4204    1.0950    0.7998 H   0  0  0  0  0  0  0  0  0  0  0  0
  1  2  1  0
  2  3  1  0
  3  4  1  0
  4  5  1  0
  5  6  1  0
  6  7  1  0
  7  8  2  0
  8  9  1  0
  9 10  2  0
 10 11  1  0
 10 12  1  0
 12 13  2  0
  4 14  2  0
 14 15  1  0
 15 16  2  0
 16 17  1  0
 17 18  1  0
 18 19  2  0
 19 20  1  0
 20 21  1  0
 21 22  2  0
 22 23  1  0
 23 24  2  0
 24 25  1  0
 25 26  2  0
 20 27  1  0
 27 28  1  0
 28 29  1  0
 28 30  1  0
 28 31  1  0
 16  3  1  0
 27 17  2  0
 13  7  1  0
 26 21  1  0
  1 32  1  0
  1 33  1  0
  1 34  1  0
  2 35  1  0
  2 36  1  0
  6 37  1  0
  6 38  1  0
  8 39  1  0
  9 40  1  0
 12 41  1  0
 13 42  1  0
 18 43  1  0
 22 44  1  0
 23 45  1  0
 24 46  1  0
 25 47  1  0
 26 48  1  0
M  END
$$$$
