
     RDKit          3D

 67 71  0  0  0  0  0  0  0  0999 V2000
   -7.0690   -2.1487    0.2722 C   0  0  0  0  0  0  0  0  0  0  0  0
   -6.0876   -3.1728    0.3788 O   0  0  0  0  0  0  0  0  0  0  0  0
   -4.8569   -2.8061    0.8545 C   0  0  0  0  0  0  0  0  0  0  0  0
   -3.9411   -3.8588    0.9663 C   0  0  0  0  0  0  0  0  0  0  0  0
   -2.6475   -3.6301    1.4349 C   0  0  0  0  0  0  0  0  0  0  0  0
   -1.6678   -4.5729    1.5880 O   0  0  0  0  0  0  0  0  0  0  0  0
   -1.9978   -5.9065    1.2205 C   0  0  0  0  0  0  0  0  0  0  0  0
   -2.2715   -2.3347    1.7942 C   0  0  0  0  0  0  0  0  0  0  0  0
   -3.1742   -1.2690    1.6889 C   0  0  0  0  0  0  0  0  0  0  0  0
   -2.7550    0.0904    2.0525 C   0  0  0  0  0  0  0  0  0  0  0  0
   -3.5075    0.8447    3.3912 S   0  0  0  0  0  0  0  0  0  0  0  0
   -2.5597    2.2683    3.2397 C   0  0  0  0  0  0  0  0  0  0  0  0
   -2.6232    3.4144    4.0533 C   0  0  0  0  0  0  0  0  0  0  0  0
   -1.7714    4.4865    3.7756 C   0  0  0  0  0  0  0  0  0  0  0  0
   -0.8737    4.4369    2.7160 C   0  0  0  0  0  0  0  0  0  0  0  0
   -0.1063    5.5593    2.5634 O   0  0  0  0  0  0  0  0  0  0  0  0
    0.8321    5.5566    1.4944 C   0  0  0  0  0  0  0  0  0  0  0  0
   -0.8200    3.2933    1.9140 C   0  0  0  0  0  0  0  0  0  0  0  0
   -1.6679    2.1788    2.1704 C   0  0  0  0  0  0  0  0  0  0  0  0
   -1.7869    0.9071    1.4891 C   0  0  0  0  0  0  0  0  0  0  0  0
   -1.0006    0.4849    0.3348 C   0  0  0  0  0  0  0  0  0  0  0  0
   -1.5939    0.3644   -0.9241 C   0  0  0  0  0  0  0  0  0  0  0  0
   -0.8252   -0.0330   -2.0208 C   0  0  0  0  0  0  0  0  0  0  0  0
    0.5361   -0.3179   -1.8767 C   0  0  0  0  0  0  0  0  0  0  0  0
    1.1615   -0.6877   -3.0316 O   0  0  0  0  0  0  0  0  0  0  0  0
    2.4564   -1.2913   -2.9578 C   0  0  0  0  0  0  0  0  0  0  0  0
    3.5682   -0.2778   -3.2990 C   0  0  0  0  0  0  0  0  0  0  0  0
    4.1460    0.3996   -2.1206 N   0  0  0  0  0  0  0  0  0  0  0  0
    5.1017   -0.4537   -1.3768 C   0  0  0  0  0  0  0  0  0  0  0  0
    6.4715   -0.6246   -2.0597 C   0  0  0  0  0  0  0  0  0  0  0  0
    7.0695    0.6396   -2.3676 O   0  0  0  0  0  0  0  0  0  0  0  0
    6.1971    1.4276   -3.1864 C   0  0  0  0  0  0  0  0  0  0  0  0
    4.8421    1.6507   -2.4964 C   0  0  0  0  0  0  0  0  0  0  0  0
    1.1284   -0.1825   -0.6230 C   0  0  0  0  0  0  0  0  0  0  0  0
    0.3642    0.2159    0.4797 C   0  0  0  0  0  0  0  0  0  0  0  0
   -4.4713   -1.5142    1.2142 C   0  0  0  0  0  0  0  0  0  0  0  0
   -7.9893   -2.6060   -0.1041 H   0  0  0  0  0  0  0  0  0  0  0  0
   -7.2908   -1.7103    1.2510 H   0  0  0  0  0  0  0  0  0  0  0  0
   -6.7614   -1.3812   -0.4458 H   0  0  0  0  0  0  0  0  0  0  0  0
   -4.2735   -4.8504    0.6772 H   0  0  0  0  0  0  0  0  0  0  0  0
   -2.2490   -5.9728    0.1566 H   0  0  0  0  0  0  0  0  0  0  0  0
   -2.8074   -6.2990    1.8447 H   0  0  0  0  0  0  0  0  0  0  0  0
   -1.1139   -6.5286    1.3924 H   0  0  0  0  0  0  0  0  0  0  0  0
   -1.2617   -2.1605    2.1593 H   0  0  0  0  0  0  0  0  0  0  0  0
   -3.3211    3.4688    4.8837 H   0  0  0  0  0  0  0  0  0  0  0  0
   -1.8147    5.3758    4.4007 H   0  0  0  0  0  0  0  0  0  0  0  0
    1.5754    4.7629    1.6233 H   0  0  0  0  0  0  0  0  0  0  0  0
    1.3613    6.5142    1.5122 H   0  0  0  0  0  0  0  0  0  0  0  0
    0.3272    5.4740    0.5262 H   0  0  0  0  0  0  0  0  0  0  0  0
   -0.1348    3.2244    1.0759 H   0  0  0  0  0  0  0  0  0  0  0  0
   -2.6508    0.5773   -1.0623 H   0  0  0  0  0  0  0  0  0  0  0  0
   -1.2934   -0.1267   -2.9976 H   0  0  0  0  0  0  0  0  0  0  0  0
    2.4593   -2.0519   -3.7486 H   0  0  0  0  0  0  0  0  0  0  0  0
    2.6227   -1.8498   -2.0303 H   0  0  0  0  0  0  0  0  0  0  0  0
    3.1311    0.4724   -3.9706 H   0  0  0  0  0  0  0  0  0  0  0  0
    4.3524   -0.7903   -3.8673 H   0  0  0  0  0  0  0  0  0  0  0  0
    5.2642    0.0236   -0.4015 H   0  0  0  0  0  0  0  0  0  0  0  0
    4.6694   -1.4364   -1.1611 H   0  0  0  0  0  0  0  0  0  0  0  0
    6.3963   -1.2187   -2.9773 H   0  0  0  0  0  0  0  0  0  0  0  0
    7.1527   -1.1534   -1.3851 H   0  0  0  0  0  0  0  0  0  0  0  0
    6.0802    0.9426   -4.1623 H   0  0  0  0  0  0  0  0  0  0  0  0
    6.6873    2.3920   -3.3543 H   0  0  0  0  0  0  0  0  0  0  0  0
    5.0138    2.2173   -1.5718 H   0  0  0  0  0  0  0  0  0  0  0  0
    4.1970    2.2802   -3.1206 H   0  0  0  0  0  0  0  0  0  0  0  0
    2.1858   -0.3620   -0.4678 H   0  0  0  0  0  0  0  0  0  0  0  0
    0.8446    0.3136    1.4508 H   0  0  0  0  0  0  0  0  0  0  0  0
   -5.1576   -0.6780    1.1279 H   0  0  0  0  0  0  0  0  0  0  0  0
  1  2  1  0
  2  3  1  0
  3  4  2  0
  4  5  1  0
  5  6  1  0
  6  7  1  0
  5  8  2  0
  8  9  1  0
  9 10  1  0
 10 11  1  0
 11 12  1  0
 12 13  2  0
 13 14  1  0
 14 15  2  0
 15 16  1  0
 16 17  1  0
 15 18  1  0
 18 19  2  0
 19 20  1  0
 20 21  1  0
 21 22  2  0
 22 23  1  0
 23 24  2  0
 24 25  1  0
 25 26  1  0
 26 27  1  0
 27 28  1  0
 28 29  1  0
 29 30  1  0
 30 31  1  0
 31 32  1  0
 32 33  1  0
 24 34  1  0
 34 35  2  0
  9 36  2  0
 36  3  1  0
 20 10  2  0
 35 21  1  0
 19 12  1  0
 33 28  1  0
  1 37  1  0
  1 38  1  0
  1 39  1  0
  4 40  1  0
  7 41  1  0
  7 42  1  0
  7 43  1  0
  8 44  1  0
 13 45  1  0
 14 46  1  0
 17 47  1  0
 17 48  1  0
 17 49  1  0
 18 50  1  0
 22 51  1  0
 23 52  1  0
 26 53  1  0
 26 54  1  0
 27 55  1  0
 27 56  1  0
 29 57  1  0
 29 58  1  0
 30 59  1  0
 30 60  1  0
 32 61  1  0
 32 62  1  0
 33 63  1  0
 33 64  1  0
 34 65  1  0
 35 66  1  0
 36 67  1  0
M  END
$$$$
