
     RDKit          3D

 42 44  0  0  0  0  0  0  0  0999 V2000
   -3.2787    4.0021    0.1779 C   0  0  0  0  0  0  0  0  0  0  0  0
   -1.9799    3.2283    0.0622 C   0  0  0  0  0  0  0  0  0  0  0  0
   -2.2870    1.8318    0.1319 O   0  0  0  0  0  0  0  0  0  0  0  0
   -1.2006    1.0100    0.0427 C   0  0  0  0  0  0  0  0  0  0  0  0
   -0.0488    1.4111   -0.0881 O   0  0  0  0  0  0  0  0  0  0  0  0
   -1.5549   -0.4048    0.1158 C   0  0  0  0  0  0  0  0  0  0  0  0
   -0.6182   -1.4386    0.0209 C   0  0  0  0  0  0  0  0  0  0  0  0
    0.7481   -1.2958   -0.1457 N   0  0  0  0  0  0  0  0  0  0  0  0
    1.7102   -2.2827   -0.2437 C   0  0  0  0  0  0  0  0  0  0  0  0
    1.5490   -3.4968   -0.2036 O   0  0  0  0  0  0  0  0  0  0  0  0
    3.0580   -1.7043   -0.4137 C   0  0  0  0  0  0  0  0  0  0  0  0
    4.2831   -2.4086   -0.5447 C   0  0  0  0  0  0  0  0  0  0  0  0
    5.2497   -1.4410   -0.6762 C   0  0  0  0  0  0  0  0  0  0  0  0
    4.5940   -0.2474   -0.6189 N   0  0  0  0  0  0  0  0  0  0  0  0
    5.1869    1.0728   -0.7154 C   0  0  0  0  0  0  0  0  0  0  0  0
    5.4061    1.7030    0.6481 C   0  0  0  0  0  0  0  0  0  0  0  0
    3.2624   -0.3710   -0.4638 N   0  0  0  0  0  0  0  0  0  0  0  0
   -1.3331   -2.9956    0.1284 S   0  0  0  0  0  0  0  0  0  0  0  0
   -2.8474   -2.3264    0.3017 C   0  0  0  0  0  0  0  0  0  0  0  0
   -2.8566   -0.9608    0.2869 C   0  0  0  0  0  0  0  0  0  0  0  0
   -4.2412   -0.4423    0.4460 C   0  0  0  0  0  0  0  0  0  0  0  0
   -5.0259   -1.7122    0.9026 C   0  0  0  0  0  0  0  0  0  0  0  0
   -4.1815   -2.9464    0.4649 C   0  0  0  0  0  0  0  0  0  0  0  0
   -3.0969    5.0793    0.1303 H   0  0  0  0  0  0  0  0  0  0  0  0
   -3.9664    3.7231   -0.6273 H   0  0  0  0  0  0  0  0  0  0  0  0
   -3.7830    3.7695    1.1217 H   0  0  0  0  0  0  0  0  0  0  0  0
   -1.3117    3.5024    0.8862 H   0  0  0  0  0  0  0  0  0  0  0  0
   -1.4988    3.4545   -0.8959 H   0  0  0  0  0  0  0  0  0  0  0  0
    1.1155   -0.3423   -0.2042 H   0  0  0  0  0  0  0  0  0  0  0  0
    4.4209   -3.4812   -0.5407 H   0  0  0  0  0  0  0  0  0  0  0  0
    6.3217   -1.5039   -0.8000 H   0  0  0  0  0  0  0  0  0  0  0  0
    6.1385    0.9735   -1.2488 H   0  0  0  0  0  0  0  0  0  0  0  0
    4.5211    1.6903   -1.3283 H   0  0  0  0  0  0  0  0  0  0  0  0
    4.4600    1.8186    1.1874 H   0  0  0  0  0  0  0  0  0  0  0  0
    5.8609    2.6925    0.5409 H   0  0  0  0  0  0  0  0  0  0  0  0
    6.0685    1.0866    1.2651 H   0  0  0  0  0  0  0  0  0  0  0  0
   -4.6259   -0.0782   -0.5124 H   0  0  0  0  0  0  0  0  0  0  0  0
   -4.3168    0.3508    1.1948 H   0  0  0  0  0  0  0  0  0  0  0  0
   -6.0430   -1.7392    0.4994 H   0  0  0  0  0  0  0  0  0  0  0  0
   -5.1066   -1.7056    1.9977 H   0  0  0  0  0  0  0  0  0  0  0  0
   -4.2056   -3.7327    1.2242 H   0  0  0  0  0  0  0  0  0  0  0  0
   -4.5462   -3.3428   -0.4882 H   0  0  0  0  0  0  0  0  0  0  0  0
  1  2  1  0
  2  3  1  0
  3  4  1  0
  4  5  2  0
  4  6  1  0
  6  7  2  0
  7  8  1  0
  8  9  1  0
  9 10  2  0
  9 11  1  0
 11 12  1  0
 12 13  2  0
 13 14  1  0
 14 15  1  0
 15 16  1  0
 14 17  1  0
  7 18  1  0
 18 19  1  0
 19 20  2  0
 20 21  1  0
 21 22  1  0
 22 23  1  0
 20  6  1  0
 17 11  2  0
 23 19  1  0
  1 24  1  0
  1 25  1  0
  1 26  1  0
  2 27  1  0
  2 28  1  0
  8 29  1  0
 12 30  1  0
 13 31  1  0
 15 32  1  0
 15 33  1  0
 16 34  1  0
 16 35  1  0
 16 36  1  0
 21 37  1  0
 21 38  1  0
 22 39  1  0
 22 40  1  0
 23 41  1  0
 23 42  1  0
M  END
$$$$
