
     RDKit          3D

 72 77  0  0  0  0  0  0  0  0999 V2000
   -4.1943   -1.4968   -1.9380 O   0  0  0  0  0  0  0  0  0  0  0  0
   -3.7776   -1.1415   -0.8311 C   0  0  0  0  0  0  0  0  0  0  0  0
   -4.7013   -0.4457    0.2020 C   0  0  0  0  0  0  0  0  0  0  0  0
   -6.1541   -0.9258    0.1131 C   0  0  0  0  0  0  0  0  0  0  0  0
   -6.9750   -0.5933   -0.9778 C   0  0  0  0  0  0  0  0  0  0  0  0
   -8.2985   -1.0357   -1.0384 C   0  0  0  0  0  0  0  0  0  0  0  0
   -8.8211   -1.8173   -0.0111 C   0  0  0  0  0  0  0  0  0  0  0  0
   -8.0202   -2.1601    1.0767 C   0  0  0  0  0  0  0  0  0  0  0  0
   -6.6963   -1.7190    1.1397 C   0  0  0  0  0  0  0  0  0  0  0  0
   -4.5923    1.0800    0.1909 C   0  0  0  0  0  0  0  0  0  0  0  0
   -4.8185    1.7956    1.3804 C   0  0  0  0  0  0  0  0  0  0  0  0
   -4.7408    3.1893    1.4014 C   0  0  0  0  0  0  0  0  0  0  0  0
   -4.4436    3.8883    0.2335 C   0  0  0  0  0  0  0  0  0  0  0  0
   -4.2310    3.1954   -0.9563 C   0  0  0  0  0  0  0  0  0  0  0  0
   -4.3090    1.8013   -0.9802 C   0  0  0  0  0  0  0  0  0  0  0  0
   -2.4438   -1.3793   -0.4652 N   0  0  0  0  0  0  0  0  0  0  0  0
   -1.7124   -0.5424    0.4952 C   0  0  0  0  0  0  0  0  0  0  0  0
   -0.4636   -1.2487    1.0635 C   0  0  0  0  0  0  0  0  0  0  0  0
    0.4395   -1.8534    0.0593 N   0  0  0  0  0  0  0  0  0  0  0  0
    1.1979   -0.8183   -0.6735 C   0  0  0  0  0  0  0  0  0  0  0  0
    2.3833   -1.3522   -1.5105 C   0  0  0  0  0  0  0  0  0  0  0  0
    2.9756   -0.2620   -2.2310 O   0  0  0  0  0  0  0  0  0  0  0  0
    3.4298   -2.1316   -0.6849 C   0  0  0  0  0  0  0  0  0  0  0  0
    3.9325   -1.3819    0.4589 N   0  0  0  0  0  0  0  0  0  0  0  0
    4.8934   -0.4047    0.4128 C   0  0  0  0  0  0  0  0  0  0  0  0
    5.3185    0.0157   -0.7501 N   0  0  0  0  0  0  0  0  0  0  0  0
    6.3095    1.0169   -0.8237 C   0  0  0  0  0  0  0  0  0  0  0  0
    6.7448    1.4266   -2.0857 C   0  0  0  0  0  0  0  0  0  0  0  0
    7.7258    2.4133   -2.2149 C   0  0  0  0  0  0  0  0  0  0  0  0
    8.2824    3.0019   -1.0783 C   0  0  0  0  0  0  0  0  0  0  0  0
    7.8604    2.6098    0.1927 C   0  0  0  0  0  0  0  0  0  0  0  0
    6.8784    1.6215    0.3072 C   0  0  0  0  0  0  0  0  0  0  0  0
    6.3951    1.1681    1.5462 N   0  0  0  0  0  0  0  0  0  0  0  0
    6.7312    1.5629    2.8190 C   0  0  0  0  0  0  0  0  0  0  0  0
    5.9777    0.8312    3.7126 C   0  0  0  0  0  0  0  0  0  0  0  0
    5.1572   -0.0383    2.9564 C   0  0  0  0  0  0  0  0  0  0  0  0
    5.4324    0.1866    1.6193 C   0  0  0  0  0  0  0  0  0  0  0  0
   -0.3658   -2.7166   -0.8351 C   0  0  0  0  0  0  0  0  0  0  0  0
   -1.5994   -2.0407   -1.4630 C   0  0  0  0  0  0  0  0  0  0  0  0
   -4.3426   -0.7824    1.1844 H   0  0  0  0  0  0  0  0  0  0  0  0
   -6.5848    0.0057   -1.7983 H   0  0  0  0  0  0  0  0  0  0  0  0
   -8.9168   -0.7721   -1.8929 H   0  0  0  0  0  0  0  0  0  0  0  0
   -9.8509   -2.1632   -0.0600 H   0  0  0  0  0  0  0  0  0  0  0  0
   -8.4267   -2.7746    1.8756 H   0  0  0  0  0  0  0  0  0  0  0  0
   -6.0926   -2.0040    1.9986 H   0  0  0  0  0  0  0  0  0  0  0  0
   -5.0705    1.2687    2.2994 H   0  0  0  0  0  0  0  0  0  0  0  0
   -4.9215    3.7296    2.3272 H   0  0  0  0  0  0  0  0  0  0  0  0
   -4.3885    4.9737    0.2477 H   0  0  0  0  0  0  0  0  0  0  0  0
   -4.0138    3.7406   -1.8721 H   0  0  0  0  0  0  0  0  0  0  0  0
   -4.1584    1.2880   -1.9290 H   0  0  0  0  0  0  0  0  0  0  0  0
   -2.3531   -0.2554    1.3306 H   0  0  0  0  0  0  0  0  0  0  0  0
   -1.4290    0.3792   -0.0280 H   0  0  0  0  0  0  0  0  0  0  0  0
    0.0918   -0.5559    1.7084 H   0  0  0  0  0  0  0  0  0  0  0  0
   -0.8004   -2.0558    1.7289 H   0  0  0  0  0  0  0  0  0  0  0  0
    0.5453   -0.2222   -1.3236 H   0  0  0  0  0  0  0  0  0  0  0  0
    1.6076   -0.0932    0.0446 H   0  0  0  0  0  0  0  0  0  0  0  0
    2.0032   -2.0242   -2.2859 H   0  0  0  0  0  0  0  0  0  0  0  0
    3.7908   -0.0058   -1.7404 H   0  0  0  0  0  0  0  0  0  0  0  0
    2.9826   -3.0608   -0.3150 H   0  0  0  0  0  0  0  0  0  0  0  0
    4.2697   -2.4193   -1.3283 H   0  0  0  0  0  0  0  0  0  0  0  0
    3.6415   -1.7251    1.3634 H   0  0  0  0  0  0  0  0  0  0  0  0
    6.3153    0.9711   -2.9746 H   0  0  0  0  0  0  0  0  0  0  0  0
    8.0557    2.7207   -3.2043 H   0  0  0  0  0  0  0  0  0  0  0  0
    9.0488    3.7670   -1.1856 H   0  0  0  0  0  0  0  0  0  0  0  0
    8.3081    3.0819    1.0613 H   0  0  0  0  0  0  0  0  0  0  0  0
    7.4701    2.3290    3.0006 H   0  0  0  0  0  0  0  0  0  0  0  0
    6.0173    0.9176    4.7914 H   0  0  0  0  0  0  0  0  0  0  0  0
    4.4397   -0.7457    3.3521 H   0  0  0  0  0  0  0  0  0  0  0  0
    0.2554   -3.1563   -1.6223 H   0  0  0  0  0  0  0  0  0  0  0  0
   -0.7136   -3.5706   -0.2371 H   0  0  0  0  0  0  0  0  0  0  0  0
   -1.3023   -1.2845   -2.1995 H   0  0  0  0  0  0  0  0  0  0  0  0
   -2.1847   -2.8004   -1.9941 H   0  0  0  0  0  0  0  0  0  0  0  0
  1  2  2  0
  2  3  1  0
  3  4  1  0
  4  5  2  0
  5  6  1  0
  6  7  2  0
  7  8  1  0
  8  9  2  0
  3 10  1  0
 10 11  2  0
 11 12  1  0
 12 13  2  0
 13 14  1  0
 14 15  2  0
  2 16  1  0
 16 17  1  0
 17 18  1  0
 18 19  1  0
 19 20  1  0
 20 21  1  0
 21 22  1  0
 21 23  1  0
 23 24  1  0
 24 25  1  0
 25 26  2  0
 26 27  1  0
 27 28  2  0
 28 29  1  0
 29 30  2  0
 30 31  1  0
 31 32  2  0
 32 33  1  0
 33 34  1  0
 34 35  2  0
 35 36  1  0
 36 37  2  0
 19 38  1  0
 38 39  1  0
  9  4  1  0
 15 10  1  0
 39 16  1  0
 37 25  1  0
 32 27  1  0
 37 33  1  0
  3 40  1  0
  5 41  1  0
  6 42  1  0
  7 43  1  0
  8 44  1  0
  9 45  1  0
 11 46  1  0
 12 47  1  0
 13 48  1  0
 14 49  1  0
 15 50  1  0
 17 51  1  0
 17 52  1  0
 18 53  1  0
 18 54  1  0
 20 55  1  0
 20 56  1  0
 21 57  1  0
 22 58  1  0
 23 59  1  0
 23 60  1  0
 24 61  1  0
 28 62  1  0
 29 63  1  0
 30 64  1  0
 31 65  1  0
 34 66  1  0
 35 67  1  0
 36 68  1  0
 38 69  1  0
 38 70  1  0
 39 71  1  0
 39 72  1  0
M  END
$$$$
