
     RDKit          3D

 36 37  0  0  0  0  0  0  0  0999 V2000
   -3.2237   -2.8572    0.8808 C   0  0  0  0  0  0  0  0  0  0  0  0
   -2.2533   -2.5143   -0.2322 C   0  0  0  0  0  0  0  0  0  0  0  0
   -2.0511   -1.0954   -0.2260 O   0  0  0  0  0  0  0  0  0  0  0  0
   -1.1660   -0.6585   -1.1545 C   0  0  0  0  0  0  0  0  0  0  0  0
   -0.5632   -1.3550   -1.9569 O   0  0  0  0  0  0  0  0  0  0  0  0
   -0.9673    0.8082   -1.0450 C   0  0  0  0  0  0  0  0  0  0  0  0
   -1.9550    1.6171   -0.4584 C   0  0  0  0  0  0  0  0  0  0  0  0
   -1.7802    2.9995   -0.3823 C   0  0  0  0  0  0  0  0  0  0  0  0
   -0.6262    3.5834   -0.8978 C   0  0  0  0  0  0  0  0  0  0  0  0
    0.3598    2.7873   -1.4829 C   0  0  0  0  0  0  0  0  0  0  0  0
    0.2055    1.3986   -1.5539 C   0  0  0  0  0  0  0  0  0  0  0  0
    1.2658    0.6102   -2.1190 N   0  0  0  0  0  0  0  0  0  0  0  0
    2.7558    0.5514   -1.3124 S   0  0  0  0  0  6  0  0  0  0  0  0
    3.2835    1.8986   -1.2209 O   0  0  0  0  0  0  0  0  0  0  0  0
    3.5427   -0.4979   -1.9216 O   0  0  0  0  0  0  0  0  0  0  0  0
    2.3225    0.0428    0.3212 C   0  0  0  0  0  0  0  0  0  0  0  0
    2.3723    0.9536    1.3824 C   0  0  0  0  0  0  0  0  0  0  0  0
    2.0282    0.5320    2.6681 C   0  0  0  0  0  0  0  0  0  0  0  0
    1.6441   -0.7916    2.8915 C   0  0  0  0  0  0  0  0  0  0  0  0
    1.6059   -1.6960    1.8295 C   0  0  0  0  0  0  0  0  0  0  0  0
    1.9501   -1.2753    0.5475 C   0  0  0  0  0  0  0  0  0  0  0  0
    1.8778   -2.1612   -0.4532 F   0  0  0  0  0  0  0  0  0  0  0  0
   -4.1757   -2.3357    0.7366 H   0  0  0  0  0  0  0  0  0  0  0  0
   -2.8278   -2.5352    1.8497 H   0  0  0  0  0  0  0  0  0  0  0  0
   -3.4122   -3.9338    0.9163 H   0  0  0  0  0  0  0  0  0  0  0  0
   -1.2994   -3.0261   -0.0612 H   0  0  0  0  0  0  0  0  0  0  0  0
   -2.6707   -2.8222   -1.1974 H   0  0  0  0  0  0  0  0  0  0  0  0
   -2.8718    1.1824   -0.0660 H   0  0  0  0  0  0  0  0  0  0  0  0
   -2.5492    3.6221    0.0697 H   0  0  0  0  0  0  0  0  0  0  0  0
   -0.4916    4.6619   -0.8502 H   0  0  0  0  0  0  0  0  0  0  0  0
    1.2482    3.2649   -1.8922 H   0  0  0  0  0  0  0  0  0  0  0  0
    0.9934   -0.3319   -2.4392 H   0  0  0  0  0  0  0  0  0  0  0  0
    2.6748    1.9860    1.2181 H   0  0  0  0  0  0  0  0  0  0  0  0
    2.0640    1.2350    3.4978 H   0  0  0  0  0  0  0  0  0  0  0  0
    1.3793   -1.1192    3.8943 H   0  0  0  0  0  0  0  0  0  0  0  0
    1.3107   -2.7284    1.9923 H   0  0  0  0  0  0  0  0  0  0  0  0
  1  2  1  0
  2  3  1  0
  3  4  1  0
  4  5  2  0
  4  6  1  0
  6  7  2  0
  7  8  1  0
  8  9  2  0
  9 10  1  0
 10 11  2  0
 11 12  1  0
 12 13  1  0
 13 14  2  0
 13 15  2  0
 13 16  1  0
 16 17  2  0
 17 18  1  0
 18 19  2  0
 19 20  1  0
 20 21  2  0
 21 22  1  0
 11  6  1  0
 21 16  1  0
  1 23  1  0
  1 24  1  0
  1 25  1  0
  2 26  1  0
  2 27  1  0
  7 28  1  0
  8 29  1  0
  9 30  1  0
 10 31  1  0
 12 32  1  0
 17 33  1  0
 18 34  1  0
 19 35  1  0
 20 36  1  0
M  END
$$$$
