
     RDKit          3D

 51 55  0  0  0  0  0  0  0  0999 V2000
   -8.1312    1.9791    0.8458 F   0  0  0  0  0  0  0  0  0  0  0  0
   -7.3357    1.0017    0.3915 C   0  0  0  0  0  0  0  0  0  0  0  0
   -7.8727   -0.0028   -0.4043 C   0  0  0  0  0  0  0  0  0  0  0  0
   -7.0439   -1.0173   -0.8794 C   0  0  0  0  0  0  0  0  0  0  0  0
   -5.6850   -1.0190   -0.5527 C   0  0  0  0  0  0  0  0  0  0  0  0
   -5.1435   -0.0078    0.2559 C   0  0  0  0  0  0  0  0  0  0  0  0
   -3.6709   -0.0015    0.5925 C   0  0  0  0  0  0  0  0  0  0  0  0
   -2.8512    0.7636   -0.4629 C   0  0  0  0  0  0  0  0  0  0  0  0
   -1.3963    0.7659   -0.2828 N   0  0  0  0  0  0  0  0  0  0  0  0
   -0.7553   -0.5518   -0.4698 C   0  0  0  0  0  0  0  0  0  0  0  0
    0.1088   -1.0113    0.7230 C   0  0  0  0  0  0  0  0  0  0  0  0
    1.1304   -0.0006    1.0613 N   0  0  0  0  0  0  0  0  0  0  0  0
    2.4302   -0.1827    0.5796 C   0  0  0  0  0  0  0  0  0  0  0  0
    2.6297   -1.0441   -0.3879 N   0  0  0  0  0  0  0  0  0  0  0  0
    3.9116   -1.2289   -0.9391 C   0  0  0  0  0  0  0  0  0  0  0  0
    4.0597   -2.1486   -1.9792 C   0  0  0  0  0  0  0  0  0  0  0  0
    5.3075   -2.3622   -2.5712 C   0  0  0  0  0  0  0  0  0  0  0  0
    6.4237   -1.6533   -2.1261 C   0  0  0  0  0  0  0  0  0  0  0  0
    6.2989   -0.7293   -1.0880 C   0  0  0  0  0  0  0  0  0  0  0  0
    5.0437   -0.5264   -0.5061 C   0  0  0  0  0  0  0  0  0  0  0  0
    4.8306    0.3725    0.5511 N   0  0  0  0  0  0  0  0  0  0  0  0
    5.7321    1.1778    1.2062 C   0  0  0  0  0  0  0  0  0  0  0  0
    5.0690    1.8257    2.2249 C   0  0  0  0  0  0  0  0  0  0  0  0
    3.7180    1.4105    2.1745 C   0  0  0  0  0  0  0  0  0  0  0  0
    3.5801    0.5411    1.1063 C   0  0  0  0  0  0  0  0  0  0  0  0
    0.6008    1.3829    1.1070 C   0  0  0  0  0  0  0  0  0  0  0  0
   -0.9350    1.4500    0.9331 C   0  0  0  0  0  0  0  0  0  0  0  0
   -5.9843    1.0107    0.7232 C   0  0  0  0  0  0  0  0  0  0  0  0
   -8.9295    0.0127   -0.6497 H   0  0  0  0  0  0  0  0  0  0  0  0
   -7.4538   -1.8060   -1.5053 H   0  0  0  0  0  0  0  0  0  0  0  0
   -5.0496   -1.8158   -0.9349 H   0  0  0  0  0  0  0  0  0  0  0  0
   -3.5405    0.4471    1.5844 H   0  0  0  0  0  0  0  0  0  0  0  0
   -3.3242   -1.0379    0.6833 H   0  0  0  0  0  0  0  0  0  0  0  0
   -3.0726    0.3621   -1.4611 H   0  0  0  0  0  0  0  0  0  0  0  0
   -3.1966    1.8056   -0.4988 H   0  0  0  0  0  0  0  0  0  0  0  0
   -0.1173   -0.4748   -1.3588 H   0  0  0  0  0  0  0  0  0  0  0  0
   -1.4902   -1.3341   -0.6929 H   0  0  0  0  0  0  0  0  0  0  0  0
    0.5556   -1.9897    0.5111 H   0  0  0  0  0  0  0  0  0  0  0  0
   -0.5287   -1.1689    1.6025 H   0  0  0  0  0  0  0  0  0  0  0  0
    3.1914   -2.6999   -2.3300 H   0  0  0  0  0  0  0  0  0  0  0  0
    5.4055   -3.0815   -3.3802 H   0  0  0  0  0  0  0  0  0  0  0  0
    7.3928   -1.8227   -2.5893 H   0  0  0  0  0  0  0  0  0  0  0  0
    7.1813   -0.1921   -0.7573 H   0  0  0  0  0  0  0  0  0  0  0  0
    6.7727    1.2194    0.9198 H   0  0  0  0  0  0  0  0  0  0  0  0
    5.5141    2.5118    2.9341 H   0  0  0  0  0  0  0  0  0  0  0  0
    2.9344    1.7125    2.8546 H   0  0  0  0  0  0  0  0  0  0  0  0
    1.0674    1.9851    0.3167 H   0  0  0  0  0  0  0  0  0  0  0  0
    0.8527    1.8360    2.0705 H   0  0  0  0  0  0  0  0  0  0  0  0
   -1.2335    2.5043    0.8950 H   0  0  0  0  0  0  0  0  0  0  0  0
   -1.3994    1.0176    1.8275 H   0  0  0  0  0  0  0  0  0  0  0  0
   -5.6019    1.8153    1.3442 H   0  0  0  0  0  0  0  0  0  0  0  0
  1  2  1  0
  2  3  2  0
  3  4  1  0
  4  5  2  0
  5  6  1  0
  6  7  1  0
  7  8  1  0
  8  9  1  0
  9 10  1  0
 10 11  1  0
 11 12  1  0
 12 13  1  0
 13 14  2  0
 14 15  1  0
 15 16  2  0
 16 17  1  0
 17 18  2  0
 18 19  1  0
 19 20  2  0
 20 21  1  0
 21 22  1  0
 22 23  2  0
 23 24  1  0
 24 25  2  0
 12 26  1  0
 26 27  1  0
  6 28  2  0
 28  2  1  0
 27  9  1  0
 25 13  1  0
 20 15  1  0
 25 21  1  0
  3 29  1  0
  4 30  1  0
  5 31  1  0
  7 32  1  0
  7 33  1  0
  8 34  1  0
  8 35  1  0
 10 36  1  0
 10 37  1  0
 11 38  1  0
 11 39  1  0
 16 40  1  0
 17 41  1  0
 18 42  1  0
 19 43  1  0
 22 44  1  0
 23 45  1  0
 24 46  1  0
 26 47  1  0
 26 48  1  0
 27 49  1  0
 27 50  1  0
 28 51  1  0
M  END
$$$$
