
     RDKit          3D

 35 37  0  0  0  0  0  0  0  0999 V2000
   -5.5895   -0.3966    0.6665 C   0  0  0  0  0  0  0  0  0  0  0  0
   -4.7770    0.3484   -0.3555 C   0  0  0  0  0  0  0  0  0  0  0  0
   -5.3826    1.3142   -1.1709 C   0  0  0  0  0  0  0  0  0  0  0  0
   -4.6364    1.9980   -2.1358 C   0  0  0  0  0  0  0  0  0  0  0  0
   -3.2793    1.7155   -2.3047 C   0  0  0  0  0  0  0  0  0  0  0  0
   -2.6643    0.7558   -1.5001 C   0  0  0  0  0  0  0  0  0  0  0  0
   -3.4053    0.0965   -0.5119 C   0  0  0  0  0  0  0  0  0  0  0  0
   -2.8216   -0.8562    0.2838 O   0  0  0  0  0  0  0  0  0  0  0  0
   -1.8263   -0.3081    1.1380 C   0  0  0  0  0  0  0  0  0  0  0  0
   -0.3765   -0.5802    0.7042 C   0  0  0  0  0  0  0  0  0  0  0  0
   -0.1029   -1.1810   -0.3308 O   0  0  0  0  0  0  0  0  0  0  0  0
    0.5292   -0.0689    1.6173 N   0  0  0  0  0  0  0  0  0  0  0  0
    1.9005   -0.1263    1.5389 C   0  0  0  0  0  0  0  0  0  0  0  0
    2.6684    0.3787    2.4819 N   0  0  0  0  0  0  0  0  0  0  0  0
    4.0121    0.2069    2.2034 N   0  0  0  0  0  0  0  0  0  0  0  0
    4.2004   -0.4105    1.0516 C   0  0  0  0  0  0  0  0  0  0  0  0
    5.5025   -0.7099    0.5277 C   0  0  0  0  0  0  0  0  0  0  0  0
    6.7399   -0.4505    1.1038 C   0  0  0  0  0  0  0  0  0  0  0  0
    7.7321   -0.9325    0.2140 C   0  0  0  0  0  0  0  0  0  0  0  0
    7.0537   -1.4565   -0.8603 C   0  0  0  0  0  0  0  0  0  0  0  0
    5.7141   -1.3309   -0.6829 O   0  0  0  0  0  0  0  0  0  0  0  0
    2.7488   -0.8265    0.2401 S   0  0  0  0  0  0  0  0  0  0  0  0
   -6.6450   -0.0958    0.6413 H   0  0  0  0  0  0  0  0  0  0  0  0
   -5.5466   -1.4749    0.4650 H   0  0  0  0  0  0  0  0  0  0  0  0
   -5.2102   -0.1988    1.6777 H   0  0  0  0  0  0  0  0  0  0  0  0
   -6.4441    1.5339   -1.0687 H   0  0  0  0  0  0  0  0  0  0  0  0
   -5.1178    2.7418   -2.7675 H   0  0  0  0  0  0  0  0  0  0  0  0
   -2.7029    2.2303   -3.0738 H   0  0  0  0  0  0  0  0  0  0  0  0
   -1.6159    0.5136   -1.6690 H   0  0  0  0  0  0  0  0  0  0  0  0
   -1.9547    0.7735    1.2984 H   0  0  0  0  0  0  0  0  0  0  0  0
   -1.9613   -0.7889    2.1146 H   0  0  0  0  0  0  0  0  0  0  0  0
    0.1986    0.3897    2.4567 H   0  0  0  0  0  0  0  0  0  0  0  0
    6.8956    0.0278    2.0632 H   0  0  0  0  0  0  0  0  0  0  0  0
    8.8044   -0.9006    0.3395 H   0  0  0  0  0  0  0  0  0  0  0  0
    7.3600   -1.9310   -1.7839 H   0  0  0  0  0  0  0  0  0  0  0  0
  1  2  1  0
  2  3  2  0
  3  4  1  0
  4  5  2  0
  5  6  1  0
  6  7  2  0
  7  8  1  0
  8  9  1  0
  9 10  1  0
 10 11  2  0
 10 12  1  0
 12 13  1  0
 13 14  2  0
 14 15  1  0
 15 16  2  0
 16 17  1  0
 17 18  2  0
 18 19  1  0
 19 20  2  0
 20 21  1  0
 16 22  1  0
  7  2  1  0
 22 13  1  0
 21 17  1  0
  1 23  1  0
  1 24  1  0
  1 25  1  0
  3 26  1  0
  4 27  1  0
  5 28  1  0
  6 29  1  0
  9 30  1  0
  9 31  1  0
 12 32  1  0
 18 33  1  0
 19 34  1  0
 20 35  1  0
M  END
$$$$
