
     RDKit          3D

 40 42  0  0  0  0  0  0  0  0999 V2000
   -2.4645    1.7011   -0.2284 C   0  0  0  0  0  0  0  0  0  0  0  0
   -2.9431    0.3245   -0.0772 N   0  0  0  0  0  0  0  0  0  0  0  0
   -2.1323   -0.7489   -0.4931 C   0  0  0  0  0  0  0  0  0  0  0  0
   -2.5275   -1.8284   -0.9293 O   0  0  0  0  0  0  0  0  0  0  0  0
   -0.6567   -0.5901   -0.4062 C   0  0  0  0  0  0  0  0  0  0  0  0
    0.1363   -1.0019   -1.4792 C   0  0  0  0  0  0  0  0  0  0  0  0
    1.5274   -0.8844   -1.4025 C   0  0  0  0  0  0  0  0  0  0  0  0
    2.1420   -0.3658   -0.2530 C   0  0  0  0  0  0  0  0  0  0  0  0
    3.5505   -0.2825   -0.2647 N   0  0  0  0  0  0  0  0  0  0  0  0
    4.3824    0.2478    0.7145 C   0  0  0  0  0  0  0  0  0  0  0  0
    3.9783    0.7723    1.7482 O   0  0  0  0  0  0  0  0  0  0  0  0
    5.8041    0.1442    0.4035 C   0  0  0  0  0  0  0  0  0  0  0  0
    6.5237   -0.4576   -0.6181 C   0  0  0  0  0  0  0  0  0  0  0  0
    7.8960   -0.2079   -0.3635 C   0  0  0  0  0  0  0  0  0  0  0  0
    7.9404    0.5271    0.7947 C   0  0  0  0  0  0  0  0  0  0  0  0
    6.6884    0.7438    1.2656 O   0  0  0  0  0  0  0  0  0  0  0  0
    1.3405    0.0167    0.8261 C   0  0  0  0  0  0  0  0  0  0  0  0
   -0.0528   -0.1027    0.7564 C   0  0  0  0  0  0  0  0  0  0  0  0
   -4.3097    0.1297    0.3568 C   0  0  0  0  0  0  0  0  0  0  0  0
   -5.1659    1.2221    0.5907 C   0  0  0  0  0  0  0  0  0  0  0  0
   -6.4832    1.0438    1.0340 C   0  0  0  0  0  0  0  0  0  0  0  0
   -6.9752   -0.2339    1.2669 C   0  0  0  0  0  0  0  0  0  0  0  0
   -6.1464   -1.3295    1.0637 C   0  0  0  0  0  0  0  0  0  0  0  0
   -4.8296   -1.1471    0.6206 C   0  0  0  0  0  0  0  0  0  0  0  0
   -3.1267    2.2455   -0.9096 H   0  0  0  0  0  0  0  0  0  0  0  0
   -1.4705    1.7539   -0.6779 H   0  0  0  0  0  0  0  0  0  0  0  0
   -2.4360    2.1858    0.7523 H   0  0  0  0  0  0  0  0  0  0  0  0
   -0.3276   -1.4180   -2.3711 H   0  0  0  0  0  0  0  0  0  0  0  0
    2.1186   -1.2089   -2.2552 H   0  0  0  0  0  0  0  0  0  0  0  0
    3.9985   -0.6275   -1.1004 H   0  0  0  0  0  0  0  0  0  0  0  0
    6.1250   -1.0200   -1.4498 H   0  0  0  0  0  0  0  0  0  0  0  0
    8.7472   -0.5271   -0.9487 H   0  0  0  0  0  0  0  0  0  0  0  0
    8.7408    0.9503    1.3861 H   0  0  0  0  0  0  0  0  0  0  0  0
    1.7653    0.3989    1.7495 H   0  0  0  0  0  0  0  0  0  0  0  0
   -0.6551    0.1741    1.6187 H   0  0  0  0  0  0  0  0  0  0  0  0
   -4.8435    2.2464    0.4358 H   0  0  0  0  0  0  0  0  0  0  0  0
   -7.1211    1.9087    1.1974 H   0  0  0  0  0  0  0  0  0  0  0  0
   -7.9961   -0.3758    1.6103 H   0  0  0  0  0  0  0  0  0  0  0  0
   -6.5146   -2.3350    1.2514 H   0  0  0  0  0  0  0  0  0  0  0  0
   -4.2274   -2.0432    0.5063 H   0  0  0  0  0  0  0  0  0  0  0  0
  1  2  1  0
  2  3  1  0
  3  4  2  0
  3  5  1  0
  5  6  2  0
  6  7  1  0
  7  8  2  0
  8  9  1  0
  9 10  1  0
 10 11  2  0
 10 12  1  0
 12 13  2  0
 13 14  1  0
 14 15  2  0
 15 16  1  0
  8 17  1  0
 17 18  2  0
  2 19  1  0
 19 20  2  0
 20 21  1  0
 21 22  2  0
 22 23  1  0
 23 24  2  0
 18  5  1  0
 24 19  1  0
 16 12  1  0
  1 25  1  0
  1 26  1  0
  1 27  1  0
  6 28  1  0
  7 29  1  0
  9 30  1  0
 13 31  1  0
 14 32  1  0
 15 33  1  0
 17 34  1  0
 18 35  1  0
 20 36  1  0
 21 37  1  0
 22 38  1  0
 23 39  1  0
 24 40  1  0
M  END
$$$$
