
     RDKit          3D

 37 39  0  0  0  0  0  0  0  0999 V2000
   -6.2761    3.4117    1.1328 C   0  0  0  0  0  0  0  0  0  0  0  0
   -5.3607    3.7649    0.1038 O   0  0  0  0  0  0  0  0  0  0  0  0
   -4.3574    2.8752   -0.1607 C   0  0  0  0  0  0  0  0  0  0  0  0
   -3.5234    3.2318   -1.2210 C   0  0  0  0  0  0  0  0  0  0  0  0
   -2.4570    2.4095   -1.6060 C   0  0  0  0  0  0  0  0  0  0  0  0
   -2.1991    1.2072   -0.9313 C   0  0  0  0  0  0  0  0  0  0  0  0
   -1.0977    0.2984   -1.2833 C   0  0  0  0  0  0  0  0  0  0  0  0
   -0.6828   -0.7209   -0.5511 N   0  0  0  0  0  0  0  0  0  0  0  0
    0.3669   -1.3520   -1.2005 C   0  0  0  0  0  0  0  0  0  0  0  0
    0.9034   -2.4153   -0.5214 N   0  0  0  0  0  0  0  0  0  0  0  0
    2.0008   -3.1402   -0.9186 C   0  0  0  0  0  0  0  0  0  0  0  0
    2.6457   -2.9891   -1.9532 O   0  0  0  0  0  0  0  0  0  0  0  0
    2.3663   -4.2666    0.0347 C   0  0  0  0  0  0  0  0  0  0  0  0
    2.5579   -3.7143    1.7523 S   0  0  0  0  0  0  0  0  0  0  0  0
    3.6537   -2.3689    1.5428 C   0  0  0  0  0  0  0  0  0  0  0  0
    3.2829   -1.1483    1.8570 N   0  0  0  0  0  0  0  0  0  0  0  0
    4.2740   -0.2223    1.5941 N   0  0  0  0  0  0  0  0  0  0  0  0
    5.3552   -0.7840    1.0949 C   0  0  0  0  0  0  0  0  0  0  0  0
    6.5761   -0.0472    0.6834 C   0  0  0  0  0  0  0  0  0  0  0  0
    5.2486   -2.4920    0.9354 S   0  0  0  0  0  0  0  0  0  0  0  0
    0.7462   -0.9084   -2.3950 N   0  0  0  0  0  0  0  0  0  0  0  0
   -0.2025    0.4089   -2.7485 S   0  0  0  0  0  0  0  0  0  0  0  0
   -3.0402    0.8673    0.1420 C   0  0  0  0  0  0  0  0  0  0  0  0
   -4.1099    1.6882    0.5234 C   0  0  0  0  0  0  0  0  0  0  0  0
   -6.7910    2.4738    0.9000 H   0  0  0  0  0  0  0  0  0  0  0  0
   -5.7729    3.3576    2.1042 H   0  0  0  0  0  0  0  0  0  0  0  0
   -7.0333    4.1998    1.1918 H   0  0  0  0  0  0  0  0  0  0  0  0
   -3.7028    4.1635   -1.7530 H   0  0  0  0  0  0  0  0  0  0  0  0
   -1.8368    2.7431   -2.4336 H   0  0  0  0  0  0  0  0  0  0  0  0
    0.5026   -2.5498    0.3958 H   0  0  0  0  0  0  0  0  0  0  0  0
    1.5808   -5.0279   -0.0104 H   0  0  0  0  0  0  0  0  0  0  0  0
    3.2987   -4.7309   -0.3002 H   0  0  0  0  0  0  0  0  0  0  0  0
    6.7780    0.7691    1.3842 H   0  0  0  0  0  0  0  0  0  0  0  0
    6.4355    0.3851   -0.3127 H   0  0  0  0  0  0  0  0  0  0  0  0
    7.4599   -0.6927    0.6584 H   0  0  0  0  0  0  0  0  0  0  0  0
   -2.8672   -0.0539    0.6973 H   0  0  0  0  0  0  0  0  0  0  0  0
   -4.7223    1.3695    1.3604 H   0  0  0  0  0  0  0  0  0  0  0  0
  1  2  1  0
  2  3  1  0
  3  4  2  0
  4  5  1  0
  5  6  2  0
  6  7  1  0
  7  8  2  0
  8  9  1  0
  9 10  1  0
 10 11  1  0
 11 12  2  0
 11 13  1  0
 13 14  1  0
 14 15  1  0
 15 16  2  0
 16 17  1  0
 17 18  2  0
 18 19  1  0
 18 20  1  0
  9 21  2  0
 21 22  1  0
  6 23  1  0
 23 24  2  0
 24  3  1  0
 22  7  1  0
 20 15  1  0
  1 25  1  0
  1 26  1  0
  1 27  1  0
  4 28  1  0
  5 29  1  0
 10 30  1  0
 13 31  1  0
 13 32  1  0
 19 33  1  0
 19 34  1  0
 19 35  1  0
 23 36  1  0
 24 37  1  0
M  END
$$$$
