
     RDKit          3D

 42 44  0  0  0  0  0  0  0  0999 V2000
   -3.3729   -0.5142   -2.4433 C   0  0  0  0  0  0  0  0  0  0  0  0
   -3.7231   -0.1955   -1.0126 C   0  0  0  0  0  0  0  0  0  0  0  0
   -5.0733   -0.3196   -0.6298 C   0  0  0  0  0  0  0  0  0  0  0  0
   -5.4822   -0.0005    0.6615 C   0  0  0  0  0  0  0  0  0  0  0  0
   -4.5415    0.4424    1.5788 C   0  0  0  0  0  0  0  0  0  0  0  0
   -5.0301    0.8430    3.1801 Cl  0  0  0  0  0  0  0  0  0  0  0  0
   -3.1963    0.5553    1.2201 C   0  0  0  0  0  0  0  0  0  0  0  0
   -2.7508    0.2235   -0.0717 C   0  0  0  0  0  0  0  0  0  0  0  0
   -1.3966    0.3021   -0.4193 N   0  0  0  0  0  0  0  0  0  0  0  0
   -0.5454    1.3129    0.2284 C   0  0  0  0  0  0  0  0  0  0  0  0
    0.8488    1.3435   -0.4375 C   0  0  0  0  0  0  0  0  0  0  0  0
    1.5330    0.0135   -0.4290 N   0  0  0  0  0  0  0  0  0  0  0  0
    2.7356    0.0048    0.2808 C   0  0  0  0  0  0  0  0  0  0  0  0
    2.7987    0.1833    1.6730 C   0  0  0  0  0  0  0  0  0  0  0  0
    4.0216    0.1706    2.3326 C   0  0  0  0  0  0  0  0  0  0  0  0
    5.1806   -0.0181    1.5993 C   0  0  0  0  0  0  0  0  0  0  0  0
    5.0922   -0.1881    0.2247 C   0  0  0  0  0  0  0  0  0  0  0  0
    3.8960   -0.1737   -0.4050 N   0  0  0  0  0  4  0  0  0  0  0  0
    3.8475   -0.3519   -1.8675 C   0  0  0  0  0  0  0  0  0  0  0  0
    0.6355   -1.1239   -0.0762 C   0  0  0  0  0  0  0  0  0  0  0  0
   -0.7480   -0.9861   -0.7526 C   0  0  0  0  0  0  0  0  0  0  0  0
   -3.0014   -1.5402   -2.5219 H   0  0  0  0  0  0  0  0  0  0  0  0
   -2.6207    0.1811   -2.8295 H   0  0  0  0  0  0  0  0  0  0  0  0
   -4.2486   -0.4177   -3.0948 H   0  0  0  0  0  0  0  0  0  0  0  0
   -5.8195   -0.6535   -1.3490 H   0  0  0  0  0  0  0  0  0  0  0  0
   -6.5288   -0.0932    0.9386 H   0  0  0  0  0  0  0  0  0  0  0  0
   -2.4980    0.8836    1.9823 H   0  0  0  0  0  0  0  0  0  0  0  0
   -1.0030    2.3049    0.1342 H   0  0  0  0  0  0  0  0  0  0  0  0
   -0.4203    1.0919    1.2950 H   0  0  0  0  0  0  0  0  0  0  0  0
    0.7317    1.6322   -1.4896 H   0  0  0  0  0  0  0  0  0  0  0  0
    1.4622    2.1225    0.0328 H   0  0  0  0  0  0  0  0  0  0  0  0
    1.8904    0.3350    2.2515 H   0  0  0  0  0  0  0  0  0  0  0  0
    4.0671    0.3079    3.4120 H   0  0  0  0  0  0  0  0  0  0  0  0
    6.1492   -0.0315    2.0947 H   0  0  0  0  0  0  0  0  0  0  0  0
    5.9814   -0.3363   -0.3817 H   0  0  0  0  0  0  0  0  0  0  0  0
    4.8580   -0.4871   -2.2615 H   0  0  0  0  0  0  0  0  0  0  0  0
    3.2534   -1.2433   -2.0858 H   0  0  0  0  0  0  0  0  0  0  0  0
    3.4055    0.5458   -2.3081 H   0  0  0  0  0  0  0  0  0  0  0  0
    0.4893   -1.1888    1.0097 H   0  0  0  0  0  0  0  0  0  0  0  0
    1.1004   -2.0613   -0.4050 H   0  0  0  0  0  0  0  0  0  0  0  0
   -1.3646   -1.8429   -0.4529 H   0  0  0  0  0  0  0  0  0  0  0  0
   -0.6133   -1.0324   -1.8397 H   0  0  0  0  0  0  0  0  0  0  0  0
  1  2  1  0
  2  3  2  0
  3  4  1  0
  4  5  2  0
  5  6  1  0
  5  7  1  0
  7  8  2  0
  8  9  1  0
  9 10  1  0
 10 11  1  0
 11 12  1  0
 12 13  1  0
 13 14  2  0
 14 15  1  0
 15 16  2  0
 16 17  1  0
 17 18  2  0
 18 19  1  0
 12 20  1  0
 20 21  1  0
  8  2  1  0
 21  9  1  0
 18 13  1  0
  1 22  1  0
  1 23  1  0
  1 24  1  0
  3 25  1  0
  4 26  1  0
  7 27  1  0
 10 28  1  0
 10 29  1  0
 11 30  1  0
 11 31  1  0
 14 32  1  0
 15 33  1  0
 16 34  1  0
 17 35  1  0
 19 36  1  0
 19 37  1  0
 19 38  1  0
 20 39  1  0
 20 40  1  0
 21 41  1  0
 21 42  1  0
M  CHG  1  18   1
M  END
$$$$
