
     RDKit          3D

 58 61  0  0  0  0  0  0  0  0999 V2000
   -5.0017    4.1667   -0.8107 C   0  0  0  0  0  0  0  0  0  0  0  0
   -4.1391    4.4381    0.2868 O   0  0  0  0  0  0  0  0  0  0  0  0
   -3.4740    3.3728    0.8295 C   0  0  0  0  0  0  0  0  0  0  0  0
   -2.6647    3.6879    1.9234 C   0  0  0  0  0  0  0  0  0  0  0  0
   -1.9279    2.6974    2.5716 C   0  0  0  0  0  0  0  0  0  0  0  0
   -1.9975    1.3782    2.1268 C   0  0  0  0  0  0  0  0  0  0  0  0
   -2.8033    1.0423    1.0312 C   0  0  0  0  0  0  0  0  0  0  0  0
   -2.8588   -0.3466    0.5543 C   0  0  0  0  0  0  0  0  0  0  0  0
   -4.3544   -1.1749    0.6396 S   0  0  0  0  0  0  0  0  0  0  0  0
   -3.6956   -2.6220   -0.0058 C   0  0  0  0  0  0  0  0  0  0  0  0
   -4.3811   -3.8286   -0.2454 C   0  0  0  0  0  0  0  0  0  0  0  0
   -3.6854   -4.9165   -0.7848 C   0  0  0  0  0  0  0  0  0  0  0  0
   -2.3345   -4.8127   -1.0855 C   0  0  0  0  0  0  0  0  0  0  0  0
   -1.5494   -5.7998   -1.6158 O   0  0  0  0  0  0  0  0  0  0  0  0
   -2.1790   -7.0432   -1.8979 C   0  0  0  0  0  0  0  0  0  0  0  0
   -1.6653   -3.6073   -0.8418 C   0  0  0  0  0  0  0  0  0  0  0  0
   -2.3369   -2.4846   -0.2891 C   0  0  0  0  0  0  0  0  0  0  0  0
   -1.8569   -1.1601    0.0451 C   0  0  0  0  0  0  0  0  0  0  0  0
   -0.4850   -0.6860   -0.1165 C   0  0  0  0  0  0  0  0  0  0  0  0
   -0.1819    0.3205   -1.0373 C   0  0  0  0  0  0  0  0  0  0  0  0
    1.1351    0.7647   -1.1780 C   0  0  0  0  0  0  0  0  0  0  0  0
    2.1618    0.2102   -0.4093 C   0  0  0  0  0  0  0  0  0  0  0  0
    3.4000    0.7380   -0.6481 O   0  0  0  0  0  0  0  0  0  0  0  0
    4.4883    0.2288    0.1280 C   0  0  0  0  0  0  0  0  0  0  0  0
    5.7841    0.9654   -0.2634 C   0  0  0  0  0  0  0  0  0  0  0  0
    6.0246    2.2301    0.4676 N   0  0  0  0  0  0  0  0  0  0  0  0
    4.9789    3.2216    0.2025 C   0  0  0  0  0  0  0  0  0  0  0  0
    7.3317    2.7781    0.0957 C   0  0  0  0  0  0  0  0  0  0  0  0
    1.8612   -0.7998    0.5047 C   0  0  0  0  0  0  0  0  0  0  0  0
    0.5427   -1.2466    0.6502 C   0  0  0  0  0  0  0  0  0  0  0  0
   -3.5394    2.0505    0.3849 C   0  0  0  0  0  0  0  0  0  0  0  0
   -4.4395    3.7828   -1.6683 H   0  0  0  0  0  0  0  0  0  0  0  0
   -5.4653    5.1107   -1.1128 H   0  0  0  0  0  0  0  0  0  0  0  0
   -5.8039    3.4792   -0.5226 H   0  0  0  0  0  0  0  0  0  0  0  0
   -2.6078    4.7162    2.2721 H   0  0  0  0  0  0  0  0  0  0  0  0
   -1.2995    2.9542    3.4201 H   0  0  0  0  0  0  0  0  0  0  0  0
   -1.4183    0.6135    2.6392 H   0  0  0  0  0  0  0  0  0  0  0  0
   -5.4396   -3.9161   -0.0152 H   0  0  0  0  0  0  0  0  0  0  0  0
   -4.2406   -5.8328   -0.9576 H   0  0  0  0  0  0  0  0  0  0  0  0
   -2.9710   -6.9245   -2.6447 H   0  0  0  0  0  0  0  0  0  0  0  0
   -2.5632   -7.5072   -0.9834 H   0  0  0  0  0  0  0  0  0  0  0  0
   -1.4228   -7.7130   -2.3184 H   0  0  0  0  0  0  0  0  0  0  0  0
   -0.6079   -3.5328   -1.0868 H   0  0  0  0  0  0  0  0  0  0  0  0
   -0.9625    0.7672   -1.6480 H   0  0  0  0  0  0  0  0  0  0  0  0
    1.3623    1.5518   -1.8927 H   0  0  0  0  0  0  0  0  0  0  0  0
    4.6190   -0.8360   -0.1021 H   0  0  0  0  0  0  0  0  0  0  0  0
    4.2979    0.3473    1.2019 H   0  0  0  0  0  0  0  0  0  0  0  0
    5.7985    1.1411   -1.3469 H   0  0  0  0  0  0  0  0  0  0  0  0
    6.6138    0.2877   -0.0250 H   0  0  0  0  0  0  0  0  0  0  0  0
    4.8579    3.4201   -0.8684 H   0  0  0  0  0  0  0  0  0  0  0  0
    4.0172    2.9001    0.6140 H   0  0  0  0  0  0  0  0  0  0  0  0
    5.2131    4.1696    0.7008 H   0  0  0  0  0  0  0  0  0  0  0  0
    7.5462    3.6865    0.6698 H   0  0  0  0  0  0  0  0  0  0  0  0
    8.1302    2.0657    0.3316 H   0  0  0  0  0  0  0  0  0  0  0  0
    7.3900    3.0220   -0.9714 H   0  0  0  0  0  0  0  0  0  0  0  0
    2.6252   -1.2612    1.1210 H   0  0  0  0  0  0  0  0  0  0  0  0
    0.3243   -2.0320    1.3706 H   0  0  0  0  0  0  0  0  0  0  0  0
   -4.1502    1.7773   -0.4693 H   0  0  0  0  0  0  0  0  0  0  0  0
  1  2  1  0
  2  3  1  0
  3  4  2  0
  4  5  1  0
  5  6  2  0
  6  7  1  0
  7  8  1  0
  8  9  1  0
  9 10  1  0
 10 11  2  0
 11 12  1  0
 12 13  2  0
 13 14  1  0
 14 15  1  0
 13 16  1  0
 16 17  2  0
 17 18  1  0
 18 19  1  0
 19 20  2  0
 20 21  1  0
 21 22  2  0
 22 23  1  0
 23 24  1  0
 24 25  1  0
 25 26  1  0
 26 27  1  0
 26 28  1  0
 22 29  1  0
 29 30  2  0
  7 31  2  0
 31  3  1  0
 18  8  2  0
 30 19  1  0
 17 10  1  0
  1 32  1  0
  1 33  1  0
  1 34  1  0
  4 35  1  0
  5 36  1  0
  6 37  1  0
 11 38  1  0
 12 39  1  0
 15 40  1  0
 15 41  1  0
 15 42  1  0
 16 43  1  0
 20 44  1  0
 21 45  1  0
 24 46  1  0
 24 47  1  0
 25 48  1  0
 25 49  1  0
 27 50  1  0
 27 51  1  0
 27 52  1  0
 28 53  1  0
 28 54  1  0
 28 55  1  0
 29 56  1  0
 30 57  1  0
 31 58  1  0
M  END
$$$$
