
     RDKit          3D

 43 45  0  0  0  0  0  0  0  0999 V2000
    6.1247   -2.4103    1.2824 C   0  0  0  0  0  0  0  0  0  0  0  0
    5.4598   -1.1710    0.7607 C   0  0  0  0  0  0  0  0  0  0  0  0
    6.2232   -0.0517    0.4136 C   0  0  0  0  0  0  0  0  0  0  0  0
    5.6061    1.1152   -0.0509 C   0  0  0  0  0  0  0  0  0  0  0  0
    6.4265    2.3227   -0.3995 C   0  0  0  0  0  0  0  0  0  0  0  0
    4.2059    1.1692   -0.1318 C   0  0  0  0  0  0  0  0  0  0  0  0
    3.4256    0.0694    0.2278 C   0  0  0  0  0  0  0  0  0  0  0  0
    2.0157    0.0484    0.1652 N   0  0  0  0  0  0  0  0  0  0  0  0
    1.1732    1.0955   -0.1612 C   0  0  0  0  0  0  0  0  0  0  0  0
    1.4875    2.2564   -0.3901 O   0  0  0  0  0  0  0  0  0  0  0  0
   -0.2727    0.7394   -0.1921 C   0  0  0  0  0  0  0  0  0  0  0  0
   -1.2044    1.6649    0.2843 C   0  0  0  0  0  0  0  0  0  0  0  0
   -2.5723    1.3646    0.2697 C   0  0  0  0  0  0  0  0  0  0  0  0
   -3.0257    0.1434   -0.2334 C   0  0  0  0  0  0  0  0  0  0  0  0
   -4.3830   -0.2383   -0.2922 N   0  0  0  0  0  0  0  0  0  0  0  0
   -5.4881    0.4624    0.1777 C   0  0  0  0  0  0  0  0  0  0  0  0
   -5.4211    1.5393    0.7624 O   0  0  0  0  0  0  0  0  0  0  0  0
   -6.7620   -0.2042   -0.0723 C   0  0  0  0  0  0  0  0  0  0  0  0
   -7.1290   -1.3517   -0.7596 C   0  0  0  0  0  0  0  0  0  0  0  0
   -8.5368   -1.4743   -0.6431 C   0  0  0  0  0  0  0  0  0  0  0  0
   -8.9518   -0.3998    0.1032 C   0  0  0  0  0  0  0  0  0  0  0  0
   -7.8933    0.3713    0.4509 O   0  0  0  0  0  0  0  0  0  0  0  0
   -2.0863   -0.7717   -0.7316 C   0  0  0  0  0  0  0  0  0  0  0  0
   -0.7176   -0.4789   -0.7143 C   0  0  0  0  0  0  0  0  0  0  0  0
    4.0625   -1.0972    0.6727 C   0  0  0  0  0  0  0  0  0  0  0  0
    5.5466   -3.3029    1.0212 H   0  0  0  0  0  0  0  0  0  0  0  0
    7.1223   -2.5318    0.8473 H   0  0  0  0  0  0  0  0  0  0  0  0
    6.2180   -2.3546    2.3713 H   0  0  0  0  0  0  0  0  0  0  0  0
    7.3073   -0.0877    0.5035 H   0  0  0  0  0  0  0  0  0  0  0  0
    7.4241    2.0319   -0.7452 H   0  0  0  0  0  0  0  0  0  0  0  0
    6.5312    2.9692    0.4771 H   0  0  0  0  0  0  0  0  0  0  0  0
    5.9572    2.8930   -1.2080 H   0  0  0  0  0  0  0  0  0  0  0  0
    3.7472    2.0895   -0.4812 H   0  0  0  0  0  0  0  0  0  0  0  0
    1.5801   -0.8145    0.4613 H   0  0  0  0  0  0  0  0  0  0  0  0
   -0.8714    2.6268    0.6710 H   0  0  0  0  0  0  0  0  0  0  0  0
   -3.2534    2.1189    0.6523 H   0  0  0  0  0  0  0  0  0  0  0  0
   -4.5641   -1.1397   -0.7070 H   0  0  0  0  0  0  0  0  0  0  0  0
   -6.4759   -2.0268   -1.2929 H   0  0  0  0  0  0  0  0  0  0  0  0
   -9.1711   -2.2470   -1.0549 H   0  0  0  0  0  0  0  0  0  0  0  0
   -9.9148   -0.0557    0.4549 H   0  0  0  0  0  0  0  0  0  0  0  0
   -2.4051   -1.7239   -1.1488 H   0  0  0  0  0  0  0  0  0  0  0  0
   -0.0182   -1.1940   -1.1392 H   0  0  0  0  0  0  0  0  0  0  0  0
    3.4736   -1.9634    0.9639 H   0  0  0  0  0  0  0  0  0  0  0  0
  1  2  1  0
  2  3  2  0
  3  4  1  0
  4  5  1  0
  4  6  2  0
  6  7  1  0
  7  8  1  0
  8  9  1  0
  9 10  2  0
  9 11  1  0
 11 12  2  0
 12 13  1  0
 13 14  2  0
 14 15  1  0
 15 16  1  0
 16 17  2  0
 16 18  1  0
 18 19  2  0
 19 20  1  0
 20 21  2  0
 21 22  1  0
 14 23  1  0
 23 24  2  0
  7 25  2  0
 25  2  1  0
 24 11  1  0
 22 18  1  0
  1 26  1  0
  1 27  1  0
  1 28  1  0
  3 29  1  0
  5 30  1  0
  5 31  1  0
  5 32  1  0
  6 33  1  0
  8 34  1  0
 12 35  1  0
 13 36  1  0
 15 37  1  0
 19 38  1  0
 20 39  1  0
 21 40  1  0
 23 41  1  0
 24 42  1  0
 25 43  1  0
M  END
$$$$
