
     RDKit          3D

 35 36  0  0  0  0  0  0  0  0999 V2000
    3.6879   -1.7014    0.1023 C   0  0  0  0  0  0  0  0  0  0  0  0
    2.3436   -1.5098   -0.4396 N   0  0  0  0  0  0  0  0  0  0  0  0
    1.3661   -1.3026    0.6363 C   0  0  0  0  0  0  0  0  0  0  0  0
   -0.0885   -1.2936    0.1572 C   0  0  0  0  0  0  0  0  0  0  0  0
   -1.0525   -1.2114    1.3398 C   0  0  0  0  0  0  0  0  0  0  0  0
   -2.4055   -1.2293    0.8865 O   0  0  0  0  0  0  0  0  0  0  0  0
   -3.0569   -0.0485    0.6526 C   0  0  0  0  0  0  0  0  0  0  0  0
   -2.4377    1.2037    0.5833 C   0  0  0  0  0  0  0  0  0  0  0  0
   -3.1920    2.3538    0.3252 C   0  0  0  0  0  0  0  0  0  0  0  0
   -4.5678    2.2576    0.1310 C   0  0  0  0  0  0  0  0  0  0  0  0
   -5.4861    3.6772   -0.1847 Cl  0  0  0  0  0  0  0  0  0  0  0  0
   -5.2012    1.0217    0.1879 C   0  0  0  0  0  0  0  0  0  0  0  0
   -4.4463   -0.1256    0.4448 C   0  0  0  0  0  0  0  0  0  0  0  0
   -5.2814   -1.6404    0.5060 Cl  0  0  0  0  0  0  0  0  0  0  0  0
    2.3217   -0.5150   -1.5214 C   0  0  0  0  0  0  0  0  0  0  0  0
    2.6127    0.8912   -1.0958 C   0  0  0  0  0  0  0  0  0  0  0  0
    3.9985    1.4790   -1.1819 C   0  0  0  0  0  0  0  0  0  0  0  0
    3.0015    1.7600   -2.1725 O   0  0  0  0  0  0  0  0  0  0  0  0
    4.0394   -0.8292    0.6639 H   0  0  0  0  0  0  0  0  0  0  0  0
    4.4061   -1.9130   -0.6977 H   0  0  0  0  0  0  0  0  0  0  0  0
    3.7102   -2.5676    0.7734 H   0  0  0  0  0  0  0  0  0  0  0  0
    1.5805   -0.3796    1.1892 H   0  0  0  0  0  0  0  0  0  0  0  0
    1.4682   -2.1246    1.3574 H   0  0  0  0  0  0  0  0  0  0  0  0
   -0.2732   -0.4524   -0.5187 H   0  0  0  0  0  0  0  0  0  0  0  0
   -0.3065   -2.2003   -0.4213 H   0  0  0  0  0  0  0  0  0  0  0  0
   -0.8454   -0.3603    1.9989 H   0  0  0  0  0  0  0  0  0  0  0  0
   -0.9271   -2.1062    1.9612 H   0  0  0  0  0  0  0  0  0  0  0  0
   -1.3672    1.3238    0.7112 H   0  0  0  0  0  0  0  0  0  0  0  0
   -2.6971    3.3208    0.2722 H   0  0  0  0  0  0  0  0  0  0  0  0
   -6.2739    0.9480    0.0327 H   0  0  0  0  0  0  0  0  0  0  0  0
    1.3485   -0.5367   -2.0247 H   0  0  0  0  0  0  0  0  0  0  0  0
    3.0332   -0.8276   -2.2977 H   0  0  0  0  0  0  0  0  0  0  0  0
    1.9034    1.2944   -0.3881 H   0  0  0  0  0  0  0  0  0  0  0  0
    4.8238    0.8411   -1.4719 H   0  0  0  0  0  0  0  0  0  0  0  0
    4.2609    2.2751   -0.4968 H   0  0  0  0  0  0  0  0  0  0  0  0
  1  2  1  0
  2  3  1  0
  3  4  1  0
  4  5  1  0
  5  6  1  0
  6  7  1  0
  7  8  2  0
  8  9  1  0
  9 10  2  0
 10 11  1  0
 10 12  1  0
 12 13  2  0
 13 14  1  0
  2 15  1  0
 15 16  1  0
 16 17  1  0
 17 18  1  0
 13  7  1  0
 18 16  1  0
  1 19  1  0
  1 20  1  0
  1 21  1  0
  3 22  1  0
  3 23  1  0
  4 24  1  0
  4 25  1  0
  5 26  1  0
  5 27  1  0
  8 28  1  0
  9 29  1  0
 12 30  1  0
 15 31  1  0
 15 32  1  0
 16 33  1  0
 17 34  1  0
 17 35  1  0
M  END
$$$$
