
     RDKit          3D

 54 57  0  0  0  0  0  0  0  0999 V2000
   -4.1789    4.3621   -2.8611 C   0  0  0  0  0  0  0  0  0  0  0  0
   -3.6377    3.1501   -2.1636 C   0  0  0  0  0  0  0  0  0  0  0  0
   -3.6939    1.8927   -2.7647 C   0  0  0  0  0  0  0  0  0  0  0  0
   -3.1753    0.7431   -2.1322 C   0  0  0  0  0  0  0  0  0  0  0  0
   -3.4289   -0.5647   -2.8339 C   0  0  0  0  0  0  0  0  0  0  0  0
   -2.5076    0.8771   -0.8955 C   0  0  0  0  0  0  0  0  0  0  0  0
   -1.9028   -0.2037   -0.2043 N   0  0  0  0  0  0  0  0  0  0  0  0
   -1.2428   -1.2871   -0.7602 C   0  0  0  0  0  0  0  0  0  0  0  0
   -0.9119   -1.4179   -1.9351 O   0  0  0  0  0  0  0  0  0  0  0  0
   -0.8550   -2.3321    0.2872 C   0  0  0  0  0  0  0  0  0  0  0  0
    0.5349   -2.1828    0.7126 N   0  0  0  0  0  0  0  0  0  0  0  0
    0.7821   -1.2700    1.7317 C   0  0  0  0  0  0  0  0  0  0  0  0
   -0.1220   -0.5348    2.1450 O   0  0  0  0  0  0  0  0  0  0  0  0
    2.0639   -1.2430    2.2550 N   0  0  0  0  0  0  0  0  0  0  0  0
    2.3387   -0.3345    3.3596 C   0  0  0  0  0  0  0  0  0  0  0  0
    2.8942    0.9425    2.8304 C   0  0  0  0  0  0  0  0  0  0  0  0
    2.3312    2.0468    2.2246 C   0  0  0  0  0  0  0  0  0  0  0  0
    3.3938    2.9392    1.9463 C   0  0  0  0  0  0  0  0  0  0  0  0
    4.5361    2.3270    2.4041 C   0  0  0  0  0  0  0  0  0  0  0  0
    4.2420    1.1187    2.9470 O   0  0  0  0  0  0  0  0  0  0  0  0
    3.0980   -2.0740    1.8473 C   0  0  0  0  0  0  0  0  0  0  0  0
    4.1758   -2.1744    2.4284 O   0  0  0  0  0  0  0  0  0  0  0  0
    2.8541   -2.8928    0.6500 C   0  0  0  0  0  0  0  0  0  0  0  0
    3.9094   -3.6316    0.0926 C   0  0  0  0  0  0  0  0  0  0  0  0
    3.6932   -4.4082   -1.0413 C   0  0  0  0  0  0  0  0  0  0  0  0
    2.4275   -4.4415   -1.6158 C   0  0  0  0  0  0  0  0  0  0  0  0
    1.3765   -3.7081   -1.0522 C   0  0  0  0  0  0  0  0  0  0  0  0
    1.5747   -2.9288    0.0977 C   0  0  0  0  0  0  0  0  0  0  0  0
   -2.4848    2.1457   -0.2634 C   0  0  0  0  0  0  0  0  0  0  0  0
   -1.8514    2.3635    1.0857 C   0  0  0  0  0  0  0  0  0  0  0  0
   -3.0381    3.2650   -0.9110 C   0  0  0  0  0  0  0  0  0  0  0  0
   -4.9053    4.0848   -3.6320 H   0  0  0  0  0  0  0  0  0  0  0  0
   -4.6932    5.0181   -2.1509 H   0  0  0  0  0  0  0  0  0  0  0  0
   -3.3630    4.9170   -3.3342 H   0  0  0  0  0  0  0  0  0  0  0  0
   -4.1734    1.7927   -3.7379 H   0  0  0  0  0  0  0  0  0  0  0  0
   -2.6366   -0.7737   -3.5573 H   0  0  0  0  0  0  0  0  0  0  0  0
   -4.3782   -0.5286   -3.3823 H   0  0  0  0  0  0  0  0  0  0  0  0
   -3.5329   -1.3926   -2.1266 H   0  0  0  0  0  0  0  0  0  0  0  0
   -1.6358   -0.0293    0.7626 H   0  0  0  0  0  0  0  0  0  0  0  0
   -1.0586   -3.3345   -0.1017 H   0  0  0  0  0  0  0  0  0  0  0  0
   -1.5140   -2.2342    1.1600 H   0  0  0  0  0  0  0  0  0  0  0  0
    1.4228   -0.1292    3.9255 H   0  0  0  0  0  0  0  0  0  0  0  0
    3.0463   -0.7937    4.0597 H   0  0  0  0  0  0  0  0  0  0  0  0
    1.2827    2.1853    2.0086 H   0  0  0  0  0  0  0  0  0  0  0  0
    3.3368    3.9071    1.4692 H   0  0  0  0  0  0  0  0  0  0  0  0
    5.5813    2.6024    2.4182 H   0  0  0  0  0  0  0  0  0  0  0  0
    4.9013   -3.5965    0.5395 H   0  0  0  0  0  0  0  0  0  0  0  0
    4.5104   -4.9755   -1.4797 H   0  0  0  0  0  0  0  0  0  0  0  0
    2.2542   -5.0308   -2.5134 H   0  0  0  0  0  0  0  0  0  0  0  0
    0.4200   -3.7463   -1.5660 H   0  0  0  0  0  0  0  0  0  0  0  0
   -0.7917    2.1001    1.0461 H   0  0  0  0  0  0  0  0  0  0  0  0
   -2.3569    1.7609    1.8470 H   0  0  0  0  0  0  0  0  0  0  0  0
   -1.9173    3.4099    1.4029 H   0  0  0  0  0  0  0  0  0  0  0  0
   -2.9939    4.2428   -0.4344 H   0  0  0  0  0  0  0  0  0  0  0  0
  1  2  1  0
  2  3  2  0
  3  4  1  0
  4  5  1  0
  4  6  2  0
  6  7  1  0
  7  8  1  0
  8  9  2  0
  8 10  1  0
 10 11  1  0
 11 12  1  0
 12 13  2  0
 12 14  1  0
 14 15  1  0
 15 16  1  0
 16 17  2  0
 17 18  1  0
 18 19  2  0
 19 20  1  0
 14 21  1  0
 21 22  2  0
 21 23  1  0
 23 24  2  0
 24 25  1  0
 25 26  2  0
 26 27  1  0
 27 28  2  0
  6 29  1  0
 29 30  1  0
 29 31  2  0
 31  2  1  0
 28 11  1  0
 20 16  1  0
 28 23  1  0
  1 32  1  0
  1 33  1  0
  1 34  1  0
  3 35  1  0
  5 36  1  0
  5 37  1  0
  5 38  1  0
  7 39  1  0
 10 40  1  0
 10 41  1  0
 15 42  1  0
 15 43  1  0
 17 44  1  0
 18 45  1  0
 19 46  1  0
 24 47  1  0
 25 48  1  0
 26 49  1  0
 27 50  1  0
 30 51  1  0
 30 52  1  0
 30 53  1  0
 31 54  1  0
M  END
$$$$
