
     RDKit          3D

 38 40  0  0  0  0  0  0  0  0999 V2000
    0.2142    0.2980   -3.7274 S   0  0  0  0  0  0  0  0  0  0  0  0
    0.1048   -0.1040   -2.1054 C   0  0  0  0  0  0  0  0  0  0  0  0
    1.2176   -0.6429   -1.5238 N   0  0  0  0  0  0  0  0  0  0  0  0
    1.5942   -0.4877   -0.1272 C   0  0  0  0  0  0  0  0  0  0  0  0
    3.0247   -0.0254   -0.0117 C   0  0  0  0  0  0  0  0  0  0  0  0
    4.0451   -0.9266    0.3216 C   0  0  0  0  0  0  0  0  0  0  0  0
    5.3708   -0.4959    0.4015 C   0  0  0  0  0  0  0  0  0  0  0  0
    5.6888    0.8371    0.1443 C   0  0  0  0  0  0  0  0  0  0  0  0
    4.6832    1.7402   -0.1966 C   0  0  0  0  0  0  0  0  0  0  0  0
    3.3575    1.3116   -0.2766 C   0  0  0  0  0  0  0  0  0  0  0  0
   -1.0070    0.0677   -1.2950 N   0  0  0  0  0  0  0  0  0  0  0  0
   -2.0429    1.0499   -1.6322 C   0  0  0  0  0  0  0  0  0  0  0  0
   -2.7412    1.5594   -0.3713 C   0  0  0  0  0  0  0  0  0  0  0  0
   -3.1676    0.4388    0.5422 C   0  0  0  0  0  0  0  0  0  0  0  0
   -4.1260    0.6748    1.5376 C   0  0  0  0  0  0  0  0  0  0  0  0
   -4.5038   -0.3462    2.4089 C   0  0  0  0  0  0  0  0  0  0  0  0
   -3.9244   -1.6071    2.2978 C   0  0  0  0  0  0  0  0  0  0  0  0
   -2.9600   -1.8477    1.3187 C   0  0  0  0  0  0  0  0  0  0  0  0
   -2.5632   -0.8272    0.4408 C   0  0  0  0  0  0  0  0  0  0  0  0
   -1.5398   -1.1263   -0.6293 C   0  0  0  0  0  0  0  0  0  0  0  0
    1.9944   -0.7373   -2.1691 H   0  0  0  0  0  0  0  0  0  0  0  0
    1.4732   -1.4634    0.3557 H   0  0  0  0  0  0  0  0  0  0  0  0
    0.9352    0.2241    0.3818 H   0  0  0  0  0  0  0  0  0  0  0  0
    3.8153   -1.9716    0.5178 H   0  0  0  0  0  0  0  0  0  0  0  0
    6.1570   -1.2025    0.6585 H   0  0  0  0  0  0  0  0  0  0  0  0
    6.7219    1.1706    0.2030 H   0  0  0  0  0  0  0  0  0  0  0  0
    4.9324    2.7780   -0.4043 H   0  0  0  0  0  0  0  0  0  0  0  0
    2.5819    2.0226   -0.5547 H   0  0  0  0  0  0  0  0  0  0  0  0
   -2.7583    0.5718   -2.3139 H   0  0  0  0  0  0  0  0  0  0  0  0
   -1.6003    1.9045   -2.1549 H   0  0  0  0  0  0  0  0  0  0  0  0
   -3.6087    2.1632   -0.6628 H   0  0  0  0  0  0  0  0  0  0  0  0
   -2.0531    2.2053    0.1890 H   0  0  0  0  0  0  0  0  0  0  0  0
   -4.5833    1.6567    1.6379 H   0  0  0  0  0  0  0  0  0  0  0  0
   -5.2516   -0.1572    3.1749 H   0  0  0  0  0  0  0  0  0  0  0  0
   -4.2223   -2.4033    2.9752 H   0  0  0  0  0  0  0  0  0  0  0  0
   -2.5175   -2.8387    1.2437 H   0  0  0  0  0  0  0  0  0  0  0  0
   -2.0141   -1.7419   -1.4058 H   0  0  0  0  0  0  0  0  0  0  0  0
   -0.7268   -1.7215   -0.2055 H   0  0  0  0  0  0  0  0  0  0  0  0
  1  2  2  0
  2  3  1  0
  3  4  1  0
  4  5  1  0
  5  6  2  0
  6  7  1  0
  7  8  2  0
  8  9  1  0
  9 10  2  0
  2 11  1  0
 11 12  1  0
 12 13  1  0
 13 14  1  0
 14 15  2  0
 15 16  1  0
 16 17  2  0
 17 18  1  0
 18 19  2  0
 19 20  1  0
 10  5  1  0
 20 11  1  0
 19 14  1  0
  3 21  1  0
  4 22  1  0
  4 23  1  0
  6 24  1  0
  7 25  1  0
  8 26  1  0
  9 27  1  0
 10 28  1  0
 12 29  1  0
 12 30  1  0
 13 31  1  0
 13 32  1  0
 15 33  1  0
 16 34  1  0
 17 35  1  0
 18 36  1  0
 20 37  1  0
 20 38  1  0
M  END
$$$$
