
     RDKit          3D

 46 48  0  0  0  0  0  0  0  0999 V2000
    2.0322    1.9146    3.1891 O   0  0  0  0  0  0  0  0  0  0  0  0
    1.3909    1.7701    2.1473 C   0  0  0  0  0  0  0  0  0  0  0  0
   -0.0945    1.4264    2.1287 C   0  0  0  0  0  0  0  0  0  0  0  0
   -0.4743    0.9262    0.8509 O   0  0  0  0  0  0  0  0  0  0  0  0
   -1.7797    0.5545    0.6926 C   0  0  0  0  0  0  0  0  0  0  0  0
   -2.7861    0.6577    1.6503 C   0  0  0  0  0  0  0  0  0  0  0  0
   -4.0889    0.2379    1.3494 C   0  0  0  0  0  0  0  0  0  0  0  0
   -4.4134   -0.2931    0.0908 C   0  0  0  0  0  0  0  0  0  0  0  0
   -5.7834   -0.7348   -0.2185 C   0  0  0  0  0  0  0  0  0  0  0  0
   -6.0333   -2.0250   -0.7158 C   0  0  0  0  0  0  0  0  0  0  0  0
   -7.3333   -2.4457   -1.0094 C   0  0  0  0  0  0  0  0  0  0  0  0
   -8.4071   -1.5816   -0.8115 C   0  0  0  0  0  0  0  0  0  0  0  0
   -8.1822   -0.2983   -0.3200 C   0  0  0  0  0  0  0  0  0  0  0  0
   -6.8815    0.1204   -0.0260 C   0  0  0  0  0  0  0  0  0  0  0  0
   -3.3882   -0.3899   -0.8612 C   0  0  0  0  0  0  0  0  0  0  0  0
   -2.0879    0.0299   -0.5629 C   0  0  0  0  0  0  0  0  0  0  0  0
    1.9544    1.9548    0.8977 N   0  0  0  0  0  0  0  0  0  0  0  0
    3.3713    1.9878    0.8422 N   0  0  0  0  0  0  0  0  0  0  0  0
    3.9574    1.0914   -0.0448 C   0  0  0  0  0  0  0  0  0  0  0  0
    3.2951    0.4583   -0.8586 O   0  0  0  0  0  0  0  0  0  0  0  0
    5.3301    1.0913    0.0924 N   0  0  0  0  0  0  0  0  0  0  0  0
    6.2188    0.1980   -0.5425 C   0  0  0  0  0  0  0  0  0  0  0  0
    7.5310    0.6438   -0.7569 C   0  0  0  0  0  0  0  0  0  0  0  0
    8.4647   -0.1864   -1.3832 C   0  0  0  0  0  0  0  0  0  0  0  0
    8.0928   -1.4665   -1.7779 C   0  0  0  0  0  0  0  0  0  0  0  0
    8.9931   -2.2587   -2.3737 F   0  0  0  0  0  0  0  0  0  0  0  0
    6.8106   -1.9400   -1.5467 C   0  0  0  0  0  0  0  0  0  0  0  0
    5.8824   -1.1106   -0.9230 C   0  0  0  0  0  0  0  0  0  0  0  0
    4.6877   -1.6389   -0.6246 F   0  0  0  0  0  0  0  0  0  0  0  0
   -0.2594    0.6614    2.8960 H   0  0  0  0  0  0  0  0  0  0  0  0
   -0.6425    2.3462    2.3619 H   0  0  0  0  0  0  0  0  0  0  0  0
   -2.6003    1.0557    2.6422 H   0  0  0  0  0  0  0  0  0  0  0  0
   -4.8553    0.3171    2.1187 H   0  0  0  0  0  0  0  0  0  0  0  0
   -5.2102   -2.7205   -0.8675 H   0  0  0  0  0  0  0  0  0  0  0  0
   -7.5050   -3.4490   -1.3903 H   0  0  0  0  0  0  0  0  0  0  0  0
   -9.4182   -1.9079   -1.0403 H   0  0  0  0  0  0  0  0  0  0  0  0
   -9.0175    0.3800   -0.1671 H   0  0  0  0  0  0  0  0  0  0  0  0
   -6.7276    1.1316    0.3455 H   0  0  0  0  0  0  0  0  0  0  0  0
   -3.5968   -0.7852   -1.8533 H   0  0  0  0  0  0  0  0  0  0  0  0
   -1.3117   -0.0557   -1.3202 H   0  0  0  0  0  0  0  0  0  0  0  0
    1.5055    1.4740    0.1114 H   0  0  0  0  0  0  0  0  0  0  0  0
    3.7987    2.0359    1.7670 H   0  0  0  0  0  0  0  0  0  0  0  0
    5.7093    1.9716    0.4121 H   0  0  0  0  0  0  0  0  0  0  0  0
    7.8378    1.6435   -0.4598 H   0  0  0  0  0  0  0  0  0  0  0  0
    9.4786    0.1571   -1.5662 H   0  0  0  0  0  0  0  0  0  0  0  0
    6.5358   -2.9491   -1.8307 H   0  0  0  0  0  0  0  0  0  0  0  0
  1  2  2  0
  2  3  1  0
  3  4  1  0
  4  5  1  0
  5  6  2  0
  6  7  1  0
  7  8  2  0
  8  9  1  0
  9 10  2  0
 10 11  1  0
 11 12  2  0
 12 13  1  0
 13 14  2  0
  8 15  1  0
 15 16  2  0
  2 17  1  0
 17 18  1  0
 18 19  1  0
 19 20  2  0
 19 21  1  0
 21 22  1  0
 22 23  2  0
 23 24  1  0
 24 25  2  0
 25 26  1  0
 25 27  1  0
 27 28  2  0
 28 29  1  0
 16  5  1  0
 28 22  1  0
 14  9  1  0
  3 30  1  0
  3 31  1  0
  6 32  1  0
  7 33  1  0
 10 34  1  0
 11 35  1  0
 12 36  1  0
 13 37  1  0
 14 38  1  0
 15 39  1  0
 16 40  1  0
 17 41  1  0
 18 42  1  0
 21 43  1  0
 23 44  1  0
 24 45  1  0
 27 46  1  0
M  END
$$$$
