
     RDKit          3D

 40 42  0  0  0  0  0  0  0  0999 V2000
   -2.1979    0.0702   -2.7031 O   0  0  0  0  0  0  0  0  0  0  0  0
   -1.9025   -0.0241   -1.5178 C   0  0  0  0  0  0  0  0  0  0  0  0
   -2.7795   -0.1145   -0.4543 N   0  0  0  0  0  0  0  0  0  0  0  0
   -4.1974   -0.1797   -0.4822 C   0  0  0  0  0  0  0  0  0  0  0  0
   -4.9176   -0.2176   -1.6827 C   0  0  0  0  0  0  0  0  0  0  0  0
   -6.3149   -0.2801   -1.6847 C   0  0  0  0  0  0  0  0  0  0  0  0
   -7.0181   -0.3087   -0.4862 C   0  0  0  0  0  0  0  0  0  0  0  0
   -6.3241   -0.2774    0.7214 C   0  0  0  0  0  0  0  0  0  0  0  0
   -4.9188   -0.2148    0.7356 C   0  0  0  0  0  0  0  0  0  0  0  0
   -4.1989   -0.1939    2.0395 C   0  0  0  0  0  0  0  0  0  0  0  0
   -2.9868   -0.1976    2.1810 O   0  0  0  0  0  0  0  0  0  0  0  0
   -5.0186   -0.1665    3.1055 O   0  0  0  0  0  0  0  0  0  0  0  0
   -0.4558   -0.0112   -1.1469 C   0  0  0  0  0  0  0  0  0  0  0  0
    0.0378   -0.7025   -0.0358 C   0  0  0  0  0  0  0  0  0  0  0  0
    1.4050   -0.6612    0.2646 C   0  0  0  0  0  0  0  0  0  0  0  0
    2.2992    0.0613   -0.5382 C   0  0  0  0  0  0  0  0  0  0  0  0
    3.6577    0.0453   -0.1556 N   0  0  0  0  0  0  0  0  0  0  0  0
    4.7231    0.6987   -0.7636 C   0  0  0  0  0  0  0  0  0  0  0  0
    4.6156    1.4235   -1.7477 O   0  0  0  0  0  0  0  0  0  0  0  0
    6.0113    0.4572   -0.1222 C   0  0  0  0  0  0  0  0  0  0  0  0
    6.4240   -0.3298    0.9425 C   0  0  0  0  0  0  0  0  0  0  0  0
    7.8222   -0.1362    1.0842 C   0  0  0  0  0  0  0  0  0  0  0  0
    8.1867    0.7533    0.1026 C   0  0  0  0  0  0  0  0  0  0  0  0
    9.9511    1.3938   -0.2009 Br  0  0  0  0  0  0  0  0  0  0  0  0
    7.1037    1.1157   -0.6292 O   0  0  0  0  0  0  0  0  0  0  0  0
    1.8027    0.7345   -1.6553 C   0  0  0  0  0  0  0  0  0  0  0  0
    0.4360    0.6945   -1.9609 C   0  0  0  0  0  0  0  0  0  0  0  0
   -2.3766   -0.0723    0.4817 H   0  0  0  0  0  0  0  0  0  0  0  0
   -4.4195   -0.2008   -2.6476 H   0  0  0  0  0  0  0  0  0  0  0  0
   -6.8493   -0.3061   -2.6319 H   0  0  0  0  0  0  0  0  0  0  0  0
   -8.1043   -0.3567   -0.4920 H   0  0  0  0  0  0  0  0  0  0  0  0
   -6.8910   -0.3041    1.6492 H   0  0  0  0  0  0  0  0  0  0  0  0
   -4.4200   -0.1447    3.8811 H   0  0  0  0  0  0  0  0  0  0  0  0
   -0.6168   -1.2973    0.5960 H   0  0  0  0  0  0  0  0  0  0  0  0
    1.7561   -1.2096    1.1355 H   0  0  0  0  0  0  0  0  0  0  0  0
    3.8680   -0.4971    0.6683 H   0  0  0  0  0  0  0  0  0  0  0  0
    5.8081   -0.9748    1.5521 H   0  0  0  0  0  0  0  0  0  0  0  0
    8.4807   -0.5911    1.8110 H   0  0  0  0  0  0  0  0  0  0  0  0
    2.4469    1.3002   -2.3216 H   0  0  0  0  0  0  0  0  0  0  0  0
    0.0724    1.2225   -2.8412 H   0  0  0  0  0  0  0  0  0  0  0  0
  1  2  2  0
  2  3  1  0
  3  4  1  0
  4  5  2  0
  5  6  1  0
  6  7  2  0
  7  8  1  0
  8  9  2  0
  9 10  1  0
 10 11  2  0
 10 12  1  0
  2 13  1  0
 13 14  2  0
 14 15  1  0
 15 16  2  0
 16 17  1  0
 17 18  1  0
 18 19  2  0
 18 20  1  0
 20 21  2  0
 21 22  1  0
 22 23  2  0
 23 24  1  0
 23 25  1  0
 16 26  1  0
 26 27  2  0
  9  4  1  0
 27 13  1  0
 25 20  1  0
  3 28  1  0
  5 29  1  0
  6 30  1  0
  7 31  1  0
  8 32  1  0
 12 33  1  0
 14 34  1  0
 15 35  1  0
 17 36  1  0
 21 37  1  0
 22 38  1  0
 26 39  1  0
 27 40  1  0
M  END
$$$$
