
     RDKit          3D

 36 37  0  0  0  0  0  0  0  0999 V2000
   -3.5937   -2.0999    1.4829 C   0  0  0  0  0  0  0  0  0  0  0  0
   -3.7509   -1.8057    0.0030 C   0  0  0  0  0  0  0  0  0  0  0  0
   -2.6939   -0.9416   -0.4452 O   0  0  0  0  0  0  0  0  0  0  0  0
   -2.9081    0.3885   -0.2716 C   0  0  0  0  0  0  0  0  0  0  0  0
   -3.9300    0.8926    0.1680 O   0  0  0  0  0  0  0  0  0  0  0  0
   -1.7452    1.1869   -0.7474 C   0  0  0  0  0  0  0  0  0  0  0  0
   -1.9828    2.5505   -0.9946 C   0  0  0  0  0  0  0  0  0  0  0  0
   -0.9579    3.3838   -1.4462 C   0  0  0  0  0  0  0  0  0  0  0  0
    0.3171    2.8659   -1.6526 C   0  0  0  0  0  0  0  0  0  0  0  0
    0.5702    1.5168   -1.4025 C   0  0  0  0  0  0  0  0  0  0  0  0
   -0.4528    0.6707   -0.9556 C   0  0  0  0  0  0  0  0  0  0  0  0
   -0.0921   -0.6801   -0.6415 N   0  0  0  0  0  0  0  0  0  0  0  0
    0.4920   -0.9705    0.9262 S   0  0  0  0  0  6  0  0  0  0  0  0
    0.3162   -2.3826    1.1877 O   0  0  0  0  0  0  0  0  0  0  0  0
   -0.0742    0.0204    1.8183 O   0  0  0  0  0  0  0  0  0  0  0  0
    2.2179   -0.6658    0.7778 C   0  0  0  0  0  0  0  0  0  0  0  0
    2.8228    0.3561    1.5173 C   0  0  0  0  0  0  0  0  0  0  0  0
    4.1950    0.5782    1.3873 C   0  0  0  0  0  0  0  0  0  0  0  0
    4.9545   -0.2174    0.5269 C   0  0  0  0  0  0  0  0  0  0  0  0
    4.3428   -1.2365   -0.2051 C   0  0  0  0  0  0  0  0  0  0  0  0
    2.9742   -1.4581   -0.0754 C   0  0  0  0  0  0  0  0  0  0  0  0
    2.4127   -2.4318   -0.8040 F   0  0  0  0  0  0  0  0  0  0  0  0
   -3.6635   -1.1828    2.0763 H   0  0  0  0  0  0  0  0  0  0  0  0
   -4.3648   -2.7964    1.8237 H   0  0  0  0  0  0  0  0  0  0  0  0
   -2.6104   -2.5360    1.6859 H   0  0  0  0  0  0  0  0  0  0  0  0
   -4.7355   -1.3794   -0.2206 H   0  0  0  0  0  0  0  0  0  0  0  0
   -3.6658   -2.7359   -0.5683 H   0  0  0  0  0  0  0  0  0  0  0  0
   -2.9743    2.9716   -0.8321 H   0  0  0  0  0  0  0  0  0  0  0  0
   -1.1571    4.4367   -1.6330 H   0  0  0  0  0  0  0  0  0  0  0  0
    1.1173    3.5133   -2.0038 H   0  0  0  0  0  0  0  0  0  0  0  0
    1.5717    1.1287   -1.5705 H   0  0  0  0  0  0  0  0  0  0  0  0
   -0.8128   -1.3808   -0.8453 H   0  0  0  0  0  0  0  0  0  0  0  0
    2.2381    0.9776    2.1928 H   0  0  0  0  0  0  0  0  0  0  0  0
    4.6738    1.3695    1.9605 H   0  0  0  0  0  0  0  0  0  0  0  0
    6.0241   -0.0452    0.4293 H   0  0  0  0  0  0  0  0  0  0  0  0
    4.9252   -1.8612   -0.8762 H   0  0  0  0  0  0  0  0  0  0  0  0
  1  2  1  0
  2  3  1  0
  3  4  1  0
  4  5  2  0
  4  6  1  0
  6  7  2  0
  7  8  1  0
  8  9  2  0
  9 10  1  0
 10 11  2  0
 11 12  1  0
 12 13  1  0
 13 14  2  0
 13 15  2  0
 13 16  1  0
 16 17  2  0
 17 18  1  0
 18 19  2  0
 19 20  1  0
 20 21  2  0
 21 22  1  0
 11  6  1  0
 21 16  1  0
  1 23  1  0
  1 24  1  0
  1 25  1  0
  2 26  1  0
  2 27  1  0
  7 28  1  0
  8 29  1  0
  9 30  1  0
 10 31  1  0
 12 32  1  0
 17 33  1  0
 18 34  1  0
 19 35  1  0
 20 36  1  0
M  END
$$$$
