
     RDKit          3D

 68 74  0  0  0  0  0  0  0  0999 V2000
   -4.6384   -4.3684   -2.2041 C   0  0  0  0  0  0  0  0  0  0  0  0
   -3.7187   -3.6093   -1.2945 C   0  0  0  0  0  0  0  0  0  0  0  0
   -3.5391   -3.9859    0.0494 C   0  0  0  0  0  0  0  0  0  0  0  0
   -4.3750   -5.3437    0.7204 Cl  0  0  0  0  0  0  0  0  0  0  0  0
   -2.6821   -3.2704    0.9072 C   0  0  0  0  0  0  0  0  0  0  0  0
   -1.9722   -2.1606    0.4481 C   0  0  0  0  0  0  0  0  0  0  0  0
   -2.1283   -1.7835   -0.8763 C   0  0  0  0  0  0  0  0  0  0  0  0
   -2.9987   -2.4977   -1.7169 C   0  0  0  0  0  0  0  0  0  0  0  0
   -3.0238   -1.9044   -2.9764 N   0  0  0  0  0  0  0  0  0  0  0  0
   -2.1923   -0.7845   -3.0466 C   0  0  0  0  0  0  0  0  0  0  0  0
   -2.0706   -0.0865   -4.0413 O   0  0  0  0  0  0  0  0  0  0  0  0
   -1.5199   -0.6440   -1.6555 C   0  0  1  0  0  0  0  0  0  0  0  0
   -1.8556    0.6091   -0.9420 C   0  0  0  0  0  0  0  0  0  0  0  0
   -0.6885    1.2604   -0.5309 C   0  0  0  0  0  0  0  0  0  0  0  0
   -1.0285    2.3743    0.1839 C   0  0  0  0  0  0  0  0  0  0  0  0
   -0.2210    3.1738    0.8789 O   0  0  0  0  0  0  0  0  0  0  0  0
   -2.4324    2.4912    0.1248 N   0  0  0  0  0  0  0  0  0  0  0  0
   -3.2017    3.5857    0.6312 C   0  0  0  0  0  0  0  0  0  0  0  0
   -2.6849    4.8894    0.5846 C   0  0  0  0  0  0  0  0  0  0  0  0
   -3.4253    5.9596    1.0919 C   0  0  0  0  0  0  0  0  0  0  0  0
   -4.6846    5.7374    1.6456 C   0  0  0  0  0  0  0  0  0  0  0  0
   -5.2114    4.4480    1.6780 C   0  0  0  0  0  0  0  0  0  0  0  0
   -4.4773    3.3743    1.1680 C   0  0  0  0  0  0  0  0  0  0  0  0
   -2.9362    1.3451   -0.5222 C   0  0  0  0  0  0  0  0  0  0  0  0
   -4.2386    1.1354   -0.6987 O   0  0  0  0  0  0  0  0  0  0  0  0
    0.5332    0.5105   -0.9094 C   0  0  1  0  0  0  0  0  0  0  0  0
    1.3197    0.0034    0.3192 C   0  0  0  0  0  0  0  0  0  0  0  0
    2.1249   -1.1936    0.0540 N   0  0  0  0  0  0  0  0  0  0  0  0
    3.2169   -1.5274    0.8390 C   0  0  0  0  0  0  0  0  0  0  0  0
    3.7555   -2.6285    0.8189 O   0  0  0  0  0  0  0  0  0  0  0  0
    3.6133   -0.5023    1.6365 O   0  0  0  0  0  0  0  0  0  0  0  0
    4.7634   -0.7531    2.4515 C   0  0  0  0  0  0  0  0  0  0  0  0
    6.0083   -0.2797    1.7465 C   0  0  0  0  0  0  0  0  0  0  0  0
    6.3017    1.0895    1.6603 C   0  0  0  0  0  0  0  0  0  0  0  0
    7.4501    1.5265    0.9983 C   0  0  0  0  0  0  0  0  0  0  0  0
    8.3114    0.6009    0.4113 C   0  0  0  0  0  0  0  0  0  0  0  0
    8.0219   -0.7612    0.4783 C   0  0  0  0  0  0  0  0  0  0  0  0
    6.8733   -1.2002    1.1389 C   0  0  0  0  0  0  0  0  0  0  0  0
    1.4652   -2.2589   -0.6937 C   0  0  0  0  0  0  0  0  0  0  0  0
    0.7626   -1.7457   -1.9585 C   0  0  0  0  0  0  0  0  0  0  0  0
   -0.0478   -0.5591   -1.7701 N   0  0  0  0  0  0  0  0  0  0  0  0
   -5.6624   -4.3491   -1.8146 H   0  0  0  0  0  0  0  0  0  0  0  0
   -4.3049   -5.4076   -2.2995 H   0  0  0  0  0  0  0  0  0  0  0  0
   -4.6709   -3.9492   -3.2133 H   0  0  0  0  0  0  0  0  0  0  0  0
   -2.5720   -3.5785    1.9454 H   0  0  0  0  0  0  0  0  0  0  0  0
   -1.3265   -1.6079    1.1230 H   0  0  0  0  0  0  0  0  0  0  0  0
   -3.5622   -2.2092   -3.7740 H   0  0  0  0  0  0  0  0  0  0  0  0
   -0.7524    3.6753    1.5232 H   0  0  0  0  0  0  0  0  0  0  0  0
   -1.7317    5.1047    0.1051 H   0  0  0  0  0  0  0  0  0  0  0  0
   -3.0257    6.9694    1.0410 H   0  0  0  0  0  0  0  0  0  0  0  0
   -5.2613    6.5702    2.0394 H   0  0  0  0  0  0  0  0  0  0  0  0
   -6.1966    4.2742    2.1031 H   0  0  0  0  0  0  0  0  0  0  0  0
   -4.9101    2.3795    1.2299 H   0  0  0  0  0  0  0  0  0  0  0  0
   -4.3476    0.3665   -1.2849 H   0  0  0  0  0  0  0  0  0  0  0  0
    1.1887    1.1276   -1.5351 H   0  0  0  0  0  0  0  0  0  0  0  0
    1.9542    0.8158    0.6919 H   0  0  0  0  0  0  0  0  0  0  0  0
    0.6438   -0.2620    1.1421 H   0  0  0  0  0  0  0  0  0  0  0  0
    4.8397   -1.8040    2.7561 H   0  0  0  0  0  0  0  0  0  0  0  0
    4.6367   -0.1842    3.3802 H   0  0  0  0  0  0  0  0  0  0  0  0
    5.6314    1.8227    2.1046 H   0  0  0  0  0  0  0  0  0  0  0  0
    7.6703    2.5896    0.9358 H   0  0  0  0  0  0  0  0  0  0  0  0
    9.2046    0.9414   -0.1058 H   0  0  0  0  0  0  0  0  0  0  0  0
    8.6880   -1.4835    0.0128 H   0  0  0  0  0  0  0  0  0  0  0  0
    6.6511   -2.2661    1.1695 H   0  0  0  0  0  0  0  0  0  0  0  0
    2.1965   -3.0240   -0.9777 H   0  0  0  0  0  0  0  0  0  0  0  0
    0.7510   -2.7370   -0.0152 H   0  0  0  0  0  0  0  0  0  0  0  0
    1.5447   -1.4830   -2.6830 H   0  0  0  0  0  0  0  0  0  0  0  0
    0.1954   -2.5575   -2.4277 H   0  0  0  0  0  0  0  0  0  0  0  0
  1  2  1  0
  2  3  2  0
  3  4  1  0
  3  5  1  0
  5  6  2  0
  6  7  1  0
  7  8  2  0
  8  9  1  0
  9 10  1  0
 10 11  2  0
 10 12  1  0
 12 13  1  0
 13 14  1  0
 14 15  2  0
 15 16  1  0
 15 17  1  0
 17 18  1  0
 18 19  2  0
 19 20  1  0
 20 21  2  0
 21 22  1  0
 22 23  2  0
 17 24  1  0
 24 25  1  0
 14 26  1  0
 26 27  1  0
 27 28  1  0
 28 29  1  0
 29 30  2  0
 29 31  1  0
 31 32  1  0
 32 33  1  0
 33 34  2  0
 34 35  1  0
 35 36  2  0
 36 37  1  0
 37 38  2  0
 28 39  1  0
 39 40  1  0
 40 41  1  0
  8  2  1  0
 12 41  1  6
 12  7  1  0
 24 13  2  0
 41 26  1  0
 23 18  1  0
 38 33  1  0
  1 42  1  0
  1 43  1  0
  1 44  1  0
  5 45  1  0
  6 46  1  0
  9 47  1  0
 16 48  1  0
 19 49  1  0
 20 50  1  0
 21 51  1  0
 22 52  1  0
 23 53  1  0
 25 54  1  0
 26 55  1  6
 27 56  1  0
 27 57  1  0
 32 58  1  0
 32 59  1  0
 34 60  1  0
 35 61  1  0
 36 62  1  0
 37 63  1  0
 38 64  1  0
 39 65  1  0
 39 66  1  0
 40 67  1  0
 40 68  1  0
M  END
$$$$
