
     RDKit          3D

 44 46  0  0  0  0  0  0  0  0999 V2000
    5.3450    0.9992   -3.2590 C   0  0  0  0  0  0  0  0  0  0  0  0
    5.3626   -0.1938   -2.4823 O   0  0  0  0  0  0  0  0  0  0  0  0
    4.2098   -0.5062   -1.8082 C   0  0  0  0  0  0  0  0  0  0  0  0
    3.0393    0.2539   -1.7774 C   0  0  0  0  0  0  0  0  0  0  0  0
    1.9314   -0.1879   -1.0360 C   0  0  0  0  0  0  0  0  0  0  0  0
    0.7058    0.6168   -1.0250 C   0  0  0  0  0  0  0  0  0  0  0  0
    0.2085    1.2668    0.0352 C   0  0  0  0  0  0  0  0  0  0  0  0
    0.8577    1.3608    1.6301 S   0  0  0  0  0  0  0  0  0  0  0  0
   -0.4877    2.3271    2.2357 C   0  0  0  0  0  0  0  0  0  0  0  0
   -0.5754    2.8896    3.7982 S   0  0  0  0  0  0  0  0  0  0  0  0
   -1.3875    2.5101    1.2069 N   0  0  0  0  0  0  0  0  0  0  0  0
   -2.6963    3.2478    1.3660 N   0  0  0  0  0  0  0  0  0  0  0  0
   -4.0570    2.3330    1.8532 S   0  0  0  0  0  6  0  0  0  0  0  0
   -4.1990    2.4615    3.2860 O   0  0  0  0  0  0  0  0  0  0  0  0
   -5.1275    2.7032    0.9522 O   0  0  0  0  0  0  0  0  0  0  0  0
   -3.6112    0.6483    1.5006 C   0  0  0  0  0  0  0  0  0  0  0  0
   -3.8163    0.1304    0.2198 C   0  0  0  0  0  0  0  0  0  0  0  0
   -3.4178   -1.1767   -0.0638 C   0  0  0  0  0  0  0  0  0  0  0  0
   -2.8246   -1.9703    0.9276 C   0  0  0  0  0  0  0  0  0  0  0  0
   -2.4279   -3.3864    0.6260 C   0  0  0  0  0  0  0  0  0  0  0  0
   -2.6712   -1.4538    2.2211 C   0  0  0  0  0  0  0  0  0  0  0  0
   -3.0661   -0.1476    2.5122 C   0  0  0  0  0  0  0  0  0  0  0  0
   -1.0603    2.0335   -0.0504 C   0  0  0  0  0  0  0  0  0  0  0  0
   -1.7061    2.2196   -1.0730 O   0  0  0  0  0  0  0  0  0  0  0  0
    1.9952   -1.4010   -0.3370 C   0  0  0  0  0  0  0  0  0  0  0  0
    3.1617   -2.1628   -0.3635 C   0  0  0  0  0  0  0  0  0  0  0  0
    4.2523   -1.7090   -1.0938 C   0  0  0  0  0  0  0  0  0  0  0  0
    5.3855   -2.4762   -1.1037 O   0  0  0  0  0  0  0  0  0  0  0  0
    5.2010    1.8803   -2.6246 H   0  0  0  0  0  0  0  0  0  0  0  0
    4.5843    0.9474   -4.0452 H   0  0  0  0  0  0  0  0  0  0  0  0
    6.3207    1.0954   -3.7452 H   0  0  0  0  0  0  0  0  0  0  0  0
    2.9659    1.1939   -2.3148 H   0  0  0  0  0  0  0  0  0  0  0  0
    0.1873    0.6619   -1.9821 H   0  0  0  0  0  0  0  0  0  0  0  0
   -2.9620    3.7553    0.5128 H   0  0  0  0  0  0  0  0  0  0  0  0
   -4.2663    0.7369   -0.5642 H   0  0  0  0  0  0  0  0  0  0  0  0
   -3.5748   -1.5749   -1.0648 H   0  0  0  0  0  0  0  0  0  0  0  0
   -1.5832   -3.6960    1.2502 H   0  0  0  0  0  0  0  0  0  0  0  0
   -3.2711   -4.0587    0.8113 H   0  0  0  0  0  0  0  0  0  0  0  0
   -2.1139   -3.4893   -0.4179 H   0  0  0  0  0  0  0  0  0  0  0  0
   -2.2487   -2.0710    3.0122 H   0  0  0  0  0  0  0  0  0  0  0  0
   -2.9456    0.2367    3.5236 H   0  0  0  0  0  0  0  0  0  0  0  0
    1.1410   -1.7625    0.2312 H   0  0  0  0  0  0  0  0  0  0  0  0
    3.2220   -3.1020    0.1778 H   0  0  0  0  0  0  0  0  0  0  0  0
    6.0206   -1.9830   -1.6584 H   0  0  0  0  0  0  0  0  0  0  0  0
  1  2  1  0
  2  3  1  0
  3  4  2  0
  4  5  1  0
  5  6  1  0
  6  7  2  3
  7  8  1  0
  8  9  1  0
  9 10  2  0
  9 11  1  0
 11 12  1  0
 12 13  1  0
 13 14  2  0
 13 15  2  0
 13 16  1  0
 16 17  2  0
 17 18  1  0
 18 19  2  0
 19 20  1  0
 19 21  1  0
 21 22  2  0
 11 23  1  0
 23 24  2  0
  5 25  2  0
 25 26  1  0
 26 27  2  0
 27 28  1  0
 27  3  1  0
 23  7  1  0
 22 16  1  0
  1 29  1  0
  1 30  1  0
  1 31  1  0
  4 32  1  0
  6 33  1  0
 12 34  1  0
 17 35  1  0
 18 36  1  0
 20 37  1  0
 20 38  1  0
 20 39  1  0
 21 40  1  0
 22 41  1  0
 25 42  1  0
 26 43  1  0
 28 44  1  0
M  END
$$$$
