
     RDKit          3D

 64 69  0  0  0  0  0  0  0  0999 V2000
   -9.6844    0.8994    0.4341 C   0  0  0  0  0  0  0  0  0  0  0  0
   -8.6902    1.9145    0.3961 O   0  0  0  0  0  0  0  0  0  0  0  0
   -7.3872    1.5000    0.3869 C   0  0  0  0  0  0  0  0  0  0  0  0
   -6.9415    0.1853    0.5040 C   0  0  0  0  0  0  0  0  0  0  0  0
   -5.5692   -0.1031    0.4802 C   0  0  0  0  0  0  0  0  0  0  0  0
   -4.6228    0.9216    0.3463 C   0  0  0  0  0  0  0  0  0  0  0  0
   -3.2182    0.6253    0.3111 N   0  0  0  0  0  0  0  0  0  0  0  0
   -2.1621    1.4700    0.6983 C   0  0  0  0  0  0  0  0  0  0  0  0
   -2.3465    2.6637    1.3267 N   0  0  0  0  0  0  0  0  0  0  0  0
   -0.9504    0.8657    0.3828 C   0  0  0  0  0  0  0  0  0  0  0  0
    0.3800    1.4347    0.6080 C   0  0  0  0  0  0  0  0  0  0  0  0
    0.5162    2.5444    1.1148 O   0  0  0  0  0  0  0  0  0  0  0  0
    1.4149    0.6289    0.1860 N   0  0  0  0  0  0  0  0  0  0  0  0
    2.7663    0.8352    0.2330 C   0  0  0  0  0  0  0  0  0  0  0  0
    3.5816    1.7136    0.8413 C   0  0  0  0  0  0  0  0  0  0  0  0
    3.2326    2.7913    1.8153 C   0  0  0  0  0  0  0  0  0  0  0  0
    4.9387    1.5164    0.5111 N   0  0  0  0  0  0  0  0  0  0  0  0
    5.6487    2.6590   -0.0956 C   0  0  0  0  0  0  0  0  0  0  0  0
    4.9759    0.3435   -0.2973 N   0  0  0  0  0  0  0  0  0  0  0  0
    6.1492   -0.4461   -0.4086 C   0  0  0  0  0  0  0  0  0  0  0  0
    7.2842   -0.1755    0.3717 C   0  0  0  0  0  0  0  0  0  0  0  0
    8.4431   -0.9506    0.2575 C   0  0  0  0  0  0  0  0  0  0  0  0
    8.4845   -2.0143   -0.6382 C   0  0  0  0  0  0  0  0  0  0  0  0
    7.3667   -2.3039   -1.4155 C   0  0  0  0  0  0  0  0  0  0  0  0
    6.2081   -1.5270   -1.2991 C   0  0  0  0  0  0  0  0  0  0  0  0
    3.6696   -0.0969   -0.5208 C   0  0  0  0  0  0  0  0  0  0  0  0
    3.2444   -1.0636   -1.1386 O   0  0  0  0  0  0  0  0  0  0  0  0
   -1.2718   -0.4035   -0.1445 C   0  0  0  0  0  0  0  0  0  0  0  0
   -0.4311   -1.3738   -0.5884 N   0  0  0  0  0  0  0  0  0  0  0  0
   -1.0386   -2.4802   -1.0380 C   0  0  0  0  0  0  0  0  0  0  0  0
   -0.2475   -3.5170   -1.5142 C   0  0  0  0  0  0  0  0  0  0  0  0
   -0.8092   -4.6982   -1.9993 C   0  0  0  0  0  0  0  0  0  0  0  0
   -2.1891   -4.8450   -2.0090 C   0  0  0  0  0  0  0  0  0  0  0  0
   -2.9939   -3.8087   -1.5332 C   0  0  0  0  0  0  0  0  0  0  0  0
   -2.4484   -2.6272   -1.0466 C   0  0  0  0  0  0  0  0  0  0  0  0
   -3.2817   -1.6703   -0.6065 N   0  0  0  0  0  0  0  0  0  0  0  0
   -2.6499   -0.5608   -0.1518 C   0  0  0  0  0  0  0  0  0  0  0  0
   -5.0787    2.2396    0.2170 C   0  0  0  0  0  0  0  0  0  0  0  0
   -6.4490    2.5217    0.2443 C   0  0  0  0  0  0  0  0  0  0  0  0
   -9.6065    0.2363   -0.4348 H   0  0  0  0  0  0  0  0  0  0  0  0
   -9.6345    0.3329    1.3704 H   0  0  0  0  0  0  0  0  0  0  0  0
  -10.6629    1.3887    0.3927 H   0  0  0  0  0  0  0  0  0  0  0  0
   -7.6304   -0.6445    0.6191 H   0  0  0  0  0  0  0  0  0  0  0  0
   -5.2725   -1.1414    0.5985 H   0  0  0  0  0  0  0  0  0  0  0  0
   -1.5082    3.1348    1.6863 H   0  0  0  0  0  0  0  0  0  0  0  0
   -3.1413    2.7919    1.9516 H   0  0  0  0  0  0  0  0  0  0  0  0
    1.1501   -0.2271   -0.3099 H   0  0  0  0  0  0  0  0  0  0  0  0
    4.0994    3.0491    2.4338 H   0  0  0  0  0  0  0  0  0  0  0  0
    2.4583    2.4652    2.5147 H   0  0  0  0  0  0  0  0  0  0  0  0
    2.9121    3.6978    1.2949 H   0  0  0  0  0  0  0  0  0  0  0  0
    5.1442    2.9859   -1.0123 H   0  0  0  0  0  0  0  0  0  0  0  0
    5.6805    3.5021    0.6021 H   0  0  0  0  0  0  0  0  0  0  0  0
    6.6849    2.4108   -0.3491 H   0  0  0  0  0  0  0  0  0  0  0  0
    7.2728    0.6253    1.1061 H   0  0  0  0  0  0  0  0  0  0  0  0
    9.3078   -0.7267    0.8772 H   0  0  0  0  0  0  0  0  0  0  0  0
    9.3833   -2.6191   -0.7268 H   0  0  0  0  0  0  0  0  0  0  0  0
    7.3909   -3.1345   -2.1166 H   0  0  0  0  0  0  0  0  0  0  0  0
    5.3625   -1.7759   -1.9350 H   0  0  0  0  0  0  0  0  0  0  0  0
    0.8351   -3.4003   -1.5096 H   0  0  0  0  0  0  0  0  0  0  0  0
   -0.1674   -5.4938   -2.3685 H   0  0  0  0  0  0  0  0  0  0  0  0
   -2.6430   -5.7579   -2.3867 H   0  0  0  0  0  0  0  0  0  0  0  0
   -4.0752   -3.9246   -1.5449 H   0  0  0  0  0  0  0  0  0  0  0  0
   -4.3960    3.0675    0.0418 H   0  0  0  0  0  0  0  0  0  0  0  0
   -6.7871    3.5497    0.1357 H   0  0  0  0  0  0  0  0  0  0  0  0
  1  2  1  0
  2  3  1  0
  3  4  2  0
  4  5  1  0
  5  6  2  0
  6  7  1  0
  7  8  1  0
  8  9  1  0
  8 10  2  0
 10 11  1  0
 11 12  2  0
 11 13  1  0
 13 14  1  0
 14 15  2  0
 15 16  1  0
 15 17  1  0
 17 18  1  0
 17 19  1  0
 19 20  1  0
 20 21  2  0
 21 22  1  0
 22 23  2  0
 23 24  1  0
 24 25  2  0
 19 26  1  0
 26 27  2  0
 10 28  1  0
 28 29  2  0
 29 30  1  0
 30 31  2  0
 31 32  1  0
 32 33  2  0
 33 34  1  0
 34 35  2  0
 35 36  1  0
 36 37  2  0
  6 38  1  0
 38 39  2  0
 39  3  1  0
 37  7  1  0
 26 14  1  0
 37 28  1  0
 25 20  1  0
 35 30  1  0
  1 40  1  0
  1 41  1  0
  1 42  1  0
  4 43  1  0
  5 44  1  0
  9 45  1  0
  9 46  1  0
 13 47  1  0
 16 48  1  0
 16 49  1  0
 16 50  1  0
 18 51  1  0
 18 52  1  0
 18 53  1  0
 21 54  1  0
 22 55  1  0
 23 56  1  0
 24 57  1  0
 25 58  1  0
 31 59  1  0
 32 60  1  0
 33 61  1  0
 34 62  1  0
 38 63  1  0
 39 64  1  0
M  END
$$$$
