
     RDKit          3D

 59 62  0  0  0  0  0  0  0  0999 V2000
    7.6375    1.8637    5.0899 C   0  0  0  0  0  0  0  0  0  0  0  0
    7.2060    2.5045    3.8923 O   0  0  0  0  0  0  0  0  0  0  0  0
    6.4570    1.7450    3.0338 C   0  0  0  0  0  0  0  0  0  0  0  0
    5.9505    0.4712    3.2886 C   0  0  0  0  0  0  0  0  0  0  0  0
    5.1997   -0.1925    2.3100 C   0  0  0  0  0  0  0  0  0  0  0  0
    4.9457    0.4080    1.0676 C   0  0  0  0  0  0  0  0  0  0  0  0
    4.1652   -0.3705    0.0597 C   0  0  0  0  0  0  0  0  0  0  0  0
    4.0082   -1.5818    0.2355 O   0  0  0  0  0  0  0  0  0  0  0  0
    3.6534    0.2906   -1.1992 C   0  0  0  0  0  0  0  0  0  0  0  0
    2.4153    1.5816   -0.9083 S   0  0  0  0  0  0  0  0  0  0  0  0
    1.2121    0.7059   -0.0348 C   0  0  0  0  0  0  0  0  0  0  0  0
    1.2815    0.4009    1.2388 N   0  0  0  0  0  0  0  0  0  0  0  0
    0.1178   -0.2446    1.5786 N   0  0  0  0  0  0  0  0  0  0  0  0
   -0.6395   -0.3222    0.5019 C   0  0  0  0  0  0  0  0  0  0  0  0
   -1.9964   -0.9432    0.4264 C   0  0  0  0  0  0  0  0  0  0  0  0
   -3.0521    0.0256    0.1370 N   0  0  0  0  0  0  0  0  0  0  0  0
   -4.3803   -0.3855   -0.0378 C   0  0  0  0  0  0  0  0  0  0  0  0
   -4.7403   -1.7250   -0.2507 C   0  0  0  0  0  0  0  0  0  0  0  0
   -6.0687   -2.0988   -0.4803 C   0  0  0  0  0  0  0  0  0  0  0  0
   -7.0783   -1.1381   -0.5210 C   0  0  0  0  0  0  0  0  0  0  0  0
   -8.4972   -1.5376   -0.7908 C   0  0  0  0  0  0  0  0  0  0  0  0
   -6.7307    0.2068   -0.3663 C   0  0  0  0  0  0  0  0  0  0  0  0
   -5.3969    0.5930   -0.1349 C   0  0  0  0  0  0  0  0  0  0  0  0
   -5.0972    2.0625    0.0269 C   0  0  0  0  0  0  0  0  0  0  0  0
    0.0186    0.2801   -0.5535 N   0  0  0  0  0  0  0  0  0  0  0  0
   -0.4873    0.4768   -1.8997 C   0  0  0  0  0  0  0  0  0  0  0  0
   -0.0644   -0.6279   -2.7971 C   0  0  0  0  0  0  0  0  0  0  0  0
   -0.6188   -1.8452   -3.1367 C   0  0  0  0  0  0  0  0  0  0  0  0
    0.2702   -2.4461   -4.0613 C   0  0  0  0  0  0  0  0  0  0  0  0
    1.3020   -1.5547   -4.2382 C   0  0  0  0  0  0  0  0  0  0  0  0
    1.1031   -0.4449   -3.4834 O   0  0  0  0  0  0  0  0  0  0  0  0
    5.4532    1.6861    0.8162 C   0  0  0  0  0  0  0  0  0  0  0  0
    6.1978    2.3470    1.8011 C   0  0  0  0  0  0  0  0  0  0  0  0
    8.2020    0.9533    4.8723 H   0  0  0  0  0  0  0  0  0  0  0  0
    6.7883    1.6480    5.7498 H   0  0  0  0  0  0  0  0  0  0  0  0
    8.3042    2.5504    5.6184 H   0  0  0  0  0  0  0  0  0  0  0  0
    6.1117   -0.0366    4.2343 H   0  0  0  0  0  0  0  0  0  0  0  0
    4.8044   -1.1835    2.5267 H   0  0  0  0  0  0  0  0  0  0  0  0
    3.2125   -0.4850   -1.8338 H   0  0  0  0  0  0  0  0  0  0  0  0
    4.5001    0.7034   -1.7590 H   0  0  0  0  0  0  0  0  0  0  0  0
   -2.2111   -1.4390    1.3816 H   0  0  0  0  0  0  0  0  0  0  0  0
   -1.9620   -1.7198   -0.3452 H   0  0  0  0  0  0  0  0  0  0  0  0
   -3.0078    0.8096    0.7869 H   0  0  0  0  0  0  0  0  0  0  0  0
   -4.0016   -2.5197   -0.2286 H   0  0  0  0  0  0  0  0  0  0  0  0
   -6.3059   -3.1517   -0.6216 H   0  0  0  0  0  0  0  0  0  0  0  0
   -9.1979   -0.8319   -0.3309 H   0  0  0  0  0  0  0  0  0  0  0  0
   -8.6820   -1.5681   -1.8695 H   0  0  0  0  0  0  0  0  0  0  0  0
   -8.7099   -2.5256   -0.3664 H   0  0  0  0  0  0  0  0  0  0  0  0
   -7.5078    0.9672   -0.4275 H   0  0  0  0  0  0  0  0  0  0  0  0
   -4.8428    2.2814    1.0681 H   0  0  0  0  0  0  0  0  0  0  0  0
   -5.9582    2.6807   -0.2450 H   0  0  0  0  0  0  0  0  0  0  0  0
   -4.2707    2.3618   -0.6246 H   0  0  0  0  0  0  0  0  0  0  0  0
   -1.5775    0.5448   -1.8673 H   0  0  0  0  0  0  0  0  0  0  0  0
   -0.1332    1.4438   -2.2679 H   0  0  0  0  0  0  0  0  0  0  0  0
   -1.5508   -2.2513   -2.7691 H   0  0  0  0  0  0  0  0  0  0  0  0
    0.1717   -3.4080   -4.5434 H   0  0  0  0  0  0  0  0  0  0  0  0
    2.2036   -1.5609   -4.8359 H   0  0  0  0  0  0  0  0  0  0  0  0
    5.2910    2.1996   -0.1277 H   0  0  0  0  0  0  0  0  0  0  0  0
    6.5829    3.3465    1.6030 H   0  0  0  0  0  0  0  0  0  0  0  0
  1  2  1  0
  2  3  1  0
  3  4  2  0
  4  5  1  0
  5  6  2  0
  6  7  1  0
  7  8  2  0
  7  9  1  0
  9 10  1  0
 10 11  1  0
 11 12  2  0
 12 13  1  0
 13 14  2  0
 14 15  1  0
 15 16  1  0
 16 17  1  0
 17 18  2  0
 18 19  1  0
 19 20  2  0
 20 21  1  0
 20 22  1  0
 22 23  2  0
 23 24  1  0
 14 25  1  0
 25 26  1  0
 26 27  1  0
 27 28  2  0
 28 29  1  0
 29 30  2  0
 30 31  1  0
  6 32  1  0
 32 33  2  0
 33  3  1  0
 25 11  1  0
 31 27  1  0
 23 17  1  0
  1 34  1  0
  1 35  1  0
  1 36  1  0
  4 37  1  0
  5 38  1  0
  9 39  1  0
  9 40  1  0
 15 41  1  0
 15 42  1  0
 16 43  1  0
 18 44  1  0
 19 45  1  0
 21 46  1  0
 21 47  1  0
 21 48  1  0
 22 49  1  0
 24 50  1  0
 24 51  1  0
 24 52  1  0
 26 53  1  0
 26 54  1  0
 28 55  1  0
 29 56  1  0
 30 57  1  0
 32 58  1  0
 33 59  1  0
M  END
$$$$
