
     RDKit          3D

 41 43  0  0  0  0  0  0  0  0999 V2000
   -3.3591    1.1179   -1.5762 C   0  0  0  0  0  0  0  0  0  0  0  0
   -3.1492    0.5901   -0.2499 N   0  0  0  0  0  0  0  0  0  0  0  0
   -1.9509    0.3540    0.3667 C   0  0  0  0  0  0  0  0  0  0  0  0
   -0.4152    0.4826   -0.4151 S   0  0  0  0  0  0  0  0  0  0  0  0
    0.6813    0.1800    1.0057 C   0  0  0  0  0  0  0  0  0  0  0  0
    2.1354    0.2026    0.5616 C   0  0  0  0  0  0  0  0  0  0  0  0
    2.6166    1.1273   -0.0923 O   0  0  0  0  0  0  0  0  0  0  0  0
    2.8477   -0.9221    0.9952 N   0  0  0  0  0  0  0  0  0  0  0  0
    4.2104   -1.0667    0.8780 N   0  0  0  0  0  0  0  0  0  0  0  0
    4.7774   -0.6570   -0.2140 C   0  0  0  0  0  0  0  0  0  0  0  0
    6.2110   -0.7264   -0.4058 C   0  0  0  0  0  0  0  0  0  0  0  0
    6.9185   -0.3903   -1.5452 C   0  0  0  0  0  0  0  0  0  0  0  0
    8.3238   -0.5803   -1.3905 C   0  0  0  0  0  0  0  0  0  0  0  0
    8.6309   -1.0423   -0.1274 C   0  0  0  0  0  0  0  0  0  0  0  0
    9.9465   -1.3356    0.3837 N   0  0  0  0  0  4  0  0  0  0  0  0
   10.8689   -1.3147   -0.4431 O   0  0  0  0  0  0  0  0  0  0  0  0
   10.0734   -1.5751    1.5939 O   0  0  0  0  0  1  0  0  0  0  0  0
    7.2565   -1.2583    0.8449 S   0  0  0  0  0  0  0  0  0  0  0  0
   -2.1510    0.0008    1.6134 N   0  0  0  0  0  0  0  0  0  0  0  0
   -3.5063   -0.0105    1.8254 N   0  0  0  0  0  0  0  0  0  0  0  0
   -4.1158    0.3001    0.6925 C   0  0  0  0  0  0  0  0  0  0  0  0
   -5.5654    0.3628    0.5091 C   0  0  0  0  0  0  0  0  0  0  0  0
   -6.1989   -0.2345   -0.5925 C   0  0  0  0  0  0  0  0  0  0  0  0
   -7.5896   -0.1654   -0.7340 C   0  0  0  0  0  0  0  0  0  0  0  0
   -8.3537    0.4910    0.2303 C   0  0  0  0  0  0  0  0  0  0  0  0
  -10.0622    0.5791    0.0515 Cl  0  0  0  0  0  0  0  0  0  0  0  0
   -7.7417    1.0723    1.3389 C   0  0  0  0  0  0  0  0  0  0  0  0
   -6.3523    1.0017    1.4800 C   0  0  0  0  0  0  0  0  0  0  0  0
   -3.3797    0.2821   -2.2811 H   0  0  0  0  0  0  0  0  0  0  0  0
   -2.5573    1.8151   -1.8344 H   0  0  0  0  0  0  0  0  0  0  0  0
   -4.3010    1.6698   -1.6109 H   0  0  0  0  0  0  0  0  0  0  0  0
    0.5482    0.9553    1.7707 H   0  0  0  0  0  0  0  0  0  0  0  0
    0.4330   -0.7940    1.4453 H   0  0  0  0  0  0  0  0  0  0  0  0
    2.4682   -1.4455    1.7813 H   0  0  0  0  0  0  0  0  0  0  0  0
    4.1990   -0.2692   -1.0707 H   0  0  0  0  0  0  0  0  0  0  0  0
    6.4513   -0.0246   -2.4544 H   0  0  0  0  0  0  0  0  0  0  0  0
    9.0623   -0.3811   -2.1601 H   0  0  0  0  0  0  0  0  0  0  0  0
   -5.6237   -0.7786   -1.3389 H   0  0  0  0  0  0  0  0  0  0  0  0
   -8.0703   -0.6332   -1.5899 H   0  0  0  0  0  0  0  0  0  0  0  0
   -8.3359    1.5729    2.1000 H   0  0  0  0  0  0  0  0  0  0  0  0
   -5.8813    1.4479    2.3567 H   0  0  0  0  0  0  0  0  0  0  0  0
  1  2  1  0
  2  3  1  0
  3  4  1  0
  4  5  1  0
  5  6  1  0
  6  7  2  0
  6  8  1  0
  8  9  1  0
  9 10  2  3
 10 11  1  0
 11 12  2  0
 12 13  1  0
 13 14  2  0
 14 15  1  0
 15 16  2  0
 15 17  1  0
 14 18  1  0
  3 19  2  0
 19 20  1  0
 20 21  2  0
 21 22  1  0
 22 23  2  0
 23 24  1  0
 24 25  2  0
 25 26  1  0
 25 27  1  0
 27 28  2  0
 21  2  1  0
 28 22  1  0
 18 11  1  0
  1 29  1  0
  1 30  1  0
  1 31  1  0
  5 32  1  0
  5 33  1  0
  8 34  1  0
 10 35  1  0
 12 36  1  0
 13 37  1  0
 23 38  1  0
 24 39  1  0
 27 40  1  0
 28 41  1  0
M  CHG  2  15   1  17  -1
M  END
$$$$
