
     RDKit          3D

 30 31  0  0  0  0  0  0  0  0999 V2000
   -3.5508   -1.4632   -1.4311 C   0  0  0  0  0  0  0  0  0  0  0  0
   -3.8572   -0.3515   -0.5028 C   0  0  0  0  0  0  0  0  0  0  0  0
   -5.1341    0.1236   -0.5827 O   0  0  0  0  0  0  0  0  0  0  0  0
   -5.2664    1.0932    0.3530 C   0  0  0  0  0  0  0  0  0  0  0  0
   -4.0883    1.2555    1.0366 C   0  0  0  0  0  0  0  0  0  0  0  0
   -3.1494    0.3342    0.4755 C   0  0  0  0  0  0  0  0  0  0  0  0
   -1.7679    0.1691    0.9047 C   0  0  0  0  0  0  0  0  0  0  0  0
   -1.3598    0.6200    1.9746 O   0  0  0  0  0  0  0  0  0  0  0  0
   -0.9310   -0.4889    0.0232 N   0  0  0  0  0  0  0  0  0  0  0  0
    0.4514   -0.4502    0.2815 N   0  0  0  0  0  0  0  0  0  0  0  0
    1.2949   -0.3275   -0.8046 C   0  0  0  0  0  0  0  0  0  0  0  0
    0.8782   -0.4224   -1.9588 O   0  0  0  0  0  0  0  0  0  0  0  0
    2.7341   -0.0672   -0.5367 C   0  0  0  0  0  0  0  0  0  0  0  0
    3.6105    0.0247   -1.6289 C   0  0  0  0  0  0  0  0  0  0  0  0
    4.9722    0.2678   -1.4267 C   0  0  0  0  0  0  0  0  0  0  0  0
    5.4701    0.4216   -0.1334 C   0  0  0  0  0  0  0  0  0  0  0  0
    4.6067    0.3330    0.9574 C   0  0  0  0  0  0  0  0  0  0  0  0
    3.2493    0.0902    0.7513 C   0  0  0  0  0  0  0  0  0  0  0  0
    2.4535    0.0173    1.8289 F   0  0  0  0  0  0  0  0  0  0  0  0
   -2.9703   -1.0996   -2.2841 H   0  0  0  0  0  0  0  0  0  0  0  0
   -4.4683   -1.9188   -1.8176 H   0  0  0  0  0  0  0  0  0  0  0  0
   -2.9807   -2.2483   -0.9254 H   0  0  0  0  0  0  0  0  0  0  0  0
   -6.2397    1.5600    0.4121 H   0  0  0  0  0  0  0  0  0  0  0  0
   -3.9060    1.9542    1.8423 H   0  0  0  0  0  0  0  0  0  0  0  0
   -1.1706   -0.5474   -0.9642 H   0  0  0  0  0  0  0  0  0  0  0  0
    0.7294   -0.1873    1.2296 H   0  0  0  0  0  0  0  0  0  0  0  0
    3.2358   -0.0932   -2.6447 H   0  0  0  0  0  0  0  0  0  0  0  0
    5.6428    0.3370   -2.2807 H   0  0  0  0  0  0  0  0  0  0  0  0
    6.5295    0.6113    0.0236 H   0  0  0  0  0  0  0  0  0  0  0  0
    4.9822    0.4527    1.9696 H   0  0  0  0  0  0  0  0  0  0  0  0
  1  2  1  0
  2  3  1  0
  3  4  1  0
  4  5  2  0
  5  6  1  0
  6  7  1  0
  7  8  2  0
  7  9  1  0
  9 10  1  0
 10 11  1  0
 11 12  2  0
 11 13  1  0
 13 14  2  0
 14 15  1  0
 15 16  2  0
 16 17  1  0
 17 18  2  0
 18 19  1  0
  6  2  2  0
 18 13  1  0
  1 20  1  0
  1 21  1  0
  1 22  1  0
  4 23  1  0
  5 24  1  0
  9 25  1  0
 10 26  1  0
 14 27  1  0
 15 28  1  0
 16 29  1  0
 17 30  1  0
M  END
$$$$
