
     RDKit          3D

 67 71  0  0  0  0  0  0  0  0999 V2000
   -3.3785   -5.1217    2.5240 C   0  0  0  0  0  0  0  0  0  0  0  0
   -3.5467   -3.7105    2.5637 O   0  0  0  0  0  0  0  0  0  0  0  0
   -3.3951   -3.0291    1.3860 C   0  0  0  0  0  0  0  0  0  0  0  0
   -3.0956   -3.5944    0.1430 C   0  0  0  0  0  0  0  0  0  0  0  0
   -2.9610   -2.7795   -0.9846 C   0  0  0  0  0  0  0  0  0  0  0  0
   -2.6698   -3.2036   -2.2532 O   0  0  0  0  0  0  0  0  0  0  0  0
   -2.4959   -4.6008   -2.4477 C   0  0  0  0  0  0  0  0  0  0  0  0
   -3.1275   -1.3976   -0.8622 C   0  0  0  0  0  0  0  0  0  0  0  0
   -3.4319   -0.8180    0.3740 C   0  0  0  0  0  0  0  0  0  0  0  0
   -3.5876    0.6359    0.4917 C   0  0  0  0  0  0  0  0  0  0  0  0
   -5.1357    1.2625    0.8609 S   0  0  0  0  0  0  0  0  0  0  0  0
   -4.5903    2.8896    0.8055 C   0  0  0  0  0  0  0  0  0  0  0  0
   -5.3615    4.0471    1.0250 C   0  0  0  0  0  0  0  0  0  0  0  0
   -4.7492    5.3031    0.9458 C   0  0  0  0  0  0  0  0  0  0  0  0
   -3.3963    5.4133    0.6559 C   0  0  0  0  0  0  0  0  0  0  0  0
   -2.6872    6.5791    0.5551 O   0  0  0  0  0  0  0  0  0  0  0  0
   -3.3944    7.7878    0.8010 C   0  0  0  0  0  0  0  0  0  0  0  0
   -2.6418    4.2544    0.4373 C   0  0  0  0  0  0  0  0  0  0  0  0
   -3.2300    2.9641    0.5061 C   0  0  0  0  0  0  0  0  0  0  0  0
   -2.6564    1.6490    0.3235 C   0  0  0  0  0  0  0  0  0  0  0  0
   -1.2617    1.3634    0.0048 C   0  0  0  0  0  0  0  0  0  0  0  0
   -0.4190    0.7908    0.9633 C   0  0  0  0  0  0  0  0  0  0  0  0
    0.9185    0.5167    0.6564 C   0  0  0  0  0  0  0  0  0  0  0  0
    1.4223    0.8141   -0.6103 C   0  0  0  0  0  0  0  0  0  0  0  0
    2.7019    0.5935   -1.0394 O   0  0  0  0  0  0  0  0  0  0  0  0
    3.6121    0.0125   -0.1001 C   0  0  0  0  0  0  0  0  0  0  0  0
    4.9747   -0.1412   -0.7973 C   0  0  0  0  0  0  0  0  0  0  0  0
    6.0442   -0.6409    0.0857 N   0  0  0  0  0  0  0  0  0  0  0  0
    5.8853   -2.0675    0.4483 C   0  0  0  0  0  0  0  0  0  0  0  0
    6.1986   -3.0494   -0.6945 C   0  0  0  0  0  0  0  0  0  0  0  0
    7.5120   -2.8333   -1.2237 O   0  0  0  0  0  0  0  0  0  0  0  0
    7.6611   -1.4816   -1.6755 C   0  0  0  0  0  0  0  0  0  0  0  0
    7.3761   -0.4787   -0.5442 C   0  0  0  0  0  0  0  0  0  0  0  0
    0.5794    1.3914   -1.5640 C   0  0  0  0  0  0  0  0  0  0  0  0
   -0.7558    1.6688   -1.2613 C   0  0  0  0  0  0  0  0  0  0  0  0
   -3.5631   -1.6458    1.4944 C   0  0  0  0  0  0  0  0  0  0  0  0
   -4.1288   -5.5905    1.8790 H   0  0  0  0  0  0  0  0  0  0  0  0
   -2.3640   -5.3890    2.2109 H   0  0  0  0  0  0  0  0  0  0  0  0
   -3.5255   -5.5051    3.5385 H   0  0  0  0  0  0  0  0  0  0  0  0
   -2.9672   -4.6646    0.0531 H   0  0  0  0  0  0  0  0  0  0  0  0
   -1.6489   -4.9784   -1.8658 H   0  0  0  0  0  0  0  0  0  0  0  0
   -2.2713   -4.7656   -3.5057 H   0  0  0  0  0  0  0  0  0  0  0  0
   -3.4137   -5.1491   -2.2125 H   0  0  0  0  0  0  0  0  0  0  0  0
   -3.0183   -0.7719   -1.7454 H   0  0  0  0  0  0  0  0  0  0  0  0
   -6.4205    3.9679    1.2553 H   0  0  0  0  0  0  0  0  0  0  0  0
   -5.3693    6.1764    1.1197 H   0  0  0  0  0  0  0  0  0  0  0  0
   -3.7921    7.8130    1.8211 H   0  0  0  0  0  0  0  0  0  0  0  0
   -4.1890    7.9365    0.0621 H   0  0  0  0  0  0  0  0  0  0  0  0
   -2.6861    8.6161    0.7000 H   0  0  0  0  0  0  0  0  0  0  0  0
   -1.5810    4.3487    0.2141 H   0  0  0  0  0  0  0  0  0  0  0  0
   -0.7972    0.5539    1.9553 H   0  0  0  0  0  0  0  0  0  0  0  0
    1.5351    0.0717    1.4299 H   0  0  0  0  0  0  0  0  0  0  0  0
    3.2356   -0.9672    0.2114 H   0  0  0  0  0  0  0  0  0  0  0  0
    3.7215    0.6708    0.7701 H   0  0  0  0  0  0  0  0  0  0  0  0
    4.8538   -0.7574   -1.6964 H   0  0  0  0  0  0  0  0  0  0  0  0
    5.2511    0.8558   -1.1670 H   0  0  0  0  0  0  0  0  0  0  0  0
    6.5842   -2.2682    1.2712 H   0  0  0  0  0  0  0  0  0  0  0  0
    4.8888   -2.2679    0.8534 H   0  0  0  0  0  0  0  0  0  0  0  0
    5.4658   -2.9765   -1.5057 H   0  0  0  0  0  0  0  0  0  0  0  0
    6.1644   -4.0757   -0.3149 H   0  0  0  0  0  0  0  0  0  0  0  0
    8.6938   -1.3635   -2.0192 H   0  0  0  0  0  0  0  0  0  0  0  0
    7.0070   -1.3158   -2.5390 H   0  0  0  0  0  0  0  0  0  0  0  0
    7.5098    0.5477   -0.9054 H   0  0  0  0  0  0  0  0  0  0  0  0
    8.1279   -0.6228    0.2427 H   0  0  0  0  0  0  0  0  0  0  0  0
    0.9659    1.6268   -2.5525 H   0  0  0  0  0  0  0  0  0  0  0  0
   -1.3944    2.1161   -2.0190 H   0  0  0  0  0  0  0  0  0  0  0  0
   -3.7916   -1.2155    2.4672 H   0  0  0  0  0  0  0  0  0  0  0  0
  1  2  1  0
  2  3  1  0
  3  4  2  0
  4  5  1  0
  5  6  1  0
  6  7  1  0
  5  8  2  0
  8  9  1  0
  9 10  1  0
 10 11  1  0
 11 12  1  0
 12 13  2  0
 13 14  1  0
 14 15  2  0
 15 16  1  0
 16 17  1  0
 15 18  1  0
 18 19  2  0
 19 20  1  0
 20 21  1  0
 21 22  2  0
 22 23  1  0
 23 24  2  0
 24 25  1  0
 25 26  1  0
 26 27  1  0
 27 28  1  0
 28 29  1  0
 29 30  1  0
 30 31  1  0
 31 32  1  0
 32 33  1  0
 24 34  1  0
 34 35  2  0
  9 36  2  0
 36  3  1  0
 20 10  2  0
 35 21  1  0
 19 12  1  0
 33 28  1  0
  1 37  1  0
  1 38  1  0
  1 39  1  0
  4 40  1  0
  7 41  1  0
  7 42  1  0
  7 43  1  0
  8 44  1  0
 13 45  1  0
 14 46  1  0
 17 47  1  0
 17 48  1  0
 17 49  1  0
 18 50  1  0
 22 51  1  0
 23 52  1  0
 26 53  1  0
 26 54  1  0
 27 55  1  0
 27 56  1  0
 29 57  1  0
 29 58  1  0
 30 59  1  0
 30 60  1  0
 32 61  1  0
 32 62  1  0
 33 63  1  0
 33 64  1  0
 34 65  1  0
 35 66  1  0
 36 67  1  0
M  END
$$$$
