
     RDKit          3D

 37 38  0  0  0  0  0  0  0  0999 V2000
   -5.0897    2.5607   -0.3977 C   0  0  0  0  0  0  0  0  0  0  0  0
   -4.6261    1.4112    0.2952 O   0  0  0  0  0  0  0  0  0  0  0  0
   -3.4232    0.8730   -0.0890 C   0  0  0  0  0  0  0  0  0  0  0  0
   -2.6249    1.3795   -1.1206 C   0  0  0  0  0  0  0  0  0  0  0  0
   -1.4102    0.7665   -1.4421 C   0  0  0  0  0  0  0  0  0  0  0  0
   -0.9815   -0.3549   -0.7261 C   0  0  0  0  0  0  0  0  0  0  0  0
    0.3050   -1.0399   -1.0316 C   0  0  0  0  0  0  0  0  0  0  0  0
    0.4372   -2.2340   -0.7888 O   0  0  0  0  0  0  0  0  0  0  0  0
    1.3097   -0.2508   -1.5504 N   0  0  0  0  0  0  0  0  0  0  0  0
    2.6387   -0.7761   -1.7679 C   0  0  0  0  0  0  0  0  0  0  0  0
    3.5351   -0.4697   -0.5947 C   0  0  0  0  0  0  0  0  0  0  0  0
    3.5271   -1.2981    0.5361 C   0  0  0  0  0  0  0  0  0  0  0  0
    4.3364   -1.0062    1.6365 C   0  0  0  0  0  0  0  0  0  0  0  0
    5.1600    0.1220    1.6236 C   0  0  0  0  0  0  0  0  0  0  0  0
    6.1335    0.4249    3.0182 Cl  0  0  0  0  0  0  0  0  0  0  0  0
    5.1697    0.9609    0.5043 C   0  0  0  0  0  0  0  0  0  0  0  0
    6.1546    2.3785    0.4165 Cl  0  0  0  0  0  0  0  0  0  0  0  0
    4.3580    0.6662   -0.5977 C   0  0  0  0  0  0  0  0  0  0  0  0
   -1.7845   -0.8780    0.2956 C   0  0  0  0  0  0  0  0  0  0  0  0
   -3.0017   -0.2703    0.6215 C   0  0  0  0  0  0  0  0  0  0  0  0
   -3.8445   -0.7081    1.6135 O   0  0  0  0  0  0  0  0  0  0  0  0
   -3.4985   -1.9087    2.2903 C   0  0  0  0  0  0  0  0  0  0  0  0
   -4.4003    3.4021   -0.2731 H   0  0  0  0  0  0  0  0  0  0  0  0
   -6.0499    2.8506    0.0398 H   0  0  0  0  0  0  0  0  0  0  0  0
   -5.2601    2.3412   -1.4568 H   0  0  0  0  0  0  0  0  0  0  0  0
   -2.9253    2.2462   -1.7003 H   0  0  0  0  0  0  0  0  0  0  0  0
   -0.8285    1.1618   -2.2699 H   0  0  0  0  0  0  0  0  0  0  0  0
    1.2148    0.7536   -1.5040 H   0  0  0  0  0  0  0  0  0  0  0  0
    2.6049   -1.8563   -1.9501 H   0  0  0  0  0  0  0  0  0  0  0  0
    3.0289   -0.3068   -2.6777 H   0  0  0  0  0  0  0  0  0  0  0  0
    2.8810   -2.1760    0.5646 H   0  0  0  0  0  0  0  0  0  0  0  0
    4.3152   -1.6634    2.5029 H   0  0  0  0  0  0  0  0  0  0  0  0
    4.3692    1.3257   -1.4631 H   0  0  0  0  0  0  0  0  0  0  0  0
   -1.4319   -1.7581    0.8249 H   0  0  0  0  0  0  0  0  0  0  0  0
   -4.2947   -2.1290    3.0079 H   0  0  0  0  0  0  0  0  0  0  0  0
   -2.5677   -1.7884    2.8540 H   0  0  0  0  0  0  0  0  0  0  0  0
   -3.4356   -2.7522    1.5948 H   0  0  0  0  0  0  0  0  0  0  0  0
  1  2  1  0
  2  3  1  0
  3  4  2  0
  4  5  1  0
  5  6  2  0
  6  7  1  0
  7  8  2  0
  7  9  1  0
  9 10  1  0
 10 11  1  0
 11 12  2  0
 12 13  1  0
 13 14  2  0
 14 15  1  0
 14 16  1  0
 16 17  1  0
 16 18  2  0
  6 19  1  0
 19 20  2  0
 20 21  1  0
 21 22  1  0
 20  3  1  0
 18 11  1  0
  1 23  1  0
  1 24  1  0
  1 25  1  0
  4 26  1  0
  5 27  1  0
  9 28  1  0
 10 29  1  0
 10 30  1  0
 12 31  1  0
 13 32  1  0
 18 33  1  0
 19 34  1  0
 22 35  1  0
 22 36  1  0
 22 37  1  0
M  END
$$$$
