
     RDKit          3D

 79 84  0  0  0  0  0  0  0  0999 V2000
    3.4369   -6.7447    2.1814 C   0  0  0  0  0  0  0  0  0  0  0  0
    3.1241   -5.7151    1.3778 C   0  0  0  0  0  0  0  0  0  0  0  0
    2.3602   -5.9246    0.0993 C   0  0  0  0  0  0  0  0  0  0  0  0
    3.5624   -4.2974    1.6943 C   0  0  0  0  0  0  0  0  0  0  0  0
    2.3947   -3.3446    2.0065 C   0  0  1  0  0  0  0  0  0  0  0  0
    1.7596   -3.7641    3.2206 O   0  0  0  0  0  0  0  0  0  0  0  0
    2.9015   -1.9013    2.1783 C   0  0  0  0  0  0  0  0  0  0  0  0
    1.9017   -0.9608    1.7738 O   0  0  0  0  0  0  0  0  0  0  0  0
    0.9873   -0.4497    2.6446 C   0  0  0  0  0  0  0  0  0  0  0  0
    0.9298   -0.8122    3.9989 C   0  0  0  0  0  0  0  0  0  0  0  0
   -0.0654   -0.2730    4.7842 C   0  0  0  0  0  0  0  0  0  0  0  0
   -0.9983    0.5892    4.2767 C   0  0  0  0  0  0  0  0  0  0  0  0
   -0.9803    0.9657    2.9530 C   0  0  0  0  0  0  0  0  0  0  0  0
    0.0452    0.4769    2.1017 C   0  0  0  0  0  0  0  0  0  0  0  0
   -0.0113    0.9076    0.5997 C   0  0  0  0  0  0  0  0  0  0  0  0
   -0.3773    2.4177    0.4201 C   0  0  0  0  0  0  0  0  0  0  0  0
    0.3582    3.3666    1.1798 C   0  0  0  0  0  0  0  0  0  0  0  0
    0.1023    4.7124    1.0225 C   0  0  0  0  0  0  0  0  0  0  0  0
   -0.8507    5.1665    0.1515 C   0  0  0  0  0  0  0  0  0  0  0  0
   -1.5964    4.2977   -0.6108 C   0  0  0  0  0  0  0  0  0  0  0  0
   -1.3424    2.9209   -0.4913 C   0  0  0  0  0  0  0  0  0  0  0  0
   -2.1418    2.0692   -1.2009 O   0  0  0  0  0  0  0  0  0  0  0  0
   -1.8938    2.1086   -2.6142 C   0  0  0  0  0  0  0  0  0  0  0  0
   -2.9338    1.1941   -3.2861 C   0  0  2  0  0  0  0  0  0  0  0  0
   -2.7512   -0.1462   -2.8016 O   0  0  0  0  0  0  0  0  0  0  0  0
   -2.7763    1.2145   -4.8149 C   0  0  0  0  0  0  0  0  0  0  0  0
   -3.9943    0.6975   -5.5588 C   0  0  0  0  0  0  0  0  0  0  0  0
   -4.7994    1.5198   -6.2529 C   0  0  0  0  0  0  0  0  0  0  0  0
   -4.2444   -0.7850   -5.5131 C   0  0  0  0  0  0  0  0  0  0  0  0
   -0.9487    6.5217    0.1469 O   0  0  0  0  0  0  0  0  0  0  0  0
    0.0366    6.8663    1.1433 C   0  0  0  0  0  0  0  0  0  0  0  0
    0.7335    5.7210    1.6761 O   0  0  0  0  0  0  0  0  0  0  0  0
   -1.0250   -0.0974   -0.0907 C   0  0  0  0  0  0  0  0  0  0  0  0
   -2.1949   -0.3250    0.1942 O   0  0  0  0  0  0  0  0  0  0  0  0
   -0.3676   -0.7259   -1.1431 N   0  0  0  0  0  0  0  0  0  0  0  0
    0.9404   -0.3033   -1.2554 C   0  0  0  0  0  0  0  0  0  0  0  0
    1.8590   -0.7252   -2.1928 C   0  0  0  0  0  0  0  0  0  0  0  0
    3.1321   -0.1716   -2.1180 C   0  0  0  0  0  0  0  0  0  0  0  0
    4.0652   -0.5568   -2.9994 F   0  0  0  0  0  0  0  0  0  0  0  0
    3.4658    0.7776   -1.1427 C   0  0  0  0  0  0  0  0  0  0  0  0
    2.5127    1.1962   -0.2078 C   0  0  0  0  0  0  0  0  0  0  0  0
    1.2371    0.6410   -0.2682 C   0  0  0  0  0  0  0  0  0  0  0  0
   -1.9068    0.9874    5.2066 O   0  0  0  0  0  0  0  0  0  0  0  0
   -1.4476    0.2539    6.3598 C   0  0  0  0  0  0  0  0  0  0  0  0
   -0.2612   -0.5293    6.1054 O   0  0  0  0  0  0  0  0  0  0  0  0
    3.1384   -7.7622    1.9473 H   0  0  0  0  0  0  0  0  0  0  0  0
    4.0055   -6.5998    3.0960 H   0  0  0  0  0  0  0  0  0  0  0  0
    2.1945   -6.9865   -0.1113 H   0  0  0  0  0  0  0  0  0  0  0  0
    2.9116   -5.5026   -0.7494 H   0  0  0  0  0  0  0  0  0  0  0  0
    1.3784   -5.4421    0.1538 H   0  0  0  0  0  0  0  0  0  0  0  0
    4.1328   -3.9206    0.8360 H   0  0  0  0  0  0  0  0  0  0  0  0
    4.2513   -4.3076    2.5494 H   0  0  0  0  0  0  0  0  0  0  0  0
    1.6391   -3.3698    1.2132 H   0  0  0  0  0  0  0  0  0  0  0  0
    1.4155   -4.6638    3.0689 H   0  0  0  0  0  0  0  0  0  0  0  0
    3.7363   -1.7268    1.4879 H   0  0  0  0  0  0  0  0  0  0  0  0
    3.2905   -1.6960    3.1820 H   0  0  0  0  0  0  0  0  0  0  0  0
    1.6125   -1.5152    4.4544 H   0  0  0  0  0  0  0  0  0  0  0  0
   -1.7668    1.6218    2.5847 H   0  0  0  0  0  0  0  0  0  0  0  0
    1.1193    3.0593    1.8889 H   0  0  0  0  0  0  0  0  0  0  0  0
   -2.3740    4.6780   -1.2637 H   0  0  0  0  0  0  0  0  0  0  0  0
   -1.9898    3.1296   -3.0065 H   0  0  0  0  0  0  0  0  0  0  0  0
   -0.8803    1.7336   -2.8125 H   0  0  0  0  0  0  0  0  0  0  0  0
   -3.9441    1.5074   -2.9935 H   0  0  0  0  0  0  0  0  0  0  0  0
   -2.9461   -0.1025   -1.8399 H   0  0  0  0  0  0  0  0  0  0  0  0
   -1.9064    0.6134   -5.1121 H   0  0  0  0  0  0  0  0  0  0  0  0
   -2.5728    2.2416   -5.1443 H   0  0  0  0  0  0  0  0  0  0  0  0
   -5.6629    1.1422   -6.7923 H   0  0  0  0  0  0  0  0  0  0  0  0
   -4.6302    2.5886   -6.2924 H   0  0  0  0  0  0  0  0  0  0  0  0
   -4.4779   -1.1105   -4.4927 H   0  0  0  0  0  0  0  0  0  0  0  0
   -3.3658   -1.3331   -5.8702 H   0  0  0  0  0  0  0  0  0  0  0  0
   -5.0940   -1.0714   -6.1471 H   0  0  0  0  0  0  0  0  0  0  0  0
   -0.4652    7.3858    1.9682 H   0  0  0  0  0  0  0  0  0  0  0  0
    0.7680    7.5487    0.6934 H   0  0  0  0  0  0  0  0  0  0  0  0
   -0.8433   -1.3707   -1.7608 H   0  0  0  0  0  0  0  0  0  0  0  0
    1.6182   -1.4540   -2.9548 H   0  0  0  0  0  0  0  0  0  0  0  0
    4.4717    1.1830   -1.1199 H   0  0  0  0  0  0  0  0  0  0  0  0
    2.7801    1.9217    0.5537 H   0  0  0  0  0  0  0  0  0  0  0  0
   -1.2329    0.9641    7.1694 H   0  0  0  0  0  0  0  0  0  0  0  0
   -2.2487   -0.4202    6.6821 H   0  0  0  0  0  0  0  0  0  0  0  0
  1  2  2  0
  2  3  1  0
  2  4  1  0
  4  5  1  0
  5  6  1  0
  5  7  1  0
  7  8  1  0
  8  9  1  0
  9 10  2  0
 10 11  1  0
 11 12  2  0
 12 13  1  0
 13 14  2  0
 14 15  1  0
 15 16  1  0
 16 17  2  0
 17 18  1  0
 18 19  2  0
 19 20  1  0
 20 21  2  0
 21 22  1  0
 22 23  1  0
 23 24  1  0
 24 25  1  0
 24 26  1  0
 26 27  1  0
 27 28  2  0
 27 29  1  0
 19 30  1  0
 30 31  1  0
 31 32  1  0
 15 33  1  0
 33 34  2  0
 33 35  1  0
 35 36  1  0
 36 37  2  0
 37 38  1  0
 38 39  1  0
 38 40  2  0
 40 41  1  0
 41 42  2  0
 12 43  1  0
 43 44  1  0
 44 45  1  0
 14  9  1  0
 42 15  1  0
 45 11  1  0
 21 16  1  0
 42 36  1  0
 32 18  1  0
  1 46  1  0
  1 47  1  0
  3 48  1  0
  3 49  1  0
  3 50  1  0
  4 51  1  0
  4 52  1  0
  5 53  1  6
  6 54  1  0
  7 55  1  0
  7 56  1  0
 10 57  1  0
 13 58  1  0
 17 59  1  0
 20 60  1  0
 23 61  1  0
 23 62  1  0
 24 63  1  6
 25 64  1  0
 26 65  1  0
 26 66  1  0
 28 67  1  0
 28 68  1  0
 29 69  1  0
 29 70  1  0
 29 71  1  0
 31 72  1  0
 31 73  1  0
 35 74  1  0
 37 75  1  0
 40 76  1  0
 41 77  1  0
 44 78  1  0
 44 79  1  0
M  END
$$$$
