
     RDKit          3D

 57 60  0  0  0  0  0  0  0  0999 V2000
    9.3652    1.7703    3.2217 C   0  0  0  0  0  0  0  0  0  0  0  0
    8.4235    1.1645    2.1996 C   0  0  0  0  0  0  0  0  0  0  0  0
    7.0887    1.2567    2.7009 O   0  0  0  0  0  0  0  0  0  0  0  0
    6.1283    0.8972    1.7904 C   0  0  0  0  0  0  0  0  0  0  0  0
    4.9743    1.6824    1.7606 C   0  0  0  0  0  0  0  0  0  0  0  0
    3.9360    1.3866    0.8659 C   0  0  0  0  0  0  0  0  0  0  0  0
    4.0326    0.2916    0.0101 C   0  0  0  0  0  0  0  0  0  0  0  0
    3.0612   -0.0573   -0.9478 N   0  0  0  0  0  0  0  0  0  0  0  0
    1.8869    0.6183   -1.2649 C   0  0  0  0  0  0  0  0  0  0  0  0
    1.4617    1.6198   -0.6987 O   0  0  0  0  0  0  0  0  0  0  0  0
    1.2267    0.0048   -2.4961 C   0  0  0  0  0  0  0  0  0  0  0  0
   -0.5112    0.4582   -2.7016 S   0  0  0  0  0  0  0  0  0  0  0  0
   -1.2639   -0.5769   -1.5277 C   0  0  0  0  0  0  0  0  0  0  0  0
   -0.6081   -1.2909   -0.6409 N   0  0  0  0  0  0  0  0  0  0  0  0
   -1.5102   -2.0808    0.0144 N   0  0  0  0  0  0  0  0  0  0  0  0
   -2.7123   -1.8367   -0.4791 C   0  0  0  0  0  0  0  0  0  0  0  0
   -3.9761   -2.4120    0.0766 C   0  0  0  0  0  0  0  0  0  0  0  0
   -4.9067   -1.3869    0.6574 C   0  0  0  0  0  0  0  0  0  0  0  0
   -6.1868   -1.0414    0.2495 C   0  0  0  0  0  0  0  0  0  0  0  0
   -6.6577   -0.0184    1.1051 C   0  0  0  0  0  0  0  0  0  0  0  0
   -5.6671    0.2281    2.0275 C   0  0  0  0  0  0  0  0  0  0  0  0
   -4.6146   -0.6137    1.7641 N   0  0  0  0  0  0  0  0  0  0  0  0
   -3.4027   -0.6583    2.5581 C   0  0  0  0  0  0  0  0  0  0  0  0
   -2.6122   -0.8958   -1.5010 N   0  0  0  0  0  0  0  0  0  0  0  0
   -3.6513   -0.3960   -2.3258 C   0  0  0  0  0  0  0  0  0  0  0  0
   -3.7751    0.9876   -2.5358 C   0  0  0  0  0  0  0  0  0  0  0  0
   -4.8063    1.4826   -3.3360 C   0  0  0  0  0  0  0  0  0  0  0  0
   -5.6977    0.5963   -3.9252 C   0  0  0  0  0  0  0  0  0  0  0  0
   -6.6728    1.0651   -4.7066 F   0  0  0  0  0  0  0  0  0  0  0  0
   -5.5810   -0.7770   -3.7291 C   0  0  0  0  0  0  0  0  0  0  0  0
   -4.5538   -1.2810   -2.9273 C   0  0  0  0  0  0  0  0  0  0  0  0
    5.1801   -0.5107    0.0701 C   0  0  0  0  0  0  0  0  0  0  0  0
    6.2195   -0.2144    0.9566 C   0  0  0  0  0  0  0  0  0  0  0  0
   10.3925    1.7407    2.8604 H   0  0  0  0  0  0  0  0  0  0  0  0
    9.0944    2.8059    3.4273 H   0  0  0  0  0  0  0  0  0  0  0  0
    9.3075    1.2300    4.1746 H   0  0  0  0  0  0  0  0  0  0  0  0
    8.5111    1.7046    1.2510 H   0  0  0  0  0  0  0  0  0  0  0  0
    8.7029    0.1197    2.0444 H   0  0  0  0  0  0  0  0  0  0  0  0
    4.8799    2.5348    2.4295 H   0  0  0  0  0  0  0  0  0  0  0  0
    3.0609    2.0356    0.8675 H   0  0  0  0  0  0  0  0  0  0  0  0
    3.2578   -0.9006   -1.4741 H   0  0  0  0  0  0  0  0  0  0  0  0
    1.7700    0.3707   -3.3713 H   0  0  0  0  0  0  0  0  0  0  0  0
    1.3249   -1.0843   -2.4797 H   0  0  0  0  0  0  0  0  0  0  0  0
   -4.4924   -3.0052   -0.6853 H   0  0  0  0  0  0  0  0  0  0  0  0
   -3.7173   -3.1301    0.8652 H   0  0  0  0  0  0  0  0  0  0  0  0
   -6.7270   -1.4768   -0.5853 H   0  0  0  0  0  0  0  0  0  0  0  0
   -7.6188    0.4823    1.0596 H   0  0  0  0  0  0  0  0  0  0  0  0
   -5.6338    0.9294    2.8512 H   0  0  0  0  0  0  0  0  0  0  0  0
   -2.6574   -0.0137    2.0871 H   0  0  0  0  0  0  0  0  0  0  0  0
   -3.0478   -1.6873    2.6207 H   0  0  0  0  0  0  0  0  0  0  0  0
   -3.6253   -0.3165    3.5704 H   0  0  0  0  0  0  0  0  0  0  0  0
   -3.1070    1.6981   -2.0513 H   0  0  0  0  0  0  0  0  0  0  0  0
   -4.9197    2.5520   -3.4963 H   0  0  0  0  0  0  0  0  0  0  0  0
   -6.2845   -1.4442   -4.2140 H   0  0  0  0  0  0  0  0  0  0  0  0
   -4.4574   -2.3583   -2.8208 H   0  0  0  0  0  0  0  0  0  0  0  0
    5.2844   -1.3813   -0.5685 H   0  0  0  0  0  0  0  0  0  0  0  0
    7.0854   -0.8671    0.9817 H   0  0  0  0  0  0  0  0  0  0  0  0
  1  2  1  0
  2  3  1  0
  3  4  1  0
  4  5  2  0
  5  6  1  0
  6  7  2  0
  7  8  1  0
  8  9  1  0
  9 10  2  0
  9 11  1  0
 11 12  1  0
 12 13  1  0
 13 14  2  0
 14 15  1  0
 15 16  2  0
 16 17  1  0
 17 18  1  0
 18 19  2  0
 19 20  1  0
 20 21  2  0
 21 22  1  0
 22 23  1  0
 16 24  1  0
 24 25  1  0
 25 26  2  0
 26 27  1  0
 27 28  2  0
 28 29  1  0
 28 30  1  0
 30 31  2  0
  7 32  1  0
 32 33  2  0
 33  4  1  0
 24 13  1  0
 31 25  1  0
 22 18  1  0
  1 34  1  0
  1 35  1  0
  1 36  1  0
  2 37  1  0
  2 38  1  0
  5 39  1  0
  6 40  1  0
  8 41  1  0
 11 42  1  0
 11 43  1  0
 17 44  1  0
 17 45  1  0
 19 46  1  0
 20 47  1  0
 21 48  1  0
 23 49  1  0
 23 50  1  0
 23 51  1  0
 26 52  1  0
 27 53  1  0
 30 54  1  0
 31 55  1  0
 32 56  1  0
 33 57  1  0
M  END
$$$$
