
     RDKit          3D

 56 61  0  0  0  0  0  0  0  0999 V2000
   -5.0418   -3.0780    0.7670 C   0  0  0  0  0  0  0  0  0  0  0  0
   -3.8495   -2.2935    1.2251 C   0  0  0  0  0  0  0  0  0  0  0  0
   -3.7618   -1.7825    2.5340 C   0  0  0  0  0  0  0  0  0  0  0  0
   -5.0337   -2.0330    3.6816 Cl  0  0  0  0  0  0  0  0  0  0  0  0
   -2.6380   -1.0528    2.9694 C   0  0  0  0  0  0  0  0  0  0  0  0
   -1.5658   -0.8103    2.1103 C   0  0  0  0  0  0  0  0  0  0  0  0
   -1.6393   -1.3062    0.8188 C   0  0  0  0  0  0  0  0  0  0  0  0
   -2.7615   -2.0390    0.3980 C   0  0  0  0  0  0  0  0  0  0  0  0
   -2.5823   -2.4529   -0.9216 N   0  0  0  0  0  0  0  0  0  0  0  0
   -1.3565   -2.0306   -1.4323 C   0  0  0  0  0  0  0  0  0  0  0  0
   -0.9167   -2.3145   -2.5375 O   0  0  0  0  0  0  0  0  0  0  0  0
   -0.6597   -1.2122   -0.3180 C   0  0  0  0  0  0  0  0  0  0  0  0
    0.7106   -1.7479   -0.0066 N   0  0  0  0  0  0  0  0  0  0  0  0
    1.7235   -0.6313   -0.0934 C   0  0  2  0  0  0  0  0  0  0  0  0
    2.4375   -0.4142    1.2518 C   0  0  0  0  0  0  0  0  0  0  0  0
    3.4596   -1.4846    1.5584 C   0  0  0  0  0  0  0  0  0  0  0  0
    4.8043   -1.3101    1.2034 C   0  0  0  0  0  0  0  0  0  0  0  0
    5.7421   -2.3075    1.4759 C   0  0  0  0  0  0  0  0  0  0  0  0
    5.3453   -3.4879    2.1014 C   0  0  0  0  0  0  0  0  0  0  0  0
    4.0103   -3.6731    2.4545 C   0  0  0  0  0  0  0  0  0  0  0  0
    3.0714   -2.6770    2.1839 C   0  0  0  0  0  0  0  0  0  0  0  0
    0.9113    0.5322   -0.5169 C   0  0  0  0  0  0  0  0  0  0  0  0
   -0.4311    0.1971   -0.6528 C   0  0  0  0  0  0  0  0  0  0  0  0
   -1.1334    1.3117   -1.0233 C   0  0  0  0  0  0  0  0  0  0  0  0
   -2.4542    1.4463   -1.1347 O   0  0  0  0  0  0  0  0  0  0  0  0
   -0.1968    2.3473   -1.2146 N   0  0  0  0  0  0  0  0  0  0  0  0
   -0.4802    3.6511   -1.7319 C   0  0  0  0  0  0  0  0  0  0  0  0
   -1.4960    3.8262   -2.6846 C   0  0  0  0  0  0  0  0  0  0  0  0
   -1.7802    5.0985   -3.1868 C   0  0  0  0  0  0  0  0  0  0  0  0
   -1.0519    6.2018   -2.7480 C   0  0  0  0  0  0  0  0  0  0  0  0
   -0.0317    6.0338   -1.8141 C   0  0  0  0  0  0  0  0  0  0  0  0
    0.2592    4.7631   -1.3103 C   0  0  0  0  0  0  0  0  0  0  0  0
    1.0693    1.8559   -0.8385 C   0  0  0  0  0  0  0  0  0  0  0  0
    2.1739    2.5954   -0.8963 O   0  0  0  0  0  0  0  0  0  0  0  0
   -5.1159   -4.0154    1.3277 H   0  0  0  0  0  0  0  0  0  0  0  0
   -4.9919   -3.3349   -0.2946 H   0  0  0  0  0  0  0  0  0  0  0  0
   -5.9590   -2.4966    0.9069 H   0  0  0  0  0  0  0  0  0  0  0  0
   -2.5989   -0.6708    3.9873 H   0  0  0  0  0  0  0  0  0  0  0  0
   -0.7024   -0.2462    2.4466 H   0  0  0  0  0  0  0  0  0  0  0  0
   -3.2225   -3.0113   -1.4638 H   0  0  0  0  0  0  0  0  0  0  0  0
    0.9361   -2.3887   -0.7715 H   0  0  0  0  0  0  0  0  0  0  0  0
    2.4482   -0.8734   -0.8812 H   0  0  0  0  0  0  0  0  0  0  0  0
    1.7159   -0.3528    2.0772 H   0  0  0  0  0  0  0  0  0  0  0  0
    2.9462    0.5594    1.2524 H   0  0  0  0  0  0  0  0  0  0  0  0
    5.1337   -0.3965    0.7148 H   0  0  0  0  0  0  0  0  0  0  0  0
    6.7836   -2.1644    1.2000 H   0  0  0  0  0  0  0  0  0  0  0  0
    6.0757   -4.2645    2.3122 H   0  0  0  0  0  0  0  0  0  0  0  0
    3.6979   -4.5947    2.9384 H   0  0  0  0  0  0  0  0  0  0  0  0
    2.0299   -2.8382    2.4564 H   0  0  0  0  0  0  0  0  0  0  0  0
   -2.6810    2.3886   -1.0329 H   0  0  0  0  0  0  0  0  0  0  0  0
   -2.0433    2.9796   -3.0945 H   0  0  0  0  0  0  0  0  0  0  0  0
   -2.5596    5.2255   -3.9342 H   0  0  0  0  0  0  0  0  0  0  0  0
   -1.2709    7.1909   -3.1421 H   0  0  0  0  0  0  0  0  0  0  0  0
    0.5412    6.8933   -1.4748 H   0  0  0  0  0  0  0  0  0  0  0  0
    1.0467    4.6731   -0.5670 H   0  0  0  0  0  0  0  0  0  0  0  0
    2.9344    2.0162   -0.7182 H   0  0  0  0  0  0  0  0  0  0  0  0
  1  2  1  0
  2  3  2  0
  3  4  1  0
  3  5  1  0
  5  6  2  0
  6  7  1  0
  7  8  2  0
  8  9  1  0
  9 10  1  0
 10 11  2  0
 10 12  1  0
 12 13  1  0
 13 14  1  0
 14 15  1  0
 15 16  1  0
 16 17  2  0
 17 18  1  0
 18 19  2  0
 19 20  1  0
 20 21  2  0
 14 22  1  0
 22 23  1  0
 23 24  2  0
 24 25  1  0
 24 26  1  0
 26 27  1  0
 27 28  2  0
 28 29  1  0
 29 30  2  0
 30 31  1  0
 31 32  2  0
 26 33  1  0
 33 34  1  0
  8  2  1  0
 23 12  1  0
 32 27  1  0
 12  7  1  0
 21 16  1  0
 33 22  2  0
  1 35  1  0
  1 36  1  0
  1 37  1  0
  5 38  1  0
  6 39  1  0
  9 40  1  0
 13 41  1  0
 14 42  1  6
 15 43  1  0
 15 44  1  0
 17 45  1  0
 18 46  1  0
 19 47  1  0
 20 48  1  0
 21 49  1  0
 25 50  1  0
 28 51  1  0
 29 52  1  0
 30 53  1  0
 31 54  1  0
 32 55  1  0
 34 56  1  0
M  END
$$$$
