
     RDKit          3D

 33 33  0  0  0  0  0  0  0  0999 V2000
   -3.6818    0.4147   -1.3775 C   0  0  0  0  0  0  0  0  0  0  0  0
   -3.0539   -0.0193   -0.0495 C   0  0  0  0  0  0  0  0  0  0  0  0
   -4.1428   -0.1307    1.0187 C   0  0  0  0  0  0  0  0  0  0  0  0
   -2.3496   -1.2875   -0.2748 N   0  0  0  0  0  0  0  0  0  0  0  0
   -1.6168   -1.8202    0.8735 C   0  0  0  0  0  0  0  0  0  0  0  0
   -0.4929   -0.9439    1.4291 C   0  0  0  0  0  0  0  0  0  0  0  0
    0.6076   -0.6497    0.4140 C   0  0  0  0  0  0  0  0  0  0  0  0
    1.6216    0.1028    1.0808 O   0  0  0  0  0  0  0  0  0  0  0  0
    2.7156    0.4951    0.3571 C   0  0  0  0  0  0  0  0  0  0  0  0
    2.9280    0.1830   -0.9901 C   0  0  0  0  0  0  0  0  0  0  0  0
    4.0802    0.6286   -1.6475 C   0  0  0  0  0  0  0  0  0  0  0  0
    5.0253    1.3874   -0.9616 C   0  0  0  0  0  0  0  0  0  0  0  0
    6.4384    1.9308   -1.7780 Cl  0  0  0  0  0  0  0  0  0  0  0  0
    4.8332    1.7075    0.3779 C   0  0  0  0  0  0  0  0  0  0  0  0
    3.6816    1.2612    1.0325 C   0  0  0  0  0  0  0  0  0  0  0  0
    3.4718    1.7296    2.8639 Br  0  0  0  0  0  0  0  0  0  0  0  0
   -4.1990    1.3740   -1.2659 H   0  0  0  0  0  0  0  0  0  0  0  0
   -4.4107   -0.3204   -1.7375 H   0  0  0  0  0  0  0  0  0  0  0  0
   -2.9174    0.5423   -2.1523 H   0  0  0  0  0  0  0  0  0  0  0  0
   -2.3426    0.7614    0.2429 H   0  0  0  0  0  0  0  0  0  0  0  0
   -4.7162    0.8008    1.0841 H   0  0  0  0  0  0  0  0  0  0  0  0
   -3.7177   -0.3159    2.0102 H   0  0  0  0  0  0  0  0  0  0  0  0
   -4.8458   -0.9397    0.7909 H   0  0  0  0  0  0  0  0  0  0  0  0
   -1.7315   -1.1999   -1.0794 H   0  0  0  0  0  0  0  0  0  0  0  0
   -2.3151   -2.0679    1.6807 H   0  0  0  0  0  0  0  0  0  0  0  0
   -1.1863   -2.7814    0.5664 H   0  0  0  0  0  0  0  0  0  0  0  0
   -0.8887   -0.0031    1.8299 H   0  0  0  0  0  0  0  0  0  0  0  0
   -0.0461   -1.4528    2.2934 H   0  0  0  0  0  0  0  0  0  0  0  0
    0.2014   -0.0639   -0.4183 H   0  0  0  0  0  0  0  0  0  0  0  0
    1.0245   -1.5938    0.0438 H   0  0  0  0  0  0  0  0  0  0  0  0
    2.2186   -0.4070   -1.5613 H   0  0  0  0  0  0  0  0  0  0  0  0
    4.2326    0.3784   -2.6947 H   0  0  0  0  0  0  0  0  0  0  0  0
    5.5745    2.2995    0.9076 H   0  0  0  0  0  0  0  0  0  0  0  0
  1  2  1  0
  2  3  1  0
  2  4  1  0
  4  5  1  0
  5  6  1  0
  6  7  1  0
  7  8  1  0
  8  9  1  0
  9 10  2  0
 10 11  1  0
 11 12  2  0
 12 13  1  0
 12 14  1  0
 14 15  2  0
 15 16  1  0
 15  9  1  0
  1 17  1  0
  1 18  1  0
  1 19  1  0
  2 20  1  0
  3 21  1  0
  3 22  1  0
  3 23  1  0
  4 24  1  0
  5 25  1  0
  5 26  1  0
  6 27  1  0
  6 28  1  0
  7 29  1  0
  7 30  1  0
 10 31  1  0
 11 32  1  0
 14 33  1  0
M  END
$$$$
