
     RDKit          3D

 46 49  0  0  0  0  0  0  0  0999 V2000
   -6.1579    1.7400   -0.5104 C   0  0  0  0  0  0  0  0  0  0  0  0
   -4.9082    2.0508   -1.3154 C   0  0  0  0  0  0  0  0  0  0  0  0
   -3.7348    1.6785   -0.5919 O   0  0  0  0  0  0  0  0  0  0  0  0
   -3.2373    0.4098   -0.7498 C   0  0  0  0  0  0  0  0  0  0  0  0
   -3.8424   -0.6315   -1.4478 C   0  0  0  0  0  0  0  0  0  0  0  0
   -3.2222   -1.8801   -1.5074 C   0  0  0  0  0  0  0  0  0  0  0  0
   -1.9943   -2.0895   -0.8732 C   0  0  0  0  0  0  0  0  0  0  0  0
   -1.3497   -1.0584   -0.1641 C   0  0  0  0  0  0  0  0  0  0  0  0
   -0.0555   -1.3078    0.4811 C   0  0  0  0  0  0  0  0  0  0  0  0
    0.0691   -2.4651    1.1744 N   0  0  0  0  0  0  0  0  0  0  0  0
    1.2804   -2.6954    1.7403 C   0  0  0  0  0  0  0  0  0  0  0  0
    1.4332   -3.9587    2.5141 C   0  0  0  0  0  0  0  0  0  0  0  0
    0.3141   -4.7432    2.5924 N   0  0  0  0  0  0  0  0  0  0  0  0
    2.4865   -4.2785    3.0508 O   0  0  0  0  0  0  0  0  0  0  0  0
    2.3183   -1.8216    1.6096 C   0  0  0  0  0  0  0  0  0  0  0  0
    3.6266   -1.8398    2.0658 N   0  0  0  0  0  0  0  0  0  0  0  0
    4.2727   -0.6801    1.6172 C   0  0  0  0  0  0  0  0  0  0  0  0
    5.4377   -0.4237    1.8724 O   0  0  0  0  0  0  0  0  0  0  0  0
    3.3068    0.0608    0.8700 N   0  0  0  0  0  0  0  0  0  0  0  0
    3.4994    1.3107    0.2203 C   0  0  0  0  0  0  0  0  0  0  0  0
    2.4359    2.0713   -0.2959 C   0  0  0  0  0  0  0  0  0  0  0  0
    2.6479    3.3016   -0.9327 C   0  0  0  0  0  0  0  0  0  0  0  0
    3.9353    3.8051   -1.0670 C   0  0  0  0  0  0  0  0  0  0  0  0
    5.0020    3.0750   -0.5594 C   0  0  0  0  0  0  0  0  0  0  0  0
    6.6026    3.6899   -0.7229 Cl  0  0  0  0  0  0  0  0  0  0  0  0
    4.7905    1.8472    0.0774 C   0  0  0  0  0  0  0  0  0  0  0  0
    2.0969   -0.6798    0.8790 C   0  0  0  0  0  0  0  0  0  0  0  0
    0.9323   -0.4091    0.2857 N   0  0  0  0  0  0  0  0  0  0  0  0
   -2.0040    0.1825   -0.1099 C   0  0  0  0  0  0  0  0  0  0  0  0
   -1.4584    1.2193    0.6122 O   0  0  0  0  0  0  0  0  0  0  0  0
   -6.1117    2.2251    0.4703 H   0  0  0  0  0  0  0  0  0  0  0  0
   -7.0519    2.0908   -1.0339 H   0  0  0  0  0  0  0  0  0  0  0  0
   -6.2604    0.6663   -0.3275 H   0  0  0  0  0  0  0  0  0  0  0  0
   -4.9382    1.6185   -2.3215 H   0  0  0  0  0  0  0  0  0  0  0  0
   -4.8508    3.1360   -1.4578 H   0  0  0  0  0  0  0  0  0  0  0  0
   -4.7989   -0.5157   -1.9454 H   0  0  0  0  0  0  0  0  0  0  0  0
   -3.6957   -2.6955   -2.0498 H   0  0  0  0  0  0  0  0  0  0  0  0
   -1.5301   -3.0725   -0.9415 H   0  0  0  0  0  0  0  0  0  0  0  0
    0.3399   -5.5903    3.1423 H   0  0  0  0  0  0  0  0  0  0  0  0
   -0.5599   -4.4287    2.1861 H   0  0  0  0  0  0  0  0  0  0  0  0
    4.0513   -2.5698    2.6258 H   0  0  0  0  0  0  0  0  0  0  0  0
    1.4022    1.7532   -0.2018 H   0  0  0  0  0  0  0  0  0  0  0  0
    1.7992    3.8627   -1.3162 H   0  0  0  0  0  0  0  0  0  0  0  0
    4.0991    4.7586   -1.5604 H   0  0  0  0  0  0  0  0  0  0  0  0
    5.6658    1.3180    0.4416 H   0  0  0  0  0  0  0  0  0  0  0  0
   -2.0835    1.9632    0.5074 H   0  0  0  0  0  0  0  0  0  0  0  0
  1  2  1  0
  2  3  1  0
  3  4  1  0
  4  5  2  0
  5  6  1  0
  6  7  2  0
  7  8  1  0
  8  9  1  0
  9 10  2  0
 10 11  1  0
 11 12  1  0
 12 13  1  0
 12 14  2  0
 11 15  2  0
 15 16  1  0
 16 17  1  0
 17 18  2  0
 17 19  1  0
 19 20  1  0
 20 21  2  0
 21 22  1  0
 22 23  2  0
 23 24  1  0
 24 25  1  0
 24 26  2  0
 19 27  1  0
 27 28  2  0
  8 29  2  0
 29 30  1  0
 29  4  1  0
 28  9  1  0
 27 15  1  0
 26 20  1  0
  1 31  1  0
  1 32  1  0
  1 33  1  0
  2 34  1  0
  2 35  1  0
  5 36  1  0
  6 37  1  0
  7 38  1  0
 13 39  1  0
 13 40  1  0
 16 41  1  0
 21 42  1  0
 22 43  1  0
 23 44  1  0
 26 45  1  0
 30 46  1  0
M  END
$$$$
