
     RDKit          3D

 59 62  0  0  0  0  0  0  0  0999 V2000
   -2.9669   -1.0709    0.4253 C   0  0  0  0  0  0  0  0  0  0  0  0
   -2.3300   -0.5206   -0.7346 O   0  0  0  0  0  0  0  0  0  0  0  0
   -3.2665    0.0125   -1.5870 C   0  0  0  0  0  0  0  0  0  0  0  0
   -3.7314   -0.7979   -2.6406 C   0  0  0  0  0  0  0  0  0  0  0  0
   -3.2244   -2.1991   -2.8360 C   0  0  0  0  0  0  0  0  0  0  0  0
   -4.7100   -0.2904   -3.5057 C   0  0  0  0  0  0  0  0  0  0  0  0
   -5.1831    1.0106   -3.3454 C   0  0  0  0  0  0  0  0  0  0  0  0
   -6.5004    1.6776   -4.5265 Br  0  0  0  0  0  0  0  0  0  0  0  0
   -4.6838    1.8284   -2.3348 C   0  0  0  0  0  0  0  0  0  0  0  0
   -3.7039    1.3449   -1.4534 C   0  0  0  0  0  0  0  0  0  0  0  0
   -3.1845    2.3067   -0.4273 C   0  0  0  0  0  0  0  0  0  0  0  0
   -3.8709    3.2849   -0.1489 O   0  0  0  0  0  0  0  0  0  0  0  0
   -1.9498    2.0101    0.1004 N   0  0  0  0  0  0  0  0  0  0  0  0
   -1.2128    2.6944    1.0913 C   0  0  0  0  0  0  0  0  0  0  0  0
   -1.6576    3.8659    1.7080 C   0  0  0  0  0  0  0  0  0  0  0  0
   -0.9032    4.4521    2.7235 C   0  0  0  0  0  0  0  0  0  0  0  0
    0.2931    3.8687    3.1278 C   0  0  0  0  0  0  0  0  0  0  0  0
    0.7487    2.7006    2.5105 C   0  0  0  0  0  0  0  0  0  0  0  0
    0.0198    2.0975    1.4775 C   0  0  0  0  0  0  0  0  0  0  0  0
    0.4563    0.9382    0.8102 N   0  0  0  0  0  0  0  0  0  0  0  0
    1.0733   -0.1570    1.5911 C   0  0  0  0  0  0  0  0  0  0  0  0
    2.6191   -0.1305    1.5860 C   0  0  0  0  0  0  0  0  0  0  0  0
    3.1467    0.0542    0.2274 N   0  0  0  0  0  0  0  0  0  0  0  0
    3.4334   -1.0314   -0.6045 C   0  0  0  0  0  0  0  0  0  0  0  0
    3.2528   -1.0149   -1.8201 O   0  0  0  0  0  0  0  0  0  0  0  0
    4.0014   -2.2599   -0.0004 C   0  0  0  0  0  0  0  0  0  0  0  0
    5.0786   -2.1885    0.8909 C   0  0  0  0  0  0  0  0  0  0  0  0
    5.6071   -3.3606    1.4331 C   0  0  0  0  0  0  0  0  0  0  0  0
    5.0696   -4.5986    1.0750 C   0  0  0  0  0  0  0  0  0  0  0  0
    4.0117   -4.6703    0.1676 C   0  0  0  0  0  0  0  0  0  0  0  0
    3.4805   -3.5014   -0.3783 C   0  0  0  0  0  0  0  0  0  0  0  0
    2.6165    1.2588   -0.4183 C   0  0  0  0  0  0  0  0  0  0  0  0
    1.0819    1.1932   -0.5183 C   0  0  0  0  0  0  0  0  0  0  0  0
   -2.1814   -1.4491    1.0861 H   0  0  0  0  0  0  0  0  0  0  0  0
   -3.5336   -0.3109    0.9733 H   0  0  0  0  0  0  0  0  0  0  0  0
   -3.6192   -1.9083    0.1580 H   0  0  0  0  0  0  0  0  0  0  0  0
   -3.4585   -2.5689   -3.8404 H   0  0  0  0  0  0  0  0  0  0  0  0
   -3.6836   -2.8737   -2.1078 H   0  0  0  0  0  0  0  0  0  0  0  0
   -2.1356   -2.2362   -2.7287 H   0  0  0  0  0  0  0  0  0  0  0  0
   -5.0989   -0.9110   -4.3105 H   0  0  0  0  0  0  0  0  0  0  0  0
   -5.0461    2.8498   -2.2347 H   0  0  0  0  0  0  0  0  0  0  0  0
   -1.4991    1.1435   -0.1914 H   0  0  0  0  0  0  0  0  0  0  0  0
   -2.5928    4.3370    1.4241 H   0  0  0  0  0  0  0  0  0  0  0  0
   -1.2575    5.3619    3.2019 H   0  0  0  0  0  0  0  0  0  0  0  0
    0.8768    4.3263    3.9223 H   0  0  0  0  0  0  0  0  0  0  0  0
    1.6935    2.2905    2.8438 H   0  0  0  0  0  0  0  0  0  0  0  0
    0.7460   -1.0972    1.1278 H   0  0  0  0  0  0  0  0  0  0  0  0
    0.6947   -0.1770    2.6206 H   0  0  0  0  0  0  0  0  0  0  0  0
    2.9825   -1.0539    2.0409 H   0  0  0  0  0  0  0  0  0  0  0  0
    3.0025    0.6978    2.1891 H   0  0  0  0  0  0  0  0  0  0  0  0
    5.5127   -1.2272    1.1529 H   0  0  0  0  0  0  0  0  0  0  0  0
    6.4439   -3.3109    2.1250 H   0  0  0  0  0  0  0  0  0  0  0  0
    5.4869   -5.5117    1.4935 H   0  0  0  0  0  0  0  0  0  0  0  0
    3.6083   -5.6371   -0.1228 H   0  0  0  0  0  0  0  0  0  0  0  0
    2.6679   -3.5563   -1.0992 H   0  0  0  0  0  0  0  0  0  0  0  0
    3.0549    1.3792   -1.4148 H   0  0  0  0  0  0  0  0  0  0  0  0
    2.9262    2.1200    0.1855 H   0  0  0  0  0  0  0  0  0  0  0  0
    0.7934    0.3670   -1.1799 H   0  0  0  0  0  0  0  0  0  0  0  0
    0.7043    2.1132   -0.9798 H   0  0  0  0  0  0  0  0  0  0  0  0
  1  2  1  0
  2  3  1  0
  3  4  2  0
  4  5  1  0
  4  6  1  0
  6  7  2  0
  7  8  1  0
  7  9  1  0
  9 10  2  0
 10 11  1  0
 11 12  2  0
 11 13  1  0
 13 14  1  0
 14 15  2  0
 15 16  1  0
 16 17  2  0
 17 18  1  0
 18 19  2  0
 19 20  1  0
 20 21  1  0
 21 22  1  0
 22 23  1  0
 23 24  1  0
 24 25  2  0
 24 26  1  0
 26 27  2  0
 27 28  1  0
 28 29  2  0
 29 30  1  0
 30 31  2  0
 23 32  1  0
 32 33  1  0
 10  3  1  0
 19 14  1  0
 33 20  1  0
 31 26  1  0
  1 34  1  0
  1 35  1  0
  1 36  1  0
  5 37  1  0
  5 38  1  0
  5 39  1  0
  6 40  1  0
  9 41  1  0
 13 42  1  0
 15 43  1  0
 16 44  1  0
 17 45  1  0
 18 46  1  0
 21 47  1  0
 21 48  1  0
 22 49  1  0
 22 50  1  0
 27 51  1  0
 28 52  1  0
 29 53  1  0
 30 54  1  0
 31 55  1  0
 32 56  1  0
 32 57  1  0
 33 58  1  0
 33 59  1  0
M  END
$$$$
