
     RDKit          3D

 59 62  0  0  0  0  0  0  0  0999 V2000
    5.4943   -0.1875    5.5975 C   0  0  0  0  0  0  0  0  0  0  0  0
    4.8980    0.0158    4.2364 C   0  0  0  0  0  0  0  0  0  0  0  0
    5.2092   -0.8540    3.1863 C   0  0  0  0  0  0  0  0  0  0  0  0
    4.6775   -0.6522    1.9063 C   0  0  0  0  0  0  0  0  0  0  0  0
    3.8425    0.4411    1.6512 C   0  0  0  0  0  0  0  0  0  0  0  0
    3.2648    0.6822    0.3658 N   0  0  0  0  0  0  0  0  0  0  0  0
    2.1816    1.5027    0.2842 N   0  0  0  0  0  0  0  0  0  0  0  0
    1.7295    1.3579   -0.9630 C   0  0  0  0  0  0  0  0  0  0  0  0
    0.5309    1.9672   -1.5240 C   0  0  0  0  0  0  0  0  0  0  0  0
   -0.2446    2.6685   -0.8768 O   0  0  0  0  0  0  0  0  0  0  0  0
    0.3461    1.6500   -2.8865 N   0  0  0  0  0  0  0  0  0  0  0  0
   -0.8279    2.1569   -3.5902 C   0  0  0  0  0  0  0  0  0  0  0  0
   -1.9616    1.1337   -3.6676 C   0  0  0  0  0  0  0  0  0  0  0  0
   -2.5689    0.8160   -2.3022 C   0  0  0  0  0  0  0  0  0  0  0  0
   -3.7577   -0.1181   -2.4068 C   0  0  0  0  0  0  0  0  0  0  0  0
   -4.1860   -0.5649   -3.4649 O   0  0  0  0  0  0  0  0  0  0  0  0
   -4.3029   -0.4244   -1.1820 N   0  0  0  0  0  0  0  0  0  0  0  0
   -5.5178   -1.1988   -1.0915 C   0  0  0  0  0  0  0  0  0  0  0  0
   -5.7167   -1.5960    0.3215 C   0  0  0  0  0  0  0  0  0  0  0  0
   -5.6024   -2.7937    0.9955 C   0  0  0  0  0  0  0  0  0  0  0  0
   -5.9124   -2.5218    2.3499 C   0  0  0  0  0  0  0  0  0  0  0  0
   -6.1936   -1.1747    2.4212 C   0  0  0  0  0  0  0  0  0  0  0  0
   -6.5842   -0.2740    3.5236 C   0  0  0  0  0  0  0  0  0  0  0  0
   -6.0752   -0.6050    1.1897 O   0  0  0  0  0  0  0  0  0  0  0  0
    1.1844    0.8199   -3.6392 N   0  0  0  0  0  0  0  0  0  0  0  0
    2.2477    0.2794   -3.1134 C   0  0  0  0  0  0  0  0  0  0  0  0
    3.1010   -0.6040   -3.9781 C   0  0  0  0  0  0  0  0  0  0  0  0
    2.5666    0.5435   -1.7319 C   0  0  0  0  0  0  0  0  0  0  0  0
    3.6170    0.1944   -0.8993 C   0  0  0  0  0  0  0  0  0  0  0  0
    4.8973   -0.4893   -1.2169 C   0  0  0  0  0  0  0  0  0  0  0  0
    3.5219    1.3059    2.7108 C   0  0  0  0  0  0  0  0  0  0  0  0
    4.0560    1.1024    3.9867 C   0  0  0  0  0  0  0  0  0  0  0  0
    4.8222    0.1840    6.3782 H   0  0  0  0  0  0  0  0  0  0  0  0
    6.4491    0.3424    5.6708 H   0  0  0  0  0  0  0  0  0  0  0  0
    5.6637   -1.2512    5.7949 H   0  0  0  0  0  0  0  0  0  0  0  0
    5.8594   -1.7090    3.3613 H   0  0  0  0  0  0  0  0  0  0  0  0
    4.9057   -1.3981    1.1548 H   0  0  0  0  0  0  0  0  0  0  0  0
   -0.5119    2.4308   -4.6040 H   0  0  0  0  0  0  0  0  0  0  0  0
   -1.1819    3.0752   -3.1080 H   0  0  0  0  0  0  0  0  0  0  0  0
   -1.6017    0.2083   -4.1346 H   0  0  0  0  0  0  0  0  0  0  0  0
   -2.7427    1.5332   -4.3267 H   0  0  0  0  0  0  0  0  0  0  0  0
   -1.8249    0.3353   -1.6574 H   0  0  0  0  0  0  0  0  0  0  0  0
   -2.9041    1.7409   -1.8182 H   0  0  0  0  0  0  0  0  0  0  0  0
   -4.0664    0.1547   -0.3850 H   0  0  0  0  0  0  0  0  0  0  0  0
   -6.3481   -0.5783   -1.4447 H   0  0  0  0  0  0  0  0  0  0  0  0
   -5.4414   -2.0742   -1.7451 H   0  0  0  0  0  0  0  0  0  0  0  0
   -5.3245   -3.7441    0.5608 H   0  0  0  0  0  0  0  0  0  0  0  0
   -5.9271   -3.2207    3.1746 H   0  0  0  0  0  0  0  0  0  0  0  0
   -6.0112    0.6581    3.4849 H   0  0  0  0  0  0  0  0  0  0  0  0
   -7.6486   -0.0286    3.4546 H   0  0  0  0  0  0  0  0  0  0  0  0
   -6.4027   -0.7434    4.4956 H   0  0  0  0  0  0  0  0  0  0  0  0
    2.5786   -0.8436   -4.9093 H   0  0  0  0  0  0  0  0  0  0  0  0
    3.3291   -1.5380   -3.4579 H   0  0  0  0  0  0  0  0  0  0  0  0
    4.0296   -0.0835   -4.2267 H   0  0  0  0  0  0  0  0  0  0  0  0
    5.2106   -0.2743   -2.2424 H   0  0  0  0  0  0  0  0  0  0  0  0
    5.7169   -0.1391   -0.5828 H   0  0  0  0  0  0  0  0  0  0  0  0
    4.7937   -1.5739   -1.1185 H   0  0  0  0  0  0  0  0  0  0  0  0
    2.8626    2.1595    2.5563 H   0  0  0  0  0  0  0  0  0  0  0  0
    3.8018    1.7986    4.7831 H   0  0  0  0  0  0  0  0  0  0  0  0
  1  2  1  0
  2  3  2  0
  3  4  1  0
  4  5  2  0
  5  6  1  0
  6  7  1  0
  7  8  2  0
  8  9  1  0
  9 10  2  0
  9 11  1  0
 11 12  1  0
 12 13  1  0
 13 14  1  0
 14 15  1  0
 15 16  2  0
 15 17  1  0
 17 18  1  0
 18 19  1  0
 19 20  2  0
 20 21  1  0
 21 22  2  0
 22 23  1  0
 22 24  1  0
 11 25  1  0
 25 26  2  0
 26 27  1  0
 26 28  1  0
 28 29  2  0
 29 30  1  0
  5 31  1  0
 31 32  2  0
 32  2  1  0
 29  6  1  0
 28  8  1  0
 24 19  1  0
  1 33  1  0
  1 34  1  0
  1 35  1  0
  3 36  1  0
  4 37  1  0
 12 38  1  0
 12 39  1  0
 13 40  1  0
 13 41  1  0
 14 42  1  0
 14 43  1  0
 17 44  1  0
 18 45  1  0
 18 46  1  0
 20 47  1  0
 21 48  1  0
 23 49  1  0
 23 50  1  0
 23 51  1  0
 27 52  1  0
 27 53  1  0
 27 54  1  0
 30 55  1  0
 30 56  1  0
 30 57  1  0
 31 58  1  0
 32 59  1  0
M  END
$$$$
