
     RDKit          3D

 32 34  0  0  0  0  0  0  0  0999 V2000
   -0.4882   -1.6854    0.5536 O   0  0  0  0  0  0  0  0  0  0  0  0
   -0.3794   -0.5355    0.1584 C   0  0  0  0  0  0  0  0  0  0  0  0
   -1.5356    0.3434   -0.2265 C   0  0  0  0  0  0  0  0  0  0  0  0
   -2.9651    0.0378   -0.1546 C   0  0  0  0  0  0  0  0  0  0  0  0
   -3.8789    0.6680   -1.0157 C   0  0  0  0  0  0  0  0  0  0  0  0
   -5.2456    0.3802   -0.9513 C   0  0  0  0  0  0  0  0  0  0  0  0
   -5.7204   -0.5452   -0.0265 C   0  0  0  0  0  0  0  0  0  0  0  0
   -4.8293   -1.1846    0.8304 C   0  0  0  0  0  0  0  0  0  0  0  0
   -3.4626   -0.8961    0.7650 C   0  0  0  0  0  0  0  0  0  0  0  0
   -0.9539    1.4988   -0.5829 C   0  0  0  0  0  0  0  0  0  0  0  0
    0.4215    1.4939   -0.5334 N   0  0  0  0  0  0  0  0  0  0  0  0
    0.7792    0.2321   -0.0336 N   0  0  0  0  0  0  0  0  0  0  0  0
    2.1368   -0.1364    0.0930 C   0  0  0  0  0  0  0  0  0  0  0  0
    2.5072   -1.3855    0.6130 C   0  0  0  0  0  0  0  0  0  0  0  0
    3.8525   -1.7521    0.7420 C   0  0  0  0  0  0  0  0  0  0  0  0
    4.8582   -0.8731    0.3515 C   0  0  0  0  0  0  0  0  0  0  0  0
    4.5039    0.3742   -0.1707 C   0  0  0  0  0  0  0  0  0  0  0  0
    5.5544    1.3114   -0.5849 N   0  0  0  0  0  4  0  0  0  0  0  0
    5.2105    2.4616   -0.8935 O   0  0  0  0  0  0  0  0  0  0  0  0
    6.7233    0.9005   -0.5954 O   0  0  0  0  0  1  0  0  0  0  0  0
    3.1558    0.7443   -0.3023 C   0  0  0  0  0  0  0  0  0  0  0  0
   -3.5393    1.3832   -1.7614 H   0  0  0  0  0  0  0  0  0  0  0  0
   -5.9373    0.8751   -1.6283 H   0  0  0  0  0  0  0  0  0  0  0  0
   -6.7821   -0.7727    0.0229 H   0  0  0  0  0  0  0  0  0  0  0  0
   -5.1934   -1.9130    1.5506 H   0  0  0  0  0  0  0  0  0  0  0  0
   -2.7945   -1.4149    1.4500 H   0  0  0  0  0  0  0  0  0  0  0  0
   -1.4471    2.4202   -0.8637 H   0  0  0  0  0  0  0  0  0  0  0  0
    0.7780    2.2659    0.0338 H   0  0  0  0  0  0  0  0  0  0  0  0
    1.7584   -2.1059    0.9347 H   0  0  0  0  0  0  0  0  0  0  0  0
    4.1076   -2.7287    1.1487 H   0  0  0  0  0  0  0  0  0  0  0  0
    5.8990   -1.1719    0.4579 H   0  0  0  0  0  0  0  0  0  0  0  0
    2.9065    1.7106   -0.7330 H   0  0  0  0  0  0  0  0  0  0  0  0
  1  2  2  0
  2  3  1  0
  3  4  1  0
  4  5  2  0
  5  6  1  0
  6  7  2  0
  7  8  1  0
  8  9  2  0
  3 10  2  0
 10 11  1  0
 11 12  1  0
 12 13  1  0
 13 14  2  0
 14 15  1  0
 15 16  2  0
 16 17  1  0
 17 18  1  0
 18 19  2  0
 18 20  1  0
 17 21  2  0
 12  2  1  0
 21 13  1  0
  9  4  1  0
  5 22  1  0
  6 23  1  0
  7 24  1  0
  8 25  1  0
  9 26  1  0
 10 27  1  0
 11 28  1  0
 14 29  1  0
 15 30  1  0
 16 31  1  0
 21 32  1  0
M  CHG  2  18   1  20  -1
M  END
$$$$
