
     RDKit          3D

 54 58  0  0  0  0  0  0  0  0999 V2000
    5.9324    1.3891   -3.2584 F   0  0  0  0  0  0  0  0  0  0  0  0
    5.4191    0.3107   -2.5993 C   0  0  0  0  0  0  0  0  0  0  0  0
    6.2384   -0.7321   -2.9114 F   0  0  0  0  0  0  0  0  0  0  0  0
    4.2300    0.0473   -3.2097 F   0  0  0  0  0  0  0  0  0  0  0  0
    5.2854    0.5196   -1.1061 C   0  0  0  0  0  0  0  0  0  0  0  0
    5.8246    1.6891   -0.5334 C   0  0  0  0  0  0  0  0  0  0  0  0
    5.7593    1.9165    0.8410 C   0  0  0  0  0  0  0  0  0  0  0  0
    5.1605    0.9760    1.6697 C   0  0  0  0  0  0  0  0  0  0  0  0
    4.6237   -0.1889    1.1245 C   0  0  0  0  0  0  0  0  0  0  0  0
    4.6691   -0.4325   -0.2610 C   0  0  0  0  0  0  0  0  0  0  0  0
    4.0526   -1.7155   -0.7802 C   0  0  0  0  0  0  0  0  0  0  0  0
    2.5792   -1.6360   -1.2353 C   0  0  0  0  0  0  0  0  0  0  0  0
    1.6186   -1.5318   -0.1226 N   0  0  0  0  0  0  0  0  0  0  0  0
    1.3467   -0.1273    0.2728 C   0  0  0  0  0  0  0  0  0  0  0  0
   -0.0643    0.4049   -0.0619 C   0  0  0  0  0  0  0  0  0  0  0  0
   -1.1140   -0.4564    0.5082 N   0  0  0  0  0  0  0  0  0  0  0  0
   -2.4312   -0.0055    0.5140 C   0  0  0  0  0  0  0  0  0  0  0  0
   -2.7303    1.0270   -0.2372 N   0  0  0  0  0  0  0  0  0  0  0  0
   -4.0497    1.5110   -0.3112 C   0  0  0  0  0  0  0  0  0  0  0  0
   -4.3094    2.6036   -1.1410 C   0  0  0  0  0  0  0  0  0  0  0  0
   -5.6035    3.1170   -1.2616 C   0  0  0  0  0  0  0  0  0  0  0  0
   -6.6548    2.5384   -0.5498 C   0  0  0  0  0  0  0  0  0  0  0  0
   -6.4179    1.4461    0.2856 C   0  0  0  0  0  0  0  0  0  0  0  0
   -5.1176    0.9435    0.3953 C   0  0  0  0  0  0  0  0  0  0  0  0
   -4.7875   -0.1418    1.2226 N   0  0  0  0  0  0  0  0  0  0  0  0
   -5.5970   -0.8830    2.0508 C   0  0  0  0  0  0  0  0  0  0  0  0
   -4.8097   -1.7924    2.7210 C   0  0  0  0  0  0  0  0  0  0  0  0
   -3.4818   -1.6061    2.2715 C   0  0  0  0  0  0  0  0  0  0  0  0
   -3.4922   -0.6071    1.3127 C   0  0  0  0  0  0  0  0  0  0  0  0
   -0.7948   -1.8912    0.5212 C   0  0  0  0  0  0  0  0  0  0  0  0
    0.3568   -2.2303   -0.4491 C   0  0  0  0  0  0  0  0  0  0  0  0
    6.3088    2.4352   -1.1631 H   0  0  0  0  0  0  0  0  0  0  0  0
    6.1810    2.8249    1.2640 H   0  0  0  0  0  0  0  0  0  0  0  0
    5.1096    1.1467    2.7421 H   0  0  0  0  0  0  0  0  0  0  0  0
    4.1518   -0.9124    1.7886 H   0  0  0  0  0  0  0  0  0  0  0  0
    4.6561   -2.0835   -1.6188 H   0  0  0  0  0  0  0  0  0  0  0  0
    4.1522   -2.4982   -0.0152 H   0  0  0  0  0  0  0  0  0  0  0  0
    2.3954   -2.5772   -1.7719 H   0  0  0  0  0  0  0  0  0  0  0  0
    2.4196   -0.8373   -1.9687 H   0  0  0  0  0  0  0  0  0  0  0  0
    1.4751   -0.0786    1.3617 H   0  0  0  0  0  0  0  0  0  0  0  0
    2.0787    0.5679   -0.1521 H   0  0  0  0  0  0  0  0  0  0  0  0
   -0.1539    1.4179    0.3489 H   0  0  0  0  0  0  0  0  0  0  0  0
   -0.1860    0.4723   -1.1503 H   0  0  0  0  0  0  0  0  0  0  0  0
   -3.4926    3.0546   -1.6981 H   0  0  0  0  0  0  0  0  0  0  0  0
   -5.7885    3.9681   -1.9119 H   0  0  0  0  0  0  0  0  0  0  0  0
   -7.6601    2.9413   -0.6459 H   0  0  0  0  0  0  0  0  0  0  0  0
   -7.2506    1.0154    0.8312 H   0  0  0  0  0  0  0  0  0  0  0  0
   -6.6596   -0.7019    2.1209 H   0  0  0  0  0  0  0  0  0  0  0  0
   -5.1535   -2.5027    3.4620 H   0  0  0  0  0  0  0  0  0  0  0  0
   -2.6130   -2.1464    2.6200 H   0  0  0  0  0  0  0  0  0  0  0  0
   -0.5148   -2.1863    1.5390 H   0  0  0  0  0  0  0  0  0  0  0  0
   -1.6659   -2.4858    0.2228 H   0  0  0  0  0  0  0  0  0  0  0  0
    0.5336   -3.3120   -0.4159 H   0  0  0  0  0  0  0  0  0  0  0  0
    0.0360   -1.9838   -1.4709 H   0  0  0  0  0  0  0  0  0  0  0  0
  1  2  1  0
  2  3  1  0
  2  4  1  0
  2  5  1  0
  5  6  2  0
  6  7  1  0
  7  8  2  0
  8  9  1  0
  9 10  2  0
 10 11  1  0
 11 12  1  0
 12 13  1  0
 13 14  1  0
 14 15  1  0
 15 16  1  0
 16 17  1  0
 17 18  2  0
 18 19  1  0
 19 20  2  0
 20 21  1  0
 21 22  2  0
 22 23  1  0
 23 24  2  0
 24 25  1  0
 25 26  1  0
 26 27  2  0
 27 28  1  0
 28 29  2  0
 16 30  1  0
 30 31  1  0
 10  5  1  0
 31 13  1  0
 29 17  1  0
 24 19  1  0
 29 25  1  0
  6 32  1  0
  7 33  1  0
  8 34  1  0
  9 35  1  0
 11 36  1  0
 11 37  1  0
 12 38  1  0
 12 39  1  0
 14 40  1  0
 14 41  1  0
 15 42  1  0
 15 43  1  0
 20 44  1  0
 21 45  1  0
 22 46  1  0
 23 47  1  0
 26 48  1  0
 27 49  1  0
 28 50  1  0
 30 51  1  0
 30 52  1  0
 31 53  1  0
 31 54  1  0
M  END
$$$$
