
     RDKit          3D

 59 64  0  0  0  0  0  0  0  0999 V2000
   -4.7940    2.8068    0.2266 C   0  0  0  0  0  0  0  0  0  0  0  0
   -4.8108    1.8426    1.2788 O   0  0  0  0  0  0  0  0  0  0  0  0
   -5.4520    0.6987    0.8555 C   0  0  0  0  0  0  0  0  0  0  0  0
   -6.7959    0.5766    1.2334 C   0  0  0  0  0  0  0  0  0  0  0  0
   -7.5394   -0.5197    0.8137 C   0  0  0  0  0  0  0  0  0  0  0  0
   -6.9326   -1.4964    0.0324 C   0  0  0  0  0  0  0  0  0  0  0  0
   -5.5809   -1.3806   -0.3202 C   0  0  0  0  0  0  0  0  0  0  0  0
   -4.7897   -0.2933    0.0932 C   0  0  0  0  0  0  0  0  0  0  0  0
   -3.4444   -0.2119   -0.2514 N   0  0  0  0  0  0  0  0  0  0  0  0
   -2.4637    0.2802    0.7421 C   0  0  0  0  0  0  0  0  0  0  0  0
   -1.1318   -0.5072    0.6819 C   0  0  0  0  0  0  0  0  0  0  0  0
   -0.5276   -0.5292   -0.6831 N   0  0  0  0  0  0  0  0  0  0  0  0
    0.6895    0.0877   -0.8163 C   0  0  0  0  0  0  0  0  0  0  0  0
    0.9771    1.3386   -1.3347 C   0  0  0  0  0  0  0  0  0  0  0  0
    2.3512    1.5905   -1.1379 C   0  0  0  0  0  0  0  0  0  0  0  0
    2.8926    0.4846   -0.5122 C   0  0  0  0  0  0  0  0  0  0  0  0
    4.2346    0.1948   -0.0550 C   0  0  0  0  0  0  0  0  0  0  0  0
    5.2883    1.2422   -0.0816 C   0  0  0  0  0  0  0  0  0  0  0  0
    6.5395    0.9265   -0.6292 C   0  0  0  0  0  0  0  0  0  0  0  0
    7.5491    1.8899   -0.6572 C   0  0  0  0  0  0  0  0  0  0  0  0
    7.3154    3.1611   -0.1260 C   0  0  0  0  0  0  0  0  0  0  0  0
    6.0757    3.4701    0.4409 C   0  0  0  0  0  0  0  0  0  0  0  0
    5.0614    2.5106    0.4691 C   0  0  0  0  0  0  0  0  0  0  0  0
    4.5501   -0.9892    0.3811 N   0  0  0  0  0  0  0  0  0  0  0  0
    3.5658   -1.9964    0.4126 C   0  0  0  0  0  0  0  0  0  0  0  0
    3.9559   -3.2678    0.8472 C   0  0  0  0  0  0  0  0  0  0  0  0
    3.0463   -4.3250    0.8763 C   0  0  0  0  0  0  0  0  0  0  0  0
    1.7349   -4.1191    0.4590 C   0  0  0  0  0  0  0  0  0  0  0  0
    1.3255   -2.8550    0.0259 C   0  0  0  0  0  0  0  0  0  0  0  0
    2.2315   -1.7912    0.0216 C   0  0  0  0  0  0  0  0  0  0  0  0
    1.9009   -0.4802   -0.4099 N   0  0  0  0  0  0  0  0  0  0  0  0
   -1.5079   -0.3819   -1.7843 C   0  0  0  0  0  0  0  0  0  0  0  0
   -2.8887   -0.9530   -1.3960 C   0  0  0  0  0  0  0  0  0  0  0  0
   -4.3171    2.4205   -0.6804 H   0  0  0  0  0  0  0  0  0  0  0  0
   -4.2167    3.6677    0.5743 H   0  0  0  0  0  0  0  0  0  0  0  0
   -5.8056    3.1525   -0.0036 H   0  0  0  0  0  0  0  0  0  0  0  0
   -7.2592    1.3498    1.8404 H   0  0  0  0  0  0  0  0  0  0  0  0
   -8.5844   -0.6122    1.0956 H   0  0  0  0  0  0  0  0  0  0  0  0
   -7.5044   -2.3598   -0.2990 H   0  0  0  0  0  0  0  0  0  0  0  0
   -5.1470   -2.1892   -0.9024 H   0  0  0  0  0  0  0  0  0  0  0  0
   -2.2591    1.3389    0.5424 H   0  0  0  0  0  0  0  0  0  0  0  0
   -2.8521    0.1898    1.7648 H   0  0  0  0  0  0  0  0  0  0  0  0
   -1.3248   -1.5451    0.9775 H   0  0  0  0  0  0  0  0  0  0  0  0
   -0.4358   -0.0914    1.4195 H   0  0  0  0  0  0  0  0  0  0  0  0
    0.2588    2.0273   -1.7633 H   0  0  0  0  0  0  0  0  0  0  0  0
    2.8777    2.4950   -1.4147 H   0  0  0  0  0  0  0  0  0  0  0  0
    6.7260   -0.0681   -1.0338 H   0  0  0  0  0  0  0  0  0  0  0  0
    8.5198    1.6467   -1.0863 H   0  0  0  0  0  0  0  0  0  0  0  0
    8.1056    3.9084   -0.1437 H   0  0  0  0  0  0  0  0  0  0  0  0
    5.9040    4.4551    0.8708 H   0  0  0  0  0  0  0  0  0  0  0  0
    4.1086    2.7518    0.9365 H   0  0  0  0  0  0  0  0  0  0  0  0
    4.9840   -3.4308    1.1581 H   0  0  0  0  0  0  0  0  0  0  0  0
    3.3669   -5.3081    1.2110 H   0  0  0  0  0  0  0  0  0  0  0  0
    1.0290   -4.9452    0.4626 H   0  0  0  0  0  0  0  0  0  0  0  0
    0.3087   -2.7407   -0.3226 H   0  0  0  0  0  0  0  0  0  0  0  0
   -1.1327   -0.9131   -2.6654 H   0  0  0  0  0  0  0  0  0  0  0  0
   -1.6320    0.6743   -2.0528 H   0  0  0  0  0  0  0  0  0  0  0  0
   -3.5528   -0.8611   -2.2637 H   0  0  0  0  0  0  0  0  0  0  0  0
   -2.7915   -2.0173   -1.1447 H   0  0  0  0  0  0  0  0  0  0  0  0
  1  2  1  0
  2  3  1  0
  3  4  2  0
  4  5  1  0
  5  6  2  0
  6  7  1  0
  7  8  2  0
  8  9  1  0
  9 10  1  0
 10 11  1  0
 11 12  1  0
 12 13  1  0
 13 14  2  0
 14 15  1  0
 15 16  2  0
 16 17  1  0
 17 18  1  0
 18 19  2  0
 19 20  1  0
 20 21  2  0
 21 22  1  0
 22 23  2  0
 17 24  2  0
 24 25  1  0
 25 26  2  0
 26 27  1  0
 27 28  2  0
 28 29  1  0
 29 30  2  0
 30 31  1  0
 12 32  1  0
 32 33  1  0
  8  3  1  0
 33  9  1  0
 31 13  1  0
 31 16  1  0
 23 18  1  0
 30 25  1  0
  1 34  1  0
  1 35  1  0
  1 36  1  0
  4 37  1  0
  5 38  1  0
  6 39  1  0
  7 40  1  0
 10 41  1  0
 10 42  1  0
 11 43  1  0
 11 44  1  0
 14 45  1  0
 15 46  1  0
 19 47  1  0
 20 48  1  0
 21 49  1  0
 22 50  1  0
 23 51  1  0
 26 52  1  0
 27 53  1  0
 28 54  1  0
 29 55  1  0
 32 56  1  0
 32 57  1  0
 33 58  1  0
 33 59  1  0
M  END
$$$$
