
     RDKit          3D

 39 40  0  0  0  0  0  0  0  0999 V2000
   -0.7211   -3.5596    0.1906 C   0  0  0  0  0  0  0  0  0  0  0  0
   -1.2187   -2.1141    0.1637 C   0  0  0  0  0  0  0  0  0  0  0  0
   -2.3521   -2.1012   -0.6967 O   0  0  0  0  0  0  0  0  0  0  0  0
   -3.1361   -0.9825   -0.7759 C   0  0  0  0  0  0  0  0  0  0  0  0
   -2.9997    0.1473    0.0390 C   0  0  0  0  0  0  0  0  0  0  0  0
   -3.8522    1.2460   -0.1226 C   0  0  0  0  0  0  0  0  0  0  0  0
   -4.8486    1.2167   -1.1058 C   0  0  0  0  0  0  0  0  0  0  0  0
   -5.7421    2.3690   -1.2702 N   0  0  0  0  0  4  0  0  0  0  0  0
   -6.6102    2.3038   -2.1504 O   0  0  0  0  0  0  0  0  0  0  0  0
   -5.5790    3.3357   -0.5125 O   0  0  0  0  0  1  0  0  0  0  0  0
   -5.0055    0.0956   -1.9239 C   0  0  0  0  0  0  0  0  0  0  0  0
   -4.1515   -0.9971   -1.7522 C   0  0  0  0  0  0  0  0  0  0  0  0
   -4.3910   -2.3712   -2.7783 Cl  0  0  0  0  0  0  0  0  0  0  0  0
   -0.0502   -1.1931   -0.2733 C   0  0  0  0  0  0  0  0  0  0  0  0
   -0.0332   -0.6456   -1.3716 O   0  0  0  0  0  0  0  0  0  0  0  0
    0.9146   -1.0495    0.7173 N   0  0  0  0  0  0  0  0  0  0  0  0
    2.0821   -0.2587    0.6688 C   0  0  0  0  0  0  0  0  0  0  0  0
    2.4507    0.5298   -0.4233 C   0  0  0  0  0  0  0  0  0  0  0  0
    3.6260    1.2938   -0.3911 C   0  0  0  0  0  0  0  0  0  0  0  0
    4.4530    1.2700    0.7350 C   0  0  0  0  0  0  0  0  0  0  0  0
    5.7068    2.0659    0.8282 C   0  0  0  0  0  0  0  0  0  0  0  0
    6.2671    2.5129   -0.3360 N   0  0  0  0  0  0  0  0  0  0  0  0
    6.2424    2.2932    1.9062 O   0  0  0  0  0  0  0  0  0  0  0  0
    4.0828    0.4879    1.8341 C   0  0  0  0  0  0  0  0  0  0  0  0
    2.9089   -0.2724    1.7988 C   0  0  0  0  0  0  0  0  0  0  0  0
   -1.5309   -4.2387    0.4780 H   0  0  0  0  0  0  0  0  0  0  0  0
   -0.3830   -3.8717   -0.8041 H   0  0  0  0  0  0  0  0  0  0  0  0
    0.1098   -3.6968    0.8892 H   0  0  0  0  0  0  0  0  0  0  0  0
   -1.5276   -1.8517    1.1835 H   0  0  0  0  0  0  0  0  0  0  0  0
   -2.2381    0.2167    0.8088 H   0  0  0  0  0  0  0  0  0  0  0  0
   -3.7203    2.1145    0.5206 H   0  0  0  0  0  0  0  0  0  0  0  0
   -5.7778    0.0604   -2.6896 H   0  0  0  0  0  0  0  0  0  0  0  0
    0.7759   -1.5676    1.5761 H   0  0  0  0  0  0  0  0  0  0  0  0
    1.8426    0.5837   -1.3214 H   0  0  0  0  0  0  0  0  0  0  0  0
    3.8566    1.9176   -1.2493 H   0  0  0  0  0  0  0  0  0  0  0  0
    7.1727    2.9577   -0.2501 H   0  0  0  0  0  0  0  0  0  0  0  0
    6.0100    2.1551   -1.2434 H   0  0  0  0  0  0  0  0  0  0  0  0
    4.7101    0.4668    2.7237 H   0  0  0  0  0  0  0  0  0  0  0  0
    2.6567   -0.8682    2.6720 H   0  0  0  0  0  0  0  0  0  0  0  0
  1  2  1  0
  2  3  1  0
  3  4  1  0
  4  5  2  0
  5  6  1  0
  6  7  2  0
  7  8  1  0
  8  9  2  0
  8 10  1  0
  7 11  1  0
 11 12  2  0
 12 13  1  0
  2 14  1  0
 14 15  2  0
 14 16  1  0
 16 17  1  0
 17 18  2  0
 18 19  1  0
 19 20  2  0
 20 21  1  0
 21 22  1  0
 21 23  2  0
 20 24  1  0
 24 25  2  0
 12  4  1  0
 25 17  1  0
  1 26  1  0
  1 27  1  0
  1 28  1  0
  2 29  1  0
  5 30  1  0
  6 31  1  0
 11 32  1  0
 16 33  1  0
 18 34  1  0
 19 35  1  0
 22 36  1  0
 22 37  1  0
 24 38  1  0
 25 39  1  0
M  CHG  2   8   1  10  -1
M  END
$$$$
