
     RDKit          3D

 31 32  0  0  0  0  0  0  0  0999 V2000
   -3.3907    2.0231   -0.7334 C   0  0  0  0  0  0  0  0  0  0  0  0
   -3.2208    0.7948    0.1210 C   0  0  0  0  0  0  0  0  0  0  0  0
   -4.2076    0.3366    0.7025 O   0  0  0  0  0  0  0  0  0  0  0  0
   -1.8920    0.1650    0.2443 C   0  0  0  0  0  0  0  0  0  0  0  0
   -1.6918   -1.0937    0.8049 C   0  0  0  0  0  0  0  0  0  0  0  0
   -2.6573   -2.0676    1.3856 C   0  0  0  0  0  0  0  0  0  0  0  0
   -0.3553   -1.3801    0.7523 N   0  0  0  0  0  0  0  0  0  0  0  0
    0.3360   -0.3494    0.1700 C   0  0  0  0  0  0  0  0  0  0  0  0
    1.7816   -0.4264   -0.0255 C   0  0  0  0  0  0  0  0  0  0  0  0
    2.3257   -0.3564   -1.3133 C   0  0  0  0  0  0  0  0  0  0  0  0
    3.7067   -0.4412   -1.5028 C   0  0  0  0  0  0  0  0  0  0  0  0
    4.5528   -0.5965   -0.4059 C   0  0  0  0  0  0  0  0  0  0  0  0
    4.0200   -0.6668    0.8804 C   0  0  0  0  0  0  0  0  0  0  0  0
    2.6388   -0.5833    1.0704 C   0  0  0  0  0  0  0  0  0  0  0  0
   -0.5838    0.6466   -0.1431 C   0  0  0  0  0  0  0  0  0  0  0  0
   -0.2408    1.9690   -0.7439 C   0  0  0  0  0  0  0  0  0  0  0  0
   -2.9516    2.8908   -0.2374 H   0  0  0  0  0  0  0  0  0  0  0  0
   -2.9488    1.8670   -1.7201 H   0  0  0  0  0  0  0  0  0  0  0  0
   -4.4585    2.2173   -0.8776 H   0  0  0  0  0  0  0  0  0  0  0  0
   -2.1629   -3.0015    1.6730 H   0  0  0  0  0  0  0  0  0  0  0  0
   -3.4376   -2.3146    0.6588 H   0  0  0  0  0  0  0  0  0  0  0  0
   -3.1294   -1.6500    2.2805 H   0  0  0  0  0  0  0  0  0  0  0  0
    0.0697   -2.2396    1.0747 H   0  0  0  0  0  0  0  0  0  0  0  0
    1.6745   -0.2425   -2.1767 H   0  0  0  0  0  0  0  0  0  0  0  0
    4.1207   -0.3871   -2.5062 H   0  0  0  0  0  0  0  0  0  0  0  0
    5.6278   -0.6608   -0.5534 H   0  0  0  0  0  0  0  0  0  0  0  0
    4.6795   -0.7823    1.7365 H   0  0  0  0  0  0  0  0  0  0  0  0
    2.2378   -0.6257    2.0803 H   0  0  0  0  0  0  0  0  0  0  0  0
    0.8387    2.1481   -0.7525 H   0  0  0  0  0  0  0  0  0  0  0  0
   -0.6870    2.7831   -0.1659 H   0  0  0  0  0  0  0  0  0  0  0  0
   -0.5941    2.0239   -1.7776 H   0  0  0  0  0  0  0  0  0  0  0  0
  1  2  1  0
  2  3  2  0
  2  4  1  0
  4  5  2  0
  5  6  1  0
  5  7  1  0
  7  8  1  0
  8  9  1  0
  9 10  2  0
 10 11  1  0
 11 12  2  0
 12 13  1  0
 13 14  2  0
  8 15  2  0
 15 16  1  0
 15  4  1  0
 14  9  1  0
  1 17  1  0
  1 18  1  0
  1 19  1  0
  6 20  1  0
  6 21  1  0
  6 22  1  0
  7 23  1  0
 10 24  1  0
 11 25  1  0
 12 26  1  0
 13 27  1  0
 14 28  1  0
 16 29  1  0
 16 30  1  0
 16 31  1  0
M  END
$$$$
