
     RDKit          3D

 61 63  0  0  0  0  0  0  0  0999 V2000
   -7.8863   -4.4180    1.1737 C   0  0  0  0  0  0  0  0  0  0  0  0
   -7.0980   -3.8338    0.1448 O   0  0  0  0  0  0  0  0  0  0  0  0
   -6.8622   -2.4896    0.2346 C   0  0  0  0  0  0  0  0  0  0  0  0
   -7.3493   -1.6341    1.2227 C   0  0  0  0  0  0  0  0  0  0  0  0
   -7.0298   -0.2713    1.1956 C   0  0  0  0  0  0  0  0  0  0  0  0
   -6.2258    0.2550    0.1760 C   0  0  0  0  0  0  0  0  0  0  0  0
   -5.8592    1.7155    0.1585 C   0  0  0  0  0  0  0  0  0  0  0  0
   -4.6191    1.9422    0.8523 N   0  0  0  0  0  0  0  0  0  0  0  0
   -3.4103    2.0000    0.2009 C   0  0  0  0  0  0  0  0  0  0  0  0
   -3.2361    2.0132   -1.0099 O   0  0  0  0  0  0  0  0  0  0  0  0
   -2.1982    2.0473    1.1603 C   0  0  0  0  0  0  0  0  0  0  0  0
   -2.3721    2.1145    2.3689 O   0  0  0  0  0  0  0  0  0  0  0  0
   -0.9882    2.0205    0.5150 N   0  0  0  0  0  0  0  0  0  0  0  0
    0.2745    2.1883    1.2155 C   0  0  0  0  0  0  0  0  0  0  0  0
    1.4969    1.8589    0.3383 C   0  0  0  0  0  0  0  0  0  0  0  0
    1.5095    2.7402   -0.8042 O   0  0  0  0  0  0  0  0  0  0  0  0
    2.0542    1.9761   -1.8852 C   0  0  0  0  0  0  0  0  0  0  0  0
    1.5062    0.5839   -1.6639 C   0  0  0  0  0  0  0  0  0  0  0  0
    1.4259    0.4951   -0.2054 N   0  0  0  0  0  0  0  0  0  0  0  0
    2.2059   -0.7323    0.6208 S   0  0  0  0  0  6  0  0  0  0  0  0
    1.8917   -1.9830   -0.0354 O   0  0  0  0  0  0  0  0  0  0  0  0
    1.9667   -0.5400    2.0347 O   0  0  0  0  0  0  0  0  0  0  0  0
    3.9361   -0.4107    0.3319 C   0  0  0  0  0  0  0  0  0  0  0  0
    4.6624    0.3556    1.2446 C   0  0  0  0  0  0  0  0  0  0  0  0
    6.0175    0.6020    1.0150 C   0  0  0  0  0  0  0  0  0  0  0  0
    6.6538    0.0656   -0.1108 C   0  0  0  0  0  0  0  0  0  0  0  0
    7.9762    0.2622   -0.4207 O   0  0  0  0  0  0  0  0  0  0  0  0
    8.7575    1.0409    0.4744 C   0  0  0  0  0  0  0  0  0  0  0  0
    5.9242   -0.7475   -1.0045 C   0  0  0  0  0  0  0  0  0  0  0  0
    6.6200   -1.2432   -2.0793 O   0  0  0  0  0  0  0  0  0  0  0  0
    6.0267   -2.3113   -2.8061 C   0  0  0  0  0  0  0  0  0  0  0  0
    4.5661   -0.9863   -0.7762 C   0  0  0  0  0  0  0  0  0  0  0  0
   -5.7316   -0.6109   -0.8070 C   0  0  0  0  0  0  0  0  0  0  0  0
   -6.0526   -1.9699   -0.7773 C   0  0  0  0  0  0  0  0  0  0  0  0
   -8.8995   -4.0026    1.1781 H   0  0  0  0  0  0  0  0  0  0  0  0
   -7.4072   -4.3042    2.1519 H   0  0  0  0  0  0  0  0  0  0  0  0
   -7.9670   -5.4894    0.9656 H   0  0  0  0  0  0  0  0  0  0  0  0
   -7.9778   -1.9938    2.0304 H   0  0  0  0  0  0  0  0  0  0  0  0
   -7.4145    0.3764    1.9805 H   0  0  0  0  0  0  0  0  0  0  0  0
   -5.7911    2.0787   -0.8734 H   0  0  0  0  0  0  0  0  0  0  0  0
   -6.6314    2.3082    0.6612 H   0  0  0  0  0  0  0  0  0  0  0  0
   -4.5777    1.8244    1.8604 H   0  0  0  0  0  0  0  0  0  0  0  0
   -1.0069    2.0970   -0.4985 H   0  0  0  0  0  0  0  0  0  0  0  0
    0.2531    1.5661    2.1161 H   0  0  0  0  0  0  0  0  0  0  0  0
    0.3161    3.2378    1.5285 H   0  0  0  0  0  0  0  0  0  0  0  0
    2.4196    2.0416    0.8949 H   0  0  0  0  0  0  0  0  0  0  0  0
    3.1471    2.0001   -1.8107 H   0  0  0  0  0  0  0  0  0  0  0  0
    1.7504    2.4065   -2.8429 H   0  0  0  0  0  0  0  0  0  0  0  0
    0.4889    0.4999   -2.0622 H   0  0  0  0  0  0  0  0  0  0  0  0
    2.1208   -0.1814   -2.1402 H   0  0  0  0  0  0  0  0  0  0  0  0
    4.1891    0.7616    2.1363 H   0  0  0  0  0  0  0  0  0  0  0  0
    6.5523    1.2109    1.7372 H   0  0  0  0  0  0  0  0  0  0  0  0
    8.8051    0.5759    1.4646 H   0  0  0  0  0  0  0  0  0  0  0  0
    8.3815    2.0675    0.5358 H   0  0  0  0  0  0  0  0  0  0  0  0
    9.7766    1.0837    0.0784 H   0  0  0  0  0  0  0  0  0  0  0  0
    5.7495   -3.1400   -2.1458 H   0  0  0  0  0  0  0  0  0  0  0  0
    6.7700   -2.6858   -3.5164 H   0  0  0  0  0  0  0  0  0  0  0  0
    5.1650   -1.9589   -3.3821 H   0  0  0  0  0  0  0  0  0  0  0  0
    3.9851   -1.6118   -1.4464 H   0  0  0  0  0  0  0  0  0  0  0  0
   -5.0879   -0.2326   -1.5992 H   0  0  0  0  0  0  0  0  0  0  0  0
   -5.6624   -2.6310   -1.5474 H   0  0  0  0  0  0  0  0  0  0  0  0
  1  2  1  0
  2  3  1  0
  3  4  2  0
  4  5  1  0
  5  6  2  0
  6  7  1  0
  7  8  1  0
  8  9  1  0
  9 10  2  0
  9 11  1  0
 11 12  2  0
 11 13  1  0
 13 14  1  0
 14 15  1  0
 15 16  1  0
 16 17  1  0
 17 18  1  0
 18 19  1  0
 19 20  1  0
 20 21  2  0
 20 22  2  0
 20 23  1  0
 23 24  2  0
 24 25  1  0
 25 26  2  0
 26 27  1  0
 27 28  1  0
 26 29  1  0
 29 30  1  0
 30 31  1  0
 29 32  2  0
  6 33  1  0
 33 34  2  0
 34  3  1  0
 19 15  1  0
 32 23  1  0
  1 35  1  0
  1 36  1  0
  1 37  1  0
  4 38  1  0
  5 39  1  0
  7 40  1  0
  7 41  1  0
  8 42  1  0
 13 43  1  0
 14 44  1  0
 14 45  1  0
 15 46  1  0
 17 47  1  0
 17 48  1  0
 18 49  1  0
 18 50  1  0
 24 51  1  0
 25 52  1  0
 28 53  1  0
 28 54  1  0
 28 55  1  0
 31 56  1  0
 31 57  1  0
 31 58  1  0
 32 59  1  0
 33 60  1  0
 34 61  1  0
M  END
$$$$
