
     RDKit          3D

 57 60  0  0  0  0  0  0  0  0999 V2000
   -7.8541    2.1020    3.0971 C   0  0  0  0  0  0  0  0  0  0  0  0
   -7.5134    0.6273    2.9427 C   0  0  0  0  0  0  0  0  0  0  0  0
   -6.3501    0.4153    2.0088 C   0  0  0  0  0  0  0  0  0  0  0  0
   -6.5582    0.2754    0.6346 C   0  0  0  0  0  0  0  0  0  0  0  0
   -5.4746    0.0953   -0.2323 C   0  0  0  0  0  0  0  0  0  0  0  0
   -4.1492    0.0570    0.2377 C   0  0  0  0  0  0  0  0  0  0  0  0
   -3.0217   -0.1267   -0.7030 C   0  0  0  0  0  0  0  0  0  0  0  0
   -1.7487    0.3617   -0.4679 C   0  0  0  0  0  0  0  0  0  0  0  0
   -0.7562    0.1272   -1.4213 C   0  0  0  0  0  0  0  0  0  0  0  0
    0.6011    0.6154   -1.0838 C   0  0  0  0  0  0  0  0  0  0  0  0
    0.7362    1.8019   -0.8198 O   0  0  0  0  0  0  0  0  0  0  0  0
    1.5626   -0.3771   -1.0500 N   0  0  0  0  0  0  0  0  0  0  0  0
    2.9391   -0.2255   -0.7876 C   0  0  0  0  0  0  0  0  0  0  0  0
    3.7206   -1.3902   -0.7847 C   0  0  0  0  0  0  0  0  0  0  0  0
    5.0970   -1.3278   -0.5462 C   0  0  0  0  0  0  0  0  0  0  0  0
    5.6971   -0.0918   -0.2990 C   0  0  0  0  0  0  0  0  0  0  0  0
    7.4514    0.0005   -0.0530 S   0  0  0  0  0  6  0  0  0  0  0  0
    7.9156    1.3285   -0.3822 O   0  0  0  0  0  0  0  0  0  0  0  0
    8.0362   -1.1648   -0.6869 O   0  0  0  0  0  0  0  0  0  0  0  0
    7.6306   -0.2617    1.5765 N   0  0  0  0  0  0  0  0  0  0  0  0
    7.1970    0.6029    2.5871 C   0  0  0  0  0  0  0  0  0  0  0  0
    7.6000    0.1741    3.9696 C   0  0  0  0  0  0  0  0  0  0  0  0
    6.5301    1.6052    2.3805 O   0  0  0  0  0  0  0  0  0  0  0  0
    4.9340    1.0761   -0.3140 C   0  0  0  0  0  0  0  0  0  0  0  0
    3.5567    1.0053   -0.5522 C   0  0  0  0  0  0  0  0  0  0  0  0
   -1.0423   -0.5438   -2.6292 C   0  0  0  0  0  0  0  0  0  0  0  0
   -0.1209   -0.7543   -3.6885 C   0  0  0  0  0  0  0  0  0  0  0  0
   -0.4962   -1.4401   -4.8418 C   0  0  0  0  0  0  0  0  0  0  0  0
   -1.7931   -1.9171   -4.9592 C   0  0  0  0  0  0  0  0  0  0  0  0
   -2.7083   -1.6923   -3.9284 C   0  0  0  0  0  0  0  0  0  0  0  0
   -2.3614   -1.0073   -2.7715 C   0  0  0  0  0  0  0  0  0  0  0  0
   -3.3081   -0.8141   -1.8379 N   0  0  0  0  0  0  0  0  0  0  0  0
   -3.9599    0.1978    1.6244 C   0  0  0  0  0  0  0  0  0  0  0  0
   -5.0413    0.3782    2.4966 C   0  0  0  0  0  0  0  0  0  0  0  0
   -7.0081    2.6644    3.5069 H   0  0  0  0  0  0  0  0  0  0  0  0
   -8.7039    2.2246    3.7759 H   0  0  0  0  0  0  0  0  0  0  0  0
   -8.1218    2.5515    2.1346 H   0  0  0  0  0  0  0  0  0  0  0  0
   -8.3893    0.0808    2.5706 H   0  0  0  0  0  0  0  0  0  0  0  0
   -7.2824    0.1962    3.9248 H   0  0  0  0  0  0  0  0  0  0  0  0
   -7.5647    0.3059    0.2234 H   0  0  0  0  0  0  0  0  0  0  0  0
   -5.6728   -0.0106   -1.2981 H   0  0  0  0  0  0  0  0  0  0  0  0
   -1.5129    0.9269    0.4279 H   0  0  0  0  0  0  0  0  0  0  0  0
    1.2439   -1.3243   -1.2188 H   0  0  0  0  0  0  0  0  0  0  0  0
    3.2715   -2.3618   -0.9771 H   0  0  0  0  0  0  0  0  0  0  0  0
    5.6877   -2.2406   -0.5660 H   0  0  0  0  0  0  0  0  0  0  0  0
    8.1516   -1.1061    1.7879 H   0  0  0  0  0  0  0  0  0  0  0  0
    8.6890    0.0937    4.0286 H   0  0  0  0  0  0  0  0  0  0  0  0
    7.1451   -0.7922    4.2031 H   0  0  0  0  0  0  0  0  0  0  0  0
    7.2600    0.9137    4.6997 H   0  0  0  0  0  0  0  0  0  0  0  0
    5.3968    2.0456   -0.1337 H   0  0  0  0  0  0  0  0  0  0  0  0
    2.9966    1.9359   -0.5529 H   0  0  0  0  0  0  0  0  0  0  0  0
    0.8935   -0.3632   -3.6345 H   0  0  0  0  0  0  0  0  0  0  0  0
    0.2184   -1.5900   -5.6475 H   0  0  0  0  0  0  0  0  0  0  0  0
   -2.1039   -2.4508   -5.8539 H   0  0  0  0  0  0  0  0  0  0  0  0
   -3.7283   -2.0564   -4.0345 H   0  0  0  0  0  0  0  0  0  0  0  0
   -2.9633    0.1570    2.0572 H   0  0  0  0  0  0  0  0  0  0  0  0
   -4.8507    0.4873    3.5620 H   0  0  0  0  0  0  0  0  0  0  0  0
  1  2  1  0
  2  3  1  0
  3  4  2  0
  4  5  1  0
  5  6  2  0
  6  7  1  0
  7  8  2  0
  8  9  1  0
  9 10  1  0
 10 11  2  0
 10 12  1  0
 12 13  1  0
 13 14  2  0
 14 15  1  0
 15 16  2  0
 16 17  1  0
 17 18  2  0
 17 19  2  0
 17 20  1  0
 20 21  1  0
 21 22  1  0
 21 23  2  0
 16 24  1  0
 24 25  2  0
  9 26  2  0
 26 27  1  0
 27 28  2  0
 28 29  1  0
 29 30  2  0
 30 31  1  0
 31 32  2  0
  6 33  1  0
 33 34  2  0
 34  3  1  0
 32  7  1  0
 25 13  1  0
 31 26  1  0
  1 35  1  0
  1 36  1  0
  1 37  1  0
  2 38  1  0
  2 39  1  0
  4 40  1  0
  5 41  1  0
  8 42  1  0
 12 43  1  0
 14 44  1  0
 15 45  1  0
 20 46  1  0
 22 47  1  0
 22 48  1  0
 22 49  1  0
 24 50  1  0
 25 51  1  0
 27 52  1  0
 28 53  1  0
 29 54  1  0
 30 55  1  0
 33 56  1  0
 34 57  1  0
M  END
$$$$
