
     RDKit          3D

 37 38  0  0  0  0  0  0  0  0999 V2000
    4.9205    0.2972   -1.9296 C   0  0  0  0  0  0  0  0  0  0  0  0
    5.0415    0.3035   -0.4164 C   0  0  0  0  0  0  0  0  0  0  0  0
    3.8154   -0.1193    0.2319 N   0  0  0  0  0  0  0  0  0  0  0  0
    2.8365    0.6860    0.7340 C   0  0  0  0  0  0  0  0  0  0  0  0
    1.8796   -0.1525    1.2709 C   0  0  0  0  0  0  0  0  0  0  0  0
    0.6091    0.2203    1.9393 C   0  0  0  0  0  0  0  0  0  0  0  0
   -0.4460    0.1602    0.9557 N   0  0  0  0  0  0  0  0  0  0  0  0
   -1.7608    0.2702    1.3450 C   0  0  0  0  0  0  0  0  0  0  0  0
   -2.1148    0.3561    2.5144 O   0  0  0  0  0  0  0  0  0  0  0  0
   -2.7726    0.3166    0.2546 C   0  0  0  0  0  0  0  0  0  0  0  0
   -2.5531   -0.3064   -0.9831 C   0  0  0  0  0  0  0  0  0  0  0  0
   -3.5299   -0.2535   -1.9811 C   0  0  0  0  0  0  0  0  0  0  0  0
   -4.7327    0.4147   -1.7483 C   0  0  0  0  0  0  0  0  0  0  0  0
   -4.9564    1.0251   -0.5060 C   0  0  0  0  0  0  0  0  0  0  0  0
   -6.2235    1.7245   -0.2604 N   0  0  0  0  0  4  0  0  0  0  0  0
   -6.3364    2.3604    0.7963 O   0  0  0  0  0  0  0  0  0  0  0  0
   -7.1028    1.6426   -1.1298 O   0  0  0  0  0  1  0  0  0  0  0  0
   -3.9838    0.9761    0.5001 C   0  0  0  0  0  0  0  0  0  0  0  0
    2.3863   -1.4601    1.0298 C   0  0  0  0  0  0  0  0  0  0  0  0
    1.7666   -2.7589    1.3943 C   0  0  0  0  0  0  0  0  0  0  0  0
    3.5598   -1.4287    0.3872 N   0  0  0  0  0  0  0  0  0  0  0  0
    5.8581    0.6274   -2.3873 H   0  0  0  0  0  0  0  0  0  0  0  0
    4.6923   -0.7063   -2.3042 H   0  0  0  0  0  0  0  0  0  0  0  0
    4.1215    0.9675   -2.2638 H   0  0  0  0  0  0  0  0  0  0  0  0
    5.2795    1.3100   -0.0555 H   0  0  0  0  0  0  0  0  0  0  0  0
    5.8407   -0.3692   -0.0860 H   0  0  0  0  0  0  0  0  0  0  0  0
    2.8999    1.7638    0.6771 H   0  0  0  0  0  0  0  0  0  0  0  0
    0.6506    1.2414    2.3342 H   0  0  0  0  0  0  0  0  0  0  0  0
    0.3754   -0.4550    2.7694 H   0  0  0  0  0  0  0  0  0  0  0  0
   -0.1929    0.3559   -0.0030 H   0  0  0  0  0  0  0  0  0  0  0  0
   -1.6386   -0.8625   -1.1762 H   0  0  0  0  0  0  0  0  0  0  0  0
   -3.3570   -0.7429   -2.9379 H   0  0  0  0  0  0  0  0  0  0  0  0
   -5.4837    0.4448   -2.5360 H   0  0  0  0  0  0  0  0  0  0  0  0
   -4.1539    1.4419    1.4701 H   0  0  0  0  0  0  0  0  0  0  0  0
    1.6584   -2.8372    2.4807 H   0  0  0  0  0  0  0  0  0  0  0  0
    0.7747   -2.8491    0.9401 H   0  0  0  0  0  0  0  0  0  0  0  0
    2.3724   -3.6046    1.0527 H   0  0  0  0  0  0  0  0  0  0  0  0
  1  2  1  0
  2  3  1  0
  3  4  1  0
  4  5  2  0
  5  6  1  0
  6  7  1  0
  7  8  1  0
  8  9  2  0
  8 10  1  0
 10 11  2  0
 11 12  1  0
 12 13  2  0
 13 14  1  0
 14 15  1  0
 15 16  2  0
 15 17  1  0
 14 18  2  0
  5 19  1  0
 19 20  1  0
 19 21  2  0
 21  3  1  0
 18 10  1  0
  1 22  1  0
  1 23  1  0
  1 24  1  0
  2 25  1  0
  2 26  1  0
  4 27  1  0
  6 28  1  0
  6 29  1  0
  7 30  1  0
 11 31  1  0
 12 32  1  0
 13 33  1  0
 18 34  1  0
 20 35  1  0
 20 36  1  0
 20 37  1  0
M  CHG  2  15   1  17  -1
M  END
$$$$
