
     RDKit          3D

 70 76  0  0  0  0  0  0  0  0999 V2000
   -5.7571   -4.1058   -0.6227 C   0  0  0  0  0  0  0  0  0  0  0  0
   -4.7630   -3.4623    0.2971 C   0  0  0  0  0  0  0  0  0  0  0  0
   -4.7208   -3.7616    1.6725 C   0  0  0  0  0  0  0  0  0  0  0  0
   -5.8324   -4.8817    2.3824 Cl  0  0  0  0  0  0  0  0  0  0  0  0
   -3.7689   -3.1717    2.5286 C   0  0  0  0  0  0  0  0  0  0  0  0
   -2.8238   -2.2716    2.0365 C   0  0  0  0  0  0  0  0  0  0  0  0
   -2.8510   -1.9764    0.6840 C   0  0  0  0  0  0  0  0  0  0  0  0
   -3.7980   -2.5738   -0.1619 C   0  0  0  0  0  0  0  0  0  0  0  0
   -3.5930   -2.1409   -1.4712 N   0  0  0  0  0  0  0  0  0  0  0  0
   -2.5127   -1.2594   -1.5674 C   0  0  0  0  0  0  0  0  0  0  0  0
   -2.1097   -0.7653   -2.6090 O   0  0  0  0  0  0  0  0  0  0  0  0
   -1.9675   -1.0763   -0.1293 C   0  0  1  0  0  0  0  0  0  0  0  0
   -2.0886    0.3205    0.3744 C   0  0  0  0  0  0  0  0  0  0  0  0
   -0.8255    0.9336    0.3479 C   0  0  0  0  0  0  0  0  0  0  0  0
   -0.9237    2.1899    0.8696 C   0  0  0  0  0  0  0  0  0  0  0  0
    0.0644    3.0377    1.1518 O   0  0  0  0  0  0  0  0  0  0  0  0
   -2.2931    2.4230    1.1220 N   0  0  0  0  0  0  0  0  0  0  0  0
   -2.8657    3.6700    1.5294 C   0  0  0  0  0  0  0  0  0  0  0  0
   -3.9923    3.7041    2.3600 C   0  0  0  0  0  0  0  0  0  0  0  0
   -4.5368    4.9284    2.7574 C   0  0  0  0  0  0  0  0  0  0  0  0
   -3.9697    6.1237    2.3207 C   0  0  0  0  0  0  0  0  0  0  0  0
   -2.8601    6.0992    1.4791 C   0  0  0  0  0  0  0  0  0  0  0  0
   -2.3096    4.8786    1.0810 C   0  0  0  0  0  0  0  0  0  0  0  0
   -2.9929    1.2203    0.8810 C   0  0  0  0  0  0  0  0  0  0  0  0
   -4.3035    1.1007    1.0799 O   0  0  0  0  0  0  0  0  0  0  0  0
    0.1851    0.0075   -0.1960 C   0  0  1  0  0  0  0  0  0  0  0  0
    1.5662   -0.0471    0.4489 C   0  0  0  0  0  0  0  0  0  0  0  0
    2.3460   -1.1951   -0.0761 N   0  0  0  0  0  0  0  0  0  0  0  0
    3.7357   -1.2708    0.0148 C   0  0  0  0  0  0  0  0  0  0  0  0
    4.3305   -2.3450   -0.0812 O   0  0  0  0  0  0  0  0  0  0  0  0
    4.4760    0.0362    0.2646 C   0  0  0  0  0  0  0  0  0  0  0  0
    5.9967   -0.0902    0.1510 C   0  0  0  0  0  0  0  0  0  0  0  0
    6.4828    0.0158   -1.2761 C   0  0  0  0  0  0  0  0  0  0  0  0
    6.7468    1.2701   -1.8443 C   0  0  0  0  0  0  0  0  0  0  0  0
    7.1795    1.3715   -3.1676 C   0  0  0  0  0  0  0  0  0  0  0  0
    7.3485    0.2219   -3.9365 C   0  0  0  0  0  0  0  0  0  0  0  0
    7.0844   -1.0293   -3.3831 C   0  0  0  0  0  0  0  0  0  0  0  0
    6.6530   -1.1323   -2.0597 C   0  0  0  0  0  0  0  0  0  0  0  0
    1.6175   -2.4770   -0.1789 C   0  0  0  0  0  0  0  0  0  0  0  0
    0.1625   -2.3546   -0.7003 C   0  0  0  0  0  0  0  0  0  0  0  0
   -0.5139   -1.2974    0.0320 N   0  0  0  0  0  0  0  0  0  0  0  0
   -5.4799   -5.1490   -0.8054 H   0  0  0  0  0  0  0  0  0  0  0  0
   -5.8148   -3.5960   -1.5890 H   0  0  0  0  0  0  0  0  0  0  0  0
   -6.7656   -4.0667   -0.1978 H   0  0  0  0  0  0  0  0  0  0  0  0
   -3.7603   -3.4234    3.5875 H   0  0  0  0  0  0  0  0  0  0  0  0
   -2.0838   -1.8221    2.6930 H   0  0  0  0  0  0  0  0  0  0  0  0
   -4.1142   -2.4313   -2.2854 H   0  0  0  0  0  0  0  0  0  0  0  0
   -0.2587    3.6837    1.8066 H   0  0  0  0  0  0  0  0  0  0  0  0
   -4.4481    2.7931    2.7382 H   0  0  0  0  0  0  0  0  0  0  0  0
   -5.4066    4.9461    3.4096 H   0  0  0  0  0  0  0  0  0  0  0  0
   -4.4004    7.0737    2.6268 H   0  0  0  0  0  0  0  0  0  0  0  0
   -2.4333    7.0315    1.1174 H   0  0  0  0  0  0  0  0  0  0  0  0
   -1.4816    4.8957    0.3750 H   0  0  0  0  0  0  0  0  0  0  0  0
   -4.5670    0.1952    0.8397 H   0  0  0  0  0  0  0  0  0  0  0  0
    0.2887    0.1967   -1.2743 H   0  0  0  0  0  0  0  0  0  0  0  0
    1.4996   -0.1746    1.5371 H   0  0  0  0  0  0  0  0  0  0  0  0
    2.0925    0.8936    0.2687 H   0  0  0  0  0  0  0  0  0  0  0  0
    4.2336    0.3442    1.2889 H   0  0  0  0  0  0  0  0  0  0  0  0
    4.1116    0.8015   -0.4290 H   0  0  0  0  0  0  0  0  0  0  0  0
    6.3625   -1.0200    0.6033 H   0  0  0  0  0  0  0  0  0  0  0  0
    6.4626    0.7191    0.7287 H   0  0  0  0  0  0  0  0  0  0  0  0
    6.6174    2.1768   -1.2582 H   0  0  0  0  0  0  0  0  0  0  0  0
    7.3836    2.3477   -3.5987 H   0  0  0  0  0  0  0  0  0  0  0  0
    7.6839    0.3002   -4.9670 H   0  0  0  0  0  0  0  0  0  0  0  0
    7.2110   -1.9276   -3.9813 H   0  0  0  0  0  0  0  0  0  0  0  0
    6.4444   -2.1164   -1.6434 H   0  0  0  0  0  0  0  0  0  0  0  0
    2.1735   -3.1635   -0.8275 H   0  0  0  0  0  0  0  0  0  0  0  0
    1.6107   -2.9127    0.8287 H   0  0  0  0  0  0  0  0  0  0  0  0
   -0.3423   -3.3160   -0.5544 H   0  0  0  0  0  0  0  0  0  0  0  0
    0.1789   -2.1466   -1.7768 H   0  0  0  0  0  0  0  0  0  0  0  0
  1  2  1  0
  2  3  2  0
  3  4  1  0
  3  5  1  0
  5  6  2  0
  6  7  1  0
  7  8  2  0
  8  9  1  0
  9 10  1  0
 10 11  2  0
 10 12  1  0
 12 13  1  0
 13 14  1  0
 14 15  2  0
 15 16  1  0
 15 17  1  0
 17 18  1  0
 18 19  2  0
 19 20  1  0
 20 21  2  0
 21 22  1  0
 22 23  2  0
 17 24  1  0
 24 25  1  0
 14 26  1  0
 26 27  1  0
 27 28  1  0
 28 29  1  0
 29 30  2  0
 29 31  1  0
 31 32  1  0
 32 33  1  0
 33 34  2  0
 34 35  1  0
 35 36  2  0
 36 37  1  0
 37 38  2  0
 28 39  1  0
 39 40  1  0
 40 41  1  0
  8  2  1  0
 12 41  1  6
 12  7  1  0
 24 13  2  0
 41 26  1  0
 23 18  1  0
 38 33  1  0
  1 42  1  0
  1 43  1  0
  1 44  1  0
  5 45  1  0
  6 46  1  0
  9 47  1  0
 16 48  1  0
 19 49  1  0
 20 50  1  0
 21 51  1  0
 22 52  1  0
 23 53  1  0
 25 54  1  0
 26 55  1  6
 27 56  1  0
 27 57  1  0
 31 58  1  0
 31 59  1  0
 32 60  1  0
 32 61  1  0
 34 62  1  0
 35 63  1  0
 36 64  1  0
 37 65  1  0
 38 66  1  0
 39 67  1  0
 39 68  1  0
 40 69  1  0
 40 70  1  0
M  END
$$$$
