
     RDKit          3D

 48 50  0  0  0  0  0  0  0  0999 V2000
    9.0932    1.5580   -0.0311 C   0  0  0  0  0  0  0  0  0  0  0  0
    7.6201    1.6302    0.1382 C   0  0  0  0  0  0  0  0  0  0  0  0
    6.8864    2.7299    0.5400 C   0  0  0  0  0  0  0  0  0  0  0  0
    5.2219    2.3306    0.5930 S   0  0  0  0  0  0  0  0  0  0  0  0
    5.5935    0.7486    0.0905 C   0  0  0  0  0  0  0  0  0  0  0  0
    4.6489   -0.2263   -0.0981 N   0  0  0  0  0  0  0  0  0  0  0  0
    3.2879   -0.1159    0.0783 C   0  0  0  0  0  0  0  0  0  0  0  0
    2.6619    0.8772    0.4294 O   0  0  0  0  0  0  0  0  0  0  0  0
    2.5828   -1.4196   -0.2445 C   0  0  0  0  0  0  0  0  0  0  0  0
    1.0955   -1.3289    0.0671 C   0  0  0  0  0  0  0  0  0  0  0  0
    0.4509   -2.5984   -0.2864 N   0  0  0  0  0  0  0  0  0  0  0  0
   -0.7670   -3.2169    0.6853 S   0  0  0  0  0  6  0  0  0  0  0  0
   -1.3236   -4.3505   -0.0161 O   0  0  0  0  0  0  0  0  0  0  0  0
   -0.2477   -3.3251    2.0300 O   0  0  0  0  0  0  0  0  0  0  0  0
   -1.9786   -1.9204    0.6585 C   0  0  0  0  0  0  0  0  0  0  0  0
   -2.2123   -1.1508    1.7967 C   0  0  0  0  0  0  0  0  0  0  0  0
   -3.1750   -0.1354    1.7594 C   0  0  0  0  0  0  0  0  0  0  0  0
   -3.9150    0.1192    0.5916 C   0  0  0  0  0  0  0  0  0  0  0  0
   -3.6665   -0.6696   -0.5317 C   0  0  0  0  0  0  0  0  0  0  0  0
   -2.7081   -1.6940   -0.5071 C   0  0  0  0  0  0  0  0  0  0  0  0
   -4.4174   -0.4157   -1.7698 C   0  0  0  0  0  0  0  0  0  0  0  0
   -4.1200   -1.0431   -2.7839 O   0  0  0  0  0  0  0  0  0  0  0  0
   -5.4134    0.5447   -1.7091 N   0  0  0  0  0  0  0  0  0  0  0  0
   -6.1832    0.7949   -2.9139 C   0  0  0  0  0  0  0  0  0  0  0  0
   -5.6424    1.3860   -0.6265 C   0  0  0  0  0  0  0  0  0  0  0  0
   -6.4669    2.3012   -0.6883 O   0  0  0  0  0  0  0  0  0  0  0  0
   -4.8905    1.1488    0.5217 N   0  0  0  0  0  0  0  0  0  0  0  0
   -5.1232    2.0006    1.6820 C   0  0  0  0  0  0  0  0  0  0  0  0
    6.8649    0.4956   -0.1159 N   0  0  0  0  0  0  0  0  0  0  0  0
    9.5436    1.0269    0.8130 H   0  0  0  0  0  0  0  0  0  0  0  0
    9.3464    1.0231   -0.9517 H   0  0  0  0  0  0  0  0  0  0  0  0
    9.5368    2.5571   -0.0866 H   0  0  0  0  0  0  0  0  0  0  0  0
    7.2363    3.7193    0.7971 H   0  0  0  0  0  0  0  0  0  0  0  0
    5.0525   -1.1058   -0.3900 H   0  0  0  0  0  0  0  0  0  0  0  0
    3.0393   -2.2266    0.3414 H   0  0  0  0  0  0  0  0  0  0  0  0
    2.7352   -1.6438   -1.3071 H   0  0  0  0  0  0  0  0  0  0  0  0
    0.6265   -0.5257   -0.5122 H   0  0  0  0  0  0  0  0  0  0  0  0
    0.9589   -1.1010    1.1298 H   0  0  0  0  0  0  0  0  0  0  0  0
    0.3765   -2.8649   -1.2676 H   0  0  0  0  0  0  0  0  0  0  0  0
   -1.6552   -1.3296    2.7151 H   0  0  0  0  0  0  0  0  0  0  0  0
   -3.3249    0.4424    2.6676 H   0  0  0  0  0  0  0  0  0  0  0  0
   -2.5391   -2.3078   -1.3905 H   0  0  0  0  0  0  0  0  0  0  0  0
   -7.2235    1.0220   -2.6607 H   0  0  0  0  0  0  0  0  0  0  0  0
   -6.1682   -0.0650   -3.5895 H   0  0  0  0  0  0  0  0  0  0  0  0
   -5.7495    1.6593   -3.4268 H   0  0  0  0  0  0  0  0  0  0  0  0
   -5.4688    1.3858    2.5192 H   0  0  0  0  0  0  0  0  0  0  0  0
   -5.8851    2.7617    1.4927 H   0  0  0  0  0  0  0  0  0  0  0  0
   -4.1949    2.5177    1.9452 H   0  0  0  0  0  0  0  0  0  0  0  0
  1  2  1  0
  2  3  2  0
  3  4  1  0
  4  5  1  0
  5  6  1  0
  6  7  1  0
  7  8  2  0
  7  9  1  0
  9 10  1  0
 10 11  1  0
 11 12  1  0
 12 13  2  0
 12 14  2  0
 12 15  1  0
 15 16  2  0
 16 17  1  0
 17 18  2  0
 18 19  1  0
 19 20  2  0
 19 21  1  0
 21 22  2  0
 21 23  1  0
 23 24  1  0
 23 25  1  0
 25 26  2  0
 25 27  1  0
 27 28  1  0
  5 29  2  0
 29  2  1  0
 20 15  1  0
 27 18  1  0
  1 30  1  0
  1 31  1  0
  1 32  1  0
  3 33  1  0
  6 34  1  0
  9 35  1  0
  9 36  1  0
 10 37  1  0
 10 38  1  0
 11 39  1  0
 16 40  1  0
 17 41  1  0
 20 42  1  0
 24 43  1  0
 24 44  1  0
 24 45  1  0
 28 46  1  0
 28 47  1  0
 28 48  1  0
M  END
$$$$
