
     RDKit          3D

 47 48  0  0  0  0  0  0  0  0999 V2000
    4.0458   -2.3955   -2.7148 C   0  0  0  0  0  0  0  0  0  0  0  0
    5.1350   -1.6857   -2.1362 O   0  0  0  0  0  0  0  0  0  0  0  0
    4.8187   -0.7022   -1.2330 C   0  0  0  0  0  0  0  0  0  0  0  0
    3.5377   -0.3751   -0.7831 C   0  0  0  0  0  0  0  0  0  0  0  0
    3.3526    0.6555    0.1569 C   0  0  0  0  0  0  0  0  0  0  0  0
    1.9833    0.9839    0.5827 C   0  0  0  0  0  0  0  0  0  0  0  0
    1.6633    1.3068    1.8445 C   0  0  0  0  0  0  0  0  0  0  0  0
    0.2909    1.6388    2.3175 C   0  0  0  0  0  0  0  0  0  0  0  0
    0.1604    2.0854    3.4594 O   0  0  0  0  0  0  0  0  0  0  0  0
   -0.9111    1.4108    1.4393 C   0  0  0  0  0  0  0  0  0  0  0  0
   -1.2453    2.6071    0.5874 C   0  0  0  0  0  0  0  0  0  0  0  0
   -0.3818    3.2778    0.0234 O   0  0  0  0  0  0  0  0  0  0  0  0
   -2.6659    3.0208    0.4283 C   0  0  0  0  0  0  0  0  0  0  0  0
   -3.7139    2.2186    0.1882 C   0  0  0  0  0  0  0  0  0  0  0  0
   -3.6631    0.7712   -0.0273 C   0  0  0  0  0  0  0  0  0  0  0  0
   -3.0237    0.2451   -1.1592 C   0  0  0  0  0  0  0  0  0  0  0  0
   -2.9700   -1.1336   -1.3543 C   0  0  0  0  0  0  0  0  0  0  0  0
   -3.5559   -1.9746   -0.4170 C   0  0  0  0  0  0  0  0  0  0  0  0
   -3.4821   -3.3248   -0.6280 O   0  0  0  0  0  0  0  0  0  0  0  0
   -4.2048   -1.4720    0.7175 C   0  0  0  0  0  0  0  0  0  0  0  0
   -4.7279   -2.4252    1.5530 O   0  0  0  0  0  0  0  0  0  0  0  0
   -5.2390   -1.9690    2.8009 C   0  0  0  0  0  0  0  0  0  0  0  0
   -4.2658   -0.0901    0.9036 C   0  0  0  0  0  0  0  0  0  0  0  0
    4.4659    1.3731    0.6201 C   0  0  0  0  0  0  0  0  0  0  0  0
    5.7488    1.0489    0.1775 C   0  0  0  0  0  0  0  0  0  0  0  0
    5.9116    0.0171   -0.7371 C   0  0  0  0  0  0  0  0  0  0  0  0
    7.1800   -0.2817   -1.1555 O   0  0  0  0  0  0  0  0  0  0  0  0
    3.4945   -2.9591   -1.9547 H   0  0  0  0  0  0  0  0  0  0  0  0
    3.3835   -1.7206   -3.2673 H   0  0  0  0  0  0  0  0  0  0  0  0
    4.4581   -3.1152   -3.4296 H   0  0  0  0  0  0  0  0  0  0  0  0
    2.6665   -0.9143   -1.1419 H   0  0  0  0  0  0  0  0  0  0  0  0
    1.2382    0.9487   -0.2067 H   0  0  0  0  0  0  0  0  0  0  0  0
    2.4129    1.3517    2.6290 H   0  0  0  0  0  0  0  0  0  0  0  0
   -0.7641    0.5307    0.8074 H   0  0  0  0  0  0  0  0  0  0  0  0
   -1.7446    1.1809    2.1132 H   0  0  0  0  0  0  0  0  0  0  0  0
   -2.8112    4.0963    0.4836 H   0  0  0  0  0  0  0  0  0  0  0  0
   -4.7053    2.6595    0.0977 H   0  0  0  0  0  0  0  0  0  0  0  0
   -2.5664    0.9034   -1.8960 H   0  0  0  0  0  0  0  0  0  0  0  0
   -2.4790   -1.5504   -2.2287 H   0  0  0  0  0  0  0  0  0  0  0  0
   -3.9554   -3.7271    0.1267 H   0  0  0  0  0  0  0  0  0  0  0  0
   -6.1285   -1.3484    2.6576 H   0  0  0  0  0  0  0  0  0  0  0  0
   -5.5357   -2.8486    3.3804 H   0  0  0  0  0  0  0  0  0  0  0  0
   -4.4721   -1.4367    3.3735 H   0  0  0  0  0  0  0  0  0  0  0  0
   -4.7647    0.3393    1.7671 H   0  0  0  0  0  0  0  0  0  0  0  0
    4.3481    2.1982    1.3192 H   0  0  0  0  0  0  0  0  0  0  0  0
    6.6124    1.6007    0.5369 H   0  0  0  0  0  0  0  0  0  0  0  0
    7.0695   -1.0204   -1.7851 H   0  0  0  0  0  0  0  0  0  0  0  0
  1  2  1  0
  2  3  1  0
  3  4  2  0
  4  5  1  0
  5  6  1  0
  6  7  2  3
  7  8  1  0
  8  9  2  0
  8 10  1  0
 10 11  1  0
 11 12  2  0
 11 13  1  0
 13 14  2  3
 14 15  1  0
 15 16  2  0
 16 17  1  0
 17 18  2  0
 18 19  1  0
 18 20  1  0
 20 21  1  0
 21 22  1  0
 20 23  2  0
  5 24  2  0
 24 25  1  0
 25 26  2  0
 26 27  1  0
 26  3  1  0
 23 15  1  0
  1 28  1  0
  1 29  1  0
  1 30  1  0
  4 31  1  0
  6 32  1  0
  7 33  1  0
 10 34  1  0
 10 35  1  0
 13 36  1  0
 14 37  1  0
 16 38  1  0
 17 39  1  0
 19 40  1  0
 22 41  1  0
 22 42  1  0
 22 43  1  0
 23 44  1  0
 24 45  1  0
 25 46  1  0
 27 47  1  0
M  END
$$$$
