
     RDKit          3D

 43 45  0  0  0  0  0  0  0  0999 V2000
   -2.5906   -0.9128    2.2983 C   0  0  0  0  0  0  0  0  0  0  0  0
   -3.0754   -0.2024    1.0694 C   0  0  0  0  0  0  0  0  0  0  0  0
   -3.6637   -0.7484    0.1449 O   0  0  0  0  0  0  0  0  0  0  0  0
   -2.7661    1.1488    1.1862 O   0  0  0  0  0  0  0  0  0  0  0  0
   -3.0294    1.8664    0.0135 C   0  0  0  0  0  0  0  0  0  0  0  0
   -4.2184    2.5924   -0.0613 C   0  0  0  0  0  0  0  0  0  0  0  0
   -4.4890    3.3385   -1.2070 C   0  0  0  0  0  0  0  0  0  0  0  0
   -3.5696    3.3647   -2.2581 C   0  0  0  0  0  0  0  0  0  0  0  0
   -2.3717    2.6482   -2.1676 C   0  0  0  0  0  0  0  0  0  0  0  0
   -2.0856    1.8933   -1.0251 C   0  0  0  0  0  0  0  0  0  0  0  0
   -0.8240    1.1583   -0.9040 C   0  0  0  0  0  0  0  0  0  0  0  0
   -0.5177    0.1232   -1.7024 C   0  0  0  0  0  0  0  0  0  0  0  0
    0.6822   -0.7048   -1.5228 C   0  0  0  0  0  0  0  0  0  0  0  0
    0.9526   -1.7456   -2.3980 C   0  0  0  0  0  0  0  0  0  0  0  0
    2.0755   -2.5349   -2.1673 C   0  0  0  0  0  0  0  0  0  0  0  0
    2.8961   -2.2767   -1.0632 C   0  0  0  0  0  0  0  0  0  0  0  0
    4.0380   -3.0568   -0.7940 C   0  0  0  0  0  0  0  0  0  0  0  0
    4.8462   -2.7810    0.3097 C   0  0  0  0  0  0  0  0  0  0  0  0
    4.5172   -1.7303    1.1565 C   0  0  0  0  0  0  0  0  0  0  0  0
    3.3716   -0.9768    0.8889 C   0  0  0  0  0  0  0  0  0  0  0  0
    3.0908    0.0979    1.7474 O   0  0  0  0  0  0  0  0  0  0  0  0
    1.9981   -0.1514    2.5674 C   0  0  0  0  0  0  0  0  0  0  0  0
    1.6015    1.1280    3.2419 C   0  0  0  0  0  0  0  0  0  0  0  0
    1.4539   -1.2298    2.7695 O   0  0  0  0  0  0  0  0  0  0  0  0
    2.5477   -1.2048   -0.2182 C   0  0  0  0  0  0  0  0  0  0  0  0
    1.4692   -0.4265   -0.4584 N   0  0  0  0  0  0  0  0  0  0  0  0
   -3.1356   -0.5520    3.1740 H   0  0  0  0  0  0  0  0  0  0  0  0
   -1.5163   -0.7521    2.4193 H   0  0  0  0  0  0  0  0  0  0  0  0
   -2.7683   -1.9864    2.1896 H   0  0  0  0  0  0  0  0  0  0  0  0
   -4.9295    2.5697    0.7584 H   0  0  0  0  0  0  0  0  0  0  0  0
   -5.4166    3.9000   -1.2829 H   0  0  0  0  0  0  0  0  0  0  0  0
   -3.7836    3.9484   -3.1502 H   0  0  0  0  0  0  0  0  0  0  0  0
   -1.6616    2.6913   -2.9900 H   0  0  0  0  0  0  0  0  0  0  0  0
   -0.1816    1.4488   -0.0768 H   0  0  0  0  0  0  0  0  0  0  0  0
   -1.1959   -0.1732   -2.4976 H   0  0  0  0  0  0  0  0  0  0  0  0
    0.3045   -1.9543   -3.2424 H   0  0  0  0  0  0  0  0  0  0  0  0
    2.2979   -3.3542   -2.8461 H   0  0  0  0  0  0  0  0  0  0  0  0
    4.3038   -3.8851   -1.4476 H   0  0  0  0  0  0  0  0  0  0  0  0
    5.7272   -3.3867    0.5064 H   0  0  0  0  0  0  0  0  0  0  0  0
    5.1360   -1.5021    2.0187 H   0  0  0  0  0  0  0  0  0  0  0  0
    2.3897    1.4444    3.9292 H   0  0  0  0  0  0  0  0  0  0  0  0
    0.6794    0.9673    3.8080 H   0  0  0  0  0  0  0  0  0  0  0  0
    1.4109    1.8995    2.4913 H   0  0  0  0  0  0  0  0  0  0  0  0
  1  2  1  0
  2  3  2  0
  2  4  1  0
  4  5  1  0
  5  6  2  0
  6  7  1  0
  7  8  2  0
  8  9  1  0
  9 10  2  0
 10 11  1  0
 11 12  2  0
 12 13  1  0
 13 14  2  0
 14 15  1  0
 15 16  2  0
 16 17  1  0
 17 18  2  0
 18 19  1  0
 19 20  2  0
 20 21  1  0
 21 22  1  0
 22 23  1  0
 22 24  2  0
 20 25  1  0
 25 26  2  0
 10  5  1  0
 26 13  1  0
 25 16  1  0
  1 27  1  0
  1 28  1  0
  1 29  1  0
  6 30  1  0
  7 31  1  0
  8 32  1  0
  9 33  1  0
 11 34  1  0
 12 35  1  0
 14 36  1  0
 15 37  1  0
 17 38  1  0
 18 39  1  0
 19 40  1  0
 23 41  1  0
 23 42  1  0
 23 43  1  0
M  END
$$$$
