
     RDKit          3D

 42 46  0  0  0  0  0  0  0  0999 V2000
    5.1099    2.1731    0.3457 C   0  0  0  0  0  0  0  0  0  0  0  0
    5.2567    0.7916    0.4526 C   0  0  0  0  0  0  0  0  0  0  0  0
    4.1630   -0.0617    0.2440 C   0  0  0  0  0  0  0  0  0  0  0  0
    4.3005   -1.4499    0.3503 C   0  0  0  0  0  0  0  0  0  0  0  0
    3.2065   -2.2900    0.1413 C   0  0  0  0  0  0  0  0  0  0  0  0
    1.9483   -1.7637   -0.1795 C   0  0  0  0  0  0  0  0  0  0  0  0
    0.8568   -2.6104   -0.3889 C   0  0  0  0  0  0  0  0  0  0  0  0
   -0.3926   -2.0871   -0.7110 C   0  0  0  0  0  0  0  0  0  0  0  0
   -0.5878   -0.6996   -0.8301 C   0  0  0  0  0  0  0  0  0  0  0  0
   -1.9807   -0.2097   -1.1991 C   0  0  0  0  0  0  0  0  0  0  0  0
   -2.6552    0.5456   -0.1304 N   0  0  0  0  0  0  0  0  0  0  0  0
   -3.9268    1.1319   -0.6074 C   0  0  0  0  0  0  0  0  0  0  0  0
   -5.0679    0.1116   -0.7654 C   0  0  0  0  0  0  0  0  0  0  0  0
   -5.2946   -0.6151    0.4478 O   0  0  0  0  0  0  0  0  0  0  0  0
   -4.0965   -1.2696    0.8843 C   0  0  0  0  0  0  0  0  0  0  0  0
   -2.9460   -0.2668    1.0712 C   0  0  0  0  0  0  0  0  0  0  0  0
    0.5086    0.1824   -0.6180 C   0  0  0  0  0  0  0  0  0  0  0  0
    0.4070    1.5858   -0.7133 C   0  0  0  0  0  0  0  0  0  0  0  0
    1.5059    2.4227   -0.5020 C   0  0  0  0  0  0  0  0  0  0  0  0
    2.7566    1.8886   -0.1856 C   0  0  0  0  0  0  0  0  0  0  0  0
    3.8674    2.7184    0.0288 C   0  0  0  0  0  0  0  0  0  0  0  0
    2.8984    0.4873   -0.0788 C   0  0  0  0  0  0  0  0  0  0  0  0
    1.7794   -0.3628   -0.2934 C   0  0  0  0  0  0  0  0  0  0  0  0
    5.9636    2.8251    0.5100 H   0  0  0  0  0  0  0  0  0  0  0  0
    6.2341    0.3844    0.7015 H   0  0  0  0  0  0  0  0  0  0  0  0
    5.2629   -1.8920    0.5978 H   0  0  0  0  0  0  0  0  0  0  0  0
    3.3482   -3.3647    0.2319 H   0  0  0  0  0  0  0  0  0  0  0  0
    0.9698   -3.6889   -0.3051 H   0  0  0  0  0  0  0  0  0  0  0  0
   -1.2202   -2.7751   -0.8696 H   0  0  0  0  0  0  0  0  0  0  0  0
   -1.8671    0.4262   -2.0876 H   0  0  0  0  0  0  0  0  0  0  0  0
   -2.5912   -1.0568   -1.5350 H   0  0  0  0  0  0  0  0  0  0  0  0
   -3.7731    1.6756   -1.5470 H   0  0  0  0  0  0  0  0  0  0  0  0
   -4.2360    1.8836    0.1305 H   0  0  0  0  0  0  0  0  0  0  0  0
   -4.8687   -0.5973   -1.5768 H   0  0  0  0  0  0  0  0  0  0  0  0
   -5.9968    0.6363   -1.0114 H   0  0  0  0  0  0  0  0  0  0  0  0
   -3.8367   -2.0587    0.1699 H   0  0  0  0  0  0  0  0  0  0  0  0
   -4.3192   -1.7544    1.8403 H   0  0  0  0  0  0  0  0  0  0  0  0
   -2.0509   -0.7819    1.4354 H   0  0  0  0  0  0  0  0  0  0  0  0
   -3.2285    0.4316    1.8702 H   0  0  0  0  0  0  0  0  0  0  0  0
   -0.5456    2.0571   -0.9445 H   0  0  0  0  0  0  0  0  0  0  0  0
    1.3676    3.4983   -0.5840 H   0  0  0  0  0  0  0  0  0  0  0  0
    3.7709    3.7989   -0.0494 H   0  0  0  0  0  0  0  0  0  0  0  0
  1  2  2  0
  2  3  1  0
  3  4  2  0
  4  5  1  0
  5  6  2  0
  6  7  1  0
  7  8  2  0
  8  9  1  0
  9 10  1  0
 10 11  1  0
 11 12  1  0
 12 13  1  0
 13 14  1  0
 14 15  1  0
 15 16  1  0
  9 17  2  0
 17 18  1  0
 18 19  2  0
 19 20  1  0
 20 21  2  0
 20 22  1  0
 22 23  2  0
 21  1  1  0
 22  3  1  0
 23  6  1  0
 16 11  1  0
 23 17  1  0
  1 24  1  0
  2 25  1  0
  4 26  1  0
  5 27  1  0
  7 28  1  0
  8 29  1  0
 10 30  1  0
 10 31  1  0
 12 32  1  0
 12 33  1  0
 13 34  1  0
 13 35  1  0
 15 36  1  0
 15 37  1  0
 16 38  1  0
 16 39  1  0
 18 40  1  0
 19 41  1  0
 21 42  1  0
M  END
$$$$
