
     RDKit          3D

 70 76  0  0  0  0  0  0  0  0999 V2000
   -6.5018   -4.1291   -0.1064 C   0  0  0  0  0  0  0  0  0  0  0  0
   -5.2246   -3.6236    0.4967 C   0  0  0  0  0  0  0  0  0  0  0  0
   -4.9154   -3.8368    1.8515 C   0  0  0  0  0  0  0  0  0  0  0  0
   -5.9895   -4.7022    2.8951 Cl  0  0  0  0  0  0  0  0  0  0  0  0
   -3.7314   -3.3341    2.4206 C   0  0  0  0  0  0  0  0  0  0  0  0
   -2.8159   -2.6125    1.6517 C   0  0  0  0  0  0  0  0  0  0  0  0
   -3.0926   -2.4060    0.3071 C   0  0  0  0  0  0  0  0  0  0  0  0
   -4.2970   -2.8868   -0.2344 C   0  0  0  0  0  0  0  0  0  0  0  0
   -4.4195   -2.4688   -1.5544 N   0  0  0  0  0  0  0  0  0  0  0  0
   -3.3354   -1.6952   -1.9590 C   0  0  0  0  0  0  0  0  0  0  0  0
   -3.2424   -1.1683   -3.0583 O   0  0  0  0  0  0  0  0  0  0  0  0
   -2.3233   -1.6622   -0.7604 C   0  0  1  0  0  0  0  0  0  0  0  0
   -2.0157   -0.2808   -0.3180 C   0  0  0  0  0  0  0  0  0  0  0  0
   -0.7934    0.1162   -0.8704 C   0  0  0  0  0  0  0  0  0  0  0  0
   -0.5294    1.4021   -0.4951 C   0  0  0  0  0  0  0  0  0  0  0  0
    0.4520    2.1942   -0.9237 O   0  0  0  0  0  0  0  0  0  0  0  0
   -1.5479    1.7884    0.4008 N   0  0  0  0  0  0  0  0  0  0  0  0
   -1.5780    3.0035    1.1578 C   0  0  0  0  0  0  0  0  0  0  0  0
   -0.3793    3.5917    1.5918 C   0  0  0  0  0  0  0  0  0  0  0  0
   -0.4016    4.7782    2.3292 C   0  0  0  0  0  0  0  0  0  0  0  0
   -1.6162    5.3830    2.6436 C   0  0  0  0  0  0  0  0  0  0  0  0
   -2.8107    4.7984    2.2283 C   0  0  0  0  0  0  0  0  0  0  0  0
   -2.7947    3.6104    1.4921 C   0  0  0  0  0  0  0  0  0  0  0  0
   -2.5091    0.7551    0.4357 C   0  0  0  0  0  0  0  0  0  0  0  0
   -3.6217    0.8365    1.1615 O   0  0  0  0  0  0  0  0  0  0  0  0
   -0.2439   -0.9400   -1.7617 C   0  0  1  0  0  0  0  0  0  0  0  0
    1.2949   -1.0088   -1.8673 C   0  0  0  0  0  0  0  0  0  0  0  0
    1.9307   -1.8079   -0.8182 N   0  0  0  0  0  0  0  0  0  0  0  0
    3.1629   -1.5446   -0.2416 C   0  0  0  0  0  0  0  0  0  0  0  0
    3.6960   -2.3307    0.5424 O   0  0  0  0  0  0  0  0  0  0  0  0
    3.8235   -0.2269   -0.6069 C   0  0  0  0  0  0  0  0  0  0  0  0
    5.1695   -0.0522    0.0946 C   0  0  0  0  0  0  0  0  0  0  0  0
    5.8092    1.2671   -0.2633 C   0  0  0  0  0  0  0  0  0  0  0  0
    5.5332    2.4167    0.4890 C   0  0  0  0  0  0  0  0  0  0  0  0
    6.1083    3.6411    0.1454 C   0  0  0  0  0  0  0  0  0  0  0  0
    6.9596    3.7283   -0.9548 C   0  0  0  0  0  0  0  0  0  0  0  0
    7.2363    2.5917   -1.7125 C   0  0  0  0  0  0  0  0  0  0  0  0
    6.6624    1.3662   -1.3703 C   0  0  0  0  0  0  0  0  0  0  0  0
    1.2705   -3.0829   -0.5627 C   0  0  0  0  0  0  0  0  0  0  0  0
   -0.1991   -2.8470   -0.1936 C   0  0  0  0  0  0  0  0  0  0  0  0
   -0.9826   -2.1821   -1.2590 N   0  0  0  0  0  0  0  0  0  0  0  0
   -7.3543   -3.5675    0.2895 H   0  0  0  0  0  0  0  0  0  0  0  0
   -6.5141   -4.0342   -1.1956 H   0  0  0  0  0  0  0  0  0  0  0  0
   -6.6357   -5.1947    0.1098 H   0  0  0  0  0  0  0  0  0  0  0  0
   -3.5226   -3.5003    3.4762 H   0  0  0  0  0  0  0  0  0  0  0  0
   -1.9208   -2.2117    2.1186 H   0  0  0  0  0  0  0  0  0  0  0  0
   -5.2012   -2.6395   -2.1687 H   0  0  0  0  0  0  0  0  0  0  0  0
    0.1774    3.1222   -0.8015 H   0  0  0  0  0  0  0  0  0  0  0  0
    0.5840    3.1172    1.4155 H   0  0  0  0  0  0  0  0  0  0  0  0
    0.5297    5.2218    2.6727 H   0  0  0  0  0  0  0  0  0  0  0  0
   -1.6335    6.3042    3.2205 H   0  0  0  0  0  0  0  0  0  0  0  0
   -3.7600    5.2670    2.4760 H   0  0  0  0  0  0  0  0  0  0  0  0
   -3.7454    3.1984    1.1648 H   0  0  0  0  0  0  0  0  0  0  0  0
   -4.1007   -0.0076    1.0889 H   0  0  0  0  0  0  0  0  0  0  0  0
   -0.6163   -0.7291   -2.7739 H   0  0  0  0  0  0  0  0  0  0  0  0
    1.5572   -1.5117   -2.8072 H   0  0  0  0  0  0  0  0  0  0  0  0
    1.7208   -0.0052   -1.9208 H   0  0  0  0  0  0  0  0  0  0  0  0
    3.9702   -0.1973   -1.6929 H   0  0  0  0  0  0  0  0  0  0  0  0
    3.1509    0.5891   -0.3173 H   0  0  0  0  0  0  0  0  0  0  0  0
    5.8489   -0.8721   -0.1718 H   0  0  0  0  0  0  0  0  0  0  0  0
    5.0457   -0.1129    1.1837 H   0  0  0  0  0  0  0  0  0  0  0  0
    4.8693    2.3627    1.3489 H   0  0  0  0  0  0  0  0  0  0  0  0
    5.8923    4.5270    0.7365 H   0  0  0  0  0  0  0  0  0  0  0  0
    7.4079    4.6816   -1.2213 H   0  0  0  0  0  0  0  0  0  0  0  0
    7.9001    2.6590   -2.5705 H   0  0  0  0  0  0  0  0  0  0  0  0
    6.8862    0.4878   -1.9714 H   0  0  0  0  0  0  0  0  0  0  0  0
    1.7636   -3.6267    0.2494 H   0  0  0  0  0  0  0  0  0  0  0  0
    1.3549   -3.6960   -1.4679 H   0  0  0  0  0  0  0  0  0  0  0  0
   -0.1984   -2.2511    0.7264 H   0  0  0  0  0  0  0  0  0  0  0  0
   -0.6529   -3.8198    0.0267 H   0  0  0  0  0  0  0  0  0  0  0  0
  1  2  1  0
  2  3  2  0
  3  4  1  0
  3  5  1  0
  5  6  2  0
  6  7  1  0
  7  8  2  0
  8  9  1  0
  9 10  1  0
 10 11  2  0
 10 12  1  0
 12 13  1  0
 13 14  1  0
 14 15  2  0
 15 16  1  0
 15 17  1  0
 17 18  1  0
 18 19  2  0
 19 20  1  0
 20 21  2  0
 21 22  1  0
 22 23  2  0
 17 24  1  0
 24 25  1  0
 14 26  1  0
 26 27  1  0
 27 28  1  0
 28 29  1  0
 29 30  2  0
 29 31  1  0
 31 32  1  0
 32 33  1  0
 33 34  2  0
 34 35  1  0
 35 36  2  0
 36 37  1  0
 37 38  2  0
 28 39  1  0
 39 40  1  0
 40 41  1  0
  8  2  1  0
 12 41  1  6
 12  7  1  0
 24 13  2  0
 41 26  1  0
 23 18  1  0
 38 33  1  0
  1 42  1  0
  1 43  1  0
  1 44  1  0
  5 45  1  0
  6 46  1  0
  9 47  1  0
 16 48  1  0
 19 49  1  0
 20 50  1  0
 21 51  1  0
 22 52  1  0
 23 53  1  0
 25 54  1  0
 26 55  1  6
 27 56  1  0
 27 57  1  0
 31 58  1  0
 31 59  1  0
 32 60  1  0
 32 61  1  0
 34 62  1  0
 35 63  1  0
 36 64  1  0
 37 65  1  0
 38 66  1  0
 39 67  1  0
 39 68  1  0
 40 69  1  0
 40 70  1  0
M  END
$$$$
