
     RDKit          3D

 38 39  0  0  0  0  0  0  0  0999 V2000
   -2.4156    2.9766    1.0258 C   0  0  0  0  0  0  0  0  0  0  0  0
   -2.4209    1.6950    1.6604 O   0  0  0  0  0  0  0  0  0  0  0  0
   -3.1545    0.8011    0.9292 C   0  0  0  0  0  0  0  0  0  0  0  0
   -4.4944    0.6319    1.2891 C   0  0  0  0  0  0  0  0  0  0  0  0
   -5.2986   -0.2749    0.5931 C   0  0  0  0  0  0  0  0  0  0  0  0
   -4.7690   -0.9962   -0.4773 C   0  0  0  0  0  0  0  0  0  0  0  0
   -3.4270   -0.8347   -0.8308 C   0  0  0  0  0  0  0  0  0  0  0  0
   -2.6032    0.0418   -0.1078 C   0  0  0  0  0  0  0  0  0  0  0  0
   -1.1769    0.1246   -0.5082 C   0  0  0  0  0  0  0  0  0  0  0  0
   -0.9096    0.1429   -1.7101 O   0  0  0  0  0  0  0  0  0  0  0  0
   -0.1116    0.0682    0.5845 C   0  0  0  0  0  0  0  0  0  0  0  0
    1.1936    0.3136    0.0575 O   0  0  0  0  0  0  0  0  0  0  0  0
    1.4776    1.6149   -0.1570 C   0  0  0  0  0  0  0  0  0  0  0  0
    0.7522    2.5607    0.1230 O   0  0  0  0  0  0  0  0  0  0  0  0
    2.8073    1.8262   -0.7687 C   0  0  0  0  0  0  0  0  0  0  0  0
    3.7653    0.9458   -1.0965 C   0  0  0  0  0  0  0  0  0  0  0  0
    3.7252   -0.5044   -0.9183 C   0  0  0  0  0  0  0  0  0  0  0  0
    4.2097   -1.0834    0.2592 C   0  0  0  0  0  0  0  0  0  0  0  0
    4.1653   -2.4684    0.4302 C   0  0  0  0  0  0  0  0  0  0  0  0
    3.6431   -3.2787   -0.5781 C   0  0  0  0  0  0  0  0  0  0  0  0
    3.1584   -2.7061   -1.7539 C   0  0  0  0  0  0  0  0  0  0  0  0
    3.1952   -1.3211   -1.9226 C   0  0  0  0  0  0  0  0  0  0  0  0
   -1.7253    3.6213    1.5820 H   0  0  0  0  0  0  0  0  0  0  0  0
   -2.0666    2.9180   -0.0117 H   0  0  0  0  0  0  0  0  0  0  0  0
   -3.4110    3.4305    1.0699 H   0  0  0  0  0  0  0  0  0  0  0  0
   -4.9120    1.2041    2.1134 H   0  0  0  0  0  0  0  0  0  0  0  0
   -6.3409   -0.4045    0.8745 H   0  0  0  0  0  0  0  0  0  0  0  0
   -5.3978   -1.6857   -1.0346 H   0  0  0  0  0  0  0  0  0  0  0  0
   -3.0246   -1.3954   -1.6712 H   0  0  0  0  0  0  0  0  0  0  0  0
   -0.1038   -0.9505    0.9879 H   0  0  0  0  0  0  0  0  0  0  0  0
   -0.3064    0.7493    1.4146 H   0  0  0  0  0  0  0  0  0  0  0  0
    2.9947    2.8790   -0.9637 H   0  0  0  0  0  0  0  0  0  0  0  0
    4.6868    1.3152   -1.5414 H   0  0  0  0  0  0  0  0  0  0  0  0
    4.6132   -0.4606    1.0540 H   0  0  0  0  0  0  0  0  0  0  0  0
    4.5322   -2.9178    1.3502 H   0  0  0  0  0  0  0  0  0  0  0  0
    3.6085   -4.3564   -0.4445 H   0  0  0  0  0  0  0  0  0  0  0  0
    2.7448   -3.3355   -2.5385 H   0  0  0  0  0  0  0  0  0  0  0  0
    2.7969   -0.8860   -2.8349 H   0  0  0  0  0  0  0  0  0  0  0  0
  1  2  1  0
  2  3  1  0
  3  4  2  0
  4  5  1  0
  5  6  2  0
  6  7  1  0
  7  8  2  0
  8  9  1  0
  9 10  2  0
  9 11  1  0
 11 12  1  0
 12 13  1  0
 13 14  2  0
 13 15  1  0
 15 16  2  3
 16 17  1  0
 17 18  2  0
 18 19  1  0
 19 20  2  0
 20 21  1  0
 21 22  2  0
  8  3  1  0
 22 17  1  0
  1 23  1  0
  1 24  1  0
  1 25  1  0
  4 26  1  0
  5 27  1  0
  6 28  1  0
  7 29  1  0
 11 30  1  0
 11 31  1  0
 15 32  1  0
 16 33  1  0
 18 34  1  0
 19 35  1  0
 20 36  1  0
 21 37  1  0
 22 38  1  0
M  END
$$$$
