
     RDKit          3D

 56 61  0  0  0  0  0  0  0  0999 V2000
    0.1868    1.5762    3.2492 O   0  0  0  0  0  0  0  0  0  0  0  0
    0.1317    2.3664    2.3187 C   0  0  0  0  0  0  0  0  0  0  0  0
   -0.3692    3.6685    2.4147 N   0  0  0  0  0  0  0  0  0  0  0  0
   -0.2909    4.3339    1.1995 C   0  0  0  0  0  0  0  0  0  0  0  0
   -0.6926    5.6267    0.9374 C   0  0  0  0  0  0  0  0  0  0  0  0
   -0.5312    6.0969   -0.3677 C   0  0  0  0  0  0  0  0  0  0  0  0
    0.0209    5.2744   -1.3666 C   0  0  0  0  0  0  0  0  0  0  0  0
    0.4237    3.9671   -1.0777 C   0  0  0  0  0  0  0  0  0  0  0  0
    0.2611    3.5027    0.2193 C   0  0  0  0  0  0  0  0  0  0  0  0
    0.5817    2.1736    0.8396 C   0  0  0  0  0  0  0  0  0  0  0  0
    2.0190    1.7557    0.7493 N   0  0  0  0  0  0  0  0  0  0  0  0
    2.0389    0.2464    0.5803 C   0  0  2  0  0  0  0  0  0  0  0  0
    3.2521   -0.1574   -0.2766 C   0  0  0  0  0  0  0  0  0  0  0  0
    3.5153   -1.6441   -0.3569 C   0  0  0  0  0  0  0  0  0  0  0  0
    3.7159   -2.4063    0.8024 C   0  0  0  0  0  0  0  0  0  0  0  0
    3.9468   -3.7801    0.7159 C   0  0  0  0  0  0  0  0  0  0  0  0
    3.9920   -4.4044   -0.5285 C   0  0  0  0  0  0  0  0  0  0  0  0
    3.8141   -3.6546   -1.6887 C   0  0  0  0  0  0  0  0  0  0  0  0
    3.5832   -2.2808   -1.6050 C   0  0  0  0  0  0  0  0  0  0  0  0
    0.7017   -0.0166   -0.0164 C   0  0  0  0  0  0  0  0  0  0  0  0
   -0.1345    1.1028    0.1303 C   0  0  0  0  0  0  0  0  0  0  0  0
   -1.3479    0.8262   -0.4439 C   0  0  0  0  0  0  0  0  0  0  0  0
   -2.4469    1.5527   -0.6073 O   0  0  0  0  0  0  0  0  0  0  0  0
   -1.2762   -0.4843   -0.8870 N   0  0  0  0  0  0  0  0  0  0  0  0
   -2.3555   -1.1973   -1.5596 C   0  0  0  0  0  0  0  0  0  0  0  0
   -3.2519   -1.9190   -0.5830 C   0  0  0  0  0  0  0  0  0  0  0  0
   -4.3789   -1.2821   -0.0434 C   0  0  0  0  0  0  0  0  0  0  0  0
   -5.2040   -1.9483    0.8642 C   0  0  0  0  0  0  0  0  0  0  0  0
   -4.9093   -3.2557    1.2458 C   0  0  0  0  0  0  0  0  0  0  0  0
   -3.7874   -3.8966    0.7240 C   0  0  0  0  0  0  0  0  0  0  0  0
   -2.9616   -3.2317   -0.1838 C   0  0  0  0  0  0  0  0  0  0  0  0
   -0.0177   -1.0093   -0.6312 C   0  0  0  0  0  0  0  0  0  0  0  0
    0.2733   -2.2608   -0.9616 O   0  0  0  0  0  0  0  0  0  0  0  0
   -0.7167    4.0494    3.2817 H   0  0  0  0  0  0  0  0  0  0  0  0
   -1.1173    6.2607    1.7075 H   0  0  0  0  0  0  0  0  0  0  0  0
   -0.8348    7.1116   -0.6173 H   0  0  0  0  0  0  0  0  0  0  0  0
    0.1345    5.6622   -2.3772 H   0  0  0  0  0  0  0  0  0  0  0  0
    0.8400    3.3337   -1.8553 H   0  0  0  0  0  0  0  0  0  0  0  0
    2.3707    2.1512   -0.1202 H   0  0  0  0  0  0  0  0  0  0  0  0
    2.0890   -0.1971    1.5814 H   0  0  0  0  0  0  0  0  0  0  0  0
    3.1387    0.2500   -1.2906 H   0  0  0  0  0  0  0  0  0  0  0  0
    4.1608    0.3038    0.1344 H   0  0  0  0  0  0  0  0  0  0  0  0
    3.6980   -1.9388    1.7852 H   0  0  0  0  0  0  0  0  0  0  0  0
    4.0966   -4.3628    1.6216 H   0  0  0  0  0  0  0  0  0  0  0  0
    4.1735   -5.4741   -0.5942 H   0  0  0  0  0  0  0  0  0  0  0  0
    3.8558   -4.1398   -2.6608 H   0  0  0  0  0  0  0  0  0  0  0  0
    3.4429   -1.7138   -2.5233 H   0  0  0  0  0  0  0  0  0  0  0  0
   -2.2757    2.4366   -0.2355 H   0  0  0  0  0  0  0  0  0  0  0  0
   -2.9257   -0.4738   -2.1542 H   0  0  0  0  0  0  0  0  0  0  0  0
   -1.9119   -1.8988   -2.2760 H   0  0  0  0  0  0  0  0  0  0  0  0
   -4.6126   -0.2567   -0.3227 H   0  0  0  0  0  0  0  0  0  0  0  0
   -6.0725   -1.4435    1.2784 H   0  0  0  0  0  0  0  0  0  0  0  0
   -5.5489   -3.7721    1.9563 H   0  0  0  0  0  0  0  0  0  0  0  0
   -3.5499   -4.9122    1.0287 H   0  0  0  0  0  0  0  0  0  0  0  0
   -2.0810   -3.7389   -0.5737 H   0  0  0  0  0  0  0  0  0  0  0  0
    1.1440   -2.4777   -0.5801 H   0  0  0  0  0  0  0  0  0  0  0  0
  1  2  2  0
  2  3  1  0
  3  4  1  0
  4  5  2  0
  5  6  1  0
  6  7  2  0
  7  8  1  0
  8  9  2  0
  9 10  1  0
 10 11  1  0
 11 12  1  0
 12 13  1  0
 13 14  1  0
 14 15  2  0
 15 16  1  0
 16 17  2  0
 17 18  1  0
 18 19  2  0
 12 20  1  0
 20 21  1  0
 21 22  2  0
 22 23  1  0
 22 24  1  0
 24 25  1  0
 25 26  1  0
 26 27  2  0
 27 28  1  0
 28 29  2  0
 29 30  1  0
 30 31  2  0
 24 32  1  0
 32 33  1  0
 10  2  1  0
 19 14  1  0
 32 20  2  0
  9  4  1  0
 21 10  1  0
 31 26  1  0
  3 34  1  0
  5 35  1  0
  6 36  1  0
  7 37  1  0
  8 38  1  0
 11 39  1  0
 12 40  1  1
 13 41  1  0
 13 42  1  0
 15 43  1  0
 16 44  1  0
 17 45  1  0
 18 46  1  0
 19 47  1  0
 23 48  1  0
 25 49  1  0
 25 50  1  0
 27 51  1  0
 28 52  1  0
 29 53  1  0
 30 54  1  0
 31 55  1  0
 33 56  1  0
M  END
$$$$
