
     RDKit          3D

 38 39  0  0  0  0  0  0  0  0999 V2000
   -4.8176    1.7466    2.3550 C   0  0  0  0  0  0  0  0  0  0  0  0
   -3.8486    0.8973    1.7506 O   0  0  0  0  0  0  0  0  0  0  0  0
   -4.1893    0.2657    0.5848 C   0  0  0  0  0  0  0  0  0  0  0  0
   -5.4242    0.4259   -0.0587 C   0  0  0  0  0  0  0  0  0  0  0  0
   -5.7204   -0.2835   -1.2272 C   0  0  0  0  0  0  0  0  0  0  0  0
   -4.7904   -1.1657   -1.7662 C   0  0  0  0  0  0  0  0  0  0  0  0
   -3.5572   -1.3328   -1.1410 C   0  0  0  0  0  0  0  0  0  0  0  0
   -3.2452   -0.6131    0.0247 C   0  0  0  0  0  0  0  0  0  0  0  0
   -1.8954   -0.8496    0.6096 C   0  0  0  0  0  0  0  0  0  0  0  0
   -1.3859   -1.9665    0.5000 O   0  0  0  0  0  0  0  0  0  0  0  0
   -1.1702    0.3117    1.2836 C   0  0  0  0  0  0  0  0  0  0  0  0
    0.2508    0.1405    1.2574 O   0  0  0  0  0  0  0  0  0  0  0  0
    0.8027    0.3334    0.0338 C   0  0  0  0  0  0  0  0  0  0  0  0
    0.2214    0.7034   -0.9734 O   0  0  0  0  0  0  0  0  0  0  0  0
    2.2463    0.0410    0.1318 C   0  0  0  0  0  0  0  0  0  0  0  0
    3.0377    0.2129   -0.9377 C   0  0  0  0  0  0  0  0  0  0  0  0
    4.4802   -0.0648   -0.9466 C   0  0  0  0  0  0  0  0  0  0  0  0
    5.0653   -0.5540   -2.1221 C   0  0  0  0  0  0  0  0  0  0  0  0
    6.4379   -0.8074   -2.1832 C   0  0  0  0  0  0  0  0  0  0  0  0
    7.2423   -0.5632   -1.0725 C   0  0  0  0  0  0  0  0  0  0  0  0
    6.6758   -0.0614    0.0971 C   0  0  0  0  0  0  0  0  0  0  0  0
    5.3026    0.1915    0.1587 C   0  0  0  0  0  0  0  0  0  0  0  0
   -4.3816    2.1464    3.2756 H   0  0  0  0  0  0  0  0  0  0  0  0
   -5.7178    1.1868    2.6292 H   0  0  0  0  0  0  0  0  0  0  0  0
   -5.0576    2.5947    1.7055 H   0  0  0  0  0  0  0  0  0  0  0  0
   -6.1890    1.0938    0.3252 H   0  0  0  0  0  0  0  0  0  0  0  0
   -6.6840   -0.1495   -1.7135 H   0  0  0  0  0  0  0  0  0  0  0  0
   -5.0212   -1.7219   -2.6714 H   0  0  0  0  0  0  0  0  0  0  0  0
   -2.8300   -2.0216   -1.5686 H   0  0  0  0  0  0  0  0  0  0  0  0
   -1.4605    0.3292    2.3385 H   0  0  0  0  0  0  0  0  0  0  0  0
   -1.4353    1.2722    0.8281 H   0  0  0  0  0  0  0  0  0  0  0  0
    2.6099   -0.3271    1.0827 H   0  0  0  0  0  0  0  0  0  0  0  0
    2.6140    0.5549   -1.8809 H   0  0  0  0  0  0  0  0  0  0  0  0
    4.4544   -0.7519   -3.0005 H   0  0  0  0  0  0  0  0  0  0  0  0
    6.8773   -1.1946   -3.0988 H   0  0  0  0  0  0  0  0  0  0  0  0
    8.3102   -0.7593   -1.1200 H   0  0  0  0  0  0  0  0  0  0  0  0
    7.3031    0.1388    0.9619 H   0  0  0  0  0  0  0  0  0  0  0  0
    4.8897    0.6011    1.0770 H   0  0  0  0  0  0  0  0  0  0  0  0
  1  2  1  0
  2  3  1  0
  3  4  2  0
  4  5  1  0
  5  6  2  0
  6  7  1  0
  7  8  2  0
  8  9  1  0
  9 10  2  0
  9 11  1  0
 11 12  1  0
 12 13  1  0
 13 14  2  0
 13 15  1  0
 15 16  2  3
 16 17  1  0
 17 18  2  0
 18 19  1  0
 19 20  2  0
 20 21  1  0
 21 22  2  0
  8  3  1  0
 22 17  1  0
  1 23  1  0
  1 24  1  0
  1 25  1  0
  4 26  1  0
  5 27  1  0
  6 28  1  0
  7 29  1  0
 11 30  1  0
 11 31  1  0
 15 32  1  0
 16 33  1  0
 18 34  1  0
 19 35  1  0
 20 36  1  0
 21 37  1  0
 22 38  1  0
M  END
$$$$
