
     RDKit          3D

 37 39  0  0  0  0  0  0  0  0999 V2000
    8.0749    0.9855   -0.4814 C   0  0  0  0  0  0  0  0  0  0  0  0
    6.6096    1.0467   -0.0802 C   0  0  0  0  0  0  0  0  0  0  0  0
    6.0326   -0.3508    0.1457 C   0  0  0  0  0  0  0  0  0  0  0  0
    4.5999   -0.2866    0.5628 C   0  0  0  0  0  0  0  0  0  0  0  0
    4.1886   -0.1299    1.8037 N   0  0  0  0  0  0  0  0  0  0  0  0
    2.8086   -0.1041    1.8958 N   0  0  0  0  0  0  0  0  0  0  0  0
    2.2403   -0.2431    0.7251 C   0  0  0  0  0  0  0  0  0  0  0  0
    0.9196   -0.2732    0.3699 N   0  0  0  0  0  0  0  0  0  0  0  0
   -0.0938   -0.1466    1.3032 C   0  0  0  0  0  0  0  0  0  0  0  0
    0.0547    0.0017    2.5105 O   0  0  0  0  0  0  0  0  0  0  0  0
   -1.4765   -0.2142    0.6405 C   0  0  0  0  0  0  0  0  0  0  0  0
   -2.5226   -0.0850    1.5897 O   0  0  0  0  0  0  0  0  0  0  0  0
   -3.8064   -0.1297    1.1193 C   0  0  0  0  0  0  0  0  0  0  0  0
   -4.7929    0.0050    2.1173 C   0  0  0  0  0  0  0  0  0  0  0  0
   -6.1542   -0.0200    1.7987 C   0  0  0  0  0  0  0  0  0  0  0  0
   -6.4930   -0.1810    0.4749 C   0  0  0  0  0  0  0  0  0  0  0  0
   -5.5351   -0.3129   -0.5025 C   0  0  0  0  0  0  0  0  0  0  0  0
   -4.1840   -0.2918   -0.2163 C   0  0  0  0  0  0  0  0  0  0  0  0
   -6.0772   -0.4613   -1.7422 O   0  0  0  0  0  0  0  0  0  0  0  0
   -7.4859   -0.4074   -1.4301 C   0  0  0  0  0  0  0  0  0  0  0  0
   -7.7559   -0.2296   -0.0247 O   0  0  0  0  0  0  0  0  0  0  0  0
    3.3237   -0.4169   -0.5847 S   0  0  0  0  0  0  0  0  0  0  0  0
    8.4676    1.9951   -0.6374 H   0  0  0  0  0  0  0  0  0  0  0  0
    8.2036    0.4234   -1.4119 H   0  0  0  0  0  0  0  0  0  0  0  0
    8.6750    0.5042    0.2974 H   0  0  0  0  0  0  0  0  0  0  0  0
    6.0446    1.5673   -0.8631 H   0  0  0  0  0  0  0  0  0  0  0  0
    6.5114    1.6468    0.8329 H   0  0  0  0  0  0  0  0  0  0  0  0
    6.6033   -0.8628    0.9304 H   0  0  0  0  0  0  0  0  0  0  0  0
    6.1417   -0.9546   -0.7635 H   0  0  0  0  0  0  0  0  0  0  0  0
    0.7182   -0.3927   -0.6107 H   0  0  0  0  0  0  0  0  0  0  0  0
   -1.5283    0.6044   -0.0880 H   0  0  0  0  0  0  0  0  0  0  0  0
   -1.5475   -1.1851    0.1346 H   0  0  0  0  0  0  0  0  0  0  0  0
   -4.4871    0.1308    3.1546 H   0  0  0  0  0  0  0  0  0  0  0  0
   -6.9129    0.0836    2.5656 H   0  0  0  0  0  0  0  0  0  0  0  0
   -3.4758   -0.4002   -1.0260 H   0  0  0  0  0  0  0  0  0  0  0  0
   -7.9539   -1.3414   -1.7620 H   0  0  0  0  0  0  0  0  0  0  0  0
   -7.9349    0.4264   -1.9820 H   0  0  0  0  0  0  0  0  0  0  0  0
  1  2  1  0
  2  3  1  0
  3  4  1  0
  4  5  2  0
  5  6  1  0
  6  7  2  0
  7  8  1  0
  8  9  1  0
  9 10  2  0
  9 11  1  0
 11 12  1  0
 12 13  1  0
 13 14  2  0
 14 15  1  0
 15 16  2  0
 16 17  1  0
 17 18  2  0
 17 19  1  0
 19 20  1  0
 20 21  1  0
  7 22  1  0
 22  4  1  0
 18 13  1  0
 21 16  1  0
  1 23  1  0
  1 24  1  0
  1 25  1  0
  2 26  1  0
  2 27  1  0
  3 28  1  0
  3 29  1  0
  8 30  1  0
 11 31  1  0
 11 32  1  0
 14 33  1  0
 15 34  1  0
 18 35  1  0
 20 36  1  0
 20 37  1  0
M  END
$$$$
