
     RDKit          3D

 33 34  0  0  0  0  0  0  0  0999 V2000
   -1.8479   -2.2889    0.0461 N   0  0  0  0  0  0  0  0  0  0  0  0
   -2.0324   -1.0140   -0.1431 C   0  0  0  0  0  0  0  0  0  0  0  0
   -1.0475   -0.2252   -0.7216 N   0  0  0  0  0  0  0  0  0  0  0  0
    0.2237   -0.8335   -0.6380 O   0  0  0  0  0  0  0  0  0  0  0  0
    1.0265   -0.2151    0.2873 C   0  0  0  0  0  0  0  0  0  0  0  0
    0.7234    0.8283    0.8638 O   0  0  0  0  0  0  0  0  0  0  0  0
    2.3249   -0.9603    0.4591 C   0  0  0  0  0  0  0  0  0  0  0  0
    3.4675   -0.2889   -0.2569 C   0  0  0  0  0  0  0  0  0  0  0  0
    3.9067   -0.7630   -1.4991 C   0  0  0  0  0  0  0  0  0  0  0  0
    4.9438   -0.1162   -2.1722 C   0  0  0  0  0  0  0  0  0  0  0  0
    5.5445    1.0121   -1.6158 C   0  0  0  0  0  0  0  0  0  0  0  0
    5.1114    1.4940   -0.3838 C   0  0  0  0  0  0  0  0  0  0  0  0
    4.0763    0.8487    0.2923 C   0  0  0  0  0  0  0  0  0  0  0  0
   -3.3244   -0.3425    0.2350 C   0  0  0  0  0  0  0  0  0  0  0  0
   -3.7468    0.7404   -0.5524 C   0  0  0  0  0  0  0  0  0  0  0  0
   -4.9318    1.4218   -0.2595 C   0  0  0  0  0  0  0  0  0  0  0  0
   -5.7179    1.0229    0.8193 C   0  0  0  0  0  0  0  0  0  0  0  0
   -5.3181   -0.0549    1.5953 C   0  0  0  0  0  0  0  0  0  0  0  0
   -4.1224   -0.7343    1.3168 C   0  0  0  0  0  0  0  0  0  0  0  0
   -3.7011   -2.0154    2.3935 Cl  0  0  0  0  0  0  0  0  0  0  0  0
   -2.6682   -2.7283    0.4854 H   0  0  0  0  0  0  0  0  0  0  0  0
   -1.0159    0.7293   -0.3518 H   0  0  0  0  0  0  0  0  0  0  0  0
    2.5369   -1.0352    1.5332 H   0  0  0  0  0  0  0  0  0  0  0  0
    2.2039   -1.9949    0.1173 H   0  0  0  0  0  0  0  0  0  0  0  0
    3.4454   -1.6383   -1.9528 H   0  0  0  0  0  0  0  0  0  0  0  0
    5.2784   -0.4873   -3.1358 H   0  0  0  0  0  0  0  0  0  0  0  0
    6.3485    1.5160   -2.1442 H   0  0  0  0  0  0  0  0  0  0  0  0
    5.5745    2.3763    0.0481 H   0  0  0  0  0  0  0  0  0  0  0  0
    3.7405    1.2446    1.2486 H   0  0  0  0  0  0  0  0  0  0  0  0
   -3.1679    1.0556   -1.4218 H   0  0  0  0  0  0  0  0  0  0  0  0
   -5.2445    2.2594   -0.8762 H   0  0  0  0  0  0  0  0  0  0  0  0
   -6.6450    1.5482    1.0502 H   0  0  0  0  0  0  0  0  0  0  0  0
   -5.9449   -0.3615    2.4259 H   0  0  0  0  0  0  0  0  0  0  0  0
  1  2  2  3
  2  3  1  0
  3  4  1  0
  4  5  1  0
  5  6  2  0
  5  7  1  0
  7  8  1  0
  8  9  2  0
  9 10  1  0
 10 11  2  0
 11 12  1  0
 12 13  2  0
  2 14  1  0
 14 15  2  0
 15 16  1  0
 16 17  2  0
 17 18  1  0
 18 19  2  0
 19 20  1  0
 13  8  1  0
 19 14  1  0
  1 21  1  0
  3 22  1  0
  7 23  1  0
  7 24  1  0
  9 25  1  0
 10 26  1  0
 11 27  1  0
 12 28  1  0
 13 29  1  0
 15 30  1  0
 16 31  1  0
 17 32  1  0
 18 33  1  0
M  END
$$$$
