
     RDKit          3D

 67 72  0  0  0  0  0  0  0  0999 V2000
   -4.1343    5.0935    0.1569 C   0  0  0  0  0  0  0  0  0  0  0  0
   -3.4809    3.9576   -0.5646 C   0  0  0  0  0  0  0  0  0  0  0  0
   -3.6264    3.7983   -1.9509 C   0  0  0  0  0  0  0  0  0  0  0  0
   -3.0057    2.7351   -2.6338 C   0  0  0  0  0  0  0  0  0  0  0  0
   -2.2255    1.8025   -1.9488 C   0  0  0  0  0  0  0  0  0  0  0  0
   -2.0852    1.9504   -0.5785 C   0  0  0  0  0  0  0  0  0  0  0  0
   -2.7010    3.0173    0.0891 C   0  0  0  0  0  0  0  0  0  0  0  0
   -2.4032    2.9660    1.4480 N   0  0  0  0  0  0  0  0  0  0  0  0
   -1.5735    1.8844    1.7534 C   0  0  0  0  0  0  0  0  0  0  0  0
   -1.1323    1.6365    2.8654 O   0  0  0  0  0  0  0  0  0  0  0  0
   -1.3339    1.1244    0.4212 C   0  0  1  0  0  0  0  0  0  0  0  0
   -1.8804   -0.2608    0.4291 C   0  0  0  0  0  0  0  0  0  0  0  0
   -0.8330   -1.1832    0.5819 C   0  0  0  0  0  0  0  0  0  0  0  0
   -1.3534   -2.4485    0.5977 C   0  0  0  0  0  0  0  0  0  0  0  0
   -0.7304   -3.6205    0.6913 O   0  0  0  0  0  0  0  0  0  0  0  0
   -2.7561   -2.3317    0.4391 N   0  0  0  0  0  0  0  0  0  0  0  0
   -3.7008   -3.4175    0.3888 C   0  0  0  0  0  0  0  0  0  0  0  0
   -4.9377   -3.2662   -0.2558 C   0  0  0  0  0  0  0  0  0  0  0  0
   -5.8543   -4.3224   -0.3057 C   0  0  0  0  0  0  0  0  0  0  0  0
   -5.5496   -5.5431    0.2878 C   0  0  0  0  0  0  0  0  0  0  0  0
   -4.3275   -5.7088    0.9316 C   0  0  0  0  0  0  0  0  0  0  0  0
   -3.4086   -4.6548    0.9818 C   0  0  0  0  0  0  0  0  0  0  0  0
   -3.0608   -0.9527    0.3373 C   0  0  0  0  0  0  0  0  0  0  0  0
   -4.3048   -0.4919    0.2214 O   0  0  0  0  0  0  0  0  0  0  0  0
    0.4542   -0.4649    0.7081 C   0  0  1  0  0  0  0  0  0  0  0  0
    1.6819   -1.0008   -0.0181 C   0  0  0  0  0  0  0  0  0  0  0  0
    2.7884   -0.0298    0.0422 N   0  0  0  0  0  0  0  0  0  0  0  0
    4.0760   -0.5136   -0.1191 C   0  0  0  0  0  0  0  0  0  0  0  0
    4.3522   -1.7064   -0.1086 O   0  0  0  0  0  0  0  0  0  0  0  0
    4.9803    0.4846   -0.2858 O   0  0  0  0  0  0  0  0  0  0  0  0
    6.3897    0.1961   -0.4704 C   0  0  0  0  0  0  0  0  0  0  0  0
    7.0509    1.5754   -0.6178 C   0  0  0  0  0  0  0  0  0  0  0  0
    6.6321   -0.6012   -1.7566 C   0  0  0  0  0  0  0  0  0  0  0  0
    6.9831   -0.5009    0.7587 C   0  0  0  0  0  0  0  0  0  0  0  0
    2.4508    1.3792   -0.2395 C   0  0  0  0  0  0  0  0  0  0  0  0
    1.1066    1.8446    0.3791 C   0  0  0  0  0  0  0  0  0  0  0  0
    0.0830    0.8520    0.0984 N   0  0  0  0  0  0  0  0  0  0  0  0
   -4.7292    5.7120   -0.5232 H   0  0  0  0  0  0  0  0  0  0  0  0
   -3.3767    5.7360    0.6168 H   0  0  0  0  0  0  0  0  0  0  0  0
   -4.8060    4.7139    0.9335 H   0  0  0  0  0  0  0  0  0  0  0  0
   -4.2253    4.5052   -2.5231 H   0  0  0  0  0  0  0  0  0  0  0  0
   -3.1357    2.6405   -3.7103 H   0  0  0  0  0  0  0  0  0  0  0  0
   -1.7456    0.9815   -2.4742 H   0  0  0  0  0  0  0  0  0  0  0  0
   -2.7087    3.6280    2.1457 H   0  0  0  0  0  0  0  0  0  0  0  0
    0.2230   -3.4598    0.7908 H   0  0  0  0  0  0  0  0  0  0  0  0
   -5.2078   -2.3464   -0.7645 H   0  0  0  0  0  0  0  0  0  0  0  0
   -6.8044   -4.1877   -0.8158 H   0  0  0  0  0  0  0  0  0  0  0  0
   -6.2620   -6.3623    0.2492 H   0  0  0  0  0  0  0  0  0  0  0  0
   -4.0854   -6.6574    1.4037 H   0  0  0  0  0  0  0  0  0  0  0  0
   -2.4854   -4.8231    1.5271 H   0  0  0  0  0  0  0  0  0  0  0  0
   -4.2644    0.4754    0.1222 H   0  0  0  0  0  0  0  0  0  0  0  0
    0.6801   -0.3371    1.7766 H   0  0  0  0  0  0  0  0  0  0  0  0
    1.4724   -1.1934   -1.0783 H   0  0  0  0  0  0  0  0  0  0  0  0
    1.9974   -1.9522    0.4245 H   0  0  0  0  0  0  0  0  0  0  0  0
    6.6254    2.1229   -1.4670 H   0  0  0  0  0  0  0  0  0  0  0  0
    8.1330    1.4947   -0.7656 H   0  0  0  0  0  0  0  0  0  0  0  0
    6.8677    2.1921    0.2700 H   0  0  0  0  0  0  0  0  0  0  0  0
    6.1254   -0.1307   -2.6067 H   0  0  0  0  0  0  0  0  0  0  0  0
    6.2435   -1.6215   -1.6856 H   0  0  0  0  0  0  0  0  0  0  0  0
    7.7010   -0.6738   -1.9847 H   0  0  0  0  0  0  0  0  0  0  0  0
    6.7221    0.0392    1.6757 H   0  0  0  0  0  0  0  0  0  0  0  0
    8.0745   -0.5661    0.6913 H   0  0  0  0  0  0  0  0  0  0  0  0
    6.6022   -1.5199    0.8757 H   0  0  0  0  0  0  0  0  0  0  0  0
    2.4083    1.4760   -1.3318 H   0  0  0  0  0  0  0  0  0  0  0  0
    3.2528    2.0341    0.1172 H   0  0  0  0  0  0  0  0  0  0  0  0
    0.8411    2.8153   -0.0539 H   0  0  0  0  0  0  0  0  0  0  0  0
    1.2369    1.9861    1.4587 H   0  0  0  0  0  0  0  0  0  0  0  0
  1  2  1  0
  2  3  2  0
  3  4  1  0
  4  5  2  0
  5  6  1  0
  6  7  2  0
  7  8  1  0
  8  9  1  0
  9 10  2  0
  9 11  1  0
 11 12  1  0
 12 13  1  0
 13 14  2  0
 14 15  1  0
 14 16  1  0
 16 17  1  0
 17 18  2  0
 18 19  1  0
 19 20  2  0
 20 21  1  0
 21 22  2  0
 16 23  1  0
 23 24  1  0
 13 25  1  0
 25 26  1  0
 26 27  1  0
 27 28  1  0
 28 29  2  0
 28 30  1  0
 30 31  1  0
 31 32  1  0
 31 33  1  0
 31 34  1  0
 27 35  1  0
 35 36  1  0
 36 37  1  0
  7  2  1  0
 11 37  1  6
 11  6  1  0
 23 12  2  0
 37 25  1  0
 22 17  1  0
  1 38  1  0
  1 39  1  0
  1 40  1  0
  3 41  1  0
  4 42  1  0
  5 43  1  0
  8 44  1  0
 15 45  1  0
 18 46  1  0
 19 47  1  0
 20 48  1  0
 21 49  1  0
 22 50  1  0
 24 51  1  0
 25 52  1  1
 26 53  1  0
 26 54  1  0
 32 55  1  0
 32 56  1  0
 32 57  1  0
 33 58  1  0
 33 59  1  0
 33 60  1  0
 34 61  1  0
 34 62  1  0
 34 63  1  0
 35 64  1  0
 35 65  1  0
 36 66  1  0
 36 67  1  0
M  END
$$$$
