
     RDKit          3D

 58 61  0  0  0  0  0  0  0  0999 V2000
   -3.0634    6.2953    0.4389 C   0  0  0  0  0  0  0  0  0  0  0  0
   -2.2906    5.1029    0.4911 O   0  0  0  0  0  0  0  0  0  0  0  0
   -2.9673    3.9344    0.7131 C   0  0  0  0  0  0  0  0  0  0  0  0
   -4.3391    3.8041    0.8817 C   0  0  0  0  0  0  0  0  0  0  0  0
   -4.9143    2.5478    1.1059 C   0  0  0  0  0  0  0  0  0  0  0  0
   -4.0861    1.4100    1.1581 C   0  0  0  0  0  0  0  0  0  0  0  0
   -4.5800   -0.2135    1.4243 S   0  0  0  0  0  0  0  0  0  0  0  0
   -2.9810   -0.8106    1.3152 C   0  0  0  0  0  0  0  0  0  0  0  0
   -2.7636   -2.2581    1.4587 C   0  0  0  0  0  0  0  0  0  0  0  0
   -2.8627   -2.8375    2.7354 C   0  0  0  0  0  0  0  0  0  0  0  0
   -2.6370   -4.2011    2.9166 C   0  0  0  0  0  0  0  0  0  0  0  0
   -2.3099   -4.9984    1.8243 C   0  0  0  0  0  0  0  0  0  0  0  0
   -2.2077   -4.4368    0.5484 C   0  0  0  0  0  0  0  0  0  0  0  0
   -2.4274   -3.0675    0.3540 C   0  0  0  0  0  0  0  0  0  0  0  0
   -2.3678   -2.4463   -0.8688 O   0  0  0  0  0  0  0  0  0  0  0  0
   -1.7322   -3.1535   -1.9253 C   0  0  0  0  0  0  0  0  0  0  0  0
   -2.0708    0.2085    1.0831 C   0  0  0  0  0  0  0  0  0  0  0  0
   -0.6432   -0.0558    0.9444 C   0  0  0  0  0  0  0  0  0  0  0  0
    0.1316   -0.3773    2.0615 C   0  0  0  0  0  0  0  0  0  0  0  0
    1.4980   -0.6278    1.9122 C   0  0  0  0  0  0  0  0  0  0  0  0
    2.1041   -0.5640    0.6534 C   0  0  0  0  0  0  0  0  0  0  0  0
    3.4451   -0.8307    0.6564 O   0  0  0  0  0  0  0  0  0  0  0  0
    4.1077   -1.0032   -0.6006 C   0  0  0  0  0  0  0  0  0  0  0  0
    4.6868    0.3327   -1.0988 C   0  0  0  0  0  0  0  0  0  0  0  0
    5.2627    0.2684   -2.4571 N   0  0  0  0  0  0  0  0  0  0  0  0
    5.5930    1.6198   -2.9218 C   0  0  0  0  0  0  0  0  0  0  0  0
    6.4591   -0.5756   -2.5026 C   0  0  0  0  0  0  0  0  0  0  0  0
    1.3314   -0.2281   -0.4591 C   0  0  0  0  0  0  0  0  0  0  0  0
   -0.0373    0.0255   -0.3138 C   0  0  0  0  0  0  0  0  0  0  0  0
   -2.7045    1.5046    0.9888 C   0  0  0  0  0  0  0  0  0  0  0  0
   -2.1556    2.7950    0.7665 C   0  0  0  0  0  0  0  0  0  0  0  0
   -3.5729    6.4780    1.3907 H   0  0  0  0  0  0  0  0  0  0  0  0
   -3.7753    6.2680   -0.3927 H   0  0  0  0  0  0  0  0  0  0  0  0
   -2.3782    7.1303    0.2629 H   0  0  0  0  0  0  0  0  0  0  0  0
   -5.0030    4.6617    0.8465 H   0  0  0  0  0  0  0  0  0  0  0  0
   -5.9886    2.4532    1.2384 H   0  0  0  0  0  0  0  0  0  0  0  0
   -3.1121   -2.2214    3.5965 H   0  0  0  0  0  0  0  0  0  0  0  0
   -2.7158   -4.6386    3.9087 H   0  0  0  0  0  0  0  0  0  0  0  0
   -2.1365   -6.0628    1.9629 H   0  0  0  0  0  0  0  0  0  0  0  0
   -1.9628   -5.0969   -0.2766 H   0  0  0  0  0  0  0  0  0  0  0  0
   -1.6297   -2.4671   -2.7717 H   0  0  0  0  0  0  0  0  0  0  0  0
   -2.3468   -3.9981   -2.2562 H   0  0  0  0  0  0  0  0  0  0  0  0
   -0.7262   -3.4817   -1.6412 H   0  0  0  0  0  0  0  0  0  0  0  0
   -0.3191   -0.4356    3.0490 H   0  0  0  0  0  0  0  0  0  0  0  0
    2.0950   -0.8804    2.7854 H   0  0  0  0  0  0  0  0  0  0  0  0
    3.4660   -1.4905   -1.3451 H   0  0  0  0  0  0  0  0  0  0  0  0
    4.9278   -1.7045   -0.4081 H   0  0  0  0  0  0  0  0  0  0  0  0
    5.4257    0.6985   -0.3720 H   0  0  0  0  0  0  0  0  0  0  0  0
    3.8792    1.0758   -1.0898 H   0  0  0  0  0  0  0  0  0  0  0  0
    4.6955    2.2502   -2.9475 H   0  0  0  0  0  0  0  0  0  0  0  0
    6.3406    2.1068   -2.2830 H   0  0  0  0  0  0  0  0  0  0  0  0
    5.9789    1.5896   -3.9470 H   0  0  0  0  0  0  0  0  0  0  0  0
    6.8887   -0.5785   -3.5113 H   0  0  0  0  0  0  0  0  0  0  0  0
    6.2154   -1.6185   -2.2766 H   0  0  0  0  0  0  0  0  0  0  0  0
    7.2311   -0.2369   -1.8015 H   0  0  0  0  0  0  0  0  0  0  0  0
    1.7572   -0.1455   -1.4536 H   0  0  0  0  0  0  0  0  0  0  0  0
   -0.6311    0.2776   -1.1902 H   0  0  0  0  0  0  0  0  0  0  0  0
   -1.0810    2.9041    0.6363 H   0  0  0  0  0  0  0  0  0  0  0  0
  1  2  1  0
  2  3  1  0
  3  4  2  0
  4  5  1  0
  5  6  2  0
  6  7  1  0
  7  8  1  0
  8  9  1  0
  9 10  2  0
 10 11  1  0
 11 12  2  0
 12 13  1  0
 13 14  2  0
 14 15  1  0
 15 16  1  0
  8 17  2  0
 17 18  1  0
 18 19  2  0
 19 20  1  0
 20 21  2  0
 21 22  1  0
 22 23  1  0
 23 24  1  0
 24 25  1  0
 25 26  1  0
 25 27  1  0
 21 28  1  0
 28 29  2  0
 17 30  1  0
 30 31  2  0
 31  3  1  0
 30  6  1  0
 14  9  1  0
 29 18  1  0
  1 32  1  0
  1 33  1  0
  1 34  1  0
  4 35  1  0
  5 36  1  0
 10 37  1  0
 11 38  1  0
 12 39  1  0
 13 40  1  0
 16 41  1  0
 16 42  1  0
 16 43  1  0
 19 44  1  0
 20 45  1  0
 23 46  1  0
 23 47  1  0
 24 48  1  0
 24 49  1  0
 26 50  1  0
 26 51  1  0
 26 52  1  0
 27 53  1  0
 27 54  1  0
 27 55  1  0
 28 56  1  0
 29 57  1  0
 31 58  1  0
M  END
$$$$
