
     RDKit          3D

 38 38  0  0  0  0  0  0  0  0999 V2000
    3.5357    3.5372    0.9053 C   0  0  0  0  0  0  0  0  0  0  0  0
    2.4720    2.5964    0.8379 O   0  0  0  0  0  0  0  0  0  0  0  0
    2.2554    1.9072    2.0761 C   0  0  0  0  0  0  0  0  0  0  0  0
    3.1868    0.6988    2.2091 C   0  0  0  0  0  0  0  0  0  0  0  0
    2.9888   -0.2600    1.1344 N   0  0  0  0  0  0  0  0  0  0  0  0
    2.0000   -1.2141    1.2009 C   0  0  0  0  0  0  0  0  0  0  0  0
    1.2901   -1.3991    2.1823 O   0  0  0  0  0  0  0  0  0  0  0  0
    1.8600   -2.0281   -0.0316 C   0  0  0  0  0  0  0  0  0  0  0  0
    2.9619   -2.8732   -0.3497 C   0  0  0  0  0  0  0  0  0  0  0  0
    3.8595   -3.5483   -0.6433 N   0  0  0  0  0  0  0  0  0  0  0  0
    0.7564   -2.0480   -0.8057 C   0  0  0  0  0  0  0  0  0  0  0  0
   -0.4873   -1.2760   -0.7413 C   0  0  0  0  0  0  0  0  0  0  0  0
   -0.4995    0.0494   -0.0213 C   0  0  0  0  0  0  0  0  0  0  0  0
   -1.5623   -1.7507   -1.4073 C   0  0  0  0  0  0  0  0  0  0  0  0
   -2.8875   -1.1230   -1.4570 C   0  0  0  0  0  0  0  0  0  0  0  0
   -3.3678   -0.6131   -2.6677 C   0  0  0  0  0  0  0  0  0  0  0  0
   -4.6333   -0.0259   -2.7302 C   0  0  0  0  0  0  0  0  0  0  0  0
   -5.4258    0.0489   -1.5853 C   0  0  0  0  0  0  0  0  0  0  0  0
   -4.9556   -0.4641   -0.3771 C   0  0  0  0  0  0  0  0  0  0  0  0
   -3.6907   -1.0513   -0.3127 C   0  0  0  0  0  0  0  0  0  0  0  0
    3.3205    4.3050    1.6545 H   0  0  0  0  0  0  0  0  0  0  0  0
    3.6254    4.0216   -0.0708 H   0  0  0  0  0  0  0  0  0  0  0  0
    4.4834    3.0425    1.1335 H   0  0  0  0  0  0  0  0  0  0  0  0
    2.3799    2.5921    2.9227 H   0  0  0  0  0  0  0  0  0  0  0  0
    1.2127    1.5740    2.0766 H   0  0  0  0  0  0  0  0  0  0  0  0
    3.0160    0.2025    3.1701 H   0  0  0  0  0  0  0  0  0  0  0  0
    4.2358    1.0044    2.1591 H   0  0  0  0  0  0  0  0  0  0  0  0
    3.3981   -0.0289    0.2370 H   0  0  0  0  0  0  0  0  0  0  0  0
    0.7714   -2.7601   -1.6362 H   0  0  0  0  0  0  0  0  0  0  0  0
    0.4170    0.6123   -0.2260 H   0  0  0  0  0  0  0  0  0  0  0  0
   -1.3184    0.6990   -0.3464 H   0  0  0  0  0  0  0  0  0  0  0  0
   -0.6068   -0.0931    1.0574 H   0  0  0  0  0  0  0  0  0  0  0  0
   -1.5129   -2.6882   -1.9588 H   0  0  0  0  0  0  0  0  0  0  0  0
   -2.7589   -0.6640   -3.5670 H   0  0  0  0  0  0  0  0  0  0  0  0
   -5.0004    0.3730   -3.6723 H   0  0  0  0  0  0  0  0  0  0  0  0
   -6.4107    0.5060   -1.6348 H   0  0  0  0  0  0  0  0  0  0  0  0
   -5.5735   -0.4088    0.5153 H   0  0  0  0  0  0  0  0  0  0  0  0
   -3.3353   -1.4522    0.6341 H   0  0  0  0  0  0  0  0  0  0  0  0
  1  2  1  0
  2  3  1  0
  3  4  1  0
  4  5  1  0
  5  6  1  0
  6  7  2  0
  6  8  1  0
  8  9  1  0
  9 10  3  0
  8 11  2  3
 11 12  1  0
 12 13  1  0
 12 14  2  3
 14 15  1  0
 15 16  2  0
 16 17  1  0
 17 18  2  0
 18 19  1  0
 19 20  2  0
 20 15  1  0
  1 21  1  0
  1 22  1  0
  1 23  1  0
  3 24  1  0
  3 25  1  0
  4 26  1  0
  4 27  1  0
  5 28  1  0
 11 29  1  0
 13 30  1  0
 13 31  1  0
 13 32  1  0
 14 33  1  0
 16 34  1  0
 17 35  1  0
 18 36  1  0
 19 37  1  0
 20 38  1  0
M  END
$$$$
