
     RDKit          3D

 69 75  0  0  0  0  0  0  0  0999 V2000
   -3.6309    5.3341    1.6768 C   0  0  0  0  0  0  0  0  0  0  0  0
   -3.2500    4.2514    0.7116 C   0  0  0  0  0  0  0  0  0  0  0  0
   -3.5992    4.3214   -0.6504 C   0  0  0  0  0  0  0  0  0  0  0  0
   -4.4971    5.6609   -1.2798 Cl  0  0  0  0  0  0  0  0  0  0  0  0
   -3.2377    3.3067   -1.5576 C   0  0  0  0  0  0  0  0  0  0  0  0
   -2.5084    2.1939   -1.1344 C   0  0  0  0  0  0  0  0  0  0  0  0
   -2.1445    2.1169    0.2023 C   0  0  0  0  0  0  0  0  0  0  0  0
   -2.5265    3.1285    1.0996 C   0  0  0  0  0  0  0  0  0  0  0  0
   -2.0912    2.8067    2.3828 N   0  0  0  0  0  0  0  0  0  0  0  0
   -1.4377    1.5724    2.4203 C   0  0  0  0  0  0  0  0  0  0  0  0
   -1.0008    1.0561    3.4390 O   0  0  0  0  0  0  0  0  0  0  0  0
   -1.3832    1.0508    0.9556 C   0  0  1  0  0  0  0  0  0  0  0  0
   -2.0805   -0.2383    0.7638 C   0  0  0  0  0  0  0  0  0  0  0  0
   -1.2077   -1.2224    0.3029 C   0  0  0  0  0  0  0  0  0  0  0  0
   -1.9046   -2.3887    0.1234 C   0  0  0  0  0  0  0  0  0  0  0  0
   -1.4817   -3.5910   -0.2581 O   0  0  0  0  0  0  0  0  0  0  0  0
   -3.2324   -2.1432    0.5230 N   0  0  0  0  0  0  0  0  0  0  0  0
   -4.2823   -3.1130    0.6063 C   0  0  0  0  0  0  0  0  0  0  0  0
   -4.3308   -4.1902   -0.2881 C   0  0  0  0  0  0  0  0  0  0  0  0
   -5.3604   -5.1310   -0.2032 C   0  0  0  0  0  0  0  0  0  0  0  0
   -6.3401   -5.0108    0.7806 C   0  0  0  0  0  0  0  0  0  0  0  0
   -6.2903   -3.9522    1.6851 C   0  0  0  0  0  0  0  0  0  0  0  0
   -5.2655   -3.0056    1.6023 C   0  0  0  0  0  0  0  0  0  0  0  0
   -3.3388   -0.7756    0.8514 C   0  0  0  0  0  0  0  0  0  0  0  0
   -4.4791   -0.1477    1.1352 O   0  0  0  0  0  0  0  0  0  0  0  0
    0.1707   -0.7088    0.1808 C   0  0  1  0  0  0  0  0  0  0  0  0
    0.8031   -0.9124   -1.2065 C   0  0  0  0  0  0  0  0  0  0  0  0
    2.0892   -0.2124   -1.3017 N   0  0  0  0  0  0  0  0  0  0  0  0
    3.1587   -0.8814   -1.8579 C   0  0  0  0  0  0  0  0  0  0  0  0
    3.0418   -1.9825   -2.3932 O   0  0  0  0  0  0  0  0  0  0  0  0
    4.3617   -0.2396   -1.7734 N   0  0  0  0  0  0  0  0  0  0  0  0
    5.5733   -0.8798   -2.2328 C   0  0  0  0  0  0  0  0  0  0  0  0
    6.7549   -0.4541   -1.4008 C   0  0  0  0  0  0  0  0  0  0  0  0
    7.6297    0.5450   -1.8476 C   0  0  0  0  0  0  0  0  0  0  0  0
    8.7153    0.9360   -1.0621 C   0  0  0  0  0  0  0  0  0  0  0  0
    8.9313    0.3387    0.1792 C   0  0  0  0  0  0  0  0  0  0  0  0
    8.0609   -0.6483    0.6390 C   0  0  0  0  0  0  0  0  0  0  0  0
    6.9756   -1.0404   -0.1451 C   0  0  0  0  0  0  0  0  0  0  0  0
    2.1288    1.1357   -0.7148 C   0  0  0  0  0  0  0  0  0  0  0  0
    0.7297    1.6632   -0.3194 C   0  0  0  0  0  0  0  0  0  0  0  0
    0.0328    0.7385    0.5739 N   0  0  0  0  0  0  0  0  0  0  0  0
   -4.7148    5.4855    1.6806 H   0  0  0  0  0  0  0  0  0  0  0  0
   -3.1359    6.2721    1.4030 H   0  0  0  0  0  0  0  0  0  0  0  0
   -3.3378    5.1021    2.7051 H   0  0  0  0  0  0  0  0  0  0  0  0
   -3.5347    3.3807   -2.6021 H   0  0  0  0  0  0  0  0  0  0  0  0
   -2.2473    1.4057   -1.8354 H   0  0  0  0  0  0  0  0  0  0  0  0
   -2.2652    3.3344    3.2243 H   0  0  0  0  0  0  0  0  0  0  0  0
   -0.5184   -3.5567   -0.3928 H   0  0  0  0  0  0  0  0  0  0  0  0
   -3.5943   -4.3069   -1.0794 H   0  0  0  0  0  0  0  0  0  0  0  0
   -5.3930   -5.9603   -0.9059 H   0  0  0  0  0  0  0  0  0  0  0  0
   -7.1338   -5.7502    0.8487 H   0  0  0  0  0  0  0  0  0  0  0  0
   -7.0402   -3.8715    2.4698 H   0  0  0  0  0  0  0  0  0  0  0  0
   -5.2232   -2.2283    2.3623 H   0  0  0  0  0  0  0  0  0  0  0  0
   -5.2180   -0.6616    0.7606 H   0  0  0  0  0  0  0  0  0  0  0  0
    0.8048   -1.1868    0.9385 H   0  0  0  0  0  0  0  0  0  0  0  0
    0.9265   -1.9846   -1.4012 H   0  0  0  0  0  0  0  0  0  0  0  0
    0.1575   -0.5200   -2.0053 H   0  0  0  0  0  0  0  0  0  0  0  0
    4.4654    0.5164   -1.1162 H   0  0  0  0  0  0  0  0  0  0  0  0
    5.4751   -1.9711   -2.2006 H   0  0  0  0  0  0  0  0  0  0  0  0
    5.7140   -0.6020   -3.2832 H   0  0  0  0  0  0  0  0  0  0  0  0
    7.4747    1.0218   -2.8125 H   0  0  0  0  0  0  0  0  0  0  0  0
    9.3948    1.7059   -1.4189 H   0  0  0  0  0  0  0  0  0  0  0  0
    9.7789    0.6419    0.7877 H   0  0  0  0  0  0  0  0  0  0  0  0
    8.2289   -1.1124    1.6077 H   0  0  0  0  0  0  0  0  0  0  0  0
    6.3004   -1.8110    0.2227 H   0  0  0  0  0  0  0  0  0  0  0  0
    2.7791    1.1002    0.1693 H   0  0  0  0  0  0  0  0  0  0  0  0
    2.5867    1.8130   -1.4470 H   0  0  0  0  0  0  0  0  0  0  0  0
    0.8440    2.6408    0.1650 H   0  0  0  0  0  0  0  0  0  0  0  0
    0.1700    1.8155   -1.2494 H   0  0  0  0  0  0  0  0  0  0  0  0
  1  2  1  0
  2  3  2  0
  3  4  1  0
  3  5  1  0
  5  6  2  0
  6  7  1  0
  7  8  2  0
  8  9  1  0
  9 10  1  0
 10 11  2  0
 10 12  1  0
 12 13  1  0
 13 14  1  0
 14 15  2  0
 15 16  1  0
 15 17  1  0
 17 18  1  0
 18 19  2  0
 19 20  1  0
 20 21  2  0
 21 22  1  0
 22 23  2  0
 17 24  1  0
 24 25  1  0
 14 26  1  0
 26 27  1  0
 27 28  1  0
 28 29  1  0
 29 30  2  0
 29 31  1  0
 31 32  1  0
 32 33  1  0
 33 34  2  0
 34 35  1  0
 35 36  2  0
 36 37  1  0
 37 38  2  0
 28 39  1  0
 39 40  1  0
 40 41  1  0
  8  2  1  0
 12 41  1  6
 12  7  1  0
 24 13  2  0
 41 26  1  0
 23 18  1  0
 38 33  1  0
  1 42  1  0
  1 43  1  0
  1 44  1  0
  5 45  1  0
  6 46  1  0
  9 47  1  0
 16 48  1  0
 19 49  1  0
 20 50  1  0
 21 51  1  0
 22 52  1  0
 23 53  1  0
 25 54  1  0
 26 55  1  1
 27 56  1  0
 27 57  1  0
 31 58  1  0
 32 59  1  0
 32 60  1  0
 34 61  1  0
 35 62  1  0
 36 63  1  0
 37 64  1  0
 38 65  1  0
 39 66  1  0
 39 67  1  0
 40 68  1  0
 40 69  1  0
M  END
$$$$
