
     RDKit          3D

 50 52  0  0  0  0  0  0  0  0999 V2000
    6.8549    3.2864    1.2021 C   0  0  0  0  0  0  0  0  0  0  0  0
    6.6726    2.1225    0.4014 O   0  0  0  0  0  0  0  0  0  0  0  0
    5.3839    1.7553    0.1312 C   0  0  0  0  0  0  0  0  0  0  0  0
    4.2360    2.4568    0.4941 C   0  0  0  0  0  0  0  0  0  0  0  0
    2.9718    1.9641    0.1439 C   0  0  0  0  0  0  0  0  0  0  0  0
    2.8363    0.7608   -0.5638 C   0  0  0  0  0  0  0  0  0  0  0  0
    1.5269    0.3375   -0.8612 N   0  0  0  0  0  0  0  0  0  0  0  0
    1.1235   -0.8030   -1.5428 C   0  0  0  0  0  0  0  0  0  0  0  0
    1.8916   -1.5906   -2.0915 O   0  0  0  0  0  0  0  0  0  0  0  0
   -0.4345   -0.9234   -1.6822 C   0  0  0  0  0  0  0  0  0  0  0  0
   -1.1850   -0.6803   -0.4405 N   0  0  0  0  0  0  0  0  0  0  0  0
   -1.4585    0.5905    0.0098 C   0  0  0  0  0  0  0  0  0  0  0  0
   -0.8825    1.5781   -0.4315 O   0  0  0  0  0  0  0  0  0  0  0  0
   -2.5027    0.7232    1.0600 C   0  0  0  0  0  0  0  0  0  0  0  0
   -3.2206    1.9229    1.1299 C   0  0  0  0  0  0  0  0  0  0  0  0
   -4.2226    2.0880    2.0881 C   0  0  0  0  0  0  0  0  0  0  0  0
   -4.5190    1.0560    2.9866 C   0  0  0  0  0  0  0  0  0  0  0  0
   -5.5836    1.2318    4.0325 C   0  0  0  0  0  0  0  0  0  0  0  0
   -3.7767   -0.1310    2.9335 C   0  0  0  0  0  0  0  0  0  0  0  0
   -2.7728   -0.2998    1.9756 C   0  0  0  0  0  0  0  0  0  0  0  0
   -0.8962   -2.2664   -2.2419 C   0  0  0  0  0  0  0  0  0  0  0  0
   -1.8542   -2.3060   -3.2708 C   0  0  0  0  0  0  0  0  0  0  0  0
   -2.3320   -3.5281   -3.7516 C   0  0  0  0  0  0  0  0  0  0  0  0
   -1.8632   -4.7245   -3.2082 C   0  0  0  0  0  0  0  0  0  0  0  0
   -0.9232   -4.7012   -2.1793 C   0  0  0  0  0  0  0  0  0  0  0  0
   -0.4502   -3.4808   -1.6908 C   0  0  0  0  0  0  0  0  0  0  0  0
    3.9876    0.0611   -0.9214 C   0  0  0  0  0  0  0  0  0  0  0  0
    5.2509    0.5591   -0.5802 C   0  0  0  0  0  0  0  0  0  0  0  0
    7.9300    3.4233    1.3538 H   0  0  0  0  0  0  0  0  0  0  0  0
    6.3928    3.1636    2.1900 H   0  0  0  0  0  0  0  0  0  0  0  0
    6.4744    4.1797    0.6951 H   0  0  0  0  0  0  0  0  0  0  0  0
    4.2843    3.3879    1.0472 H   0  0  0  0  0  0  0  0  0  0  0  0
    2.0919    2.5323    0.4384 H   0  0  0  0  0  0  0  0  0  0  0  0
    0.7785    0.9743   -0.5843 H   0  0  0  0  0  0  0  0  0  0  0  0
   -0.7137   -0.1333   -2.3953 H   0  0  0  0  0  0  0  0  0  0  0  0
   -1.8301   -1.4145   -0.1823 H   0  0  0  0  0  0  0  0  0  0  0  0
   -3.0086    2.7305    0.4338 H   0  0  0  0  0  0  0  0  0  0  0  0
   -4.7725    3.0266    2.1257 H   0  0  0  0  0  0  0  0  0  0  0  0
   -6.2846    2.0206    3.7518 H   0  0  0  0  0  0  0  0  0  0  0  0
   -5.1296    1.4939    4.9935 H   0  0  0  0  0  0  0  0  0  0  0  0
   -6.1671    0.3117    4.1476 H   0  0  0  0  0  0  0  0  0  0  0  0
   -3.9762   -0.9327    3.6431 H   0  0  0  0  0  0  0  0  0  0  0  0
   -2.2007   -1.2242    1.9771 H   0  0  0  0  0  0  0  0  0  0  0  0
   -2.2415   -1.3839   -3.7044 H   0  0  0  0  0  0  0  0  0  0  0  0
   -3.0716   -3.5485   -4.5508 H   0  0  0  0  0  0  0  0  0  0  0  0
   -2.2303   -5.6753   -3.5897 H   0  0  0  0  0  0  0  0  0  0  0  0
   -0.5524   -5.6336   -1.7578 H   0  0  0  0  0  0  0  0  0  0  0  0
    0.2841   -3.4859   -0.8875 H   0  0  0  0  0  0  0  0  0  0  0  0
    3.9449   -0.8749   -1.4719 H   0  0  0  0  0  0  0  0  0  0  0  0
    6.1392    0.0035   -0.8755 H   0  0  0  0  0  0  0  0  0  0  0  0
  1  2  1  0
  2  3  1  0
  3  4  2  0
  4  5  1  0
  5  6  2  0
  6  7  1  0
  7  8  1  0
  8  9  2  0
  8 10  1  0
 10 11  1  0
 11 12  1  0
 12 13  2  0
 12 14  1  0
 14 15  2  0
 15 16  1  0
 16 17  2  0
 17 18  1  0
 17 19  1  0
 19 20  2  0
 10 21  1  0
 21 22  2  0
 22 23  1  0
 23 24  2  0
 24 25  1  0
 25 26  2  0
  6 27  1  0
 27 28  2  0
 28  3  1  0
 20 14  1  0
 26 21  1  0
  1 29  1  0
  1 30  1  0
  1 31  1  0
  4 32  1  0
  5 33  1  0
  7 34  1  0
 10 35  1  0
 11 36  1  0
 15 37  1  0
 16 38  1  0
 18 39  1  0
 18 40  1  0
 18 41  1  0
 19 42  1  0
 20 43  1  0
 22 44  1  0
 23 45  1  0
 24 46  1  0
 25 47  1  0
 26 48  1  0
 27 49  1  0
 28 50  1  0
M  END
$$$$
