
     RDKit          3D

 61 65  0  0  0  0  0  0  0  0999 V2000
    7.6194    3.9971   -2.3944 C   0  0  0  0  0  0  0  0  0  0  0  0
    6.7290    2.9488   -2.7555 O   0  0  0  0  0  0  0  0  0  0  0  0
    6.3888    2.0616   -1.7716 C   0  0  0  0  0  0  0  0  0  0  0  0
    5.4740    1.0804   -2.1605 C   0  0  0  0  0  0  0  0  0  0  0  0
    5.0389    0.1097   -1.2551 C   0  0  0  0  0  0  0  0  0  0  0  0
    5.5226    0.1016    0.0590 C   0  0  0  0  0  0  0  0  0  0  0  0
    5.0489   -0.9357    1.0459 C   0  0  0  0  0  0  0  0  0  0  0  0
    3.9759   -0.4278    1.8741 N   0  0  0  0  0  0  0  0  0  0  0  0
    4.2289    0.0882    3.1030 N   0  0  0  0  0  0  0  0  0  0  0  0
    3.0630    0.4564    3.6348 N   0  0  0  0  0  0  0  0  0  0  0  0
    2.0913    0.1490    2.7321 C   0  0  0  0  0  0  0  0  0  0  0  0
    0.6655    0.3228    2.7853 C   0  0  0  0  0  0  0  0  0  0  0  0
    0.0458    0.7891    3.7335 O   0  0  0  0  0  0  0  0  0  0  0  0
    0.0418   -0.1194    1.6215 N   0  0  0  0  0  0  0  0  0  0  0  0
    0.7052   -0.7164    0.5558 C   0  0  0  0  0  0  0  0  0  0  0  0
   -0.1181   -1.1504   -0.6584 C   0  0  0  0  0  0  0  0  0  0  0  0
   -1.3838   -1.9368   -0.3028 C   0  0  0  0  0  0  0  0  0  0  0  0
   -2.6275   -1.3810   -0.9828 C   0  0  0  0  0  0  0  0  0  0  0  0
   -2.7682    0.0801   -0.7815 N   0  0  0  0  0  0  0  0  0  0  0  0
   -3.5595    0.6153    0.6322 S   0  0  0  0  0  6  0  0  0  0  0  0
   -3.7643    2.0415    0.5128 O   0  0  0  0  0  0  0  0  0  0  0  0
   -2.7882    0.0588    1.7274 O   0  0  0  0  0  0  0  0  0  0  0  0
   -5.1427   -0.1674    0.5643 C   0  0  0  0  0  0  0  0  0  0  0  0
   -5.5293   -1.0576    1.5677 C   0  0  0  0  0  0  0  0  0  0  0  0
   -6.7807   -1.6714    1.4926 C   0  0  0  0  0  0  0  0  0  0  0  0
   -7.6419   -1.4035    0.4185 C   0  0  0  0  0  0  0  0  0  0  0  0
   -9.0020   -2.0369    0.3641 C   0  0  0  0  0  0  0  0  0  0  0  0
   -7.2473   -0.4900   -0.5688 C   0  0  0  0  0  0  0  0  0  0  0  0
   -5.9980    0.1276   -0.5004 C   0  0  0  0  0  0  0  0  0  0  0  0
   -1.5694    0.8902   -1.1344 C   0  0  0  0  0  0  0  0  0  0  0  0
   -0.3936    0.0370   -1.5885 C   0  0  0  0  0  0  0  0  0  0  0  0
    1.9998   -0.8869    0.5080 N   0  0  0  0  0  0  0  0  0  0  0  0
    2.6359   -0.4306    1.6135 C   0  0  0  0  0  0  0  0  0  0  0  0
    6.4346    1.0930    0.4480 C   0  0  0  0  0  0  0  0  0  0  0  0
    6.8666    2.0650   -0.4617 C   0  0  0  0  0  0  0  0  0  0  0  0
    7.7770    4.6217   -3.2794 H   0  0  0  0  0  0  0  0  0  0  0  0
    8.5937    3.6003   -2.0899 H   0  0  0  0  0  0  0  0  0  0  0  0
    7.1874    4.6304   -1.6129 H   0  0  0  0  0  0  0  0  0  0  0  0
    5.0922    1.0766   -3.1785 H   0  0  0  0  0  0  0  0  0  0  0  0
    4.3143   -0.6332   -1.5830 H   0  0  0  0  0  0  0  0  0  0  0  0
    4.6857   -1.8343    0.5335 H   0  0  0  0  0  0  0  0  0  0  0  0
    5.8698   -1.2522    1.7005 H   0  0  0  0  0  0  0  0  0  0  0  0
   -0.9735   -0.0507    1.6605 H   0  0  0  0  0  0  0  0  0  0  0  0
    0.5357   -1.8359   -1.2183 H   0  0  0  0  0  0  0  0  0  0  0  0
   -1.2560   -2.9780   -0.6272 H   0  0  0  0  0  0  0  0  0  0  0  0
   -1.5382   -2.0006    0.7789 H   0  0  0  0  0  0  0  0  0  0  0  0
   -2.5889   -1.5719   -2.0627 H   0  0  0  0  0  0  0  0  0  0  0  0
   -3.5128   -1.9183   -0.6308 H   0  0  0  0  0  0  0  0  0  0  0  0
   -4.8744   -1.2725    2.4093 H   0  0  0  0  0  0  0  0  0  0  0  0
   -7.0852   -2.3576    2.2809 H   0  0  0  0  0  0  0  0  0  0  0  0
   -9.3386   -2.1513   -0.6719 H   0  0  0  0  0  0  0  0  0  0  0  0
   -8.9850   -3.0363    0.8119 H   0  0  0  0  0  0  0  0  0  0  0  0
   -9.7243   -1.4176    0.9046 H   0  0  0  0  0  0  0  0  0  0  0  0
   -7.9153   -0.2507   -1.3941 H   0  0  0  0  0  0  0  0  0  0  0  0
   -5.6994    0.8376   -1.2686 H   0  0  0  0  0  0  0  0  0  0  0  0
   -1.8528    1.5829   -1.9351 H   0  0  0  0  0  0  0  0  0  0  0  0
   -1.2496    1.5037   -0.2847 H   0  0  0  0  0  0  0  0  0  0  0  0
   -0.6031   -0.3469   -2.5958 H   0  0  0  0  0  0  0  0  0  0  0  0
    0.4975    0.6694   -1.6840 H   0  0  0  0  0  0  0  0  0  0  0  0
    6.8103    1.1225    1.4701 H   0  0  0  0  0  0  0  0  0  0  0  0
    7.5723    2.8111   -0.1113 H   0  0  0  0  0  0  0  0  0  0  0  0
  1  2  1  0
  2  3  1  0
  3  4  2  0
  4  5  1  0
  5  6  2  0
  6  7  1  0
  7  8  1  0
  8  9  1  0
  9 10  2  0
 10 11  1  0
 11 12  1  0
 12 13  2  0
 12 14  1  0
 14 15  1  0
 15 16  1  0
 16 17  1  0
 17 18  1  0
 18 19  1  0
 19 20  1  0
 20 21  2  0
 20 22  2  0
 20 23  1  0
 23 24  2  0
 24 25  1  0
 25 26  2  0
 26 27  1  0
 26 28  1  0
 28 29  2  0
 19 30  1  0
 30 31  1  0
 15 32  2  0
 32 33  1  0
  6 34  1  0
 34 35  2  0
 35  3  1  0
 33  8  1  0
 33 11  2  0
 31 16  1  0
 29 23  1  0
  1 36  1  0
  1 37  1  0
  1 38  1  0
  4 39  1  0
  5 40  1  0
  7 41  1  0
  7 42  1  0
 14 43  1  0
 16 44  1  0
 17 45  1  0
 17 46  1  0
 18 47  1  0
 18 48  1  0
 24 49  1  0
 25 50  1  0
 27 51  1  0
 27 52  1  0
 27 53  1  0
 28 54  1  0
 29 55  1  0
 30 56  1  0
 30 57  1  0
 31 58  1  0
 31 59  1  0
 34 60  1  0
 35 61  1  0
M  END
$$$$
