
     RDKit          3D

 49 52  0  0  0  0  0  0  0  0999 V2000
   -4.7999    1.1316    2.9032 C   0  0  0  0  0  0  0  0  0  0  0  0
   -3.9477    0.2698    1.9987 C   0  0  0  0  0  0  0  0  0  0  0  0
   -3.0846   -0.5202    2.5729 N   0  0  0  0  0  0  0  0  0  0  0  0
   -2.1880   -1.2068    1.7941 N   0  0  0  0  0  0  0  0  0  0  0  0
   -1.2051   -0.5444    1.0549 C   0  0  0  0  0  0  0  0  0  0  0  0
   -1.1943    0.6585    0.8103 O   0  0  0  0  0  0  0  0  0  0  0  0
   -0.1568   -1.4480    0.5862 C   0  0  0  0  0  0  0  0  0  0  0  0
   -0.1755   -2.7883    0.8643 N   0  0  0  0  0  0  0  0  0  0  0  0
    0.8968   -3.3387    0.3256 N   0  0  0  0  0  0  0  0  0  0  0  0
    1.6240   -2.3764   -0.3179 N   0  0  0  0  0  0  0  0  0  0  0  0
    2.8268   -2.6979   -0.9983 C   0  0  0  0  0  0  0  0  0  0  0  0
    3.5301   -1.7670   -1.6436 N   0  0  0  0  0  0  0  0  0  0  0  0
    4.6250   -2.4598   -2.1560 O   0  0  0  0  0  0  0  0  0  0  0  0
    4.5668   -3.8095   -1.8272 N   0  0  0  0  0  0  0  0  0  0  0  0
    3.4486   -3.9561   -1.1178 C   0  0  0  0  0  0  0  0  0  0  0  0
    3.0180   -5.1295   -0.6166 N   0  0  0  0  0  0  0  0  0  0  0  0
    0.9743   -1.1546   -0.1601 C   0  0  0  0  0  0  0  0  0  0  0  0
    1.4767    0.1419   -0.6785 C   0  0  0  0  0  0  0  0  0  0  0  0
    2.5417    0.5127    0.1912 O   0  0  0  0  0  0  0  0  0  0  0  0
    3.2198    1.6623   -0.1064 C   0  0  0  0  0  0  0  0  0  0  0  0
    2.9018    2.5651   -1.1245 C   0  0  0  0  0  0  0  0  0  0  0  0
    3.6851    3.7077   -1.3155 C   0  0  0  0  0  0  0  0  0  0  0  0
    4.7778    3.9422   -0.4893 C   0  0  0  0  0  0  0  0  0  0  0  0
    5.5241    5.0383   -0.6768 F   0  0  0  0  0  0  0  0  0  0  0  0
    5.1041    3.0561    0.5280 C   0  0  0  0  0  0  0  0  0  0  0  0
    4.3219    1.9161    0.7184 C   0  0  0  0  0  0  0  0  0  0  0  0
   -4.2152    0.3782    0.5414 C   0  0  0  0  0  0  0  0  0  0  0  0
   -4.5301   -0.7712   -0.1920 C   0  0  0  0  0  0  0  0  0  0  0  0
   -4.7939   -0.6693   -1.5594 C   0  0  0  0  0  0  0  0  0  0  0  0
   -4.7456    0.5781   -2.1831 C   0  0  0  0  0  0  0  0  0  0  0  0
   -5.0661    0.7007   -3.8690 Cl  0  0  0  0  0  0  0  0  0  0  0  0
   -4.4375    1.7260   -1.4524 C   0  0  0  0  0  0  0  0  0  0  0  0
   -4.1745    1.6285   -0.0841 C   0  0  0  0  0  0  0  0  0  0  0  0
   -5.1727    0.5275    3.7360 H   0  0  0  0  0  0  0  0  0  0  0  0
   -4.1879    1.9461    3.3013 H   0  0  0  0  0  0  0  0  0  0  0  0
   -5.6581    1.5524    2.3723 H   0  0  0  0  0  0  0  0  0  0  0  0
   -1.8809   -2.0898    2.1985 H   0  0  0  0  0  0  0  0  0  0  0  0
    3.6577   -5.9167   -0.5895 H   0  0  0  0  0  0  0  0  0  0  0  0
    2.2723   -5.1659    0.0763 H   0  0  0  0  0  0  0  0  0  0  0  0
    0.6919    0.9034   -0.6513 H   0  0  0  0  0  0  0  0  0  0  0  0
    1.8118    0.0476   -1.7171 H   0  0  0  0  0  0  0  0  0  0  0  0
    2.0528    2.4161   -1.7832 H   0  0  0  0  0  0  0  0  0  0  0  0
    3.4477    4.4164   -2.1025 H   0  0  0  0  0  0  0  0  0  0  0  0
    5.9595    3.2553    1.1649 H   0  0  0  0  0  0  0  0  0  0  0  0
    4.5727    1.2184    1.5136 H   0  0  0  0  0  0  0  0  0  0  0  0
   -4.5738   -1.7412    0.2973 H   0  0  0  0  0  0  0  0  0  0  0  0
   -5.0369   -1.5616   -2.1305 H   0  0  0  0  0  0  0  0  0  0  0  0
   -4.3936    2.6956   -1.9417 H   0  0  0  0  0  0  0  0  0  0  0  0
   -3.9113    2.5204    0.4789 H   0  0  0  0  0  0  0  0  0  0  0  0
  1  2  1  0
  2  3  2  3
  3  4  1  0
  4  5  1  0
  5  6  2  0
  5  7  1  0
  7  8  1  0
  8  9  2  0
  9 10  1  0
 10 11  1  0
 11 12  2  0
 12 13  1  0
 13 14  1  0
 14 15  2  0
 15 16  1  0
 10 17  1  0
 17 18  1  0
 18 19  1  0
 19 20  1  0
 20 21  2  0
 21 22  1  0
 22 23  2  0
 23 24  1  0
 23 25  1  0
 25 26  2  0
  2 27  1  0
 27 28  2  0
 28 29  1  0
 29 30  2  0
 30 31  1  0
 30 32  1  0
 32 33  2  0
 17  7  2  0
 26 20  1  0
 33 27  1  0
 15 11  1  0
  1 34  1  0
  1 35  1  0
  1 36  1  0
  4 37  1  0
 16 38  1  0
 16 39  1  0
 18 40  1  0
 18 41  1  0
 21 42  1  0
 22 43  1  0
 25 44  1  0
 26 45  1  0
 28 46  1  0
 29 47  1  0
 32 48  1  0
 33 49  1  0
M  END
$$$$
