
     RDKit          3D

 64 67  0  0  0  0  0  0  0  0999 V2000
    7.8129   -5.2565   -3.4220 C   0  0  0  0  0  0  0  0  0  0  0  0
    7.1791   -4.0130   -3.6913 O   0  0  0  0  0  0  0  0  0  0  0  0
    5.9943   -3.7770   -3.0474 C   0  0  0  0  0  0  0  0  0  0  0  0
    5.4304   -4.5687   -2.0483 C   0  0  0  0  0  0  0  0  0  0  0  0
    4.2192   -4.1941   -1.4451 C   0  0  0  0  0  0  0  0  0  0  0  0
    3.5569   -3.0300   -1.8400 C   0  0  0  0  0  0  0  0  0  0  0  0
    2.3532   -2.5795   -1.2728 N   0  0  0  0  0  0  0  0  0  0  0  0
    1.6399   -3.1288   -0.2247 C   0  0  0  0  0  0  0  0  0  0  0  0
    1.9183   -4.1600    0.3832 O   0  0  0  0  0  0  0  0  0  0  0  0
    0.3595   -2.3519    0.1225 C   0  0  0  0  0  0  0  0  0  0  0  0
    0.2883   -0.9854   -0.4236 N   0  0  0  0  0  0  0  0  0  0  0  0
    0.9408    0.0597    0.3616 C   0  0  0  0  0  0  0  0  0  0  0  0
   -0.4500   -0.7879   -1.5789 C   0  0  0  0  0  0  0  0  0  0  0  0
   -0.8394   -1.7140   -2.2883 O   0  0  0  0  0  0  0  0  0  0  0  0
   -0.7114    0.5967   -2.0294 C   0  0  0  0  0  0  0  0  0  0  0  0
   -1.4728    1.5009   -1.3927 C   0  0  0  0  0  0  0  0  0  0  0  0
   -2.1719    1.3637   -0.1550 C   0  0  0  0  0  0  0  0  0  0  0  0
   -2.7997    0.2281    0.2997 C   0  0  0  0  0  0  0  0  0  0  0  0
   -3.3884    0.5469    1.5044 N   0  0  0  0  0  0  0  0  0  0  0  0
   -4.1563   -0.2995    2.3532 C   0  0  0  0  0  0  0  0  0  0  0  0
   -4.6680    0.2112    3.5576 C   0  0  0  0  0  0  0  0  0  0  0  0
   -5.4438   -0.5985    4.3914 C   0  0  0  0  0  0  0  0  0  0  0  0
   -5.7107   -1.9188    4.0314 C   0  0  0  0  0  0  0  0  0  0  0  0
   -5.1970   -2.4367    2.8435 C   0  0  0  0  0  0  0  0  0  0  0  0
   -4.4203   -1.6330    2.0052 C   0  0  0  0  0  0  0  0  0  0  0  0
   -3.1728    1.8449    1.8311 N   0  0  0  0  0  0  0  0  0  0  0  0
   -2.4510    2.3595    0.8238 C   0  0  0  0  0  0  0  0  0  0  0  0
   -2.0784    3.7748    0.8285 C   0  0  0  0  0  0  0  0  0  0  0  0
   -0.7769    4.1891    0.5191 C   0  0  0  0  0  0  0  0  0  0  0  0
   -0.4526    5.5496    0.5025 C   0  0  0  0  0  0  0  0  0  0  0  0
   -1.4248    6.5144    0.7875 C   0  0  0  0  0  0  0  0  0  0  0  0
   -1.0744    7.9726    0.7919 C   0  0  0  0  0  0  0  0  0  0  0  0
   -2.7172    6.0995    1.1261 C   0  0  0  0  0  0  0  0  0  0  0  0
   -3.0410    4.7410    1.1465 C   0  0  0  0  0  0  0  0  0  0  0  0
    4.1203   -2.2469   -2.8536 C   0  0  0  0  0  0  0  0  0  0  0  0
    5.3336   -2.6135   -3.4438 C   0  0  0  0  0  0  0  0  0  0  0  0
    7.1768   -6.0959   -3.7207 H   0  0  0  0  0  0  0  0  0  0  0  0
    8.7297   -5.2992   -4.0183 H   0  0  0  0  0  0  0  0  0  0  0  0
    8.1032   -5.3401   -2.3681 H   0  0  0  0  0  0  0  0  0  0  0  0
    5.9082   -5.4796   -1.7011 H   0  0  0  0  0  0  0  0  0  0  0  0
    3.8320   -4.8269   -0.6544 H   0  0  0  0  0  0  0  0  0  0  0  0
    1.9468   -1.7378   -1.6673 H   0  0  0  0  0  0  0  0  0  0  0  0
    0.2798   -2.2859    1.2150 H   0  0  0  0  0  0  0  0  0  0  0  0
   -0.4862   -2.9460   -0.2416 H   0  0  0  0  0  0  0  0  0  0  0  0
    0.3583    0.2306    1.2728 H   0  0  0  0  0  0  0  0  0  0  0  0
    1.9445   -0.2770    0.6376 H   0  0  0  0  0  0  0  0  0  0  0  0
    1.0353    0.9931   -0.1994 H   0  0  0  0  0  0  0  0  0  0  0  0
   -0.2990    0.8292   -3.0085 H   0  0  0  0  0  0  0  0  0  0  0  0
   -1.5688    2.4718   -1.8795 H   0  0  0  0  0  0  0  0  0  0  0  0
   -2.8897   -0.7551   -0.1402 H   0  0  0  0  0  0  0  0  0  0  0  0
   -4.4601    1.2351    3.8627 H   0  0  0  0  0  0  0  0  0  0  0  0
   -5.8385   -0.1982    5.3219 H   0  0  0  0  0  0  0  0  0  0  0  0
   -6.3255   -2.5467    4.6704 H   0  0  0  0  0  0  0  0  0  0  0  0
   -5.4174   -3.4628    2.5623 H   0  0  0  0  0  0  0  0  0  0  0  0
   -4.0466   -2.0791    1.0867 H   0  0  0  0  0  0  0  0  0  0  0  0
    0.0016    3.4624    0.3050 H   0  0  0  0  0  0  0  0  0  0  0  0
    0.5654    5.8510    0.2672 H   0  0  0  0  0  0  0  0  0  0  0  0
   -0.2688    8.1844    0.0803 H   0  0  0  0  0  0  0  0  0  0  0  0
   -0.7543    8.2765    1.7928 H   0  0  0  0  0  0  0  0  0  0  0  0
   -1.9356    8.5788    0.4938 H   0  0  0  0  0  0  0  0  0  0  0  0
   -3.4825    6.8296    1.3734 H   0  0  0  0  0  0  0  0  0  0  0  0
   -4.0523    4.4342    1.4096 H   0  0  0  0  0  0  0  0  0  0  0  0
    3.6387   -1.3323   -3.1891 H   0  0  0  0  0  0  0  0  0  0  0  0
    5.7771   -1.9729   -4.2065 H   0  0  0  0  0  0  0  0  0  0  0  0
  1  2  1  0
  2  3  1  0
  3  4  2  0
  4  5  1  0
  5  6  2  0
  6  7  1  0
  7  8  1  0
  8  9  2  0
  8 10  1  0
 10 11  1  0
 11 12  1  0
 11 13  1  0
 13 14  2  0
 13 15  1  0
 15 16  2  3
 16 17  1  0
 17 18  2  0
 18 19  1  0
 19 20  1  0
 20 21  2  0
 21 22  1  0
 22 23  2  0
 23 24  1  0
 24 25  2  0
 19 26  1  0
 26 27  2  0
 27 28  1  0
 28 29  2  0
 29 30  1  0
 30 31  2  0
 31 32  1  0
 31 33  1  0
 33 34  2  0
  6 35  1  0
 35 36  2  0
 36  3  1  0
 27 17  1  0
 34 28  1  0
 25 20  1  0
  1 37  1  0
  1 38  1  0
  1 39  1  0
  4 40  1  0
  5 41  1  0
  7 42  1  0
 10 43  1  0
 10 44  1  0
 12 45  1  0
 12 46  1  0
 12 47  1  0
 15 48  1  0
 16 49  1  0
 18 50  1  0
 21 51  1  0
 22 52  1  0
 23 53  1  0
 24 54  1  0
 25 55  1  0
 29 56  1  0
 30 57  1  0
 32 58  1  0
 32 59  1  0
 32 60  1  0
 33 61  1  0
 34 62  1  0
 35 63  1  0
 36 64  1  0
M  END
$$$$
