
     RDKit          3D

 37 38  0  0  0  0  0  0  0  0999 V2000
   -4.4429    0.6329   -1.5097 C   0  0  0  0  0  0  0  0  0  0  0  0
   -4.7920    0.1578   -0.1524 N   0  0  0  0  0  0  0  0  0  0  0  0
   -6.1851   -0.3397   -0.0918 C   0  0  0  0  0  0  0  0  0  0  0  0
   -3.6675   -0.9138    0.5586 S   0  0  0  0  0  6  0  0  0  0  0  0
   -3.3426   -1.9054   -0.4465 O   0  0  0  0  0  0  0  0  0  0  0  0
   -4.1441   -1.3234    1.8608 O   0  0  0  0  0  0  0  0  0  0  0  0
   -2.2343    0.0991    0.8134 C   0  0  0  0  0  0  0  0  0  0  0  0
   -1.0522   -0.2352    0.1339 C   0  0  0  0  0  0  0  0  0  0  0  0
    0.1183    0.5198    0.3190 C   0  0  0  0  0  0  0  0  0  0  0  0
    1.3089    0.0957   -0.4637 C   0  0  0  0  0  0  0  0  0  0  0  0
    1.1296   -0.2377   -1.6303 O   0  0  0  0  0  0  0  0  0  0  0  0
    2.4951    0.0668    0.2237 N   0  0  0  0  0  0  0  0  0  0  0  0
    3.7053   -0.3248   -0.2925 C   0  0  0  0  0  0  0  0  0  0  0  0
    4.0327   -0.7866   -1.5853 C   0  0  0  0  0  0  0  0  0  0  0  0
    5.3850   -1.0353   -1.5481 C   0  0  0  0  0  0  0  0  0  0  0  0
    5.7818   -0.7221   -0.2839 N   0  0  0  0  0  0  0  0  0  0  0  0
    7.1170   -0.8121    0.2543 C   0  0  0  0  0  0  0  0  0  0  0  0
    4.7789   -0.2890    0.5015 N   0  0  0  0  0  0  0  0  0  0  0  0
    0.0915    1.6223    1.1796 C   0  0  0  0  0  0  0  0  0  0  0  0
    1.4469    2.6623    1.4293 Cl  0  0  0  0  0  0  0  0  0  0  0  0
   -1.0900    1.9484    1.8573 C   0  0  0  0  0  0  0  0  0  0  0  0
   -2.2553    1.1913    1.6810 C   0  0  0  0  0  0  0  0  0  0  0  0
   -3.6493    1.7122    2.5536 Cl  0  0  0  0  0  0  0  0  0  0  0  0
   -3.4359    1.0573   -1.5307 H   0  0  0  0  0  0  0  0  0  0  0  0
   -4.5141   -0.1768   -2.2421 H   0  0  0  0  0  0  0  0  0  0  0  0
   -5.1305    1.4316   -1.8067 H   0  0  0  0  0  0  0  0  0  0  0  0
   -6.8679    0.4095   -0.5058 H   0  0  0  0  0  0  0  0  0  0  0  0
   -6.2959   -1.2658   -0.6638 H   0  0  0  0  0  0  0  0  0  0  0  0
   -6.4870   -0.5083    0.9459 H   0  0  0  0  0  0  0  0  0  0  0  0
   -1.0310   -1.0893   -0.5449 H   0  0  0  0  0  0  0  0  0  0  0  0
    2.5603    0.3678    1.1863 H   0  0  0  0  0  0  0  0  0  0  0  0
    3.3759   -0.9212   -2.4330 H   0  0  0  0  0  0  0  0  0  0  0  0
    6.0722   -1.3987   -2.2988 H   0  0  0  0  0  0  0  0  0  0  0  0
    7.1022   -1.5056    1.0987 H   0  0  0  0  0  0  0  0  0  0  0  0
    7.4252    0.1846    0.5799 H   0  0  0  0  0  0  0  0  0  0  0  0
    7.7971   -1.1792   -0.5183 H   0  0  0  0  0  0  0  0  0  0  0  0
   -1.1066    2.8106    2.5231 H   0  0  0  0  0  0  0  0  0  0  0  0
  1  2  1  0
  2  3  1  0
  2  4  1  0
  4  5  2  0
  4  6  2  0
  4  7  1  0
  7  8  2  0
  8  9  1  0
  9 10  1  0
 10 11  2  0
 10 12  1  0
 12 13  1  0
 13 14  1  0
 14 15  2  0
 15 16  1  0
 16 17  1  0
 16 18  1  0
  9 19  2  0
 19 20  1  0
 19 21  1  0
 21 22  2  0
 22 23  1  0
 22  7  1  0
 18 13  2  0
  1 24  1  0
  1 25  1  0
  1 26  1  0
  3 27  1  0
  3 28  1  0
  3 29  1  0
  8 30  1  0
 12 31  1  0
 14 32  1  0
 15 33  1  0
 17 34  1  0
 17 35  1  0
 17 36  1  0
 21 37  1  0
M  END
$$$$
