
     RDKit          3D

 53 54  0  0  0  0  0  0  0  0999 V2000
   -3.8217   -0.9833    3.0148 C   0  0  0  0  0  0  0  0  0  0  0  0
   -3.8126   -1.4463    1.5671 C   0  0  0  0  0  0  0  0  0  0  0  0
   -4.9050   -0.7710    0.8112 N   0  0  0  0  0  0  0  0  0  0  0  0
   -6.2489   -1.3669    1.0694 C   0  0  0  0  0  0  0  0  0  0  0  0
   -7.1725   -0.2873    1.6084 C   0  0  0  0  0  0  0  0  0  0  0  0
   -4.5837   -0.5129   -0.8520 S   0  0  0  0  0  6  0  0  0  0  0  0
   -5.7238    0.1502   -1.4464 O   0  0  0  0  0  0  0  0  0  0  0  0
   -4.0661   -1.7534   -1.3881 O   0  0  0  0  0  0  0  0  0  0  0  0
   -3.2647    0.6771   -0.8101 C   0  0  0  0  0  0  0  0  0  0  0  0
   -3.5111    1.9339   -0.2484 C   0  0  0  0  0  0  0  0  0  0  0  0
   -2.4899    2.8805   -0.2106 C   0  0  0  0  0  0  0  0  0  0  0  0
   -1.2327    2.5694   -0.7350 C   0  0  0  0  0  0  0  0  0  0  0  0
   -0.9870    1.3095   -1.3046 C   0  0  0  0  0  0  0  0  0  0  0  0
    0.3725    1.0402   -1.8467 C   0  0  0  0  0  0  0  0  0  0  0  0
    1.2918    1.8439   -1.8012 O   0  0  0  0  0  0  0  0  0  0  0  0
    0.4437   -0.2053   -2.3702 O   0  0  0  0  0  0  0  0  0  0  0  0
    1.6957   -0.5595   -2.9598 C   0  0  0  0  0  0  0  0  0  0  0  0
    2.7599   -1.0060   -1.9535 C   0  0  0  0  0  0  0  0  0  0  0  0
    3.1638   -2.1637   -1.8949 O   0  0  0  0  0  0  0  0  0  0  0  0
    3.2466   -0.0009   -1.1502 N   0  0  0  0  0  0  0  0  0  0  0  0
    4.2715   -0.2269   -0.1491 C   0  0  0  0  0  0  0  0  0  0  0  0
    5.6740   -0.3585   -0.7520 C   0  0  0  0  0  0  0  0  0  0  0  0
    6.7141   -0.3367    0.2631 N   0  0  0  0  0  0  0  0  0  0  0  0
    7.2333    0.8216    0.7879 C   0  0  0  0  0  0  0  0  0  0  0  0
    6.7742    2.0189    0.3266 O   0  0  0  0  0  0  0  0  0  0  0  0
    8.1580    0.6379    1.7368 C   0  0  0  0  0  0  0  0  0  0  0  0
    8.4223   -1.0529    2.0380 S   0  0  0  0  0  0  0  0  0  0  0  0
    7.2045   -1.5045    0.8254 C   0  0  0  0  0  0  0  0  0  0  0  0
    6.8926   -2.6578    0.5846 O   0  0  0  0  0  0  0  0  0  0  0  0
   -2.0125    0.3567   -1.3442 C   0  0  0  0  0  0  0  0  0  0  0  0
   -2.9835   -1.4277    3.5602 H   0  0  0  0  0  0  0  0  0  0  0  0
   -3.7344    0.1060    3.0788 H   0  0  0  0  0  0  0  0  0  0  0  0
   -4.7448   -1.2754    3.5242 H   0  0  0  0  0  0  0  0  0  0  0  0
   -2.8350   -1.1972    1.1441 H   0  0  0  0  0  0  0  0  0  0  0  0
   -3.9245   -2.5352    1.5102 H   0  0  0  0  0  0  0  0  0  0  0  0
   -6.6721   -1.8026    0.1573 H   0  0  0  0  0  0  0  0  0  0  0  0
   -6.1852   -2.1863    1.7946 H   0  0  0  0  0  0  0  0  0  0  0  0
   -6.7824    0.1326    2.5418 H   0  0  0  0  0  0  0  0  0  0  0  0
   -7.2828    0.5350    0.8939 H   0  0  0  0  0  0  0  0  0  0  0  0
   -8.1653   -0.7014    1.8089 H   0  0  0  0  0  0  0  0  0  0  0  0
   -4.4937    2.1741    0.1538 H   0  0  0  0  0  0  0  0  0  0  0  0
   -2.6715    3.8618    0.2223 H   0  0  0  0  0  0  0  0  0  0  0  0
   -0.4438    3.3195   -0.7019 H   0  0  0  0  0  0  0  0  0  0  0  0
    1.5053   -1.3981   -3.6388 H   0  0  0  0  0  0  0  0  0  0  0  0
    2.0903    0.2571   -3.5769 H   0  0  0  0  0  0  0  0  0  0  0  0
    2.8764    0.9422   -1.2739 H   0  0  0  0  0  0  0  0  0  0  0  0
    4.0195   -1.1306    0.4169 H   0  0  0  0  0  0  0  0  0  0  0  0
    4.2242    0.6210    0.5430 H   0  0  0  0  0  0  0  0  0  0  0  0
    5.7454   -1.2996   -1.3099 H   0  0  0  0  0  0  0  0  0  0  0  0
    5.8645    0.4449   -1.4735 H   0  0  0  0  0  0  0  0  0  0  0  0
    7.2690    2.7280    0.7721 H   0  0  0  0  0  0  0  0  0  0  0  0
    8.6849    1.4104    2.2768 H   0  0  0  0  0  0  0  0  0  0  0  0
   -1.8467   -0.6247   -1.7837 H   0  0  0  0  0  0  0  0  0  0  0  0
  1  2  1  0
  2  3  1  0
  3  4  1  0
  4  5  1  0
  3  6  1  0
  6  7  2  0
  6  8  2  0
  6  9  1  0
  9 10  2  0
 10 11  1  0
 11 12  2  0
 12 13  1  0
 13 14  1  0
 14 15  2  0
 14 16  1  0
 16 17  1  0
 17 18  1  0
 18 19  2  0
 18 20  1  0
 20 21  1  0
 21 22  1  0
 22 23  1  0
 23 24  1  0
 24 25  1  0
 24 26  2  0
 26 27  1  0
 27 28  1  0
 28 29  2  0
 13 30  2  0
 30  9  1  0
 28 23  1  0
  1 31  1  0
  1 32  1  0
  1 33  1  0
  2 34  1  0
  2 35  1  0
  4 36  1  0
  4 37  1  0
  5 38  1  0
  5 39  1  0
  5 40  1  0
 10 41  1  0
 11 42  1  0
 12 43  1  0
 17 44  1  0
 17 45  1  0
 20 46  1  0
 21 47  1  0
 21 48  1  0
 22 49  1  0
 22 50  1  0
 25 51  1  0
 26 52  1  0
 30 53  1  0
M  END
$$$$
