
     RDKit          3D

 37 39  0  0  0  0  0  0  0  0999 V2000
    6.4308   -0.2141    0.3862 C   0  0  0  0  0  0  0  0  0  0  0  0
    5.3347    0.0221   -0.4900 O   0  0  0  0  0  0  0  0  0  0  0  0
    4.0768   -0.1112    0.0335 C   0  0  0  0  0  0  0  0  0  0  0  0
    3.7743   -0.4437    1.3608 C   0  0  0  0  0  0  0  0  0  0  0  0
    2.4449   -0.5512    1.7775 C   0  0  0  0  0  0  0  0  0  0  0  0
    1.4384   -0.3200    0.8519 C   0  0  0  0  0  0  0  0  0  0  0  0
    1.7158    0.0171   -0.4884 C   0  0  0  0  0  0  0  0  0  0  0  0
    3.0440    0.1185   -0.8884 C   0  0  0  0  0  0  0  0  0  0  0  0
    0.5626    0.2196   -1.2794 N   0  0  0  0  0  0  0  0  0  0  0  0
    0.7210    0.3758   -2.7159 C   0  0  0  0  0  0  0  0  0  0  0  0
   -0.6076   -0.0278   -0.5593 C   0  0  0  0  0  0  0  0  0  0  0  0
   -1.8666    0.0253   -1.0338 C   0  0  0  0  0  0  0  0  0  0  0  0
   -3.0803   -0.2376   -0.2552 C   0  0  0  0  0  0  0  0  0  0  0  0
   -3.6120   -1.5324   -0.2285 C   0  0  0  0  0  0  0  0  0  0  0  0
   -4.7521   -1.8003    0.5170 C   0  0  0  0  0  0  0  0  0  0  0  0
   -5.3476   -0.7731    1.2313 C   0  0  0  0  0  0  0  0  0  0  0  0
   -4.7960    0.5010    1.1831 C   0  0  0  0  0  0  0  0  0  0  0  0
   -3.6903    0.7592    0.4442 N   0  0  0  0  0  4  0  0  0  0  0  0
   -3.1492    2.1339    0.4372 C   0  0  0  0  0  0  0  0  0  0  0  0
   -0.3176   -0.4242    1.1632 S   0  0  0  0  0  0  0  0  0  0  0  0
    7.3525   -0.0745   -0.1867 H   0  0  0  0  0  0  0  0  0  0  0  0
    6.4226   -1.2435    0.7593 H   0  0  0  0  0  0  0  0  0  0  0  0
    6.4382    0.5064    1.2106 H   0  0  0  0  0  0  0  0  0  0  0  0
    4.5543   -0.6276    2.0934 H   0  0  0  0  0  0  0  0  0  0  0  0
    2.2129   -0.8151    2.8046 H   0  0  0  0  0  0  0  0  0  0  0  0
    3.3123    0.3748   -1.9081 H   0  0  0  0  0  0  0  0  0  0  0  0
   -0.2223    0.6289   -3.2087 H   0  0  0  0  0  0  0  0  0  0  0  0
    1.4144    1.1908   -2.9511 H   0  0  0  0  0  0  0  0  0  0  0  0
    1.0924   -0.5508   -3.1672 H   0  0  0  0  0  0  0  0  0  0  0  0
   -2.0538    0.2615   -2.0760 H   0  0  0  0  0  0  0  0  0  0  0  0
   -3.1302   -2.3391   -0.7794 H   0  0  0  0  0  0  0  0  0  0  0  0
   -5.1665   -2.8070    0.5470 H   0  0  0  0  0  0  0  0  0  0  0  0
   -6.2367   -0.9648    1.8289 H   0  0  0  0  0  0  0  0  0  0  0  0
   -5.2373    1.3237    1.7394 H   0  0  0  0  0  0  0  0  0  0  0  0
   -2.9677    2.4365   -0.5972 H   0  0  0  0  0  0  0  0  0  0  0  0
   -3.8773    2.8199    0.8783 H   0  0  0  0  0  0  0  0  0  0  0  0
   -2.2316    2.1428    1.0291 H   0  0  0  0  0  0  0  0  0  0  0  0
  1  2  1  0
  2  3  1  0
  3  4  2  0
  4  5  1  0
  5  6  2  0
  6  7  1  0
  7  8  2  0
  7  9  1  0
  9 10  1  0
  9 11  1  0
 11 12  2  3
 12 13  1  0
 13 14  2  0
 14 15  1  0
 15 16  2  0
 16 17  1  0
 17 18  2  0
 18 19  1  0
 11 20  1  0
  8  3  1  0
 18 13  1  0
 20  6  1  0
  1 21  1  0
  1 22  1  0
  1 23  1  0
  4 24  1  0
  5 25  1  0
  8 26  1  0
 10 27  1  0
 10 28  1  0
 10 29  1  0
 12 30  1  0
 14 31  1  0
 15 32  1  0
 16 33  1  0
 17 34  1  0
 19 35  1  0
 19 36  1  0
 19 37  1  0
M  CHG  1  18   1
M  END
$$$$
