
     RDKit          3D

 36 38  0  0  0  0  0  0  0  0999 V2000
    4.0372    2.7456    0.0972 C   0  0  0  0  0  0  0  0  0  0  0  0
    3.8638    1.2545    0.1100 C   0  0  0  0  0  0  0  0  0  0  0  0
    4.9816    0.4181    0.0581 C   0  0  0  0  0  0  0  0  0  0  0  0
    4.8530   -0.9727    0.1140 C   0  0  0  0  0  0  0  0  0  0  0  0
    3.5639   -1.5046    0.2278 C   0  0  0  0  0  0  0  0  0  0  0  0
    3.1602   -2.8165    0.3223 N   0  0  0  0  0  0  0  0  0  0  0  0
    1.7972   -2.8857    0.4387 C   0  0  0  0  0  0  0  0  0  0  0  0
    1.3011   -1.6006    0.3898 C   0  0  0  0  0  0  0  0  0  0  0  0
   -0.0967   -1.3171    0.4676 C   0  0  0  0  0  0  0  0  0  0  0  0
   -0.7191   -0.3102   -0.1682 C   0  0  0  0  0  0  0  0  0  0  0  0
   -2.1591   -0.0451   -0.0809 C   0  0  0  0  0  0  0  0  0  0  0  0
   -2.6030    1.2752   -0.0317 C   0  0  0  0  0  0  0  0  0  0  0  0
   -3.9660    1.5443    0.0250 C   0  0  0  0  0  0  0  0  0  0  0  0
   -4.8668    0.5368    0.0253 N   0  0  0  0  0  4  0  0  0  0  0  0
   -6.3059    0.8461    0.0748 C   0  0  0  0  0  0  0  0  0  0  0  0
   -4.4618   -0.7506   -0.0477 C   0  0  0  0  0  0  0  0  0  0  0  0
   -3.1086   -1.0656   -0.1035 C   0  0  0  0  0  0  0  0  0  0  0  0
    2.4161   -0.7101    0.2791 C   0  0  0  0  0  0  0  0  0  0  0  0
    2.5810    0.6934    0.2377 C   0  0  0  0  0  0  0  0  0  0  0  0
    3.1673    3.2358   -0.3526 H   0  0  0  0  0  0  0  0  0  0  0  0
    4.1631    3.1161    1.1192 H   0  0  0  0  0  0  0  0  0  0  0  0
    4.9127    3.0324   -0.4947 H   0  0  0  0  0  0  0  0  0  0  0  0
    5.9793    0.8471   -0.0204 H   0  0  0  0  0  0  0  0  0  0  0  0
    5.7305   -1.6108    0.0789 H   0  0  0  0  0  0  0  0  0  0  0  0
    3.7886   -3.6086    0.3189 H   0  0  0  0  0  0  0  0  0  0  0  0
    1.3072   -3.8458    0.5299 H   0  0  0  0  0  0  0  0  0  0  0  0
   -0.6764   -2.0040    1.0806 H   0  0  0  0  0  0  0  0  0  0  0  0
   -0.1478    0.3684   -0.7985 H   0  0  0  0  0  0  0  0  0  0  0  0
   -1.8930    2.1007   -0.0291 H   0  0  0  0  0  0  0  0  0  0  0  0
   -4.3447    2.5617    0.0673 H   0  0  0  0  0  0  0  0  0  0  0  0
   -6.6528    0.9544   -0.9558 H   0  0  0  0  0  0  0  0  0  0  0  0
   -6.4540    1.7726    0.6355 H   0  0  0  0  0  0  0  0  0  0  0  0
   -6.8305    0.0307    0.5793 H   0  0  0  0  0  0  0  0  0  0  0  0
   -5.2273   -1.5213   -0.0674 H   0  0  0  0  0  0  0  0  0  0  0  0
   -2.8071   -2.1087   -0.1785 H   0  0  0  0  0  0  0  0  0  0  0  0
    1.7164    1.3440    0.3159 H   0  0  0  0  0  0  0  0  0  0  0  0
  1  2  1  0
  2  3  2  0
  3  4  1  0
  4  5  2  0
  5  6  1  0
  6  7  1  0
  7  8  2  0
  8  9  1  0
  9 10  2  3
 10 11  1  0
 11 12  2  0
 12 13  1  0
 13 14  2  0
 14 15  1  0
 14 16  1  0
 16 17  2  0
  8 18  1  0
 18 19  2  0
 19  2  1  0
 18  5  1  0
 17 11  1  0
  1 20  1  0
  1 21  1  0
  1 22  1  0
  3 23  1  0
  4 24  1  0
  6 25  1  0
  7 26  1  0
  9 27  1  0
 10 28  1  0
 12 29  1  0
 13 30  1  0
 15 31  1  0
 15 32  1  0
 15 33  1  0
 16 34  1  0
 17 35  1  0
 19 36  1  0
M  CHG  1  14   1
M  END
$$$$
