
     RDKit          3D

 45 49  0  0  0  0  0  0  0  0999 V2000
    6.5236    2.6663   -1.9955 Cl  0  0  0  0  0  0  0  0  0  0  0  0
    5.7006    1.5130   -1.0171 C   0  0  0  0  0  0  0  0  0  0  0  0
    6.4049    0.4495   -0.4691 C   0  0  0  0  0  0  0  0  0  0  0  0
    5.7326   -0.4621    0.3358 C   0  0  0  0  0  0  0  0  0  0  0  0
    4.3601   -0.3101    0.5770 C   0  0  0  0  0  0  0  0  0  0  0  0
    3.6165    0.7393    0.0128 C   0  0  0  0  0  0  0  0  0  0  0  0
    2.2522    0.9250    0.2419 N   0  0  0  0  0  0  0  0  0  0  0  0
    1.5318    0.1363    1.2690 C   0  0  0  0  0  0  0  0  0  0  0  0
    0.9689   -1.1830    0.6888 C   0  0  0  0  0  0  0  0  0  0  0  0
    0.1088   -0.9271   -0.4910 N   0  0  0  0  0  0  0  0  0  0  0  0
   -1.2401   -0.6491   -0.2738 C   0  0  0  0  0  0  0  0  0  0  0  0
   -1.7249    0.5055   -0.6548 N   0  0  0  0  0  0  0  0  0  0  0  0
   -3.0750    0.8312   -0.4169 C   0  0  0  0  0  0  0  0  0  0  0  0
   -3.5367    2.0836   -0.8260 C   0  0  0  0  0  0  0  0  0  0  0  0
   -4.8638    2.4618   -0.6049 C   0  0  0  0  0  0  0  0  0  0  0  0
   -5.7451    1.5864    0.0308 C   0  0  0  0  0  0  0  0  0  0  0  0
   -5.3058    0.3296    0.4483 C   0  0  0  0  0  0  0  0  0  0  0  0
   -3.9753   -0.0342    0.2210 C   0  0  0  0  0  0  0  0  0  0  0  0
   -3.4529   -1.2818    0.5977 N   0  0  0  0  0  0  0  0  0  0  0  0
   -4.0746   -2.3444    1.2097 C   0  0  0  0  0  0  0  0  0  0  0  0
   -3.1651   -3.3751    1.3111 C   0  0  0  0  0  0  0  0  0  0  0  0
   -1.9485   -2.9163    0.7552 C   0  0  0  0  0  0  0  0  0  0  0  0
   -2.1373   -1.6057    0.3537 C   0  0  0  0  0  0  0  0  0  0  0  0
    0.8332   -0.1385   -1.5195 C   0  0  0  0  0  0  0  0  0  0  0  0
    1.3895    1.1854   -0.9454 C   0  0  0  0  0  0  0  0  0  0  0  0
    4.3316    1.6592   -0.7748 C   0  0  0  0  0  0  0  0  0  0  0  0
    7.4688    0.3334   -0.6538 H   0  0  0  0  0  0  0  0  0  0  0  0
    6.2717   -1.2936    0.7827 H   0  0  0  0  0  0  0  0  0  0  0  0
    3.8916   -1.0529    1.2143 H   0  0  0  0  0  0  0  0  0  0  0  0
    2.1569   -0.0560    2.1480 H   0  0  0  0  0  0  0  0  0  0  0  0
    0.6947    0.7474    1.6316 H   0  0  0  0  0  0  0  0  0  0  0  0
    1.7868   -1.8427    0.3780 H   0  0  0  0  0  0  0  0  0  0  0  0
    0.4250   -1.7101    1.4782 H   0  0  0  0  0  0  0  0  0  0  0  0
   -2.8530    2.7690   -1.3197 H   0  0  0  0  0  0  0  0  0  0  0  0
   -5.2077    3.4406   -0.9297 H   0  0  0  0  0  0  0  0  0  0  0  0
   -6.7770    1.8852    0.1996 H   0  0  0  0  0  0  0  0  0  0  0  0
   -6.0098   -0.3348    0.9379 H   0  0  0  0  0  0  0  0  0  0  0  0
   -5.1115   -2.3024    1.5097 H   0  0  0  0  0  0  0  0  0  0  0  0
   -3.3627   -4.3541    1.7287 H   0  0  0  0  0  0  0  0  0  0  0  0
   -1.0313   -3.4815    0.6541 H   0  0  0  0  0  0  0  0  0  0  0  0
    1.6628   -0.7499   -1.8962 H   0  0  0  0  0  0  0  0  0  0  0  0
    0.1839    0.0632   -2.3797 H   0  0  0  0  0  0  0  0  0  0  0  0
    0.5663    1.8343   -0.6245 H   0  0  0  0  0  0  0  0  0  0  0  0
    1.9081    1.7290   -1.7411 H   0  0  0  0  0  0  0  0  0  0  0  0
    3.8269    2.5312   -1.1822 H   0  0  0  0  0  0  0  0  0  0  0  0
  1  2  1  0
  2  3  2  0
  3  4  1  0
  4  5  2  0
  5  6  1  0
  6  7  1  0
  7  8  1  0
  8  9  1  0
  9 10  1  0
 10 11  1  0
 11 12  2  0
 12 13  1  0
 13 14  2  0
 14 15  1  0
 15 16  2  0
 16 17  1  0
 17 18  2  0
 18 19  1  0
 19 20  1  0
 20 21  2  0
 21 22  1  0
 22 23  2  0
 10 24  1  0
 24 25  1  0
  6 26  2  0
 26  2  1  0
 25  7  1  0
 23 11  1  0
 18 13  1  0
 23 19  1  0
  3 27  1  0
  4 28  1  0
  5 29  1  0
  8 30  1  0
  8 31  1  0
  9 32  1  0
  9 33  1  0
 14 34  1  0
 15 35  1  0
 16 36  1  0
 17 37  1  0
 20 38  1  0
 21 39  1  0
 22 40  1  0
 24 41  1  0
 24 42  1  0
 25 43  1  0
 25 44  1  0
 26 45  1  0
M  END
$$$$
