
     RDKit          3D

 32 34  0  0  0  0  0  0  0  0999 V2000
   -0.8718    1.4906   -0.1975 O   0  0  0  0  0  0  0  0  0  0  0  0
   -0.8279    0.6901    0.7299 C   0  0  0  0  0  0  0  0  0  0  0  0
   -2.0937    0.1526    1.4176 C   0  0  0  0  0  0  0  0  0  0  0  0
   -3.2891    0.8190    1.0296 O   0  0  0  0  0  0  0  0  0  0  0  0
   -3.9155    0.2232   -0.0298 C   0  0  0  0  0  0  0  0  0  0  0  0
   -4.0557    0.9707   -1.1972 C   0  0  0  0  0  0  0  0  0  0  0  0
   -4.7355    0.4302   -2.2911 C   0  0  0  0  0  0  0  0  0  0  0  0
   -5.2881   -0.8494   -2.2019 C   0  0  0  0  0  0  0  0  0  0  0  0
   -6.2129   -1.5748   -3.6825 Br  0  0  0  0  0  0  0  0  0  0  0  0
   -5.1683   -1.5954   -1.0311 C   0  0  0  0  0  0  0  0  0  0  0  0
   -4.4852   -1.0494    0.0506 C   0  0  0  0  0  0  0  0  0  0  0  0
   -4.3819   -1.7667    1.1793 F   0  0  0  0  0  0  0  0  0  0  0  0
    0.3180    0.1562    1.2894 N   0  0  0  0  0  0  0  0  0  0  0  0
    1.5672    0.4863    0.8389 C   0  0  0  0  0  0  0  0  0  0  0  0
    1.9435    1.2649   -0.1445 N   0  0  0  0  0  0  0  0  0  0  0  0
    3.3236    1.3209   -0.2537 N   0  0  0  0  0  0  0  0  0  0  0  0
    3.9110    0.5749    0.6536 C   0  0  0  0  0  0  0  0  0  0  0  0
    5.4628    0.4752    0.7687 C   0  0  0  0  0  0  0  0  0  0  0  0
    6.1446   -0.8450    0.5123 C   0  0  0  0  0  0  0  0  0  0  0  0
    6.2813    0.2720   -0.4807 C   0  0  0  0  0  0  0  0  0  0  0  0
    2.8437   -0.2441    1.7108 S   0  0  0  0  0  0  0  0  0  0  0  0
   -2.1334   -0.9337    1.2634 H   0  0  0  0  0  0  0  0  0  0  0  0
   -1.9817    0.3220    2.4958 H   0  0  0  0  0  0  0  0  0  0  0  0
   -3.6266    1.9691   -1.2580 H   0  0  0  0  0  0  0  0  0  0  0  0
   -4.8306    1.0164   -3.2019 H   0  0  0  0  0  0  0  0  0  0  0  0
   -5.6030   -2.5863   -0.9438 H   0  0  0  0  0  0  0  0  0  0  0  0
    0.2715   -0.4785    2.0729 H   0  0  0  0  0  0  0  0  0  0  0  0
    5.8875    1.1169    1.5342 H   0  0  0  0  0  0  0  0  0  0  0  0
    5.5434   -1.7004    0.2239 H   0  0  0  0  0  0  0  0  0  0  0  0
    7.0073   -1.0945    1.1195 H   0  0  0  0  0  0  0  0  0  0  0  0
    5.7636    0.1782   -1.4291 H   0  0  0  0  0  0  0  0  0  0  0  0
    7.2318    0.7892   -0.5481 H   0  0  0  0  0  0  0  0  0  0  0  0
  1  2  2  0
  2  3  1  0
  3  4  1  0
  4  5  1  0
  5  6  2  0
  6  7  1  0
  7  8  2  0
  8  9  1  0
  8 10  1  0
 10 11  2  0
 11 12  1  0
  2 13  1  0
 13 14  1  0
 14 15  2  0
 15 16  1  0
 16 17  2  0
 17 18  1  0
 18 19  1  0
 19 20  1  0
 17 21  1  0
 11  5  1  0
 21 14  1  0
 20 18  1  0
  3 22  1  0
  3 23  1  0
  6 24  1  0
  7 25  1  0
 10 26  1  0
 13 27  1  0
 18 28  1  0
 19 29  1  0
 19 30  1  0
 20 31  1  0
 20 32  1  0
M  END
$$$$
