
     RDKit          3D

 37 39  0  0  0  0  0  0  0  0999 V2000
    2.7806    2.8657   -3.3114 C   0  0  0  0  0  0  0  0  0  0  0  0
    2.3645    1.5017   -3.2897 O   0  0  0  0  0  0  0  0  0  0  0  0
    2.1549    0.9299   -2.0637 C   0  0  0  0  0  0  0  0  0  0  0  0
    1.7394   -0.4035   -2.1247 C   0  0  0  0  0  0  0  0  0  0  0  0
    1.4574   -1.1286   -0.9606 C   0  0  0  0  0  0  0  0  0  0  0  0
    1.5933   -0.5003    0.2978 C   0  0  0  0  0  0  0  0  0  0  0  0
    1.3691   -0.9004    1.6519 C   0  0  0  0  0  0  0  0  0  0  0  0
    0.8408   -2.1388    2.1272 C   0  0  0  0  0  0  0  0  0  0  0  0
   -0.4293   -2.5706    1.9680 C   0  0  0  0  0  0  0  0  0  0  0  0
   -1.4684   -1.7928    1.2909 C   0  0  0  0  0  0  0  0  0  0  0  0
   -1.7969   -2.0615   -0.0387 C   0  0  0  0  0  0  0  0  0  0  0  0
   -2.6979   -1.2326   -0.6989 C   0  0  0  0  0  0  0  0  0  0  0  0
   -3.2735   -0.1880   -0.0531 N   0  0  0  0  0  4  0  0  0  0  0  0
   -4.2238    0.6685   -0.7803 C   0  0  0  0  0  0  0  0  0  0  0  0
   -2.9915    0.0661    1.2475 C   0  0  0  0  0  0  0  0  0  0  0  0
   -2.0837   -0.7236    1.9432 C   0  0  0  0  0  0  0  0  0  0  0  0
    1.7670    0.1311    2.4744 C   0  0  0  0  0  0  0  0  0  0  0  0
    2.1853    1.1631    1.6705 N   0  0  0  0  0  0  0  0  0  0  0  0
    2.0525    0.8190    0.3373 C   0  0  0  0  0  0  0  0  0  0  0  0
    2.3277    1.5635   -0.8247 C   0  0  0  0  0  0  0  0  0  0  0  0
    3.7456    2.9993   -2.8020 H   0  0  0  0  0  0  0  0  0  0  0  0
    2.9114    3.1594   -4.3593 H   0  0  0  0  0  0  0  0  0  0  0  0
    2.0089    3.5176   -2.8788 H   0  0  0  0  0  0  0  0  0  0  0  0
    1.6517   -0.8950   -3.0912 H   0  0  0  0  0  0  0  0  0  0  0  0
    1.1608   -2.1716   -1.0276 H   0  0  0  0  0  0  0  0  0  0  0  0
    1.5352   -2.7682    2.6881 H   0  0  0  0  0  0  0  0  0  0  0  0
   -0.7303   -3.5344    2.3713 H   0  0  0  0  0  0  0  0  0  0  0  0
   -1.3248   -2.8827   -0.5771 H   0  0  0  0  0  0  0  0  0  0  0  0
   -2.9603   -1.3882   -1.7434 H   0  0  0  0  0  0  0  0  0  0  0  0
   -4.3675    1.6057   -0.2331 H   0  0  0  0  0  0  0  0  0  0  0  0
   -3.8158    0.8855   -1.7727 H   0  0  0  0  0  0  0  0  0  0  0  0
   -5.1710    0.1180   -0.8540 H   0  0  0  0  0  0  0  0  0  0  0  0
   -3.4862    0.9137    1.7199 H   0  0  0  0  0  0  0  0  0  0  0  0
   -1.8403   -0.4918    2.9792 H   0  0  0  0  0  0  0  0  0  0  0  0
    1.7875    0.2307    3.5550 H   0  0  0  0  0  0  0  0  0  0  0  0
    2.5463    2.0487    2.0021 H   0  0  0  0  0  0  0  0  0  0  0  0
    2.6814    2.5850   -0.7378 H   0  0  0  0  0  0  0  0  0  0  0  0
  1  2  1  0
  2  3  1  0
  3  4  2  0
  4  5  1  0
  5  6  2  0
  6  7  1  0
  7  8  1  0
  8  9  2  3
  9 10  1  0
 10 11  2  0
 11 12  1  0
 12 13  2  0
 13 14  1  0
 13 15  1  0
 15 16  2  0
  7 17  2  0
 17 18  1  0
 18 19  1  0
 19 20  2  0
 20  3  1  0
 19  6  1  0
 16 10  1  0
  1 21  1  0
  1 22  1  0
  1 23  1  0
  4 24  1  0
  5 25  1  0
  8 26  1  0
  9 27  1  0
 11 28  1  0
 12 29  1  0
 14 30  1  0
 14 31  1  0
 14 32  1  0
 15 33  1  0
 16 34  1  0
 17 35  1  0
 18 36  1  0
 20 37  1  0
M  CHG  1  13   1
M  END
$$$$
