
     RDKit          3D

 56 58  0  0  0  0  0  0  0  0999 V2000
    1.1487   -3.9249    3.0914 C   0  0  0  0  0  0  0  0  0  0  0  0
    1.8892   -2.9501    2.3713 O   0  0  0  0  0  0  0  0  0  0  0  0
    1.2003   -2.1434    1.4998 C   0  0  0  0  0  0  0  0  0  0  0  0
   -0.1661   -2.2650    1.2152 C   0  0  0  0  0  0  0  0  0  0  0  0
   -0.7960   -1.3887    0.3193 C   0  0  0  0  0  0  0  0  0  0  0  0
   -2.2260   -1.5699    0.0389 C   0  0  0  0  0  0  0  0  0  0  0  0
   -3.0888   -0.5539   -0.1109 C   0  0  0  0  0  0  0  0  0  0  0  0
   -4.5234   -0.8429   -0.3747 C   0  0  0  0  0  0  0  0  0  0  0  0
   -4.9778   -1.9762   -0.4669 O   0  0  0  0  0  0  0  0  0  0  0  0
   -5.4170    0.3253   -0.4914 C   0  0  0  0  0  0  0  0  0  0  0  0
   -5.2753    1.2388   -1.5562 C   0  0  0  0  0  0  0  0  0  0  0  0
   -4.2536    1.0033   -2.4384 O   0  0  0  0  0  0  0  0  0  0  0  0
   -4.2575    1.7320   -3.6608 C   0  0  0  0  0  0  0  0  0  0  0  0
   -6.1603    2.3261   -1.6519 C   0  0  0  0  0  0  0  0  0  0  0  0
   -7.1828    2.4986   -0.7143 C   0  0  0  0  0  0  0  0  0  0  0  0
   -7.3055    1.5799    0.3166 C   0  0  0  0  0  0  0  0  0  0  0  0
   -8.3109    1.7308    1.2687 O   0  0  0  0  0  0  0  0  0  0  0  0
   -8.1790    0.6891    2.1818 C   0  0  0  0  0  0  0  0  0  0  0  0
   -8.9244    0.5616    3.1436 O   0  0  0  0  0  0  0  0  0  0  0  0
   -6.8535   -0.4325    1.8711 S   0  0  0  0  0  0  0  0  0  0  0  0
   -6.4387    0.4995    0.4386 C   0  0  0  0  0  0  0  0  0  0  0  0
   -0.0357   -0.3985   -0.3108 C   0  0  0  0  0  0  0  0  0  0  0  0
    1.3285   -0.2705   -0.0369 C   0  0  0  0  0  0  0  0  0  0  0  0
    1.9541   -1.1466    0.8540 C   0  0  0  0  0  0  0  0  0  0  0  0
    3.2798   -1.0508    1.1944 O   0  0  0  0  0  0  0  0  0  0  0  0
    4.1898   -0.6567    0.1622 C   0  0  0  0  0  0  0  0  0  0  0  0
    4.7008    0.7513    0.4565 C   0  0  0  0  0  0  0  0  0  0  0  0
    5.6044    1.3057   -0.6489 C   0  0  0  0  0  0  0  0  0  0  0  0
    6.7731    0.4691   -0.9637 N   0  0  0  0  0  0  0  0  0  0  0  0
    7.4483    0.9785   -2.1610 C   0  0  0  0  0  0  0  0  0  0  0  0
    7.7238    0.4130    0.1501 C   0  0  0  0  0  0  0  0  0  0  0  0
    0.3754   -3.4583    3.7105 H   0  0  0  0  0  0  0  0  0  0  0  0
    0.7190   -4.6716    2.4157 H   0  0  0  0  0  0  0  0  0  0  0  0
    1.8414   -4.4435    3.7611 H   0  0  0  0  0  0  0  0  0  0  0  0
   -0.7665   -3.0351    1.6892 H   0  0  0  0  0  0  0  0  0  0  0  0
   -2.5752   -2.6000   -0.0201 H   0  0  0  0  0  0  0  0  0  0  0  0
   -2.7862    0.4832   -0.0327 H   0  0  0  0  0  0  0  0  0  0  0  0
   -4.0355    2.7892   -3.4844 H   0  0  0  0  0  0  0  0  0  0  0  0
   -5.2052    1.6094   -4.1955 H   0  0  0  0  0  0  0  0  0  0  0  0
   -3.4625    1.3261   -4.2936 H   0  0  0  0  0  0  0  0  0  0  0  0
   -6.0779    3.0605   -2.4480 H   0  0  0  0  0  0  0  0  0  0  0  0
   -7.8679    3.3386   -0.7919 H   0  0  0  0  0  0  0  0  0  0  0  0
   -0.4916    0.2812   -1.0265 H   0  0  0  0  0  0  0  0  0  0  0  0
    1.8798    0.5281   -0.5216 H   0  0  0  0  0  0  0  0  0  0  0  0
    3.7599   -0.7405   -0.8433 H   0  0  0  0  0  0  0  0  0  0  0  0
    5.0228   -1.3676    0.2001 H   0  0  0  0  0  0  0  0  0  0  0  0
    5.2126    0.7602    1.4264 H   0  0  0  0  0  0  0  0  0  0  0  0
    3.8484    1.4300    0.5841 H   0  0  0  0  0  0  0  0  0  0  0  0
    5.9197    2.3214   -0.3758 H   0  0  0  0  0  0  0  0  0  0  0  0
    4.9849    1.4047   -1.5504 H   0  0  0  0  0  0  0  0  0  0  0  0
    7.8195    2.0009   -2.0230 H   0  0  0  0  0  0  0  0  0  0  0  0
    6.7680    0.9706   -3.0199 H   0  0  0  0  0  0  0  0  0  0  0  0
    8.2951    0.3365   -2.4294 H   0  0  0  0  0  0  0  0  0  0  0  0
    8.0757    1.4087    0.4433 H   0  0  0  0  0  0  0  0  0  0  0  0
    8.5965   -0.1929   -0.1203 H   0  0  0  0  0  0  0  0  0  0  0  0
    7.2808   -0.0720    1.0255 H   0  0  0  0  0  0  0  0  0  0  0  0
  1  2  1  0
  2  3  1  0
  3  4  2  0
  4  5  1  0
  5  6  1  0
  6  7  2  0
  7  8  1  0
  8  9  2  0
  8 10  1  0
 10 11  2  0
 11 12  1  0
 12 13  1  0
 11 14  1  0
 14 15  2  0
 15 16  1  0
 16 17  1  0
 17 18  1  0
 18 19  2  0
 18 20  1  0
 20 21  1  0
  5 22  2  0
 22 23  1  0
 23 24  2  0
 24 25  1  0
 25 26  1  0
 26 27  1  0
 27 28  1  0
 28 29  1  0
 29 30  1  0
 29 31  1  0
 24  3  1  0
 21 10  1  0
 21 16  2  0
  1 32  1  0
  1 33  1  0
  1 34  1  0
  4 35  1  0
  6 36  1  0
  7 37  1  0
 13 38  1  0
 13 39  1  0
 13 40  1  0
 14 41  1  0
 15 42  1  0
 22 43  1  0
 23 44  1  0
 26 45  1  0
 26 46  1  0
 27 47  1  0
 27 48  1  0
 28 49  1  0
 28 50  1  0
 30 51  1  0
 30 52  1  0
 30 53  1  0
 31 54  1  0
 31 55  1  0
 31 56  1  0
M  END
$$$$
