
     RDKit          3D

 59 64  0  0  0  0  0  0  0  0999 V2000
    3.5218   -3.0221   -2.6471 C   0  0  0  0  0  0  0  0  0  0  0  0
    3.0190   -2.1135   -1.6747 O   0  0  0  0  0  0  0  0  0  0  0  0
    3.7914   -1.0058   -1.3872 C   0  0  0  0  0  0  0  0  0  0  0  0
    5.0203   -0.7184   -2.0049 C   0  0  0  0  0  0  0  0  0  0  0  0
    5.7191    0.4420   -1.6162 C   0  0  0  0  0  0  0  0  0  0  0  0
    5.1612    1.2577   -0.6398 C   0  0  0  0  0  0  0  0  0  0  0  0
    3.9447    1.0090   -0.0043 C   0  0  0  0  0  0  0  0  0  0  0  0
    3.2573   -0.1459   -0.3959 C   0  0  0  0  0  0  0  0  0  0  0  0
    2.0090   -0.5247    0.1537 N   0  0  0  0  0  0  0  0  0  0  0  0
    1.2646    0.1217    1.1239 C   0  0  0  0  0  0  0  0  0  0  0  0
    1.5693    1.1664    1.6914 O   0  0  0  0  0  0  0  0  0  0  0  0
   -0.0365   -0.5953    1.4477 C   0  0  0  0  0  0  0  0  0  0  0  0
   -1.4084    0.2658    0.6269 S   0  0  0  0  0  0  0  0  0  0  0  0
   -2.7249   -0.7507    1.0940 C   0  0  0  0  0  0  0  0  0  0  0  0
   -2.6293   -2.0116    1.4406 N   0  0  0  0  0  0  0  0  0  0  0  0
   -3.8940   -2.4617    1.7236 N   0  0  0  0  0  0  0  0  0  0  0  0
   -4.7386   -1.4620    1.5526 C   0  0  0  0  0  0  0  0  0  0  0  0
   -6.2148   -1.5239    1.7755 C   0  0  0  0  0  0  0  0  0  0  0  0
   -6.5896   -1.1756    3.1911 C   0  0  0  0  0  0  0  0  0  0  0  0
   -6.2045   -1.8121    4.3575 C   0  0  0  0  0  0  0  0  0  0  0  0
   -6.7579   -1.2026    5.5209 C   0  0  0  0  0  0  0  0  0  0  0  0
   -7.5644   -0.1313    5.2065 C   0  0  0  0  0  0  0  0  0  0  0  0
   -7.6421    0.1397    3.5191 S   0  0  0  0  0  0  0  0  0  0  0  0
   -4.0321   -0.3500    1.1432 N   0  0  0  0  0  0  0  0  0  0  0  0
   -4.5597    0.9754    0.8848 C   0  0  0  0  0  0  0  0  0  0  0  0
   -4.9191    1.1277   -0.5462 C   0  0  0  0  0  0  0  0  0  0  0  0
   -4.2401    1.5873   -1.6568 C   0  0  0  0  0  0  0  0  0  0  0  0
   -5.1395    1.4815   -2.7467 C   0  0  0  0  0  0  0  0  0  0  0  0
   -6.3077    0.9734   -2.2315 C   0  0  0  0  0  0  0  0  0  0  0  0
   -6.1851    0.7592   -0.8965 O   0  0  0  0  0  0  0  0  0  0  0  0
    5.9654    2.3297   -0.3962 O   0  0  0  0  0  0  0  0  0  0  0  0
    7.0508    2.2075   -1.2076 C   0  0  0  0  0  0  0  0  0  0  0  0
    8.1184    3.1010   -1.2633 C   0  0  0  0  0  0  0  0  0  0  0  0
    9.1458    2.7923   -2.1608 C   0  0  0  0  0  0  0  0  0  0  0  0
    9.0886    1.6438   -2.9579 C   0  0  0  0  0  0  0  0  0  0  0  0
    7.9967    0.7663   -2.8842 C   0  0  0  0  0  0  0  0  0  0  0  0
    6.9533    1.0568   -1.9833 C   0  0  0  0  0  0  0  0  0  0  0  0
    4.4802   -3.4478   -2.3332 H   0  0  0  0  0  0  0  0  0  0  0  0
    2.8058   -3.8437   -2.7332 H   0  0  0  0  0  0  0  0  0  0  0  0
    3.6006   -2.5443   -3.6293 H   0  0  0  0  0  0  0  0  0  0  0  0
    5.4535   -1.3527   -2.7681 H   0  0  0  0  0  0  0  0  0  0  0  0
    3.5828    1.6991    0.7468 H   0  0  0  0  0  0  0  0  0  0  0  0
    1.6335   -1.3775   -0.2527 H   0  0  0  0  0  0  0  0  0  0  0  0
   -0.1724   -0.5830    2.5352 H   0  0  0  0  0  0  0  0  0  0  0  0
    0.0130   -1.6441    1.1291 H   0  0  0  0  0  0  0  0  0  0  0  0
   -6.7412   -0.8848    1.0561 H   0  0  0  0  0  0  0  0  0  0  0  0
   -6.5576   -2.5470    1.5695 H   0  0  0  0  0  0  0  0  0  0  0  0
   -5.5404   -2.6702    4.3724 H   0  0  0  0  0  0  0  0  0  0  0  0
   -6.5743   -1.5336    6.5364 H   0  0  0  0  0  0  0  0  0  0  0  0
   -8.1098    0.5109    5.8884 H   0  0  0  0  0  0  0  0  0  0  0  0
   -3.8157    1.7196    1.1905 H   0  0  0  0  0  0  0  0  0  0  0  0
   -5.4337    1.1343    1.5241 H   0  0  0  0  0  0  0  0  0  0  0  0
   -3.2216    1.9486   -1.6821 H   0  0  0  0  0  0  0  0  0  0  0  0
   -4.9586    1.7459   -3.7802 H   0  0  0  0  0  0  0  0  0  0  0  0
   -7.2685    0.7228   -2.6595 H   0  0  0  0  0  0  0  0  0  0  0  0
    8.1454    3.9859   -0.6378 H   0  0  0  0  0  0  0  0  0  0  0  0
   10.0035    3.4577   -2.2390 H   0  0  0  0  0  0  0  0  0  0  0  0
    9.9027    1.4287   -3.6479 H   0  0  0  0  0  0  0  0  0  0  0  0
    7.9644   -0.1216   -3.5092 H   0  0  0  0  0  0  0  0  0  0  0  0
  1  2  1  0
  2  3  1  0
  3  4  2  0
  4  5  1  0
  5  6  2  0
  6  7  1  0
  7  8  2  0
  8  9  1  0
  9 10  1  0
 10 11  2  0
 10 12  1  0
 12 13  1  0
 13 14  1  0
 14 15  2  0
 15 16  1  0
 16 17  2  0
 17 18  1  0
 18 19  1  0
 19 20  2  0
 20 21  1  0
 21 22  2  0
 22 23  1  0
 17 24  1  0
 24 25  1  0
 25 26  1  0
 26 27  2  0
 27 28  1  0
 28 29  2  0
 29 30  1  0
  6 31  1  0
 31 32  1  0
 32 33  2  0
 33 34  1  0
 34 35  2  0
 35 36  1  0
 36 37  2  0
  8  3  1  0
 24 14  1  0
 30 26  1  0
 37 32  1  0
 37  5  1  0
 23 19  1  0
  1 38  1  0
  1 39  1  0
  1 40  1  0
  4 41  1  0
  7 42  1  0
  9 43  1  0
 12 44  1  0
 12 45  1  0
 18 46  1  0
 18 47  1  0
 20 48  1  0
 21 49  1  0
 22 50  1  0
 25 51  1  0
 25 52  1  0
 27 53  1  0
 28 54  1  0
 29 55  1  0
 33 56  1  0
 34 57  1  0
 35 58  1  0
 36 59  1  0
M  END
$$$$
