
     RDKit          3D

 46 48  0  0  0  0  0  0  0  0999 V2000
    1.5176    2.5382    0.0772 O   0  0  0  0  0  0  0  0  0  0  0  0
    1.3396    1.5428    0.7787 C   0  0  0  0  0  0  0  0  0  0  0  0
   -0.0144    0.8857    1.0405 C   0  0  0  0  0  0  0  0  0  0  0  0
   -0.9777    1.3400    0.1044 O   0  0  0  0  0  0  0  0  0  0  0  0
   -2.2406    0.8305    0.2104 C   0  0  0  0  0  0  0  0  0  0  0  0
   -2.7027   -0.0207    1.2115 C   0  0  0  0  0  0  0  0  0  0  0  0
   -4.0327   -0.4635    1.1998 C   0  0  0  0  0  0  0  0  0  0  0  0
   -4.9285   -0.0688    0.1907 C   0  0  0  0  0  0  0  0  0  0  0  0
   -6.3262   -0.5373    0.1860 C   0  0  0  0  0  0  0  0  0  0  0  0
   -7.3943    0.3643    0.0342 C   0  0  0  0  0  0  0  0  0  0  0  0
   -8.7201   -0.0799    0.0297 C   0  0  0  0  0  0  0  0  0  0  0  0
   -9.0024   -1.4355    0.1774 C   0  0  0  0  0  0  0  0  0  0  0  0
   -7.9606   -2.3469    0.3301 C   0  0  0  0  0  0  0  0  0  0  0  0
   -6.6353   -1.9010    0.3330 C   0  0  0  0  0  0  0  0  0  0  0  0
   -4.4456    0.7880   -0.8090 C   0  0  0  0  0  0  0  0  0  0  0  0
   -3.1187    1.2313   -0.7972 C   0  0  0  0  0  0  0  0  0  0  0  0
    2.3926    0.9206    1.4372 N   0  0  0  0  0  0  0  0  0  0  0  0
    3.6939    1.3382    1.0431 N   0  0  0  0  0  0  0  0  0  0  0  0
    4.5325    0.3303    0.5818 C   0  0  0  0  0  0  0  0  0  0  0  0
    4.2305   -0.8537    0.6965 O   0  0  0  0  0  0  0  0  0  0  0  0
    5.6838    0.8469    0.0377 N   0  0  0  0  0  0  0  0  0  0  0  0
    6.7469    0.1482   -0.5692 C   0  0  0  0  0  0  0  0  0  0  0  0
    6.7734   -1.2334   -0.7634 C   0  0  0  0  0  0  0  0  0  0  0  0
    7.8749   -1.8297   -1.3874 C   0  0  0  0  0  0  0  0  0  0  0  0
    8.9443   -1.0460   -1.8107 C   0  0  0  0  0  0  0  0  0  0  0  0
    9.9915   -1.6269   -2.4082 F   0  0  0  0  0  0  0  0  0  0  0  0
    8.9399    0.3273   -1.6255 C   0  0  0  0  0  0  0  0  0  0  0  0
    7.8416    0.9100   -1.0065 C   0  0  0  0  0  0  0  0  0  0  0  0
    7.8300    2.2407   -0.8261 F   0  0  0  0  0  0  0  0  0  0  0  0
   -0.3109    1.1626    2.0584 H   0  0  0  0  0  0  0  0  0  0  0  0
    0.1082   -0.1992    0.9545 H   0  0  0  0  0  0  0  0  0  0  0  0
   -2.0657   -0.3557    2.0239 H   0  0  0  0  0  0  0  0  0  0  0  0
   -4.3721   -1.1153    2.0033 H   0  0  0  0  0  0  0  0  0  0  0  0
   -7.1997    1.4306   -0.0720 H   0  0  0  0  0  0  0  0  0  0  0  0
   -9.5305    0.6346   -0.0887 H   0  0  0  0  0  0  0  0  0  0  0  0
  -10.0329   -1.7813    0.1744 H   0  0  0  0  0  0  0  0  0  0  0  0
   -8.1762   -3.4066    0.4425 H   0  0  0  0  0  0  0  0  0  0  0  0
   -5.8373   -2.6348    0.4375 H   0  0  0  0  0  0  0  0  0  0  0  0
   -5.0982    1.1114   -1.6186 H   0  0  0  0  0  0  0  0  0  0  0  0
   -2.7678    1.8932   -1.5841 H   0  0  0  0  0  0  0  0  0  0  0  0
    2.3310   -0.0789    1.6397 H   0  0  0  0  0  0  0  0  0  0  0  0
    3.6719    2.1951    0.4887 H   0  0  0  0  0  0  0  0  0  0  0  0
    5.8189    1.8464    0.1316 H   0  0  0  0  0  0  0  0  0  0  0  0
    5.9542   -1.8722   -0.4479 H   0  0  0  0  0  0  0  0  0  0  0  0
    7.9016   -2.9036   -1.5468 H   0  0  0  0  0  0  0  0  0  0  0  0
    9.7723    0.9337   -1.9598 H   0  0  0  0  0  0  0  0  0  0  0  0
  1  2  2  0
  2  3  1  0
  3  4  1  0
  4  5  1  0
  5  6  2  0
  6  7  1  0
  7  8  2  0
  8  9  1  0
  9 10  2  0
 10 11  1  0
 11 12  2  0
 12 13  1  0
 13 14  2  0
  8 15  1  0
 15 16  2  0
  2 17  1  0
 17 18  1  0
 18 19  1  0
 19 20  2  0
 19 21  1  0
 21 22  1  0
 22 23  2  0
 23 24  1  0
 24 25  2  0
 25 26  1  0
 25 27  1  0
 27 28  2  0
 28 29  1  0
 16  5  1  0
 28 22  1  0
 14  9  1  0
  3 30  1  0
  3 31  1  0
  6 32  1  0
  7 33  1  0
 10 34  1  0
 11 35  1  0
 12 36  1  0
 13 37  1  0
 14 38  1  0
 15 39  1  0
 16 40  1  0
 17 41  1  0
 18 42  1  0
 21 43  1  0
 23 44  1  0
 24 45  1  0
 27 46  1  0
M  END
$$$$
