
     RDKit          3D

 51 53  0  0  0  0  0  0  0  0999 V2000
    6.3073    2.3198   -3.2356 C   0  0  0  0  0  0  0  0  0  0  0  0
    6.1805    2.1498   -1.8308 O   0  0  0  0  0  0  0  0  0  0  0  0
    5.5473    1.0171   -1.3823 C   0  0  0  0  0  0  0  0  0  0  0  0
    5.1752   -0.0555   -2.2006 C   0  0  0  0  0  0  0  0  0  0  0  0
    4.5386   -1.1740   -1.6567 C   0  0  0  0  0  0  0  0  0  0  0  0
    4.2641   -1.2364   -0.2868 C   0  0  0  0  0  0  0  0  0  0  0  0
    3.5726   -2.4385    0.3097 C   0  0  0  0  0  0  0  0  0  0  0  0
    2.2291   -2.0962    0.9392 C   0  0  0  0  0  0  0  0  0  0  0  0
    2.0861   -2.1116    2.1588 O   0  0  0  0  0  0  0  0  0  0  0  0
    1.2588   -1.7976   -0.0033 N   0  0  0  0  0  0  0  0  0  0  0  0
   -0.0834   -1.4373    0.2267 C   0  0  0  0  0  0  0  0  0  0  0  0
   -0.8770   -1.1798   -0.8960 C   0  0  0  0  0  0  0  0  0  0  0  0
   -2.2229   -0.8166   -0.7584 C   0  0  0  0  0  0  0  0  0  0  0  0
   -2.7977   -0.7014    0.5056 C   0  0  0  0  0  0  0  0  0  0  0  0
   -4.1386   -0.3289    0.7305 N   0  0  0  0  0  0  0  0  0  0  0  0
   -5.1249   -0.1461   -0.2211 C   0  0  0  0  0  0  0  0  0  0  0  0
   -5.0425   -0.3512   -1.4252 O   0  0  0  0  0  0  0  0  0  0  0  0
   -6.4310    0.3088    0.3264 C   0  0  0  0  0  0  0  0  0  0  0  0
   -7.6075   -0.2538   -0.1855 C   0  0  0  0  0  0  0  0  0  0  0  0
   -8.8492    0.1557    0.3054 C   0  0  0  0  0  0  0  0  0  0  0  0
   -8.9107    1.1372    1.2956 C   0  0  0  0  0  0  0  0  0  0  0  0
  -10.5904    1.6989    1.9561 Br  0  0  0  0  0  0  0  0  0  0  0  0
   -7.7431    1.7176    1.7969 C   0  0  0  0  0  0  0  0  0  0  0  0
   -6.4991    1.3049    1.3117 C   0  0  0  0  0  0  0  0  0  0  0  0
   -2.0025   -0.9511    1.6292 C   0  0  0  0  0  0  0  0  0  0  0  0
   -0.6578   -1.3208    1.4915 C   0  0  0  0  0  0  0  0  0  0  0  0
    4.6469   -0.1650    0.5360 C   0  0  0  0  0  0  0  0  0  0  0  0
    5.2840    0.9608    0.0012 C   0  0  0  0  0  0  0  0  0  0  0  0
    5.6832    2.0497    0.7377 O   0  0  0  0  0  0  0  0  0  0  0  0
    5.3886    2.0493    2.1269 C   0  0  0  0  0  0  0  0  0  0  0  0
    6.7455    3.3062   -3.4155 H   0  0  0  0  0  0  0  0  0  0  0  0
    6.9842    1.5720   -3.6625 H   0  0  0  0  0  0  0  0  0  0  0  0
    5.3297    2.2981   -3.7299 H   0  0  0  0  0  0  0  0  0  0  0  0
    5.3761   -0.0548   -3.2684 H   0  0  0  0  0  0  0  0  0  0  0  0
    4.2684   -1.9951   -2.3173 H   0  0  0  0  0  0  0  0  0  0  0  0
    3.4148   -3.2176   -0.4447 H   0  0  0  0  0  0  0  0  0  0  0  0
    4.2189   -2.8805    1.0762 H   0  0  0  0  0  0  0  0  0  0  0  0
    1.5547   -1.8003   -0.9716 H   0  0  0  0  0  0  0  0  0  0  0  0
   -0.4678   -1.2560   -1.9009 H   0  0  0  0  0  0  0  0  0  0  0  0
   -2.7912   -0.6226   -1.6632 H   0  0  0  0  0  0  0  0  0  0  0  0
   -4.4195   -0.2640    1.6998 H   0  0  0  0  0  0  0  0  0  0  0  0
   -7.5562   -1.0111   -0.9647 H   0  0  0  0  0  0  0  0  0  0  0  0
   -9.7572   -0.2897   -0.0954 H   0  0  0  0  0  0  0  0  0  0  0  0
   -7.7933    2.4991    2.5522 H   0  0  0  0  0  0  0  0  0  0  0  0
   -5.5966    1.7897    1.6827 H   0  0  0  0  0  0  0  0  0  0  0  0
   -2.4112   -0.8694    2.6333 H   0  0  0  0  0  0  0  0  0  0  0  0
   -0.0888   -1.5065    2.3976 H   0  0  0  0  0  0  0  0  0  0  0  0
    4.4340   -0.2341    1.5989 H   0  0  0  0  0  0  0  0  0  0  0  0
    5.9110    1.2341    2.6399 H   0  0  0  0  0  0  0  0  0  0  0  0
    4.3071    2.0028    2.3015 H   0  0  0  0  0  0  0  0  0  0  0  0
    5.7533    2.9919    2.5484 H   0  0  0  0  0  0  0  0  0  0  0  0
  1  2  1  0
  2  3  1  0
  3  4  2  0
  4  5  1  0
  5  6  2  0
  6  7  1  0
  7  8  1  0
  8  9  2  0
  8 10  1  0
 10 11  1  0
 11 12  2  0
 12 13  1  0
 13 14  2  0
 14 15  1  0
 15 16  1  0
 16 17  2  0
 16 18  1  0
 18 19  2  0
 19 20  1  0
 20 21  2  0
 21 22  1  0
 21 23  1  0
 23 24  2  0
 14 25  1  0
 25 26  2  0
  6 27  1  0
 27 28  2  0
 28 29  1  0
 29 30  1  0
 28  3  1  0
 26 11  1  0
 24 18  1  0
  1 31  1  0
  1 32  1  0
  1 33  1  0
  4 34  1  0
  5 35  1  0
  7 36  1  0
  7 37  1  0
 10 38  1  0
 12 39  1  0
 13 40  1  0
 15 41  1  0
 19 42  1  0
 20 43  1  0
 23 44  1  0
 24 45  1  0
 25 46  1  0
 26 47  1  0
 27 48  1  0
 30 49  1  0
 30 50  1  0
 30 51  1  0
M  END
$$$$
