
     RDKit          3D

 31 32  0  0  0  0  0  0  0  0999 V2000
   -3.1401   -0.5755   -1.7891 C   0  0  0  0  0  0  0  0  0  0  0  0
   -2.6237    0.7034   -1.1478 C   0  0  0  0  0  0  0  0  0  0  0  0
   -1.7269    0.4141   -0.0193 N   0  0  0  0  0  0  0  0  0  0  0  0
   -2.3682    0.2309    1.2923 C   0  0  0  0  0  0  0  0  0  0  0  0
   -2.3335   -1.2245    1.7395 C   0  0  0  0  0  0  0  0  0  0  0  0
   -0.3477    0.3495   -0.1826 C   0  0  0  0  0  0  0  0  0  0  0  0
    0.2567    0.2542   -1.4475 C   0  0  0  0  0  0  0  0  0  0  0  0
    1.6519    0.1886   -1.6242 C   0  0  0  0  0  0  0  0  0  0  0  0
    2.5175    0.2161   -0.5305 C   0  0  0  0  0  0  0  0  0  0  0  0
    3.9822    0.1536   -0.6076 C   0  0  0  0  0  0  0  0  0  0  0  0
    4.7037    0.0372   -2.1867 Cl  0  0  0  0  0  0  0  0  0  0  0  0
    4.7326    0.1861    0.5083 C   0  0  0  0  0  0  0  0  0  0  0  0
    6.6159    0.1113    0.5090 Br  0  0  0  0  0  0  0  0  0  0  0  0
    4.0951    0.2863    1.8494 C   0  0  0  0  0  0  0  0  0  0  0  0
    4.7407    0.3187    2.8923 O   0  0  0  0  0  0  0  0  0  0  0  0
    2.7093    0.3438    1.8869 O   0  0  0  0  0  0  0  0  0  0  0  0
    1.9281    0.3086    0.7197 C   0  0  0  0  0  0  0  0  0  0  0  0
    0.5392    0.3735    0.9020 C   0  0  0  0  0  0  0  0  0  0  0  0
   -3.7666   -0.3367   -2.6543 H   0  0  0  0  0  0  0  0  0  0  0  0
   -2.3227   -1.2194   -2.1275 H   0  0  0  0  0  0  0  0  0  0  0  0
   -3.7490   -1.1508   -1.0849 H   0  0  0  0  0  0  0  0  0  0  0  0
   -2.1400    1.3411   -1.8967 H   0  0  0  0  0  0  0  0  0  0  0  0
   -3.4812    1.2928   -0.7993 H   0  0  0  0  0  0  0  0  0  0  0  0
   -1.9176    0.8838    2.0480 H   0  0  0  0  0  0  0  0  0  0  0  0
   -3.4201    0.5393    1.2441 H   0  0  0  0  0  0  0  0  0  0  0  0
   -2.8238   -1.8753    1.0091 H   0  0  0  0  0  0  0  0  0  0  0  0
   -1.3109   -1.5888    1.8734 H   0  0  0  0  0  0  0  0  0  0  0  0
   -2.8558   -1.3358    2.6951 H   0  0  0  0  0  0  0  0  0  0  0  0
   -0.3471    0.2077   -2.3498 H   0  0  0  0  0  0  0  0  0  0  0  0
    2.0242    0.1119   -2.6432 H   0  0  0  0  0  0  0  0  0  0  0  0
    0.1776    0.4544    1.9219 H   0  0  0  0  0  0  0  0  0  0  0  0
  1  2  1  0
  2  3  1  0
  3  4  1  0
  4  5  1  0
  3  6  1  0
  6  7  2  0
  7  8  1  0
  8  9  2  0
  9 10  1  0
 10 11  1  0
 10 12  2  0
 12 13  1  0
 12 14  1  0
 14 15  2  0
 14 16  1  0
 16 17  1  0
 17 18  2  0
 18  6  1  0
 17  9  1  0
  1 19  1  0
  1 20  1  0
  1 21  1  0
  2 22  1  0
  2 23  1  0
  4 24  1  0
  4 25  1  0
  5 26  1  0
  5 27  1  0
  5 28  1  0
  7 29  1  0
  8 30  1  0
 18 31  1  0
M  END
$$$$
