
     RDKit          3D

 37 38  0  0  0  0  0  0  0  0999 V2000
   -6.3098   -0.7531    1.5577 C   0  0  0  0  0  0  0  0  0  0  0  0
   -5.0215   -0.0363    1.2378 C   0  0  0  0  0  0  0  0  0  0  0  0
   -4.7558    1.0394    1.7618 O   0  0  0  0  0  0  0  0  0  0  0  0
   -4.2589   -0.7192    0.3070 N   0  0  0  0  0  0  0  0  0  0  0  0
   -3.0085   -0.3399   -0.2220 C   0  0  0  0  0  0  0  0  0  0  0  0
   -2.4256   -1.1975   -1.1633 C   0  0  0  0  0  0  0  0  0  0  0  0
   -1.1848   -0.8946   -1.7346 C   0  0  0  0  0  0  0  0  0  0  0  0
   -0.5063    0.2737   -1.3713 C   0  0  0  0  0  0  0  0  0  0  0  0
    0.8131    0.5462   -2.0009 C   0  0  0  0  0  0  0  0  0  0  0  0
    1.3171   -0.1705   -2.8493 O   0  0  0  0  0  0  0  0  0  0  0  0
    1.3716    1.6672   -1.4806 O   0  0  0  0  0  0  0  0  0  0  0  0
    2.6552    1.9957   -2.0058 C   0  0  0  0  0  0  0  0  0  0  0  0
    3.8197    1.0680   -1.6545 C   0  0  0  0  0  0  0  0  0  0  0  0
    4.7983    0.9554   -2.3929 O   0  0  0  0  0  0  0  0  0  0  0  0
    3.8043    0.3205   -0.3672 C   0  0  0  0  0  0  0  0  0  0  0  0
    3.1659    0.8216    0.7753 C   0  0  0  0  0  0  0  0  0  0  0  0
    3.1803    0.0820    1.9606 C   0  0  0  0  0  0  0  0  0  0  0  0
    3.8383   -1.1430    2.0013 C   0  0  0  0  0  0  0  0  0  0  0  0
    3.8491   -1.8471    3.1403 F   0  0  0  0  0  0  0  0  0  0  0  0
    4.4890   -1.6440    0.8800 C   0  0  0  0  0  0  0  0  0  0  0  0
    4.4765   -0.9092   -0.3068 C   0  0  0  0  0  0  0  0  0  0  0  0
   -1.0865    1.1338   -0.4329 C   0  0  0  0  0  0  0  0  0  0  0  0
   -2.3293    0.8261    0.1368 C   0  0  0  0  0  0  0  0  0  0  0  0
   -6.6650   -0.4389    2.5434 H   0  0  0  0  0  0  0  0  0  0  0  0
   -7.0605   -0.5021    0.8039 H   0  0  0  0  0  0  0  0  0  0  0  0
   -6.1597   -1.8363    1.5818 H   0  0  0  0  0  0  0  0  0  0  0  0
   -4.6416   -1.5896   -0.0410 H   0  0  0  0  0  0  0  0  0  0  0  0
   -2.9243   -2.1144   -1.4681 H   0  0  0  0  0  0  0  0  0  0  0  0
   -0.7510   -1.5772   -2.4636 H   0  0  0  0  0  0  0  0  0  0  0  0
    2.9138    2.9934   -1.6343 H   0  0  0  0  0  0  0  0  0  0  0  0
    2.5856    2.0694   -3.0983 H   0  0  0  0  0  0  0  0  0  0  0  0
    2.6650    1.7857    0.7680 H   0  0  0  0  0  0  0  0  0  0  0  0
    2.6881    0.4545    2.8540 H   0  0  0  0  0  0  0  0  0  0  0  0
    5.0021   -2.5990    0.9351 H   0  0  0  0  0  0  0  0  0  0  0  0
    4.9866   -1.2982   -1.1868 H   0  0  0  0  0  0  0  0  0  0  0  0
   -0.5914    2.0529   -0.1295 H   0  0  0  0  0  0  0  0  0  0  0  0
   -2.7389    1.5246    0.8606 H   0  0  0  0  0  0  0  0  0  0  0  0
  1  2  1  0
  2  3  2  0
  2  4  1  0
  4  5  1  0
  5  6  2  0
  6  7  1  0
  7  8  2  0
  8  9  1  0
  9 10  2  0
  9 11  1  0
 11 12  1  0
 12 13  1  0
 13 14  2  0
 13 15  1  0
 15 16  2  0
 16 17  1  0
 17 18  2  0
 18 19  1  0
 18 20  1  0
 20 21  2  0
  8 22  1  0
 22 23  2  0
 23  5  1  0
 21 15  1  0
  1 24  1  0
  1 25  1  0
  1 26  1  0
  4 27  1  0
  6 28  1  0
  7 29  1  0
 12 30  1  0
 12 31  1  0
 16 32  1  0
 17 33  1  0
 20 34  1  0
 21 35  1  0
 22 36  1  0
 23 37  1  0
M  END
$$$$
