
     RDKit          3D

 32 34  0  0  0  0  0  0  0  0999 V2000
    0.3508    1.5676   -2.1636 O   0  0  0  0  0  0  0  0  0  0  0  0
   -0.2104    0.9813   -1.2425 C   0  0  0  0  0  0  0  0  0  0  0  0
   -1.7382    1.0069   -1.1306 C   0  0  0  0  0  0  0  0  0  0  0  0
   -2.1848    0.2681    0.0041 O   0  0  0  0  0  0  0  0  0  0  0  0
   -3.5345    0.2138    0.2165 C   0  0  0  0  0  0  0  0  0  0  0  0
   -3.9177   -0.5228    1.3418 C   0  0  0  0  0  0  0  0  0  0  0  0
   -5.2665   -0.6608    1.6778 C   0  0  0  0  0  0  0  0  0  0  0  0
   -6.2369   -0.0582    0.8828 C   0  0  0  0  0  0  0  0  0  0  0  0
   -8.0641   -0.2394    1.3292 Br  0  0  0  0  0  0  0  0  0  0  0  0
   -5.8678    0.6782   -0.2410 C   0  0  0  0  0  0  0  0  0  0  0  0
   -4.5155    0.8146   -0.5748 C   0  0  0  0  0  0  0  0  0  0  0  0
    0.3853    0.2600   -0.2350 N   0  0  0  0  0  0  0  0  0  0  0  0
    1.7230    0.0395   -0.0408 C   0  0  0  0  0  0  0  0  0  0  0  0
    2.1758   -0.6732    0.9684 N   0  0  0  0  0  0  0  0  0  0  0  0
    3.5553   -0.7621    0.9651 N   0  0  0  0  0  0  0  0  0  0  0  0
    4.0740   -0.1154   -0.0546 C   0  0  0  0  0  0  0  0  0  0  0  0
    5.6122   -0.0428   -0.2996 C   0  0  0  0  0  0  0  0  0  0  0  0
    6.2106   -0.7893   -1.4649 C   0  0  0  0  0  0  0  0  0  0  0  0
    6.4529   -1.2722   -0.0649 C   0  0  0  0  0  0  0  0  0  0  0  0
    2.9358    0.6556   -1.0679 S   0  0  0  0  0  0  0  0  0  0  0  0
   -2.1342    0.5619   -2.0508 H   0  0  0  0  0  0  0  0  0  0  0  0
   -2.0350    2.0580   -1.0377 H   0  0  0  0  0  0  0  0  0  0  0  0
   -3.1619   -0.9950    1.9652 H   0  0  0  0  0  0  0  0  0  0  0  0
   -5.5448   -1.2371    2.5561 H   0  0  0  0  0  0  0  0  0  0  0  0
   -6.6232    1.1503   -0.8643 H   0  0  0  0  0  0  0  0  0  0  0  0
   -4.2694    1.3960   -1.4576 H   0  0  0  0  0  0  0  0  0  0  0  0
   -0.2191   -0.1688    0.4575 H   0  0  0  0  0  0  0  0  0  0  0  0
    6.0546    0.9113   -0.0341 H   0  0  0  0  0  0  0  0  0  0  0  0
    5.5600   -1.3836   -2.0967 H   0  0  0  0  0  0  0  0  0  0  0  0
    7.0352   -0.3244   -1.9929 H   0  0  0  0  0  0  0  0  0  0  0  0
    5.9584   -2.1836    0.2538 H   0  0  0  0  0  0  0  0  0  0  0  0
    7.4399   -1.1344    0.3609 H   0  0  0  0  0  0  0  0  0  0  0  0
  1  2  2  0
  2  3  1  0
  3  4  1  0
  4  5  1  0
  5  6  2  0
  6  7  1  0
  7  8  2  0
  8  9  1  0
  8 10  1  0
 10 11  2  0
  2 12  1  0
 12 13  1  0
 13 14  2  0
 14 15  1  0
 15 16  2  0
 16 17  1  0
 17 18  1  0
 18 19  1  0
 16 20  1  0
 11  5  1  0
 20 13  1  0
 19 17  1  0
  3 21  1  0
  3 22  1  0
  6 23  1  0
  7 24  1  0
 10 25  1  0
 11 26  1  0
 12 27  1  0
 17 28  1  0
 18 29  1  0
 18 30  1  0
 19 31  1  0
 19 32  1  0
M  END
$$$$
