
     RDKit          3D

 67 72  0  0  0  0  0  0  0  0999 V2000
    2.3570   -3.0492    0.3084 O   0  0  0  0  0  0  0  0  0  0  0  0
    2.1084   -1.8477    0.1814 C   0  0  0  0  0  0  0  0  0  0  0  0
    3.1138   -0.7555    0.6140 C   0  0  0  0  0  0  0  0  0  0  0  0
    4.5310   -1.3513    0.7058 C   0  0  0  0  0  0  0  0  0  0  0  0
    5.5394   -0.4029    1.3171 C   0  0  0  0  0  0  0  0  0  0  0  0
    5.6758   -0.3113    2.7094 C   0  0  0  0  0  0  0  0  0  0  0  0
    6.5992    0.5712    3.2719 C   0  0  0  0  0  0  0  0  0  0  0  0
    7.3897    1.3721    2.4500 C   0  0  0  0  0  0  0  0  0  0  0  0
    7.2594    1.2914    1.0644 C   0  0  0  0  0  0  0  0  0  0  0  0
    6.3404    0.4065    0.4996 C   0  0  0  0  0  0  0  0  0  0  0  0
    3.0875    0.3530   -0.3451 N   0  0  0  0  0  0  0  0  0  0  0  0
    1.8017    0.8740   -0.5166 C   0  0  0  0  0  0  0  0  0  0  0  0
    1.7533    2.1884   -0.7652 N   0  0  0  0  0  0  0  0  0  0  0  0
    0.5397    2.6874   -0.9966 C   0  0  0  0  0  0  0  0  0  0  0  0
   -0.6141    2.0129   -0.9363 N   0  0  0  0  0  0  0  0  0  0  0  0
   -0.5567    0.6988   -0.6352 C   0  0  0  0  0  0  0  0  0  0  0  0
   -1.7796    0.0533   -0.3692 N   0  0  0  0  0  0  0  0  0  0  0  0
   -1.9693   -0.2232    1.0852 C   0  0  0  0  0  0  0  0  0  0  0  0
   -3.1087    0.6132    1.7121 C   0  0  0  0  0  0  0  0  0  0  0  0
   -4.4031    0.4048    1.0067 N   0  0  0  0  0  0  0  0  0  0  0  0
   -5.3652    1.3482    1.4033 C   0  0  0  0  0  0  0  0  0  0  0  0
   -5.8903    1.2746    2.7047 C   0  0  0  0  0  0  0  0  0  0  0  0
   -6.8387    2.1926    3.1656 C   0  0  0  0  0  0  0  0  0  0  0  0
   -7.2813    3.2114    2.3289 C   0  0  0  0  0  0  0  0  0  0  0  0
   -6.7745    3.3080    1.0361 C   0  0  0  0  0  0  0  0  0  0  0  0
   -5.8256    2.3851    0.5801 C   0  0  0  0  0  0  0  0  0  0  0  0
   -4.2660    0.0838   -0.4350 C   0  0  0  0  0  0  0  0  0  0  0  0
   -2.9640    0.6681   -1.0229 C   0  0  0  0  0  0  0  0  0  0  0  0
    0.6756    0.0415   -0.4808 C   0  0  0  0  0  0  0  0  0  0  0  0
    0.8688   -1.3745   -0.2785 N   0  0  0  0  0  0  0  0  0  0  0  0
   -0.0346   -2.3529   -0.8823 C   0  0  0  0  0  0  0  0  0  0  0  0
    0.2526   -2.5764   -2.3555 C   0  0  0  0  0  0  0  0  0  0  0  0
    1.1798   -3.5499   -2.7605 C   0  0  0  0  0  0  0  0  0  0  0  0
    1.4612   -3.7444   -4.1147 C   0  0  0  0  0  0  0  0  0  0  0  0
    0.8203   -2.9634   -5.0733 C   0  0  0  0  0  0  0  0  0  0  0  0
    1.1667   -3.2010   -6.7418 Cl  0  0  0  0  0  0  0  0  0  0  0  0
   -0.0996   -1.9904   -4.6894 C   0  0  0  0  0  0  0  0  0  0  0  0
   -0.3819   -1.7976   -3.3351 C   0  0  0  0  0  0  0  0  0  0  0  0
    2.8024   -0.4015    1.6073 H   0  0  0  0  0  0  0  0  0  0  0  0
    4.8785   -1.6632   -0.2883 H   0  0  0  0  0  0  0  0  0  0  0  0
    4.5218   -2.2676    1.3110 H   0  0  0  0  0  0  0  0  0  0  0  0
    5.0716   -0.9344    3.3660 H   0  0  0  0  0  0  0  0  0  0  0  0
    6.7080    0.6296    4.3528 H   0  0  0  0  0  0  0  0  0  0  0  0
    8.1094    2.0580    2.8890 H   0  0  0  0  0  0  0  0  0  0  0  0
    7.8764    1.9158    0.4229 H   0  0  0  0  0  0  0  0  0  0  0  0
    6.2512    0.3533   -0.5844 H   0  0  0  0  0  0  0  0  0  0  0  0
    3.7217    1.1270   -0.1607 H   0  0  0  0  0  0  0  0  0  0  0  0
    0.4812    3.7408   -1.2457 H   0  0  0  0  0  0  0  0  0  0  0  0
   -2.2178   -1.2865    1.1888 H   0  0  0  0  0  0  0  0  0  0  0  0
   -1.0528   -0.0580    1.6656 H   0  0  0  0  0  0  0  0  0  0  0  0
   -3.2094    0.3251    2.7654 H   0  0  0  0  0  0  0  0  0  0  0  0
   -2.8248    1.6745    1.6773 H   0  0  0  0  0  0  0  0  0  0  0  0
   -5.5722    0.4734    3.3675 H   0  0  0  0  0  0  0  0  0  0  0  0
   -7.2316    2.1040    4.1746 H   0  0  0  0  0  0  0  0  0  0  0  0
   -8.0186    3.9270    2.6825 H   0  0  0  0  0  0  0  0  0  0  0  0
   -7.1111    4.1051    0.3786 H   0  0  0  0  0  0  0  0  0  0  0  0
   -5.4391    2.5159   -0.4259 H   0  0  0  0  0  0  0  0  0  0  0  0
   -4.2351   -1.0104   -0.5226 H   0  0  0  0  0  0  0  0  0  0  0  0
   -5.1344    0.4010   -1.0232 H   0  0  0  0  0  0  0  0  0  0  0  0
   -2.9269    0.4559   -2.0979 H   0  0  0  0  0  0  0  0  0  0  0  0
   -2.9891    1.7570   -0.8911 H   0  0  0  0  0  0  0  0  0  0  0  0
   -1.0855   -2.1072   -0.7451 H   0  0  0  0  0  0  0  0  0  0  0  0
    0.0778   -3.3116   -0.3594 H   0  0  0  0  0  0  0  0  0  0  0  0
    1.6936   -4.1609   -2.0194 H   0  0  0  0  0  0  0  0  0  0  0  0
    2.1821   -4.5015   -4.4108 H   0  0  0  0  0  0  0  0  0  0  0  0
   -0.5968   -1.3777   -5.4366 H   0  0  0  0  0  0  0  0  0  0  0  0
   -1.0990   -1.0318   -3.0491 H   0  0  0  0  0  0  0  0  0  0  0  0
  1  2  2  0
  2  3  1  0
  3  4  1  0
  4  5  1  0
  5  6  2  0
  6  7  1  0
  7  8  2  0
  8  9  1  0
  9 10  2  0
  3 11  1  0
 11 12  1  0
 12 13  2  0
 13 14  1  0
 14 15  2  0
 15 16  1  0
 16 17  1  0
 17 18  1  0
 18 19  1  0
 19 20  1  0
 20 21  1  0
 21 22  2  0
 22 23  1  0
 23 24  2  0
 24 25  1  0
 25 26  2  0
 20 27  1  0
 27 28  1  0
 16 29  2  0
 29 30  1  0
 30 31  1  0
 31 32  1  0
 32 33  2  0
 33 34  1  0
 34 35  2  0
 35 36  1  0
 35 37  1  0
 37 38  2  0
 30  2  1  0
 38 32  1  0
 10  5  1  0
 29 12  1  0
 28 17  1  0
 26 21  1  0
  3 39  1  0
  4 40  1  0
  4 41  1  0
  6 42  1  0
  7 43  1  0
  8 44  1  0
  9 45  1  0
 10 46  1  0
 11 47  1  0
 14 48  1  0
 18 49  1  0
 18 50  1  0
 19 51  1  0
 19 52  1  0
 22 53  1  0
 23 54  1  0
 24 55  1  0
 25 56  1  0
 26 57  1  0
 27 58  1  0
 27 59  1  0
 28 60  1  0
 28 61  1  0
 31 62  1  0
 31 63  1  0
 33 64  1  0
 34 65  1  0
 37 66  1  0
 38 67  1  0
M  END
$$$$
