
     RDKit          3D

 27 27  0  0  0  0  0  0  0  0999 V2000
    2.6748   -0.5481   -2.5206 C   0  0  0  0  0  0  0  0  0  0  0  0
    1.8436   -0.2174   -1.3399 C   0  0  0  0  0  0  0  0  0  0  0  0
    2.2444    0.3446   -0.1211 C   0  0  0  0  0  0  0  0  0  0  0  0
    1.0998    0.4578    0.6569 C   0  0  0  0  0  0  0  0  0  0  0  0
    1.0174    0.9820    1.9918 C   0  0  0  0  0  0  0  0  0  0  0  0
    0.0490    1.1071    2.7226 O   0  0  0  0  0  0  0  0  0  0  0  0
    2.2318    1.3752    2.4386 O   0  0  0  0  0  0  0  0  0  0  0  0
    0.0798   -0.0420   -0.1388 N   0  0  0  0  0  0  0  0  0  0  0  0
   -1.3694   -0.1867    0.1324 C   0  0  0  0  0  0  0  0  0  0  0  0
   -2.0255    1.1870    0.3676 C   0  0  0  0  0  0  0  0  0  0  0  0
   -2.1158   -0.8090   -1.0857 C   0  0  0  0  0  0  0  0  0  0  0  0
   -1.6161   -1.1485    1.3100 C   0  0  0  0  0  0  0  0  0  0  0  0
    0.5340   -0.4518   -1.3517 N   0  0  0  0  0  0  0  0  0  0  0  0
    3.7255   -0.2940   -2.3475 H   0  0  0  0  0  0  0  0  0  0  0  0
    2.3326    0.0078   -3.3994 H   0  0  0  0  0  0  0  0  0  0  0  0
    2.6177   -1.6184   -2.7432 H   0  0  0  0  0  0  0  0  0  0  0  0
    3.2443    0.6375    0.1704 H   0  0  0  0  0  0  0  0  0  0  0  0
    2.0405    1.7053    3.3398 H   0  0  0  0  0  0  0  0  0  0  0  0
   -1.8449    1.8567   -0.4818 H   0  0  0  0  0  0  0  0  0  0  0  0
   -3.1108    1.0889    0.4886 H   0  0  0  0  0  0  0  0  0  0  0  0
   -1.6567    1.6958    1.2583 H   0  0  0  0  0  0  0  0  0  0  0  0
   -2.0170   -0.1843   -1.9817 H   0  0  0  0  0  0  0  0  0  0  0  0
   -1.7324   -1.8078   -1.3266 H   0  0  0  0  0  0  0  0  0  0  0  0
   -3.1880   -0.9142   -0.8807 H   0  0  0  0  0  0  0  0  0  0  0  0
   -1.2224   -0.7818    2.2580 H   0  0  0  0  0  0  0  0  0  0  0  0
   -2.6886   -1.3193    1.4603 H   0  0  0  0  0  0  0  0  0  0  0  0
   -1.1473   -2.1222    1.1236 H   0  0  0  0  0  0  0  0  0  0  0  0
  1  2  1  0
  2  3  1  0
  3  4  2  0
  4  5  1  0
  5  6  2  0
  5  7  1  0
  4  8  1  0
  8  9  1  0
  9 10  1  0
  9 11  1  0
  9 12  1  0
  8 13  1  0
 13  2  2  0
  1 14  1  0
  1 15  1  0
  1 16  1  0
  3 17  1  0
  7 18  1  0
 10 19  1  0
 10 20  1  0
 10 21  1  0
 11 22  1  0
 11 23  1  0
 11 24  1  0
 12 25  1  0
 12 26  1  0
 12 27  1  0
M  END
$$$$
