
     RDKit          3D

 36 37  0  0  0  0  0  0  0  0999 V2000
    0.8660   -2.9014   -1.2646 O   0  0  0  0  0  0  0  0  0  0  0  0
    0.3884   -1.8544   -1.6905 C   0  0  0  0  0  0  0  0  0  0  0  0
   -1.0136   -1.7810   -2.2973 C   0  0  0  0  0  0  0  0  0  0  0  0
   -2.0043   -1.3638   -1.3553 O   0  0  0  0  0  0  0  0  0  0  0  0
   -2.0347   -0.0355   -1.0952 C   0  0  0  0  0  0  0  0  0  0  0  0
   -1.2964    0.8016   -1.5931 O   0  0  0  0  0  0  0  0  0  0  0  0
   -3.0949    0.2852   -0.1020 C   0  0  0  0  0  0  0  0  0  0  0  0
   -3.8488   -0.7084    0.5391 C   0  0  0  0  0  0  0  0  0  0  0  0
   -4.8312   -0.3552    1.4698 C   0  0  0  0  0  0  0  0  0  0  0  0
   -5.0596    0.9891    1.7605 C   0  0  0  0  0  0  0  0  0  0  0  0
   -6.3878    1.4638    3.0185 Br  0  0  0  0  0  0  0  0  0  0  0  0
   -4.3142    1.9855    1.1324 C   0  0  0  0  0  0  0  0  0  0  0  0
   -3.3317    1.6339    0.2026 C   0  0  0  0  0  0  0  0  0  0  0  0
    1.0555   -0.6495   -1.6583 N   0  0  0  0  0  0  0  0  0  0  0  0
    2.3494   -0.5057   -1.0173 C   0  0  0  0  0  0  0  0  0  0  0  0
    2.2529   -0.4727    0.5126 C   0  0  0  0  0  0  0  0  0  0  0  0
    3.5051   -0.0774    1.1344 N   0  0  0  0  0  0  0  0  0  0  0  0
    3.8849    1.2316    1.3026 C   0  0  0  0  0  0  0  0  0  0  0  0
    3.0398    2.2208    0.8982 O   0  0  0  0  0  0  0  0  0  0  0  0
    5.0909    1.3947    1.8582 C   0  0  0  0  0  0  0  0  0  0  0  0
    5.8390   -0.1361    2.1973 S   0  0  0  0  0  0  0  0  0  0  0  0
    4.4444   -1.0145    1.5343 C   0  0  0  0  0  0  0  0  0  0  0  0
    4.3882   -2.2295    1.4625 O   0  0  0  0  0  0  0  0  0  0  0  0
   -1.0139   -1.1359   -3.1845 H   0  0  0  0  0  0  0  0  0  0  0  0
   -1.2853   -2.7846   -2.6418 H   0  0  0  0  0  0  0  0  0  0  0  0
   -3.6814   -1.7627    0.3300 H   0  0  0  0  0  0  0  0  0  0  0  0
   -5.4082   -1.1344    1.9622 H   0  0  0  0  0  0  0  0  0  0  0  0
   -4.4883    3.0347    1.3582 H   0  0  0  0  0  0  0  0  0  0  0  0
   -2.7526    2.4182   -0.2824 H   0  0  0  0  0  0  0  0  0  0  0  0
    0.5002    0.1940   -1.8118 H   0  0  0  0  0  0  0  0  0  0  0  0
    2.9962   -1.3320   -1.3342 H   0  0  0  0  0  0  0  0  0  0  0  0
    2.7857    0.4229   -1.4014 H   0  0  0  0  0  0  0  0  0  0  0  0
    1.9736   -1.4667    0.8819 H   0  0  0  0  0  0  0  0  0  0  0  0
    1.4607    0.2129    0.8379 H   0  0  0  0  0  0  0  0  0  0  0  0
    3.4496    3.0773    1.1083 H   0  0  0  0  0  0  0  0  0  0  0  0
    5.5763    2.3352    2.0736 H   0  0  0  0  0  0  0  0  0  0  0  0
  1  2  2  0
  2  3  1  0
  3  4  1  0
  4  5  1  0
  5  6  2  0
  5  7  1  0
  7  8  2  0
  8  9  1  0
  9 10  2  0
 10 11  1  0
 10 12  1  0
 12 13  2  0
  2 14  1  0
 14 15  1  0
 15 16  1  0
 16 17  1  0
 17 18  1  0
 18 19  1  0
 18 20  2  0
 20 21  1  0
 21 22  1  0
 22 23  2  0
 13  7  1  0
 22 17  1  0
  3 24  1  0
  3 25  1  0
  8 26  1  0
  9 27  1  0
 12 28  1  0
 13 29  1  0
 14 30  1  0
 15 31  1  0
 15 32  1  0
 16 33  1  0
 16 34  1  0
 19 35  1  0
 20 36  1  0
M  END
$$$$
