
     RDKit          3D

 43 45  0  0  0  0  0  0  0  0999 V2000
   -1.4777   -3.1781    2.1706 C   0  0  0  0  0  0  0  0  0  0  0  0
   -1.4132   -1.8772    1.4294 C   0  0  0  0  0  0  0  0  0  0  0  0
   -0.2059   -1.2350    1.2585 C   0  0  0  0  0  0  0  0  0  0  0  0
   -0.2207   -0.0419    0.5685 C   0  0  0  0  0  0  0  0  0  0  0  0
    0.9490    0.6984    0.3501 N   0  0  0  0  0  0  0  0  0  0  0  0
    2.1605    0.0896    0.3852 N   0  0  0  0  0  0  0  0  0  0  0  0
    3.1455    0.8293   -0.0202 C   0  0  0  0  0  0  0  0  0  0  0  0
    4.5360    0.3162   -0.0331 C   0  0  0  0  0  0  0  0  0  0  0  0
    4.7902   -0.9749    0.4562 C   0  0  0  0  0  0  0  0  0  0  0  0
    6.0874   -1.4993    0.4483 C   0  0  0  0  0  0  0  0  0  0  0  0
    7.1485   -0.7481   -0.0566 C   0  0  0  0  0  0  0  0  0  0  0  0
    6.9168    0.5348   -0.5489 C   0  0  0  0  0  0  0  0  0  0  0  0
    5.6144    1.0562   -0.5249 C   0  0  0  0  0  0  0  0  0  0  0  0
    5.4309    2.3966   -1.0332 N   0  0  0  0  0  4  0  0  0  0  0  0
    5.0311    3.2546   -0.2389 O   0  0  0  0  0  0  0  0  0  0  0  0
    5.7019    2.5842   -2.2241 O   0  0  0  0  0  1  0  0  0  0  0  0
   -1.3577    0.4898    0.0971 N   0  0  0  0  0  0  0  0  0  0  0  0
   -2.5058   -0.1924    0.3048 C   0  0  0  0  0  0  0  0  0  0  0  0
   -3.7319    0.3846   -0.2021 N   0  0  0  0  0  0  0  0  0  0  0  0
   -3.7183    1.5806   -0.8711 N   0  0  0  0  0  0  0  0  0  0  0  0
   -4.9869    1.8147   -1.2088 C   0  0  0  0  0  0  0  0  0  0  0  0
   -5.3446    3.0480   -1.9516 C   0  0  0  0  0  0  0  0  0  0  0  0
   -5.8426    0.7896   -0.7678 C   0  0  0  0  0  0  0  0  0  0  0  0
   -5.0313   -0.1164   -0.1155 C   0  0  0  0  0  0  0  0  0  0  0  0
   -5.4054   -1.3832    0.5634 C   0  0  0  0  0  0  0  0  0  0  0  0
   -2.5686   -1.3738    0.9565 N   0  0  0  0  0  0  0  0  0  0  0  0
   -1.1425   -3.0410    3.2021 H   0  0  0  0  0  0  0  0  0  0  0  0
   -2.5025   -3.5636    2.1914 H   0  0  0  0  0  0  0  0  0  0  0  0
   -0.8434   -3.9249    1.6821 H   0  0  0  0  0  0  0  0  0  0  0  0
    0.7167   -1.6400    1.6507 H   0  0  0  0  0  0  0  0  0  0  0  0
    0.7475    1.5029   -0.2429 H   0  0  0  0  0  0  0  0  0  0  0  0
    2.9627    1.8610   -0.3650 H   0  0  0  0  0  0  0  0  0  0  0  0
    3.9788   -1.5876    0.8454 H   0  0  0  0  0  0  0  0  0  0  0  0
    6.2634   -2.5053    0.8253 H   0  0  0  0  0  0  0  0  0  0  0  0
    8.1542   -1.1644   -0.0658 H   0  0  0  0  0  0  0  0  0  0  0  0
    7.7467    1.1215   -0.9379 H   0  0  0  0  0  0  0  0  0  0  0  0
   -4.6542    3.2169   -2.7833 H   0  0  0  0  0  0  0  0  0  0  0  0
   -5.3058    3.9142   -1.2829 H   0  0  0  0  0  0  0  0  0  0  0  0
   -6.3565    2.9802   -2.3627 H   0  0  0  0  0  0  0  0  0  0  0  0
   -6.9132    0.7215   -0.8991 H   0  0  0  0  0  0  0  0  0  0  0  0
   -6.4908   -1.5277    0.5262 H   0  0  0  0  0  0  0  0  0  0  0  0
   -4.9465   -2.2458    0.0730 H   0  0  0  0  0  0  0  0  0  0  0  0
   -5.1165   -1.3649    1.6186 H   0  0  0  0  0  0  0  0  0  0  0  0
  1  2  1  0
  2  3  2  0
  3  4  1  0
  4  5  1  0
  5  6  1  0
  6  7  2  3
  7  8  1  0
  8  9  2  0
  9 10  1  0
 10 11  2  0
 11 12  1  0
 12 13  2  0
 13 14  1  0
 14 15  2  0
 14 16  1  0
  4 17  2  0
 17 18  1  0
 18 19  1  0
 19 20  1  0
 20 21  2  0
 21 22  1  0
 21 23  1  0
 23 24  2  0
 24 25  1  0
 18 26  2  0
 26  2  1  0
 13  8  1  0
 24 19  1  0
  1 27  1  0
  1 28  1  0
  1 29  1  0
  3 30  1  0
  5 31  1  0
  7 32  1  0
  9 33  1  0
 10 34  1  0
 11 35  1  0
 12 36  1  0
 22 37  1  0
 22 38  1  0
 22 39  1  0
 23 40  1  0
 25 41  1  0
 25 42  1  0
 25 43  1  0
M  CHG  2  14   1  16  -1
M  END
$$$$
