
     RDKit          3D

 39 40  0  0  0  0  0  0  0  0999 V2000
    5.2896    2.4633   -0.0178 C   0  0  0  0  0  0  0  0  0  0  0  0
    5.5254    0.9608    0.0719 C   0  0  0  0  0  0  0  0  0  0  0  0
    4.8142    0.1347   -1.0158 C   0  0  0  0  0  0  0  0  0  0  0  0
    5.3013    0.4929   -2.4206 C   0  0  0  0  0  0  0  0  0  0  0  0
    3.2866    0.2458   -0.9114 C   0  0  0  0  0  0  0  0  0  0  0  0
    2.6222    0.7854   -1.7891 O   0  0  0  0  0  0  0  0  0  0  0  0
    2.8022   -0.3211    0.2472 N   0  0  0  0  0  0  0  0  0  0  0  0
    1.4946   -0.3694    0.6604 C   0  0  0  0  0  0  0  0  0  0  0  0
    1.1410   -0.9693    1.7758 N   0  0  0  0  0  0  0  0  0  0  0  0
   -0.2187   -0.8937    2.0016 N   0  0  0  0  0  0  0  0  0  0  0  0
   -0.8386   -0.2338    1.0452 C   0  0  0  0  0  0  0  0  0  0  0  0
   -2.3096    0.0139    0.9988 C   0  0  0  0  0  0  0  0  0  0  0  0
   -3.0503   -1.1935    0.4223 C   0  0  0  0  0  0  0  0  0  0  0  0
   -4.5393   -0.9561    0.3705 C   0  0  0  0  0  0  0  0  0  0  0  0
   -5.3450   -1.2625    1.4754 C   0  0  0  0  0  0  0  0  0  0  0  0
   -6.7190   -1.0208    1.4361 C   0  0  0  0  0  0  0  0  0  0  0  0
   -7.2984   -0.4679    0.2955 C   0  0  0  0  0  0  0  0  0  0  0  0
   -6.5048   -0.1554   -0.8067 C   0  0  0  0  0  0  0  0  0  0  0  0
   -5.1306   -0.3963   -0.7700 C   0  0  0  0  0  0  0  0  0  0  0  0
    0.2030    0.3370   -0.1945 S   0  0  0  0  0  0  0  0  0  0  0  0
    4.2243    2.7061    0.0378 H   0  0  0  0  0  0  0  0  0  0  0  0
    5.6933    2.8792   -0.9454 H   0  0  0  0  0  0  0  0  0  0  0  0
    5.7908    2.9686    0.8143 H   0  0  0  0  0  0  0  0  0  0  0  0
    5.2083    0.6227    1.0655 H   0  0  0  0  0  0  0  0  0  0  0  0
    6.6046    0.7724    0.0154 H   0  0  0  0  0  0  0  0  0  0  0  0
    5.0648   -0.9224   -0.8508 H   0  0  0  0  0  0  0  0  0  0  0  0
    6.3903    0.4050   -2.4908 H   0  0  0  0  0  0  0  0  0  0  0  0
    5.0189    1.5109   -2.7077 H   0  0  0  0  0  0  0  0  0  0  0  0
    4.8619   -0.1843   -3.1617 H   0  0  0  0  0  0  0  0  0  0  0  0
    3.4355   -0.7870    0.8819 H   0  0  0  0  0  0  0  0  0  0  0  0
   -2.6624    0.2191    2.0177 H   0  0  0  0  0  0  0  0  0  0  0  0
   -2.5314    0.9146    0.4123 H   0  0  0  0  0  0  0  0  0  0  0  0
   -2.8458   -2.0915    1.0207 H   0  0  0  0  0  0  0  0  0  0  0  0
   -2.6839   -1.4238   -0.5869 H   0  0  0  0  0  0  0  0  0  0  0  0
   -4.9072   -1.6917    2.3743 H   0  0  0  0  0  0  0  0  0  0  0  0
   -7.3375   -1.2636    2.2964 H   0  0  0  0  0  0  0  0  0  0  0  0
   -8.3684   -0.2800    0.2659 H   0  0  0  0  0  0  0  0  0  0  0  0
   -6.9566    0.2767   -1.6959 H   0  0  0  0  0  0  0  0  0  0  0  0
   -4.5252   -0.1449   -1.6382 H   0  0  0  0  0  0  0  0  0  0  0  0
  1  2  1  0
  2  3  1  0
  3  4  1  0
  3  5  1  0
  5  6  2  0
  5  7  1  0
  7  8  1  0
  8  9  2  0
  9 10  1  0
 10 11  2  0
 11 12  1  0
 12 13  1  0
 13 14  1  0
 14 15  2  0
 15 16  1  0
 16 17  2  0
 17 18  1  0
 18 19  2  0
 11 20  1  0
 20  8  1  0
 19 14  1  0
  1 21  1  0
  1 22  1  0
  1 23  1  0
  2 24  1  0
  2 25  1  0
  3 26  1  0
  4 27  1  0
  4 28  1  0
  4 29  1  0
  7 30  1  0
 12 31  1  0
 12 32  1  0
 13 33  1  0
 13 34  1  0
 15 35  1  0
 16 36  1  0
 17 37  1  0
 18 38  1  0
 19 39  1  0
M  END
$$$$
