
     RDKit          3D

 38 39  0  0  0  0  0  0  0  0999 V2000
    4.7120    2.2016    0.3611 C   0  0  0  0  0  0  0  0  0  0  0  0
    4.2485    0.8483   -0.0273 C   0  0  0  0  0  0  0  0  0  0  0  0
    4.6406   -0.3954    0.5131 C   0  0  0  0  0  0  0  0  0  0  0  0
    3.9250   -1.3448   -0.1852 C   0  0  0  0  0  0  0  0  0  0  0  0
    3.9062   -2.8222   -0.0568 C   0  0  0  0  0  0  0  0  0  0  0  0
    3.1727   -0.6419   -1.0896 N   0  0  0  0  0  0  0  0  0  0  0  0
    2.2342   -1.1482   -2.0740 C   0  0  0  0  0  0  0  0  0  0  0  0
    0.7886   -0.9403   -1.6727 C   0  0  0  0  0  0  0  0  0  0  0  0
   -0.0654   -1.7766   -1.9729 O   0  0  0  0  0  0  0  0  0  0  0  0
    0.5308    0.2747   -1.0408 N   0  0  0  0  0  0  0  0  0  0  0  0
   -0.7084    0.7902   -0.7645 N   0  0  0  0  0  0  0  0  0  0  0  0
   -1.6535   -0.0334   -0.4325 C   0  0  0  0  0  0  0  0  0  0  0  0
   -3.0278    0.4513   -0.1774 C   0  0  0  0  0  0  0  0  0  0  0  0
   -3.9980   -0.4899    0.1841 C   0  0  0  0  0  0  0  0  0  0  0  0
   -5.3105   -0.0603    0.4322 C   0  0  0  0  0  0  0  0  0  0  0  0
   -6.3340   -1.0415    0.8151 N   0  0  0  0  0  4  0  0  0  0  0  0
   -7.4928   -0.6343    0.9755 O   0  0  0  0  0  0  0  0  0  0  0  0
   -5.9751   -2.2188    0.9573 O   0  0  0  0  0  1  0  0  0  0  0  0
   -5.6566    1.2938    0.3211 C   0  0  0  0  0  0  0  0  0  0  0  0
   -4.6814    2.2244   -0.0416 C   0  0  0  0  0  0  0  0  0  0  0  0
   -3.3754    1.8046   -0.2895 C   0  0  0  0  0  0  0  0  0  0  0  0
   -2.4824    2.7790   -0.6402 O   0  0  0  0  0  0  0  0  0  0  0  0
    3.3410    0.6969   -0.9991 N   0  0  0  0  0  0  0  0  0  0  0  0
    5.4421    2.1503    1.1752 H   0  0  0  0  0  0  0  0  0  0  0  0
    5.1863    2.7033   -0.4885 H   0  0  0  0  0  0  0  0  0  0  0  0
    3.8696    2.8134    0.6996 H   0  0  0  0  0  0  0  0  0  0  0  0
    5.3497   -0.5747    1.3097 H   0  0  0  0  0  0  0  0  0  0  0  0
    4.2961   -3.2935   -0.9645 H   0  0  0  0  0  0  0  0  0  0  0  0
    2.8881   -3.1845    0.1176 H   0  0  0  0  0  0  0  0  0  0  0  0
    4.5262   -3.1487    0.7844 H   0  0  0  0  0  0  0  0  0  0  0  0
    2.4218   -2.2162   -2.2154 H   0  0  0  0  0  0  0  0  0  0  0  0
    2.4265   -0.6318   -3.0202 H   0  0  0  0  0  0  0  0  0  0  0  0
    1.2955    0.9608   -1.0273 H   0  0  0  0  0  0  0  0  0  0  0  0
   -1.4866   -1.1148   -0.2924 H   0  0  0  0  0  0  0  0  0  0  0  0
   -3.7325   -1.5420    0.2669 H   0  0  0  0  0  0  0  0  0  0  0  0
   -6.6713    1.6385    0.5113 H   0  0  0  0  0  0  0  0  0  0  0  0
   -4.9365    3.2779   -0.1326 H   0  0  0  0  0  0  0  0  0  0  0  0
   -1.6133    2.3450   -0.7932 H   0  0  0  0  0  0  0  0  0  0  0  0
  1  2  1  0
  2  3  1  0
  3  4  2  0
  4  5  1  0
  4  6  1  0
  6  7  1  0
  7  8  1  0
  8  9  2  0
  8 10  1  0
 10 11  1  0
 11 12  2  3
 12 13  1  0
 13 14  2  0
 14 15  1  0
 15 16  1  0
 16 17  2  0
 16 18  1  0
 15 19  2  0
 19 20  1  0
 20 21  2  0
 21 22  1  0
  6 23  1  0
 23  2  2  0
 21 13  1  0
  1 24  1  0
  1 25  1  0
  1 26  1  0
  3 27  1  0
  5 28  1  0
  5 29  1  0
  5 30  1  0
  7 31  1  0
  7 32  1  0
 10 33  1  0
 12 34  1  0
 14 35  1  0
 19 36  1  0
 20 37  1  0
 22 38  1  0
M  CHG  2  16   1  18  -1
M  END
$$$$
