
     RDKit          3D

 36 38  0  0  0  0  0  0  0  0999 V2000
   -4.7683   -1.7236   -1.2072 C   0  0  0  0  0  0  0  0  0  0  0  0
   -3.6157   -0.9953   -0.7223 N   0  0  0  0  0  0  0  0  0  0  0  0
   -2.3378   -1.1561   -1.1893 C   0  0  0  0  0  0  0  0  0  0  0  0
   -1.5143   -0.3092   -0.4799 C   0  0  0  0  0  0  0  0  0  0  0  0
   -0.1060   -0.2375   -0.7097 C   0  0  0  0  0  0  0  0  0  0  0  0
    0.8208   -0.0005    0.2339 C   0  0  0  0  0  0  0  0  0  0  0  0
    2.2637    0.0697   -0.0221 C   0  0  0  0  0  0  0  0  0  0  0  0
    2.9136   -0.8084   -0.8880 C   0  0  0  0  0  0  0  0  0  0  0  0
    4.2894   -0.7101   -1.0661 C   0  0  0  0  0  0  0  0  0  0  0  0
    5.0044    0.2273   -0.4052 N   0  0  0  0  0  4  0  0  0  0  0  0
    6.4617    0.3066   -0.6034 C   0  0  0  0  0  0  0  0  0  0  0  0
    4.4003    1.0746    0.4570 C   0  0  0  0  0  0  0  0  0  0  0  0
    3.0274    1.0104    0.6673 C   0  0  0  0  0  0  0  0  0  0  0  0
   -2.3339    0.4279    0.4311 C   0  0  0  0  0  0  0  0  0  0  0  0
   -2.1015    1.4556    1.3703 C   0  0  0  0  0  0  0  0  0  0  0  0
   -3.1687    1.9558    2.1146 C   0  0  0  0  0  0  0  0  0  0  0  0
   -2.9373    2.9276    3.0079 F   0  0  0  0  0  0  0  0  0  0  0  0
   -4.4584    1.4758    1.9513 C   0  0  0  0  0  0  0  0  0  0  0  0
   -4.7234    0.4715    1.0183 C   0  0  0  0  0  0  0  0  0  0  0  0
   -3.6475   -0.0332    0.2661 C   0  0  0  0  0  0  0  0  0  0  0  0
   -5.4832   -1.0055   -1.6168 H   0  0  0  0  0  0  0  0  0  0  0  0
   -4.4579   -2.4230   -1.9876 H   0  0  0  0  0  0  0  0  0  0  0  0
   -5.2060   -2.2738   -0.3705 H   0  0  0  0  0  0  0  0  0  0  0  0
   -2.1204   -1.8689   -1.9746 H   0  0  0  0  0  0  0  0  0  0  0  0
    0.2067   -0.4117   -1.7372 H   0  0  0  0  0  0  0  0  0  0  0  0
    0.5157    0.1545    1.2669 H   0  0  0  0  0  0  0  0  0  0  0  0
    2.3619   -1.5819   -1.4187 H   0  0  0  0  0  0  0  0  0  0  0  0
    4.8271   -1.3811   -1.7302 H   0  0  0  0  0  0  0  0  0  0  0  0
    6.7852    1.3421   -0.4699 H   0  0  0  0  0  0  0  0  0  0  0  0
    6.9286   -0.3466    0.1379 H   0  0  0  0  0  0  0  0  0  0  0  0
    6.7038   -0.0196   -1.6181 H   0  0  0  0  0  0  0  0  0  0  0  0
    5.0231    1.7978    0.9761 H   0  0  0  0  0  0  0  0  0  0  0  0
    2.5596    1.7034    1.3649 H   0  0  0  0  0  0  0  0  0  0  0  0
   -1.1147    1.8755    1.5215 H   0  0  0  0  0  0  0  0  0  0  0  0
   -5.2627    1.8931    2.5502 H   0  0  0  0  0  0  0  0  0  0  0  0
   -5.7353    0.1022    0.8818 H   0  0  0  0  0  0  0  0  0  0  0  0
  1  2  1  0
  2  3  1  0
  3  4  2  0
  4  5  1  0
  5  6  2  3
  6  7  1  0
  7  8  2  0
  8  9  1  0
  9 10  2  0
 10 11  1  0
 10 12  1  0
 12 13  2  0
  4 14  1  0
 14 15  2  0
 15 16  1  0
 16 17  1  0
 16 18  2  0
 18 19  1  0
 19 20  2  0
 20  2  1  0
 13  7  1  0
 20 14  1  0
  1 21  1  0
  1 22  1  0
  1 23  1  0
  3 24  1  0
  5 25  1  0
  6 26  1  0
  8 27  1  0
  9 28  1  0
 11 29  1  0
 11 30  1  0
 11 31  1  0
 12 32  1  0
 13 33  1  0
 15 34  1  0
 18 35  1  0
 19 36  1  0
M  CHG  1  10   1
M  END
$$$$
