
     RDKit          3D

 26 28  0  0  0  0  0  0  0  0999 V2000
   -4.0374    0.9458   -0.0738 C   0  0  0  0  0  0  0  0  0  0  0  0
   -2.6058    0.5809   -0.0180 C   0  0  0  0  0  0  0  0  0  0  0  0
   -1.7223    1.6013   -0.1958 O   0  0  0  0  0  0  0  0  0  0  0  0
   -0.4731    1.0735   -0.1093 C   0  0  0  0  0  0  0  0  0  0  0  0
    0.7122    1.7908   -0.2333 C   0  0  0  0  0  0  0  0  0  0  0  0
    1.8822    1.0398   -0.1073 C   0  0  0  0  0  0  0  0  0  0  0  0
    3.1001    1.7461   -0.2293 O   0  0  0  0  0  0  0  0  0  0  0  0
    4.3246    1.1024   -0.1214 C   0  0  0  0  0  0  0  0  0  0  0  0
    5.3918    1.6960   -0.2240 O   0  0  0  0  0  0  0  0  0  0  0  0
    4.2931   -0.3493    0.1260 C   0  0  0  0  0  0  0  0  0  0  0  0
    3.1511   -1.0332    0.2441 C   0  0  0  0  0  0  0  0  0  0  0  0
    1.8788   -0.3369    0.1273 C   0  0  0  0  0  0  0  0  0  0  0  0
    0.6595   -1.0215    0.2455 C   0  0  0  0  0  0  0  0  0  0  0  0
   -0.5441   -0.2955    0.1233 C   0  0  0  0  0  0  0  0  0  0  0  0
   -1.9366   -0.6157    0.1788 C   0  0  0  0  0  0  0  0  0  0  0  0
   -2.5343   -1.9540    0.4080 C   0  0  0  0  0  0  0  0  0  0  0  0
   -4.1729    2.0318   -0.0585 H   0  0  0  0  0  0  0  0  0  0  0  0
   -4.5742    0.5269    0.7828 H   0  0  0  0  0  0  0  0  0  0  0  0
   -4.4922    0.5578   -0.9903 H   0  0  0  0  0  0  0  0  0  0  0  0
    0.7183    2.8575   -0.4146 H   0  0  0  0  0  0  0  0  0  0  0  0
    5.2591   -0.8326    0.2070 H   0  0  0  0  0  0  0  0  0  0  0  0
    3.1554   -2.1023    0.4262 H   0  0  0  0  0  0  0  0  0  0  0  0
    0.6315   -2.0914    0.4278 H   0  0  0  0  0  0  0  0  0  0  0  0
   -2.0394   -2.7094   -0.2109 H   0  0  0  0  0  0  0  0  0  0  0  0
   -2.4253   -2.2425    1.4583 H   0  0  0  0  0  0  0  0  0  0  0  0
   -3.6002   -1.9662    0.1596 H   0  0  0  0  0  0  0  0  0  0  0  0
  1  2  1  0
  2  3  1  0
  3  4  1  0
  4  5  2  0
  5  6  1  0
  6  7  1  0
  7  8  1  0
  8  9  2  0
  8 10  1  0
 10 11  2  0
 11 12  1  0
 12 13  1  0
 13 14  2  0
 14 15  1  0
 15 16  1  0
 15  2  2  0
 14  4  1  0
 12  6  2  0
  1 17  1  0
  1 18  1  0
  1 19  1  0
  5 20  1  0
 10 21  1  0
 11 22  1  0
 13 23  1  0
 16 24  1  0
 16 25  1  0
 16 26  1  0
M  END
$$$$
