
     RDKit          3D

 97 99  0  0  0  0  0  0  0  0999 V2000
   -1.5412    1.8879   -2.4745 C   0  0  0  0  0  0  0  0  0  0  0  0
   -1.3734    1.3772   -1.2353 C   0  0  0  0  0  0  0  0  0  0  0  0
   -1.9037    0.0033   -0.7895 C   0  0  1  0  0  0  0  0  0  0  0  0
   -2.7070    0.1764    0.4018 O   0  0  0  0  0  0  0  0  0  0  0  0
   -2.5911   -0.8184    1.3319 C   0  0  0  0  0  0  0  0  0  0  0  0
   -1.7915   -1.7443    1.2714 O   0  0  0  0  0  0  0  0  0  0  0  0
   -3.6195   -0.6308    2.4296 C   0  0  0  0  0  0  0  0  0  0  0  0
   -3.1864   -1.3826    3.6894 C   0  0  0  0  0  0  0  0  0  0  0  0
   -4.9685   -1.1337    1.9333 C   0  0  0  0  0  0  0  0  0  0  0  0
   -2.7150   -0.8155   -1.8369 C   0  0  0  0  0  0  0  0  0  0  0  0
   -4.1071   -0.4526   -1.7473 O   0  0  0  0  0  0  0  0  0  0  0  0
   -4.8720   -0.8340   -2.8035 C   0  0  0  0  0  0  0  0  0  0  0  0
   -6.3211   -0.5766   -2.5157 C   0  0  0  0  0  0  0  0  0  0  0  0
   -4.4440   -1.3168   -3.8431 O   0  0  0  0  0  0  0  0  0  0  0  0
   -2.5322   -2.3311   -1.6045 C   0  0  0  0  0  0  0  0  0  0  0  0
   -3.4106   -2.9977   -1.0420 O   0  0  0  0  0  0  0  0  0  0  0  0
   -1.2707   -3.0237   -2.1954 C   0  0  0  0  0  0  0  0  0  0  0  0
   -0.8116   -4.1276   -1.2250 C   0  0  0  0  0  0  0  0  0  0  0  0
   -1.7056   -3.6989   -3.5094 C   0  0  0  0  0  0  0  0  0  0  0  0
   -0.1787   -2.0059   -2.5182 C   0  0  0  0  0  0  0  0  0  0  0  0
    0.8600   -1.6599   -1.7340 C   0  0  0  0  0  0  0  0  0  0  0  0
    1.7835   -0.4981   -2.0296 C   0  0  2  0  0  0  0  0  0  0  0  0
    2.8049   -0.9535   -3.0767 C   0  0  0  0  0  0  0  0  0  0  0  0
    2.4957    0.0791   -0.7702 C   0  0  2  0  0  0  0  0  0  0  0  0
    3.1553   -1.0212   -0.0735 O   0  0  0  0  0  0  0  0  0  0  0  0
    4.4821   -1.2015   -0.2828 C   0  0  0  0  0  0  0  0  0  0  0  0
    5.1835   -0.5601   -1.0513 O   0  0  0  0  0  0  0  0  0  0  0  0
    4.9953   -2.3161    0.5642 C   0  0  0  0  0  0  0  0  0  0  0  0
    6.3492   -2.6612    0.4579 C   0  0  0  0  0  0  0  0  0  0  0  0
    6.8791   -3.6825    1.2473 C   0  0  0  0  0  0  0  0  0  0  0  0
    6.0594   -4.3686    2.1419 C   0  0  0  0  0  0  0  0  0  0  0  0
    4.7101   -4.0326    2.2507 C   0  0  0  0  0  0  0  0  0  0  0  0
    4.1753   -3.0123    1.4639 C   0  0  0  0  0  0  0  0  0  0  0  0
    1.6296    0.8262    0.3167 C   0  0  1  0  0  0  0  0  0  0  0  0
    0.7032   -0.0525    0.9409 O   0  0  0  0  0  0  0  0  0  0  0  0
    2.5787    1.3085    1.4496 C   0  0  0  0  0  0  0  0  0  0  0  0
    2.8983    2.7482    1.0799 C   0  0  2  0  0  0  0  0  0  0  0  0
    3.6056    3.4793    2.2079 C   0  0  0  0  0  0  0  0  0  0  0  0
    1.5115    3.2727    0.7118 C   0  0  2  0  0  0  0  0  0  0  0  0
    0.7114    3.4266    1.9028 O   0  0  0  0  0  0  0  0  0  0  0  0
    0.5808    4.6738    2.4198 C   0  0  0  0  0  0  0  0  0  0  0  0
   -0.2781    4.6413    3.6428 C   0  0  0  0  0  0  0  0  0  0  0  0
    1.1239    5.6842    1.9980 O   0  0  0  0  0  0  0  0  0  0  0  0
    0.9131    2.1272   -0.1765 C   0  0  2  0  0  0  0  0  0  0  0  0
   -0.6476    2.1975   -0.1567 C   0  0  1  0  0  0  0  0  0  0  0  0
   -0.9493    3.6104   -0.3873 O   0  0  0  0  0  0  0  0  0  0  0  0
   -2.1588    4.0858    0.0183 C   0  0  0  0  0  0  0  0  0  0  0  0
   -2.1988    5.5738   -0.1747 C   0  0  0  0  0  0  0  0  0  0  0  0
   -3.0872    3.4352    0.4666 O   0  0  0  0  0  0  0  0  0  0  0  0
   -1.1498    2.8669   -2.7413 H   0  0  0  0  0  0  0  0  0  0  0  0
   -2.0842    1.3845   -3.2639 H   0  0  0  0  0  0  0  0  0  0  0  0
   -1.0179   -0.5633   -0.5241 H   0  0  0  0  0  0  0  0  0  0  0  0
   -3.6799    0.4380    2.6770 H   0  0  0  0  0  0  0  0  0  0  0  0
   -3.1041   -2.4589    3.4926 H   0  0  0  0  0  0  0  0  0  0  0  0
   -2.2066   -1.0282    4.0324 H   0  0  0  0  0  0  0  0  0  0  0  0
   -3.9060   -1.2384    4.5073 H   0  0  0  0  0  0  0  0  0  0  0  0
   -5.7235   -1.0763    2.7227 H   0  0  0  0  0  0  0  0  0  0  0  0
   -4.8997   -2.1742    1.5969 H   0  0  0  0  0  0  0  0  0  0  0  0
   -5.3186   -0.5414    1.0806 H   0  0  0  0  0  0  0  0  0  0  0  0
   -2.3633   -0.6231   -2.8530 H   0  0  0  0  0  0  0  0  0  0  0  0
   -6.6520   -1.2083   -1.6919 H   0  0  0  0  0  0  0  0  0  0  0  0
   -6.4711    0.4763   -2.2694 H   0  0  0  0  0  0  0  0  0  0  0  0
   -6.9191   -0.8097   -3.4015 H   0  0  0  0  0  0  0  0  0  0  0  0
   -1.5689   -4.9180   -1.1414 H   0  0  0  0  0  0  0  0  0  0  0  0
   -0.6489   -3.7442   -0.2122 H   0  0  0  0  0  0  0  0  0  0  0  0
    0.1201   -4.6060   -1.5614 H   0  0  0  0  0  0  0  0  0  0  0  0
   -2.0645   -2.9601   -4.2342 H   0  0  0  0  0  0  0  0  0  0  0  0
   -0.8762   -4.2513   -3.9708 H   0  0  0  0  0  0  0  0  0  0  0  0
   -2.5283   -4.4066   -3.3364 H   0  0  0  0  0  0  0  0  0  0  0  0
   -0.3057   -1.4654   -3.4610 H   0  0  0  0  0  0  0  0  0  0  0  0
    1.0146   -2.1813   -0.7899 H   0  0  0  0  0  0  0  0  0  0  0  0
    1.1978    0.3149   -2.4792 H   0  0  0  0  0  0  0  0  0  0  0  0
    2.3077   -1.1946   -4.0266 H   0  0  0  0  0  0  0  0  0  0  0  0
    3.5344   -0.1635   -3.2830 H   0  0  0  0  0  0  0  0  0  0  0  0
    3.3404   -1.8530   -2.7597 H   0  0  0  0  0  0  0  0  0  0  0  0
    3.2487    0.7988   -1.1130 H   0  0  0  0  0  0  0  0  0  0  0  0
    6.9971   -2.1228   -0.2326 H   0  0  0  0  0  0  0  0  0  0  0  0
    7.9299   -3.9367    1.1658 H   0  0  0  0  0  0  0  0  0  0  0  0
    6.4746   -5.1650    2.7548 H   0  0  0  0  0  0  0  0  0  0  0  0
    4.0718   -4.5781    2.9410 H   0  0  0  0  0  0  0  0  0  0  0  0
    3.1202   -2.7742    1.5622 H   0  0  0  0  0  0  0  0  0  0  0  0
    1.1562   -0.8909    1.1306 H   0  0  0  0  0  0  0  0  0  0  0  0
    3.4932    0.7158    1.5480 H   0  0  0  0  0  0  0  0  0  0  0  0
    2.0746    1.2471    2.4242 H   0  0  0  0  0  0  0  0  0  0  0  0
    3.5430    2.7703    0.1912 H   0  0  0  0  0  0  0  0  0  0  0  0
    3.7612    4.5297    1.9460 H   0  0  0  0  0  0  0  0  0  0  0  0
    4.5869    3.0262    2.4002 H   0  0  0  0  0  0  0  0  0  0  0  0
    3.0434    3.4428    3.1462 H   0  0  0  0  0  0  0  0  0  0  0  0
    1.5658    4.2064    0.1433 H   0  0  0  0  0  0  0  0  0  0  0  0
   -1.0386    3.8559    3.5533 H   0  0  0  0  0  0  0  0  0  0  0  0
    0.3460    4.4654    4.5226 H   0  0  0  0  0  0  0  0  0  0  0  0
   -0.8025    5.5964    3.7406 H   0  0  0  0  0  0  0  0  0  0  0  0
    1.2590    2.3407   -1.1961 H   0  0  0  0  0  0  0  0  0  0  0  0
   -1.0192    1.9408    0.8404 H   0  0  0  0  0  0  0  0  0  0  0  0
   -1.8846    5.8280   -1.1920 H   0  0  0  0  0  0  0  0  0  0  0  0
   -3.2195    5.9310   -0.0315 H   0  0  0  0  0  0  0  0  0  0  0  0
   -1.5530    6.0535    0.5616 H   0  0  0  0  0  0  0  0  0  0  0  0
  1  2  2  0
  2  3  1  0
  3  4  1  0
  4  5  1  0
  5  6  2  0
  5  7  1  0
  7  8  1  0
  7  9  1  0
  3 10  1  0
 10 11  1  0
 11 12  1  0
 12 13  1  0
 12 14  2  0
 10 15  1  0
 15 16  2  0
 15 17  1  0
 17 18  1  0
 17 19  1  0
 17 20  1  0
 20 21  2  0
 21 22  1  0
 22 23  1  0
 22 24  1  0
 24 25  1  0
 25 26  1  0
 26 27  2  0
 26 28  1  0
 28 29  2  0
 29 30  1  0
 30 31  2  0
 31 32  1  0
 32 33  2  0
 24 34  1  0
 34 35  1  1
 34 36  1  0
 36 37  1  0
 37 38  1  0
 37 39  1  0
 39 40  1  0
 40 41  1  0
 41 42  1  0
 41 43  2  0
 39 44  1  0
 44 45  1  0
 45 46  1  0
 46 47  1  0
 47 48  1  0
 47 49  2  0
 45  2  1  0
 33 28  1  0
 44 34  1  0
  1 50  1  0
  1 51  1  0
  3 52  1  1
  7 53  1  0
  8 54  1  0
  8 55  1  0
  8 56  1  0
  9 57  1  0
  9 58  1  0
  9 59  1  0
 10 60  1  0
 13 61  1  0
 13 62  1  0
 13 63  1  0
 18 64  1  0
 18 65  1  0
 18 66  1  0
 19 67  1  0
 19 68  1  0
 19 69  1  0
 20 70  1  0
 21 71  1  0
 22 72  1  6
 23 73  1  0
 23 74  1  0
 23 75  1  0
 24 76  1  6
 29 77  1  0
 30 78  1  0
 31 79  1  0
 32 80  1  0
 33 81  1  0
 35 82  1  0
 36 83  1  0
 36 84  1  0
 37 85  1  6
 38 86  1  0
 38 87  1  0
 38 88  1  0
 39 89  1  6
 42 90  1  0
 42 91  1  0
 42 92  1  0
 44 93  1  6
 45 94  1  1
 48 95  1  0
 48 96  1  0
 48 97  1  0
M  END
$$$$
