
     RDKit          3D

 32 34  0  0  0  0  0  0  0  0999 V2000
    0.1315    2.2842    1.2853 O   0  0  0  0  0  0  0  0  0  0  0  0
   -0.3237    1.4406    0.5159 C   0  0  0  0  0  0  0  0  0  0  0  0
   -1.8377    1.3280    0.3205 C   0  0  0  0  0  0  0  0  0  0  0  0
   -2.1776    0.3167   -0.6216 O   0  0  0  0  0  0  0  0  0  0  0  0
   -3.4967   -0.0525   -0.6627 C   0  0  0  0  0  0  0  0  0  0  0  0
   -4.5598    0.7199   -0.1899 C   0  0  0  0  0  0  0  0  0  0  0  0
   -5.8696    0.2306   -0.2731 C   0  0  0  0  0  0  0  0  0  0  0  0
   -6.1178   -1.0251   -0.8345 C   0  0  0  0  0  0  0  0  0  0  0  0
   -7.8900   -1.6811   -0.9329 Br  0  0  0  0  0  0  0  0  0  0  0  0
   -5.0717   -1.7904   -1.3323 C   0  0  0  0  0  0  0  0  0  0  0  0
   -3.7730   -1.2945   -1.2471 C   0  0  0  0  0  0  0  0  0  0  0  0
   -2.7698   -2.0361   -1.7341 F   0  0  0  0  0  0  0  0  0  0  0  0
    0.3868    0.5306   -0.2318 N   0  0  0  0  0  0  0  0  0  0  0  0
    1.7436    0.3378   -0.2367 C   0  0  0  0  0  0  0  0  0  0  0  0
    2.3302   -0.5180   -1.0471 N   0  0  0  0  0  0  0  0  0  0  0  0
    3.6981   -0.5671   -0.8518 N   0  0  0  0  0  0  0  0  0  0  0  0
    4.0724    0.2439    0.1127 C   0  0  0  0  0  0  0  0  0  0  0  0
    5.5568    0.3740    0.5717 C   0  0  0  0  0  0  0  0  0  0  0  0
    6.0072   -0.3800    1.7969 C   0  0  0  0  0  0  0  0  0  0  0  0
    6.4788   -0.8087    0.4400 C   0  0  0  0  0  0  0  0  0  0  0  0
    2.8088    1.1519    0.8176 S   0  0  0  0  0  0  0  0  0  0  0  0
   -2.2591    1.0937    1.3040 H   0  0  0  0  0  0  0  0  0  0  0  0
   -2.1935    2.2988   -0.0349 H   0  0  0  0  0  0  0  0  0  0  0  0
   -4.4078    1.7050    0.2436 H   0  0  0  0  0  0  0  0  0  0  0  0
   -6.6892    0.8381    0.1025 H   0  0  0  0  0  0  0  0  0  0  0  0
   -5.2440   -2.7638   -1.7830 H   0  0  0  0  0  0  0  0  0  0  0  0
   -0.1286   -0.0704   -0.8660 H   0  0  0  0  0  0  0  0  0  0  0  0
    5.9883    1.3548    0.4022 H   0  0  0  0  0  0  0  0  0  0  0  0
    6.7181    0.1050    2.4565 H   0  0  0  0  0  0  0  0  0  0  0  0
    5.2940   -1.0165    2.3075 H   0  0  0  0  0  0  0  0  0  0  0  0
    6.0830   -1.7315    0.0270 H   0  0  0  0  0  0  0  0  0  0  0  0
    7.5122   -0.6179    0.1750 H   0  0  0  0  0  0  0  0  0  0  0  0
  1  2  2  0
  2  3  1  0
  3  4  1  0
  4  5  1  0
  5  6  2  0
  6  7  1  0
  7  8  2  0
  8  9  1  0
  8 10  1  0
 10 11  2  0
 11 12  1  0
  2 13  1  0
 13 14  1  0
 14 15  2  0
 15 16  1  0
 16 17  2  0
 17 18  1  0
 18 19  1  0
 19 20  1  0
 17 21  1  0
 11  5  1  0
 21 14  1  0
 20 18  1  0
  3 22  1  0
  3 23  1  0
  6 24  1  0
  7 25  1  0
 10 26  1  0
 13 27  1  0
 18 28  1  0
 19 29  1  0
 19 30  1  0
 20 31  1  0
 20 32  1  0
M  END
$$$$
