
     RDKit          3D

 42 44  0  0  0  0  0  0  0  0999 V2000
    4.9328   -3.6139    0.0889 C   0  0  0  0  0  0  0  0  0  0  0  0
    5.2643   -2.2458   -0.1207 O   0  0  0  0  0  0  0  0  0  0  0  0
    4.2217   -1.3793   -0.3108 C   0  0  0  0  0  0  0  0  0  0  0  0
    4.6034   -0.0591   -0.5772 C   0  0  0  0  0  0  0  0  0  0  0  0
    3.6443    0.9293   -0.8026 C   0  0  0  0  0  0  0  0  0  0  0  0
    3.8960    2.2437   -1.0865 O   0  0  0  0  0  0  0  0  0  0  0  0
    5.2613    2.6351   -1.1657 C   0  0  0  0  0  0  0  0  0  0  0  0
    2.2894    0.5959   -0.7490 C   0  0  0  0  0  0  0  0  0  0  0  0
    1.8959   -0.7170   -0.4635 C   0  0  0  0  0  0  0  0  0  0  0  0
    0.4587   -1.1184   -0.4005 C   0  0  0  0  0  0  0  0  0  0  0  0
    0.1790   -2.2704   -0.7113 O   0  0  0  0  0  0  0  0  0  0  0  0
   -0.3978   -0.1348    0.0516 N   0  0  0  0  0  0  0  0  0  0  0  0
   -1.7807   -0.2007    0.1627 C   0  0  0  0  0  0  0  0  0  0  0  0
   -2.6566   -1.5626   -0.3945 S   0  0  0  0  0  0  0  0  0  0  0  0
   -4.0978   -0.8510    0.0392 C   0  0  0  0  0  0  0  0  0  0  0  0
   -3.9658    0.3889    0.6012 C   0  0  0  0  0  0  0  0  0  0  0  0
   -2.6018    0.7984    0.7006 C   0  0  0  0  0  0  0  0  0  0  0  0
   -2.0506    2.0407    1.2375 C   0  0  0  0  0  0  0  0  0  0  0  0
   -2.8983    2.8332    1.9551 N   0  0  0  0  0  0  0  0  0  0  0  0
   -0.8734    2.3662    1.0995 O   0  0  0  0  0  0  0  0  0  0  0  0
   -5.3043    0.9517    0.9254 C   0  0  0  0  0  0  0  0  0  0  0  0
   -6.2712    0.0057    0.1480 C   0  0  0  0  0  0  0  0  0  0  0  0
   -5.4951   -1.3211   -0.0971 C   0  0  0  0  0  0  0  0  0  0  0  0
    2.8681   -1.7065   -0.2571 C   0  0  0  0  0  0  0  0  0  0  0  0
    4.3637   -3.7434    1.0153 H   0  0  0  0  0  0  0  0  0  0  0  0
    4.3928   -4.0263   -0.7699 H   0  0  0  0  0  0  0  0  0  0  0  0
    5.8685   -4.1717    0.1926 H   0  0  0  0  0  0  0  0  0  0  0  0
    5.6656    0.1619   -0.6104 H   0  0  0  0  0  0  0  0  0  0  0  0
    5.7786    2.1028   -1.9707 H   0  0  0  0  0  0  0  0  0  0  0  0
    5.2893    3.7033   -1.4014 H   0  0  0  0  0  0  0  0  0  0  0  0
    5.7688    2.4926   -0.2059 H   0  0  0  0  0  0  0  0  0  0  0  0
    1.5568    1.3716   -0.9577 H   0  0  0  0  0  0  0  0  0  0  0  0
    0.0004    0.7389    0.3930 H   0  0  0  0  0  0  0  0  0  0  0  0
   -2.4732    3.6159    2.4337 H   0  0  0  0  0  0  0  0  0  0  0  0
   -3.7677    2.4778    2.3196 H   0  0  0  0  0  0  0  0  0  0  0  0
   -5.4223    1.9870    0.5938 H   0  0  0  0  0  0  0  0  0  0  0  0
   -5.4958    0.8874    2.0017 H   0  0  0  0  0  0  0  0  0  0  0  0
   -6.5131    0.4623   -0.8210 H   0  0  0  0  0  0  0  0  0  0  0  0
   -7.2140   -0.1544    0.6801 H   0  0  0  0  0  0  0  0  0  0  0  0
   -5.7356   -2.0565    0.6774 H   0  0  0  0  0  0  0  0  0  0  0  0
   -5.7210   -1.7367   -1.0828 H   0  0  0  0  0  0  0  0  0  0  0  0
    2.5362   -2.7205   -0.0538 H   0  0  0  0  0  0  0  0  0  0  0  0
  1  2  1  0
  2  3  1  0
  3  4  2  0
  4  5  1  0
  5  6  1  0
  6  7  1  0
  5  8  2  0
  8  9  1  0
  9 10  1  0
 10 11  2  0
 10 12  1  0
 12 13  1  0
 13 14  1  0
 14 15  1  0
 15 16  2  0
 16 17  1  0
 17 18  1  0
 18 19  1  0
 18 20  2  0
 16 21  1  0
 21 22  1  0
 22 23  1  0
  9 24  2  0
 24  3  1  0
 17 13  2  0
 23 15  1  0
  1 25  1  0
  1 26  1  0
  1 27  1  0
  4 28  1  0
  7 29  1  0
  7 30  1  0
  7 31  1  0
  8 32  1  0
 12 33  1  0
 19 34  1  0
 19 35  1  0
 21 36  1  0
 21 37  1  0
 22 38  1  0
 22 39  1  0
 23 40  1  0
 23 41  1  0
 24 42  1  0
M  END
$$$$
