
     RDKit          3D

 41 42  0  0  0  0  0  0  0  0999 V2000
    6.8677   -1.2439   -0.6812 C   0  0  0  0  0  0  0  0  0  0  0  0
    5.7005   -0.4376   -0.8393 O   0  0  0  0  0  0  0  0  0  0  0  0
    4.9170   -0.3665    0.2750 C   0  0  0  0  0  0  0  0  0  0  0  0
    5.1641   -0.9401    1.3275 O   0  0  0  0  0  0  0  0  0  0  0  0
    3.7686    0.4873    0.0169 C   0  0  0  0  0  0  0  0  0  0  0  0
    3.5200    1.2556   -1.1107 C   0  0  0  0  0  0  0  0  0  0  0  0
    2.3455    1.9963   -0.8906 C   0  0  0  0  0  0  0  0  0  0  0  0
    1.8563    1.6829    0.3693 C   0  0  0  0  0  0  0  0  0  0  0  0
    0.4342    2.3793    1.2031 S   0  0  0  0  0  6  0  0  0  0  0  0
    0.5417    2.0117    2.5937 O   0  0  0  0  0  0  0  0  0  0  0  0
    0.4122    3.7551    0.7637 O   0  0  0  0  0  0  0  0  0  0  0  0
   -0.9081    1.6388    0.5322 N   0  0  0  0  0  0  0  0  0  0  0  0
   -1.0844    0.2089    0.7766 C   0  0  0  0  0  0  0  0  0  0  0  0
   -2.3676   -0.2867    0.1561 C   0  0  0  0  0  0  0  0  0  0  0  0
   -2.3497   -1.1585   -0.9386 C   0  0  0  0  0  0  0  0  0  0  0  0
   -3.5477   -1.5994   -1.5068 C   0  0  0  0  0  0  0  0  0  0  0  0
   -4.7785   -1.1777   -0.9987 C   0  0  0  0  0  0  0  0  0  0  0  0
   -5.8691   -1.6848   -1.6495 O   0  0  0  0  0  0  0  0  0  0  0  0
   -7.1466   -1.2838   -1.1704 C   0  0  0  0  0  0  0  0  0  0  0  0
   -4.8027   -0.3050    0.0882 C   0  0  0  0  0  0  0  0  0  0  0  0
   -3.6050    0.1381    0.6604 C   0  0  0  0  0  0  0  0  0  0  0  0
    2.6989    0.7038    0.8820 N   0  0  0  0  0  0  0  0  0  0  0  0
    2.5058   -0.0013    2.1359 C   0  0  0  0  0  0  0  0  0  0  0  0
    6.5915   -2.2796   -0.4601 H   0  0  0  0  0  0  0  0  0  0  0  0
    7.4207   -1.2277   -1.6244 H   0  0  0  0  0  0  0  0  0  0  0  0
    7.5121   -0.8370    0.1044 H   0  0  0  0  0  0  0  0  0  0  0  0
    4.1564    1.3078   -1.9867 H   0  0  0  0  0  0  0  0  0  0  0  0
    1.9058    2.7293   -1.5568 H   0  0  0  0  0  0  0  0  0  0  0  0
   -1.0620    1.9333   -0.4312 H   0  0  0  0  0  0  0  0  0  0  0  0
   -0.2410   -0.3448    0.3503 H   0  0  0  0  0  0  0  0  0  0  0  0
   -1.1140    0.0017    1.8520 H   0  0  0  0  0  0  0  0  0  0  0  0
   -1.4092   -1.5044   -1.3611 H   0  0  0  0  0  0  0  0  0  0  0  0
   -3.5233   -2.2786   -2.3559 H   0  0  0  0  0  0  0  0  0  0  0  0
   -7.3012   -1.6108   -0.1368 H   0  0  0  0  0  0  0  0  0  0  0  0
   -7.2830   -0.2017   -1.2682 H   0  0  0  0  0  0  0  0  0  0  0  0
   -7.9045   -1.7720   -1.7907 H   0  0  0  0  0  0  0  0  0  0  0  0
   -5.7334    0.0537    0.5149 H   0  0  0  0  0  0  0  0  0  0  0  0
   -3.6406    0.8265    1.5036 H   0  0  0  0  0  0  0  0  0  0  0  0
    2.9479    0.5938    2.9377 H   0  0  0  0  0  0  0  0  0  0  0  0
    1.4417   -0.1723    2.3006 H   0  0  0  0  0  0  0  0  0  0  0  0
    2.9629   -0.9900    2.0857 H   0  0  0  0  0  0  0  0  0  0  0  0
  1  2  1  0
  2  3  1  0
  3  4  2  0
  3  5  1  0
  5  6  2  0
  6  7  1  0
  7  8  2  0
  8  9  1  0
  9 10  2  0
  9 11  2  0
  9 12  1  0
 12 13  1  0
 13 14  1  0
 14 15  2  0
 15 16  1  0
 16 17  2  0
 17 18  1  0
 18 19  1  0
 17 20  1  0
 20 21  2  0
  8 22  1  0
 22 23  1  0
 22  5  1  0
 21 14  1  0
  1 24  1  0
  1 25  1  0
  1 26  1  0
  6 27  1  0
  7 28  1  0
 12 29  1  0
 13 30  1  0
 13 31  1  0
 15 32  1  0
 16 33  1  0
 19 34  1  0
 19 35  1  0
 19 36  1  0
 20 37  1  0
 21 38  1  0
 23 39  1  0
 23 40  1  0
 23 41  1  0
M  END
$$$$
