
     RDKit          3D

 64 67  0  0  0  0  0  0  0  0999 V2000
    8.0403   -3.3092    0.3550 C   0  0  0  0  0  0  0  0  0  0  0  0
    6.8145   -3.8880    0.7755 O   0  0  0  0  0  0  0  0  0  0  0  0
    5.7689   -3.0374    1.0090 C   0  0  0  0  0  0  0  0  0  0  0  0
    4.5922   -3.6670    1.4168 C   0  0  0  0  0  0  0  0  0  0  0  0
    3.4401   -2.9264    1.6927 C   0  0  0  0  0  0  0  0  0  0  0  0
    3.4554   -1.5390    1.5619 C   0  0  0  0  0  0  0  0  0  0  0  0
    2.3388   -0.7159    1.8256 N   0  0  0  0  0  0  0  0  0  0  0  0
    1.0522   -1.0859    2.1452 C   0  0  0  0  0  0  0  0  0  0  0  0
    0.6440   -2.2398    2.2709 O   0  0  0  0  0  0  0  0  0  0  0  0
    0.1172    0.0695    2.4724 C   0  0  0  0  0  0  0  0  0  0  0  0
    0.4041    1.5901    1.5248 S   0  0  0  0  0  0  0  0  0  0  0  0
    0.0413    1.0275   -0.0650 C   0  0  0  0  0  0  0  0  0  0  0  0
    0.9184    0.5301   -0.9008 N   0  0  0  0  0  0  0  0  0  0  0  0
    0.2485    0.1848   -2.0469 N   0  0  0  0  0  0  0  0  0  0  0  0
   -1.0301    0.4699   -1.8821 C   0  0  0  0  0  0  0  0  0  0  0  0
   -2.1114    0.1998   -2.8753 C   0  0  0  0  0  0  0  0  0  0  0  0
   -2.9705   -0.9766   -2.5080 C   0  0  0  0  0  0  0  0  0  0  0  0
   -4.3320   -1.0164   -2.2534 C   0  0  0  0  0  0  0  0  0  0  0  0
   -4.6824   -2.3500   -1.9461 C   0  0  0  0  0  0  0  0  0  0  0  0
   -3.5338   -3.1016   -2.0339 C   0  0  0  0  0  0  0  0  0  0  0  0
   -2.4994   -2.2695   -2.3832 N   0  0  0  0  0  0  0  0  0  0  0  0
   -1.1345   -2.7221   -2.5797 C   0  0  0  0  0  0  0  0  0  0  0  0
   -1.1981    1.0473   -0.6420 N   0  0  0  0  0  0  0  0  0  0  0  0
   -2.4271    1.5760   -0.0870 C   0  0  0  0  0  0  0  0  0  0  0  0
   -2.6115    3.0573   -0.4153 C   0  0  0  0  0  0  0  0  0  0  0  0
   -3.8869    3.5951    0.1822 C   0  0  0  0  0  0  0  0  0  0  0  0
   -3.8753    4.2053    1.4439 C   0  0  0  0  0  0  0  0  0  0  0  0
   -5.0597    4.6783    2.0098 C   0  0  0  0  0  0  0  0  0  0  0  0
   -6.2650    4.5424    1.3236 C   0  0  0  0  0  0  0  0  0  0  0  0
   -6.2871    3.9355    0.0692 C   0  0  0  0  0  0  0  0  0  0  0  0
   -5.1041    3.4635   -0.5010 C   0  0  0  0  0  0  0  0  0  0  0  0
    4.6449   -0.8943    1.1567 C   0  0  0  0  0  0  0  0  0  0  0  0
    4.5648    0.4783    1.0770 O   0  0  0  0  0  0  0  0  0  0  0  0
    5.7380    1.1782    0.6898 C   0  0  0  0  0  0  0  0  0  0  0  0
    5.7937   -1.6473    0.8775 C   0  0  0  0  0  0  0  0  0  0  0  0
    8.4386   -2.6261    1.1116 H   0  0  0  0  0  0  0  0  0  0  0  0
    8.7642   -4.1198    0.2282 H   0  0  0  0  0  0  0  0  0  0  0  0
    7.9276   -2.8071   -0.6119 H   0  0  0  0  0  0  0  0  0  0  0  0
    4.5684   -4.7498    1.5203 H   0  0  0  0  0  0  0  0  0  0  0  0
    2.5507   -3.4617    2.0058 H   0  0  0  0  0  0  0  0  0  0  0  0
    2.5032    0.2690    1.6270 H   0  0  0  0  0  0  0  0  0  0  0  0
   -0.9145   -0.2587    2.3079 H   0  0  0  0  0  0  0  0  0  0  0  0
    0.2333    0.2996    3.5356 H   0  0  0  0  0  0  0  0  0  0  0  0
   -2.7373    1.0938   -2.9862 H   0  0  0  0  0  0  0  0  0  0  0  0
   -1.6649    0.0205   -3.8615 H   0  0  0  0  0  0  0  0  0  0  0  0
   -5.0063   -0.1686   -2.2842 H   0  0  0  0  0  0  0  0  0  0  0  0
   -5.6661   -2.7247   -1.6922 H   0  0  0  0  0  0  0  0  0  0  0  0
   -3.3698   -4.1603   -1.8785 H   0  0  0  0  0  0  0  0  0  0  0  0
   -0.7084   -2.2129   -3.4457 H   0  0  0  0  0  0  0  0  0  0  0  0
   -1.1374   -3.7994   -2.7683 H   0  0  0  0  0  0  0  0  0  0  0  0
   -0.5715   -2.5083   -1.6702 H   0  0  0  0  0  0  0  0  0  0  0  0
   -2.4224    1.4054    0.9961 H   0  0  0  0  0  0  0  0  0  0  0  0
   -3.2622    0.9852   -0.4746 H   0  0  0  0  0  0  0  0  0  0  0  0
   -1.7579    3.6435   -0.0502 H   0  0  0  0  0  0  0  0  0  0  0  0
   -2.6275    3.2098   -1.5019 H   0  0  0  0  0  0  0  0  0  0  0  0
   -2.9447    4.3207    1.9965 H   0  0  0  0  0  0  0  0  0  0  0  0
   -5.0407    5.1537    2.9871 H   0  0  0  0  0  0  0  0  0  0  0  0
   -7.1889    4.9097    1.7641 H   0  0  0  0  0  0  0  0  0  0  0  0
   -7.2277    3.8321   -0.4657 H   0  0  0  0  0  0  0  0  0  0  0  0
   -5.1448    2.9960   -1.4824 H   0  0  0  0  0  0  0  0  0  0  0  0
    6.0430    0.9117   -0.3262 H   0  0  0  0  0  0  0  0  0  0  0  0
    6.5496    1.0118    1.4052 H   0  0  0  0  0  0  0  0  0  0  0  0
    5.5047    2.2466    0.6952 H   0  0  0  0  0  0  0  0  0  0  0  0
    6.7013   -1.1541    0.5589 H   0  0  0  0  0  0  0  0  0  0  0  0
  1  2  1  0
  2  3  1  0
  3  4  2  0
  4  5  1  0
  5  6  2  0
  6  7  1  0
  7  8  1  0
  8  9  2  0
  8 10  1  0
 10 11  1  0
 11 12  1  0
 12 13  2  0
 13 14  1  0
 14 15  2  0
 15 16  1  0
 16 17  1  0
 17 18  2  0
 18 19  1  0
 19 20  2  0
 20 21  1  0
 21 22  1  0
 15 23  1  0
 23 24  1  0
 24 25  1  0
 25 26  1  0
 26 27  2  0
 27 28  1  0
 28 29  2  0
 29 30  1  0
 30 31  2  0
  6 32  1  0
 32 33  1  0
 33 34  1  0
 32 35  2  0
 35  3  1  0
 23 12  1  0
 31 26  1  0
 21 17  1  0
  1 36  1  0
  1 37  1  0
  1 38  1  0
  4 39  1  0
  5 40  1  0
  7 41  1  0
 10 42  1  0
 10 43  1  0
 16 44  1  0
 16 45  1  0
 18 46  1  0
 19 47  1  0
 20 48  1  0
 22 49  1  0
 22 50  1  0
 22 51  1  0
 24 52  1  0
 24 53  1  0
 25 54  1  0
 25 55  1  0
 27 56  1  0
 28 57  1  0
 29 58  1  0
 30 59  1  0
 31 60  1  0
 34 61  1  0
 34 62  1  0
 34 63  1  0
 35 64  1  0
M  END
$$$$
