
     RDKit          3D

 53 56  0  0  0  0  0  0  0  0999 V2000
   -6.8855   -0.4588   -2.6661 C   0  0  0  0  0  0  0  0  0  0  0  0
   -7.2901   -0.9095   -1.3798 O   0  0  0  0  0  0  0  0  0  0  0  0
   -6.5936   -0.4413   -0.2997 C   0  0  0  0  0  0  0  0  0  0  0  0
   -7.0368   -0.9339    0.9302 C   0  0  0  0  0  0  0  0  0  0  0  0
   -6.4225   -0.5397    2.1170 C   0  0  0  0  0  0  0  0  0  0  0  0
   -5.3538    0.3532    2.0784 C   0  0  0  0  0  0  0  0  0  0  0  0
   -4.8933    0.8540    0.8525 C   0  0  0  0  0  0  0  0  0  0  0  0
   -3.7389    1.8059    0.8724 C   0  0  0  0  0  0  0  0  0  0  0  0
   -3.3371    2.2316    1.9542 O   0  0  0  0  0  0  0  0  0  0  0  0
   -3.1011    2.2046   -0.4608 C   0  0  0  0  0  0  0  0  0  0  0  0
   -1.9508    3.0322   -0.3617 O   0  0  0  0  0  0  0  0  0  0  0  0
   -0.7524    2.4462   -0.0688 C   0  0  0  0  0  0  0  0  0  0  0  0
    0.3376    3.3176   -0.0744 C   0  0  0  0  0  0  0  0  0  0  0  0
    1.6318    2.8582    0.2070 C   0  0  0  0  0  0  0  0  0  0  0  0
    1.8685    1.5104    0.5046 C   0  0  0  0  0  0  0  0  0  0  0  0
    3.2039    0.9509    0.8012 C   0  0  0  0  0  0  0  0  0  0  0  0
    4.3616    1.9169    0.7770 C   0  0  0  0  0  0  0  0  0  0  0  0
    3.3210   -0.3727    1.0589 C   0  0  0  0  0  0  0  0  0  0  0  0
    4.6174   -1.0984    1.3625 C   0  0  0  0  0  0  0  0  0  0  0  0
    5.2398   -1.7494    0.1437 C   0  0  0  0  0  0  0  0  0  0  0  0
    4.9233   -3.0735   -0.1942 C   0  0  0  0  0  0  0  0  0  0  0  0
    5.4809   -3.6736   -1.3247 C   0  0  0  0  0  0  0  0  0  0  0  0
    6.3614   -2.9579   -2.1320 C   0  0  0  0  0  0  0  0  0  0  0  0
    6.6849   -1.6421   -1.8092 C   0  0  0  0  0  0  0  0  0  0  0  0
    6.1272   -1.0404   -0.6789 C   0  0  0  0  0  0  0  0  0  0  0  0
    2.1206   -1.2581    1.1203 C   0  0  0  0  0  0  0  0  0  0  0  0
    2.1934   -2.4377    1.4509 O   0  0  0  0  0  0  0  0  0  0  0  0
    0.8964   -0.7001    0.7998 O   0  0  0  0  0  0  0  0  0  0  0  0
    0.7644    0.6648    0.5068 C   0  0  0  0  0  0  0  0  0  0  0  0
   -0.5352    1.1067    0.2296 C   0  0  0  0  0  0  0  0  0  0  0  0
   -5.5214    0.4549   -0.3383 C   0  0  0  0  0  0  0  0  0  0  0  0
   -5.8561   -0.7615   -2.8842 H   0  0  0  0  0  0  0  0  0  0  0  0
   -7.5365   -0.9327   -3.4070 H   0  0  0  0  0  0  0  0  0  0  0  0
   -7.0074    0.6253   -2.7597 H   0  0  0  0  0  0  0  0  0  0  0  0
   -7.8713   -1.6313    0.9625 H   0  0  0  0  0  0  0  0  0  0  0  0
   -6.7758   -0.9272    3.0693 H   0  0  0  0  0  0  0  0  0  0  0  0
   -4.8801    0.6555    3.0114 H   0  0  0  0  0  0  0  0  0  0  0  0
   -2.8885    1.3211   -1.0736 H   0  0  0  0  0  0  0  0  0  0  0  0
   -3.8466    2.8016   -0.9989 H   0  0  0  0  0  0  0  0  0  0  0  0
    0.1806    4.3710   -0.2972 H   0  0  0  0  0  0  0  0  0  0  0  0
    2.4372    3.5870    0.1853 H   0  0  0  0  0  0  0  0  0  0  0  0
    5.3214    1.4667    1.0329 H   0  0  0  0  0  0  0  0  0  0  0  0
    4.2042    2.7240    1.5013 H   0  0  0  0  0  0  0  0  0  0  0  0
    4.4773    2.3533   -0.2214 H   0  0  0  0  0  0  0  0  0  0  0  0
    5.3539   -0.4317    1.8247 H   0  0  0  0  0  0  0  0  0  0  0  0
    4.4621   -1.8589    2.1398 H   0  0  0  0  0  0  0  0  0  0  0  0
    4.2356   -3.6499    0.4229 H   0  0  0  0  0  0  0  0  0  0  0  0
    5.2248   -4.7001   -1.5734 H   0  0  0  0  0  0  0  0  0  0  0  0
    6.7950   -3.4258   -3.0117 H   0  0  0  0  0  0  0  0  0  0  0  0
    7.3727   -1.0831   -2.4382 H   0  0  0  0  0  0  0  0  0  0  0  0
    6.3980   -0.0144   -0.4468 H   0  0  0  0  0  0  0  0  0  0  0  0
   -1.3388    0.3815    0.2724 H   0  0  0  0  0  0  0  0  0  0  0  0
   -5.1832    0.8460   -1.2893 H   0  0  0  0  0  0  0  0  0  0  0  0
  1  2  1  0
  2  3  1  0
  3  4  2  0
  4  5  1  0
  5  6  2  0
  6  7  1  0
  7  8  1  0
  8  9  2  0
  8 10  1  0
 10 11  1  0
 11 12  1  0
 12 13  2  0
 13 14  1  0
 14 15  2  0
 15 16  1  0
 16 17  1  0
 16 18  2  0
 18 19  1  0
 19 20  1  0
 20 21  2  0
 21 22  1  0
 22 23  2  0
 23 24  1  0
 24 25  2  0
 18 26  1  0
 26 27  2  0
 26 28  1  0
 28 29  1  0
 29 30  2  0
  7 31  2  0
 31  3  1  0
 30 12  1  0
 29 15  1  0
 25 20  1  0
  1 32  1  0
  1 33  1  0
  1 34  1  0
  4 35  1  0
  5 36  1  0
  6 37  1  0
 10 38  1  0
 10 39  1  0
 13 40  1  0
 14 41  1  0
 17 42  1  0
 17 43  1  0
 17 44  1  0
 19 45  1  0
 19 46  1  0
 21 47  1  0
 22 48  1  0
 23 49  1  0
 24 50  1  0
 25 51  1  0
 30 52  1  0
 31 53  1  0
M  END
$$$$
