
     RDKit          3D

 32 34  0  0  0  0  0  0  0  0999 V2000
    0.0003    3.0773   -0.4895 O   0  0  0  0  0  0  0  0  0  0  0  0
   -0.3980    1.9179   -0.5612 C   0  0  0  0  0  0  0  0  0  0  0  0
   -1.8977    1.6158   -0.5476 C   0  0  0  0  0  0  0  0  0  0  0  0
   -2.1492    0.2117   -0.6008 O   0  0  0  0  0  0  0  0  0  0  0  0
   -3.4378   -0.1851   -0.3645 C   0  0  0  0  0  0  0  0  0  0  0  0
   -3.6063   -1.5631   -0.1830 C   0  0  0  0  0  0  0  0  0  0  0  0
   -4.8698   -2.0925    0.0868 C   0  0  0  0  0  0  0  0  0  0  0  0
   -5.9631   -1.2409    0.1672 C   0  0  0  0  0  0  0  0  0  0  0  0
   -7.1746   -1.7446    0.4365 F   0  0  0  0  0  0  0  0  0  0  0  0
   -5.8162    0.1274   -0.0289 C   0  0  0  0  0  0  0  0  0  0  0  0
   -4.5514    0.6581   -0.2986 C   0  0  0  0  0  0  0  0  0  0  0  0
    0.3774    0.7854   -0.6445 N   0  0  0  0  0  0  0  0  0  0  0  0
    1.7416    0.8257   -0.6262 C   0  0  0  0  0  0  0  0  0  0  0  0
    2.5590    1.8468   -0.5462 N   0  0  0  0  0  0  0  0  0  0  0  0
    3.8832    1.4428   -0.5389 N   0  0  0  0  0  0  0  0  0  0  0  0
    3.9890    0.1351   -0.6138 C   0  0  0  0  0  0  0  0  0  0  0  0
    5.3731   -0.5817   -0.6255 C   0  0  0  0  0  0  0  0  0  0  0  0
    5.7817   -1.4347    0.5480 C   0  0  0  0  0  0  0  0  0  0  0  0
    6.4430   -0.1050    0.3263 C   0  0  0  0  0  0  0  0  0  0  0  0
    2.5002   -0.7038   -0.7103 S   0  0  0  0  0  0  0  0  0  0  0  0
   -2.2937    2.0456    0.3805 H   0  0  0  0  0  0  0  0  0  0  0  0
   -2.3378    2.1003   -1.4262 H   0  0  0  0  0  0  0  0  0  0  0  0
   -2.7512   -2.2302   -0.2468 H   0  0  0  0  0  0  0  0  0  0  0  0
   -5.0054   -3.1586    0.2393 H   0  0  0  0  0  0  0  0  0  0  0  0
   -6.6856    0.7743    0.0372 H   0  0  0  0  0  0  0  0  0  0  0  0
   -4.4743    1.7307   -0.4491 H   0  0  0  0  0  0  0  0  0  0  0  0
   -0.0779   -0.1164   -0.7045 H   0  0  0  0  0  0  0  0  0  0  0  0
    5.7003   -0.8896   -1.6125 H   0  0  0  0  0  0  0  0  0  0  0  0
    6.3624   -2.3278    0.3480 H   0  0  0  0  0  0  0  0  0  0  0  0
    5.1056   -1.5268    1.3908 H   0  0  0  0  0  0  0  0  0  0  0  0
    6.2051    0.6988    1.0166 H   0  0  0  0  0  0  0  0  0  0  0  0
    7.4682   -0.0928   -0.0241 H   0  0  0  0  0  0  0  0  0  0  0  0
  1  2  2  0
  2  3  1  0
  3  4  1  0
  4  5  1  0
  5  6  2  0
  6  7  1  0
  7  8  2  0
  8  9  1  0
  8 10  1  0
 10 11  2  0
  2 12  1  0
 12 13  1  0
 13 14  2  0
 14 15  1  0
 15 16  2  0
 16 17  1  0
 17 18  1  0
 18 19  1  0
 16 20  1  0
 11  5  1  0
 20 13  1  0
 19 17  1  0
  3 21  1  0
  3 22  1  0
  6 23  1  0
  7 24  1  0
 10 25  1  0
 11 26  1  0
 12 27  1  0
 17 28  1  0
 18 29  1  0
 18 30  1  0
 19 31  1  0
 19 32  1  0
M  END
$$$$
