
     RDKit          3D

 38 40  0  0  0  0  0  0  0  0999 V2000
    1.9037    0.7735    2.1334 C   0  0  0  0  0  0  0  0  0  0  0  0
    0.6695    0.3006    1.4187 C   0  0  0  0  0  0  0  0  0  0  0  0
   -0.5379    0.9823    1.6244 C   0  0  0  0  0  0  0  0  0  0  0  0
   -1.7105    0.5642    0.9951 C   0  0  0  0  0  0  0  0  0  0  0  0
   -2.8279    1.3026    1.2731 O   0  0  0  0  0  0  0  0  0  0  0  0
   -1.7128   -0.5425    0.1396 C   0  0  0  0  0  0  0  0  0  0  0  0
   -3.1364   -1.0857   -0.7923 S   0  0  0  0  0  0  0  0  0  0  0  0
   -4.2418   -1.5723    0.4585 C   0  0  0  0  0  0  0  0  0  0  0  0
   -4.6754   -0.7064    1.4307 N   0  0  0  0  0  0  0  0  0  0  0  0
   -5.5002   -1.4480    2.1340 C   0  0  0  0  0  0  0  0  0  0  0  0
   -5.5644   -2.6941    1.5942 N   0  0  0  0  0  0  0  0  0  0  0  0
   -4.7741   -2.7950    0.5148 N   0  0  0  0  0  0  0  0  0  0  0  0
   -0.5057   -1.2244   -0.0670 C   0  0  0  0  0  0  0  0  0  0  0  0
    0.6765   -0.8092    0.5588 C   0  0  0  0  0  0  0  0  0  0  0  0
    1.8937   -1.5060    0.3022 N   0  0  0  0  0  0  0  0  0  0  0  0
    2.5307   -1.5648   -1.2597 S   0  0  0  0  0  6  0  0  0  0  0  0
    1.6011   -2.2359   -2.1414 O   0  0  0  0  0  0  0  0  0  0  0  0
    3.8940   -2.0320   -1.1138 O   0  0  0  0  0  0  0  0  0  0  0  0
    2.6045    0.1485   -1.7408 C   0  0  0  0  0  0  0  0  0  0  0  0
    3.7536    0.8956   -1.4593 C   0  0  0  0  0  0  0  0  0  0  0  0
    3.8142    2.2358   -1.8476 C   0  0  0  0  0  0  0  0  0  0  0  0
    2.7369    2.8139   -2.5214 C   0  0  0  0  0  0  0  0  0  0  0  0
    2.8155    4.4666   -2.9909 Cl  0  0  0  0  0  0  0  0  0  0  0  0
    1.6008    2.0616   -2.8214 C   0  0  0  0  0  0  0  0  0  0  0  0
    1.5351    0.7202   -2.4389 C   0  0  0  0  0  0  0  0  0  0  0  0
    1.7177    1.6987    2.6893 H   0  0  0  0  0  0  0  0  0  0  0  0
    2.2362    0.0161    2.8504 H   0  0  0  0  0  0  0  0  0  0  0  0
    2.7084    0.9784    1.4220 H   0  0  0  0  0  0  0  0  0  0  0  0
   -0.5794    1.8477    2.2826 H   0  0  0  0  0  0  0  0  0  0  0  0
   -3.6114    0.7273    1.1420 H   0  0  0  0  0  0  0  0  0  0  0  0
   -6.0614   -1.1483    3.0080 H   0  0  0  0  0  0  0  0  0  0  0  0
   -6.1067   -3.4977    1.8924 H   0  0  0  0  0  0  0  0  0  0  0  0
   -0.4889   -2.0937   -0.7225 H   0  0  0  0  0  0  0  0  0  0  0  0
    2.6219   -1.4914    1.0136 H   0  0  0  0  0  0  0  0  0  0  0  0
    4.6001    0.4460   -0.9444 H   0  0  0  0  0  0  0  0  0  0  0  0
    4.7031    2.8221   -1.6285 H   0  0  0  0  0  0  0  0  0  0  0  0
    0.7665    2.5114   -3.3542 H   0  0  0  0  0  0  0  0  0  0  0  0
    0.6514    0.1341   -2.6838 H   0  0  0  0  0  0  0  0  0  0  0  0
  1  2  1  0
  2  3  2  0
  3  4  1  0
  4  5  1  0
  4  6  2  0
  6  7  1  0
  7  8  1  0
  8  9  1  0
  9 10  2  0
 10 11  1  0
 11 12  1  0
  6 13  1  0
 13 14  2  0
 14 15  1  0
 15 16  1  0
 16 17  2  0
 16 18  2  0
 16 19  1  0
 19 20  2  0
 20 21  1  0
 21 22  2  0
 22 23  1  0
 22 24  1  0
 24 25  2  0
 14  2  1  0
 25 19  1  0
 12  8  2  0
  1 26  1  0
  1 27  1  0
  1 28  1  0
  3 29  1  0
  5 30  1  0
 10 31  1  0
 11 32  1  0
 13 33  1  0
 15 34  1  0
 20 35  1  0
 21 36  1  0
 24 37  1  0
 25 38  1  0
M  END
$$$$
