
     RDKit          3D

 58 61  0  0  0  0  0  0  0  0999 V2000
   -3.9219    3.6785    3.8132 C   0  0  0  0  0  0  0  0  0  0  0  0
   -3.9152    4.2383    2.5060 O   0  0  0  0  0  0  0  0  0  0  0  0
   -3.6967    3.3775    1.4652 C   0  0  0  0  0  0  0  0  0  0  0  0
   -3.7594    3.9660    0.2001 C   0  0  0  0  0  0  0  0  0  0  0  0
   -3.5536    3.2041   -0.9494 C   0  0  0  0  0  0  0  0  0  0  0  0
   -3.2819    1.8415   -0.8390 C   0  0  0  0  0  0  0  0  0  0  0  0
   -3.2131    1.2331    0.4211 C   0  0  0  0  0  0  0  0  0  0  0  0
   -2.9049   -0.1996    0.5333 C   0  0  0  0  0  0  0  0  0  0  0  0
   -4.0863   -1.2333    1.2162 S   0  0  0  0  0  0  0  0  0  0  0  0
   -3.1158   -2.6331    1.0085 C   0  0  0  0  0  0  0  0  0  0  0  0
   -3.4507   -3.9534    1.3659 C   0  0  0  0  0  0  0  0  0  0  0  0
   -2.5316   -4.9818    1.1284 C   0  0  0  0  0  0  0  0  0  0  0  0
   -1.3001   -4.7092    0.5494 C   0  0  0  0  0  0  0  0  0  0  0  0
   -0.3210   -5.6234    0.2712 O   0  0  0  0  0  0  0  0  0  0  0  0
   -0.5897   -6.9789    0.6067 C   0  0  0  0  0  0  0  0  0  0  0  0
   -0.9804   -3.3920    0.1985 C   0  0  0  0  0  0  0  0  0  0  0  0
   -1.8904   -2.3240    0.4185 C   0  0  0  0  0  0  0  0  0  0  0  0
   -1.7784   -0.9076    0.1397 C   0  0  0  0  0  0  0  0  0  0  0  0
   -0.6315   -0.2503   -0.4813 C   0  0  0  0  0  0  0  0  0  0  0  0
    0.1450    0.6624    0.2404 C   0  0  0  0  0  0  0  0  0  0  0  0
    1.2415    1.2928   -0.3602 C   0  0  0  0  0  0  0  0  0  0  0  0
    1.5732    1.0123   -1.6854 C   0  0  0  0  0  0  0  0  0  0  0  0
    2.6129    1.5452   -2.3932 O   0  0  0  0  0  0  0  0  0  0  0  0
    3.4332    2.5416   -1.7769 C   0  0  0  0  0  0  0  0  0  0  0  0
    4.5511    1.9293   -0.9083 C   0  0  0  0  0  0  0  0  0  0  0  0
    5.7695    1.5358   -1.6513 N   0  0  0  0  0  0  0  0  0  0  0  0
    5.4958    0.4684   -2.6171 C   0  0  0  0  0  0  0  0  0  0  0  0
    6.8060    1.0985   -0.7123 C   0  0  0  0  0  0  0  0  0  0  0  0
    0.8010    0.0931   -2.4011 C   0  0  0  0  0  0  0  0  0  0  0  0
   -0.2953   -0.5366   -1.8071 C   0  0  0  0  0  0  0  0  0  0  0  0
   -3.4209    2.0126    1.5723 C   0  0  0  0  0  0  0  0  0  0  0  0
   -4.7087    2.9238    3.9169 H   0  0  0  0  0  0  0  0  0  0  0  0
   -4.1388    4.4845    4.5208 H   0  0  0  0  0  0  0  0  0  0  0  0
   -2.9406    3.2658    4.0697 H   0  0  0  0  0  0  0  0  0  0  0  0
   -3.9711    5.0288    0.1108 H   0  0  0  0  0  0  0  0  0  0  0  0
   -3.6037    3.6722   -1.9288 H   0  0  0  0  0  0  0  0  0  0  0  0
   -3.1228    1.2567   -1.7422 H   0  0  0  0  0  0  0  0  0  0  0  0
   -4.4121   -4.1739    1.8221 H   0  0  0  0  0  0  0  0  0  0  0  0
   -2.8184   -5.9886    1.4145 H   0  0  0  0  0  0  0  0  0  0  0  0
   -0.7362   -7.0969    1.6855 H   0  0  0  0  0  0  0  0  0  0  0  0
   -1.4490   -7.3614    0.0460 H   0  0  0  0  0  0  0  0  0  0  0  0
    0.2842   -7.5731    0.3227 H   0  0  0  0  0  0  0  0  0  0  0  0
   -0.0105   -3.1869   -0.2498 H   0  0  0  0  0  0  0  0  0  0  0  0
   -0.0973    0.8921    1.2756 H   0  0  0  0  0  0  0  0  0  0  0  0
    1.8114    1.9915    0.2418 H   0  0  0  0  0  0  0  0  0  0  0  0
    3.8793    3.1347   -2.5846 H   0  0  0  0  0  0  0  0  0  0  0  0
    2.8269    3.2528   -1.2034 H   0  0  0  0  0  0  0  0  0  0  0  0
    4.8428    2.7052   -0.1890 H   0  0  0  0  0  0  0  0  0  0  0  0
    4.1697    1.0758   -0.3348 H   0  0  0  0  0  0  0  0  0  0  0  0
    5.0373   -0.4088   -2.1467 H   0  0  0  0  0  0  0  0  0  0  0  0
    6.4222    0.1473   -3.1075 H   0  0  0  0  0  0  0  0  0  0  0  0
    4.8421    0.8213   -3.4204 H   0  0  0  0  0  0  0  0  0  0  0  0
    6.4972    0.2196   -0.1346 H   0  0  0  0  0  0  0  0  0  0  0  0
    7.7311    0.8534   -1.2461 H   0  0  0  0  0  0  0  0  0  0  0  0
    7.0557    1.9029   -0.0113 H   0  0  0  0  0  0  0  0  0  0  0  0
    1.0551   -0.1332   -3.4340 H   0  0  0  0  0  0  0  0  0  0  0  0
   -0.8829   -1.2440   -2.3875 H   0  0  0  0  0  0  0  0  0  0  0  0
   -3.3530    1.5306    2.5421 H   0  0  0  0  0  0  0  0  0  0  0  0
  1  2  1  0
  2  3  1  0
  3  4  2  0
  4  5  1  0
  5  6  2  0
  6  7  1  0
  7  8  1  0
  8  9  1  0
  9 10  1  0
 10 11  2  0
 11 12  1  0
 12 13  2  0
 13 14  1  0
 14 15  1  0
 13 16  1  0
 16 17  2  0
 17 18  1  0
 18 19  1  0
 19 20  2  0
 20 21  1  0
 21 22  2  0
 22 23  1  0
 23 24  1  0
 24 25  1  0
 25 26  1  0
 26 27  1  0
 26 28  1  0
 22 29  1  0
 29 30  2  0
  7 31  2  0
 31  3  1  0
 18  8  2  0
 30 19  1  0
 17 10  1  0
  1 32  1  0
  1 33  1  0
  1 34  1  0
  4 35  1  0
  5 36  1  0
  6 37  1  0
 11 38  1  0
 12 39  1  0
 15 40  1  0
 15 41  1  0
 15 42  1  0
 16 43  1  0
 20 44  1  0
 21 45  1  0
 24 46  1  0
 24 47  1  0
 25 48  1  0
 25 49  1  0
 27 50  1  0
 27 51  1  0
 27 52  1  0
 28 53  1  0
 28 54  1  0
 28 55  1  0
 29 56  1  0
 30 57  1  0
 31 58  1  0
M  END
$$$$
