
     RDKit          3D

 64 69  0  0  0  0  0  0  0  0999 V2000
   -9.3969    1.9641    0.6793 C   0  0  0  0  0  0  0  0  0  0  0  0
   -8.2533    2.7823    0.4683 O   0  0  0  0  0  0  0  0  0  0  0  0
   -7.0396    2.1549    0.4536 C   0  0  0  0  0  0  0  0  0  0  0  0
   -5.9519    2.9901    0.1997 C   0  0  0  0  0  0  0  0  0  0  0  0
   -4.6503    2.4804    0.1589 C   0  0  0  0  0  0  0  0  0  0  0  0
   -4.4164    1.1180    0.3807 C   0  0  0  0  0  0  0  0  0  0  0  0
   -3.0834    0.5888    0.3414 N   0  0  0  0  0  0  0  0  0  0  0  0
   -1.8950    1.2604    0.6703 C   0  0  0  0  0  0  0  0  0  0  0  0
   -1.8604    2.5066    1.2170 N   0  0  0  0  0  0  0  0  0  0  0  0
   -0.8093    0.4361    0.3967 C   0  0  0  0  0  0  0  0  0  0  0  0
    0.5976    0.7854    0.6048 C   0  0  0  0  0  0  0  0  0  0  0  0
    0.9110    1.8029    1.2126 O   0  0  0  0  0  0  0  0  0  0  0  0
    1.4822   -0.1696    0.1424 N   0  0  0  0  0  0  0  0  0  0  0  0
    2.8483   -0.0911    0.1157 C   0  0  0  0  0  0  0  0  0  0  0  0
    3.7091   -1.1194   -0.0084 C   0  0  0  0  0  0  0  0  0  0  0  0
    3.3690   -2.5713   -0.1294 C   0  0  0  0  0  0  0  0  0  0  0  0
    5.0546   -0.7246    0.0409 N   0  0  0  0  0  0  0  0  0  0  0  0
    5.9182   -1.3521    1.0592 C   0  0  0  0  0  0  0  0  0  0  0  0
    5.0358    0.6990    0.1203 N   0  0  0  0  0  0  0  0  0  0  0  0
    6.1424    1.4738   -0.3236 C   0  0  0  0  0  0  0  0  0  0  0  0
    6.1764    2.8599   -0.1163 C   0  0  0  0  0  0  0  0  0  0  0  0
    7.2670    3.6269   -0.5400 C   0  0  0  0  0  0  0  0  0  0  0  0
    8.3418    3.0193   -1.1813 C   0  0  0  0  0  0  0  0  0  0  0  0
    8.3244    1.6458   -1.4029 C   0  0  0  0  0  0  0  0  0  0  0  0
    7.2334    0.8806   -0.9777 C   0  0  0  0  0  0  0  0  0  0  0  0
    3.7004    1.1475    0.1513 C   0  0  0  0  0  0  0  0  0  0  0  0
    3.2835    2.2922    0.0817 O   0  0  0  0  0  0  0  0  0  0  0  0
   -1.3477   -0.7888   -0.0571 C   0  0  0  0  0  0  0  0  0  0  0  0
   -0.6946   -1.9234   -0.4339 N   0  0  0  0  0  0  0  0  0  0  0  0
   -1.5005   -2.9257   -0.8224 C   0  0  0  0  0  0  0  0  0  0  0  0
   -0.9197   -4.1185   -1.2339 C   0  0  0  0  0  0  0  0  0  0  0  0
   -1.6931   -5.2024   -1.6514 C   0  0  0  0  0  0  0  0  0  0  0  0
   -3.0761   -5.0930   -1.6580 C   0  0  0  0  0  0  0  0  0  0  0  0
   -3.6723   -3.9011   -1.2474 C   0  0  0  0  0  0  0  0  0  0  0  0
   -2.9142   -2.8151   -0.8297 C   0  0  0  0  0  0  0  0  0  0  0  0
   -3.5564   -1.7020   -0.4491 N   0  0  0  0  0  0  0  0  0  0  0  0
   -2.7329   -0.6997   -0.0581 C   0  0  0  0  0  0  0  0  0  0  0  0
   -5.5125    0.2791    0.6204 C   0  0  0  0  0  0  0  0  0  0  0  0
   -6.8145    0.7964    0.6621 C   0  0  0  0  0  0  0  0  0  0  0  0
   -9.3683    1.4946    1.6680 H   0  0  0  0  0  0  0  0  0  0  0  0
  -10.2818    2.6076    0.6413 H   0  0  0  0  0  0  0  0  0  0  0  0
   -9.4979    1.2143   -0.1125 H   0  0  0  0  0  0  0  0  0  0  0  0
   -6.1184    4.0488    0.0174 H   0  0  0  0  0  0  0  0  0  0  0  0
   -3.8449    3.1646   -0.0972 H   0  0  0  0  0  0  0  0  0  0  0  0
   -2.6129    2.8211    1.8267 H   0  0  0  0  0  0  0  0  0  0  0  0
   -0.9462    2.8384    1.5517 H   0  0  0  0  0  0  0  0  0  0  0  0
    1.0645   -1.0567   -0.1241 H   0  0  0  0  0  0  0  0  0  0  0  0
    3.5959   -3.0984    0.8027 H   0  0  0  0  0  0  0  0  0  0  0  0
    2.3141   -2.7400   -0.3596 H   0  0  0  0  0  0  0  0  0  0  0  0
    3.9525   -3.0296   -0.9357 H   0  0  0  0  0  0  0  0  0  0  0  0
    5.5021   -1.2114    2.0637 H   0  0  0  0  0  0  0  0  0  0  0  0
    6.9301   -0.9382    1.0514 H   0  0  0  0  0  0  0  0  0  0  0  0
    6.0103   -2.4268    0.8658 H   0  0  0  0  0  0  0  0  0  0  0  0
    5.3624    3.3689    0.3948 H   0  0  0  0  0  0  0  0  0  0  0  0
    7.2705    4.7000   -0.3669 H   0  0  0  0  0  0  0  0  0  0  0  0
    9.1865    3.6168   -1.5138 H   0  0  0  0  0  0  0  0  0  0  0  0
    9.1540    1.1675   -1.9162 H   0  0  0  0  0  0  0  0  0  0  0  0
    7.2360   -0.1830   -1.1987 H   0  0  0  0  0  0  0  0  0  0  0  0
    0.1638   -4.2084   -1.2332 H   0  0  0  0  0  0  0  0  0  0  0  0
   -1.2139   -6.1237   -1.9711 H   0  0  0  0  0  0  0  0  0  0  0  0
   -3.6930   -5.9275   -1.9819 H   0  0  0  0  0  0  0  0  0  0  0  0
   -4.7567   -3.8153   -1.2551 H   0  0  0  0  0  0  0  0  0  0  0  0
   -5.3863   -0.7828    0.8136 H   0  0  0  0  0  0  0  0  0  0  0  0
   -7.6266    0.1064    0.8641 H   0  0  0  0  0  0  0  0  0  0  0  0
  1  2  1  0
  2  3  1  0
  3  4  2  0
  4  5  1  0
  5  6  2  0
  6  7  1  0
  7  8  1  0
  8  9  1  0
  8 10  2  0
 10 11  1  0
 11 12  2  0
 11 13  1  0
 13 14  1  0
 14 15  2  0
 15 16  1  0
 15 17  1  0
 17 18  1  0
 17 19  1  0
 19 20  1  0
 20 21  2  0
 21 22  1  0
 22 23  2  0
 23 24  1  0
 24 25  2  0
 19 26  1  0
 26 27  2  0
 10 28  1  0
 28 29  2  0
 29 30  1  0
 30 31  2  0
 31 32  1  0
 32 33  2  0
 33 34  1  0
 34 35  2  0
 35 36  1  0
 36 37  2  0
  6 38  1  0
 38 39  2  0
 39  3  1  0
 37  7  1  0
 26 14  1  0
 37 28  1  0
 25 20  1  0
 35 30  1  0
  1 40  1  0
  1 41  1  0
  1 42  1  0
  4 43  1  0
  5 44  1  0
  9 45  1  0
  9 46  1  0
 13 47  1  0
 16 48  1  0
 16 49  1  0
 16 50  1  0
 18 51  1  0
 18 52  1  0
 18 53  1  0
 21 54  1  0
 22 55  1  0
 23 56  1  0
 24 57  1  0
 25 58  1  0
 31 59  1  0
 32 60  1  0
 33 61  1  0
 34 62  1  0
 38 63  1  0
 39 64  1  0
M  END
$$$$
