
     RDKit          3D

 37 39  0  0  0  0  0  0  0  0999 V2000
   -6.6857   -0.3228   -2.2657 C   0  0  0  0  0  0  0  0  0  0  0  0
   -6.7060    0.3405   -0.8974 C   0  0  0  0  0  0  0  0  0  0  0  0
   -5.3848    0.2247   -0.2127 C   0  0  0  0  0  0  0  0  0  0  0  0
   -5.0069   -0.8059    0.5155 N   0  0  0  0  0  0  0  0  0  0  0  0
   -3.7325   -0.6423    1.0300 N   0  0  0  0  0  0  0  0  0  0  0  0
   -3.2065    0.5010    0.6699 C   0  0  0  0  0  0  0  0  0  0  0  0
   -1.9859    1.0511    0.9520 N   0  0  0  0  0  0  0  0  0  0  0  0
   -1.0538    0.4012    1.7412 C   0  0  0  0  0  0  0  0  0  0  0  0
   -1.2007   -0.6927    2.2765 O   0  0  0  0  0  0  0  0  0  0  0  0
    0.2352    1.2267    1.8906 C   0  0  0  0  0  0  0  0  0  0  0  0
    1.3206    0.5620    2.5311 O   0  0  0  0  0  0  0  0  0  0  0  0
    2.1805    0.0222    1.6131 C   0  0  0  0  0  0  0  0  0  0  0  0
    1.8766   -1.1707    0.9658 C   0  0  0  0  0  0  0  0  0  0  0  0
    2.7809   -1.7039    0.0451 C   0  0  0  0  0  0  0  0  0  0  0  0
    4.0017   -1.0585   -0.2198 C   0  0  0  0  0  0  0  0  0  0  0  0
    4.9206   -1.5809   -1.1448 C   0  0  0  0  0  0  0  0  0  0  0  0
    6.1330   -0.9319   -1.3919 C   0  0  0  0  0  0  0  0  0  0  0  0
    6.4432    0.2447   -0.7162 C   0  0  0  0  0  0  0  0  0  0  0  0
    5.5409    0.7775    0.2073 C   0  0  0  0  0  0  0  0  0  0  0  0
    4.3163    0.1395    0.4653 C   0  0  0  0  0  0  0  0  0  0  0  0
    3.3980    0.6643    1.3886 C   0  0  0  0  0  0  0  0  0  0  0  0
   -4.2047    1.4730   -0.3205 S   0  0  0  0  0  0  0  0  0  0  0  0
   -5.9503    0.1489   -2.9262 H   0  0  0  0  0  0  0  0  0  0  0  0
   -6.4316   -1.3850   -2.1867 H   0  0  0  0  0  0  0  0  0  0  0  0
   -7.6685   -0.2420   -2.7407 H   0  0  0  0  0  0  0  0  0  0  0  0
   -7.0018    1.3906   -1.0020 H   0  0  0  0  0  0  0  0  0  0  0  0
   -7.4708   -0.1389   -0.2748 H   0  0  0  0  0  0  0  0  0  0  0  0
   -1.7945    1.9563    0.5506 H   0  0  0  0  0  0  0  0  0  0  0  0
    0.5243    1.6300    0.9076 H   0  0  0  0  0  0  0  0  0  0  0  0
   -0.0174    2.0888    2.5226 H   0  0  0  0  0  0  0  0  0  0  0  0
    0.9502   -1.6993    1.1817 H   0  0  0  0  0  0  0  0  0  0  0  0
    2.5282   -2.6359   -0.4581 H   0  0  0  0  0  0  0  0  0  0  0  0
    4.6985   -2.5020   -1.6800 H   0  0  0  0  0  0  0  0  0  0  0  0
    6.8366   -1.3482   -2.1098 H   0  0  0  0  0  0  0  0  0  0  0  0
    7.3894    0.7470   -0.9043 H   0  0  0  0  0  0  0  0  0  0  0  0
    5.8026    1.6960    0.7276 H   0  0  0  0  0  0  0  0  0  0  0  0
    3.6252    1.5748    1.9364 H   0  0  0  0  0  0  0  0  0  0  0  0
  1  2  1  0
  2  3  1  0
  3  4  2  0
  4  5  1  0
  5  6  2  0
  6  7  1  0
  7  8  1  0
  8  9  2  0
  8 10  1  0
 10 11  1  0
 11 12  1  0
 12 13  2  0
 13 14  1  0
 14 15  2  0
 15 16  1  0
 16 17  2  0
 17 18  1  0
 18 19  2  0
 19 20  1  0
 20 21  2  0
  6 22  1  0
 22  3  1  0
 21 12  1  0
 20 15  1  0
  1 23  1  0
  1 24  1  0
  1 25  1  0
  2 26  1  0
  2 27  1  0
  7 28  1  0
 10 29  1  0
 10 30  1  0
 13 31  1  0
 14 32  1  0
 16 33  1  0
 17 34  1  0
 18 35  1  0
 19 36  1  0
 21 37  1  0
M  END
$$$$
