
     RDKit          3D

 51 54  0  0  0  0  0  0  0  0999 V2000
    6.1689    1.7155   -2.8683 C   0  0  0  0  0  0  0  0  0  0  0  0
    5.2248    0.5242   -2.8668 C   0  0  0  0  0  0  0  0  0  0  0  0
    3.9435    0.8172   -2.1344 C   0  0  0  0  0  0  0  0  0  0  0  0
    2.9303    1.5505   -2.7497 C   0  0  0  0  0  0  0  0  0  0  0  0
    1.7376    1.8239   -2.0697 C   0  0  0  0  0  0  0  0  0  0  0  0
    1.5167    1.3786   -0.7544 C   0  0  0  0  0  0  0  0  0  0  0  0
    0.2598    1.6556   -0.0797 N   0  0  0  0  0  0  0  0  0  0  0  0
   -0.3678    2.8808   -0.3413 C   0  0  0  0  0  0  0  0  0  0  0  0
    0.1417    3.8361   -0.9281 O   0  0  0  0  0  0  0  0  0  0  0  0
   -1.7343    3.0674    0.1678 C   0  0  0  0  0  0  0  0  0  0  0  0
   -2.4718    4.1984   -0.2283 C   0  0  0  0  0  0  0  0  0  0  0  0
   -3.7687    4.3896    0.2370 C   0  0  0  0  0  0  0  0  0  0  0  0
   -4.3289    3.4505    1.0932 C   0  0  0  0  0  0  0  0  0  0  0  0
   -3.5880    2.3298    1.4899 C   0  0  0  0  0  0  0  0  0  0  0  0
   -2.2737    2.1284    1.0381 C   0  0  0  0  0  0  0  0  0  0  0  0
   -1.4836    1.0189    1.4277 N   0  0  0  0  0  0  0  0  0  0  0  0
   -1.9864    0.0353    2.3882 C   0  0  0  0  0  0  0  0  0  0  0  0
   -2.6918   -1.1032    1.6474 C   0  0  0  0  0  0  0  0  0  0  0  0
   -3.7736   -0.9533    1.0829 O   0  0  0  0  0  0  0  0  0  0  0  0
   -1.9885   -2.2830    1.6252 N   0  0  0  0  0  0  0  0  0  0  0  0
   -2.4395   -3.3919    0.8161 C   0  0  0  0  0  0  0  0  0  0  0  0
   -1.8448   -4.6399    1.3503 C   0  0  0  0  0  0  0  0  0  0  0  0
   -2.3901   -5.7747    1.9166 C   0  0  0  0  0  0  0  0  0  0  0  0
   -1.3012   -6.6138    2.2613 C   0  0  0  0  0  0  0  0  0  0  0  0
   -0.1629   -5.9465    1.8685 C   0  0  0  0  0  0  0  0  0  0  0  0
   -0.4816   -4.7463    1.3129 O   0  0  0  0  0  0  0  0  0  0  0  0
   -0.2540    0.7221    0.8320 C   0  0  0  0  0  0  0  0  0  0  0  0
    0.2892   -0.3558    1.1082 O   0  0  0  0  0  0  0  0  0  0  0  0
    2.5488    0.6499   -0.1475 C   0  0  0  0  0  0  0  0  0  0  0  0
    3.7454    0.3764   -0.8238 C   0  0  0  0  0  0  0  0  0  0  0  0
    6.4429    2.0052   -1.8476 H   0  0  0  0  0  0  0  0  0  0  0  0
    7.0869    1.4653   -3.4076 H   0  0  0  0  0  0  0  0  0  0  0  0
    5.7135    2.5852   -3.3569 H   0  0  0  0  0  0  0  0  0  0  0  0
    5.7286   -0.3369   -2.4120 H   0  0  0  0  0  0  0  0  0  0  0  0
    4.9905    0.2318   -3.8975 H   0  0  0  0  0  0  0  0  0  0  0  0
    3.0545    1.9131   -3.7683 H   0  0  0  0  0  0  0  0  0  0  0  0
    0.9739    2.3752   -2.6107 H   0  0  0  0  0  0  0  0  0  0  0  0
   -2.0349    4.9314   -0.9049 H   0  0  0  0  0  0  0  0  0  0  0  0
   -4.3416    5.2606   -0.0736 H   0  0  0  0  0  0  0  0  0  0  0  0
   -5.3484    3.5799    1.4502 H   0  0  0  0  0  0  0  0  0  0  0  0
   -4.0934    1.6167    2.1353 H   0  0  0  0  0  0  0  0  0  0  0  0
   -2.6665    0.4801    3.1220 H   0  0  0  0  0  0  0  0  0  0  0  0
   -1.1523   -0.3632    2.9820 H   0  0  0  0  0  0  0  0  0  0  0  0
   -0.9814   -2.2016    1.7228 H   0  0  0  0  0  0  0  0  0  0  0  0
   -2.1174   -3.2140   -0.2136 H   0  0  0  0  0  0  0  0  0  0  0  0
   -3.5343   -3.4473    0.8337 H   0  0  0  0  0  0  0  0  0  0  0  0
   -3.4410   -5.9705    2.0702 H   0  0  0  0  0  0  0  0  0  0  0  0
   -1.3360   -7.5875    2.7267 H   0  0  0  0  0  0  0  0  0  0  0  0
    0.8947   -6.1780    1.9131 H   0  0  0  0  0  0  0  0  0  0  0  0
    2.4671    0.3009    0.8792 H   0  0  0  0  0  0  0  0  0  0  0  0
    4.5194   -0.1871   -0.3116 H   0  0  0  0  0  0  0  0  0  0  0  0
  1  2  1  0
  2  3  1  0
  3  4  2  0
  4  5  1  0
  5  6  2  0
  6  7  1  0
  7  8  1  0
  8  9  2  0
  8 10  1  0
 10 11  2  0
 11 12  1  0
 12 13  2  0
 13 14  1  0
 14 15  2  0
 15 16  1  0
 16 17  1  0
 17 18  1  0
 18 19  2  0
 18 20  1  0
 20 21  1  0
 21 22  1  0
 22 23  2  0
 23 24  1  0
 24 25  2  0
 25 26  1  0
 16 27  1  0
 27 28  2  0
  6 29  1  0
 29 30  2  0
 30  3  1  0
 27  7  1  0
 15 10  1  0
 26 22  1  0
  1 31  1  0
  1 32  1  0
  1 33  1  0
  2 34  1  0
  2 35  1  0
  4 36  1  0
  5 37  1  0
 11 38  1  0
 12 39  1  0
 13 40  1  0
 14 41  1  0
 17 42  1  0
 17 43  1  0
 20 44  1  0
 21 45  1  0
 21 46  1  0
 23 47  1  0
 24 48  1  0
 25 49  1  0
 29 50  1  0
 30 51  1  0
M  END
$$$$
