
     RDKit          3D

 65 68  0  0  0  0  0  0  0  0999 V2000
    7.5034   -3.0240    3.7303 C   0  0  0  0  0  0  0  0  0  0  0  0
    6.8066   -1.7854    3.3479 C   0  0  0  0  0  0  0  0  0  0  0  0
    5.4919   -1.3945    3.3111 C   0  0  0  0  0  0  0  0  0  0  0  0
    5.5289   -0.0663    2.8354 C   0  0  0  0  0  0  0  0  0  0  0  0
    4.4953    0.8125    2.6017 N   0  0  0  0  0  0  0  0  0  0  0  0
    3.1608    0.5378    2.7802 C   0  0  0  0  0  0  0  0  0  0  0  0
    2.6911   -0.5091    3.2197 O   0  0  0  0  0  0  0  0  0  0  0  0
    2.2632    1.7143    2.4351 C   0  0  0  0  0  0  0  0  0  0  0  0
    1.0522    1.2536    1.6283 C   0  0  0  0  0  0  0  0  0  0  0  0
    1.4506    0.8530    0.2156 C   0  0  0  0  0  0  0  0  0  0  0  0
    2.6146    1.0114   -0.1589 O   0  0  0  0  0  0  0  0  0  0  0  0
    0.4639    0.3108   -0.6050 N   0  0  0  0  0  0  0  0  0  0  0  0
    0.8622   -0.0498   -1.9704 C   0  0  0  0  0  0  0  0  0  0  0  0
    1.1028   -1.5308   -2.0998 C   0  0  0  0  0  0  0  0  0  0  0  0
    0.4609   -2.4235   -2.9386 C   0  0  0  0  0  0  0  0  0  0  0  0
    0.9538   -3.7526   -2.8104 C   0  0  0  0  0  0  0  0  0  0  0  0
    1.9782   -3.8333   -1.8953 C   0  0  0  0  0  0  0  0  0  0  0  0
    2.3316   -2.3171   -1.1938 S   0  0  0  0  0  0  0  0  0  0  0  0
   -0.9789    0.4189   -0.2992 C   0  0  0  0  0  0  0  0  0  0  0  0
   -1.5571    1.7612   -0.8378 C   0  0  0  0  0  0  0  0  0  0  0  0
   -0.9789    2.4674   -1.6621 O   0  0  0  0  0  0  0  0  0  0  0  0
   -2.7885    2.1084   -0.3006 N   0  0  0  0  0  0  0  0  0  0  0  0
   -3.5028    3.2893   -0.7658 C   0  0  0  0  0  0  0  0  0  0  0  0
   -4.2696    3.0162   -2.0617 C   0  0  0  0  0  0  0  0  0  0  0  0
   -5.6633    2.5484   -1.6358 C   0  0  0  0  0  0  0  0  0  0  0  0
   -5.7586    2.7729   -0.1300 C   0  0  0  0  0  0  0  0  0  0  0  0
   -4.5991    3.6994    0.2112 C   0  0  0  0  0  0  0  0  0  0  0  0
   -1.7928   -0.8057   -0.7009 C   0  0  0  0  0  0  0  0  0  0  0  0
   -2.6013   -0.8391   -1.8499 C   0  0  0  0  0  0  0  0  0  0  0  0
   -3.3392   -1.9817   -2.1692 C   0  0  0  0  0  0  0  0  0  0  0  0
   -3.2706   -3.1089   -1.3527 C   0  0  0  0  0  0  0  0  0  0  0  0
   -2.4594   -3.0989   -0.2209 C   0  0  0  0  0  0  0  0  0  0  0  0
   -1.7230   -1.9574    0.1021 C   0  0  0  0  0  0  0  0  0  0  0  0
    6.7882    0.3206    2.5995 N   0  0  0  0  0  0  0  0  0  0  0  0
    7.5876   -0.7570    2.9274 O   0  0  0  0  0  0  0  0  0  0  0  0
    6.7906   -3.8160    3.9780 H   0  0  0  0  0  0  0  0  0  0  0  0
    8.1384   -2.8514    4.6045 H   0  0  0  0  0  0  0  0  0  0  0  0
    8.1350   -3.3779    2.9107 H   0  0  0  0  0  0  0  0  0  0  0  0
    4.6319   -1.9871    3.5832 H   0  0  0  0  0  0  0  0  0  0  0  0
    4.7906    1.6855    2.1867 H   0  0  0  0  0  0  0  0  0  0  0  0
    2.8168    2.4921    1.8982 H   0  0  0  0  0  0  0  0  0  0  0  0
    1.9309    2.1495    3.3846 H   0  0  0  0  0  0  0  0  0  0  0  0
    0.3424    2.0845    1.5623 H   0  0  0  0  0  0  0  0  0  0  0  0
    0.5688    0.4048    2.1227 H   0  0  0  0  0  0  0  0  0  0  0  0
    1.7727    0.4842   -2.2656 H   0  0  0  0  0  0  0  0  0  0  0  0
    0.0851    0.2722   -2.6709 H   0  0  0  0  0  0  0  0  0  0  0  0
   -0.3408   -2.1374   -3.6087 H   0  0  0  0  0  0  0  0  0  0  0  0
    0.5810   -4.6037   -3.3662 H   0  0  0  0  0  0  0  0  0  0  0  0
    2.5427   -4.7089   -1.6053 H   0  0  0  0  0  0  0  0  0  0  0  0
   -1.1003    0.5010    0.7869 H   0  0  0  0  0  0  0  0  0  0  0  0
   -3.3207    1.3793    0.1615 H   0  0  0  0  0  0  0  0  0  0  0  0
   -2.7743    4.0963   -0.9060 H   0  0  0  0  0  0  0  0  0  0  0  0
   -4.3692    3.9492   -2.6317 H   0  0  0  0  0  0  0  0  0  0  0  0
   -3.7805    2.2853   -2.7142 H   0  0  0  0  0  0  0  0  0  0  0  0
   -5.8270    1.4917   -1.8776 H   0  0  0  0  0  0  0  0  0  0  0  0
   -6.4303    3.1269   -2.1630 H   0  0  0  0  0  0  0  0  0  0  0  0
   -5.6465    1.8160    0.3948 H   0  0  0  0  0  0  0  0  0  0  0  0
   -6.7239    3.1970    0.1656 H   0  0  0  0  0  0  0  0  0  0  0  0
   -4.2996    3.6108    1.2602 H   0  0  0  0  0  0  0  0  0  0  0  0
   -4.8950    4.7389    0.0253 H   0  0  0  0  0  0  0  0  0  0  0  0
   -2.6578    0.0156   -2.5218 H   0  0  0  0  0  0  0  0  0  0  0  0
   -3.9592   -1.9973   -3.0621 H   0  0  0  0  0  0  0  0  0  0  0  0
   -3.8405   -4.0006   -1.6076 H   0  0  0  0  0  0  0  0  0  0  0  0
   -2.3889   -3.9836    0.4079 H   0  0  0  0  0  0  0  0  0  0  0  0
   -1.0773   -1.9782    0.9791 H   0  0  0  0  0  0  0  0  0  0  0  0
  1  2  1  0
  2  3  2  0
  3  4  1  0
  4  5  1  0
  5  6  1  0
  6  7  2  0
  6  8  1  0
  8  9  1  0
  9 10  1  0
 10 11  2  0
 10 12  1  0
 12 13  1  0
 13 14  1  0
 14 15  2  0
 15 16  1  0
 16 17  2  0
 17 18  1  0
 12 19  1  0
 19 20  1  0
 20 21  2  0
 20 22  1  0
 22 23  1  0
 23 24  1  0
 24 25  1  0
 25 26  1  0
 26 27  1  0
 19 28  1  0
 28 29  2  0
 29 30  1  0
 30 31  2  0
 31 32  1  0
 32 33  2  0
  4 34  2  0
 34 35  1  0
 35  2  1  0
 18 14  1  0
 27 23  1  0
 33 28  1  0
  1 36  1  0
  1 37  1  0
  1 38  1  0
  3 39  1  0
  5 40  1  0
  8 41  1  0
  8 42  1  0
  9 43  1  0
  9 44  1  0
 13 45  1  0
 13 46  1  0
 15 47  1  0
 16 48  1  0
 17 49  1  0
 19 50  1  0
 22 51  1  0
 23 52  1  0
 24 53  1  0
 24 54  1  0
 25 55  1  0
 25 56  1  0
 26 57  1  0
 26 58  1  0
 27 59  1  0
 27 60  1  0
 29 61  1  0
 30 62  1  0
 31 63  1  0
 32 64  1  0
 33 65  1  0
M  END
$$$$
