
     RDKit          3D

 32 34  0  0  0  0  0  0  0  0999 V2000
    5.9925   -1.5026    1.3857 O   0  0  0  0  0  0  0  0  0  0  0  0
    5.6919   -0.6228    0.5671 N   0  0  0  0  0  4  0  0  0  0  0  0
    6.5105    0.0673   -0.0565 O   0  0  0  0  0  1  0  0  0  0  0  0
    4.2792   -0.3788    0.3224 C   0  0  0  0  0  0  0  0  0  0  0  0
    3.8601    0.5830   -0.5906 C   0  0  0  0  0  0  0  0  0  0  0  0
    2.4890    0.7677   -0.7806 C   0  0  0  0  0  0  0  0  0  0  0  0
    1.5643    0.0057   -0.0574 C   0  0  0  0  0  0  0  0  0  0  0  0
    0.1901    0.1887   -0.2802 N   0  0  0  0  0  0  0  0  0  0  0  0
   -0.2942    1.5427    0.0246 C   0  0  0  0  0  0  0  0  0  0  0  0
   -1.6668    1.7444   -0.6252 C   0  0  0  0  0  0  0  0  0  0  0  0
   -2.6165    0.6133   -0.3225 C   0  0  0  0  0  0  0  0  0  0  0  0
   -3.9946    0.7873   -0.5125 C   0  0  0  0  0  0  0  0  0  0  0  0
   -4.8784   -0.2634   -0.2696 C   0  0  0  0  0  0  0  0  0  0  0  0
   -4.3935   -1.4970    0.1572 C   0  0  0  0  0  0  0  0  0  0  0  0
   -3.0227   -1.6832    0.3378 C   0  0  0  0  0  0  0  0  0  0  0  0
   -2.1194   -0.6374    0.0892 C   0  0  0  0  0  0  0  0  0  0  0  0
   -0.6372   -0.8658    0.3330 C   0  0  0  0  0  0  0  0  0  0  0  0
    1.9877   -0.9385    0.8156 N   0  0  0  0  0  0  0  0  0  0  0  0
    3.3221   -1.1135    0.9965 C   0  0  0  0  0  0  0  0  0  0  0  0
    4.5675    1.1789   -1.1612 H   0  0  0  0  0  0  0  0  0  0  0  0
    2.1457    1.4878   -1.5175 H   0  0  0  0  0  0  0  0  0  0  0  0
    0.3732    2.3249   -0.3549 H   0  0  0  0  0  0  0  0  0  0  0  0
   -0.3646    1.6784    1.1127 H   0  0  0  0  0  0  0  0  0  0  0  0
   -1.5498    1.8057   -1.7145 H   0  0  0  0  0  0  0  0  0  0  0  0
   -2.0886    2.6944   -0.2770 H   0  0  0  0  0  0  0  0  0  0  0  0
   -4.3855    1.7431   -0.8536 H   0  0  0  0  0  0  0  0  0  0  0  0
   -5.9456   -0.1205   -0.4164 H   0  0  0  0  0  0  0  0  0  0  0  0
   -5.0826   -2.3155    0.3478 H   0  0  0  0  0  0  0  0  0  0  0  0
   -2.6584   -2.6520    0.6731 H   0  0  0  0  0  0  0  0  0  0  0  0
   -0.4882   -0.8990    1.4210 H   0  0  0  0  0  0  0  0  0  0  0  0
   -0.3650   -1.8381   -0.0981 H   0  0  0  0  0  0  0  0  0  0  0  0
    3.5776   -1.8853    1.7182 H   0  0  0  0  0  0  0  0  0  0  0  0
  1  2  2  0
  2  3  1  0
  2  4  1  0
  4  5  2  0
  5  6  1  0
  6  7  2  0
  7  8  1  0
  8  9  1  0
  9 10  1  0
 10 11  1  0
 11 12  2  0
 12 13  1  0
 13 14  2  0
 14 15  1  0
 15 16  2  0
 16 17  1  0
  7 18  1  0
 18 19  2  0
 19  4  1  0
 17  8  1  0
 16 11  1  0
  5 20  1  0
  6 21  1  0
  9 22  1  0
  9 23  1  0
 10 24  1  0
 10 25  1  0
 12 26  1  0
 13 27  1  0
 14 28  1  0
 15 29  1  0
 17 30  1  0
 17 31  1  0
 19 32  1  0
M  CHG  2   2   1   3  -1
M  END
$$$$
