
     RDKit          3D

 46 49  0  0  0  0  0  0  0  0999 V2000
   -4.3139   -3.5559   -1.7775 C   0  0  0  0  0  0  0  0  0  0  0  0
   -3.7010   -2.2736   -1.7316 O   0  0  0  0  0  0  0  0  0  0  0  0
   -3.0695   -1.9325   -0.5666 C   0  0  0  0  0  0  0  0  0  0  0  0
   -2.9574   -2.7323    0.5709 C   0  0  0  0  0  0  0  0  0  0  0  0
   -2.2794   -2.2590    1.6976 C   0  0  0  0  0  0  0  0  0  0  0  0
   -1.7136   -0.9839    1.6950 C   0  0  0  0  0  0  0  0  0  0  0  0
   -1.8264   -0.1718    0.5630 C   0  0  0  0  0  0  0  0  0  0  0  0
   -1.2302    1.1574    0.5480 C   0  0  0  0  0  0  0  0  0  0  0  0
    0.0731    1.5452    0.2686 C   0  0  0  0  0  0  0  0  0  0  0  0
    1.2240    0.7101   -0.0635 C   0  0  0  0  0  0  0  0  0  0  0  0
    1.1894   -0.5168   -0.0514 O   0  0  0  0  0  0  0  0  0  0  0  0
    2.3582    1.4639   -0.3809 N   0  0  0  0  0  0  0  0  0  0  0  0
    3.6107    0.9030   -0.3521 N   0  0  0  0  0  0  0  0  0  0  0  0
    3.9191   -0.0336   -1.2102 C   0  0  0  0  0  0  0  0  0  0  0  0
    3.0439   -0.4489   -2.3799 C   0  0  0  0  0  0  0  0  0  0  0  0
    5.2162   -0.6850   -1.0228 C   0  0  0  0  0  0  0  0  0  0  0  0
    6.1854   -0.3747   -0.0783 C   0  0  0  0  0  0  0  0  0  0  0  0
    7.3356   -1.2142   -0.1650 C   0  0  0  0  0  0  0  0  0  0  0  0
    7.1934   -2.1335   -1.1690 C   0  0  0  0  0  0  0  0  0  0  0  0
    8.3295   -3.3373   -1.6247 Cl  0  0  0  0  0  0  0  0  0  0  0  0
    5.7238   -2.0101   -1.9921 S   0  0  0  0  0  0  0  0  0  0  0  0
    0.1673    2.9103    0.3440 N   0  0  0  0  0  0  0  0  0  0  0  0
   -1.0189    3.3910    0.6674 N   0  0  0  0  0  0  0  0  0  0  0  0
   -1.8984    2.3548    0.8200 N   0  0  0  0  0  0  0  0  0  0  0  0
   -3.2484    2.5814    1.1918 C   0  0  0  0  0  0  0  0  0  0  0  0
   -4.1105    1.5733    1.3242 N   0  0  0  0  0  0  0  0  0  0  0  0
   -5.3078    2.1916    1.6769 O   0  0  0  0  0  0  0  0  0  0  0  0
   -5.1580    3.5721    1.7577 N   0  0  0  0  0  0  0  0  0  0  0  0
   -3.8800    3.8093    1.4658 C   0  0  0  0  0  0  0  0  0  0  0  0
   -3.3228    5.0350    1.4471 N   0  0  0  0  0  0  0  0  0  0  0  0
   -2.4989   -0.6559   -0.5660 C   0  0  0  0  0  0  0  0  0  0  0  0
   -5.0990   -3.6468   -1.0194 H   0  0  0  0  0  0  0  0  0  0  0  0
   -4.7853   -3.6653   -2.7587 H   0  0  0  0  0  0  0  0  0  0  0  0
   -3.5696   -4.3523   -1.6744 H   0  0  0  0  0  0  0  0  0  0  0  0
   -3.3809   -3.7301    0.6137 H   0  0  0  0  0  0  0  0  0  0  0  0
   -2.1883   -2.8888    2.5790 H   0  0  0  0  0  0  0  0  0  0  0  0
   -1.1824   -0.6376    2.5779 H   0  0  0  0  0  0  0  0  0  0  0  0
    2.3287    2.4217   -0.0344 H   0  0  0  0  0  0  0  0  0  0  0  0
    2.6119   -1.4344   -2.1842 H   0  0  0  0  0  0  0  0  0  0  0  0
    2.2380    0.2633   -2.5677 H   0  0  0  0  0  0  0  0  0  0  0  0
    3.6378   -0.4935   -3.2977 H   0  0  0  0  0  0  0  0  0  0  0  0
    6.0675    0.4237    0.6463 H   0  0  0  0  0  0  0  0  0  0  0  0
    8.2056   -1.1421    0.4753 H   0  0  0  0  0  0  0  0  0  0  0  0
   -2.4038    5.1948    1.0384 H   0  0  0  0  0  0  0  0  0  0  0  0
   -3.9262    5.8507    1.4640 H   0  0  0  0  0  0  0  0  0  0  0  0
   -2.5885   -0.0427   -1.4595 H   0  0  0  0  0  0  0  0  0  0  0  0
  1  2  1  0
  2  3  1  0
  3  4  2  0
  4  5  1  0
  5  6  2  0
  6  7  1  0
  7  8  1  0
  8  9  2  0
  9 10  1  0
 10 11  2  0
 10 12  1  0
 12 13  1  0
 13 14  2  3
 14 15  1  0
 14 16  1  0
 16 17  2  0
 17 18  1  0
 18 19  2  0
 19 20  1  0
 19 21  1  0
  9 22  1  0
 22 23  2  0
 23 24  1  0
 24 25  1  0
 25 26  2  0
 26 27  1  0
 27 28  1  0
 28 29  2  0
 29 30  1  0
  7 31  2  0
 31  3  1  0
 24  8  1  0
 29 25  1  0
 21 16  1  0
  1 32  1  0
  1 33  1  0
  1 34  1  0
  4 35  1  0
  5 36  1  0
  6 37  1  0
 12 38  1  0
 15 39  1  0
 15 40  1  0
 15 41  1  0
 17 42  1  0
 18 43  1  0
 30 44  1  0
 30 45  1  0
 31 46  1  0
M  END
$$$$
