
     RDKit          3D

 40 41  0  0  0  0  0  0  0  0999 V2000
   -6.5234    2.3121   -0.9257 C   0  0  0  0  0  0  0  0  0  0  0  0
   -5.6701    2.7502    0.1262 O   0  0  0  0  0  0  0  0  0  0  0  0
   -4.3626    2.3526    0.0694 C   0  0  0  0  0  0  0  0  0  0  0  0
   -3.7774    1.5973   -0.9492 C   0  0  0  0  0  0  0  0  0  0  0  0
   -2.4202    1.2595   -0.8837 C   0  0  0  0  0  0  0  0  0  0  0  0
   -1.6359    1.6728    0.2021 C   0  0  0  0  0  0  0  0  0  0  0  0
   -0.1999    1.2864    0.2212 C   0  0  0  0  0  0  0  0  0  0  0  0
    0.3578    0.7050   -0.6983 O   0  0  0  0  0  0  0  0  0  0  0  0
    0.3798    1.6511    1.3895 O   0  0  0  0  0  0  0  0  0  0  0  0
    1.7595    1.3059    1.5214 C   0  0  0  0  0  0  0  0  0  0  0  0
    1.9832   -0.1492    1.9308 C   0  0  0  0  0  0  0  0  0  0  0  0
    2.2188   -0.4747    3.0915 O   0  0  0  0  0  0  0  0  0  0  0  0
    1.9156   -1.0502    0.8910 N   0  0  0  0  0  0  0  0  0  0  0  0
    2.0787   -2.4765    1.1116 C   0  0  0  0  0  0  0  0  0  0  0  0
    2.2358   -3.2743   -0.1885 C   0  0  0  0  0  0  0  0  0  0  0  0
    3.3941   -2.8566   -0.9613 N   0  0  0  0  0  0  0  0  0  0  0  0
    3.3500   -1.8934   -1.9390 C   0  0  0  0  0  0  0  0  0  0  0  0
    2.1457   -1.3530   -2.2749 O   0  0  0  0  0  0  0  0  0  0  0  0
    4.5416   -1.5754   -2.4603 C   0  0  0  0  0  0  0  0  0  0  0  0
    5.8194   -2.4939   -1.7195 S   0  0  0  0  0  0  0  0  0  0  0  0
    4.6649   -3.3157   -0.6498 C   0  0  0  0  0  0  0  0  0  0  0  0
    4.9884   -4.1298    0.1989 O   0  0  0  0  0  0  0  0  0  0  0  0
   -2.2234    2.4319    1.2226 C   0  0  0  0  0  0  0  0  0  0  0  0
   -3.5787    2.7678    1.1507 C   0  0  0  0  0  0  0  0  0  0  0  0
   -6.2020    2.7191   -1.8906 H   0  0  0  0  0  0  0  0  0  0  0  0
   -6.5830    1.2178   -0.9552 H   0  0  0  0  0  0  0  0  0  0  0  0
   -7.5294    2.6942   -0.7223 H   0  0  0  0  0  0  0  0  0  0  0  0
   -4.3451    1.2554   -1.8090 H   0  0  0  0  0  0  0  0  0  0  0  0
   -1.9827    0.6684   -1.6858 H   0  0  0  0  0  0  0  0  0  0  0  0
    2.1824    1.9426    2.3069 H   0  0  0  0  0  0  0  0  0  0  0  0
    2.3203    1.5320    0.6068 H   0  0  0  0  0  0  0  0  0  0  0  0
    1.5160   -0.7366    0.0037 H   0  0  0  0  0  0  0  0  0  0  0  0
    2.9493   -2.6225    1.7613 H   0  0  0  0  0  0  0  0  0  0  0  0
    1.1946   -2.8269    1.6580 H   0  0  0  0  0  0  0  0  0  0  0  0
    1.3334   -3.1941   -0.8048 H   0  0  0  0  0  0  0  0  0  0  0  0
    2.3576   -4.3350    0.0648 H   0  0  0  0  0  0  0  0  0  0  0  0
    2.2894   -0.6487   -2.9308 H   0  0  0  0  0  0  0  0  0  0  0  0
    4.7296   -0.8456   -3.2335 H   0  0  0  0  0  0  0  0  0  0  0  0
   -1.6443    2.7717    2.0795 H   0  0  0  0  0  0  0  0  0  0  0  0
   -4.0280    3.3584    1.9473 H   0  0  0  0  0  0  0  0  0  0  0  0
  1  2  1  0
  2  3  1  0
  3  4  2  0
  4  5  1  0
  5  6  2  0
  6  7  1  0
  7  8  2  0
  7  9  1  0
  9 10  1  0
 10 11  1  0
 11 12  2  0
 11 13  1  0
 13 14  1  0
 14 15  1  0
 15 16  1  0
 16 17  1  0
 17 18  1  0
 17 19  2  0
 19 20  1  0
 20 21  1  0
 21 22  2  0
  6 23  1  0
 23 24  2  0
 24  3  1  0
 21 16  1  0
  1 25  1  0
  1 26  1  0
  1 27  1  0
  4 28  1  0
  5 29  1  0
 10 30  1  0
 10 31  1  0
 13 32  1  0
 14 33  1  0
 14 34  1  0
 15 35  1  0
 15 36  1  0
 18 37  1  0
 19 38  1  0
 23 39  1  0
 24 40  1  0
M  END
$$$$
