
     RDKit          3D

 19 19  0  0  0  0  0  0  0  0999 V2000
   -3.0014    0.6192   -0.8154 C   0  0  0  0  0  0  0  0  0  0  0  0
   -2.1335   -0.5043   -0.2647 C   0  0  0  0  0  0  0  0  0  0  0  0
   -1.2497   -1.1776   -1.3167 C   0  0  0  0  0  0  0  0  0  0  0  0
    0.0037   -0.0792   -2.0487 S   0  0  0  0  0  0  0  0  0  0  0  0
    1.1720    0.0357   -0.7523 C   0  0  0  0  0  0  0  0  0  0  0  0
    1.1519   -0.7437    0.3059 N   0  0  0  0  0  0  0  0  0  0  0  0
    2.1791   -0.4505    1.1823 N   0  0  0  0  0  0  0  0  0  0  0  0
    2.9401    0.5303    0.7515 C   0  0  0  0  0  0  0  0  0  0  0  0
    4.0161    1.0067    1.4075 N   0  0  0  0  0  0  0  0  0  0  0  0
    2.4580    1.1675   -0.7689 S   0  0  0  0  0  0  0  0  0  0  0  0
   -3.6790    0.9841   -0.0367 H   0  0  0  0  0  0  0  0  0  0  0  0
   -3.6103    0.2694   -1.6551 H   0  0  0  0  0  0  0  0  0  0  0  0
   -2.3998    1.4680   -1.1533 H   0  0  0  0  0  0  0  0  0  0  0  0
   -2.7963   -1.2685    0.1597 H   0  0  0  0  0  0  0  0  0  0  0  0
   -1.5306   -0.1247    0.5678 H   0  0  0  0  0  0  0  0  0  0  0  0
   -0.7602   -2.0595   -0.8896 H   0  0  0  0  0  0  0  0  0  0  0  0
   -1.8793   -1.5407   -2.1367 H   0  0  0  0  0  0  0  0  0  0  0  0
    4.3882    0.3980    2.1294 H   0  0  0  0  0  0  0  0  0  0  0  0
    4.7310    1.4699    0.8592 H   0  0  0  0  0  0  0  0  0  0  0  0
  1  2  1  0
  2  3  1  0
  3  4  1  0
  4  5  1  0
  5  6  2  0
  6  7  1  0
  7  8  2  0
  8  9  1  0
  8 10  1  0
 10  5  1  0
  1 11  1  0
  1 12  1  0
  1 13  1  0
  2 14  1  0
  2 15  1  0
  3 16  1  0
  3 17  1  0
  9 18  1  0
  9 19  1  0
M  END
$$$$
