
     RDKit          3D

 58 63  0  0  0  0  0  0  0  0999 V2000
    7.3530   -1.3057    3.1206 C   0  0  0  0  0  0  0  0  0  0  0  0
    6.2465   -1.2491    2.1230 C   0  0  0  0  0  0  0  0  0  0  0  0
    5.2901   -2.2020    1.8433 C   0  0  0  0  0  0  0  0  0  0  0  0
    4.3966   -1.7822    0.8142 C   0  0  0  0  0  0  0  0  0  0  0  0
    4.6832   -0.5101    0.3545 C   0  0  0  0  0  0  0  0  0  0  0  0
    4.0261    0.2736   -0.6814 C   0  0  0  0  0  0  0  0  0  0  0  0
    4.6592    0.8325   -1.5790 O   0  0  0  0  0  0  0  0  0  0  0  0
    2.6241    0.3574   -0.6529 N   0  0  0  0  0  0  0  0  0  0  0  0
    1.9722    1.0246   -1.7726 C   0  0  0  0  0  0  0  0  0  0  0  0
    0.4794    0.7210   -1.8137 C   0  0  0  0  0  0  0  0  0  0  0  0
   -0.2278    1.2640   -0.5472 C   0  0  0  0  0  0  0  0  0  0  0  0
    0.6654    1.0435    0.7127 C   0  0  0  0  0  0  0  0  0  0  0  0
    1.8031    0.0435    0.5138 C   0  0  0  0  0  0  0  0  0  0  0  0
   -0.2848    2.7170   -0.6609 O   0  0  0  0  0  0  0  0  0  0  0  0
   -1.2930    3.2672   -1.3956 C   0  0  0  0  0  0  0  0  0  0  0  0
   -1.1727    4.6269   -1.6815 C   0  0  0  0  0  0  0  0  0  0  0  0
   -2.1458    5.2706   -2.4507 C   0  0  0  0  0  0  0  0  0  0  0  0
   -3.2397    4.5510   -2.9319 C   0  0  0  0  0  0  0  0  0  0  0  0
   -4.4317    5.3460   -3.8828 Cl  0  0  0  0  0  0  0  0  0  0  0  0
   -3.3742    3.1958   -2.6440 C   0  0  0  0  0  0  0  0  0  0  0  0
   -2.3996    2.5661   -1.8636 C   0  0  0  0  0  0  0  0  0  0  0  0
   -2.5203    1.1432   -1.5216 C   0  0  0  0  0  0  0  0  0  0  0  0
   -3.2748    0.4205   -2.1669 O   0  0  0  0  0  0  0  0  0  0  0  0
   -1.6528    0.6680   -0.3625 C   0  0  0  0  0  0  0  0  0  0  0  0
   -1.7132   -0.8433   -0.2050 C   0  0  0  0  0  0  0  0  0  0  0  0
   -2.8004   -0.9250    0.8130 C   0  0  0  0  0  0  0  0  0  0  0  0
   -3.4824   -2.1995    1.1407 C   0  0  0  0  0  0  0  0  0  0  0  0
   -4.5189   -2.1880    2.0833 C   0  0  0  0  0  0  0  0  0  0  0  0
   -5.1806   -3.3707    2.4182 C   0  0  0  0  0  0  0  0  0  0  0  0
   -4.8114   -4.5703    1.8132 C   0  0  0  0  0  0  0  0  0  0  0  0
   -3.7794   -4.5893    0.8755 C   0  0  0  0  0  0  0  0  0  0  0  0
   -3.1126   -3.4076    0.5390 C   0  0  0  0  0  0  0  0  0  0  0  0
   -3.0660    0.1934    1.4099 N   0  0  0  0  0  0  0  0  0  0  0  0
   -2.2419    1.1885    0.8422 O   0  0  0  0  0  0  0  0  0  0  0  0
    6.0581    0.1386    1.1401 S   0  0  0  0  0  0  0  0  0  0  0  0
    7.4595   -2.3155    3.5307 H   0  0  0  0  0  0  0  0  0  0  0  0
    7.1535   -0.6217    3.9525 H   0  0  0  0  0  0  0  0  0  0  0  0
    8.3104   -1.0293    2.6651 H   0  0  0  0  0  0  0  0  0  0  0  0
    5.2403   -3.1611    2.3449 H   0  0  0  0  0  0  0  0  0  0  0  0
    3.5892   -2.3877    0.4230 H   0  0  0  0  0  0  0  0  0  0  0  0
    2.1553    2.1010   -1.6755 H   0  0  0  0  0  0  0  0  0  0  0  0
    2.4425    0.6956   -2.7056 H   0  0  0  0  0  0  0  0  0  0  0  0
    0.0643    1.1726   -2.7216 H   0  0  0  0  0  0  0  0  0  0  0  0
    0.3415   -0.3635   -1.9004 H   0  0  0  0  0  0  0  0  0  0  0  0
    0.0699    0.7185    1.5736 H   0  0  0  0  0  0  0  0  0  0  0  0
    1.1144    1.9993    1.0184 H   0  0  0  0  0  0  0  0  0  0  0  0
    1.4092   -0.9674    0.3652 H   0  0  0  0  0  0  0  0  0  0  0  0
    2.4130    0.0318    1.4223 H   0  0  0  0  0  0  0  0  0  0  0  0
   -0.3176    5.1880   -1.3106 H   0  0  0  0  0  0  0  0  0  0  0  0
   -2.0435    6.3304   -2.6709 H   0  0  0  0  0  0  0  0  0  0  0  0
   -4.2313    2.6354   -3.0104 H   0  0  0  0  0  0  0  0  0  0  0  0
   -1.9494   -1.3799   -1.1263 H   0  0  0  0  0  0  0  0  0  0  0  0
   -0.8119   -1.2686    0.2417 H   0  0  0  0  0  0  0  0  0  0  0  0
   -4.8201   -1.2578    2.5616 H   0  0  0  0  0  0  0  0  0  0  0  0
   -5.9849   -3.3535    3.1494 H   0  0  0  0  0  0  0  0  0  0  0  0
   -5.3289   -5.4903    2.0727 H   0  0  0  0  0  0  0  0  0  0  0  0
   -3.4946   -5.5269    0.4041 H   0  0  0  0  0  0  0  0  0  0  0  0
   -2.3139   -3.4596   -0.1941 H   0  0  0  0  0  0  0  0  0  0  0  0
  1  2  1  0
  2  3  2  0
  3  4  1  0
  4  5  2  0
  5  6  1  0
  6  7  2  0
  6  8  1  0
  8  9  1  0
  9 10  1  0
 10 11  1  0
 11 12  1  0
 12 13  1  0
 11 14  1  0
 14 15  1  0
 15 16  2  0
 16 17  1  0
 17 18  2  0
 18 19  1  0
 18 20  1  0
 20 21  2  0
 21 22  1  0
 22 23  2  0
 22 24  1  0
 24 25  1  0
 25 26  1  0
 26 27  1  0
 27 28  2  0
 28 29  1  0
 29 30  2  0
 30 31  1  0
 31 32  2  0
 26 33  2  0
 33 34  1  0
  5 35  1  0
 35  2  1  0
 13  8  1  0
 21 15  1  0
 34 24  1  0
 24 11  1  0
 32 27  1  0
  1 36  1  0
  1 37  1  0
  1 38  1  0
  3 39  1  0
  4 40  1  0
  9 41  1  0
  9 42  1  0
 10 43  1  0
 10 44  1  0
 12 45  1  0
 12 46  1  0
 13 47  1  0
 13 48  1  0
 16 49  1  0
 17 50  1  0
 20 51  1  0
 25 52  1  0
 25 53  1  0
 28 54  1  0
 29 55  1  0
 30 56  1  0
 31 57  1  0
 32 58  1  0
M  END
$$$$
