
     RDKit          3D

 25 26  0  0  0  0  0  0  0  0999 V2000
   -2.6516   -0.0180    2.3546 O   0  0  0  0  0  0  0  0  0  0  0  0
   -2.2574   -0.0829    1.2027 C   0  0  0  0  0  0  0  0  0  0  0  0
   -2.0140    1.0673    0.2760 C   0  0  0  0  0  0  0  0  0  0  0  0
   -1.9629    0.3765   -1.0828 C   0  0  0  0  0  0  0  0  0  0  0  0
   -1.6091   -1.0260   -0.8211 N   0  0  0  0  0  0  0  0  0  0  0  0
   -0.2113   -1.3693   -1.1521 C   0  0  0  0  0  0  0  0  0  0  0  0
    0.8799   -0.5734   -0.4610 C   0  0  0  0  0  0  0  0  0  0  0  0
    1.5284    0.4769   -1.1305 C   0  0  0  0  0  0  0  0  0  0  0  0
    2.5284    1.2162   -0.4940 C   0  0  0  0  0  0  0  0  0  0  0  0
    2.8890    0.9095    0.8158 C   0  0  0  0  0  0  0  0  0  0  0  0
    4.1192    1.8218    1.5993 Cl  0  0  0  0  0  0  0  0  0  0  0  0
    2.2609   -0.1321    1.4935 C   0  0  0  0  0  0  0  0  0  0  0  0
    1.2626   -0.8727    0.8561 C   0  0  0  0  0  0  0  0  0  0  0  0
   -1.9226   -1.2366    0.5247 N   0  0  0  0  0  0  0  0  0  0  0  0
   -1.0644    1.5426    0.5368 H   0  0  0  0  0  0  0  0  0  0  0  0
   -2.8333    1.7881    0.3313 H   0  0  0  0  0  0  0  0  0  0  0  0
   -1.3065    0.8903   -1.7925 H   0  0  0  0  0  0  0  0  0  0  0  0
   -2.9669    0.3908   -1.5262 H   0  0  0  0  0  0  0  0  0  0  0  0
   -0.0488   -2.4350   -0.9403 H   0  0  0  0  0  0  0  0  0  0  0  0
   -0.0844   -1.2844   -2.2395 H   0  0  0  0  0  0  0  0  0  0  0  0
    1.2590    0.7270   -2.1547 H   0  0  0  0  0  0  0  0  0  0  0  0
    3.0209    2.0271   -1.0240 H   0  0  0  0  0  0  0  0  0  0  0  0
    2.5402   -0.3723    2.5159 H   0  0  0  0  0  0  0  0  0  0  0  0
    0.7790   -1.6831    1.3979 H   0  0  0  0  0  0  0  0  0  0  0  0
   -2.1346   -2.1485    0.9144 H   0  0  0  0  0  0  0  0  0  0  0  0
  1  2  2  0
  2  3  1  0
  3  4  1  0
  4  5  1  0
  5  6  1  0
  6  7  1  0
  7  8  2  0
  8  9  1  0
  9 10  2  0
 10 11  1  0
 10 12  1  0
 12 13  2  0
  5 14  1  0
 14  2  1  0
 13  7  1  0
  3 15  1  0
  3 16  1  0
  4 17  1  0
  4 18  1  0
  6 19  1  0
  6 20  1  0
  8 21  1  0
  9 22  1  0
 12 23  1  0
 13 24  1  0
 14 25  1  0
M  END
$$$$
