
     RDKit          3D

 39 40  0  0  0  0  0  0  0  0999 V2000
   -0.2760    2.2151   -2.4259 C   0  0  0  0  0  0  0  0  0  0  0  0
   -0.5890    0.8753   -1.8174 C   0  0  0  0  0  0  0  0  0  0  0  0
   -0.1165   -0.1651   -2.2635 O   0  0  0  0  0  0  0  0  0  0  0  0
   -1.4640    0.9447   -0.7612 N   0  0  0  0  0  0  0  0  0  0  0  0
   -1.2157    0.2021    0.2810 C   0  0  0  0  0  0  0  0  0  0  0  0
   -2.1672    0.1968    1.4515 C   0  0  0  0  0  0  0  0  0  0  0  0
   -3.1824   -0.9192    1.3809 C   0  0  0  0  0  0  0  0  0  0  0  0
   -3.1679   -1.9541    2.3300 C   0  0  0  0  0  0  0  0  0  0  0  0
   -4.1007   -2.9907    2.2608 C   0  0  0  0  0  0  0  0  0  0  0  0
   -5.0552   -3.0051    1.2434 C   0  0  0  0  0  0  0  0  0  0  0  0
   -5.0821   -1.9788    0.2966 C   0  0  0  0  0  0  0  0  0  0  0  0
   -4.1530   -0.9396    0.3649 C   0  0  0  0  0  0  0  0  0  0  0  0
    0.0189   -0.6701    0.4502 C   0  0  0  0  0  0  0  0  0  0  0  0
   -0.0267   -1.8689    0.6381 O   0  0  0  0  0  0  0  0  0  0  0  0
    1.1048    0.1342    0.4122 O   0  0  0  0  0  0  0  0  0  0  0  0
    2.3420   -0.5769    0.3931 C   0  0  0  0  0  0  0  0  0  0  0  0
    3.3874    0.3693   -0.1346 C   0  0  0  0  0  0  0  0  0  0  0  0
    3.6364    0.4479   -1.5143 C   0  0  0  0  0  0  0  0  0  0  0  0
    4.5877    1.3392   -2.0123 C   0  0  0  0  0  0  0  0  0  0  0  0
    5.2897    2.1684   -1.1397 C   0  0  0  0  0  0  0  0  0  0  0  0
    5.0383    2.1102    0.2304 C   0  0  0  0  0  0  0  0  0  0  0  0
    4.0884    1.2178    0.7322 C   0  0  0  0  0  0  0  0  0  0  0  0
    0.4291    2.0853   -3.2510 H   0  0  0  0  0  0  0  0  0  0  0  0
   -1.1935    2.6677   -2.8127 H   0  0  0  0  0  0  0  0  0  0  0  0
    0.1754    2.8690   -1.6741 H   0  0  0  0  0  0  0  0  0  0  0  0
   -1.5830    0.1295    2.3754 H   0  0  0  0  0  0  0  0  0  0  0  0
   -2.6931    1.1569    1.4905 H   0  0  0  0  0  0  0  0  0  0  0  0
   -2.4259   -1.9658    3.1255 H   0  0  0  0  0  0  0  0  0  0  0  0
   -4.0772   -3.7923    2.9971 H   0  0  0  0  0  0  0  0  0  0  0  0
   -5.7744   -3.8164    1.1846 H   0  0  0  0  0  0  0  0  0  0  0  0
   -5.8226   -1.9939   -0.4989 H   0  0  0  0  0  0  0  0  0  0  0  0
   -4.1855   -0.1500   -0.3861 H   0  0  0  0  0  0  0  0  0  0  0  0
    2.2900   -1.4651   -0.2497 H   0  0  0  0  0  0  0  0  0  0  0  0
    2.5944   -0.8982    1.4094 H   0  0  0  0  0  0  0  0  0  0  0  0
    3.0846   -0.1842   -2.2083 H   0  0  0  0  0  0  0  0  0  0  0  0
    4.7799    1.3860   -3.0815 H   0  0  0  0  0  0  0  0  0  0  0  0
    6.0306    2.8620   -1.5292 H   0  0  0  0  0  0  0  0  0  0  0  0
    5.5800    2.7638    0.9088 H   0  0  0  0  0  0  0  0  0  0  0  0
    3.8941    1.1932    1.8037 H   0  0  0  0  0  0  0  0  0  0  0  0
  1  2  1  0
  2  3  2  0
  2  4  1  0
  4  5  2  3
  5  6  1  0
  6  7  1  0
  7  8  2  0
  8  9  1  0
  9 10  2  0
 10 11  1  0
 11 12  2  0
  5 13  1  0
 13 14  2  0
 13 15  1  0
 15 16  1  0
 16 17  1  0
 17 18  2  0
 18 19  1  0
 19 20  2  0
 20 21  1  0
 21 22  2  0
 12  7  1  0
 22 17  1  0
  1 23  1  0
  1 24  1  0
  1 25  1  0
  6 26  1  0
  6 27  1  0
  8 28  1  0
  9 29  1  0
 10 30  1  0
 11 31  1  0
 12 32  1  0
 16 33  1  0
 16 34  1  0
 18 35  1  0
 19 36  1  0
 20 37  1  0
 21 38  1  0
 22 39  1  0
M  END
$$$$
