
     RDKit          3D

 59 62  0  0  0  0  0  0  0  0999 V2000
   -6.2142    0.6861   -3.5729 C   0  0  0  0  0  0  0  0  0  0  0  0
   -5.9863   -0.7957   -3.3308 C   0  0  0  0  0  0  0  0  0  0  0  0
   -5.6497   -1.0833   -1.9447 N   0  0  0  0  0  0  0  0  0  0  0  0
   -6.5692   -1.3948   -0.9606 C   0  0  0  0  0  0  0  0  0  0  0  0
   -7.9711   -1.4915   -0.9980 C   0  0  0  0  0  0  0  0  0  0  0  0
   -8.6424   -1.8352    0.1796 C   0  0  0  0  0  0  0  0  0  0  0  0
   -7.9431   -2.0732    1.3577 C   0  0  0  0  0  0  0  0  0  0  0  0
   -6.5486   -1.9709    1.3872 C   0  0  0  0  0  0  0  0  0  0  0  0
   -5.8465   -1.6254    0.2120 C   0  0  0  0  0  0  0  0  0  0  0  0
   -4.4614   -1.4343   -0.0884 C   0  0  0  0  0  0  0  0  0  0  0  0
   -3.2767   -1.5199    0.6782 C   0  0  0  0  0  0  0  0  0  0  0  0
   -2.0282   -1.2575    0.0922 C   0  0  0  0  0  0  0  0  0  0  0  0
   -0.8960   -1.3697    0.9285 N   0  0  0  0  0  0  0  0  0  0  0  0
    0.4270   -1.1037    0.6023 C   0  0  0  0  0  0  0  0  0  0  0  0
    0.8389   -0.6929   -0.4798 O   0  0  0  0  0  0  0  0  0  0  0  0
    1.3981   -1.4069    1.7645 C   0  0  0  0  0  0  0  0  0  0  0  0
    1.6338   -2.9103    1.8468 C   0  0  0  0  0  0  0  0  0  0  0  0
    2.6705   -0.7825    1.5625 O   0  0  0  0  0  0  0  0  0  0  0  0
    2.6724    0.5544    1.7915 C   0  0  0  0  0  0  0  0  0  0  0  0
    1.7494    1.1947    2.2709 O   0  0  0  0  0  0  0  0  0  0  0  0
    3.9758    1.1544    1.4024 C   0  0  0  0  0  0  0  0  0  0  0  0
    4.9595    0.4363    0.7139 C   0  0  0  0  0  0  0  0  0  0  0  0
    6.1676    1.0511    0.3577 C   0  0  0  0  0  0  0  0  0  0  0  0
    6.4087    2.3881    0.6819 C   0  0  0  0  0  0  0  0  0  0  0  0
    7.5921    3.0833    0.3514 N   0  0  0  0  0  0  0  0  0  0  0  0
    8.7078    2.5814   -0.3035 C   0  0  0  0  0  0  0  0  0  0  0  0
    8.8655    1.4269   -0.6901 O   0  0  0  0  0  0  0  0  0  0  0  0
    9.7849    3.6171   -0.5342 C   0  0  0  0  0  0  0  0  0  0  0  0
   10.6843    3.6730    0.6166 C   0  0  0  0  0  0  0  0  0  0  0  0
   11.3904    3.7633    1.5339 N   0  0  0  0  0  0  0  0  0  0  0  0
    5.4200    3.1049    1.3695 C   0  0  0  0  0  0  0  0  0  0  0  0
    4.2122    2.4948    1.7258 C   0  0  0  0  0  0  0  0  0  0  0  0
   -1.9689   -0.9158   -1.2565 C   0  0  0  0  0  0  0  0  0  0  0  0
   -3.1272   -0.8266   -2.0408 C   0  0  0  0  0  0  0  0  0  0  0  0
   -4.3648   -1.0919   -1.4362 C   0  0  0  0  0  0  0  0  0  0  0  0
   -5.3167    1.2688   -3.3395 H   0  0  0  0  0  0  0  0  0  0  0  0
   -7.0307    1.0686   -2.9512 H   0  0  0  0  0  0  0  0  0  0  0  0
   -6.4723    0.8639   -4.6216 H   0  0  0  0  0  0  0  0  0  0  0  0
   -6.8806   -1.3713   -3.5923 H   0  0  0  0  0  0  0  0  0  0  0  0
   -5.1757   -1.1721   -3.9638 H   0  0  0  0  0  0  0  0  0  0  0  0
   -8.5307   -1.3052   -1.9089 H   0  0  0  0  0  0  0  0  0  0  0  0
   -9.7273   -1.9165    0.1723 H   0  0  0  0  0  0  0  0  0  0  0  0
   -8.4823   -2.3389    2.2638 H   0  0  0  0  0  0  0  0  0  0  0  0
   -6.0113   -2.1549    2.3125 H   0  0  0  0  0  0  0  0  0  0  0  0
   -3.3568   -1.7864    1.7272 H   0  0  0  0  0  0  0  0  0  0  0  0
   -1.0876   -1.6238    1.8893 H   0  0  0  0  0  0  0  0  0  0  0  0
    0.9613   -1.0696    2.7131 H   0  0  0  0  0  0  0  0  0  0  0  0
    0.7063   -3.4545    2.0499 H   0  0  0  0  0  0  0  0  0  0  0  0
    2.0530   -3.2904    0.9082 H   0  0  0  0  0  0  0  0  0  0  0  0
    2.3569   -3.1426    2.6358 H   0  0  0  0  0  0  0  0  0  0  0  0
    4.8020   -0.6033    0.4350 H   0  0  0  0  0  0  0  0  0  0  0  0
    6.8955    0.4496   -0.1789 H   0  0  0  0  0  0  0  0  0  0  0  0
    7.6247    4.0483    0.6582 H   0  0  0  0  0  0  0  0  0  0  0  0
    9.3263    4.5948   -0.7203 H   0  0  0  0  0  0  0  0  0  0  0  0
   10.3316    3.3484   -1.4452 H   0  0  0  0  0  0  0  0  0  0  0  0
    5.5664    4.1488    1.6360 H   0  0  0  0  0  0  0  0  0  0  0  0
    3.4553    3.0727    2.2535 H   0  0  0  0  0  0  0  0  0  0  0  0
   -1.0232   -0.7080   -1.7478 H   0  0  0  0  0  0  0  0  0  0  0  0
   -3.0491   -0.5540   -3.0887 H   0  0  0  0  0  0  0  0  0  0  0  0
  1  2  1  0
  2  3  1  0
  3  4  1  0
  4  5  2  0
  5  6  1  0
  6  7  2  0
  7  8  1  0
  8  9  2  0
  9 10  1  0
 10 11  2  0
 11 12  1  0
 12 13  1  0
 13 14  1  0
 14 15  2  0
 14 16  1  0
 16 17  1  0
 16 18  1  0
 18 19  1  0
 19 20  2  0
 19 21  1  0
 21 22  2  0
 22 23  1  0
 23 24  2  0
 24 25  1  0
 25 26  1  0
 26 27  2  0
 26 28  1  0
 28 29  1  0
 29 30  3  0
 24 31  1  0
 31 32  2  0
 12 33  2  0
 33 34  1  0
 34 35  2  0
 35  3  1  0
  9  4  1  0
 35 10  1  0
 32 21  1  0
  1 36  1  0
  1 37  1  0
  1 38  1  0
  2 39  1  0
  2 40  1  0
  5 41  1  0
  6 42  1  0
  7 43  1  0
  8 44  1  0
 11 45  1  0
 13 46  1  0
 16 47  1  0
 17 48  1  0
 17 49  1  0
 17 50  1  0
 22 51  1  0
 23 52  1  0
 25 53  1  0
 28 54  1  0
 28 55  1  0
 31 56  1  0
 32 57  1  0
 33 58  1  0
 34 59  1  0
M  END
$$$$
