
     RDKit          3D

 56 59  0  0  0  0  0  0  0  0999 V2000
    6.5027    5.1118   -1.0805 C   0  0  0  0  0  0  0  0  0  0  0  0
    5.5570    4.1108   -0.4409 C   0  0  0  0  0  0  0  0  0  0  0  0
    5.3901    3.0225   -1.3476 O   0  0  0  0  0  0  0  0  0  0  0  0
    4.5569    2.0108   -0.9567 C   0  0  0  0  0  0  0  0  0  0  0  0
    3.8770    1.9291    0.2582 C   0  0  0  0  0  0  0  0  0  0  0  0
    3.0543    0.8298    0.5327 C   0  0  0  0  0  0  0  0  0  0  0  0
    2.9063   -0.1991   -0.4036 C   0  0  0  0  0  0  0  0  0  0  0  0
    2.0442   -1.3394   -0.1159 C   0  0  0  0  0  0  0  0  0  0  0  0
    0.6580   -1.4307   -0.1002 C   0  0  0  0  0  0  0  0  0  0  0  0
   -0.3356   -0.3873   -0.3474 C   0  0  0  0  0  0  0  0  0  0  0  0
   -0.0348    0.7781   -0.5847 O   0  0  0  0  0  0  0  0  0  0  0  0
   -1.6330   -0.8778   -0.2747 N   0  0  0  0  0  0  0  0  0  0  0  0
   -2.7008   -0.0443   -0.4084 N   0  0  0  0  0  0  0  0  0  0  0  0
   -3.9007   -0.5510   -0.3800 C   0  0  0  0  0  0  0  0  0  0  0  0
   -4.1984   -2.0321   -0.2769 C   0  0  0  0  0  0  0  0  0  0  0  0
   -5.0573    0.3840   -0.4981 C   0  0  0  0  0  0  0  0  0  0  0  0
   -4.9662    1.3969   -1.4653 C   0  0  0  0  0  0  0  0  0  0  0  0
   -6.0150    2.2965   -1.6393 C   0  0  0  0  0  0  0  0  0  0  0  0
   -7.1522    2.1915   -0.8437 C   0  0  0  0  0  0  0  0  0  0  0  0
   -7.2395    1.1970    0.1367 C   0  0  0  0  0  0  0  0  0  0  0  0
   -6.1909    0.2885    0.3288 C   0  0  0  0  0  0  0  0  0  0  0  0
   -6.1818   -0.6835    1.2942 O   0  0  0  0  0  0  0  0  0  0  0  0
   -7.2687   -0.7137    2.2104 C   0  0  0  0  0  0  0  0  0  0  0  0
    0.2911   -2.7210    0.1884 N   0  0  0  0  0  0  0  0  0  0  0  0
    1.3863   -3.4358    0.3629 N   0  0  0  0  0  0  0  0  0  0  0  0
    2.4789   -2.6261    0.2168 N   0  0  0  0  0  0  0  0  0  0  0  0
    3.7919   -3.1210    0.4273 C   0  0  0  0  0  0  0  0  0  0  0  0
    4.8539   -2.3167    0.3830 N   0  0  0  0  0  0  0  0  0  0  0  0
    5.9308   -3.1560    0.6590 O   0  0  0  0  0  0  0  0  0  0  0  0
    5.5088   -4.4631    0.8772 N   0  0  0  0  0  0  0  0  0  0  0  0
    4.1852   -4.4393    0.7274 C   0  0  0  0  0  0  0  0  0  0  0  0
    3.3898   -5.5196    0.8487 N   0  0  0  0  0  0  0  0  0  0  0  0
    3.5790   -0.1091   -1.6264 C   0  0  0  0  0  0  0  0  0  0  0  0
    4.4022    0.9876   -1.8948 C   0  0  0  0  0  0  0  0  0  0  0  0
    7.4667    4.6431   -1.3042 H   0  0  0  0  0  0  0  0  0  0  0  0
    6.0964    5.4739   -2.0307 H   0  0  0  0  0  0  0  0  0  0  0  0
    6.6721    5.9661   -0.4192 H   0  0  0  0  0  0  0  0  0  0  0  0
    4.5946    4.5996   -0.2493 H   0  0  0  0  0  0  0  0  0  0  0  0
    5.9947    3.7577    0.5002 H   0  0  0  0  0  0  0  0  0  0  0  0
    3.9574    2.7038    1.0129 H   0  0  0  0  0  0  0  0  0  0  0  0
    2.5236    0.7943    1.4814 H   0  0  0  0  0  0  0  0  0  0  0  0
   -1.7682   -1.8562   -0.0443 H   0  0  0  0  0  0  0  0  0  0  0  0
   -3.9614   -2.3838    0.7309 H   0  0  0  0  0  0  0  0  0  0  0  0
   -3.5938   -2.5825   -1.0040 H   0  0  0  0  0  0  0  0  0  0  0  0
   -5.2448   -2.2527   -0.5017 H   0  0  0  0  0  0  0  0  0  0  0  0
   -4.0747    1.4851   -2.0837 H   0  0  0  0  0  0  0  0  0  0  0  0
   -5.9415    3.0778   -2.3914 H   0  0  0  0  0  0  0  0  0  0  0  0
   -7.9721    2.8935   -0.9779 H   0  0  0  0  0  0  0  0  0  0  0  0
   -8.1414    1.1668    0.7394 H   0  0  0  0  0  0  0  0  0  0  0  0
   -7.0735   -1.5127    2.9315 H   0  0  0  0  0  0  0  0  0  0  0  0
   -8.2074   -0.9490    1.6996 H   0  0  0  0  0  0  0  0  0  0  0  0
   -7.3442    0.2253    2.7685 H   0  0  0  0  0  0  0  0  0  0  0  0
    3.7686   -6.3598    1.2734 H   0  0  0  0  0  0  0  0  0  0  0  0
    2.3796   -5.4214    0.9366 H   0  0  0  0  0  0  0  0  0  0  0  0
    3.4741   -0.8848   -2.3806 H   0  0  0  0  0  0  0  0  0  0  0  0
    4.9258    1.0476   -2.8460 H   0  0  0  0  0  0  0  0  0  0  0  0
  1  2  1  0
  2  3  1  0
  3  4  1  0
  4  5  2  0
  5  6  1  0
  6  7  2  0
  7  8  1  0
  8  9  2  0
  9 10  1  0
 10 11  2  0
 10 12  1  0
 12 13  1  0
 13 14  2  3
 14 15  1  0
 14 16  1  0
 16 17  2  0
 17 18  1  0
 18 19  2  0
 19 20  1  0
 20 21  2  0
 21 22  1  0
 22 23  1  0
  9 24  1  0
 24 25  2  0
 25 26  1  0
 26 27  1  0
 27 28  2  0
 28 29  1  0
 29 30  1  0
 30 31  2  0
 31 32  1  0
  7 33  1  0
 33 34  2  0
 34  4  1  0
 26  8  1  0
 31 27  1  0
 21 16  1  0
  1 35  1  0
  1 36  1  0
  1 37  1  0
  2 38  1  0
  2 39  1  0
  5 40  1  0
  6 41  1  0
 12 42  1  0
 15 43  1  0
 15 44  1  0
 15 45  1  0
 17 46  1  0
 18 47  1  0
 19 48  1  0
 20 49  1  0
 23 50  1  0
 23 51  1  0
 23 52  1  0
 32 53  1  0
 32 54  1  0
 33 55  1  0
 34 56  1  0
M  END
$$$$
