
     RDKit          3D

 31 32  0  0  0  0  0  0  0  0999 V2000
    5.1668   -3.3005    0.6433 C   0  0  0  0  0  0  0  0  0  0  0  0
    3.9152   -2.8894    1.8908 S   0  0  0  0  0  0  0  0  0  0  0  0
    2.8502   -1.7866    0.9683 C   0  0  0  0  0  0  0  0  0  0  0  0
    3.3474   -0.7811    0.1383 C   0  0  0  0  0  0  0  0  0  0  0  0
    2.4699    0.0761   -0.5269 C   0  0  0  0  0  0  0  0  0  0  0  0
    1.0909   -0.0677   -0.3700 C   0  0  0  0  0  0  0  0  0  0  0  0
    0.5752   -1.0792    0.4389 C   0  0  0  0  0  0  0  0  0  0  0  0
   -0.8176   -1.2281    0.7212 N   0  0  0  0  0  0  0  0  0  0  0  0
   -2.0064   -0.8726   -0.4130 S   0  0  0  0  0  6  0  0  0  0  0  0
   -3.2213   -1.5071    0.0644 O   0  0  0  0  0  0  0  0  0  0  0  0
   -1.5159   -1.1107   -1.7572 O   0  0  0  0  0  0  0  0  0  0  0  0
   -2.3923    0.8292   -0.3752 C   0  0  0  0  0  0  0  0  0  0  0  0
   -3.4860    1.4216   -0.9793 C   0  0  0  0  0  0  0  0  0  0  0  0
   -3.3802    2.7487   -0.6795 N   0  0  0  0  0  0  0  0  0  0  0  0
   -4.3107    3.7787   -1.0644 C   0  0  0  0  0  0  0  0  0  0  0  0
   -2.2616    2.9204    0.0840 C   0  0  0  0  0  0  0  0  0  0  0  0
   -1.6314    1.7832    0.2840 N   0  0  0  0  0  0  0  0  0  0  0  0
    1.4632   -1.9090    1.1343 C   0  0  0  0  0  0  0  0  0  0  0  0
    5.8145   -2.4418    0.4419 H   0  0  0  0  0  0  0  0  0  0  0  0
    4.6951   -3.6318   -0.2864 H   0  0  0  0  0  0  0  0  0  0  0  0
    5.7933   -4.1163    1.0238 H   0  0  0  0  0  0  0  0  0  0  0  0
    4.4191   -0.6285    0.0171 H   0  0  0  0  0  0  0  0  0  0  0  0
    2.8598    0.8721   -1.1565 H   0  0  0  0  0  0  0  0  0  0  0  0
    0.4434    0.6359   -0.8842 H   0  0  0  0  0  0  0  0  0  0  0  0
   -1.0911   -2.0282    1.2831 H   0  0  0  0  0  0  0  0  0  0  0  0
   -4.2945    1.0079   -1.5650 H   0  0  0  0  0  0  0  0  0  0  0  0
   -3.9213    4.7551   -0.7665 H   0  0  0  0  0  0  0  0  0  0  0  0
   -4.4374    3.7464   -2.1504 H   0  0  0  0  0  0  0  0  0  0  0  0
   -5.2612    3.5857   -0.5615 H   0  0  0  0  0  0  0  0  0  0  0  0
   -1.9522    3.8839    0.4662 H   0  0  0  0  0  0  0  0  0  0  0  0
    1.0771   -2.6663    1.8113 H   0  0  0  0  0  0  0  0  0  0  0  0
  1  2  1  0
  2  3  1  0
  3  4  2  0
  4  5  1  0
  5  6  2  0
  6  7  1  0
  7  8  1  0
  8  9  1  0
  9 10  2  0
  9 11  2  0
  9 12  1  0
 12 13  2  0
 13 14  1  0
 14 15  1  0
 14 16  1  0
 16 17  2  0
  7 18  2  0
 18  3  1  0
 17 12  1  0
  1 19  1  0
  1 20  1  0
  1 21  1  0
  4 22  1  0
  5 23  1  0
  6 24  1  0
  8 25  1  0
 13 26  1  0
 15 27  1  0
 15 28  1  0
 15 29  1  0
 16 30  1  0
 18 31  1  0
M  END
$$$$
