
     RDKit          3D

 61 67  0  0  0  0  0  0  0  0999 V2000
    4.0437   -2.4653   -0.5600 O   0  0  0  0  0  0  0  0  0  0  0  0
    3.4692   -1.3997   -0.3519 C   0  0  0  0  0  0  0  0  0  0  0  0
    4.3022   -0.2211   -0.0234 C   0  0  0  0  0  0  0  0  0  0  0  0
    4.1720    0.9699   -0.7709 C   0  0  0  0  0  0  0  0  0  0  0  0
    4.9772    2.0744   -0.4795 C   0  0  0  0  0  0  0  0  0  0  0  0
    5.8940    1.9446    0.5429 C   0  0  0  0  0  0  0  0  0  0  0  0
    6.0304    0.7752    1.2570 C   0  0  0  0  0  0  0  0  0  0  0  0
    5.2567   -0.3337    0.9937 C   0  0  0  0  0  0  0  0  0  0  0  0
    6.9936    0.8623    2.2131 O   0  0  0  0  0  0  0  0  0  0  0  0
    7.4545    2.2150    2.0147 C   0  0  0  0  0  0  0  0  0  0  0  0
    6.7561    2.9097    0.9606 O   0  0  0  0  0  0  0  0  0  0  0  0
    2.0797   -1.2361   -0.4395 N   0  0  0  0  0  0  0  0  0  0  0  0
    1.3710   -0.3142    0.4450 C   0  0  0  0  0  0  0  0  0  0  0  0
    0.0075    0.0791   -0.1183 C   0  0  0  0  0  0  0  0  0  0  0  0
   -0.8707   -1.1546   -0.4539 C   0  0  0  0  0  0  0  0  0  0  0  0
   -0.0387   -2.0409   -1.4218 C   0  0  0  0  0  0  0  0  0  0  0  0
    1.3213   -2.4140   -0.8391 C   0  0  0  0  0  0  0  0  0  0  0  0
   -1.0783   -1.8422    0.8042 O   0  0  0  0  0  0  0  0  0  0  0  0
   -2.0003   -2.8515    0.7887 C   0  0  0  0  0  0  0  0  0  0  0  0
   -1.9307   -3.7628    1.8432 C   0  0  0  0  0  0  0  0  0  0  0  0
   -2.8239   -4.8341    1.8963 C   0  0  0  0  0  0  0  0  0  0  0  0
   -3.7825   -4.9822    0.8983 C   0  0  0  0  0  0  0  0  0  0  0  0
   -4.6369   -6.0114    0.9552 F   0  0  0  0  0  0  0  0  0  0  0  0
   -3.8726   -4.0757   -0.1499 C   0  0  0  0  0  0  0  0  0  0  0  0
   -2.9802   -3.0017   -0.1940 C   0  0  0  0  0  0  0  0  0  0  0  0
   -3.0738   -1.9957   -1.2695 C   0  0  0  0  0  0  0  0  0  0  0  0
   -3.8312   -2.1866   -2.2150 O   0  0  0  0  0  0  0  0  0  0  0  0
   -2.2383   -0.7367   -1.0660 C   0  0  0  0  0  0  0  0  0  0  0  0
   -3.0724    0.2300   -0.2315 C   0  0  0  0  0  0  0  0  0  0  0  0
   -2.8374    1.4805   -1.0038 C   0  0  0  0  0  0  0  0  0  0  0  0
   -3.2381    2.8109   -0.4889 C   0  0  0  0  0  0  0  0  0  0  0  0
   -2.9113    3.9525   -1.2341 C   0  0  0  0  0  0  0  0  0  0  0  0
   -3.2680    5.2223   -0.7726 C   0  0  0  0  0  0  0  0  0  0  0  0
   -3.9529    5.3520    0.4333 C   0  0  0  0  0  0  0  0  0  0  0  0
   -4.3894    6.9132    1.0061 Cl  0  0  0  0  0  0  0  0  0  0  0  0
   -4.2872    4.2224    1.1796 C   0  0  0  0  0  0  0  0  0  0  0  0
   -3.9320    2.9502    0.7193 C   0  0  0  0  0  0  0  0  0  0  0  0
   -2.2611    1.3107   -2.1493 N   0  0  0  0  0  0  0  0  0  0  0  0
   -2.0488   -0.0769   -2.3215 O   0  0  0  0  0  0  0  0  0  0  0  0
    3.4511    1.0264   -1.5838 H   0  0  0  0  0  0  0  0  0  0  0  0
    4.8932    2.9978   -1.0415 H   0  0  0  0  0  0  0  0  0  0  0  0
    5.3864   -1.2565    1.5484 H   0  0  0  0  0  0  0  0  0  0  0  0
    8.5229    2.1898    1.7717 H   0  0  0  0  0  0  0  0  0  0  0  0
    7.3190    2.7714    2.9489 H   0  0  0  0  0  0  0  0  0  0  0  0
    1.9543    0.5908    0.6287 H   0  0  0  0  0  0  0  0  0  0  0  0
    1.2650   -0.8118    1.4169 H   0  0  0  0  0  0  0  0  0  0  0  0
   -0.4827    0.7122    0.6297 H   0  0  0  0  0  0  0  0  0  0  0  0
    0.1667    0.6865   -1.0175 H   0  0  0  0  0  0  0  0  0  0  0  0
   -0.5608   -2.9727   -1.6651 H   0  0  0  0  0  0  0  0  0  0  0  0
    0.1172   -1.5069   -2.3681 H   0  0  0  0  0  0  0  0  0  0  0  0
    1.2135   -3.0617    0.0394 H   0  0  0  0  0  0  0  0  0  0  0  0
    1.8872   -2.9790   -1.5891 H   0  0  0  0  0  0  0  0  0  0  0  0
   -1.1742   -3.6494    2.6163 H   0  0  0  0  0  0  0  0  0  0  0  0
   -2.7760   -5.5565    2.7059 H   0  0  0  0  0  0  0  0  0  0  0  0
   -4.6352   -4.2087   -0.9125 H   0  0  0  0  0  0  0  0  0  0  0  0
   -2.7439    0.3077    0.8071 H   0  0  0  0  0  0  0  0  0  0  0  0
   -4.1446    0.0049   -0.2528 H   0  0  0  0  0  0  0  0  0  0  0  0
   -2.3790    3.8621   -2.1798 H   0  0  0  0  0  0  0  0  0  0  0  0
   -3.0106    6.1004   -1.3598 H   0  0  0  0  0  0  0  0  0  0  0  0
   -4.8270    4.3263    2.1179 H   0  0  0  0  0  0  0  0  0  0  0  0
   -4.2152    2.0892    1.3179 H   0  0  0  0  0  0  0  0  0  0  0  0
  1  2  2  0
  2  3  1  0
  3  4  2  0
  4  5  1  0
  5  6  2  0
  6  7  1  0
  7  8  2  0
  7  9  1  0
  9 10  1  0
 10 11  1  0
  2 12  1  0
 12 13  1  0
 13 14  1  0
 14 15  1  0
 15 16  1  0
 16 17  1  0
 15 18  1  0
 18 19  1  0
 19 20  2  0
 20 21  1  0
 21 22  2  0
 22 23  1  0
 22 24  1  0
 24 25  2  0
 25 26  1  0
 26 27  2  0
 26 28  1  0
 28 29  1  0
 29 30  1  0
 30 31  1  0
 31 32  2  0
 32 33  1  0
 33 34  2  0
 34 35  1  0
 34 36  1  0
 36 37  2  0
 30 38  2  0
 38 39  1  0
  8  3  1  0
 17 12  1  0
 25 19  1  0
 39 28  1  0
 11  6  1  0
 28 15  1  0
 37 31  1  0
  4 40  1  0
  5 41  1  0
  8 42  1  0
 10 43  1  0
 10 44  1  0
 13 45  1  0
 13 46  1  0
 14 47  1  0
 14 48  1  0
 16 49  1  0
 16 50  1  0
 17 51  1  0
 17 52  1  0
 20 53  1  0
 21 54  1  0
 24 55  1  0
 29 56  1  0
 29 57  1  0
 32 58  1  0
 33 59  1  0
 36 60  1  0
 37 61  1  0
M  END
$$$$
