
     RDKit          3D

 38 40  0  0  0  0  0  0  0  0999 V2000
   -4.6261    1.8560   -2.1700 C   0  0  0  0  0  0  0  0  0  0  0  0
   -3.8595    1.4120   -0.9565 C   0  0  0  0  0  0  0  0  0  0  0  0
   -4.3478    0.3731   -0.1532 C   0  0  0  0  0  0  0  0  0  0  0  0
   -3.6495   -0.0301    0.9869 C   0  0  0  0  0  0  0  0  0  0  0  0
   -2.4591    0.6166    1.3295 C   0  0  0  0  0  0  0  0  0  0  0  0
   -1.5688    0.0997    2.7801 S   0  0  0  0  0  6  0  0  0  0  0  0
   -2.5328   -0.4599    3.7035 O   0  0  0  0  0  0  0  0  0  0  0  0
   -0.6820    1.1732    3.1771 O   0  0  0  0  0  0  0  0  0  0  0  0
   -0.6599   -1.2087    2.2165 N   0  0  0  0  0  0  0  0  0  0  0  0
    0.1768   -1.0427    1.0766 C   0  0  0  0  0  0  0  0  0  0  0  0
   -0.1557   -1.7022   -0.1072 C   0  0  0  0  0  0  0  0  0  0  0  0
    0.6322   -1.5269   -1.2453 C   0  0  0  0  0  0  0  0  0  0  0  0
    1.7363   -0.6804   -1.2007 C   0  0  0  0  0  0  0  0  0  0  0  0
    2.4327   -0.5355   -2.3689 O   0  0  0  0  0  0  0  0  0  0  0  0
    2.0786   -0.0084   -0.0193 C   0  0  0  0  0  0  0  0  0  0  0  0
    3.4518    1.1268    0.0713 S   0  0  0  0  0  0  0  0  0  0  0  0
    4.7828    0.0314   -0.1830 C   0  0  0  0  0  0  0  0  0  0  0  0
    5.4341   -0.0436   -1.3850 N   0  0  0  0  0  0  0  0  0  0  0  0
    6.3121   -1.0007   -1.1809 C   0  0  0  0  0  0  0  0  0  0  0  0
    6.1691   -1.4900    0.0804 N   0  0  0  0  0  0  0  0  0  0  0  0
    5.1886   -0.8497    0.7359 N   0  0  0  0  0  0  0  0  0  0  0  0
    1.2889   -0.1991    1.1221 C   0  0  0  0  0  0  0  0  0  0  0  0
   -1.9787    1.6791    0.5577 C   0  0  0  0  0  0  0  0  0  0  0  0
   -2.6798    2.0718   -0.5836 C   0  0  0  0  0  0  0  0  0  0  0  0
   -3.9528    2.2677   -2.9307 H   0  0  0  0  0  0  0  0  0  0  0  0
   -5.3532    2.6234   -1.8877 H   0  0  0  0  0  0  0  0  0  0  0  0
   -5.1523    1.0121   -2.6273 H   0  0  0  0  0  0  0  0  0  0  0  0
   -5.2787   -0.1263   -0.4144 H   0  0  0  0  0  0  0  0  0  0  0  0
   -4.0395   -0.8389    1.5988 H   0  0  0  0  0  0  0  0  0  0  0  0
   -1.1669   -2.0868    2.3148 H   0  0  0  0  0  0  0  0  0  0  0  0
   -1.0314   -2.3430   -0.1639 H   0  0  0  0  0  0  0  0  0  0  0  0
    0.3715   -2.0285   -2.1725 H   0  0  0  0  0  0  0  0  0  0  0  0
    3.2061    0.0388   -2.2003 H   0  0  0  0  0  0  0  0  0  0  0  0
    7.0461   -1.3706   -1.8837 H   0  0  0  0  0  0  0  0  0  0  0  0
    6.6899   -2.2177    0.5585 H   0  0  0  0  0  0  0  0  0  0  0  0
    1.5370    0.3127    2.0499 H   0  0  0  0  0  0  0  0  0  0  0  0
   -1.0616    2.1992    0.8312 H   0  0  0  0  0  0  0  0  0  0  0  0
   -2.2984    2.8961   -1.1840 H   0  0  0  0  0  0  0  0  0  0  0  0
  1  2  1  0
  2  3  2  0
  3  4  1  0
  4  5  2  0
  5  6  1  0
  6  7  2  0
  6  8  2  0
  6  9  1  0
  9 10  1  0
 10 11  2  0
 11 12  1  0
 12 13  2  0
 13 14  1  0
 13 15  1  0
 15 16  1  0
 16 17  1  0
 17 18  1  0
 18 19  2  0
 19 20  1  0
 20 21  1  0
 15 22  2  0
  5 23  1  0
 23 24  2  0
 24  2  1  0
 22 10  1  0
 21 17  2  0
  1 25  1  0
  1 26  1  0
  1 27  1  0
  3 28  1  0
  4 29  1  0
  9 30  1  0
 11 31  1  0
 12 32  1  0
 14 33  1  0
 19 34  1  0
 20 35  1  0
 22 36  1  0
 23 37  1  0
 24 38  1  0
M  END
$$$$
