
     RDKit          3D

 55 58  0  0  0  0  0  0  0  0999 V2000
    3.1160   -2.4213    2.6178 O   0  0  0  0  0  0  0  0  0  0  0  0
    2.2799   -1.5510    2.8733 C   0  0  0  0  0  0  0  0  0  0  0  0
    0.9991   -1.8462    3.6279 C   0  0  0  0  0  0  0  0  0  0  0  0
   -0.3538   -2.1917    2.4652 S   0  0  0  0  0  0  0  0  0  0  0  0
   -0.7729   -0.5843    1.9872 C   0  0  0  0  0  0  0  0  0  0  0  0
   -0.3844    0.5035    2.6097 N   0  0  0  0  0  0  0  0  0  0  0  0
   -0.7937    1.5730    1.8633 N   0  0  0  0  0  0  0  0  0  0  0  0
   -1.4408    1.1252    0.7971 C   0  0  0  0  0  0  0  0  0  0  0  0
   -1.9046    1.9696   -0.3029 C   0  0  0  0  0  0  0  0  0  0  0  0
   -0.9691    2.7999   -0.9418 C   0  0  0  0  0  0  0  0  0  0  0  0
   -1.3505    3.6326   -1.9955 C   0  0  0  0  0  0  0  0  0  0  0  0
   -2.6781    3.6546   -2.4176 C   0  0  0  0  0  0  0  0  0  0  0  0
   -3.6263    2.8521   -1.7812 C   0  0  0  0  0  0  0  0  0  0  0  0
   -3.2392    2.0205   -0.7272 C   0  0  0  0  0  0  0  0  0  0  0  0
   -4.1825    1.2539   -0.0999 O   0  0  0  0  0  0  0  0  0  0  0  0
   -1.4830   -0.2571    0.8620 N   0  0  0  0  0  0  0  0  0  0  0  0
   -1.9750   -1.1670   -0.1607 C   0  0  0  0  0  0  0  0  0  0  0  0
   -3.0557   -2.1157    0.3121 C   0  0  0  0  0  0  0  0  0  0  0  0
   -3.0708   -3.4333   -0.1774 C   0  0  0  0  0  0  0  0  0  0  0  0
   -4.0746   -4.3263    0.2035 C   0  0  0  0  0  0  0  0  0  0  0  0
   -5.0837   -3.9147    1.0703 C   0  0  0  0  0  0  0  0  0  0  0  0
   -5.0890   -2.6088    1.5567 C   0  0  0  0  0  0  0  0  0  0  0  0
   -4.0862   -1.7144    1.1752 C   0  0  0  0  0  0  0  0  0  0  0  0
    2.4606   -0.2280    2.5053 N   0  0  0  0  0  0  0  0  0  0  0  0
    3.5286    0.0270    1.6229 N   0  0  0  0  0  0  0  0  0  0  0  0
    3.2610    0.7074    0.4501 C   0  0  0  0  0  0  0  0  0  0  0  0
    2.1947    1.2858    0.2359 O   0  0  0  0  0  0  0  0  0  0  0  0
    4.3312    0.7615   -0.5847 C   0  0  0  0  0  0  0  0  0  0  0  0
    5.3926   -0.1568   -0.6131 C   0  0  0  0  0  0  0  0  0  0  0  0
    6.3846   -0.0576   -1.5960 C   0  0  0  0  0  0  0  0  0  0  0  0
    6.3243    0.9504   -2.5578 C   0  0  0  0  0  0  0  0  0  0  0  0
    5.2646    1.8554   -2.5511 C   0  0  0  0  0  0  0  0  0  0  0  0
    4.2716    1.7554   -1.5776 C   0  0  0  0  0  0  0  0  0  0  0  0
    3.2580    2.6756   -1.6608 O   0  0  0  0  0  0  0  0  0  0  0  0
    1.1670   -2.7377    4.2413 H   0  0  0  0  0  0  0  0  0  0  0  0
    0.7567   -1.0295    4.3156 H   0  0  0  0  0  0  0  0  0  0  0  0
    0.0688    2.8013   -0.6102 H   0  0  0  0  0  0  0  0  0  0  0  0
   -0.6103    4.2680   -2.4784 H   0  0  0  0  0  0  0  0  0  0  0  0
   -2.9752    4.3051   -3.2364 H   0  0  0  0  0  0  0  0  0  0  0  0
   -4.6583    2.8895   -2.1183 H   0  0  0  0  0  0  0  0  0  0  0  0
   -5.0641    1.5407   -0.3895 H   0  0  0  0  0  0  0  0  0  0  0  0
   -2.3535   -0.5979   -1.0137 H   0  0  0  0  0  0  0  0  0  0  0  0
   -1.0979   -1.7223   -0.5157 H   0  0  0  0  0  0  0  0  0  0  0  0
   -2.2937   -3.7776   -0.8572 H   0  0  0  0  0  0  0  0  0  0  0  0
   -4.0676   -5.3456   -0.1761 H   0  0  0  0  0  0  0  0  0  0  0  0
   -5.8656   -4.6090    1.3674 H   0  0  0  0  0  0  0  0  0  0  0  0
   -5.8797   -2.2843    2.2272 H   0  0  0  0  0  0  0  0  0  0  0  0
   -4.1210   -0.6994    1.5665 H   0  0  0  0  0  0  0  0  0  0  0  0
    1.6476    0.3956    2.4175 H   0  0  0  0  0  0  0  0  0  0  0  0
    4.3348   -0.5783    1.7466 H   0  0  0  0  0  0  0  0  0  0  0  0
    5.4678   -0.9731    0.0988 H   0  0  0  0  0  0  0  0  0  0  0  0
    7.2054   -0.7721   -1.6131 H   0  0  0  0  0  0  0  0  0  0  0  0
    7.0990    1.0283   -3.3179 H   0  0  0  0  0  0  0  0  0  0  0  0
    5.2082    2.6382   -3.3036 H   0  0  0  0  0  0  0  0  0  0  0  0
    2.5789    2.4308   -0.9918 H   0  0  0  0  0  0  0  0  0  0  0  0
  1  2  2  0
  2  3  1  0
  3  4  1  0
  4  5  1  0
  5  6  2  0
  6  7  1  0
  7  8  2  0
  8  9  1  0
  9 10  2  0
 10 11  1  0
 11 12  2  0
 12 13  1  0
 13 14  2  0
 14 15  1  0
  8 16  1  0
 16 17  1  0
 17 18  1  0
 18 19  2  0
 19 20  1  0
 20 21  2  0
 21 22  1  0
 22 23  2  0
  2 24  1  0
 24 25  1  0
 25 26  1  0
 26 27  2  0
 26 28  1  0
 28 29  2  0
 29 30  1  0
 30 31  2  0
 31 32  1  0
 32 33  2  0
 33 34  1  0
 16  5  1  0
 23 18  1  0
 33 28  1  0
 14  9  1  0
  3 35  1  0
  3 36  1  0
 10 37  1  0
 11 38  1  0
 12 39  1  0
 13 40  1  0
 15 41  1  0
 17 42  1  0
 17 43  1  0
 19 44  1  0
 20 45  1  0
 21 46  1  0
 22 47  1  0
 23 48  1  0
 24 49  1  0
 25 50  1  0
 29 51  1  0
 30 52  1  0
 31 53  1  0
 32 54  1  0
 34 55  1  0
M  END
$$$$
