
     RDKit          3D

 26 28  0  0  0  0  0  0  0  0999 V2000
    5.6918    0.8137    0.4293 Cl  0  0  0  0  0  0  0  0  0  0  0  0
    4.0272    0.5568    0.0485 C   0  0  0  0  0  0  0  0  0  0  0  0
    3.0708    1.1200    0.8949 C   0  0  0  0  0  0  0  0  0  0  0  0
    1.7087    0.9436    0.6325 C   0  0  0  0  0  0  0  0  0  0  0  0
    1.2819    0.2062   -0.4796 C   0  0  0  0  0  0  0  0  0  0  0  0
   -0.1423    0.0289   -0.7406 C   0  0  0  0  0  0  0  0  0  0  0  0
   -0.7003   -0.0333   -2.0102 N   0  0  0  0  0  0  0  0  0  0  0  0
   -2.0470   -0.2023   -2.0302 N   0  0  0  0  0  0  0  0  0  0  0  0
   -2.3377   -0.2336   -0.7402 C   0  0  0  0  0  0  0  0  0  0  0  0
   -1.2281   -0.0925    0.0898 C   0  0  0  0  0  0  0  0  0  0  0  0
   -1.6026   -0.1412    1.5146 C   0  0  0  0  0  0  0  0  0  0  0  0
   -3.0763   -0.6709    1.4465 C   0  0  0  0  0  0  0  0  0  0  0  0
   -3.6024   -0.3954   -0.0023 C   0  0  0  0  0  0  0  0  0  0  0  0
    2.2491   -0.3592   -1.3221 C   0  0  0  0  0  0  0  0  0  0  0  0
    3.6149   -0.1857   -1.0618 C   0  0  0  0  0  0  0  0  0  0  0  0
    4.7373   -0.9189   -2.1530 Cl  0  0  0  0  0  0  0  0  0  0  0  0
    3.3767    1.7008    1.7621 H   0  0  0  0  0  0  0  0  0  0  0  0
    0.9835    1.4013    1.3024 H   0  0  0  0  0  0  0  0  0  0  0  0
   -0.2201    0.0446   -2.8992 H   0  0  0  0  0  0  0  0  0  0  0  0
   -0.9696   -0.8122    2.1014 H   0  0  0  0  0  0  0  0  0  0  0  0
   -1.5801    0.8605    1.9559 H   0  0  0  0  0  0  0  0  0  0  0  0
   -3.7144   -0.2183    2.2120 H   0  0  0  0  0  0  0  0  0  0  0  0
   -3.0710   -1.7550    1.6216 H   0  0  0  0  0  0  0  0  0  0  0  0
   -4.1884    0.5287   -0.0271 H   0  0  0  0  0  0  0  0  0  0  0  0
   -4.2112   -1.2268   -0.3672 H   0  0  0  0  0  0  0  0  0  0  0  0
    1.9499   -0.9599   -2.1780 H   0  0  0  0  0  0  0  0  0  0  0  0
  1  2  1  0
  2  3  2  0
  3  4  1  0
  4  5  2  0
  5  6  1  0
  6  7  1  0
  7  8  1  0
  8  9  2  0
  9 10  1  0
 10 11  1  0
 11 12  1  0
 12 13  1  0
  5 14  1  0
 14 15  2  0
 15 16  1  0
 15  2  1  0
 10  6  2  0
 13  9  1  0
  3 17  1  0
  4 18  1  0
  7 19  1  0
 11 20  1  0
 11 21  1  0
 12 22  1  0
 12 23  1  0
 13 24  1  0
 13 25  1  0
 14 26  1  0
M  END
$$$$
