
     RDKit          3D

 25 26  0  0  0  0  0  0  0  0999 V2000
   -4.7076   -0.5560    0.0207 O   0  0  0  0  0  0  0  0  0  0  0  0
   -3.5160   -0.3756   -0.1598 C   0  0  0  0  0  0  0  0  0  0  0  0
   -2.6425   -1.0974   -1.1362 C   0  0  0  0  0  0  0  0  0  0  0  0
   -1.4410   -0.1640   -1.2276 C   0  0  0  0  0  0  0  0  0  0  0  0
   -1.3930    0.5698    0.0523 N   0  0  0  0  0  0  0  0  0  0  0  0
   -0.4623   -0.0535    1.0168 C   0  0  0  0  0  0  0  0  0  0  0  0
    0.9950    0.1479    0.6513 C   0  0  0  0  0  0  0  0  0  0  0  0
    1.8607   -0.9513    0.5444 C   0  0  0  0  0  0  0  0  0  0  0  0
    3.2071   -0.7639    0.2211 C   0  0  0  0  0  0  0  0  0  0  0  0
    3.6967    0.5230    0.0083 C   0  0  0  0  0  0  0  0  0  0  0  0
    5.3548    0.7513   -0.3905 Cl  0  0  0  0  0  0  0  0  0  0  0  0
    2.8529    1.6254    0.1179 C   0  0  0  0  0  0  0  0  0  0  0  0
    1.5072    1.4385    0.4415 C   0  0  0  0  0  0  0  0  0  0  0  0
   -2.7105    0.5032    0.5341 N   0  0  0  0  0  0  0  0  0  0  0  0
   -2.3736   -2.0730   -0.7206 H   0  0  0  0  0  0  0  0  0  0  0  0
   -3.1437   -1.2092   -2.1005 H   0  0  0  0  0  0  0  0  0  0  0  0
   -0.5229   -0.7019   -1.4851 H   0  0  0  0  0  0  0  0  0  0  0  0
   -1.6129    0.5673   -2.0278 H   0  0  0  0  0  0  0  0  0  0  0  0
   -0.6043    0.4038    2.0056 H   0  0  0  0  0  0  0  0  0  0  0  0
   -0.6844   -1.1224    1.1372 H   0  0  0  0  0  0  0  0  0  0  0  0
    1.4940   -1.9619    0.7110 H   0  0  0  0  0  0  0  0  0  0  0  0
    3.8671   -1.6233    0.1387 H   0  0  0  0  0  0  0  0  0  0  0  0
    3.2332    2.6299   -0.0463 H   0  0  0  0  0  0  0  0  0  0  0  0
    0.8533    2.3049    0.5246 H   0  0  0  0  0  0  0  0  0  0  0  0
   -3.1073    1.1884    1.1688 H   0  0  0  0  0  0  0  0  0  0  0  0
  1  2  2  0
  2  3  1  0
  3  4  1  0
  4  5  1  0
  5  6  1  0
  6  7  1  0
  7  8  2  0
  8  9  1  0
  9 10  2  0
 10 11  1  0
 10 12  1  0
 12 13  2  0
  5 14  1  0
 14  2  1  0
 13  7  1  0
  3 15  1  0
  3 16  1  0
  4 17  1  0
  4 18  1  0
  6 19  1  0
  6 20  1  0
  8 21  1  0
  9 22  1  0
 12 23  1  0
 13 24  1  0
 14 25  1  0
M  END
$$$$
