
     RDKit          3D

 46 47  0  0  0  0  0  0  0  0999 V2000
    8.1076   -0.2983    1.2287 C   0  0  0  0  0  0  0  0  0  0  0  0
    7.5234    0.0745   -0.0130 O   0  0  0  0  0  0  0  0  0  0  0  0
    6.1896   -0.1841   -0.1697 C   0  0  0  0  0  0  0  0  0  0  0  0
    5.6751    0.1393   -1.4271 C   0  0  0  0  0  0  0  0  0  0  0  0
    4.3275   -0.0769   -1.7245 C   0  0  0  0  0  0  0  0  0  0  0  0
    3.4703   -0.6204   -0.7608 C   0  0  0  0  0  0  0  0  0  0  0  0
    2.0113   -0.8455   -1.0716 C   0  0  0  0  0  0  0  0  0  0  0  0
    1.2106    0.4517   -0.9977 C   0  0  0  0  0  0  0  0  0  0  0  0
   -0.2587    0.2096   -1.2634 C   0  0  0  0  0  0  0  0  0  0  0  0
   -0.7592   -0.9035   -1.3965 O   0  0  0  0  0  0  0  0  0  0  0  0
   -0.9900    1.3802   -1.3359 N   0  0  0  0  0  0  0  0  0  0  0  0
   -2.3939    1.2713   -1.3448 N   0  0  0  0  0  0  0  0  0  0  0  0
   -3.0941    2.1863   -0.5752 C   0  0  0  0  0  0  0  0  0  0  0  0
   -2.5614    3.1833   -0.0842 O   0  0  0  0  0  0  0  0  0  0  0  0
   -4.5693    1.8991   -0.4374 C   0  0  0  0  0  0  0  0  0  0  0  0
   -4.7883    0.6223    0.2111 N   0  0  0  0  0  0  0  0  0  0  0  0
   -4.5463   -0.4993   -0.4998 N   0  0  0  0  0  0  0  0  0  0  0  0
   -4.7752   -1.4932    0.3652 C   0  0  0  0  0  0  0  0  0  0  0  0
   -4.5792   -2.9040   -0.0436 C   0  0  0  0  0  0  0  0  0  0  0  0
   -5.1805   -0.9992    1.6244 C   0  0  0  0  0  0  0  0  0  0  0  0
   -5.1817    0.3740    1.5004 C   0  0  0  0  0  0  0  0  0  0  0  0
   -5.5042    1.4300    2.4902 C   0  0  0  0  0  0  0  0  0  0  0  0
    3.9866   -0.9374    0.5018 C   0  0  0  0  0  0  0  0  0  0  0  0
    5.3384   -0.7230    0.7953 C   0  0  0  0  0  0  0  0  0  0  0  0
    9.1740   -0.0575    1.1823 H   0  0  0  0  0  0  0  0  0  0  0  0
    8.0180   -1.3767    1.4000 H   0  0  0  0  0  0  0  0  0  0  0  0
    7.6729    0.2730    2.0555 H   0  0  0  0  0  0  0  0  0  0  0  0
    6.3323    0.5605   -2.1841 H   0  0  0  0  0  0  0  0  0  0  0  0
    3.9546    0.1800   -2.7136 H   0  0  0  0  0  0  0  0  0  0  0  0
    1.5969   -1.5892   -0.3775 H   0  0  0  0  0  0  0  0  0  0  0  0
    1.9217   -1.2931   -2.0700 H   0  0  0  0  0  0  0  0  0  0  0  0
    1.5837    1.1745   -1.7331 H   0  0  0  0  0  0  0  0  0  0  0  0
    1.3071    0.9024   -0.0020 H   0  0  0  0  0  0  0  0  0  0  0  0
   -0.6247    2.2474   -0.9398 H   0  0  0  0  0  0  0  0  0  0  0  0
   -2.7628    0.3097   -1.4017 H   0  0  0  0  0  0  0  0  0  0  0  0
   -5.0412    1.8690   -1.4251 H   0  0  0  0  0  0  0  0  0  0  0  0
   -5.0469    2.6884    0.1492 H   0  0  0  0  0  0  0  0  0  0  0  0
   -3.5174   -3.1673    0.0067 H   0  0  0  0  0  0  0  0  0  0  0  0
   -4.9286   -3.0708   -1.0679 H   0  0  0  0  0  0  0  0  0  0  0  0
   -5.1299   -3.5828    0.6153 H   0  0  0  0  0  0  0  0  0  0  0  0
   -5.4280   -1.5705    2.5085 H   0  0  0  0  0  0  0  0  0  0  0  0
   -4.6498    2.0983    2.6386 H   0  0  0  0  0  0  0  0  0  0  0  0
   -6.3599    2.0248    2.1541 H   0  0  0  0  0  0  0  0  0  0  0  0
   -5.7624    0.9905    3.4592 H   0  0  0  0  0  0  0  0  0  0  0  0
    3.3401   -1.3589    1.2690 H   0  0  0  0  0  0  0  0  0  0  0  0
    5.6919   -0.9884    1.7861 H   0  0  0  0  0  0  0  0  0  0  0  0
  1  2  1  0
  2  3  1  0
  3  4  2  0
  4  5  1  0
  5  6  2  0
  6  7  1  0
  7  8  1  0
  8  9  1  0
  9 10  2  0
  9 11  1  0
 11 12  1  0
 12 13  1  0
 13 14  2  0
 13 15  1  0
 15 16  1  0
 16 17  1  0
 17 18  2  0
 18 19  1  0
 18 20  1  0
 20 21  2  0
 21 22  1  0
  6 23  1  0
 23 24  2  0
 24  3  1  0
 21 16  1  0
  1 25  1  0
  1 26  1  0
  1 27  1  0
  4 28  1  0
  5 29  1  0
  7 30  1  0
  7 31  1  0
  8 32  1  0
  8 33  1  0
 11 34  1  0
 12 35  1  0
 15 36  1  0
 15 37  1  0
 19 38  1  0
 19 39  1  0
 19 40  1  0
 20 41  1  0
 22 42  1  0
 22 43  1  0
 22 44  1  0
 23 45  1  0
 24 46  1  0
M  END
$$$$
