
     RDKit          3D

 59 62  0  0  0  0  0  0  0  0999 V2000
   -9.1218    0.2126   -1.7724 C   0  0  0  0  0  0  0  0  0  0  0  0
   -7.8468    0.6730   -1.1305 C   0  0  0  0  0  0  0  0  0  0  0  0
   -6.8067    1.1993   -1.9087 C   0  0  0  0  0  0  0  0  0  0  0  0
   -5.6123    1.6051   -1.3103 C   0  0  0  0  0  0  0  0  0  0  0  0
   -5.4405    1.4624    0.0706 C   0  0  0  0  0  0  0  0  0  0  0  0
   -4.1725    1.9249    0.6874 C   0  0  0  0  0  0  0  0  0  0  0  0
   -3.7112    3.0067    0.3265 O   0  0  0  0  0  0  0  0  0  0  0  0
   -3.5766    1.1279    1.6692 N   0  0  0  0  0  0  0  0  0  0  0  0
   -2.3749    1.6612    2.3187 C   0  0  0  0  0  0  0  0  0  0  0  0
   -1.0939    1.2125    1.5870 C   0  0  0  0  0  0  0  0  0  0  0  0
   -1.0713   -0.2738    1.4715 N   0  0  0  0  0  0  0  0  0  0  0  0
    0.1736   -0.7630    1.0479 C   0  0  0  0  0  0  0  0  0  0  0  0
    0.3908   -1.3889   -0.1852 C   0  0  0  0  0  0  0  0  0  0  0  0
    1.6644   -1.8415   -0.5637 C   0  0  0  0  0  0  0  0  0  0  0  0
    2.7528   -1.6941    0.2935 C   0  0  0  0  0  0  0  0  0  0  0  0
    4.0638   -2.1048   -0.0105 N   0  0  0  0  0  0  0  0  0  0  0  0
    4.5581   -2.5658   -1.2150 C   0  0  0  0  0  0  0  0  0  0  0  0
    3.9003   -2.7430   -2.2401 O   0  0  0  0  0  0  0  0  0  0  0  0
    6.0498   -2.8872   -1.2135 C   0  0  0  0  0  0  0  0  0  0  0  0
    6.9885   -2.1011    0.1471 S   0  0  0  0  0  0  0  0  0  0  0  0
    7.4171   -0.5117   -0.5504 C   0  0  0  0  0  0  0  0  0  0  0  0
    6.5340    0.2709   -1.3023 C   0  0  0  0  0  0  0  0  0  0  0  0
    6.9297    1.5253   -1.7834 C   0  0  0  0  0  0  0  0  0  0  0  0
    8.2080    2.0061   -1.5079 C   0  0  0  0  0  0  0  0  0  0  0  0
    8.6889    3.5504   -2.0925 Cl  0  0  0  0  0  0  0  0  0  0  0  0
    9.0943    1.2436   -0.7531 C   0  0  0  0  0  0  0  0  0  0  0  0
    8.6966   -0.0089   -0.2733 C   0  0  0  0  0  0  0  0  0  0  0  0
    2.5461   -1.1050    1.5413 C   0  0  0  0  0  0  0  0  0  0  0  0
    1.2762   -0.6432    1.9068 C   0  0  0  0  0  0  0  0  0  0  0  0
   -2.2850   -0.8143    0.8144 C   0  0  0  0  0  0  0  0  0  0  0  0
   -3.5525   -0.3404    1.5632 C   0  0  0  0  0  0  0  0  0  0  0  0
   -6.4777    0.9500    0.8561 C   0  0  0  0  0  0  0  0  0  0  0  0
   -7.6723    0.5467    0.2537 C   0  0  0  0  0  0  0  0  0  0  0  0
   -9.2535    0.6661   -2.7615 H   0  0  0  0  0  0  0  0  0  0  0  0
   -9.9859    0.5007   -1.1642 H   0  0  0  0  0  0  0  0  0  0  0  0
   -9.1115   -0.8764   -1.8850 H   0  0  0  0  0  0  0  0  0  0  0  0
   -6.9250    1.3081   -2.9840 H   0  0  0  0  0  0  0  0  0  0  0  0
   -4.8182    2.0352   -1.9183 H   0  0  0  0  0  0  0  0  0  0  0  0
   -2.3673    1.2821    3.3469 H   0  0  0  0  0  0  0  0  0  0  0  0
   -2.4202    2.7528    2.3714 H   0  0  0  0  0  0  0  0  0  0  0  0
   -0.2318    1.5850    2.1498 H   0  0  0  0  0  0  0  0  0  0  0  0
   -1.0596    1.6554    0.5844 H   0  0  0  0  0  0  0  0  0  0  0  0
   -0.4214   -1.5329   -0.8927 H   0  0  0  0  0  0  0  0  0  0  0  0
    1.7630   -2.3155   -1.5364 H   0  0  0  0  0  0  0  0  0  0  0  0
    4.7604   -1.9625    0.7152 H   0  0  0  0  0  0  0  0  0  0  0  0
    6.4808   -2.5957   -2.1748 H   0  0  0  0  0  0  0  0  0  0  0  0
    6.1480   -3.9717   -1.1088 H   0  0  0  0  0  0  0  0  0  0  0  0
    5.5227   -0.0564   -1.5203 H   0  0  0  0  0  0  0  0  0  0  0  0
    6.2316    2.1221   -2.3653 H   0  0  0  0  0  0  0  0  0  0  0  0
   10.0911    1.6162   -0.5298 H   0  0  0  0  0  0  0  0  0  0  0  0
    9.4010   -0.5884    0.3222 H   0  0  0  0  0  0  0  0  0  0  0  0
    3.3630   -0.9851    2.2484 H   0  0  0  0  0  0  0  0  0  0  0  0
    1.1461   -0.1956    2.8888 H   0  0  0  0  0  0  0  0  0  0  0  0
   -2.3377   -0.4742   -0.2279 H   0  0  0  0  0  0  0  0  0  0  0  0
   -2.2666   -1.9108    0.8266 H   0  0  0  0  0  0  0  0  0  0  0  0
   -4.4338   -0.7256    1.0467 H   0  0  0  0  0  0  0  0  0  0  0  0
   -3.5573   -0.7390    2.5845 H   0  0  0  0  0  0  0  0  0  0  0  0
   -6.3639    0.8727    1.9338 H   0  0  0  0  0  0  0  0  0  0  0  0
   -8.4709    0.1416    0.8729 H   0  0  0  0  0  0  0  0  0  0  0  0
  1  2  1  0
  2  3  2  0
  3  4  1  0
  4  5  2  0
  5  6  1  0
  6  7  2  0
  6  8  1  0
  8  9  1  0
  9 10  1  0
 10 11  1  0
 11 12  1  0
 12 13  2  0
 13 14  1  0
 14 15  2  0
 15 16  1  0
 16 17  1  0
 17 18  2  0
 17 19  1  0
 19 20  1  0
 20 21  1  0
 21 22  2  0
 22 23  1  0
 23 24  2  0
 24 25  1  0
 24 26  1  0
 26 27  2  0
 15 28  1  0
 28 29  2  0
 11 30  1  0
 30 31  1  0
  5 32  1  0
 32 33  2  0
 33  2  1  0
 31  8  1  0
 29 12  1  0
 27 21  1  0
  1 34  1  0
  1 35  1  0
  1 36  1  0
  3 37  1  0
  4 38  1  0
  9 39  1  0
  9 40  1  0
 10 41  1  0
 10 42  1  0
 13 43  1  0
 14 44  1  0
 16 45  1  0
 19 46  1  0
 19 47  1  0
 22 48  1  0
 23 49  1  0
 26 50  1  0
 27 51  1  0
 28 52  1  0
 29 53  1  0
 30 54  1  0
 30 55  1  0
 31 56  1  0
 31 57  1  0
 32 58  1  0
 33 59  1  0
M  END
$$$$
