
     RDKit          3D

 33 33  0  0  0  0  0  0  0  0999 V2000
   -3.7245    3.6831   -0.5757 C   0  0  0  0  0  0  0  0  0  0  0  0
   -3.6085    2.4986    0.3511 C   0  0  0  0  0  0  0  0  0  0  0  0
   -4.5566    2.1565    1.0495 O   0  0  0  0  0  0  0  0  0  0  0  0
   -2.3781    1.8824    0.2663 N   0  0  0  0  0  0  0  0  0  0  0  0
   -1.9026    0.7783    1.0072 C   0  0  0  0  0  0  0  0  0  0  0  0
   -2.6300    0.1477    2.0175 C   0  0  0  0  0  0  0  0  0  0  0  0
   -2.0713   -0.9202    2.7263 C   0  0  0  0  0  0  0  0  0  0  0  0
   -0.7793   -1.3565    2.4390 C   0  0  0  0  0  0  0  0  0  0  0  0
   -0.0439   -0.7397    1.4278 C   0  0  0  0  0  0  0  0  0  0  0  0
   -0.6128    0.3060    0.6953 C   0  0  0  0  0  0  0  0  0  0  0  0
    0.0619    0.9530   -0.3157 O   0  0  0  0  0  0  0  0  0  0  0  0
    0.6450    0.0746   -1.2718 C   0  0  0  0  0  0  0  0  0  0  0  0
    2.1412   -0.1938   -1.0741 C   0  0  0  0  0  0  0  0  0  0  0  0
    2.8364    0.3754   -0.2394 O   0  0  0  0  0  0  0  0  0  0  0  0
    2.6578   -1.1461   -1.9349 N   0  0  0  0  0  0  0  0  0  0  0  0
    4.0284   -1.6330   -1.7496 C   0  0  0  0  0  0  0  0  0  0  0  0
    4.1794   -2.7396   -0.7016 C   0  0  0  0  0  0  0  0  0  0  0  0
    5.4646   -3.1487   -0.6145 F   0  0  0  0  0  0  0  0  0  0  0  0
    3.7787   -2.3550    0.5265 F   0  0  0  0  0  0  0  0  0  0  0  0
    3.4349   -3.8172   -1.0541 F   0  0  0  0  0  0  0  0  0  0  0  0
   -4.3982    4.4227   -0.1333 H   0  0  0  0  0  0  0  0  0  0  0  0
   -4.1261    3.3505   -1.5364 H   0  0  0  0  0  0  0  0  0  0  0  0
   -2.7538    4.1624   -0.7324 H   0  0  0  0  0  0  0  0  0  0  0  0
   -1.6970    2.2574   -0.3860 H   0  0  0  0  0  0  0  0  0  0  0  0
   -3.6299    0.4722    2.2879 H   0  0  0  0  0  0  0  0  0  0  0  0
   -2.6437   -1.3976    3.5181 H   0  0  0  0  0  0  0  0  0  0  0  0
   -0.3396   -2.1682    3.0136 H   0  0  0  0  0  0  0  0  0  0  0  0
    0.9757   -1.0676    1.2502 H   0  0  0  0  0  0  0  0  0  0  0  0
    0.1026   -0.8780   -1.3408 H   0  0  0  0  0  0  0  0  0  0  0  0
    0.5429    0.5656   -2.2470 H   0  0  0  0  0  0  0  0  0  0  0  0
    2.0173   -1.7282   -2.4627 H   0  0  0  0  0  0  0  0  0  0  0  0
    4.6719   -0.7879   -1.4825 H   0  0  0  0  0  0  0  0  0  0  0  0
    4.3574   -2.0095   -2.7236 H   0  0  0  0  0  0  0  0  0  0  0  0
  1  2  1  0
  2  3  2  0
  2  4  1  0
  4  5  1  0
  5  6  2  0
  6  7  1  0
  7  8  2  0
  8  9  1  0
  9 10  2  0
 10 11  1  0
 11 12  1  0
 12 13  1  0
 13 14  2  0
 13 15  1  0
 15 16  1  0
 16 17  1  0
 17 18  1  0
 17 19  1  0
 17 20  1  0
 10  5  1  0
  1 21  1  0
  1 22  1  0
  1 23  1  0
  4 24  1  0
  6 25  1  0
  7 26  1  0
  8 27  1  0
  9 28  1  0
 12 29  1  0
 12 30  1  0
 15 31  1  0
 16 32  1  0
 16 33  1  0
M  END
$$$$
