
     RDKit          3D

 57 61  0  0  0  0  0  0  0  0999 V2000
   -4.0510   -2.0969   -3.0313 C   0  0  0  0  0  0  0  0  0  0  0  0
   -4.2476   -2.2739   -1.5262 C   0  0  0  0  0  0  0  0  0  0  0  0
   -5.6378   -2.8518   -1.2510 C   0  0  0  0  0  0  0  0  0  0  0  0
   -4.0699   -0.9302   -0.8163 C   0  0  0  0  0  0  0  0  0  0  0  0
   -5.0521   -0.2510   -0.5072 O   0  0  0  0  0  0  0  0  0  0  0  0
   -2.7762   -0.4779   -0.5660 N   0  0  0  0  0  0  0  0  0  0  0  0
   -2.6420    0.8228    0.0841 C   0  0  0  0  0  0  0  0  0  0  0  0
   -1.2615    1.0336    0.6974 C   0  0  0  0  0  0  0  0  0  0  0  0
   -0.1451    0.9043   -0.3687 C   0  0  0  0  0  0  0  0  0  0  0  0
   -0.4253   -0.3102   -1.3073 C   0  0  0  0  0  0  0  0  0  0  0  0
   -1.5461   -1.2224   -0.8169 C   0  0  0  0  0  0  0  0  0  0  0  0
   -0.2466    2.0503   -1.2624 O   0  0  0  0  0  0  0  0  0  0  0  0
    0.3326    3.2220   -0.8740 C   0  0  0  0  0  0  0  0  0  0  0  0
    0.0017    4.3486   -1.6286 C   0  0  0  0  0  0  0  0  0  0  0  0
    0.5271    5.5962   -1.2879 C   0  0  0  0  0  0  0  0  0  0  0  0
    1.3815    5.7079   -0.1953 C   0  0  0  0  0  0  0  0  0  0  0  0
    1.8787    6.9075    0.1306 F   0  0  0  0  0  0  0  0  0  0  0  0
    1.7282    4.5953    0.5592 C   0  0  0  0  0  0  0  0  0  0  0  0
    1.2059    3.3499    0.2030 C   0  0  0  0  0  0  0  0  0  0  0  0
    1.5627    2.1449    0.9620 C   0  0  0  0  0  0  0  0  0  0  0  0
    2.0489    2.2496    2.0844 O   0  0  0  0  0  0  0  0  0  0  0  0
    1.2707    0.8195    0.2704 C   0  0  0  0  0  0  0  0  0  0  0  0
    1.4855   -0.3590    1.2078 C   0  0  0  0  0  0  0  0  0  0  0  0
    2.8888   -0.6983    0.8346 C   0  0  0  0  0  0  0  0  0  0  0  0
    3.7199   -1.6194    1.6454 C   0  0  0  0  0  0  0  0  0  0  0  0
    5.0397   -1.8673    1.2470 C   0  0  0  0  0  0  0  0  0  0  0  0
    5.8475   -2.7341    1.9852 C   0  0  0  0  0  0  0  0  0  0  0  0
    5.3416   -3.3572    3.1242 C   0  0  0  0  0  0  0  0  0  0  0  0
    4.0287   -3.1155    3.5259 C   0  0  0  0  0  0  0  0  0  0  0  0
    3.2162   -2.2494    2.7890 C   0  0  0  0  0  0  0  0  0  0  0  0
    3.3000   -0.1588   -0.2689 N   0  0  0  0  0  0  0  0  0  0  0  0
    2.2595    0.6579   -0.7616 O   0  0  0  0  0  0  0  0  0  0  0  0
   -4.1206   -3.0600   -3.5474 H   0  0  0  0  0  0  0  0  0  0  0  0
   -3.0793   -1.6564   -3.2715 H   0  0  0  0  0  0  0  0  0  0  0  0
   -4.8142   -1.4323   -3.4505 H   0  0  0  0  0  0  0  0  0  0  0  0
   -3.5221   -2.9908   -1.1286 H   0  0  0  0  0  0  0  0  0  0  0  0
   -5.8064   -2.9587   -0.1737 H   0  0  0  0  0  0  0  0  0  0  0  0
   -6.4296   -2.2076   -1.6483 H   0  0  0  0  0  0  0  0  0  0  0  0
   -5.7446   -3.8405   -1.7098 H   0  0  0  0  0  0  0  0  0  0  0  0
   -2.8561    1.5890   -0.6704 H   0  0  0  0  0  0  0  0  0  0  0  0
   -3.4039    0.9166    0.8668 H   0  0  0  0  0  0  0  0  0  0  0  0
   -1.1165    0.2994    1.4989 H   0  0  0  0  0  0  0  0  0  0  0  0
   -1.2480    2.0238    1.1667 H   0  0  0  0  0  0  0  0  0  0  0  0
   -0.6981    0.0488   -2.3094 H   0  0  0  0  0  0  0  0  0  0  0  0
    0.4719   -0.9221   -1.4522 H   0  0  0  0  0  0  0  0  0  0  0  0
   -1.6980   -2.0172   -1.5483 H   0  0  0  0  0  0  0  0  0  0  0  0
   -1.2695   -1.7126    0.1231 H   0  0  0  0  0  0  0  0  0  0  0  0
   -0.6709    4.2571   -2.4783 H   0  0  0  0  0  0  0  0  0  0  0  0
    0.2745    6.4806   -1.8651 H   0  0  0  0  0  0  0  0  0  0  0  0
    2.4037    4.7038    1.4025 H   0  0  0  0  0  0  0  0  0  0  0  0
    1.3721   -0.1144    2.2660 H   0  0  0  0  0  0  0  0  0  0  0  0
    0.8606   -1.2227    0.9667 H   0  0  0  0  0  0  0  0  0  0  0  0
    5.4492   -1.3857    0.3611 H   0  0  0  0  0  0  0  0  0  0  0  0
    6.8716   -2.9196    1.6710 H   0  0  0  0  0  0  0  0  0  0  0  0
    5.9724   -4.0298    3.7002 H   0  0  0  0  0  0  0  0  0  0  0  0
    3.6383   -3.6013    4.4171 H   0  0  0  0  0  0  0  0  0  0  0  0
    2.1994   -2.0844    3.1307 H   0  0  0  0  0  0  0  0  0  0  0  0
  1  2  1  0
  2  3  1  0
  2  4  1  0
  4  5  2  0
  4  6  1  0
  6  7  1  0
  7  8  1  0
  8  9  1  0
  9 10  1  0
 10 11  1  0
  9 12  1  0
 12 13  1  0
 13 14  2  0
 14 15  1  0
 15 16  2  0
 16 17  1  0
 16 18  1  0
 18 19  2  0
 19 20  1  0
 20 21  2  0
 20 22  1  0
 22 23  1  0
 23 24  1  0
 24 25  1  0
 25 26  2  0
 26 27  1  0
 27 28  2  0
 28 29  1  0
 29 30  2  0
 24 31  2  0
 31 32  1  0
 11  6  1  0
 19 13  1  0
 32 22  1  0
 22  9  1  0
 30 25  1  0
  1 33  1  0
  1 34  1  0
  1 35  1  0
  2 36  1  0
  3 37  1  0
  3 38  1  0
  3 39  1  0
  7 40  1  0
  7 41  1  0
  8 42  1  0
  8 43  1  0
 10 44  1  0
 10 45  1  0
 11 46  1  0
 11 47  1  0
 14 48  1  0
 15 49  1  0
 18 50  1  0
 23 51  1  0
 23 52  1  0
 26 53  1  0
 27 54  1  0
 28 55  1  0
 29 56  1  0
 30 57  1  0
M  END
$$$$
