
     RDKit          3D

 38 40  0  0  0  0  0  0  0  0999 V2000
    0.5624   -2.0957    0.9850 O   0  0  0  0  0  0  0  0  0  0  0  0
    0.4640   -1.3635    0.0040 C   0  0  0  0  0  0  0  0  0  0  0  0
    1.5405   -1.0216   -0.7714 N   0  0  0  0  0  0  0  0  0  0  0  0
    2.8727   -1.4725   -0.4315 C   0  0  0  0  0  0  0  0  0  0  0  0
    3.6163   -0.4278    0.3645 C   0  0  0  0  0  0  0  0  0  0  0  0
    4.4952    0.4636   -0.2688 C   0  0  0  0  0  0  0  0  0  0  0  0
    5.1635    1.4429    0.4704 C   0  0  0  0  0  0  0  0  0  0  0  0
    4.9512    1.5402    1.8442 C   0  0  0  0  0  0  0  0  0  0  0  0
    5.7737    2.7489    2.7516 Cl  0  0  0  0  0  0  0  0  0  0  0  0
    4.0753    0.6682    2.4858 C   0  0  0  0  0  0  0  0  0  0  0  0
    3.4082   -0.3114    1.7472 C   0  0  0  0  0  0  0  0  0  0  0  0
   -0.7401   -0.8099   -0.4035 N   0  0  0  0  0  0  0  0  0  0  0  0
   -1.0376   -0.4445   -1.7885 C   0  0  0  0  0  0  0  0  0  0  0  0
   -1.9681    0.7644   -1.8480 C   0  0  0  0  0  0  0  0  0  0  0  0
   -3.1781    0.5805   -0.9698 C   0  0  0  0  0  0  0  0  0  0  0  0
   -4.3357    1.3357   -1.2035 C   0  0  0  0  0  0  0  0  0  0  0  0
   -5.4495    1.1928   -0.3770 C   0  0  0  0  0  0  0  0  0  0  0  0
   -5.4133    0.3025    0.6929 C   0  0  0  0  0  0  0  0  0  0  0  0
   -4.2608   -0.4433    0.9410 C   0  0  0  0  0  0  0  0  0  0  0  0
   -3.1303   -0.3066    0.1208 C   0  0  0  0  0  0  0  0  0  0  0  0
   -1.9031   -1.1408    0.4147 C   0  0  0  0  0  0  0  0  0  0  0  0
    1.4910   -0.0911   -1.1548 H   0  0  0  0  0  0  0  0  0  0  0  0
    3.3942   -1.6655   -1.3757 H   0  0  0  0  0  0  0  0  0  0  0  0
    2.8396   -2.4206    0.1171 H   0  0  0  0  0  0  0  0  0  0  0  0
    4.6676    0.3998   -1.3411 H   0  0  0  0  0  0  0  0  0  0  0  0
    5.8456    2.1252   -0.0296 H   0  0  0  0  0  0  0  0  0  0  0  0
    3.9033    0.7449    3.5560 H   0  0  0  0  0  0  0  0  0  0  0  0
    2.7170   -0.9847    2.2537 H   0  0  0  0  0  0  0  0  0  0  0  0
   -0.1319   -0.2339   -2.3627 H   0  0  0  0  0  0  0  0  0  0  0  0
   -1.5067   -1.3196   -2.2571 H   0  0  0  0  0  0  0  0  0  0  0  0
   -2.2747    0.9277   -2.8877 H   0  0  0  0  0  0  0  0  0  0  0  0
   -1.4327    1.6592   -1.5073 H   0  0  0  0  0  0  0  0  0  0  0  0
   -4.3749    2.0402   -2.0310 H   0  0  0  0  0  0  0  0  0  0  0  0
   -6.3451    1.7788   -0.5660 H   0  0  0  0  0  0  0  0  0  0  0  0
   -6.2815    0.1911    1.3373 H   0  0  0  0  0  0  0  0  0  0  0  0
   -4.2456   -1.1326    1.7830 H   0  0  0  0  0  0  0  0  0  0  0  0
   -1.6315   -1.0240    1.4711 H   0  0  0  0  0  0  0  0  0  0  0  0
   -2.1402   -2.1971    0.2350 H   0  0  0  0  0  0  0  0  0  0  0  0
  1  2  2  0
  2  3  1  0
  3  4  1  0
  4  5  1  0
  5  6  2  0
  6  7  1  0
  7  8  2  0
  8  9  1  0
  8 10  1  0
 10 11  2  0
  2 12  1  0
 12 13  1  0
 13 14  1  0
 14 15  1  0
 15 16  2  0
 16 17  1  0
 17 18  2  0
 18 19  1  0
 19 20  2  0
 20 21  1  0
 11  5  1  0
 21 12  1  0
 20 15  1  0
  3 22  1  0
  4 23  1  0
  4 24  1  0
  6 25  1  0
  7 26  1  0
 10 27  1  0
 11 28  1  0
 13 29  1  0
 13 30  1  0
 14 31  1  0
 14 32  1  0
 16 33  1  0
 17 34  1  0
 18 35  1  0
 19 36  1  0
 21 37  1  0
 21 38  1  0
M  END
$$$$
