
     RDKit          3D

 67 72  0  0  0  0  0  0  0  0999 V2000
   -4.2899    4.9741   -0.1289 C   0  0  0  0  0  0  0  0  0  0  0  0
   -3.4279    3.8923   -0.6992 C   0  0  0  0  0  0  0  0  0  0  0  0
   -3.3868    3.6530   -2.0796 C   0  0  0  0  0  0  0  0  0  0  0  0
   -2.5981    2.6198   -2.6160 C   0  0  0  0  0  0  0  0  0  0  0  0
   -1.8277    1.8016   -1.7869 C   0  0  0  0  0  0  0  0  0  0  0  0
   -1.8541    2.0347   -0.4206 C   0  0  0  0  0  0  0  0  0  0  0  0
   -2.6584    3.0597    0.0987 C   0  0  0  0  0  0  0  0  0  0  0  0
   -2.5729    3.0793    1.4863 N   0  0  0  0  0  0  0  0  0  0  0  0
   -1.7164    2.0873    1.9674 C   0  0  0  0  0  0  0  0  0  0  0  0
   -1.4887    1.8930    3.1517 O   0  0  0  0  0  0  0  0  0  0  0  0
   -1.1599    1.3399    0.7222 C   0  0  1  0  0  0  0  0  0  0  0  0
   -1.5247   -0.0946    0.6677 C   0  0  0  0  0  0  0  0  0  0  0  0
   -0.3879   -0.8885    0.4988 C   0  0  0  0  0  0  0  0  0  0  0  0
   -0.7639   -2.2045    0.4758 C   0  0  0  0  0  0  0  0  0  0  0  0
   -0.0057   -3.2963    0.4103 O   0  0  0  0  0  0  0  0  0  0  0  0
   -2.1723   -2.2468    0.5994 N   0  0  0  0  0  0  0  0  0  0  0  0
   -2.9922   -3.4293    0.6082 C   0  0  0  0  0  0  0  0  0  0  0  0
   -2.5475   -4.6181    0.0105 C   0  0  0  0  0  0  0  0  0  0  0  0
   -3.3473   -5.7662    0.0185 C   0  0  0  0  0  0  0  0  0  0  0  0
   -4.5994   -5.7438    0.6246 C   0  0  0  0  0  0  0  0  0  0  0  0
   -5.0533   -4.5729    1.2234 C   0  0  0  0  0  0  0  0  0  0  0  0
   -4.2568   -3.4226    1.2153 C   0  0  0  0  0  0  0  0  0  0  0  0
   -2.6264   -0.9114    0.7088 C   0  0  0  0  0  0  0  0  0  0  0  0
   -3.9165   -0.5887    0.7714 O   0  0  0  0  0  0  0  0  0  0  0  0
    0.8445   -0.0698    0.4102 C   0  0  1  0  0  0  0  0  0  0  0  0
    1.5115   -0.1533   -0.9825 C   0  0  0  0  0  0  0  0  0  0  0  0
    2.4157    0.9768   -1.1855 N   0  0  0  0  0  0  0  0  0  0  0  0
    3.7577    0.9081   -0.8442 C   0  0  0  0  0  0  0  0  0  0  0  0
    4.4726    1.8925   -0.7130 O   0  0  0  0  0  0  0  0  0  0  0  0
    4.1716   -0.3722   -0.6640 O   0  0  0  0  0  0  0  0  0  0  0  0
    5.5394   -0.6703   -0.2836 C   0  0  0  0  0  0  0  0  0  0  0  0
    5.5895   -2.2033   -0.1940 C   0  0  0  0  0  0  0  0  0  0  0  0
    6.5329   -0.2108   -1.3560 C   0  0  0  0  0  0  0  0  0  0  0  0
    5.8712   -0.0898    1.0955 C   0  0  0  0  0  0  0  0  0  0  0  0
    1.7494    2.2717   -1.0946 C   0  0  0  0  0  0  0  0  0  0  0  0
    1.1021    2.4378    0.2956 C   0  0  0  0  0  0  0  0  0  0  0  0
    0.3210    1.2906    0.7445 N   0  0  0  0  0  0  0  0  0  0  0  0
   -4.7092    5.6092   -0.9164 H   0  0  0  0  0  0  0  0  0  0  0  0
   -3.7054    5.6195    0.5351 H   0  0  0  0  0  0  0  0  0  0  0  0
   -5.1216    4.5367    0.4328 H   0  0  0  0  0  0  0  0  0  0  0  0
   -3.9773    4.2651   -2.7595 H   0  0  0  0  0  0  0  0  0  0  0  0
   -2.5955    2.4517   -3.6914 H   0  0  0  0  0  0  0  0  0  0  0  0
   -1.2397    0.9957   -2.2126 H   0  0  0  0  0  0  0  0  0  0  0  0
   -3.0562    3.7158    2.1025 H   0  0  0  0  0  0  0  0  0  0  0  0
    0.9232   -3.0294    0.5187 H   0  0  0  0  0  0  0  0  0  0  0  0
   -1.5936   -4.6770   -0.5037 H   0  0  0  0  0  0  0  0  0  0  0  0
   -2.9891   -6.6763   -0.4556 H   0  0  0  0  0  0  0  0  0  0  0  0
   -5.2188   -6.6363    0.6317 H   0  0  0  0  0  0  0  0  0  0  0  0
   -6.0268   -4.5506    1.7063 H   0  0  0  0  0  0  0  0  0  0  0  0
   -4.6396   -2.5453    1.7275 H   0  0  0  0  0  0  0  0  0  0  0  0
   -3.9925    0.3811    0.7451 H   0  0  0  0  0  0  0  0  0  0  0  0
    1.5628   -0.3588    1.1865 H   0  0  0  0  0  0  0  0  0  0  0  0
    0.7655   -0.1141   -1.7850 H   0  0  0  0  0  0  0  0  0  0  0  0
    2.0321   -1.1103   -1.0946 H   0  0  0  0  0  0  0  0  0  0  0  0
    5.3219   -2.6588   -1.1548 H   0  0  0  0  0  0  0  0  0  0  0  0
    6.5827   -2.5626    0.0946 H   0  0  0  0  0  0  0  0  0  0  0  0
    4.8614   -2.5745    0.5370 H   0  0  0  0  0  0  0  0  0  0  0  0
    7.5401   -0.5911   -1.1544 H   0  0  0  0  0  0  0  0  0  0  0  0
    6.2222   -0.5558   -2.3484 H   0  0  0  0  0  0  0  0  0  0  0  0
    6.6018    0.8795   -1.4094 H   0  0  0  0  0  0  0  0  0  0  0  0
    5.1035   -0.3649    1.8274 H   0  0  0  0  0  0  0  0  0  0  0  0
    5.9123    1.0033    1.0807 H   0  0  0  0  0  0  0  0  0  0  0  0
    6.8412   -0.4490    1.4556 H   0  0  0  0  0  0  0  0  0  0  0  0
    0.9939    2.3138   -1.8851 H   0  0  0  0  0  0  0  0  0  0  0  0
    2.4582    3.0866   -1.2755 H   0  0  0  0  0  0  0  0  0  0  0  0
    0.5254    3.3685    0.3325 H   0  0  0  0  0  0  0  0  0  0  0  0
    1.9126    2.5693    1.0241 H   0  0  0  0  0  0  0  0  0  0  0  0
  1  2  1  0
  2  3  2  0
  3  4  1  0
  4  5  2  0
  5  6  1  0
  6  7  2  0
  7  8  1  0
  8  9  1  0
  9 10  2  0
  9 11  1  0
 11 12  1  0
 12 13  1  0
 13 14  2  0
 14 15  1  0
 14 16  1  0
 16 17  1  0
 17 18  2  0
 18 19  1  0
 19 20  2  0
 20 21  1  0
 21 22  2  0
 16 23  1  0
 23 24  1  0
 13 25  1  0
 25 26  1  0
 26 27  1  0
 27 28  1  0
 28 29  2  0
 28 30  1  0
 30 31  1  0
 31 32  1  0
 31 33  1  0
 31 34  1  0
 27 35  1  0
 35 36  1  0
 36 37  1  0
  7  2  1  0
 11 37  1  6
 11  6  1  0
 23 12  2  0
 37 25  1  0
 22 17  1  0
  1 38  1  0
  1 39  1  0
  1 40  1  0
  3 41  1  0
  4 42  1  0
  5 43  1  0
  8 44  1  0
 15 45  1  0
 18 46  1  0
 19 47  1  0
 20 48  1  0
 21 49  1  0
 22 50  1  0
 24 51  1  0
 25 52  1  1
 26 53  1  0
 26 54  1  0
 32 55  1  0
 32 56  1  0
 32 57  1  0
 33 58  1  0
 33 59  1  0
 33 60  1  0
 34 61  1  0
 34 62  1  0
 34 63  1  0
 35 64  1  0
 35 65  1  0
 36 66  1  0
 36 67  1  0
M  END
$$$$
