
     RDKit          3D

 49 50  0  0  0  0  0  0  0  0999 V2000
    3.5530   -1.1917    0.6873 C   0  0  0  0  0  0  0  0  0  0  0  0
    3.0271   -2.2034   -0.3270 C   0  0  0  0  0  0  0  0  0  0  0  0
    1.5934   -2.6140    0.0034 C   0  0  0  0  0  0  0  0  0  0  0  0
    3.1974   -1.7519   -1.7903 C   0  0  0  0  0  0  0  0  0  0  0  0
    2.3380   -0.5881   -2.2967 C   0  0  0  0  0  0  0  0  0  0  0  0
    2.7958    0.7422   -1.8011 N   0  0  0  0  0  4  0  0  0  0  0  0
    4.0457    1.1534   -2.1426 C   0  0  0  0  0  0  0  0  0  0  0  0
    4.5563    2.3711   -1.7152 C   0  0  0  0  0  0  0  0  0  0  0  0
    3.7678    3.2041   -0.9427 C   0  0  0  0  0  0  0  0  0  0  0  0
    2.4762    2.8055   -0.6307 C   0  0  0  0  0  0  0  0  0  0  0  0
    1.9857    1.5664   -1.0730 C   0  0  0  0  0  0  0  0  0  0  0  0
    0.5910    1.2118   -0.7921 C   0  0  0  0  0  0  0  0  0  0  0  0
    0.1061    1.1127    0.4563 C   0  0  0  0  0  0  0  0  0  0  0  0
   -1.2947    0.7906    0.7596 C   0  0  0  0  0  0  0  0  0  0  0  0
   -1.9090    1.4035    1.8503 C   0  0  0  0  0  0  0  0  0  0  0  0
   -3.2402    1.1076    2.1844 C   0  0  0  0  0  0  0  0  0  0  0  0
   -4.0085    0.1768    1.4656 C   0  0  0  0  0  0  0  0  0  0  0  0
   -5.3402   -0.0978    1.7858 N   0  0  0  0  0  0  0  0  0  0  0  0
   -5.9766   -1.2970    1.2415 C   0  0  0  0  0  0  0  0  0  0  0  0
   -5.8946    0.3909    3.0482 C   0  0  0  0  0  0  0  0  0  0  0  0
   -3.3620   -0.4311    0.3761 C   0  0  0  0  0  0  0  0  0  0  0  0
   -2.0318   -0.1417    0.0306 C   0  0  0  0  0  0  0  0  0  0  0  0
    4.5613   -0.8571    0.4232 H   0  0  0  0  0  0  0  0  0  0  0  0
    2.9070   -0.3162    0.7688 H   0  0  0  0  0  0  0  0  0  0  0  0
    3.6061   -1.6459    1.6831 H   0  0  0  0  0  0  0  0  0  0  0  0
    3.6466   -3.1042   -0.2156 H   0  0  0  0  0  0  0  0  0  0  0  0
    0.9118   -1.7605   -0.0040 H   0  0  0  0  0  0  0  0  0  0  0  0
    1.5437   -3.0667    0.9997 H   0  0  0  0  0  0  0  0  0  0  0  0
    1.2237   -3.3522   -0.7159 H   0  0  0  0  0  0  0  0  0  0  0  0
    2.9538   -2.6177   -2.4218 H   0  0  0  0  0  0  0  0  0  0  0  0
    4.2601   -1.5556   -1.9713 H   0  0  0  0  0  0  0  0  0  0  0  0
    2.4153   -0.5227   -3.3900 H   0  0  0  0  0  0  0  0  0  0  0  0
    1.2847   -0.7536   -2.0708 H   0  0  0  0  0  0  0  0  0  0  0  0
    4.6404    0.4942   -2.7694 H   0  0  0  0  0  0  0  0  0  0  0  0
    5.5650    2.6718   -1.9914 H   0  0  0  0  0  0  0  0  0  0  0  0
    4.1461    4.1666   -0.6016 H   0  0  0  0  0  0  0  0  0  0  0  0
    1.8401    3.4759   -0.0532 H   0  0  0  0  0  0  0  0  0  0  0  0
   -0.0504    1.0675   -1.6579 H   0  0  0  0  0  0  0  0  0  0  0  0
    0.7362    1.2913    1.3267 H   0  0  0  0  0  0  0  0  0  0  0  0
   -1.3756    2.1327    2.4562 H   0  0  0  0  0  0  0  0  0  0  0  0
   -3.6591    1.6367    3.0356 H   0  0  0  0  0  0  0  0  0  0  0  0
   -7.0084   -1.3990    1.5960 H   0  0  0  0  0  0  0  0  0  0  0  0
   -5.4342   -2.2002    1.5424 H   0  0  0  0  0  0  0  0  0  0  0  0
   -6.0374   -1.2510    0.1490 H   0  0  0  0  0  0  0  0  0  0  0  0
   -6.9532    0.1259    3.1477 H   0  0  0  0  0  0  0  0  0  0  0  0
   -5.8534    1.4842    3.1022 H   0  0  0  0  0  0  0  0  0  0  0  0
   -5.3631   -0.0409    3.9033 H   0  0  0  0  0  0  0  0  0  0  0  0
   -3.8842   -1.1539   -0.2441 H   0  0  0  0  0  0  0  0  0  0  0  0
   -1.5987   -0.6697   -0.8134 H   0  0  0  0  0  0  0  0  0  0  0  0
  1  2  1  0
  2  3  1  0
  2  4  1  0
  4  5  1  0
  5  6  1  0
  6  7  2  0
  7  8  1  0
  8  9  2  0
  9 10  1  0
 10 11  2  0
 11 12  1  0
 12 13  2  3
 13 14  1  0
 14 15  2  0
 15 16  1  0
 16 17  2  0
 17 18  1  0
 18 19  1  0
 18 20  1  0
 17 21  1  0
 21 22  2  0
 11  6  1  0
 22 14  1  0
  1 23  1  0
  1 24  1  0
  1 25  1  0
  2 26  1  0
  3 27  1  0
  3 28  1  0
  3 29  1  0
  4 30  1  0
  4 31  1  0
  5 32  1  0
  5 33  1  0
  7 34  1  0
  8 35  1  0
  9 36  1  0
 10 37  1  0
 12 38  1  0
 13 39  1  0
 15 40  1  0
 16 41  1  0
 19 42  1  0
 19 43  1  0
 19 44  1  0
 20 45  1  0
 20 46  1  0
 20 47  1  0
 21 48  1  0
 22 49  1  0
M  CHG  1   6   1
M  END
$$$$
