
     RDKit          3D

 34 35  0  0  0  0  0  0  0  0999 V2000
    4.9749   -0.0623    0.1940 C   0  0  0  0  0  0  0  0  0  0  0  0
    3.9283   -0.9803   -0.4091 C   0  0  0  0  0  0  0  0  0  0  0  0
    2.6351   -0.3643   -0.3404 O   0  0  0  0  0  0  0  0  0  0  0  0
    1.9518   -0.5810    0.8007 C   0  0  0  0  0  0  0  0  0  0  0  0
    2.3012   -1.1885    1.7944 O   0  0  0  0  0  0  0  0  0  0  0  0
    0.6139    0.1350    0.7147 C   0  0  0  0  0  0  0  0  0  0  0  0
   -0.3129   -0.4501    0.0317 N   0  0  0  0  0  0  0  0  0  0  0  0
   -1.5474    0.1565   -0.0780 N   0  0  0  0  0  0  0  0  0  0  0  0
   -2.4879   -0.6046   -0.8692 C   0  0  0  0  0  0  0  0  0  0  0  0
   -2.1004   -1.8396   -1.4304 C   0  0  0  0  0  0  0  0  0  0  0  0
   -2.9775   -2.6100   -2.2032 C   0  0  0  0  0  0  0  0  0  0  0  0
   -4.2714   -2.1642   -2.4367 C   0  0  0  0  0  0  0  0  0  0  0  0
   -4.6827   -0.9515   -1.8972 C   0  0  0  0  0  0  0  0  0  0  0  0
   -3.8014   -0.1823   -1.1234 C   0  0  0  0  0  0  0  0  0  0  0  0
   -1.8320    1.3888    0.5280 C   0  0  0  0  0  0  0  0  0  0  0  0
   -2.9000    1.9965    0.4793 O   0  0  0  0  0  0  0  0  0  0  0  0
   -0.7158    2.0128    1.3038 C   0  0  0  0  0  0  0  0  0  0  0  0
   -0.9895    3.2662    1.9236 C   0  0  0  0  0  0  0  0  0  0  0  0
   -1.1398    4.2887    2.4522 N   0  0  0  0  0  0  0  0  0  0  0  0
    0.4888    1.4295    1.4159 C   0  0  0  0  0  0  0  0  0  0  0  0
    1.6772    1.9632    2.1606 C   0  0  0  0  0  0  0  0  0  0  0  0
    4.7747    0.1174    1.2551 H   0  0  0  0  0  0  0  0  0  0  0  0
    5.9743   -0.4954    0.0955 H   0  0  0  0  0  0  0  0  0  0  0  0
    4.9619    0.9138   -0.3019 H   0  0  0  0  0  0  0  0  0  0  0  0
    4.1492   -1.1463   -1.4686 H   0  0  0  0  0  0  0  0  0  0  0  0
    3.9285   -1.9619    0.0789 H   0  0  0  0  0  0  0  0  0  0  0  0
   -1.0982   -2.2320   -1.2751 H   0  0  0  0  0  0  0  0  0  0  0  0
   -2.6433   -3.5571   -2.6185 H   0  0  0  0  0  0  0  0  0  0  0  0
   -4.9569   -2.7579   -3.0353 H   0  0  0  0  0  0  0  0  0  0  0  0
   -5.6943   -0.5933   -2.0737 H   0  0  0  0  0  0  0  0  0  0  0  0
   -4.1965    0.7509   -0.7379 H   0  0  0  0  0  0  0  0  0  0  0  0
    1.9488    1.2906    2.9807 H   0  0  0  0  0  0  0  0  0  0  0  0
    1.5021    2.9493    2.5998 H   0  0  0  0  0  0  0  0  0  0  0  0
    2.5369    2.0638    1.4896 H   0  0  0  0  0  0  0  0  0  0  0  0
  1  2  1  0
  2  3  1  0
  3  4  1  0
  4  5  2  0
  4  6  1  0
  6  7  2  0
  7  8  1  0
  8  9  1  0
  9 10  2  0
 10 11  1  0
 11 12  2  0
 12 13  1  0
 13 14  2  0
  8 15  1  0
 15 16  2  0
 15 17  1  0
 17 18  1  0
 18 19  3  0
 17 20  2  0
 20 21  1  0
 20  6  1  0
 14  9  1  0
  1 22  1  0
  1 23  1  0
  1 24  1  0
  2 25  1  0
  2 26  1  0
 10 27  1  0
 11 28  1  0
 12 29  1  0
 13 30  1  0
 14 31  1  0
 21 32  1  0
 21 33  1  0
 21 34  1  0
M  END
$$$$
