
     RDKit          3D

 44 46  0  0  0  0  0  0  0  0999 V2000
    6.2652    1.6165   -1.9364 C   0  0  0  0  0  0  0  0  0  0  0  0
    4.9387    1.1813   -1.3745 C   0  0  0  0  0  0  0  0  0  0  0  0
    4.8992    0.1273   -0.4512 C   0  0  0  0  0  0  0  0  0  0  0  0
    3.6867   -0.3022    0.0903 C   0  0  0  0  0  0  0  0  0  0  0  0
    2.4867    0.3122   -0.2813 C   0  0  0  0  0  0  0  0  0  0  0  0
    1.2149   -0.1878    0.3294 C   0  0  0  0  0  0  0  0  0  0  0  0
    1.2791   -1.0318    1.2221 O   0  0  0  0  0  0  0  0  0  0  0  0
   -0.1041    0.3881   -0.1819 C   0  0  0  0  0  0  0  0  0  0  0  0
   -1.2107   -0.3010    0.3815 O   0  0  0  0  0  0  0  0  0  0  0  0
   -2.4743    0.1533    0.0946 C   0  0  0  0  0  0  0  0  0  0  0  0
   -2.7404    1.2425   -0.7481 C   0  0  0  0  0  0  0  0  0  0  0  0
   -4.0536    1.6466   -0.9976 C   0  0  0  0  0  0  0  0  0  0  0  0
   -5.1140    0.9684   -0.4101 C   0  0  0  0  0  0  0  0  0  0  0  0
   -4.8612   -0.1192    0.4254 C   0  0  0  0  0  0  0  0  0  0  0  0
   -3.5460   -0.5514    0.6928 C   0  0  0  0  0  0  0  0  0  0  0  0
   -3.3430   -1.7170    1.5802 C   0  0  0  0  0  0  0  0  0  0  0  0
   -2.5537   -1.6262    2.7382 C   0  0  0  0  0  0  0  0  0  0  0  0
   -2.3760   -2.7276    3.5799 C   0  0  0  0  0  0  0  0  0  0  0  0
   -2.9899   -3.9409    3.2806 C   0  0  0  0  0  0  0  0  0  0  0  0
   -3.7777   -4.0547    2.1384 C   0  0  0  0  0  0  0  0  0  0  0  0
   -3.9516   -2.9526    1.2964 C   0  0  0  0  0  0  0  0  0  0  0  0
    2.5190    1.3687   -1.2011 C   0  0  0  0  0  0  0  0  0  0  0  0
    3.7361    1.8102   -1.7538 C   0  0  0  0  0  0  0  0  0  0  0  0
    3.7288    2.9489   -2.7387 C   0  0  0  0  0  0  0  0  0  0  0  0
    6.4618    2.6624   -1.6803 H   0  0  0  0  0  0  0  0  0  0  0  0
    7.0889    1.0181   -1.5327 H   0  0  0  0  0  0  0  0  0  0  0  0
    6.2747    1.4977   -3.0244 H   0  0  0  0  0  0  0  0  0  0  0  0
    5.8161   -0.3717   -0.1429 H   0  0  0  0  0  0  0  0  0  0  0  0
    3.6861   -1.1233    0.8056 H   0  0  0  0  0  0  0  0  0  0  0  0
   -0.1295    0.2720   -1.2711 H   0  0  0  0  0  0  0  0  0  0  0  0
   -0.1322    1.4423    0.1174 H   0  0  0  0  0  0  0  0  0  0  0  0
   -1.9471    1.8009   -1.2323 H   0  0  0  0  0  0  0  0  0  0  0  0
   -4.2473    2.4933   -1.6512 H   0  0  0  0  0  0  0  0  0  0  0  0
   -6.1372    1.2827   -0.5980 H   0  0  0  0  0  0  0  0  0  0  0  0
   -5.7037   -0.6334    0.8849 H   0  0  0  0  0  0  0  0  0  0  0  0
   -2.0581   -0.6899    2.9866 H   0  0  0  0  0  0  0  0  0  0  0  0
   -1.7494   -2.6355    4.4629 H   0  0  0  0  0  0  0  0  0  0  0  0
   -2.8464   -4.7981    3.9325 H   0  0  0  0  0  0  0  0  0  0  0  0
   -4.2515   -5.0020    1.8964 H   0  0  0  0  0  0  0  0  0  0  0  0
   -4.5593   -3.0669    0.4014 H   0  0  0  0  0  0  0  0  0  0  0  0
    1.6055    1.8729   -1.5027 H   0  0  0  0  0  0  0  0  0  0  0  0
    2.7136    3.3163   -2.9222 H   0  0  0  0  0  0  0  0  0  0  0  0
    4.3179    3.7875   -2.3543 H   0  0  0  0  0  0  0  0  0  0  0  0
    4.1389    2.6229   -3.6998 H   0  0  0  0  0  0  0  0  0  0  0  0
  1  2  1  0
  2  3  2  0
  3  4  1  0
  4  5  2  0
  5  6  1  0
  6  7  2  0
  6  8  1  0
  8  9  1  0
  9 10  1  0
 10 11  2  0
 11 12  1  0
 12 13  2  0
 13 14  1  0
 14 15  2  0
 15 16  1  0
 16 17  2  0
 17 18  1  0
 18 19  2  0
 19 20  1  0
 20 21  2  0
  5 22  1  0
 22 23  2  0
 23 24  1  0
 23  2  1  0
 15 10  1  0
 21 16  1  0
  1 25  1  0
  1 26  1  0
  1 27  1  0
  3 28  1  0
  4 29  1  0
  8 30  1  0
  8 31  1  0
 11 32  1  0
 12 33  1  0
 13 34  1  0
 14 35  1  0
 17 36  1  0
 18 37  1  0
 19 38  1  0
 20 39  1  0
 21 40  1  0
 22 41  1  0
 24 42  1  0
 24 43  1  0
 24 44  1  0
M  END
$$$$
