
     RDKit          3D

 49 52  0  0  0  0  0  0  0  0999 V2000
   -3.3783   -0.3692    3.1564 O   0  0  0  0  0  0  0  0  0  0  0  0
   -3.7076    0.0090    2.0321 C   0  0  0  0  0  0  0  0  0  0  0  0
   -2.7247    0.2413    0.9890 C   0  0  0  0  0  0  0  0  0  0  0  0
   -2.8270    0.1847   -0.4115 C   0  0  0  0  0  0  0  0  0  0  0  0
   -1.6671    0.4150   -1.0241 N   0  0  0  0  0  0  0  0  0  0  0  0
   -0.7812    0.6653   -0.0240 N   0  0  0  0  0  0  0  0  0  0  0  0
    0.5762    0.9680   -0.3452 C   0  0  0  0  0  0  0  0  0  0  0  0
    1.0301    0.6407   -1.6403 C   0  0  0  0  0  0  0  0  0  0  0  0
    2.3671    0.8287   -2.0092 C   0  0  0  0  0  0  0  0  0  0  0  0
    3.2734    1.3518   -1.0863 C   0  0  0  0  0  0  0  0  0  0  0  0
    4.9761    1.5956   -1.5476 S   0  0  0  0  0  6  0  0  0  0  0  0
    5.4358    2.7733   -0.8428 O   0  0  0  0  0  0  0  0  0  0  0  0
    5.0681    1.4961   -2.9872 O   0  0  0  0  0  0  0  0  0  0  0  0
    5.7512    0.2826   -0.8331 N   0  0  0  0  0  0  0  0  0  0  0  0
    5.2756   -1.0371   -1.0636 C   0  0  0  0  0  0  0  0  0  0  0  0
    5.2276   -1.5758   -2.3489 C   0  0  0  0  0  0  0  0  0  0  0  0
    4.7235   -2.8622   -2.5473 C   0  0  0  0  0  0  0  0  0  0  0  0
    4.2713   -3.6102   -1.4610 C   0  0  0  0  0  0  0  0  0  0  0  0
    4.3277   -3.0756   -0.1744 C   0  0  0  0  0  0  0  0  0  0  0  0
    4.8323   -1.7896    0.0258 C   0  0  0  0  0  0  0  0  0  0  0  0
    2.8465    1.7366    0.1847 C   0  0  0  0  0  0  0  0  0  0  0  0
    1.5002    1.5443    0.5408 C   0  0  0  0  0  0  0  0  0  0  0  0
    1.1122    2.0944    1.8222 N   0  0  0  0  0  4  0  0  0  0  0  0
    1.6476    1.6021    2.8231 O   0  0  0  0  0  0  0  0  0  0  0  0
    0.2918    3.0193    1.8141 O   0  0  0  0  0  1  0  0  0  0  0  0
   -1.3825    0.4988    1.2022 C   0  0  0  0  0  0  0  0  0  0  0  0
   -5.1578    0.1774    1.7632 C   0  0  0  0  0  0  0  0  0  0  0  0
   -5.6312    1.1570    0.8824 C   0  0  0  0  0  0  0  0  0  0  0  0
   -7.0000    1.2702    0.6557 C   0  0  0  0  0  0  0  0  0  0  0  0
   -7.4464    2.2030   -0.1948 F   0  0  0  0  0  0  0  0  0  0  0  0
   -7.9113    0.4376    1.2956 C   0  0  0  0  0  0  0  0  0  0  0  0
   -7.4499   -0.5191    2.1973 C   0  0  0  0  0  0  0  0  0  0  0  0
   -6.0816   -0.6360    2.4408 C   0  0  0  0  0  0  0  0  0  0  0  0
   -5.7118   -1.5749    3.3662 O   0  0  0  0  0  0  0  0  0  0  0  0
   -3.6928   -0.0387   -1.0234 H   0  0  0  0  0  0  0  0  0  0  0  0
    0.3540    0.2066   -2.3785 H   0  0  0  0  0  0  0  0  0  0  0  0
    2.6890    0.5524   -3.0125 H   0  0  0  0  0  0  0  0  0  0  0  0
    6.1451    0.5021    0.0801 H   0  0  0  0  0  0  0  0  0  0  0  0
    5.5914   -1.0109   -3.2038 H   0  0  0  0  0  0  0  0  0  0  0  0
    4.6896   -3.2819   -3.5498 H   0  0  0  0  0  0  0  0  0  0  0  0
    3.8813   -4.6134   -1.6170 H   0  0  0  0  0  0  0  0  0  0  0  0
    3.9806   -3.6628    0.6725 H   0  0  0  0  0  0  0  0  0  0  0  0
    4.8676   -1.3873    1.0342 H   0  0  0  0  0  0  0  0  0  0  0  0
    3.5442    2.2004    0.8813 H   0  0  0  0  0  0  0  0  0  0  0  0
   -0.8467    0.5452    2.1385 H   0  0  0  0  0  0  0  0  0  0  0  0
   -4.9684    1.8541    0.3794 H   0  0  0  0  0  0  0  0  0  0  0  0
   -8.9736    0.5479    1.0998 H   0  0  0  0  0  0  0  0  0  0  0  0
   -8.1521   -1.1639    2.7199 H   0  0  0  0  0  0  0  0  0  0  0  0
   -4.7853   -1.3929    3.6410 H   0  0  0  0  0  0  0  0  0  0  0  0
  1  2  2  0
  2  3  1  0
  3  4  1  0
  4  5  2  0
  5  6  1  0
  6  7  1  0
  7  8  2  0
  8  9  1  0
  9 10  2  0
 10 11  1  0
 11 12  2  0
 11 13  2  0
 11 14  1  0
 14 15  1  0
 15 16  2  0
 16 17  1  0
 17 18  2  0
 18 19  1  0
 19 20  2  0
 10 21  1  0
 21 22  2  0
 22 23  1  0
 23 24  2  0
 23 25  1  0
  6 26  1  0
  2 27  1  0
 27 28  2  0
 28 29  1  0
 29 30  1  0
 29 31  2  0
 31 32  1  0
 32 33  2  0
 33 34  1  0
 26  3  2  0
 33 27  1  0
 22  7  1  0
 20 15  1  0
  4 35  1  0
  8 36  1  0
  9 37  1  0
 14 38  1  0
 16 39  1  0
 17 40  1  0
 18 41  1  0
 19 42  1  0
 20 43  1  0
 21 44  1  0
 26 45  1  0
 28 46  1  0
 31 47  1  0
 32 48  1  0
 34 49  1  0
M  CHG  2  23   1  25  -1
M  END
$$$$
