
     RDKit          3D

 39 41  0  0  0  0  0  0  0  0999 V2000
    2.7794   -2.1916   -0.3118 O   0  0  0  0  0  0  0  0  0  0  0  0
    2.8910   -1.0274   -0.6631 C   0  0  0  0  0  0  0  0  0  0  0  0
    2.1598   -0.4033   -1.6162 O   0  0  0  0  0  0  0  0  0  0  0  0
    1.1294   -1.1900   -2.2256 C   0  0  0  0  0  0  0  0  0  0  0  0
   -0.1909   -0.8683   -1.5762 C   0  0  0  0  0  0  0  0  0  0  0  0
   -0.9379    0.2409   -1.9886 C   0  0  0  0  0  0  0  0  0  0  0  0
   -2.1529    0.5485   -1.3676 C   0  0  0  0  0  0  0  0  0  0  0  0
   -2.6496   -0.2369   -0.3153 C   0  0  0  0  0  0  0  0  0  0  0  0
   -3.9286    0.0886    0.3372 C   0  0  0  0  0  0  0  0  0  0  0  0
   -4.9474   -0.8720    0.4528 C   0  0  0  0  0  0  0  0  0  0  0  0
   -6.1623   -0.5640    1.0713 C   0  0  0  0  0  0  0  0  0  0  0  0
   -6.3786    0.7114    1.5867 C   0  0  0  0  0  0  0  0  0  0  0  0
   -5.3819    1.6784    1.4838 C   0  0  0  0  0  0  0  0  0  0  0  0
   -4.1681    1.3689    0.8638 C   0  0  0  0  0  0  0  0  0  0  0  0
   -1.8861   -1.3397    0.0986 C   0  0  0  0  0  0  0  0  0  0  0  0
   -0.6706   -1.6501   -0.5195 C   0  0  0  0  0  0  0  0  0  0  0  0
    3.8907   -0.0939   -0.0773 C   0  0  0  0  0  0  0  0  0  0  0  0
    3.9636    1.2584   -0.4443 C   0  0  0  0  0  0  0  0  0  0  0  0
    4.9220    2.0922    0.1372 C   0  0  0  0  0  0  0  0  0  0  0  0
    5.8072    1.5810    1.0850 C   0  0  0  0  0  0  0  0  0  0  0  0
    5.7307    0.2414    1.4492 C   0  0  0  0  0  0  0  0  0  0  0  0
    6.6156   -0.2132    2.3817 O   0  0  0  0  0  0  0  0  0  0  0  0
    4.7821   -0.6016    0.8790 C   0  0  0  0  0  0  0  0  0  0  0  0
    1.3406   -2.2660   -2.1958 H   0  0  0  0  0  0  0  0  0  0  0  0
    1.0953   -0.9204   -3.2876 H   0  0  0  0  0  0  0  0  0  0  0  0
   -0.5796    0.8751   -2.7964 H   0  0  0  0  0  0  0  0  0  0  0  0
   -2.7192    1.4086   -1.7194 H   0  0  0  0  0  0  0  0  0  0  0  0
   -4.8029   -1.8715    0.0474 H   0  0  0  0  0  0  0  0  0  0  0  0
   -6.9386   -1.3208    1.1476 H   0  0  0  0  0  0  0  0  0  0  0  0
   -7.3226    0.9513    2.0686 H   0  0  0  0  0  0  0  0  0  0  0  0
   -5.5454    2.6738    1.8882 H   0  0  0  0  0  0  0  0  0  0  0  0
   -3.3980    2.1355    0.8049 H   0  0  0  0  0  0  0  0  0  0  0  0
   -2.2276   -1.9611    0.9242 H   0  0  0  0  0  0  0  0  0  0  0  0
   -0.0953   -2.5032   -0.1631 H   0  0  0  0  0  0  0  0  0  0  0  0
    3.2794    1.6774   -1.1781 H   0  0  0  0  0  0  0  0  0  0  0  0
    4.9776    3.1402   -0.1469 H   0  0  0  0  0  0  0  0  0  0  0  0
    6.5541    2.2255    1.5409 H   0  0  0  0  0  0  0  0  0  0  0  0
    6.4404   -1.1544    2.5489 H   0  0  0  0  0  0  0  0  0  0  0  0
    4.7252   -1.6479    1.1670 H   0  0  0  0  0  0  0  0  0  0  0  0
  1  2  2  0
  2  3  1  0
  3  4  1  0
  4  5  1  0
  5  6  2  0
  6  7  1  0
  7  8  2  0
  8  9  1  0
  9 10  2  0
 10 11  1  0
 11 12  2  0
 12 13  1  0
 13 14  2  0
  8 15  1  0
 15 16  2  0
  2 17  1  0
 17 18  2  0
 18 19  1  0
 19 20  2  0
 20 21  1  0
 21 22  1  0
 21 23  2  0
 16  5  1  0
 23 17  1  0
 14  9  1  0
  4 24  1  0
  4 25  1  0
  6 26  1  0
  7 27  1  0
 10 28  1  0
 11 29  1  0
 12 30  1  0
 13 31  1  0
 14 32  1  0
 15 33  1  0
 16 34  1  0
 18 35  1  0
 19 36  1  0
 20 37  1  0
 22 38  1  0
 23 39  1  0
M  END
$$$$
