
     RDKit          3D

 39 40  0  0  0  0  0  0  0  0999 V2000
   -1.5329   -1.6908    2.5955 C   0  0  0  0  0  0  0  0  0  0  0  0
   -1.3964   -1.3528    1.1168 C   0  0  0  0  0  0  0  0  0  0  0  0
   -1.8859   -0.0168    0.9247 O   0  0  0  0  0  0  0  0  0  0  0  0
   -2.9104    0.1044    0.0229 C   0  0  0  0  0  0  0  0  0  0  0  0
   -4.0727   -0.6667    0.1241 C   0  0  0  0  0  0  0  0  0  0  0  0
   -5.1174   -0.4826   -0.7860 C   0  0  0  0  0  0  0  0  0  0  0  0
   -5.0016    0.4916   -1.7879 C   0  0  0  0  0  0  0  0  0  0  0  0
   -6.1010    0.6877   -2.7413 N   0  0  0  0  0  4  0  0  0  0  0  0
   -7.0926   -0.0468   -2.6333 O   0  0  0  0  0  0  0  0  0  0  0  0
   -5.9702    1.5753   -3.5950 O   0  0  0  0  0  1  0  0  0  0  0  0
   -3.8538    1.2875   -1.8810 C   0  0  0  0  0  0  0  0  0  0  0  0
   -2.8170    1.0953   -0.9663 C   0  0  0  0  0  0  0  0  0  0  0  0
   -1.4168    2.0998   -1.0882 Cl  0  0  0  0  0  0  0  0  0  0  0  0
    0.0897   -1.4501    0.7201 C   0  0  0  0  0  0  0  0  0  0  0  0
    0.6238   -2.5463    0.5710 O   0  0  0  0  0  0  0  0  0  0  0  0
    0.7038   -0.2160    0.6087 N   0  0  0  0  0  0  0  0  0  0  0  0
    2.0460    0.0632    0.2946 C   0  0  0  0  0  0  0  0  0  0  0  0
    2.4099    1.4111    0.1894 C   0  0  0  0  0  0  0  0  0  0  0  0
    3.7257    1.7728   -0.1172 C   0  0  0  0  0  0  0  0  0  0  0  0
    4.6999    0.7892   -0.3143 C   0  0  0  0  0  0  0  0  0  0  0  0
    6.0860    1.2220   -0.6367 C   0  0  0  0  0  0  0  0  0  0  0  0
    7.0984    0.3329   -0.4023 N   0  0  0  0  0  0  0  0  0  0  0  0
    6.3263    2.3443   -1.0637 O   0  0  0  0  0  0  0  0  0  0  0  0
    4.3379   -0.5585   -0.2234 C   0  0  0  0  0  0  0  0  0  0  0  0
    3.0180   -0.9165    0.0838 C   0  0  0  0  0  0  0  0  0  0  0  0
   -0.9745   -0.9784    3.2134 H   0  0  0  0  0  0  0  0  0  0  0  0
   -1.1565   -2.6956    2.8117 H   0  0  0  0  0  0  0  0  0  0  0  0
   -2.5795   -1.6334    2.9113 H   0  0  0  0  0  0  0  0  0  0  0  0
   -1.9294   -2.0890    0.5017 H   0  0  0  0  0  0  0  0  0  0  0  0
   -4.1889   -1.4019    0.9167 H   0  0  0  0  0  0  0  0  0  0  0  0
   -6.0133   -1.0954   -0.6948 H   0  0  0  0  0  0  0  0  0  0  0  0
   -3.7606    2.0527   -2.6488 H   0  0  0  0  0  0  0  0  0  0  0  0
    0.0836    0.5831    0.7164 H   0  0  0  0  0  0  0  0  0  0  0  0
    1.6774    2.2009    0.3386 H   0  0  0  0  0  0  0  0  0  0  0  0
    3.9882    2.8262   -0.2006 H   0  0  0  0  0  0  0  0  0  0  0  0
    8.0368    0.6965   -0.5117 H   0  0  0  0  0  0  0  0  0  0  0  0
    6.9814   -0.4740    0.1927 H   0  0  0  0  0  0  0  0  0  0  0  0
    5.0568   -1.3499   -0.4123 H   0  0  0  0  0  0  0  0  0  0  0  0
    2.7819   -1.9747    0.1429 H   0  0  0  0  0  0  0  0  0  0  0  0
  1  2  1  0
  2  3  1  0
  3  4  1  0
  4  5  2  0
  5  6  1  0
  6  7  2  0
  7  8  1  0
  8  9  2  0
  8 10  1  0
  7 11  1  0
 11 12  2  0
 12 13  1  0
  2 14  1  0
 14 15  2  0
 14 16  1  0
 16 17  1  0
 17 18  2  0
 18 19  1  0
 19 20  2  0
 20 21  1  0
 21 22  1  0
 21 23  2  0
 20 24  1  0
 24 25  2  0
 12  4  1  0
 25 17  1  0
  1 26  1  0
  1 27  1  0
  1 28  1  0
  2 29  1  0
  5 30  1  0
  6 31  1  0
 11 32  1  0
 16 33  1  0
 18 34  1  0
 19 35  1  0
 22 36  1  0
 22 37  1  0
 24 38  1  0
 25 39  1  0
M  CHG  2   8   1  10  -1
M  END
$$$$
