
     RDKit          3D

 44 47  0  0  0  0  0  0  0  0999 V2000
   -4.3521    2.1747    1.5259 C   0  0  0  0  0  0  0  0  0  0  0  0
   -3.5539    1.7932    0.2805 C   0  0  0  0  0  0  0  0  0  0  0  0
   -2.1309    1.4101    0.6514 C   0  0  0  0  0  0  0  0  0  0  0  0
   -1.3530    0.8873   -0.5343 C   0  0  0  0  0  0  0  0  0  0  0  0
   -0.5979    1.6380   -1.1613 O   0  0  0  0  0  0  0  0  0  0  0  0
   -1.4449   -0.4701   -0.8217 N   0  0  0  0  0  0  0  0  0  0  0  0
   -0.5650   -1.0065   -1.8666 C   0  0  0  0  0  0  0  0  0  0  0  0
    0.8636   -1.2429   -1.3601 C   0  0  0  0  0  0  0  0  0  0  0  0
    1.2705   -2.3810   -1.1393 O   0  0  0  0  0  0  0  0  0  0  0  0
    1.5752   -0.0678   -1.1876 N   0  0  0  0  0  0  0  0  0  0  0  0
    2.9034    0.0888   -0.7468 C   0  0  0  0  0  0  0  0  0  0  0  0
    3.7682   -0.9869   -0.4688 C   0  0  0  0  0  0  0  0  0  0  0  0
    5.0816   -0.7628   -0.0340 C   0  0  0  0  0  0  0  0  0  0  0  0
    5.4980    0.5407    0.1109 C   0  0  0  0  0  0  0  0  0  0  0  0
    4.6618    1.5955   -0.1598 C   0  0  0  0  0  0  0  0  0  0  0  0
    3.3646    1.4044   -0.5893 C   0  0  0  0  0  0  0  0  0  0  0  0
    5.2619    2.7990    0.0450 O   0  0  0  0  0  0  0  0  0  0  0  0
    6.5739    2.3777    0.4734 C   0  0  0  0  0  0  0  0  0  0  0  0
    6.7296    0.9444    0.5196 O   0  0  0  0  0  0  0  0  0  0  0  0
   -2.3928   -1.3529   -0.2150 C   0  0  0  0  0  0  0  0  0  0  0  0
   -1.9767   -2.6387    0.1698 C   0  0  0  0  0  0  0  0  0  0  0  0
   -2.8605   -3.5288    0.7841 C   0  0  0  0  0  0  0  0  0  0  0  0
   -4.1805   -3.1566    1.0075 C   0  0  0  0  0  0  0  0  0  0  0  0
   -4.6214   -1.8969    0.6059 C   0  0  0  0  0  0  0  0  0  0  0  0
   -3.7408   -0.9876   -0.0010 C   0  0  0  0  0  0  0  0  0  0  0  0
   -4.4754    0.5132   -0.6466 S   0  0  0  0  0  0  0  0  0  0  0  0
   -3.8540    2.9895    2.0634 H   0  0  0  0  0  0  0  0  0  0  0  0
   -5.3571    2.5255    1.2657 H   0  0  0  0  0  0  0  0  0  0  0  0
   -4.4506    1.3330    2.2208 H   0  0  0  0  0  0  0  0  0  0  0  0
   -3.5195    2.6665   -0.3818 H   0  0  0  0  0  0  0  0  0  0  0  0
   -1.6004    2.2951    1.0275 H   0  0  0  0  0  0  0  0  0  0  0  0
   -2.0908    0.6894    1.4771 H   0  0  0  0  0  0  0  0  0  0  0  0
   -0.9651   -1.9427   -2.2731 H   0  0  0  0  0  0  0  0  0  0  0  0
   -0.5253   -0.3002   -2.7054 H   0  0  0  0  0  0  0  0  0  0  0  0
    1.0501    0.7954   -1.3469 H   0  0  0  0  0  0  0  0  0  0  0  0
    3.4462   -2.0173   -0.5858 H   0  0  0  0  0  0  0  0  0  0  0  0
    5.7476   -1.5911    0.1799 H   0  0  0  0  0  0  0  0  0  0  0  0
    2.7324    2.2619   -0.7931 H   0  0  0  0  0  0  0  0  0  0  0  0
    7.3175    2.7892   -0.2189 H   0  0  0  0  0  0  0  0  0  0  0  0
    6.7628    2.7834    1.4740 H   0  0  0  0  0  0  0  0  0  0  0  0
   -0.9475   -2.9629    0.0336 H   0  0  0  0  0  0  0  0  0  0  0  0
   -2.5124   -4.5137    1.0875 H   0  0  0  0  0  0  0  0  0  0  0  0
   -4.8721   -3.8519    1.4768 H   0  0  0  0  0  0  0  0  0  0  0  0
   -5.6682   -1.6369    0.7518 H   0  0  0  0  0  0  0  0  0  0  0  0
  1  2  1  0
  2  3  1  0
  3  4  1  0
  4  5  2  0
  4  6  1  0
  6  7  1  0
  7  8  1  0
  8  9  2  0
  8 10  1  0
 10 11  1  0
 11 12  2  0
 12 13  1  0
 13 14  2  0
 14 15  1  0
 15 16  2  0
 15 17  1  0
 17 18  1  0
 18 19  1  0
  6 20  1  0
 20 21  2  0
 21 22  1  0
 22 23  2  0
 23 24  1  0
 24 25  2  0
 25 26  1  0
 26  2  1  0
 16 11  1  0
 25 20  1  0
 19 14  1  0
  1 27  1  0
  1 28  1  0
  1 29  1  0
  2 30  1  0
  3 31  1  0
  3 32  1  0
  7 33  1  0
  7 34  1  0
 10 35  1  0
 12 36  1  0
 13 37  1  0
 16 38  1  0
 18 39  1  0
 18 40  1  0
 21 41  1  0
 22 42  1  0
 23 43  1  0
 24 44  1  0
M  END
$$$$
