
     RDKit          3D

 48 51  0  0  0  0  0  0  0  0999 V2000
    6.4277    1.8125   -1.3775 C   0  0  0  0  0  0  0  0  0  0  0  0
    5.6413    0.6444   -0.9443 C   0  0  0  0  0  0  0  0  0  0  0  0
    4.3082    0.3200   -0.9754 C   0  0  0  0  0  0  0  0  0  0  0  0
    4.2335   -0.9769   -0.3921 C   0  0  0  0  0  0  0  0  0  0  0  0
    3.0583   -1.8288   -0.1591 C   0  0  0  0  0  0  0  0  0  0  0  0
    3.1333   -2.9977    0.2119 O   0  0  0  0  0  0  0  0  0  0  0  0
    1.8369   -1.2184   -0.3775 N   0  0  0  0  0  0  0  0  0  0  0  0
    0.5920   -1.9101   -0.1103 C   0  0  0  0  0  0  0  0  0  0  0  0
    0.2757   -2.0041    1.4023 C   0  0  0  0  0  0  0  0  0  0  0  0
   -0.3637   -0.7248    2.0305 C   0  0  0  0  0  0  0  0  0  0  0  0
    0.6301    0.4537    2.0441 C   0  0  0  0  0  0  0  0  0  0  0  0
   -0.7314   -1.0390    3.4957 C   0  0  0  0  0  0  0  0  0  0  0  0
   -1.6633   -0.3194    1.2674 C   0  0  0  0  0  0  0  0  0  0  0  0
   -1.5034   -0.4609   -0.2110 C   0  0  0  0  0  0  0  0  0  0  0  0
   -0.4879   -1.1746   -0.8237 C   0  0  0  0  0  0  0  0  0  0  0  0
   -0.7074   -1.0055   -2.1938 C   0  0  0  0  0  0  0  0  0  0  0  0
   -1.7519   -0.2215   -2.4429 N   0  0  0  0  0  0  0  0  0  0  0  0
   -2.3020    0.0588   -1.2243 N   0  0  0  0  0  0  0  0  0  0  0  0
   -3.5304    0.7923   -1.1803 C   0  0  0  0  0  0  0  0  0  0  0  0
   -4.0039    1.3858   -2.3683 C   0  0  0  0  0  0  0  0  0  0  0  0
   -5.1976    2.1127   -2.3821 C   0  0  0  0  0  0  0  0  0  0  0  0
   -5.9319    2.2388   -1.2131 C   0  0  0  0  0  0  0  0  0  0  0  0
   -7.0805    2.9275   -1.2217 F   0  0  0  0  0  0  0  0  0  0  0  0
   -5.4965    1.6470   -0.0345 C   0  0  0  0  0  0  0  0  0  0  0  0
   -4.2982    0.9219   -0.0156 C   0  0  0  0  0  0  0  0  0  0  0  0
    5.4633   -1.3926   -0.0426 N   0  0  0  0  0  0  0  0  0  0  0  0
    6.3343   -0.3806   -0.3883 O   0  0  0  0  0  0  0  0  0  0  0  0
    5.8196    2.7232   -1.3480 H   0  0  0  0  0  0  0  0  0  0  0  0
    6.7856    1.6725   -2.4026 H   0  0  0  0  0  0  0  0  0  0  0  0
    7.2929    1.9670   -0.7254 H   0  0  0  0  0  0  0  0  0  0  0  0
    3.5123    0.9307   -1.3724 H   0  0  0  0  0  0  0  0  0  0  0  0
    1.7964   -0.2300   -0.5702 H   0  0  0  0  0  0  0  0  0  0  0  0
    0.6792   -2.9267   -0.5136 H   0  0  0  0  0  0  0  0  0  0  0  0
    1.1739   -2.2881    1.9645 H   0  0  0  0  0  0  0  0  0  0  0  0
   -0.4379   -2.8305    1.5350 H   0  0  0  0  0  0  0  0  0  0  0  0
    0.8090    0.8615    1.0461 H   0  0  0  0  0  0  0  0  0  0  0  0
    0.2483    1.2803    2.6545 H   0  0  0  0  0  0  0  0  0  0  0  0
    1.5944    0.1511    2.4665 H   0  0  0  0  0  0  0  0  0  0  0  0
   -1.4330   -1.8781    3.5574 H   0  0  0  0  0  0  0  0  0  0  0  0
   -1.2032   -0.1763    3.9793 H   0  0  0  0  0  0  0  0  0  0  0  0
    0.1581   -1.3055    4.0775 H   0  0  0  0  0  0  0  0  0  0  0  0
   -2.4812   -0.9801    1.5818 H   0  0  0  0  0  0  0  0  0  0  0  0
   -1.9282    0.7095    1.5351 H   0  0  0  0  0  0  0  0  0  0  0  0
   -0.1354   -1.3982   -3.0252 H   0  0  0  0  0  0  0  0  0  0  0  0
   -3.4467    1.2963   -3.2997 H   0  0  0  0  0  0  0  0  0  0  0  0
   -5.5574    2.5691   -3.2981 H   0  0  0  0  0  0  0  0  0  0  0  0
   -6.0990    1.7432    0.8641 H   0  0  0  0  0  0  0  0  0  0  0  0
   -4.0324    0.4485    0.9196 H   0  0  0  0  0  0  0  0  0  0  0  0
  1  2  1  0
  2  3  2  0
  3  4  1  0
  4  5  1  0
  5  6  2  0
  5  7  1  0
  7  8  1  0
  8  9  1  0
  9 10  1  0
 10 11  1  0
 10 12  1  0
 10 13  1  0
 13 14  1  0
 14 15  2  0
 15 16  1  0
 16 17  2  0
 17 18  1  0
 18 19  1  0
 19 20  2  0
 20 21  1  0
 21 22  2  0
 22 23  1  0
 22 24  1  0
 24 25  2  0
  4 26  2  0
 26 27  1  0
 27  2  1  0
 15  8  1  0
 25 19  1  0
 18 14  1  0
  1 28  1  0
  1 29  1  0
  1 30  1  0
  3 31  1  0
  7 32  1  0
  8 33  1  0
  9 34  1  0
  9 35  1  0
 11 36  1  0
 11 37  1  0
 11 38  1  0
 12 39  1  0
 12 40  1  0
 12 41  1  0
 13 42  1  0
 13 43  1  0
 16 44  1  0
 20 45  1  0
 21 46  1  0
 24 47  1  0
 25 48  1  0
M  END
$$$$
