
     RDKit          3D

 68 71  0  0  0  0  0  0  0  0999 V2000
   -5.4211   -3.5059   -1.7032 C   0  0  0  0  0  0  0  0  0  0  0  0
   -4.1423   -2.7919   -1.3820 C   0  0  0  0  0  0  0  0  0  0  0  0
   -2.9552   -3.1233   -2.0399 C   0  0  0  0  0  0  0  0  0  0  0  0
   -1.7676   -2.4493   -1.7439 C   0  0  0  0  0  0  0  0  0  0  0  0
   -1.7435   -1.4196   -0.7918 C   0  0  0  0  0  0  0  0  0  0  0  0
   -0.4186   -0.7314   -0.4811 C   0  0  0  0  0  0  0  0  0  0  0  0
   -0.5864    0.7034    0.1008 C   0  0  0  0  0  0  0  0  0  0  0  0
   -0.3921    0.9739    1.2863 O   0  0  0  0  0  0  0  0  0  0  0  0
   -1.0180    1.6483   -0.8174 N   0  0  0  0  0  0  0  0  0  0  0  0
   -1.3313    3.0068   -0.4015 C   0  0  0  0  0  0  0  0  0  0  0  0
   -1.4503    3.9553   -1.6017 C   0  0  0  0  0  0  0  0  0  0  0  0
   -2.9454    4.1889   -1.7684 C   0  0  0  0  0  0  0  0  0  0  0  0
   -3.4488    4.2133   -0.3363 C   0  0  0  0  0  0  0  0  0  0  0  0
   -2.6866    3.0716    0.3216 C   0  0  0  0  0  0  0  0  0  0  0  0
    0.4678   -1.5052    0.4135 N   0  0  0  0  0  0  0  0  0  0  0  0
   -0.1105   -2.1113    1.6206 C   0  0  0  0  0  0  0  0  0  0  0  0
   -0.4387   -3.5447    1.3706 C   0  0  0  0  0  0  0  0  0  0  0  0
   -1.6123   -4.2721    1.4386 C   0  0  0  0  0  0  0  0  0  0  0  0
   -1.2839   -5.6023    1.0793 C   0  0  0  0  0  0  0  0  0  0  0  0
    0.0696   -5.6097    0.8268 C   0  0  0  0  0  0  0  0  0  0  0  0
    0.5928   -4.3690    1.0066 O   0  0  0  0  0  0  0  0  0  0  0  0
    1.8331   -1.3872    0.1916 C   0  0  0  0  0  0  0  0  0  0  0  0
    2.2859   -0.8714   -0.8344 O   0  0  0  0  0  0  0  0  0  0  0  0
    2.7790   -1.8866    1.2750 C   0  0  0  0  0  0  0  0  0  0  0  0
    4.2435   -1.6834    0.9072 C   0  0  0  0  0  0  0  0  0  0  0  0
    4.6565   -0.2380    1.1247 C   0  0  0  0  0  0  0  0  0  0  0  0
    5.1007    0.1273    2.2101 O   0  0  0  0  0  0  0  0  0  0  0  0
    4.4780    0.5498    0.0116 N   0  0  0  0  0  0  0  0  0  0  0  0
    4.7442    1.8984   -0.0666 C   0  0  0  0  0  0  0  0  0  0  0  0
    5.1846    2.7823    0.9446 C   0  0  0  0  0  0  0  0  0  0  0  0
    5.2740    4.0033    0.3196 C   0  0  0  0  0  0  0  0  0  0  0  0
    5.6427    5.3561    0.7643 C   0  0  0  0  0  0  0  0  0  0  0  0
    4.9290    3.8627   -0.9907 O   0  0  0  0  0  0  0  0  0  0  0  0
    4.5835    2.5460   -1.2321 N   0  0  0  0  0  0  0  0  0  0  0  0
   -2.9416   -1.0897   -0.1405 C   0  0  0  0  0  0  0  0  0  0  0  0
   -4.1291   -1.7619   -0.4396 C   0  0  0  0  0  0  0  0  0  0  0  0
   -6.0291   -2.8994   -2.3839 H   0  0  0  0  0  0  0  0  0  0  0  0
   -5.9878   -3.7073   -0.7883 H   0  0  0  0  0  0  0  0  0  0  0  0
   -5.2260   -4.4725   -2.1806 H   0  0  0  0  0  0  0  0  0  0  0  0
   -2.9435   -3.9194   -2.7795 H   0  0  0  0  0  0  0  0  0  0  0  0
   -0.8510   -2.7439   -2.2481 H   0  0  0  0  0  0  0  0  0  0  0  0
    0.0901   -0.5854   -1.4448 H   0  0  0  0  0  0  0  0  0  0  0  0
   -1.4153    1.3149   -1.6847 H   0  0  0  0  0  0  0  0  0  0  0  0
   -0.5310    3.3472    0.2655 H   0  0  0  0  0  0  0  0  0  0  0  0
   -0.9875    3.5731   -2.5193 H   0  0  0  0  0  0  0  0  0  0  0  0
   -0.9676    4.9094   -1.3595 H   0  0  0  0  0  0  0  0  0  0  0  0
   -3.1694    5.1163   -2.3016 H   0  0  0  0  0  0  0  0  0  0  0  0
   -3.4005    3.3555   -2.3155 H   0  0  0  0  0  0  0  0  0  0  0  0
   -4.5302    4.0767   -0.2693 H   0  0  0  0  0  0  0  0  0  0  0  0
   -3.1912    5.1637    0.1486 H   0  0  0  0  0  0  0  0  0  0  0  0
   -3.2515    2.1392    0.1952 H   0  0  0  0  0  0  0  0  0  0  0  0
   -2.5692    3.2366    1.3984 H   0  0  0  0  0  0  0  0  0  0  0  0
    0.5849   -2.0510    2.4598 H   0  0  0  0  0  0  0  0  0  0  0  0
   -1.0030   -1.5582    1.9299 H   0  0  0  0  0  0  0  0  0  0  0  0
   -2.5900   -3.8833    1.6930 H   0  0  0  0  0  0  0  0  0  0  0  0
   -1.9531   -6.4494    1.0061 H   0  0  0  0  0  0  0  0  0  0  0  0
    0.7738   -6.3722    0.5183 H   0  0  0  0  0  0  0  0  0  0  0  0
    2.5625   -1.3541    2.2075 H   0  0  0  0  0  0  0  0  0  0  0  0
    2.6092   -2.9563    1.4236 H   0  0  0  0  0  0  0  0  0  0  0  0
    4.8785   -2.3013    1.5553 H   0  0  0  0  0  0  0  0  0  0  0  0
    4.4606   -1.9898   -0.1229 H   0  0  0  0  0  0  0  0  0  0  0  0
    4.0059    0.1670   -0.8040 H   0  0  0  0  0  0  0  0  0  0  0  0
    5.3807    2.5705    1.9881 H   0  0  0  0  0  0  0  0  0  0  0  0
    6.7233    5.5017    0.6889 H   0  0  0  0  0  0  0  0  0  0  0  0
    5.1506    6.1222    0.1567 H   0  0  0  0  0  0  0  0  0  0  0  0
    5.3461    5.5113    1.8055 H   0  0  0  0  0  0  0  0  0  0  0  0
   -2.9701   -0.3158    0.6219 H   0  0  0  0  0  0  0  0  0  0  0  0
   -5.0416   -1.4796    0.0799 H   0  0  0  0  0  0  0  0  0  0  0  0
  1  2  1  0
  2  3  2  0
  3  4  1  0
  4  5  2  0
  5  6  1  0
  6  7  1  0
  7  8  2  0
  7  9  1  0
  9 10  1  0
 10 11  1  0
 11 12  1  0
 12 13  1  0
 13 14  1  0
  6 15  1  0
 15 16  1  0
 16 17  1  0
 17 18  2  0
 18 19  1  0
 19 20  2  0
 20 21  1  0
 15 22  1  0
 22 23  2  0
 22 24  1  0
 24 25  1  0
 25 26  1  0
 26 27  2  0
 26 28  1  0
 28 29  1  0
 29 30  1  0
 30 31  2  0
 31 32  1  0
 31 33  1  0
 33 34  1  0
  5 35  1  0
 35 36  2  0
 36  2  1  0
 14 10  1  0
 21 17  1  0
 34 29  2  0
  1 37  1  0
  1 38  1  0
  1 39  1  0
  3 40  1  0
  4 41  1  0
  6 42  1  0
  9 43  1  0
 10 44  1  0
 11 45  1  0
 11 46  1  0
 12 47  1  0
 12 48  1  0
 13 49  1  0
 13 50  1  0
 14 51  1  0
 14 52  1  0
 16 53  1  0
 16 54  1  0
 18 55  1  0
 19 56  1  0
 20 57  1  0
 24 58  1  0
 24 59  1  0
 25 60  1  0
 25 61  1  0
 28 62  1  0
 30 63  1  0
 32 64  1  0
 32 65  1  0
 32 66  1  0
 35 67  1  0
 36 68  1  0
M  END
$$$$
