
     RDKit          3D

 48 51  0  0  0  0  0  0  0  0999 V2000
   -1.3679    2.4146   -2.1403 C   0  0  0  0  0  0  0  0  0  0  0  0
   -0.8423    2.7747   -0.7618 C   0  0  0  0  0  0  0  0  0  0  0  0
   -0.8880    1.6625    0.1608 N   0  0  0  0  0  0  0  0  0  0  0  0
   -1.9006    1.3670    1.0382 C   0  0  0  0  0  0  0  0  0  0  0  0
   -3.3731    2.2649    1.1657 S   0  0  0  0  0  0  0  0  0  0  0  0
   -4.4620    1.0504    1.9696 C   0  0  0  0  0  0  0  0  0  0  0  0
   -5.0915    0.1015    0.9772 C   0  0  0  0  0  0  0  0  0  0  0  0
   -4.5073   -1.1489    0.7171 C   0  0  0  0  0  0  0  0  0  0  0  0
   -5.0817   -2.0187   -0.2097 C   0  0  0  0  0  0  0  0  0  0  0  0
   -6.2366   -1.6394   -0.8806 C   0  0  0  0  0  0  0  0  0  0  0  0
   -6.7907   -2.4775   -1.7669 F   0  0  0  0  0  0  0  0  0  0  0  0
   -6.8260   -0.4031   -0.6472 C   0  0  0  0  0  0  0  0  0  0  0  0
   -6.2547    0.4691    0.2801 C   0  0  0  0  0  0  0  0  0  0  0  0
   -1.5708    0.3265    1.7623 N   0  0  0  0  0  0  0  0  0  0  0  0
   -0.3356   -0.0910    1.3464 N   0  0  0  0  0  0  0  0  0  0  0  0
    0.0711    0.6943    0.3684 C   0  0  0  0  0  0  0  0  0  0  0  0
    1.4457    0.4764   -0.3377 C   0  0  0  0  0  0  0  0  0  0  0  0
    2.0541    1.1909   -1.3726 C   0  0  0  0  0  0  0  0  0  0  0  0
    3.2491    0.7010   -1.6915 N   0  0  0  0  0  0  0  0  0  0  0  0
    3.4914   -0.2566   -0.7513 N   0  0  0  0  0  0  0  0  0  0  0  0
    4.8321   -0.7233   -0.5917 C   0  0  0  0  0  0  0  0  0  0  0  0
    5.2842   -1.3016    0.6006 C   0  0  0  0  0  0  0  0  0  0  0  0
    6.6131   -1.7246    0.7190 C   0  0  0  0  0  0  0  0  0  0  0  0
    7.5025   -1.5577   -0.3402 C   0  0  0  0  0  0  0  0  0  0  0  0
    7.0704   -0.9590   -1.5199 C   0  0  0  0  0  0  0  0  0  0  0  0
    5.7449   -0.5360   -1.6442 C   0  0  0  0  0  0  0  0  0  0  0  0
    2.3288   -0.5566   -0.0648 C   0  0  0  0  0  0  0  0  0  0  0  0
    2.1483   -1.7868    0.7194 C   0  0  0  0  0  0  0  0  0  0  0  0
    2.3869   -1.5899    2.0374 F   0  0  0  0  0  0  0  0  0  0  0  0
    0.8991   -2.3002    0.6017 F   0  0  0  0  0  0  0  0  0  0  0  0
    2.9740   -2.7876    0.3171 F   0  0  0  0  0  0  0  0  0  0  0  0
   -2.4176    2.1087   -2.0960 H   0  0  0  0  0  0  0  0  0  0  0  0
   -1.2945    3.2768   -2.8099 H   0  0  0  0  0  0  0  0  0  0  0  0
   -0.8017    1.5887   -2.5819 H   0  0  0  0  0  0  0  0  0  0  0  0
   -1.4191    3.6060   -0.3447 H   0  0  0  0  0  0  0  0  0  0  0  0
    0.1874    3.1376   -0.8117 H   0  0  0  0  0  0  0  0  0  0  0  0
   -3.9350    0.4989    2.7567 H   0  0  0  0  0  0  0  0  0  0  0  0
   -5.2565    1.6039    2.4827 H   0  0  0  0  0  0  0  0  0  0  0  0
   -3.5964   -1.4507    1.2336 H   0  0  0  0  0  0  0  0  0  0  0  0
   -4.6318   -2.9846   -0.4163 H   0  0  0  0  0  0  0  0  0  0  0  0
   -7.7239   -0.1279   -1.1879 H   0  0  0  0  0  0  0  0  0  0  0  0
   -6.7170    1.4394    0.4478 H   0  0  0  0  0  0  0  0  0  0  0  0
    1.6993    2.0382   -1.9399 H   0  0  0  0  0  0  0  0  0  0  0  0
    4.6526   -1.4104    1.4753 H   0  0  0  0  0  0  0  0  0  0  0  0
    6.9560   -2.1827    1.6457 H   0  0  0  0  0  0  0  0  0  0  0  0
    8.5340   -1.8877   -0.2417 H   0  0  0  0  0  0  0  0  0  0  0  0
    7.7635   -0.8181   -2.3448 H   0  0  0  0  0  0  0  0  0  0  0  0
    5.4338   -0.0714   -2.5795 H   0  0  0  0  0  0  0  0  0  0  0  0
  1  2  1  0
  2  3  1  0
  3  4  1  0
  4  5  1  0
  5  6  1  0
  6  7  1  0
  7  8  2  0
  8  9  1  0
  9 10  2  0
 10 11  1  0
 10 12  1  0
 12 13  2  0
  4 14  2  0
 14 15  1  0
 15 16  2  0
 16 17  1  0
 17 18  1  0
 18 19  2  0
 19 20  1  0
 20 21  1  0
 21 22  2  0
 22 23  1  0
 23 24  2  0
 24 25  1  0
 25 26  2  0
 20 27  1  0
 27 28  1  0
 28 29  1  0
 28 30  1  0
 28 31  1  0
 16  3  1  0
 27 17  2  0
 13  7  1  0
 26 21  1  0
  1 32  1  0
  1 33  1  0
  1 34  1  0
  2 35  1  0
  2 36  1  0
  6 37  1  0
  6 38  1  0
  8 39  1  0
  9 40  1  0
 12 41  1  0
 13 42  1  0
 18 43  1  0
 22 44  1  0
 23 45  1  0
 24 46  1  0
 25 47  1  0
 26 48  1  0
M  END
$$$$
