
     RDKit          3D

 43 45  0  0  0  0  0  0  0  0999 V2000
   -5.7451    0.9615    2.1465 C   0  0  0  0  0  0  0  0  0  0  0  0
   -6.3700    1.0004    0.8312 N   0  0  0  0  0  0  0  0  0  0  0  0
   -7.7640    1.4072    0.7993 C   0  0  0  0  0  0  0  0  0  0  0  0
   -5.8173    0.4541   -0.3258 C   0  0  0  0  0  0  0  0  0  0  0  0
   -6.4755    0.1823   -1.3281 O   0  0  0  0  0  0  0  0  0  0  0  0
   -4.3596    0.1931   -0.3790 C   0  0  0  0  0  0  0  0  0  0  0  0
   -3.4359    1.1847   -0.0395 C   0  0  0  0  0  0  0  0  0  0  0  0
   -2.0630    0.9233   -0.1259 C   0  0  0  0  0  0  0  0  0  0  0  0
   -1.6026   -0.3196   -0.5691 C   0  0  0  0  0  0  0  0  0  0  0  0
   -0.2395   -0.6647   -0.6898 N   0  0  0  0  0  0  0  0  0  0  0  0
    0.8681    0.0980   -0.3397 C   0  0  0  0  0  0  0  0  0  0  0  0
    0.8027    1.2099    0.1763 O   0  0  0  0  0  0  0  0  0  0  0  0
    2.1454   -0.5454   -0.6258 C   0  0  0  0  0  0  0  0  0  0  0  0
    2.5098   -1.7270   -1.2486 C   0  0  0  0  0  0  0  0  0  0  0  0
    3.9269   -1.7915   -1.2162 C   0  0  0  0  0  0  0  0  0  0  0  0
    4.3636   -0.6486   -0.5789 C   0  0  0  0  0  0  0  0  0  0  0  0
    5.6737   -0.1058   -0.2251 C   0  0  0  0  0  0  0  0  0  0  0  0
    6.8478   -0.8107   -0.5344 C   0  0  0  0  0  0  0  0  0  0  0  0
    8.1051   -0.2960   -0.1978 C   0  0  0  0  0  0  0  0  0  0  0  0
    8.2005    0.9312    0.4525 C   0  0  0  0  0  0  0  0  0  0  0  0
    9.7458    1.5628    0.8662 Cl  0  0  0  0  0  0  0  0  0  0  0  0
    7.0507    1.6476    0.7688 C   0  0  0  0  0  0  0  0  0  0  0  0
    5.7953    1.1304    0.4311 C   0  0  0  0  0  0  0  0  0  0  0  0
    3.2829    0.1046   -0.2234 O   0  0  0  0  0  0  0  0  0  0  0  0
   -2.5394   -1.2964   -0.9384 C   0  0  0  0  0  0  0  0  0  0  0  0
   -3.9114   -1.0418   -0.8502 C   0  0  0  0  0  0  0  0  0  0  0  0
   -5.5640    1.9885    2.4757 H   0  0  0  0  0  0  0  0  0  0  0  0
   -4.8092    0.4010    2.1514 H   0  0  0  0  0  0  0  0  0  0  0  0
   -6.4295    0.4731    2.8476 H   0  0  0  0  0  0  0  0  0  0  0  0
   -8.1080    1.5842   -0.2235 H   0  0  0  0  0  0  0  0  0  0  0  0
   -7.8803    2.3308    1.3740 H   0  0  0  0  0  0  0  0  0  0  0  0
   -8.3713    0.6154    1.2476 H   0  0  0  0  0  0  0  0  0  0  0  0
   -3.7740    2.1672    0.2803 H   0  0  0  0  0  0  0  0  0  0  0  0
   -1.3824    1.7236    0.1481 H   0  0  0  0  0  0  0  0  0  0  0  0
   -0.0576   -1.5879   -1.0539 H   0  0  0  0  0  0  0  0  0  0  0  0
    1.8509   -2.4629   -1.6858 H   0  0  0  0  0  0  0  0  0  0  0  0
    4.5498   -2.5794   -1.6155 H   0  0  0  0  0  0  0  0  0  0  0  0
    6.8024   -1.7710   -1.0419 H   0  0  0  0  0  0  0  0  0  0  0  0
    9.0017   -0.8577   -0.4464 H   0  0  0  0  0  0  0  0  0  0  0  0
    7.1177    2.6064    1.2759 H   0  0  0  0  0  0  0  0  0  0  0  0
    4.9076    1.7074    0.6871 H   0  0  0  0  0  0  0  0  0  0  0  0
   -2.2197   -2.2689   -1.3042 H   0  0  0  0  0  0  0  0  0  0  0  0
   -4.6289   -1.8015   -1.1527 H   0  0  0  0  0  0  0  0  0  0  0  0
  1  2  1  0
  2  3  1  0
  2  4  1  0
  4  5  2  0
  4  6  1  0
  6  7  2  0
  7  8  1  0
  8  9  2  0
  9 10  1  0
 10 11  1  0
 11 12  2  0
 11 13  1  0
 13 14  2  0
 14 15  1  0
 15 16  2  0
 16 17  1  0
 17 18  2  0
 18 19  1  0
 19 20  2  0
 20 21  1  0
 20 22  1  0
 22 23  2  0
 16 24  1  0
  9 25  1  0
 25 26  2  0
 26  6  1  0
 24 13  1  0
 23 17  1  0
  1 27  1  0
  1 28  1  0
  1 29  1  0
  3 30  1  0
  3 31  1  0
  3 32  1  0
  7 33  1  0
  8 34  1  0
 10 35  1  0
 14 36  1  0
 15 37  1  0
 18 38  1  0
 19 39  1  0
 22 40  1  0
 23 41  1  0
 25 42  1  0
 26 43  1  0
M  END
$$$$
