
     RDKit          3D

 59 63  0  0  0  0  0  0  0  0999 V2000
   -6.5295   -1.9082    2.2279 C   0  0  0  0  0  0  0  0  0  0  0  0
   -5.8073   -1.7588    0.8949 C   0  0  0  0  0  0  0  0  0  0  0  0
   -4.3631   -1.2549    1.0435 C   0  0  0  0  0  0  0  0  0  0  0  0
   -3.5518   -2.2669    1.7098 N   0  0  0  0  0  0  0  0  0  0  0  0
   -2.2079   -1.8911    1.8040 C   0  0  0  0  0  0  0  0  0  0  0  0
   -1.6047   -2.2975    2.9305 N   0  0  0  0  0  0  0  0  0  0  0  0
   -0.3032   -2.0327    3.0173 C   0  0  0  0  0  0  0  0  0  0  0  0
    0.4320   -1.4129    2.0915 N   0  0  0  0  0  0  0  0  0  0  0  0
   -0.1926   -1.0109    0.9595 C   0  0  0  0  0  0  0  0  0  0  0  0
    0.6192   -0.3520    0.0097 N   0  0  0  0  0  0  0  0  0  0  0  0
    1.1973    0.8952    0.5971 C   0  0  0  0  0  0  0  0  0  0  0  0
    2.7178    0.8074    0.8505 C   0  0  0  0  0  0  0  0  0  0  0  0
    3.4273    0.4852   -0.4042 N   0  0  0  0  0  0  0  0  0  0  0  0
    4.8184    0.4862   -0.3231 C   0  0  0  0  0  0  0  0  0  0  0  0
    5.5991    0.3432   -1.4728 C   0  0  0  0  0  0  0  0  0  0  0  0
    6.9912    0.3651   -1.3849 C   0  0  0  0  0  0  0  0  0  0  0  0
    7.5867    0.5421   -0.1470 C   0  0  0  0  0  0  0  0  0  0  0  0
    6.7571    0.6951    0.9464 C   0  0  0  0  0  0  0  0  0  0  0  0
    5.4066    0.6759    0.8792 N   0  0  0  0  0  0  0  0  0  0  0  0
    2.7834   -0.5385   -1.2502 C   0  0  0  0  0  0  0  0  0  0  0  0
    1.6589   -1.2874   -0.4989 C   0  0  0  0  0  0  0  0  0  0  0  0
   -1.5676   -1.2091    0.7581 C   0  0  0  0  0  0  0  0  0  0  0  0
   -2.3605   -0.7943   -0.3766 N   0  0  0  0  0  0  0  0  0  0  0  0
   -1.7647   -0.3167   -1.6179 C   0  0  0  0  0  0  0  0  0  0  0  0
   -1.5082    1.1776   -1.7016 C   0  0  0  0  0  0  0  0  0  0  0  0
   -0.5946    1.6485   -2.6617 C   0  0  0  0  0  0  0  0  0  0  0  0
   -0.3338    3.0142   -2.7974 C   0  0  0  0  0  0  0  0  0  0  0  0
   -0.9970    3.9256   -1.9816 C   0  0  0  0  0  0  0  0  0  0  0  0
   -0.6449    5.7744   -2.1587 Br  0  0  0  0  0  0  0  0  0  0  0  0
   -1.9210    3.4842   -1.0386 C   0  0  0  0  0  0  0  0  0  0  0  0
   -2.1796    2.1167   -0.9041 C   0  0  0  0  0  0  0  0  0  0  0  0
   -3.7604   -0.8982   -0.3356 C   0  0  0  0  0  0  0  0  0  0  0  0
   -4.4777   -0.6243   -1.3004 O   0  0  0  0  0  0  0  0  0  0  0  0
   -6.5293   -0.9639    2.7814 H   0  0  0  0  0  0  0  0  0  0  0  0
   -6.0671   -2.6772    2.8535 H   0  0  0  0  0  0  0  0  0  0  0  0
   -7.5711   -2.2007    2.0587 H   0  0  0  0  0  0  0  0  0  0  0  0
   -6.3845   -1.0577    0.2789 H   0  0  0  0  0  0  0  0  0  0  0  0
   -5.8196   -2.7217    0.3679 H   0  0  0  0  0  0  0  0  0  0  0  0
   -4.3698   -0.3287    1.6355 H   0  0  0  0  0  0  0  0  0  0  0  0
   -3.8503   -2.5615    2.6347 H   0  0  0  0  0  0  0  0  0  0  0  0
    0.2075   -2.3517    3.9192 H   0  0  0  0  0  0  0  0  0  0  0  0
    1.0228    1.7006   -0.1253 H   0  0  0  0  0  0  0  0  0  0  0  0
    0.6831    1.2000    1.5181 H   0  0  0  0  0  0  0  0  0  0  0  0
    2.9236    0.0482    1.6159 H   0  0  0  0  0  0  0  0  0  0  0  0
    3.0533    1.7792    1.2336 H   0  0  0  0  0  0  0  0  0  0  0  0
    5.1321    0.2406   -2.4462 H   0  0  0  0  0  0  0  0  0  0  0  0
    7.5978    0.2565   -2.2788 H   0  0  0  0  0  0  0  0  0  0  0  0
    8.6641    0.5699   -0.0377 H   0  0  0  0  0  0  0  0  0  0  0  0
    7.1647    0.8463    1.9415 H   0  0  0  0  0  0  0  0  0  0  0  0
    3.4975   -1.2900   -1.6084 H   0  0  0  0  0  0  0  0  0  0  0  0
    2.3628   -0.0371   -2.1299 H   0  0  0  0  0  0  0  0  0  0  0  0
    2.1200   -1.8699    0.3108 H   0  0  0  0  0  0  0  0  0  0  0  0
    1.1903   -2.0026   -1.1861 H   0  0  0  0  0  0  0  0  0  0  0  0
   -0.8629   -0.8959   -1.8355 H   0  0  0  0  0  0  0  0  0  0  0  0
   -2.4422   -0.5559   -2.4483 H   0  0  0  0  0  0  0  0  0  0  0  0
   -0.0698    0.9459   -3.3052 H   0  0  0  0  0  0  0  0  0  0  0  0
    0.3859    3.3524   -3.5375 H   0  0  0  0  0  0  0  0  0  0  0  0
   -2.4496    4.1928   -0.4069 H   0  0  0  0  0  0  0  0  0  0  0  0
   -2.9139    1.8003   -0.1686 H   0  0  0  0  0  0  0  0  0  0  0  0
  1  2  1  0
  2  3  1  0
  3  4  1  0
  4  5  1  0
  5  6  2  0
  6  7  1  0
  7  8  2  0
  8  9  1  0
  9 10  1  0
 10 11  1  0
 11 12  1  0
 12 13  1  0
 13 14  1  0
 14 15  2  0
 15 16  1  0
 16 17  2  0
 17 18  1  0
 18 19  2  0
 13 20  1  0
 20 21  1  0
  9 22  2  0
 22 23  1  0
 23 24  1  0
 24 25  1  0
 25 26  2  0
 26 27  1  0
 27 28  2  0
 28 29  1  0
 28 30  1  0
 30 31  2  0
 23 32  1  0
 32 33  2  0
 32  3  1  0
 22  5  1  0
 31 25  1  0
 21 10  1  0
 19 14  1  0
  1 34  1  0
  1 35  1  0
  1 36  1  0
  2 37  1  0
  2 38  1  0
  3 39  1  0
  4 40  1  0
  7 41  1  0
 11 42  1  0
 11 43  1  0
 12 44  1  0
 12 45  1  0
 15 46  1  0
 16 47  1  0
 17 48  1  0
 18 49  1  0
 20 50  1  0
 20 51  1  0
 21 52  1  0
 21 53  1  0
 24 54  1  0
 24 55  1  0
 26 56  1  0
 27 57  1  0
 30 58  1  0
 31 59  1  0
M  END
$$$$
