
     RDKit          3D

 58 60  0  0  0  0  0  0  0  0999 V2000
   -1.0147   -3.4196   -2.8635 C   0  0  0  0  0  0  0  0  0  0  0  0
   -2.0567   -2.4309   -2.4076 C   0  0  0  0  0  0  0  0  0  0  0  0
   -3.3640   -2.9032   -2.1833 C   0  0  0  0  0  0  0  0  0  0  0  0
   -4.3733   -2.0409   -1.7633 C   0  0  0  0  0  0  0  0  0  0  0  0
   -4.0735   -0.6963   -1.5646 C   0  0  0  0  0  0  0  0  0  0  0  0
   -5.3427    0.4342   -1.0574 S   0  0  0  0  0  6  0  0  0  0  0  0
   -5.3366    1.5341   -1.9976 O   0  0  0  0  0  0  0  0  0  0  0  0
   -6.5517   -0.3200   -0.7955 O   0  0  0  0  0  0  0  0  0  0  0  0
   -4.7648    1.0046    0.4426 N   0  0  0  0  0  0  0  0  0  0  0  0
   -4.7024   -0.0219    1.5313 C   0  0  0  0  0  0  0  0  0  0  0  0
   -4.0642    0.5948    2.7814 C   0  0  0  0  0  0  0  0  0  0  0  0
   -4.8055    1.7383    3.2317 O   0  0  0  0  0  0  0  0  0  0  0  0
   -4.8366    2.7432    2.2061 C   0  0  0  0  0  0  0  0  0  0  0  0
   -5.5010    2.2151    0.9298 C   0  0  0  0  0  0  0  0  0  0  0  0
   -2.7809   -0.2048   -1.7787 C   0  0  0  0  0  0  0  0  0  0  0  0
   -1.7597   -1.0645   -2.1950 C   0  0  0  0  0  0  0  0  0  0  0  0
   -0.4462   -0.6042   -2.4414 N   0  0  0  0  0  0  0  0  0  0  0  0
    0.0928    0.6322   -2.1273 C   0  0  0  0  0  0  0  0  0  0  0  0
   -0.4461    1.5193   -1.4710 O   0  0  0  0  0  0  0  0  0  0  0  0
    1.5134    0.8199   -2.6711 C   0  0  0  0  0  0  0  0  0  0  0  0
    2.5243    0.2713   -1.8237 O   0  0  0  0  0  0  0  0  0  0  0  0
    2.6983   -1.0775   -1.9273 C   0  0  0  0  0  0  0  0  0  0  0  0
    2.0232   -1.8005   -2.6534 O   0  0  0  0  0  0  0  0  0  0  0  0
    3.8099   -1.5788   -1.0138 C   0  0  0  0  0  0  0  0  0  0  0  0
    4.4760   -0.5243   -0.2661 N   0  0  0  0  0  0  0  0  0  0  0  0
    5.5446   -0.8210    0.5500 C   0  0  0  0  0  0  0  0  0  0  0  0
    6.0132   -1.9500    0.6410 O   0  0  0  0  0  0  0  0  0  0  0  0
    6.0960    0.2987    1.3630 C   0  0  0  0  0  0  0  0  0  0  0  0
    5.9771    1.6372    0.9660 C   0  0  0  0  0  0  0  0  0  0  0  0
    6.5134    2.6522    1.7625 C   0  0  0  0  0  0  0  0  0  0  0  0
    7.1747    2.3357    2.9493 C   0  0  0  0  0  0  0  0  0  0  0  0
    7.3093    1.0045    3.3409 C   0  0  0  0  0  0  0  0  0  0  0  0
    6.7752   -0.0129    2.5481 C   0  0  0  0  0  0  0  0  0  0  0  0
   -0.6098   -3.1252   -3.8369 H   0  0  0  0  0  0  0  0  0  0  0  0
   -0.2061   -3.4827   -2.1287 H   0  0  0  0  0  0  0  0  0  0  0  0
   -1.4328   -4.4258   -2.9755 H   0  0  0  0  0  0  0  0  0  0  0  0
   -3.6045   -3.9531   -2.3426 H   0  0  0  0  0  0  0  0  0  0  0  0
   -5.3799   -2.4209   -1.6054 H   0  0  0  0  0  0  0  0  0  0  0  0
   -4.1021   -0.8792    1.2148 H   0  0  0  0  0  0  0  0  0  0  0  0
   -5.7177   -0.3602    1.7691 H   0  0  0  0  0  0  0  0  0  0  0  0
   -4.0592   -0.1365    3.5952 H   0  0  0  0  0  0  0  0  0  0  0  0
   -3.0258    0.8920    2.5916 H   0  0  0  0  0  0  0  0  0  0  0  0
   -3.8124    3.0831    2.0092 H   0  0  0  0  0  0  0  0  0  0  0  0
   -5.4029    3.5951    2.5950 H   0  0  0  0  0  0  0  0  0  0  0  0
   -5.4781    3.0025    0.1695 H   0  0  0  0  0  0  0  0  0  0  0  0
   -6.5429    1.9431    1.1377 H   0  0  0  0  0  0  0  0  0  0  0  0
   -2.6085    0.8579   -1.6327 H   0  0  0  0  0  0  0  0  0  0  0  0
    0.2169   -1.2883   -2.8049 H   0  0  0  0  0  0  0  0  0  0  0  0
    1.7013    1.8967   -2.7505 H   0  0  0  0  0  0  0  0  0  0  0  0
    1.5898    0.4223   -3.6911 H   0  0  0  0  0  0  0  0  0  0  0  0
    4.5601   -2.0917   -1.6227 H   0  0  0  0  0  0  0  0  0  0  0  0
    3.3763   -2.2777   -0.2924 H   0  0  0  0  0  0  0  0  0  0  0  0
    3.9786    0.3504   -0.1491 H   0  0  0  0  0  0  0  0  0  0  0  0
    5.4970    1.9084    0.0307 H   0  0  0  0  0  0  0  0  0  0  0  0
    6.4246    3.6910    1.4531 H   0  0  0  0  0  0  0  0  0  0  0  0
    7.5945    3.1276    3.5654 H   0  0  0  0  0  0  0  0  0  0  0  0
    7.8338    0.7573    4.2610 H   0  0  0  0  0  0  0  0  0  0  0  0
    6.8887   -1.0501    2.8572 H   0  0  0  0  0  0  0  0  0  0  0  0
  1  2  1  0
  2  3  2  0
  3  4  1  0
  4  5  2  0
  5  6  1  0
  6  7  2  0
  6  8  2  0
  6  9  1  0
  9 10  1  0
 10 11  1  0
 11 12  1  0
 12 13  1  0
 13 14  1  0
  5 15  1  0
 15 16  2  0
 16 17  1  0
 17 18  1  0
 18 19  2  0
 18 20  1  0
 20 21  1  0
 21 22  1  0
 22 23  2  0
 22 24  1  0
 24 25  1  0
 25 26  1  0
 26 27  2  0
 26 28  1  0
 28 29  2  0
 29 30  1  0
 30 31  2  0
 31 32  1  0
 32 33  2  0
 16  2  1  0
 33 28  1  0
 14  9  1  0
  1 34  1  0
  1 35  1  0
  1 36  1  0
  3 37  1  0
  4 38  1  0
 10 39  1  0
 10 40  1  0
 11 41  1  0
 11 42  1  0
 13 43  1  0
 13 44  1  0
 14 45  1  0
 14 46  1  0
 15 47  1  0
 17 48  1  0
 20 49  1  0
 20 50  1  0
 24 51  1  0
 24 52  1  0
 25 53  1  0
 29 54  1  0
 30 55  1  0
 31 56  1  0
 32 57  1  0
 33 58  1  0
M  END
$$$$
