
     RDKit          3D

 46 48  0  0  0  0  0  0  0  0999 V2000
   -3.4530    0.4153    2.7005 O   0  0  0  0  0  0  0  0  0  0  0  0
   -3.1180    0.1653    1.5496 C   0  0  0  0  0  0  0  0  0  0  0  0
   -3.9169   -0.3734    0.5561 N   0  0  0  0  0  0  0  0  0  0  0  0
   -5.2959   -0.6693    0.6419 C   0  0  0  0  0  0  0  0  0  0  0  0
   -6.0937   -0.3708    1.7485 C   0  0  0  0  0  0  0  0  0  0  0  0
   -7.4501   -0.6975    1.7393 C   0  0  0  0  0  0  0  0  0  0  0  0
   -8.2036   -0.4053    2.8077 F   0  0  0  0  0  0  0  0  0  0  0  0
   -8.0369   -1.3167    0.6467 C   0  0  0  0  0  0  0  0  0  0  0  0
   -7.2436   -1.6075   -0.4504 C   0  0  0  0  0  0  0  0  0  0  0  0
   -7.7881   -2.2041   -1.5189 F   0  0  0  0  0  0  0  0  0  0  0  0
   -5.8863   -1.2908   -0.4654 C   0  0  0  0  0  0  0  0  0  0  0  0
   -1.7002    0.4187    1.1622 C   0  0  0  0  0  0  0  0  0  0  0  0
   -0.7101    0.2995    2.1402 C   0  0  0  0  0  0  0  0  0  0  0  0
    0.6361    0.5404    1.8302 C   0  0  0  0  0  0  0  0  0  0  0  0
    1.0489    0.8877    0.5336 C   0  0  0  0  0  0  0  0  0  0  0  0
    2.3843    1.2103    0.2517 N   0  0  0  0  0  0  0  0  0  0  0  0
    3.4686    0.7726    1.1362 C   0  0  0  0  0  0  0  0  0  0  0  0
    4.8396    1.1601    0.5605 C   0  0  0  0  0  0  0  0  0  0  0  0
    5.2365    0.3371   -0.6431 C   0  0  0  0  0  0  0  0  0  0  0  0
    5.0780    0.8471   -1.9387 C   0  0  0  0  0  0  0  0  0  0  0  0
    5.4248    0.0767   -3.0494 C   0  0  0  0  0  0  0  0  0  0  0  0
    5.9363   -1.2078   -2.8767 C   0  0  0  0  0  0  0  0  0  0  0  0
    6.1006   -1.7241   -1.5930 C   0  0  0  0  0  0  0  0  0  0  0  0
    5.7514   -0.9567   -0.4806 C   0  0  0  0  0  0  0  0  0  0  0  0
    0.0188    1.0529   -0.4236 C   0  0  0  0  0  0  0  0  0  0  0  0
    0.3286    1.4810   -1.7905 N   0  0  0  0  0  4  0  0  0  0  0  0
   -0.5199    2.1702   -2.3761 O   0  0  0  0  0  0  0  0  0  0  0  0
    1.3942    1.0960   -2.2948 O   0  0  0  0  0  1  0  0  0  0  0  0
   -1.3392    0.8174   -0.1244 C   0  0  0  0  0  0  0  0  0  0  0  0
   -3.4658   -0.6501   -0.3061 H   0  0  0  0  0  0  0  0  0  0  0  0
   -5.7032    0.1178    2.6343 H   0  0  0  0  0  0  0  0  0  0  0  0
   -9.0912   -1.5649    0.6519 H   0  0  0  0  0  0  0  0  0  0  0  0
   -5.3125   -1.5411   -1.3523 H   0  0  0  0  0  0  0  0  0  0  0  0
   -0.9810    0.0284    3.1604 H   0  0  0  0  0  0  0  0  0  0  0  0
    1.3531    0.4535    2.6427 H   0  0  0  0  0  0  0  0  0  0  0  0
    2.6081    1.0310   -0.7359 H   0  0  0  0  0  0  0  0  0  0  0  0
    3.3666    1.2722    2.1066 H   0  0  0  0  0  0  0  0  0  0  0  0
    3.4151   -0.3111    1.2965 H   0  0  0  0  0  0  0  0  0  0  0  0
    4.8533    2.2270    0.3031 H   0  0  0  0  0  0  0  0  0  0  0  0
    5.6053    1.0264    1.3355 H   0  0  0  0  0  0  0  0  0  0  0  0
    4.6756    1.8462   -2.0942 H   0  0  0  0  0  0  0  0  0  0  0  0
    5.2920    0.4795   -4.0503 H   0  0  0  0  0  0  0  0  0  0  0  0
    6.2060   -1.8058   -3.7430 H   0  0  0  0  0  0  0  0  0  0  0  0
    6.5006   -2.7256   -1.4586 H   0  0  0  0  0  0  0  0  0  0  0  0
    5.8863   -1.3759    0.5138 H   0  0  0  0  0  0  0  0  0  0  0  0
   -2.0993    0.9840   -0.8841 H   0  0  0  0  0  0  0  0  0  0  0  0
  1  2  2  0
  2  3  1  0
  3  4  1  0
  4  5  2  0
  5  6  1  0
  6  7  1  0
  6  8  2  0
  8  9  1  0
  9 10  1  0
  9 11  2  0
  2 12  1  0
 12 13  2  0
 13 14  1  0
 14 15  2  0
 15 16  1  0
 16 17  1  0
 17 18  1  0
 18 19  1  0
 19 20  2  0
 20 21  1  0
 21 22  2  0
 22 23  1  0
 23 24  2  0
 15 25  1  0
 25 26  1  0
 26 27  2  0
 26 28  1  0
 25 29  2  0
 11  4  1  0
 29 12  1  0
 24 19  1  0
  3 30  1  0
  5 31  1  0
  8 32  1  0
 11 33  1  0
 13 34  1  0
 14 35  1  0
 16 36  1  0
 17 37  1  0
 17 38  1  0
 18 39  1  0
 18 40  1  0
 20 41  1  0
 21 42  1  0
 22 43  1  0
 23 44  1  0
 24 45  1  0
 29 46  1  0
M  CHG  2  26   1  28  -1
M  END
$$$$
