
     RDKit          3D

 27 27  0  0  0  0  0  0  0  0999 V2000
   -2.1183    0.4796   -1.2961 C   0  0  0  0  0  0  0  0  0  0  0  0
   -0.9496   -0.5151   -1.2515 C   0  0  0  0  0  0  0  0  0  0  0  0
   -1.4987   -1.8820   -1.7251 C   0  0  0  0  0  0  0  0  0  0  0  0
    0.1714   -0.1076   -2.2163 C   0  0  0  0  0  0  0  0  0  0  0  0
   -0.3319   -0.7479    0.4368 S   0  0  0  0  0  6  0  0  0  0  0  0
    0.6607   -1.8054    0.3996 O   0  0  0  0  0  0  0  0  0  0  0  0
   -1.4559   -0.7676    1.3498 O   0  0  0  0  0  0  0  0  0  0  0  0
    0.5934    0.6210    0.9914 C   0  0  0  0  0  0  0  0  0  0  0  0
    0.5691    1.9439    0.4524 C   0  0  0  0  0  0  0  0  0  0  0  0
    1.4469    2.7889    1.0939 C   0  0  0  0  0  0  0  0  0  0  0  0
    2.2801    2.0061    2.3553 S   0  0  0  0  0  0  0  0  0  0  0  0
    1.4536    0.5249    2.0797 C   0  0  0  0  0  0  0  0  0  0  0  0
    1.6735   -0.6016    2.9623 C   0  0  0  0  0  0  0  0  0  0  0  0
    0.8816   -1.4727    3.2872 O   0  0  0  0  0  0  0  0  0  0  0  0
    2.9306   -0.6343    3.4620 O   0  0  0  0  0  0  0  0  0  0  0  0
   -2.9571    0.1356   -0.6803 H   0  0  0  0  0  0  0  0  0  0  0  0
   -1.8480    1.4716   -0.9348 H   0  0  0  0  0  0  0  0  0  0  0  0
   -2.4920    0.5978   -2.3198 H   0  0  0  0  0  0  0  0  0  0  0  0
   -1.9271   -1.8113   -2.7314 H   0  0  0  0  0  0  0  0  0  0  0  0
   -0.7106   -2.6428   -1.7546 H   0  0  0  0  0  0  0  0  0  0  0  0
   -2.2825   -2.2500   -1.0530 H   0  0  0  0  0  0  0  0  0  0  0  0
    1.0177   -0.8012   -2.1604 H   0  0  0  0  0  0  0  0  0  0  0  0
    0.5575    0.8932   -2.0162 H   0  0  0  0  0  0  0  0  0  0  0  0
   -0.1862   -0.1060   -3.2526 H   0  0  0  0  0  0  0  0  0  0  0  0
   -0.0352    2.2964   -0.3696 H   0  0  0  0  0  0  0  0  0  0  0  0
    1.6373    3.8329    0.8820 H   0  0  0  0  0  0  0  0  0  0  0  0
    2.9198   -1.4462    4.0094 H   0  0  0  0  0  0  0  0  0  0  0  0
  1  2  1  0
  2  3  1  0
  2  4  1  0
  2  5  1  0
  5  6  2  0
  5  7  2  0
  5  8  1  0
  8  9  1  0
  9 10  2  0
 10 11  1  0
 11 12  1  0
 12 13  1  0
 13 14  2  0
 13 15  1  0
 12  8  2  0
  1 16  1  0
  1 17  1  0
  1 18  1  0
  3 19  1  0
  3 20  1  0
  3 21  1  0
  4 22  1  0
  4 23  1  0
  4 24  1  0
  9 25  1  0
 10 26  1  0
 15 27  1  0
M  END
$$$$
