
     RDKit          3D

 51 55  0  0  0  0  0  0  0  0999 V2000
   -1.8769    0.1822    2.3173 C   0  0  0  0  0  0  0  0  0  0  0  0
   -1.7975    0.1608    0.8095 C   0  0  0  0  0  0  0  0  0  0  0  0
   -0.6525   -0.4440    0.2990 N   0  0  0  0  0  0  0  0  0  0  0  0
   -0.4317   -0.5560   -1.0318 C   0  0  0  0  0  0  0  0  0  0  0  0
    0.5684   -1.1028   -1.8084 C   0  0  0  0  0  0  0  0  0  0  0  0
    1.8090   -1.7366   -1.4129 C   0  0  0  0  0  0  0  0  0  0  0  0
    2.4107   -2.5025   -2.1568 O   0  0  0  0  0  0  0  0  0  0  0  0
    2.2680   -1.3717   -0.1656 N   0  0  0  0  0  0  0  0  0  0  0  0
    3.5767   -1.7722    0.2967 C   0  0  0  0  0  0  0  0  0  0  0  0
    4.5822   -0.6728    0.0680 C   0  0  0  0  0  0  0  0  0  0  0  0
    5.2130   -0.5410   -1.1917 C   0  0  0  0  0  0  0  0  0  0  0  0
    6.1298    0.4866   -1.4348 C   0  0  0  0  0  0  0  0  0  0  0  0
    6.3919    1.3669   -0.4084 C   0  0  0  0  0  0  0  0  0  0  0  0
    5.7777    1.2535    0.8162 C   0  0  0  0  0  0  0  0  0  0  0  0
    4.8692    0.2514    1.0863 C   0  0  0  0  0  0  0  0  0  0  0  0
    6.1686    2.2235    1.6855 O   0  0  0  0  0  0  0  0  0  0  0  0
    7.1092    2.9544    0.8694 C   0  0  0  0  0  0  0  0  0  0  0  0
    7.2499    2.4205   -0.4631 O   0  0  0  0  0  0  0  0  0  0  0  0
    0.1001   -0.9182   -3.1311 C   0  0  0  0  0  0  0  0  0  0  0  0
   -1.0602   -0.2602   -3.1971 N   0  0  0  0  0  0  0  0  0  0  0  0
   -1.3814   -0.0445   -1.8937 N   0  0  0  0  0  0  0  0  0  0  0  0
   -2.5539    0.6150   -1.4917 C   0  0  0  0  0  0  0  0  0  0  0  0
   -3.3277    1.0918   -2.3131 O   0  0  0  0  0  0  0  0  0  0  0  0
   -2.7553    0.6818    0.0013 C   0  0  0  0  0  0  0  0  0  0  0  0
   -4.0346    1.3595    0.4308 C   0  0  0  0  0  0  0  0  0  0  0  0
   -5.2091    0.4150    0.5352 C   0  0  0  0  0  0  0  0  0  0  0  0
   -5.9561    0.0652   -0.5995 C   0  0  0  0  0  0  0  0  0  0  0  0
   -7.0344   -0.8182   -0.4971 C   0  0  0  0  0  0  0  0  0  0  0  0
   -7.3821   -1.3618    0.7387 C   0  0  0  0  0  0  0  0  0  0  0  0
   -6.6486   -1.0234    1.8734 C   0  0  0  0  0  0  0  0  0  0  0  0
   -5.5739   -0.1445    1.7637 C   0  0  0  0  0  0  0  0  0  0  0  0
   -4.8865    0.1648    2.8723 F   0  0  0  0  0  0  0  0  0  0  0  0
   -2.2038   -0.7936    2.6893 H   0  0  0  0  0  0  0  0  0  0  0  0
   -0.8917    0.3971    2.7463 H   0  0  0  0  0  0  0  0  0  0  0  0
   -2.5501    0.9471    2.7066 H   0  0  0  0  0  0  0  0  0  0  0  0
   -0.0976   -0.9711    0.9744 H   0  0  0  0  0  0  0  0  0  0  0  0
    1.8804   -0.5267    0.2320 H   0  0  0  0  0  0  0  0  0  0  0  0
    3.9007   -2.6966   -0.1944 H   0  0  0  0  0  0  0  0  0  0  0  0
    3.4892   -1.9881    1.3673 H   0  0  0  0  0  0  0  0  0  0  0  0
    4.9830   -1.2465   -1.9904 H   0  0  0  0  0  0  0  0  0  0  0  0
    6.6165    0.5891   -2.3980 H   0  0  0  0  0  0  0  0  0  0  0  0
    4.4008    0.1906    2.0628 H   0  0  0  0  0  0  0  0  0  0  0  0
    6.7743    3.9956    0.7962 H   0  0  0  0  0  0  0  0  0  0  0  0
    8.0890    2.9339    1.3606 H   0  0  0  0  0  0  0  0  0  0  0  0
    0.5808   -1.2265   -4.0522 H   0  0  0  0  0  0  0  0  0  0  0  0
   -4.2912    2.1705   -0.2645 H   0  0  0  0  0  0  0  0  0  0  0  0
   -3.9013    1.8848    1.3833 H   0  0  0  0  0  0  0  0  0  0  0  0
   -5.7063    0.4802   -1.5756 H   0  0  0  0  0  0  0  0  0  0  0  0
   -7.6033   -1.0800   -1.3866 H   0  0  0  0  0  0  0  0  0  0  0  0
   -8.2225   -2.0467    0.8157 H   0  0  0  0  0  0  0  0  0  0  0  0
   -6.9087   -1.4357    2.8433 H   0  0  0  0  0  0  0  0  0  0  0  0
  1  2  1  0
  2  3  1  0
  3  4  1  0
  4  5  2  0
  5  6  1  0
  6  7  2  0
  6  8  1  0
  8  9  1  0
  9 10  1  0
 10 11  2  0
 11 12  1  0
 12 13  2  0
 13 14  1  0
 14 15  2  0
 14 16  1  0
 16 17  1  0
 17 18  1  0
  5 19  1  0
 19 20  2  0
 20 21  1  0
 21 22  1  0
 22 23  2  0
 22 24  1  0
 24 25  1  0
 25 26  1  0
 26 27  2  0
 27 28  1  0
 28 29  2  0
 29 30  1  0
 30 31  2  0
 31 32  1  0
 24  2  2  0
 31 26  1  0
 21  4  1  0
 15 10  1  0
 18 13  1  0
  1 33  1  0
  1 34  1  0
  1 35  1  0
  3 36  1  0
  8 37  1  0
  9 38  1  0
  9 39  1  0
 11 40  1  0
 12 41  1  0
 15 42  1  0
 17 43  1  0
 17 44  1  0
 19 45  1  0
 25 46  1  0
 25 47  1  0
 27 48  1  0
 28 49  1  0
 29 50  1  0
 30 51  1  0
M  END
$$$$
