
     RDKit          3D

 40 41  0  0  0  0  0  0  0  0999 V2000
   -6.4658    3.1278   -0.5134 C   0  0  0  0  0  0  0  0  0  0  0  0
   -6.1465    1.8184   -0.0578 O   0  0  0  0  0  0  0  0  0  0  0  0
   -4.8470    1.5967    0.3064 C   0  0  0  0  0  0  0  0  0  0  0  0
   -4.6088    0.3408    0.8708 C   0  0  0  0  0  0  0  0  0  0  0  0
   -3.3256   -0.0173    1.2922 C   0  0  0  0  0  0  0  0  0  0  0  0
   -2.2620    0.8839    1.1550 C   0  0  0  0  0  0  0  0  0  0  0  0
   -0.9134    0.4581    1.6091 C   0  0  0  0  0  0  0  0  0  0  0  0
   -0.6572   -0.6557    2.0378 O   0  0  0  0  0  0  0  0  0  0  0  0
   -0.0166    1.4621    1.4692 O   0  0  0  0  0  0  0  0  0  0  0  0
    1.3161    1.1333    1.8488 C   0  0  0  0  0  0  0  0  0  0  0  0
    2.0107    0.2454    0.8153 C   0  0  0  0  0  0  0  0  0  0  0  0
    2.5978    0.6934   -0.1715 O   0  0  0  0  0  0  0  0  0  0  0  0
    1.9106   -1.1051    1.0601 N   0  0  0  0  0  0  0  0  0  0  0  0
    2.3419   -2.0481    0.0443 C   0  0  0  0  0  0  0  0  0  0  0  0
    3.8550   -2.0237   -0.2136 C   0  0  0  0  0  0  0  0  0  0  0  0
    4.1768   -2.2984   -1.5966 N   0  0  0  0  0  0  0  0  0  0  0  0
    4.2016   -1.3637   -2.6073 C   0  0  0  0  0  0  0  0  0  0  0  0
    3.9223   -0.0454   -2.3972 O   0  0  0  0  0  0  0  0  0  0  0  0
    4.5300   -1.8550   -3.8058 C   0  0  0  0  0  0  0  0  0  0  0  0
    4.8282   -3.5623   -3.7373 S   0  0  0  0  0  0  0  0  0  0  0  0
    4.4644   -3.5939   -2.0042 C   0  0  0  0  0  0  0  0  0  0  0  0
    4.4681   -4.6106   -1.3275 O   0  0  0  0  0  0  0  0  0  0  0  0
   -2.4982    2.1390    0.5803 C   0  0  0  0  0  0  0  0  0  0  0  0
   -3.7852    2.4918    0.1563 C   0  0  0  0  0  0  0  0  0  0  0  0
   -6.0028    3.3268   -1.4864 H   0  0  0  0  0  0  0  0  0  0  0  0
   -6.1864    3.8929    0.2204 H   0  0  0  0  0  0  0  0  0  0  0  0
   -7.5512    3.1748   -0.6465 H   0  0  0  0  0  0  0  0  0  0  0  0
   -5.4313   -0.3647    0.9791 H   0  0  0  0  0  0  0  0  0  0  0  0
   -3.1669   -1.0030    1.7228 H   0  0  0  0  0  0  0  0  0  0  0  0
    1.8801    2.0654    1.9239 H   0  0  0  0  0  0  0  0  0  0  0  0
    1.3400    0.6712    2.8399 H   0  0  0  0  0  0  0  0  0  0  0  0
    1.0882   -1.3686    1.6062 H   0  0  0  0  0  0  0  0  0  0  0  0
    1.7780   -1.8179   -0.8650 H   0  0  0  0  0  0  0  0  0  0  0  0
    2.0356   -3.0467    0.3724 H   0  0  0  0  0  0  0  0  0  0  0  0
    4.3217   -2.7868    0.4126 H   0  0  0  0  0  0  0  0  0  0  0  0
    4.3310   -1.0860    0.0767 H   0  0  0  0  0  0  0  0  0  0  0  0
    3.4753    0.0818   -1.5344 H   0  0  0  0  0  0  0  0  0  0  0  0
    4.6054   -1.2739   -4.7162 H   0  0  0  0  0  0  0  0  0  0  0  0
   -1.6893    2.8560    0.4500 H   0  0  0  0  0  0  0  0  0  0  0  0
   -3.9246    3.4669   -0.2953 H   0  0  0  0  0  0  0  0  0  0  0  0
  1  2  1  0
  2  3  1  0
  3  4  2  0
  4  5  1  0
  5  6  2  0
  6  7  1  0
  7  8  2  0
  7  9  1  0
  9 10  1  0
 10 11  1  0
 11 12  2  0
 11 13  1  0
 13 14  1  0
 14 15  1  0
 15 16  1  0
 16 17  1  0
 17 18  1  0
 17 19  2  0
 19 20  1  0
 20 21  1  0
 21 22  2  0
  6 23  1  0
 23 24  2  0
 24  3  1  0
 21 16  1  0
  1 25  1  0
  1 26  1  0
  1 27  1  0
  4 28  1  0
  5 29  1  0
 10 30  1  0
 10 31  1  0
 13 32  1  0
 14 33  1  0
 14 34  1  0
 15 35  1  0
 15 36  1  0
 18 37  1  0
 19 38  1  0
 23 39  1  0
 24 40  1  0
M  END
$$$$
