
     RDKit          3D

 29 30  0  0  0  0  0  0  0  0999 V2000
    4.2720    0.9569   -0.2937 C   0  0  0  0  0  0  0  0  0  0  0  0
    2.9668    0.4515    0.2943 C   0  0  0  0  0  0  0  0  0  0  0  0
    2.7010   -0.8904   -0.2219 N   0  0  0  0  0  0  0  0  0  0  0  0
    1.6791   -1.9163    0.6276 S   0  0  0  0  0  6  0  0  0  0  0  0
    1.4595   -3.0711   -0.2148 O   0  0  0  0  0  0  0  0  0  0  0  0
    2.1865   -2.0401    1.9760 O   0  0  0  0  0  0  0  0  0  0  0  0
    0.1649   -0.9926    0.6844 C   0  0  0  0  0  0  0  0  0  0  0  0
   -0.2177   -0.3488    1.8766 C   0  0  0  0  0  0  0  0  0  0  0  0
   -1.3977    0.3953    1.9190 C   0  0  0  0  0  0  0  0  0  0  0  0
   -2.1719    0.4511    0.7720 C   0  0  0  0  0  0  0  0  0  0  0  0
   -1.8058   -0.2176   -0.3981 C   0  0  0  0  0  0  0  0  0  0  0  0
   -0.6285   -0.9333   -0.4675 C   0  0  0  0  0  0  0  0  0  0  0  0
   -2.6929    0.0242   -1.4741 N   0  0  0  0  0  0  0  0  0  0  0  0
   -3.8901    0.5547   -0.7949 C   0  0  0  0  0  0  0  0  0  0  0  0
   -3.4371    1.2004    0.5279 C   0  0  0  0  0  0  0  0  0  0  0  0
    4.4921    1.9636    0.0746 H   0  0  0  0  0  0  0  0  0  0  0  0
    5.1054    0.3012   -0.0201 H   0  0  0  0  0  0  0  0  0  0  0  0
    4.2224    0.9956   -1.3872 H   0  0  0  0  0  0  0  0  0  0  0  0
    3.0444    0.4429    1.3857 H   0  0  0  0  0  0  0  0  0  0  0  0
    2.1535    1.1234    0.0028 H   0  0  0  0  0  0  0  0  0  0  0  0
    2.6650   -1.0267   -1.2307 H   0  0  0  0  0  0  0  0  0  0  0  0
    0.4065   -0.4161    2.7656 H   0  0  0  0  0  0  0  0  0  0  0  0
   -1.6943    0.9155    2.8242 H   0  0  0  0  0  0  0  0  0  0  0  0
   -0.3302   -1.4276   -1.3858 H   0  0  0  0  0  0  0  0  0  0  0  0
   -2.8554   -0.8205   -2.0180 H   0  0  0  0  0  0  0  0  0  0  0  0
   -4.5813   -0.2742   -0.5917 H   0  0  0  0  0  0  0  0  0  0  0  0
   -4.4129    1.2739   -1.4335 H   0  0  0  0  0  0  0  0  0  0  0  0
   -3.2245    2.2660    0.3942 H   0  0  0  0  0  0  0  0  0  0  0  0
   -4.1789    1.0593    1.3185 H   0  0  0  0  0  0  0  0  0  0  0  0
  1  2  1  0
  2  3  1  0
  3  4  1  0
  4  5  2  0
  4  6  2  0
  4  7  1  0
  7  8  2  0
  8  9  1  0
  9 10  2  0
 10 11  1  0
 11 12  2  0
 11 13  1  0
 13 14  1  0
 14 15  1  0
 12  7  1  0
 15 10  1  0
  1 16  1  0
  1 17  1  0
  1 18  1  0
  2 19  1  0
  2 20  1  0
  3 21  1  0
  8 22  1  0
  9 23  1  0
 12 24  1  0
 13 25  1  0
 14 26  1  0
 14 27  1  0
 15 28  1  0
 15 29  1  0
M  END
$$$$
