
     RDKit          3D

 42 41  0  0  0  0  0  0  0  0999 V2000
   -5.5659   -0.4016    0.5770 C   0  0  0  0  0  0  0  0  0  0  0  0
   -4.8970   -0.3786    1.9238 C   0  0  0  0  0  0  0  0  0  0  0  0
   -5.8207   -0.0542    3.0689 C   0  0  0  0  0  0  0  0  0  0  0  0
   -3.5874   -0.6087    2.1416 C   0  0  0  0  0  0  0  0  0  0  0  0
   -2.5378   -0.9763    1.1268 C   0  0  0  0  0  0  0  0  0  0  0  0
   -1.6547    0.2261    0.7742 C   0  0  0  0  0  0  0  0  0  0  0  0
   -0.5404   -0.1305   -0.1942 C   0  0  0  0  0  0  0  0  0  0  0  0
   -0.9826   -0.4185   -1.6045 C   0  0  0  0  0  0  0  0  0  0  0  0
    0.7437   -0.1359    0.2169 C   0  0  0  0  0  0  0  0  0  0  0  0
    1.9633   -0.4861   -0.5932 C   0  0  0  0  0  0  0  0  0  0  0  0
    2.7441    0.7675   -1.0004 C   0  0  0  0  0  0  0  0  0  0  0  0
    3.9888    0.4324   -1.7949 C   0  0  0  0  0  0  0  0  0  0  0  0
    3.7708    0.2551   -3.2760 C   0  0  0  0  0  0  0  0  0  0  0  0
    5.2252    0.3181   -1.2683 C   0  0  0  0  0  0  0  0  0  0  0  0
    5.6352    0.4443    0.1616 C   0  0  0  0  0  0  0  0  0  0  0  0
    6.6217    1.4609    0.2362 O   0  0  0  0  0  0  0  0  0  0  0  0
   -6.1167    0.5313    0.4151 H   0  0  0  0  0  0  0  0  0  0  0  0
   -4.8641   -0.5019   -0.2541 H   0  0  0  0  0  0  0  0  0  0  0  0
   -6.2751   -1.2339    0.5232 H   0  0  0  0  0  0  0  0  0  0  0  0
   -5.3027   -0.0528    4.0338 H   0  0  0  0  0  0  0  0  0  0  0  0
   -6.2653    0.9366    2.9291 H   0  0  0  0  0  0  0  0  0  0  0  0
   -6.6266   -0.7931    3.1258 H   0  0  0  0  0  0  0  0  0  0  0  0
   -3.2121   -0.5458    3.1632 H   0  0  0  0  0  0  0  0  0  0  0  0
   -2.9895   -1.4029    0.2259 H   0  0  0  0  0  0  0  0  0  0  0  0
   -1.9206   -1.7771    1.5545 H   0  0  0  0  0  0  0  0  0  0  0  0
   -1.2339    0.6476    1.6971 H   0  0  0  0  0  0  0  0  0  0  0  0
   -2.2651    1.0259    0.3346 H   0  0  0  0  0  0  0  0  0  0  0  0
   -1.4601   -1.4013   -1.6620 H   0  0  0  0  0  0  0  0  0  0  0  0
   -0.1595   -0.3987   -2.3234 H   0  0  0  0  0  0  0  0  0  0  0  0
   -1.7034    0.3362   -1.9371 H   0  0  0  0  0  0  0  0  0  0  0  0
    0.9585    0.1168    1.2553 H   0  0  0  0  0  0  0  0  0  0  0  0
    1.7000   -1.0806   -1.4740 H   0  0  0  0  0  0  0  0  0  0  0  0
    2.5994   -1.1366    0.0212 H   0  0  0  0  0  0  0  0  0  0  0  0
    2.9978    1.3558   -0.1109 H   0  0  0  0  0  0  0  0  0  0  0  0
    2.1042    1.4278   -1.6012 H   0  0  0  0  0  0  0  0  0  0  0  0
    4.6999    0.0241   -3.8077 H   0  0  0  0  0  0  0  0  0  0  0  0
    3.3598    1.1718   -3.7114 H   0  0  0  0  0  0  0  0  0  0  0  0
    3.0703   -0.5645   -3.4646 H   0  0  0  0  0  0  0  0  0  0  0  0
    6.0561    0.0965   -1.9373 H   0  0  0  0  0  0  0  0  0  0  0  0
    6.0785   -0.4965    0.5025 H   0  0  0  0  0  0  0  0  0  0  0  0
    4.8130    0.7022    0.8322 H   0  0  0  0  0  0  0  0  0  0  0  0
    6.8508    1.5585    1.1749 H   0  0  0  0  0  0  0  0  0  0  0  0
  1  2  1  0
  2  3  1  0
  2  4  2  3
  4  5  1  0
  5  6  1  0
  6  7  1  0
  7  8  1  0
  7  9  2  3
  9 10  1  0
 10 11  1  0
 11 12  1  0
 12 13  1  0
 12 14  2  3
 14 15  1  0
 15 16  1  0
  1 17  1  0
  1 18  1  0
  1 19  1  0
  3 20  1  0
  3 21  1  0
  3 22  1  0
  4 23  1  0
  5 24  1  0
  5 25  1  0
  6 26  1  0
  6 27  1  0
  8 28  1  0
  8 29  1  0
  8 30  1  0
  9 31  1  0
 10 32  1  0
 10 33  1  0
 11 34  1  0
 11 35  1  0
 13 36  1  0
 13 37  1  0
 13 38  1  0
 14 39  1  0
 15 40  1  0
 15 41  1  0
 16 42  1  0
M  END
$$$$
