
     RDKit          3D

 51 54  0  0  0  0  0  0  0  0999 V2000
    4.5499    0.9924    4.0165 C   0  0  0  0  0  0  0  0  0  0  0  0
    3.9121    0.4404    2.7759 C   0  0  0  0  0  0  0  0  0  0  0  0
    4.4159   -0.7215    2.1800 C   0  0  0  0  0  0  0  0  0  0  0  0
    3.8652   -1.2477    0.9916 C   0  0  0  0  0  0  0  0  0  0  0  0
    4.5553   -2.4492    0.3990 C   0  0  0  0  0  0  0  0  0  0  0  0
    2.7437   -0.6153    0.4176 C   0  0  0  0  0  0  0  0  0  0  0  0
    2.1026   -1.0934   -0.7588 N   0  0  0  0  0  0  0  0  0  0  0  0
    1.7384   -2.4176   -0.9531 C   0  0  0  0  0  0  0  0  0  0  0  0
    1.8477   -3.3132   -0.1161 O   0  0  0  0  0  0  0  0  0  0  0  0
    1.1323   -2.6999   -2.3158 C   0  0  0  0  0  0  0  0  0  0  0  0
   -0.6817   -2.6211   -2.2176 S   0  0  0  0  0  0  0  0  0  0  0  0
   -0.9224   -0.9134   -2.2904 C   0  0  0  0  0  0  0  0  0  0  0  0
   -0.0583   -0.0525   -2.7675 N   0  0  0  0  0  0  0  0  0  0  0  0
   -0.6261    1.1899   -2.6841 N   0  0  0  0  0  0  0  0  0  0  0  0
   -1.8104    1.0770   -2.1057 C   0  0  0  0  0  0  0  0  0  0  0  0
   -2.7068    2.1924   -1.8234 C   0  0  0  0  0  0  0  0  0  0  0  0
   -3.1565    2.4621   -0.5321 C   0  0  0  0  0  0  0  0  0  0  0  0
   -3.9954    3.5457   -0.3379 C   0  0  0  0  0  0  0  0  0  0  0  0
   -4.3980    4.3681   -1.3298 N   0  0  0  0  0  0  0  0  0  0  0  0
   -3.9246    4.1080   -2.5669 C   0  0  0  0  0  0  0  0  0  0  0  0
   -3.0854    3.0486   -2.8591 C   0  0  0  0  0  0  0  0  0  0  0  0
   -2.0422   -0.2614   -1.8517 N   0  0  0  0  0  0  0  0  0  0  0  0
   -3.2492   -0.8539   -1.3072 C   0  0  0  0  0  0  0  0  0  0  0  0
   -3.1918   -0.9481    0.1751 C   0  0  0  0  0  0  0  0  0  0  0  0
   -2.2478   -1.3792    1.0865 C   0  0  0  0  0  0  0  0  0  0  0  0
   -2.8190   -1.2035    2.3719 C   0  0  0  0  0  0  0  0  0  0  0  0
   -4.0729   -0.6814    2.1651 C   0  0  0  0  0  0  0  0  0  0  0  0
   -4.3094   -0.5262    0.8384 O   0  0  0  0  0  0  0  0  0  0  0  0
    2.2724    0.5796    0.9994 C   0  0  0  0  0  0  0  0  0  0  0  0
    0.9131    1.4262    0.3454 Cl  0  0  0  0  0  0  0  0  0  0  0  0
    2.8502    1.1024    2.1616 C   0  0  0  0  0  0  0  0  0  0  0  0
    3.8729    1.6744    4.5417 H   0  0  0  0  0  0  0  0  0  0  0  0
    5.4619    1.5388    3.7562 H   0  0  0  0  0  0  0  0  0  0  0  0
    4.8021    0.1844    4.7119 H   0  0  0  0  0  0  0  0  0  0  0  0
    5.2698   -1.2221    2.6367 H   0  0  0  0  0  0  0  0  0  0  0  0
    5.6392   -2.3787    0.5472 H   0  0  0  0  0  0  0  0  0  0  0  0
    4.2058   -3.3658    0.8834 H   0  0  0  0  0  0  0  0  0  0  0  0
    4.4089   -2.5175   -0.6837 H   0  0  0  0  0  0  0  0  0  0  0  0
    1.5176   -0.4092   -1.2439 H   0  0  0  0  0  0  0  0  0  0  0  0
    1.5348   -2.0250   -3.0777 H   0  0  0  0  0  0  0  0  0  0  0  0
    1.4251   -3.7142   -2.6084 H   0  0  0  0  0  0  0  0  0  0  0  0
   -2.8499    1.8655    0.3206 H   0  0  0  0  0  0  0  0  0  0  0  0
   -4.3696    3.7923    0.6528 H   0  0  0  0  0  0  0  0  0  0  0  0
   -4.2486    4.7979   -3.3418 H   0  0  0  0  0  0  0  0  0  0  0  0
   -2.7305    2.8979   -3.8732 H   0  0  0  0  0  0  0  0  0  0  0  0
   -4.0996   -0.2449   -1.6346 H   0  0  0  0  0  0  0  0  0  0  0  0
   -3.3900   -1.8437   -1.7492 H   0  0  0  0  0  0  0  0  0  0  0  0
   -1.2639   -1.7727    0.8658 H   0  0  0  0  0  0  0  0  0  0  0  0
   -2.3700   -1.4307    3.3293 H   0  0  0  0  0  0  0  0  0  0  0  0
   -4.8789   -0.3847    2.8228 H   0  0  0  0  0  0  0  0  0  0  0  0
    2.4625    2.0238    2.5905 H   0  0  0  0  0  0  0  0  0  0  0  0
  1  2  1  0
  2  3  2  0
  3  4  1  0
  4  5  1  0
  4  6  2  0
  6  7  1  0
  7  8  1  0
  8  9  2  0
  8 10  1  0
 10 11  1  0
 11 12  1  0
 12 13  2  0
 13 14  1  0
 14 15  2  0
 15 16  1  0
 16 17  2  0
 17 18  1  0
 18 19  2  0
 19 20  1  0
 20 21  2  0
 15 22  1  0
 22 23  1  0
 23 24  1  0
 24 25  2  0
 25 26  1  0
 26 27  2  0
 27 28  1  0
  6 29  1  0
 29 30  1  0
 29 31  2  0
 31  2  1  0
 22 12  1  0
 28 24  1  0
 21 16  1  0
  1 32  1  0
  1 33  1  0
  1 34  1  0
  3 35  1  0
  5 36  1  0
  5 37  1  0
  5 38  1  0
  7 39  1  0
 10 40  1  0
 10 41  1  0
 17 42  1  0
 18 43  1  0
 20 44  1  0
 21 45  1  0
 23 46  1  0
 23 47  1  0
 25 48  1  0
 26 49  1  0
 27 50  1  0
 31 51  1  0
M  END
$$$$
