
     RDKit          3D

 27 27  0  0  0  0  0  0  0  0999 V2000
   -5.9039   -0.4593   -0.2130 C   0  0  0  0  0  0  0  0  0  0  0  0
   -4.7457   -1.0933    0.0140 C   0  0  0  0  0  0  0  0  0  0  0  0
   -3.4724   -0.8207   -0.7172 C   0  0  0  0  0  0  0  0  0  0  0  0
   -2.5498   -0.2396    0.2152 N   0  0  0  0  0  0  0  0  0  0  0  0
   -1.2056   -0.1525   -0.0690 C   0  0  0  0  0  0  0  0  0  0  0  0
   -0.6355   -0.6804   -1.0138 O   0  0  0  0  0  0  0  0  0  0  0  0
   -0.4172    0.7171    0.9297 C   0  0  0  0  0  0  0  0  0  0  0  0
   -1.0203    1.3115    1.8142 O   0  0  0  0  0  0  0  0  0  0  0  0
    0.9372    0.7088    0.6709 N   0  0  0  0  0  0  0  0  0  0  0  0
    1.8075    1.4209    1.4403 N   0  0  0  0  0  0  0  0  0  0  0  0
    3.0746    1.3787    1.1421 C   0  0  0  0  0  0  0  0  0  0  0  0
    3.7306    0.6628    0.0748 C   0  0  0  0  0  0  0  0  0  0  0  0
    5.0670    0.5929   -0.2727 C   0  0  0  0  0  0  0  0  0  0  0  0
    5.1520   -0.2546   -1.4045 C   0  0  0  0  0  0  0  0  0  0  0  0
    3.8663   -0.6517   -1.6815 C   0  0  0  0  0  0  0  0  0  0  0  0
    2.9996   -0.1030   -0.7933 O   0  0  0  0  0  0  0  0  0  0  0  0
   -5.9909    0.3239   -0.9600 H   0  0  0  0  0  0  0  0  0  0  0  0
   -6.7953   -0.7131    0.3529 H   0  0  0  0  0  0  0  0  0  0  0  0
   -4.7125   -1.8751    0.7701 H   0  0  0  0  0  0  0  0  0  0  0  0
   -3.0556   -1.7468   -1.1263 H   0  0  0  0  0  0  0  0  0  0  0  0
   -3.6096   -0.1147   -1.5433 H   0  0  0  0  0  0  0  0  0  0  0  0
   -2.8881    0.3888    0.9403 H   0  0  0  0  0  0  0  0  0  0  0  0
    1.2815    0.1643   -0.1235 H   0  0  0  0  0  0  0  0  0  0  0  0
    3.7401    1.9710    1.7934 H   0  0  0  0  0  0  0  0  0  0  0  0
    5.8830    1.0937    0.2305 H   0  0  0  0  0  0  0  0  0  0  0  0
    6.0396   -0.5411   -1.9515 H   0  0  0  0  0  0  0  0  0  0  0  0
    3.4231   -1.2885   -2.4355 H   0  0  0  0  0  0  0  0  0  0  0  0
  1  2  2  0
  2  3  1  0
  3  4  1  0
  4  5  1  0
  5  6  2  0
  5  7  1  0
  7  8  2  0
  7  9  1  0
  9 10  1  0
 10 11  2  3
 11 12  1  0
 12 13  2  0
 13 14  1  0
 14 15  2  0
 15 16  1  0
 16 12  1  0
  1 17  1  0
  1 18  1  0
  2 19  1  0
  3 20  1  0
  3 21  1  0
  4 22  1  0
  9 23  1  0
 11 24  1  0
 13 25  1  0
 14 26  1  0
 15 27  1  0
M  END
$$$$
