
     RDKit          3D

 56 59  0  0  0  0  0  0  0  0999 V2000
   -5.6202    3.3932   -1.8809 C   0  0  0  0  0  0  0  0  0  0  0  0
   -4.3433    3.8283   -1.1829 C   0  0  0  0  0  0  0  0  0  0  0  0
   -4.2258    3.1452    0.5061 S   0  0  0  0  0  0  0  0  0  0  0  0
   -3.9019    1.4291    0.1392 C   0  0  0  0  0  0  0  0  0  0  0  0
   -4.8263    0.4699    0.5195 C   0  0  0  0  0  0  0  0  0  0  0  0
   -4.5719   -0.8663    0.2362 C   0  0  0  0  0  0  0  0  0  0  0  0
   -3.3893   -1.2633   -0.4214 C   0  0  0  0  0  0  0  0  0  0  0  0
   -2.4155   -0.3207   -0.8073 C   0  0  0  0  0  0  0  0  0  0  0  0
   -2.7157    1.0303   -0.4986 C   0  0  0  0  0  0  0  0  0  0  0  0
   -1.2059   -0.7110   -1.4721 N   0  0  0  0  0  0  0  0  0  0  0  0
   -0.2440    0.3734   -1.7908 C   0  0  0  0  0  0  0  0  0  0  0  0
    0.6107    0.8077   -0.5879 C   0  0  0  0  0  0  0  0  0  0  0  0
    1.5689   -0.2780   -0.0868 C   0  0  0  0  0  0  0  0  0  0  0  0
    2.3857    0.1720    1.0555 N   0  0  0  0  0  0  0  0  0  0  0  0
    3.4345    1.1342    0.6559 C   0  0  0  0  0  0  0  0  0  0  0  0
    4.3525    1.5339    1.8358 C   0  0  0  0  0  0  0  0  0  0  0  0
    4.9929    0.3645    2.4660 N   0  0  0  0  0  0  0  0  0  0  0  0
    5.8014    0.7720    3.6122 C   0  0  0  0  0  0  0  0  0  0  0  0
    3.9469   -0.5907    2.8789 C   0  0  0  0  0  0  0  0  0  0  0  0
    3.0320   -0.9938    1.7007 C   0  0  0  0  0  0  0  0  0  0  0  0
   -0.8600   -2.0481   -1.8435 C   0  0  0  0  0  0  0  0  0  0  0  0
    0.3392   -2.3741   -2.5218 C   0  0  0  0  0  0  0  0  0  0  0  0
    0.6817   -3.6840   -2.8878 C   0  0  0  0  0  0  0  0  0  0  0  0
   -0.1678   -4.7313   -2.5884 C   0  0  0  0  0  0  0  0  0  0  0  0
   -1.3539   -4.4594   -1.9219 C   0  0  0  0  0  0  0  0  0  0  0  0
   -1.7019   -3.1420   -1.5511 C   0  0  0  0  0  0  0  0  0  0  0  0
   -3.2503   -3.0075   -0.6978 S   0  0  0  0  0  0  0  0  0  0  0  0
   -5.6860    3.8714   -2.8639 H   0  0  0  0  0  0  0  0  0  0  0  0
   -6.5089    3.6853   -1.3114 H   0  0  0  0  0  0  0  0  0  0  0  0
   -5.6491    2.3110   -2.0419 H   0  0  0  0  0  0  0  0  0  0  0  0
   -4.3362    4.9196   -1.0944 H   0  0  0  0  0  0  0  0  0  0  0  0
   -3.4653    3.5466   -1.7721 H   0  0  0  0  0  0  0  0  0  0  0  0
   -5.7446    0.7468    1.0302 H   0  0  0  0  0  0  0  0  0  0  0  0
   -5.3095   -1.6091    0.5357 H   0  0  0  0  0  0  0  0  0  0  0  0
   -2.0198    1.8276   -0.7326 H   0  0  0  0  0  0  0  0  0  0  0  0
   -0.7785    1.2436   -2.1922 H   0  0  0  0  0  0  0  0  0  0  0  0
    0.4106    0.1428   -2.6344 H   0  0  0  0  0  0  0  0  0  0  0  0
    1.1778    1.6905   -0.9040 H   0  0  0  0  0  0  0  0  0  0  0  0
   -0.0248    1.1288    0.2449 H   0  0  0  0  0  0  0  0  0  0  0  0
    2.2128   -0.6268   -0.9031 H   0  0  0  0  0  0  0  0  0  0  0  0
    0.9628   -1.1317    0.2387 H   0  0  0  0  0  0  0  0  0  0  0  0
    2.9769    2.0533    0.2751 H   0  0  0  0  0  0  0  0  0  0  0  0
    4.0518    0.7164   -0.1508 H   0  0  0  0  0  0  0  0  0  0  0  0
    5.1262    2.2104    1.4526 H   0  0  0  0  0  0  0  0  0  0  0  0
    3.7624    2.0963    2.5724 H   0  0  0  0  0  0  0  0  0  0  0  0
    6.2973   -0.0966    4.0595 H   0  0  0  0  0  0  0  0  0  0  0  0
    5.2061    1.2661    4.3886 H   0  0  0  0  0  0  0  0  0  0  0  0
    6.5941    1.4594    3.2969 H   0  0  0  0  0  0  0  0  0  0  0  0
    3.3297   -0.1663    3.6826 H   0  0  0  0  0  0  0  0  0  0  0  0
    4.4178   -1.4992    3.2735 H   0  0  0  0  0  0  0  0  0  0  0  0
    2.2600   -1.6690    2.0897 H   0  0  0  0  0  0  0  0  0  0  0  0
    3.6217   -1.5594    0.9662 H   0  0  0  0  0  0  0  0  0  0  0  0
    1.0755   -1.6288   -2.7953 H   0  0  0  0  0  0  0  0  0  0  0  0
    1.6181   -3.8738   -3.4069 H   0  0  0  0  0  0  0  0  0  0  0  0
    0.0867   -5.7498   -2.8665 H   0  0  0  0  0  0  0  0  0  0  0  0
   -2.0185   -5.2887   -1.6855 H   0  0  0  0  0  0  0  0  0  0  0  0
  1  2  1  0
  2  3  1  0
  3  4  1  0
  4  5  2  0
  5  6  1  0
  6  7  2  0
  7  8  1  0
  8  9  2  0
  8 10  1  0
 10 11  1  0
 11 12  1  0
 12 13  1  0
 13 14  1  0
 14 15  1  0
 15 16  1  0
 16 17  1  0
 17 18  1  0
 17 19  1  0
 19 20  1  0
 10 21  1  0
 21 22  2  0
 22 23  1  0
 23 24  2  0
 24 25  1  0
 25 26  2  0
 26 27  1  0
  9  4  1  0
 20 14  1  0
 26 21  1  0
 27  7  1  0
  1 28  1  0
  1 29  1  0
  1 30  1  0
  2 31  1  0
  2 32  1  0
  5 33  1  0
  6 34  1  0
  9 35  1  0
 11 36  1  0
 11 37  1  0
 12 38  1  0
 12 39  1  0
 13 40  1  0
 13 41  1  0
 15 42  1  0
 15 43  1  0
 16 44  1  0
 16 45  1  0
 18 46  1  0
 18 47  1  0
 18 48  1  0
 19 49  1  0
 19 50  1  0
 20 51  1  0
 20 52  1  0
 22 53  1  0
 23 54  1  0
 24 55  1  0
 25 56  1  0
M  END
$$$$
