
     RDKit          3D

 55 58  0  0  0  0  0  0  0  0999 V2000
    8.7749    0.6590   -1.1862 C   0  0  0  0  0  0  0  0  0  0  0  0
    8.0225    0.0678   -0.1370 O   0  0  0  0  0  0  0  0  0  0  0  0
    6.6582    0.2165   -0.1647 C   0  0  0  0  0  0  0  0  0  0  0  0
    5.9614    0.9326   -1.1440 C   0  0  0  0  0  0  0  0  0  0  0  0
    4.5681    1.0366   -1.0900 C   0  0  0  0  0  0  0  0  0  0  0  0
    3.8609    0.4314   -0.0480 C   0  0  0  0  0  0  0  0  0  0  0  0
    2.3753    0.5176    0.0490 C   0  0  0  0  0  0  0  0  0  0  0  0
    1.7422    1.8056   -0.3816 C   0  0  0  0  0  0  0  0  0  0  0  0
    0.3989    1.8718   -0.2953 C   0  0  0  0  0  0  0  0  0  0  0  0
   -0.3937    3.0652   -0.6672 C   0  0  0  0  0  0  0  0  0  0  0  0
   -1.2619    2.8273   -1.6812 F   0  0  0  0  0  0  0  0  0  0  0  0
   -1.1016    3.5743    0.3722 F   0  0  0  0  0  0  0  0  0  0  0  0
    0.4109    4.0785   -1.0990 F   0  0  0  0  0  0  0  0  0  0  0  0
   -0.3144    0.7781    0.1805 N   0  0  0  0  0  0  0  0  0  0  0  0
   -1.6528    0.6523    0.3355 N   0  0  0  0  0  0  0  0  0  0  0  0
   -1.8547   -0.5769    0.8412 C   0  0  0  0  0  0  0  0  0  0  0  0
   -3.1795   -1.1725    1.1449 C   0  0  0  0  0  0  0  0  0  0  0  0
   -3.2508   -2.3886    1.3418 O   0  0  0  0  0  0  0  0  0  0  0  0
   -4.3289   -0.3702    1.2083 N   0  0  0  0  0  0  0  0  0  0  0  0
   -4.3409    1.0743    1.0292 C   0  0  0  0  0  0  0  0  0  0  0  0
   -5.6262   -1.0390    1.2263 C   0  0  0  0  0  0  0  0  0  0  0  0
   -6.2598   -1.1039   -0.1445 C   0  0  0  0  0  0  0  0  0  0  0  0
   -7.2791   -0.2116   -0.5066 C   0  0  0  0  0  0  0  0  0  0  0  0
   -7.8505   -0.2678   -1.7792 C   0  0  0  0  0  0  0  0  0  0  0  0
   -7.4077   -1.2131   -2.7025 C   0  0  0  0  0  0  0  0  0  0  0  0
   -6.3930   -2.1028   -2.3555 C   0  0  0  0  0  0  0  0  0  0  0  0
   -5.8206   -2.0483   -1.0839 C   0  0  0  0  0  0  0  0  0  0  0  0
   -0.6177   -1.2543    0.9952 C   0  0  0  0  0  0  0  0  0  0  0  0
    0.3538   -0.3789    0.5799 C   0  0  0  0  0  0  0  0  0  0  0  0
    1.7111   -0.5013    0.5169 N   0  0  0  0  0  0  0  0  0  0  0  0
    4.5510   -0.3044    0.9248 C   0  0  0  0  0  0  0  0  0  0  0  0
    5.9452   -0.4140    0.8756 C   0  0  0  0  0  0  0  0  0  0  0  0
    6.7003   -1.1029    1.7928 O   0  0  0  0  0  0  0  0  0  0  0  0
    6.0110   -1.8526    2.7839 C   0  0  0  0  0  0  0  0  0  0  0  0
    8.6625    1.7483   -1.1869 H   0  0  0  0  0  0  0  0  0  0  0  0
    9.8309    0.4342   -1.0090 H   0  0  0  0  0  0  0  0  0  0  0  0
    8.5028    0.2315   -2.1566 H   0  0  0  0  0  0  0  0  0  0  0  0
    6.4745    1.4154   -1.9692 H   0  0  0  0  0  0  0  0  0  0  0  0
    4.0582    1.5728   -1.8854 H   0  0  0  0  0  0  0  0  0  0  0  0
    2.3500    2.6377   -0.7131 H   0  0  0  0  0  0  0  0  0  0  0  0
   -4.2365    1.3089   -0.0338 H   0  0  0  0  0  0  0  0  0  0  0  0
   -3.5376    1.5361    1.6079 H   0  0  0  0  0  0  0  0  0  0  0  0
   -5.2837    1.4896    1.3988 H   0  0  0  0  0  0  0  0  0  0  0  0
   -5.5397   -2.0574    1.6233 H   0  0  0  0  0  0  0  0  0  0  0  0
   -6.2774   -0.5046    1.9291 H   0  0  0  0  0  0  0  0  0  0  0  0
   -7.6341    0.5347    0.2002 H   0  0  0  0  0  0  0  0  0  0  0  0
   -8.6404    0.4274   -2.0513 H   0  0  0  0  0  0  0  0  0  0  0  0
   -7.8521   -1.2559   -3.6933 H   0  0  0  0  0  0  0  0  0  0  0  0
   -6.0445   -2.8392   -3.0749 H   0  0  0  0  0  0  0  0  0  0  0  0
   -5.0269   -2.7476   -0.8258 H   0  0  0  0  0  0  0  0  0  0  0  0
   -0.4638   -2.2595    1.3619 H   0  0  0  0  0  0  0  0  0  0  0  0
    3.9777   -0.7783    1.7159 H   0  0  0  0  0  0  0  0  0  0  0  0
    5.4517   -1.1940    3.4560 H   0  0  0  0  0  0  0  0  0  0  0  0
    6.7588   -2.3806    3.3836 H   0  0  0  0  0  0  0  0  0  0  0  0
    5.3576   -2.6050    2.3299 H   0  0  0  0  0  0  0  0  0  0  0  0
  1  2  1  0
  2  3  1  0
  3  4  2  0
  4  5  1  0
  5  6  2  0
  6  7  1  0
  7  8  1  0
  8  9  2  0
  9 10  1  0
 10 11  1  0
 10 12  1  0
 10 13  1  0
  9 14  1  0
 14 15  1  0
 15 16  2  0
 16 17  1  0
 17 18  2  0
 17 19  1  0
 19 20  1  0
 19 21  1  0
 21 22  1  0
 22 23  2  0
 23 24  1  0
 24 25  2  0
 25 26  1  0
 26 27  2  0
 16 28  1  0
 28 29  2  0
 29 30  1  0
  6 31  1  0
 31 32  2  0
 32 33  1  0
 33 34  1  0
 32  3  1  0
 30  7  2  0
 29 14  1  0
 27 22  1  0
  1 35  1  0
  1 36  1  0
  1 37  1  0
  4 38  1  0
  5 39  1  0
  8 40  1  0
 20 41  1  0
 20 42  1  0
 20 43  1  0
 21 44  1  0
 21 45  1  0
 23 46  1  0
 24 47  1  0
 25 48  1  0
 26 49  1  0
 27 50  1  0
 28 51  1  0
 31 52  1  0
 34 53  1  0
 34 54  1  0
 34 55  1  0
M  END
$$$$
