
     RDKit          3D

 46 49  0  0  0  0  0  0  0  0999 V2000
    4.6009    0.1370    1.8825 O   0  0  0  0  0  0  0  0  0  0  0  0
    3.5566    0.4753    1.3235 C   0  0  0  0  0  0  0  0  0  0  0  0
    3.2667    0.0414   -0.1080 C   0  0  0  0  0  0  0  0  0  0  0  0
    2.0608   -1.3183   -0.1598 S   0  0  0  0  0  0  0  0  0  0  0  0
    0.5932   -0.4213   -0.3224 C   0  0  0  0  0  0  0  0  0  0  0  0
    0.3725    0.7566    0.2117 N   0  0  0  0  0  0  0  0  0  0  0  0
   -0.8667    1.1641   -0.1745 N   0  0  0  0  0  0  0  0  0  0  0  0
   -1.3965    0.2224   -0.9319 C   0  0  0  0  0  0  0  0  0  0  0  0
   -2.7288    0.3277   -1.6036 C   0  0  0  0  0  0  0  0  0  0  0  0
   -3.7227   -0.7513   -1.2625 C   0  0  0  0  0  0  0  0  0  0  0  0
   -4.4888   -1.4968   -2.1413 C   0  0  0  0  0  0  0  0  0  0  0  0
   -5.3691   -2.3927   -1.4700 C   0  0  0  0  0  0  0  0  0  0  0  0
   -5.2511   -2.3007   -0.1002 C   0  0  0  0  0  0  0  0  0  0  0  0
   -4.0902   -1.1371    0.3702 S   0  0  0  0  0  0  0  0  0  0  0  0
   -0.4913   -0.8158   -1.0473 N   0  0  0  0  0  0  0  0  0  0  0  0
   -0.6412   -2.0375   -1.8124 C   0  0  0  0  0  0  0  0  0  0  0  0
   -0.2937   -1.8199   -3.2397 C   0  0  0  0  0  0  0  0  0  0  0  0
   -1.0365   -1.7687   -4.4045 C   0  0  0  0  0  0  0  0  0  0  0  0
   -0.1149   -1.5335   -5.4537 C   0  0  0  0  0  0  0  0  0  0  0  0
    1.1270   -1.4641   -4.8670 C   0  0  0  0  0  0  0  0  0  0  0  0
    1.0271   -1.6451   -3.5264 O   0  0  0  0  0  0  0  0  0  0  0  0
    2.5710    1.2871    1.8594 N   0  0  0  0  0  0  0  0  0  0  0  0
    2.5594    1.9193    3.1190 C   0  0  0  0  0  0  0  0  0  0  0  0
    3.6276    1.8935    4.0184 C   0  0  0  0  0  0  0  0  0  0  0  0
    3.5431    2.5596    5.2472 C   0  0  0  0  0  0  0  0  0  0  0  0
    2.3886    3.2528    5.5893 C   0  0  0  0  0  0  0  0  0  0  0  0
    1.3153    3.2796    4.6967 C   0  0  0  0  0  0  0  0  0  0  0  0
   -0.1094    4.1482    5.1044 Cl  0  0  0  0  0  0  0  0  0  0  0  0
    1.3968    2.6224    3.4673 C   0  0  0  0  0  0  0  0  0  0  0  0
    2.9370    0.9004   -0.6975 H   0  0  0  0  0  0  0  0  0  0  0  0
    4.2034   -0.3119   -0.5538 H   0  0  0  0  0  0  0  0  0  0  0  0
   -2.5712    0.3610   -2.6912 H   0  0  0  0  0  0  0  0  0  0  0  0
   -3.1851    1.2960   -1.3393 H   0  0  0  0  0  0  0  0  0  0  0  0
   -4.4498   -1.3745   -3.2185 H   0  0  0  0  0  0  0  0  0  0  0  0
   -6.0660   -3.0577   -1.9642 H   0  0  0  0  0  0  0  0  0  0  0  0
   -5.8063   -2.8449    0.6502 H   0  0  0  0  0  0  0  0  0  0  0  0
   -0.0119   -2.8185   -1.3713 H   0  0  0  0  0  0  0  0  0  0  0  0
   -1.6723   -2.3875   -1.7114 H   0  0  0  0  0  0  0  0  0  0  0  0
   -2.1092   -1.8830   -4.4944 H   0  0  0  0  0  0  0  0  0  0  0  0
   -0.3273   -1.4315   -6.5110 H   0  0  0  0  0  0  0  0  0  0  0  0
    2.1269   -1.3071   -5.2431 H   0  0  0  0  0  0  0  0  0  0  0  0
    1.7113    1.3636    1.3174 H   0  0  0  0  0  0  0  0  0  0  0  0
    4.5496    1.3613    3.7950 H   0  0  0  0  0  0  0  0  0  0  0  0
    4.3836    2.5316    5.9345 H   0  0  0  0  0  0  0  0  0  0  0  0
    2.3298    3.7655    6.5454 H   0  0  0  0  0  0  0  0  0  0  0  0
    0.5518    2.6531    2.7907 H   0  0  0  0  0  0  0  0  0  0  0  0
  1  2  2  0
  2  3  1  0
  3  4  1  0
  4  5  1  0
  5  6  2  0
  6  7  1  0
  7  8  2  0
  8  9  1  0
  9 10  1  0
 10 11  2  0
 11 12  1  0
 12 13  2  0
 13 14  1  0
  8 15  1  0
 15 16  1  0
 16 17  1  0
 17 18  2  0
 18 19  1  0
 19 20  2  0
 20 21  1  0
  2 22  1  0
 22 23  1  0
 23 24  2  0
 24 25  1  0
 25 26  2  0
 26 27  1  0
 27 28  1  0
 27 29  2  0
 15  5  1  0
 21 17  1  0
 29 23  1  0
 14 10  1  0
  3 30  1  0
  3 31  1  0
  9 32  1  0
  9 33  1  0
 11 34  1  0
 12 35  1  0
 13 36  1  0
 16 37  1  0
 16 38  1  0
 18 39  1  0
 19 40  1  0
 20 41  1  0
 22 42  1  0
 24 43  1  0
 25 44  1  0
 26 45  1  0
 29 46  1  0
M  END
$$$$
