
     RDKit          3D

 33 35  0  0  0  0  0  0  0  0999 V2000
    5.0213    1.0799   -1.3761 C   0  0  0  0  0  0  0  0  0  0  0  0
    4.3077    0.3726   -0.3379 N   0  0  0  0  0  0  0  0  0  0  0  0
    4.8506   -0.3339    0.6916 C   0  0  0  0  0  0  0  0  0  0  0  0
    3.7785   -0.8310    1.4038 C   0  0  0  0  0  0  0  0  0  0  0  0
    3.8609   -1.6713    2.5496 N   0  0  0  0  0  4  0  0  0  0  0  0
    4.5716   -1.2677    3.4784 O   0  0  0  0  0  0  0  0  0  0  0  0
    3.2801   -2.7597    2.4835 O   0  0  0  0  0  1  0  0  0  0  0  0
    2.6230   -0.3461    0.7552 C   0  0  0  0  0  0  0  0  0  0  0  0
    1.2143   -0.5161    1.1491 C   0  0  0  0  0  0  0  0  0  0  0  0
    0.9138   -1.0135    2.2243 O   0  0  0  0  0  0  0  0  0  0  0  0
    0.3659   -0.0167    0.1773 N   0  0  0  0  0  0  0  0  0  0  0  0
   -1.0180    0.0060    0.1820 C   0  0  0  0  0  0  0  0  0  0  0  0
   -1.9146   -0.6751    1.4826 S   0  0  0  0  0  0  0  0  0  0  0  0
   -3.3568   -0.2640    0.7523 C   0  0  0  0  0  0  0  0  0  0  0  0
   -3.2110    0.3730   -0.4472 C   0  0  0  0  0  0  0  0  0  0  0  0
   -1.8518    0.5390   -0.7966 C   0  0  0  0  0  0  0  0  0  0  0  0
   -1.3849    1.1697   -1.9924 C   0  0  0  0  0  0  0  0  0  0  0  0
   -0.9882    1.6780   -2.9574 N   0  0  0  0  0  0  0  0  0  0  0  0
   -4.5316    0.7101   -1.0362 C   0  0  0  0  0  0  0  0  0  0  0  0
   -5.5100   -0.1388   -0.1635 C   0  0  0  0  0  0  0  0  0  0  0  0
   -4.7642   -0.4630    1.1680 C   0  0  0  0  0  0  0  0  0  0  0  0
    2.9589    0.3758   -0.3410 N   0  0  0  0  0  0  0  0  0  0  0  0
    6.0968    0.9708   -1.2164 H   0  0  0  0  0  0  0  0  0  0  0  0
    4.7401    0.6493   -2.3403 H   0  0  0  0  0  0  0  0  0  0  0  0
    4.7407    2.1349   -1.3277 H   0  0  0  0  0  0  0  0  0  0  0  0
    5.9187   -0.4379    0.8290 H   0  0  0  0  0  0  0  0  0  0  0  0
    0.8529    0.3969   -0.6171 H   0  0  0  0  0  0  0  0  0  0  0  0
   -4.6079    0.4385   -2.0926 H   0  0  0  0  0  0  0  0  0  0  0  0
   -4.7422    1.7781   -0.9180 H   0  0  0  0  0  0  0  0  0  0  0  0
   -5.7287   -1.0790   -0.6872 H   0  0  0  0  0  0  0  0  0  0  0  0
   -6.4633    0.3709    0.0071 H   0  0  0  0  0  0  0  0  0  0  0  0
   -5.0446    0.2511    1.9489 H   0  0  0  0  0  0  0  0  0  0  0  0
   -4.9783   -1.4810    1.5046 H   0  0  0  0  0  0  0  0  0  0  0  0
  1  2  1  0
  2  3  1  0
  3  4  2  0
  4  5  1  0
  5  6  2  0
  5  7  1  0
  4  8  1  0
  8  9  1  0
  9 10  2  0
  9 11  1  0
 11 12  1  0
 12 13  1  0
 13 14  1  0
 14 15  2  0
 15 16  1  0
 16 17  1  0
 17 18  3  0
 15 19  1  0
 19 20  1  0
 20 21  1  0
  8 22  2  0
 22  2  1  0
 16 12  2  0
 21 14  1  0
  1 23  1  0
  1 24  1  0
  1 25  1  0
  3 26  1  0
 11 27  1  0
 19 28  1  0
 19 29  1  0
 20 30  1  0
 20 31  1  0
 21 32  1  0
 21 33  1  0
M  CHG  2   5   1   7  -1
M  END
$$$$
