
     RDKit          3D

 26 27  0  0  0  0  0  0  0  0999 V2000
   -2.5858   -1.7914   -1.8127 C   0  0  0  0  0  0  0  0  0  0  0  0
   -2.2404   -1.8110   -0.4260 O   0  0  0  0  0  0  0  0  0  0  0  0
   -0.9995   -1.2689   -0.2244 C   0  0  0  0  0  0  0  0  0  0  0  0
    0.1075   -2.0957   -0.4296 C   0  0  0  0  0  0  0  0  0  0  0  0
    1.3844   -1.6288   -0.1367 C   0  0  0  0  0  0  0  0  0  0  0  0
    1.5546   -0.3349    0.3613 C   0  0  0  0  0  0  0  0  0  0  0  0
    2.8178    0.0388    0.7340 O   0  0  0  0  0  0  0  0  0  0  0  0
    3.5788    0.4630   -0.3989 C   0  0  0  0  0  0  0  0  0  0  0  0
    0.4447    0.4936    0.5957 C   0  0  0  0  0  0  0  0  0  0  0  0
   -0.8397    0.0239    0.3011 C   0  0  0  0  0  0  0  0  0  0  0  0
   -2.0033    0.9070    0.5458 C   0  0  0  0  0  0  0  0  0  0  0  0
   -3.0668    0.7451   -0.0389 O   0  0  0  0  0  0  0  0  0  0  0  0
   -1.8124    2.0172    1.5136 C   0  0  0  0  0  0  0  0  0  0  0  0
   -3.2527    2.7027    2.1827 Cl  0  0  0  0  0  0  0  0  0  0  0  0
   -0.5858    2.4658    1.7949 C   0  0  0  0  0  0  0  0  0  0  0  0
   -0.2791    3.7901    2.8646 Cl  0  0  0  0  0  0  0  0  0  0  0  0
    0.6038    1.8604    1.1437 C   0  0  0  0  0  0  0  0  0  0  0  0
    1.6592    2.4733    1.0449 O   0  0  0  0  0  0  0  0  0  0  0  0
   -2.0155   -2.5477   -2.3621 H   0  0  0  0  0  0  0  0  0  0  0  0
   -3.6481   -2.0388   -1.8971 H   0  0  0  0  0  0  0  0  0  0  0  0
   -2.4290   -0.8025   -2.2581 H   0  0  0  0  0  0  0  0  0  0  0  0
   -0.0285   -3.1145   -0.7852 H   0  0  0  0  0  0  0  0  0  0  0  0
    2.2432   -2.2837   -0.2642 H   0  0  0  0  0  0  0  0  0  0  0  0
    4.4926    0.9383   -0.0301 H   0  0  0  0  0  0  0  0  0  0  0  0
    3.0337    1.1953   -1.0052 H   0  0  0  0  0  0  0  0  0  0  0  0
    3.8663   -0.3967   -1.0132 H   0  0  0  0  0  0  0  0  0  0  0  0
  1  2  1  0
  2  3  1  0
  3  4  2  0
  4  5  1  0
  5  6  2  0
  6  7  1  0
  7  8  1  0
  6  9  1  0
  9 10  2  0
 10 11  1  0
 11 12  2  0
 11 13  1  0
 13 14  1  0
 13 15  2  0
 15 16  1  0
 15 17  1  0
 17 18  2  0
 10  3  1  0
 17  9  1  0
  1 19  1  0
  1 20  1  0
  1 21  1  0
  4 22  1  0
  5 23  1  0
  8 24  1  0
  8 25  1  0
  8 26  1  0
M  END
$$$$
