
     RDKit          3D

 36 37  0  0  0  0  0  0  0  0999 V2000
    1.4071    0.6335   -3.5173 O   0  0  0  0  0  0  0  0  0  0  0  0
    0.7582    0.8412   -2.4946 C   0  0  0  0  0  0  0  0  0  0  0  0
   -0.7674    0.9053   -2.4862 C   0  0  0  0  0  0  0  0  0  0  0  0
   -1.2922    0.6963   -1.1721 O   0  0  0  0  0  0  0  0  0  0  0  0
   -2.6452    0.7608   -1.1173 C   0  0  0  0  0  0  0  0  0  0  0  0
   -3.3822    1.0552   -2.0444 O   0  0  0  0  0  0  0  0  0  0  0  0
   -3.1372    0.4397    0.2498 C   0  0  0  0  0  0  0  0  0  0  0  0
   -2.3073   -0.1132    1.2350 C   0  0  0  0  0  0  0  0  0  0  0  0
   -2.8209   -0.4163    2.4991 C   0  0  0  0  0  0  0  0  0  0  0  0
   -4.1643   -0.1680    2.7792 C   0  0  0  0  0  0  0  0  0  0  0  0
   -4.8576   -0.5830    4.4880 Br  0  0  0  0  0  0  0  0  0  0  0  0
   -5.0009    0.3791    1.8074 C   0  0  0  0  0  0  0  0  0  0  0  0
   -4.4879    0.6813    0.5428 C   0  0  0  0  0  0  0  0  0  0  0  0
    1.3518    1.0856   -1.2713 N   0  0  0  0  0  0  0  0  0  0  0  0
    2.7845    0.9347   -1.0981 C   0  0  0  0  0  0  0  0  0  0  0  0
    3.2249   -0.5326   -0.9581 C   0  0  0  0  0  0  0  0  0  0  0  0
    2.9349   -1.0754    0.3636 N   0  0  0  0  0  0  0  0  0  0  0  0
    3.7625   -0.9591    1.4565 C   0  0  0  0  0  0  0  0  0  0  0  0
    5.0280   -0.4723    1.3368 O   0  0  0  0  0  0  0  0  0  0  0  0
    3.2257   -1.3541    2.6139 C   0  0  0  0  0  0  0  0  0  0  0  0
    1.6013   -1.9207    2.3972 S   0  0  0  0  0  0  0  0  0  0  0  0
    1.6659   -1.5598    0.6619 C   0  0  0  0  0  0  0  0  0  0  0  0
    0.7084   -1.6885   -0.0825 O   0  0  0  0  0  0  0  0  0  0  0  0
   -1.0581    1.8948   -2.8573 H   0  0  0  0  0  0  0  0  0  0  0  0
   -1.1368    0.1176   -3.1530 H   0  0  0  0  0  0  0  0  0  0  0  0
   -1.2627   -0.3305    1.0281 H   0  0  0  0  0  0  0  0  0  0  0  0
   -2.1676   -0.8534    3.2509 H   0  0  0  0  0  0  0  0  0  0  0  0
   -6.0509    0.5689    2.0196 H   0  0  0  0  0  0  0  0  0  0  0  0
   -5.1478    1.1009   -0.2151 H   0  0  0  0  0  0  0  0  0  0  0  0
    0.7408    0.9917   -0.4657 H   0  0  0  0  0  0  0  0  0  0  0  0
    3.2786    1.3740   -1.9723 H   0  0  0  0  0  0  0  0  0  0  0  0
    3.0697    1.5203   -0.2178 H   0  0  0  0  0  0  0  0  0  0  0  0
    4.2986   -0.6159   -1.1550 H   0  0  0  0  0  0  0  0  0  0  0  0
    2.7162   -1.1560   -1.7041 H   0  0  0  0  0  0  0  0  0  0  0  0
    5.4053   -0.8494    0.5256 H   0  0  0  0  0  0  0  0  0  0  0  0
    3.7247   -1.3326    3.5726 H   0  0  0  0  0  0  0  0  0  0  0  0
  1  2  2  0
  2  3  1  0
  3  4  1  0
  4  5  1  0
  5  6  2  0
  5  7  1  0
  7  8  2  0
  8  9  1  0
  9 10  2  0
 10 11  1  0
 10 12  1  0
 12 13  2  0
  2 14  1  0
 14 15  1  0
 15 16  1  0
 16 17  1  0
 17 18  1  0
 18 19  1  0
 18 20  2  0
 20 21  1  0
 21 22  1  0
 22 23  2  0
 13  7  1  0
 22 17  1  0
  3 24  1  0
  3 25  1  0
  8 26  1  0
  9 27  1  0
 12 28  1  0
 13 29  1  0
 14 30  1  0
 15 31  1  0
 15 32  1  0
 16 33  1  0
 16 34  1  0
 19 35  1  0
 20 36  1  0
M  END
$$$$
