
     RDKit          3D

 48 50  0  0  0  0  0  0  0  0999 V2000
   -5.0136    0.7068    2.0542 C   0  0  0  0  0  0  0  0  0  0  0  0
   -5.1089    1.1019    0.6917 O   0  0  0  0  0  0  0  0  0  0  0  0
   -4.1026    0.7158   -0.1559 C   0  0  0  0  0  0  0  0  0  0  0  0
   -2.8704    0.2083    0.2841 C   0  0  0  0  0  0  0  0  0  0  0  0
   -1.8968   -0.2156   -0.6316 C   0  0  0  0  0  0  0  0  0  0  0  0
   -0.6259   -0.7559   -0.1315 C   0  0  0  0  0  0  0  0  0  0  0  0
    0.5880   -0.2017   -0.3274 C   0  0  0  0  0  0  0  0  0  0  0  0
    0.7701    1.0076   -1.0520 C   0  0  0  0  0  0  0  0  0  0  0  0
    0.9856    1.9743   -1.6563 N   0  0  0  0  0  0  0  0  0  0  0  0
    1.7741   -0.8998    0.2858 C   0  0  0  0  0  0  0  0  0  0  0  0
    1.6050   -1.9064    0.9687 O   0  0  0  0  0  0  0  0  0  0  0  0
    3.0063   -0.3532   -0.0343 N   0  0  0  0  0  0  0  0  0  0  0  0
    4.2745   -0.8249    0.4030 C   0  0  0  0  0  0  0  0  0  0  0  0
    5.2918   -0.7394   -0.5604 C   0  0  0  0  0  0  0  0  0  0  0  0
    6.5637   -1.2235   -0.2885 C   0  0  0  0  0  0  0  0  0  0  0  0
    6.8332   -1.7775    0.9591 C   0  0  0  0  0  0  0  0  0  0  0  0
    5.8781   -1.8271    1.9612 C   0  0  0  0  0  0  0  0  0  0  0  0
    6.2662   -2.3322    3.1453 N   0  0  0  0  0  0  0  0  0  0  0  0
    5.3818   -2.3310    4.1618 C   0  0  0  0  0  0  0  0  0  0  0  0
    4.1091   -1.8184    4.0598 C   0  0  0  0  0  0  0  0  0  0  0  0
    3.7149   -1.3013    2.8296 C   0  0  0  0  0  0  0  0  0  0  0  0
    4.5780   -1.3222    1.7085 C   0  0  0  0  0  0  0  0  0  0  0  0
   -2.1629   -0.1474   -1.9994 C   0  0  0  0  0  0  0  0  0  0  0  0
   -3.3680    0.3939   -2.4478 C   0  0  0  0  0  0  0  0  0  0  0  0
   -3.5562    0.4045   -3.8080 O   0  0  0  0  0  0  0  0  0  0  0  0
   -3.5209    1.7373   -4.3237 C   0  0  0  0  0  0  0  0  0  0  0  0
   -4.3418    0.8365   -1.5386 C   0  0  0  0  0  0  0  0  0  0  0  0
   -5.5285    1.2787   -2.0713 O   0  0  0  0  0  0  0  0  0  0  0  0
   -5.9795    2.5239   -1.5421 C   0  0  0  0  0  0  0  0  0  0  0  0
   -4.8722   -0.3748    2.1490 H   0  0  0  0  0  0  0  0  0  0  0  0
   -4.2170    1.2576    2.5647 H   0  0  0  0  0  0  0  0  0  0  0  0
   -5.9594    0.9618    2.5420 H   0  0  0  0  0  0  0  0  0  0  0  0
   -2.6480    0.1302    1.3443 H   0  0  0  0  0  0  0  0  0  0  0  0
   -0.7305   -1.6693    0.4537 H   0  0  0  0  0  0  0  0  0  0  0  0
    3.0466    0.2409   -0.8558 H   0  0  0  0  0  0  0  0  0  0  0  0
    5.0965   -0.3338   -1.5506 H   0  0  0  0  0  0  0  0  0  0  0  0
    7.3431   -1.1823   -1.0448 H   0  0  0  0  0  0  0  0  0  0  0  0
    7.8293   -2.1628    1.1669 H   0  0  0  0  0  0  0  0  0  0  0  0
    5.7441   -2.7562    5.0930 H   0  0  0  0  0  0  0  0  0  0  0  0
    3.4367   -1.8182    4.9093 H   0  0  0  0  0  0  0  0  0  0  0  0
    2.7232   -0.8677    2.7639 H   0  0  0  0  0  0  0  0  0  0  0  0
   -1.4450   -0.5077   -2.7322 H   0  0  0  0  0  0  0  0  0  0  0  0
   -2.7259    2.3408   -3.8603 H   0  0  0  0  0  0  0  0  0  0  0  0
   -3.3102    1.6677   -5.3968 H   0  0  0  0  0  0  0  0  0  0  0  0
   -4.4941    2.2311   -4.2066 H   0  0  0  0  0  0  0  0  0  0  0  0
   -6.4963    3.0566   -2.3467 H   0  0  0  0  0  0  0  0  0  0  0  0
   -6.7060    2.3532   -0.7418 H   0  0  0  0  0  0  0  0  0  0  0  0
   -5.1593    3.1631   -1.1951 H   0  0  0  0  0  0  0  0  0  0  0  0
  1  2  1  0
  2  3  1  0
  3  4  2  0
  4  5  1  0
  5  6  1  0
  6  7  2  3
  7  8  1  0
  8  9  3  0
  7 10  1  0
 10 11  2  0
 10 12  1  0
 12 13  1  0
 13 14  2  0
 14 15  1  0
 15 16  2  0
 16 17  1  0
 17 18  2  0
 18 19  1  0
 19 20  2  0
 20 21  1  0
 21 22  2  0
  5 23  2  0
 23 24  1  0
 24 25  1  0
 25 26  1  0
 24 27  2  0
 27 28  1  0
 28 29  1  0
 27  3  1  0
 22 13  1  0
 22 17  1  0
  1 30  1  0
  1 31  1  0
  1 32  1  0
  4 33  1  0
  6 34  1  0
 12 35  1  0
 14 36  1  0
 15 37  1  0
 16 38  1  0
 19 39  1  0
 20 40  1  0
 21 41  1  0
 23 42  1  0
 26 43  1  0
 26 44  1  0
 26 45  1  0
 29 46  1  0
 29 47  1  0
 29 48  1  0
M  END
$$$$
