
     RDKit          3D

 28 28  0  0  0  0  0  0  0  0999 V2000
   -1.2210   -0.1610   -1.3185 C   0  0  0  0  0  0  0  0  0  0  0  0
   -1.7675   -0.6732    0.0194 C   0  0  0  0  0  0  0  0  0  0  0  0
   -2.0157   -2.1883   -0.0959 C   0  0  0  0  0  0  0  0  0  0  0  0
   -3.1022    0.0112    0.3444 C   0  0  0  0  0  0  0  0  0  0  0  0
   -0.7306   -0.4026    1.1357 C   0  0  0  0  0  0  0  0  0  0  0  0
   -0.0786   -1.3309    1.6221 O   0  0  0  0  0  0  0  0  0  0  0  0
   -0.5854    1.0375    1.6217 C   0  0  0  0  0  0  0  0  0  0  0  0
    0.9677    1.3456    2.5078 S   0  0  0  0  0  0  0  0  0  0  0  0
    2.1335    1.0294    1.2074 C   0  0  0  0  0  0  0  0  0  0  0  0
    1.7193    1.1249   -0.0702 N   0  0  0  0  0  0  0  0  0  0  0  0
    2.6514    0.8977   -1.0152 C   0  0  0  0  0  0  0  0  0  0  0  0
    3.9621    0.5959   -0.7351 C   0  0  0  0  0  0  0  0  0  0  0  0
    4.2826    0.5418    0.5992 C   0  0  0  0  0  0  0  0  0  0  0  0
    3.3950    0.7627    1.5847 N   0  0  0  0  0  0  0  0  0  0  0  0
   -0.2533   -0.6203   -1.5499 H   0  0  0  0  0  0  0  0  0  0  0  0
   -1.9070   -0.3923   -2.1411 H   0  0  0  0  0  0  0  0  0  0  0  0
   -1.0736    0.9239   -1.3099 H   0  0  0  0  0  0  0  0  0  0  0  0
   -1.0958   -2.7257   -0.3541 H   0  0  0  0  0  0  0  0  0  0  0  0
   -2.7583   -2.4129   -0.8699 H   0  0  0  0  0  0  0  0  0  0  0  0
   -2.3826   -2.6020    0.8507 H   0  0  0  0  0  0  0  0  0  0  0  0
   -3.4638   -0.2823    1.3365 H   0  0  0  0  0  0  0  0  0  0  0  0
   -3.8732   -0.2544   -0.3878 H   0  0  0  0  0  0  0  0  0  0  0  0
   -3.0122    1.1029    0.3382 H   0  0  0  0  0  0  0  0  0  0  0  0
   -0.6669    1.7379    0.7871 H   0  0  0  0  0  0  0  0  0  0  0  0
   -1.4086    1.2388    2.3140 H   0  0  0  0  0  0  0  0  0  0  0  0
    2.3001    0.9677   -2.0406 H   0  0  0  0  0  0  0  0  0  0  0  0
    4.6924    0.4145   -1.5109 H   0  0  0  0  0  0  0  0  0  0  0  0
    5.2922    0.3135    0.9283 H   0  0  0  0  0  0  0  0  0  0  0  0
  1  2  1  0
  2  3  1  0
  2  4  1  0
  2  5  1  0
  5  6  2  0
  5  7  1  0
  7  8  1  0
  8  9  1  0
  9 10  2  0
 10 11  1  0
 11 12  2  0
 12 13  1  0
 13 14  2  0
 14  9  1  0
  1 15  1  0
  1 16  1  0
  1 17  1  0
  3 18  1  0
  3 19  1  0
  3 20  1  0
  4 21  1  0
  4 22  1  0
  4 23  1  0
  7 24  1  0
  7 25  1  0
 11 26  1  0
 12 27  1  0
 13 28  1  0
M  END
$$$$
