
     RDKit          3D

 34 35  0  0  0  0  0  0  0  0999 V2000
    0.6386    2.3005    2.0331 C   0  0  0  0  0  0  0  0  0  0  0  0
   -0.3866    1.5773    1.3012 N   0  0  0  0  0  0  0  0  0  0  0  0
   -0.0884    0.6224    0.4846 C   0  0  0  0  0  0  0  0  0  0  0  0
    1.2727    0.0574    0.2542 C   0  0  0  0  0  0  0  0  0  0  0  0
    1.7794   -0.0341   -1.0466 C   0  0  0  0  0  0  0  0  0  0  0  0
    3.0446   -0.5829   -1.2628 C   0  0  0  0  0  0  0  0  0  0  0  0
    3.7996   -1.0455   -0.1846 C   0  0  0  0  0  0  0  0  0  0  0  0
    3.2919   -0.9645    1.1121 C   0  0  0  0  0  0  0  0  0  0  0  0
    2.0280   -0.4162    1.3331 C   0  0  0  0  0  0  0  0  0  0  0  0
   -1.2052    0.0374   -0.3234 C   0  0  0  0  0  0  0  0  0  0  0  0
   -1.8394    0.8435   -1.2959 C   0  0  0  0  0  0  0  0  0  0  0  0
   -1.4683    2.2862   -1.5075 C   0  0  0  0  0  0  0  0  0  0  0  0
   -2.8729    0.2899   -2.0656 C   0  0  0  0  0  0  0  0  0  0  0  0
   -3.2598   -1.0363   -1.8869 C   0  0  0  0  0  0  0  0  0  0  0  0
   -2.6363   -1.8230   -0.9203 C   0  0  0  0  0  0  0  0  0  0  0  0
   -1.6170   -1.2960   -0.1122 C   0  0  0  0  0  0  0  0  0  0  0  0
   -1.0033   -2.1803    0.9364 C   0  0  0  0  0  0  0  0  0  0  0  0
    0.2559    3.2959    2.2815 H   0  0  0  0  0  0  0  0  0  0  0  0
    1.5536    2.4549    1.4525 H   0  0  0  0  0  0  0  0  0  0  0  0
    0.8735    1.7988    2.9762 H   0  0  0  0  0  0  0  0  0  0  0  0
    1.2028    0.3243   -1.8950 H   0  0  0  0  0  0  0  0  0  0  0  0
    3.4416   -0.6500   -2.2727 H   0  0  0  0  0  0  0  0  0  0  0  0
    4.7846   -1.4731   -0.3560 H   0  0  0  0  0  0  0  0  0  0  0  0
    3.8788   -1.3323    1.9500 H   0  0  0  0  0  0  0  0  0  0  0  0
    1.6290   -0.3755    2.3430 H   0  0  0  0  0  0  0  0  0  0  0  0
   -0.3829    2.4098   -1.5717 H   0  0  0  0  0  0  0  0  0  0  0  0
   -1.8609    2.9015   -0.6921 H   0  0  0  0  0  0  0  0  0  0  0  0
   -1.8838    2.6682   -2.4465 H   0  0  0  0  0  0  0  0  0  0  0  0
   -3.3856    0.8925   -2.8124 H   0  0  0  0  0  0  0  0  0  0  0  0
   -4.0586   -1.4547   -2.4941 H   0  0  0  0  0  0  0  0  0  0  0  0
   -2.9638   -2.8525   -0.7895 H   0  0  0  0  0  0  0  0  0  0  0  0
   -0.0583   -2.5971    0.5761 H   0  0  0  0  0  0  0  0  0  0  0  0
   -1.6673   -3.0159    1.1845 H   0  0  0  0  0  0  0  0  0  0  0  0
   -0.8364   -1.6306    1.8680 H   0  0  0  0  0  0  0  0  0  0  0  0
  1  2  1  0
  2  3  2  3
  3  4  1  0
  4  5  2  0
  5  6  1  0
  6  7  2  0
  7  8  1  0
  8  9  2  0
  3 10  1  0
 10 11  2  0
 11 12  1  0
 11 13  1  0
 13 14  2  0
 14 15  1  0
 15 16  2  0
 16 17  1  0
  9  4  1  0
 16 10  1  0
  1 18  1  0
  1 19  1  0
  1 20  1  0
  5 21  1  0
  6 22  1  0
  7 23  1  0
  8 24  1  0
  9 25  1  0
 12 26  1  0
 12 27  1  0
 12 28  1  0
 13 29  1  0
 14 30  1  0
 15 31  1  0
 17 32  1  0
 17 33  1  0
 17 34  1  0
M  END
$$$$
