
     RDKit          3D

 71 75  0  0  0  0  0  0  0  0999 V2000
   -8.6104    0.3346   -0.3811 C   0  0  0  0  0  0  0  0  0  0  0  0
   -7.1397    0.2813   -0.6674 C   0  0  0  0  0  0  0  0  0  0  0  0
   -6.6627   -0.2352   -1.8713 C   0  0  0  0  0  0  0  0  0  0  0  0
   -5.2897   -0.3000   -2.1158 C   0  0  0  0  0  0  0  0  0  0  0  0
   -4.3602    0.1383   -1.1590 C   0  0  0  0  0  0  0  0  0  0  0  0
   -2.8948    0.0708   -1.4967 C   0  0  0  0  0  0  0  0  0  0  0  0
   -4.8282    0.6510    0.0694 C   0  0  0  0  0  0  0  0  0  0  0  0
   -3.8969    1.1519    1.1544 C   0  0  0  0  0  0  0  0  0  0  0  0
   -3.9076    0.2913    2.3240 N   0  0  0  0  0  0  0  0  0  0  0  0
   -4.7710    0.5223    3.3492 N   0  0  0  0  0  0  0  0  0  0  0  0
   -4.5162   -0.3693    4.3069 N   0  0  0  0  0  0  0  0  0  0  0  0
   -3.4718   -1.1295    3.8820 C   0  0  0  0  0  0  0  0  0  0  0  0
   -2.7633   -2.2001    4.5274 C   0  0  0  0  0  0  0  0  0  0  0  0
   -3.0169   -2.6731    5.6300 O   0  0  0  0  0  0  0  0  0  0  0  0
   -1.7063   -2.6692    3.7548 N   0  0  0  0  0  0  0  0  0  0  0  0
   -1.3885   -2.1896    2.4850 C   0  0  0  0  0  0  0  0  0  0  0  0
   -0.1576   -2.8402    1.8561 C   0  0  0  0  0  0  0  0  0  0  0  0
    1.1052   -2.1707    2.4138 C   0  0  0  0  0  0  0  0  0  0  0  0
    1.2675   -0.7288    1.9188 C   0  0  0  0  0  0  0  0  0  0  0  0
    0.7805   -0.5702    0.5313 N   0  0  0  0  0  0  0  0  0  0  0  0
    1.0583    0.9152   -0.2310 S   0  0  0  0  0  6  0  0  0  0  0  0
    0.8609    1.9690    0.7425 O   0  0  0  0  0  0  0  0  0  0  0  0
    0.3530    0.9270   -1.4950 O   0  0  0  0  0  0  0  0  0  0  0  0
    2.8015    0.8547   -0.6055 C   0  0  0  0  0  0  0  0  0  0  0  0
    3.2259    0.2703   -1.8045 C   0  0  0  0  0  0  0  0  0  0  0  0
    4.5876    0.2359   -2.1080 C   0  0  0  0  0  0  0  0  0  0  0  0
    5.5092    0.8157   -1.2270 C   0  0  0  0  0  0  0  0  0  0  0  0
    7.2522    0.7230   -1.5959 S   0  0  0  0  0  6  0  0  0  0  0  0
    7.4415   -0.4232   -2.4611 O   0  0  0  0  0  0  0  0  0  0  0  0
    7.9622    0.8315   -0.3397 O   0  0  0  0  0  0  0  0  0  0  0  0
    7.5330    2.1322   -2.4979 N   0  0  0  0  0  0  0  0  0  0  0  0
    7.5193    3.4123   -1.7699 C   0  0  0  0  0  0  0  0  0  0  0  0
    6.9273    2.2175   -3.8383 C   0  0  0  0  0  0  0  0  0  0  0  0
    5.0848    1.4038   -0.0307 C   0  0  0  0  0  0  0  0  0  0  0  0
    3.7222    1.4372    0.2740 C   0  0  0  0  0  0  0  0  0  0  0  0
    0.8010   -1.7939   -0.2811 C   0  0  0  0  0  0  0  0  0  0  0  0
   -0.1700   -2.8125    0.3189 C   0  0  0  0  0  0  0  0  0  0  0  0
   -2.0334   -1.2229    1.8946 N   0  0  0  0  0  0  0  0  0  0  0  0
   -3.0587   -0.7339    2.6326 C   0  0  0  0  0  0  0  0  0  0  0  0
   -6.2194    0.7129    0.2954 C   0  0  0  0  0  0  0  0  0  0  0  0
   -8.8968   -0.4891    0.2808 H   0  0  0  0  0  0  0  0  0  0  0  0
   -8.8772    1.2844    0.0918 H   0  0  0  0  0  0  0  0  0  0  0  0
   -9.1957    0.2569   -1.3032 H   0  0  0  0  0  0  0  0  0  0  0  0
   -7.3535   -0.5877   -2.6333 H   0  0  0  0  0  0  0  0  0  0  0  0
   -4.9474   -0.6955   -3.0699 H   0  0  0  0  0  0  0  0  0  0  0  0
   -2.4806    1.0826   -1.5671 H   0  0  0  0  0  0  0  0  0  0  0  0
   -2.3516   -0.4984   -0.7398 H   0  0  0  0  0  0  0  0  0  0  0  0
   -2.7244   -0.4268   -2.4590 H   0  0  0  0  0  0  0  0  0  0  0  0
   -4.2060    2.1547    1.4744 H   0  0  0  0  0  0  0  0  0  0  0  0
   -2.8607    1.2410    0.8160 H   0  0  0  0  0  0  0  0  0  0  0  0
   -1.1899   -3.4292    4.1709 H   0  0  0  0  0  0  0  0  0  0  0  0
   -0.1607   -3.8909    2.1753 H   0  0  0  0  0  0  0  0  0  0  0  0
    1.1110   -2.1789    3.5105 H   0  0  0  0  0  0  0  0  0  0  0  0
    1.9807   -2.7566    2.1014 H   0  0  0  0  0  0  0  0  0  0  0  0
    0.6906   -0.0610    2.5677 H   0  0  0  0  0  0  0  0  0  0  0  0
    2.3220   -0.4507    1.9996 H   0  0  0  0  0  0  0  0  0  0  0  0
    2.5074   -0.1593   -2.5003 H   0  0  0  0  0  0  0  0  0  0  0  0
    4.9235   -0.2416   -3.0268 H   0  0  0  0  0  0  0  0  0  0  0  0
    6.5022    3.6949   -1.4837 H   0  0  0  0  0  0  0  0  0  0  0  0
    8.1532    3.3618   -0.8809 H   0  0  0  0  0  0  0  0  0  0  0  0
    7.9303    4.2035   -2.4069 H   0  0  0  0  0  0  0  0  0  0  0  0
    5.9372    2.6782   -3.7914 H   0  0  0  0  0  0  0  0  0  0  0  0
    7.5658    2.8245   -4.4864 H   0  0  0  0  0  0  0  0  0  0  0  0
    6.8427    1.2366   -4.3106 H   0  0  0  0  0  0  0  0  0  0  0  0
    5.8041    1.8354    0.6634 H   0  0  0  0  0  0  0  0  0  0  0  0
    3.3885    1.9095    1.1965 H   0  0  0  0  0  0  0  0  0  0  0  0
    0.5036   -1.6018   -1.3168 H   0  0  0  0  0  0  0  0  0  0  0  0
    1.8189   -2.2024   -0.3046 H   0  0  0  0  0  0  0  0  0  0  0  0
    0.1079   -3.8048   -0.0618 H   0  0  0  0  0  0  0  0  0  0  0  0
   -1.1816   -2.6284   -0.0632 H   0  0  0  0  0  0  0  0  0  0  0  0
   -6.5932    1.1016    1.2432 H   0  0  0  0  0  0  0  0  0  0  0  0
  1  2  1  0
  2  3  2  0
  3  4  1  0
  4  5  2  0
  5  6  1  0
  5  7  1  0
  7  8  1  0
  8  9  1  0
  9 10  1  0
 10 11  2  0
 11 12  1  0
 12 13  1  0
 13 14  2  0
 13 15  1  0
 15 16  1  0
 16 17  1  0
 17 18  1  0
 18 19  1  0
 19 20  1  0
 20 21  1  0
 21 22  2  0
 21 23  2  0
 21 24  1  0
 24 25  2  0
 25 26  1  0
 26 27  2  0
 27 28  1  0
 28 29  2  0
 28 30  2  0
 28 31  1  0
 31 32  1  0
 31 33  1  0
 27 34  1  0
 34 35  2  0
 20 36  1  0
 36 37  1  0
 16 38  2  0
 38 39  1  0
  7 40  2  0
 40  2  1  0
 39  9  1  0
 39 12  2  0
 37 17  1  0
 35 24  1  0
  1 41  1  0
  1 42  1  0
  1 43  1  0
  3 44  1  0
  4 45  1  0
  6 46  1  0
  6 47  1  0
  6 48  1  0
  8 49  1  0
  8 50  1  0
 15 51  1  0
 17 52  1  0
 18 53  1  0
 18 54  1  0
 19 55  1  0
 19 56  1  0
 25 57  1  0
 26 58  1  0
 32 59  1  0
 32 60  1  0
 32 61  1  0
 33 62  1  0
 33 63  1  0
 33 64  1  0
 34 65  1  0
 35 66  1  0
 36 67  1  0
 36 68  1  0
 37 69  1  0
 37 70  1  0
 40 71  1  0
M  END
$$$$
