
     RDKit          3D

 55 60  0  0  0  0  0  0  0  0999 V2000
    7.3112    2.5182   -0.5079 C   0  0  0  0  0  0  0  0  0  0  0  0
    6.7642    2.0285    0.6791 C   0  0  0  0  0  0  0  0  0  0  0  0
    5.6329    1.2116    0.6423 C   0  0  0  0  0  0  0  0  0  0  0  0
    5.0429    0.8969   -0.5866 C   0  0  0  0  0  0  0  0  0  0  0  0
    3.8517    0.0146   -0.6586 C   0  0  0  0  0  0  0  0  0  0  0  0
    3.8958   -1.0162   -1.4492 N   0  0  0  0  0  0  0  0  0  0  0  0
    2.8009   -1.9013   -1.4841 C   0  0  0  0  0  0  0  0  0  0  0  0
    2.9234   -3.0510   -2.2702 C   0  0  0  0  0  0  0  0  0  0  0  0
    1.9024   -4.0012   -2.3110 C   0  0  0  0  0  0  0  0  0  0  0  0
    0.7515   -3.8149   -1.5492 C   0  0  0  0  0  0  0  0  0  0  0  0
    0.6097   -2.6710   -0.7608 C   0  0  0  0  0  0  0  0  0  0  0  0
    1.6190   -1.7041   -0.7492 C   0  0  0  0  0  0  0  0  0  0  0  0
    1.5490   -0.5095    0.0111 N   0  0  0  0  0  0  0  0  0  0  0  0
    0.5027    0.0687    0.7355 C   0  0  0  0  0  0  0  0  0  0  0  0
   -0.7962   -0.3726    0.6952 N   0  0  0  0  0  0  0  0  0  0  0  0
   -1.5518   -0.0696   -0.5559 C   0  0  0  0  0  0  0  0  0  0  0  0
   -2.8231    0.7744   -0.3069 C   0  0  0  0  0  0  0  0  0  0  0  0
   -3.7226    0.1192    0.6607 N   0  0  0  0  0  0  0  0  0  0  0  0
   -5.0789    0.3940    0.7070 C   0  0  0  0  0  0  0  0  0  0  0  0
   -5.9798   -0.4557    1.3710 C   0  0  0  0  0  0  0  0  0  0  0  0
   -7.3543   -0.1912    1.4206 C   0  0  0  0  0  0  0  0  0  0  0  0
   -7.8684    0.9399    0.7999 C   0  0  0  0  0  0  0  0  0  0  0  0
   -7.0068    1.7993    0.1301 C   0  0  0  0  0  0  0  0  0  0  0  0
   -5.6338    1.5245    0.0851 C   0  0  0  0  0  0  0  0  0  0  0  0
   -3.0710   -0.6976    1.7036 C   0  0  0  0  0  0  0  0  0  0  0  0
   -1.6074   -0.2570    1.9304 C   0  0  0  0  0  0  0  0  0  0  0  0
    1.0277    1.1541    1.4129 C   0  0  0  0  0  0  0  0  0  0  0  0
    2.3622    1.3323    0.9919 C   0  0  0  0  0  0  0  0  0  0  0  0
    2.6629    0.3111    0.1124 C   0  0  0  0  0  0  0  0  0  0  0  0
    5.6057    1.3691   -1.7773 C   0  0  0  0  0  0  0  0  0  0  0  0
    6.7363    2.1859   -1.7353 C   0  0  0  0  0  0  0  0  0  0  0  0
    8.1953    3.1507   -0.4775 H   0  0  0  0  0  0  0  0  0  0  0  0
    7.2260    2.2749    1.6319 H   0  0  0  0  0  0  0  0  0  0  0  0
    5.2310    0.8104    1.5688 H   0  0  0  0  0  0  0  0  0  0  0  0
    3.8327   -3.2077   -2.8445 H   0  0  0  0  0  0  0  0  0  0  0  0
    2.0153   -4.8923   -2.9224 H   0  0  0  0  0  0  0  0  0  0  0  0
   -0.0346   -4.5658   -1.5596 H   0  0  0  0  0  0  0  0  0  0  0  0
   -0.2791   -2.5781   -0.1476 H   0  0  0  0  0  0  0  0  0  0  0  0
   -0.9197    0.4481   -1.2886 H   0  0  0  0  0  0  0  0  0  0  0  0
   -1.8514   -1.0230   -1.0071 H   0  0  0  0  0  0  0  0  0  0  0  0
   -2.5435    1.7657    0.0700 H   0  0  0  0  0  0  0  0  0  0  0  0
   -3.3231    0.9030   -1.2742 H   0  0  0  0  0  0  0  0  0  0  0  0
   -5.6273   -1.3667    1.8468 H   0  0  0  0  0  0  0  0  0  0  0  0
   -8.0179   -0.8769    1.9403 H   0  0  0  0  0  0  0  0  0  0  0  0
   -8.9337    1.1489    0.8355 H   0  0  0  0  0  0  0  0  0  0  0  0
   -7.3956    2.6888   -0.3582 H   0  0  0  0  0  0  0  0  0  0  0  0
   -5.0001    2.2368   -0.4349 H   0  0  0  0  0  0  0  0  0  0  0  0
   -3.1008   -1.7513    1.4014 H   0  0  0  0  0  0  0  0  0  0  0  0
   -3.5924   -0.6003    2.6633 H   0  0  0  0  0  0  0  0  0  0  0  0
   -1.6100    0.7794    2.2910 H   0  0  0  0  0  0  0  0  0  0  0  0
   -1.1627   -0.8843    2.7120 H   0  0  0  0  0  0  0  0  0  0  0  0
    0.4800    1.8115    2.0742 H   0  0  0  0  0  0  0  0  0  0  0  0
    3.0163    2.1424    1.2863 H   0  0  0  0  0  0  0  0  0  0  0  0
    5.1651    1.0999   -2.7343 H   0  0  0  0  0  0  0  0  0  0  0  0
    7.1724    2.5567   -2.6594 H   0  0  0  0  0  0  0  0  0  0  0  0
  1  2  2  0
  2  3  1  0
  3  4  2  0
  4  5  1  0
  5  6  2  0
  6  7  1  0
  7  8  2  0
  8  9  1  0
  9 10  2  0
 10 11  1  0
 11 12  2  0
 12 13  1  0
 13 14  1  0
 14 15  1  0
 15 16  1  0
 16 17  1  0
 17 18  1  0
 18 19  1  0
 19 20  2  0
 20 21  1  0
 21 22  2  0
 22 23  1  0
 23 24  2  0
 18 25  1  0
 25 26  1  0
 14 27  2  0
 27 28  1  0
 28 29  2  0
  4 30  1  0
 30 31  2  0
 31  1  1  0
 29  5  1  0
 12  7  1  0
 29 13  1  0
 26 15  1  0
 24 19  1  0
  1 32  1  0
  2 33  1  0
  3 34  1  0
  8 35  1  0
  9 36  1  0
 10 37  1  0
 11 38  1  0
 16 39  1  0
 16 40  1  0
 17 41  1  0
 17 42  1  0
 20 43  1  0
 21 44  1  0
 22 45  1  0
 23 46  1  0
 24 47  1  0
 25 48  1  0
 25 49  1  0
 26 50  1  0
 26 51  1  0
 27 52  1  0
 28 53  1  0
 30 54  1  0
 31 55  1  0
M  END
$$$$
