
     RDKit          3D

 48 51  0  0  0  0  0  0  0  0999 V2000
    1.7098    2.1823   -1.1685 C   0  0  0  0  0  0  0  0  0  0  0  0
    1.5606    0.6655   -1.2093 C   0  0  0  0  0  0  0  0  0  0  0  0
    2.4204   -0.0007   -0.2270 N   0  0  0  0  0  0  0  0  0  0  0  0
    2.1355   -0.2506    1.1221 C   0  0  0  0  0  0  0  0  0  0  0  0
    0.9809   -0.5801    1.7339 C   0  0  0  0  0  0  0  0  0  0  0  0
   -0.3101   -0.8684    1.1018 C   0  0  0  0  0  0  0  0  0  0  0  0
   -0.3665   -1.9212    0.1839 C   0  0  0  0  0  0  0  0  0  0  0  0
   -1.5615   -2.2570   -0.4215 C   0  0  0  0  0  0  0  0  0  0  0  0
   -2.7076   -1.5391   -0.1093 C   0  0  0  0  0  0  0  0  0  0  0  0
   -3.9196   -1.8696   -0.7362 C   0  0  0  0  0  0  0  0  0  0  0  0
   -5.0948   -1.1710   -0.4490 C   0  0  0  0  0  0  0  0  0  0  0  0
   -6.3771   -1.5144   -1.1521 C   0  0  0  0  0  0  0  0  0  0  0  0
   -5.0438   -0.1124    0.4547 C   0  0  0  0  0  0  0  0  0  0  0  0
   -3.8419    0.2255    1.0891 C   0  0  0  0  0  0  0  0  0  0  0  0
   -2.6483   -0.4787    0.8359 C   0  0  0  0  0  0  0  0  0  0  0  0
   -1.4458   -0.1836    1.4436 N   0  0  0  0  0  4  0  0  0  0  0  0
   -1.3761    0.8841    2.4885 C   0  0  0  0  0  0  0  0  0  0  0  0
   -1.1404    2.2333    1.8395 C   0  0  0  0  0  0  0  0  0  0  0  0
    3.5796   -0.2495    2.1844 S   0  0  0  0  0  0  0  0  0  0  0  0
    4.5972   -0.0569    0.7336 C   0  0  0  0  0  0  0  0  0  0  0  0
    5.9845   -0.0170    0.7170 C   0  0  0  0  0  0  0  0  0  0  0  0
    6.6289    0.1480   -0.5073 C   0  0  0  0  0  0  0  0  0  0  0  0
    5.8837    0.2672   -1.6863 C   0  0  0  0  0  0  0  0  0  0  0  0
    4.4838    0.2268   -1.6575 C   0  0  0  0  0  0  0  0  0  0  0  0
    3.8248    0.0719   -0.4406 C   0  0  0  0  0  0  0  0  0  0  0  0
    1.5635    2.5712   -0.1568 H   0  0  0  0  0  0  0  0  0  0  0  0
    2.7004    2.5025   -1.5051 H   0  0  0  0  0  0  0  0  0  0  0  0
    0.9701    2.6503   -1.8258 H   0  0  0  0  0  0  0  0  0  0  0  0
    0.5095    0.4321   -1.0250 H   0  0  0  0  0  0  0  0  0  0  0  0
    1.7584    0.2915   -2.2204 H   0  0  0  0  0  0  0  0  0  0  0  0
    0.9950   -0.7798    2.8048 H   0  0  0  0  0  0  0  0  0  0  0  0
    0.5322   -2.4863   -0.0656 H   0  0  0  0  0  0  0  0  0  0  0  0
   -1.5843   -3.0782   -1.1376 H   0  0  0  0  0  0  0  0  0  0  0  0
   -3.9580   -2.6834   -1.4621 H   0  0  0  0  0  0  0  0  0  0  0  0
   -7.2427   -1.2728   -0.5263 H   0  0  0  0  0  0  0  0  0  0  0  0
   -6.4254   -2.5859   -1.3732 H   0  0  0  0  0  0  0  0  0  0  0  0
   -6.4507   -0.9547   -2.0895 H   0  0  0  0  0  0  0  0  0  0  0  0
   -5.9451    0.4613    0.6728 H   0  0  0  0  0  0  0  0  0  0  0  0
   -3.8922    1.0685    1.7712 H   0  0  0  0  0  0  0  0  0  0  0  0
   -0.5852    0.6531    3.2053 H   0  0  0  0  0  0  0  0  0  0  0  0
   -2.2962    0.8639    3.0788 H   0  0  0  0  0  0  0  0  0  0  0  0
   -1.9216    2.4784    1.1143 H   0  0  0  0  0  0  0  0  0  0  0  0
   -0.1841    2.2508    1.3122 H   0  0  0  0  0  0  0  0  0  0  0  0
   -1.1217    3.0204    2.5994 H   0  0  0  0  0  0  0  0  0  0  0  0
    6.5596   -0.1122    1.6327 H   0  0  0  0  0  0  0  0  0  0  0  0
    7.7157    0.1808   -0.5486 H   0  0  0  0  0  0  0  0  0  0  0  0
    6.4008    0.3879   -2.6366 H   0  0  0  0  0  0  0  0  0  0  0  0
    3.9459    0.3062   -2.5956 H   0  0  0  0  0  0  0  0  0  0  0  0
  1  2  1  0
  2  3  1  0
  3  4  1  0
  4  5  2  3
  5  6  1  0
  6  7  2  0
  7  8  1  0
  8  9  2  0
  9 10  1  0
 10 11  2  0
 11 12  1  0
 11 13  1  0
 13 14  2  0
 14 15  1  0
 15 16  2  0
 16 17  1  0
 17 18  1  0
  4 19  1  0
 19 20  1  0
 20 21  2  0
 21 22  1  0
 22 23  2  0
 23 24  1  0
 24 25  2  0
 25  3  1  0
 16  6  1  0
 25 20  1  0
 15  9  1  0
  1 26  1  0
  1 27  1  0
  1 28  1  0
  2 29  1  0
  2 30  1  0
  5 31  1  0
  7 32  1  0
  8 33  1  0
 10 34  1  0
 12 35  1  0
 12 36  1  0
 12 37  1  0
 13 38  1  0
 14 39  1  0
 17 40  1  0
 17 41  1  0
 18 42  1  0
 18 43  1  0
 18 44  1  0
 21 45  1  0
 22 46  1  0
 23 47  1  0
 24 48  1  0
M  CHG  1  16   1
M  END
$$$$
