
     RDKit          3D

 43 45  0  0  0  0  0  0  0  0999 V2000
    1.5863   -2.4827   -0.9920 O   0  0  0  0  0  0  0  0  0  0  0  0
    1.9639   -1.4616   -0.4241 C   0  0  0  0  0  0  0  0  0  0  0  0
    3.4463   -1.1912   -0.2083 C   0  0  0  0  0  0  0  0  0  0  0  0
    3.9462    0.2736   -1.1775 S   0  0  0  0  0  0  0  0  0  0  0  0
    5.6111    0.4893   -0.5764 C   0  0  0  0  0  0  0  0  0  0  0  0
    6.6711    0.4219   -1.4854 C   0  0  0  0  0  0  0  0  0  0  0  0
    7.9834    0.6424   -1.0578 C   0  0  0  0  0  0  0  0  0  0  0  0
    8.2442    0.9434    0.2813 C   0  0  0  0  0  0  0  0  0  0  0  0
    7.1956    1.0144    1.1931 C   0  0  0  0  0  0  0  0  0  0  0  0
    5.8907    0.7926    0.7608 C   0  0  0  0  0  0  0  0  0  0  0  0
    4.8987    0.8860    1.6576 F   0  0  0  0  0  0  0  0  0  0  0  0
    1.1582   -0.4704    0.1159 N   0  0  0  0  0  0  0  0  0  0  0  0
   -0.2474   -0.4067    0.1172 C   0  0  0  0  0  0  0  0  0  0  0  0
   -0.8375    0.7040    0.7188 C   0  0  0  0  0  0  0  0  0  0  0  0
   -2.2337    0.8382    0.7651 C   0  0  0  0  0  0  0  0  0  0  0  0
   -3.0942   -0.1195    0.2097 C   0  0  0  0  0  0  0  0  0  0  0  0
   -4.4695    0.0172    0.2606 N   0  0  0  0  0  0  0  0  0  0  0  0
   -5.1164    1.3176    0.4991 C   0  0  0  0  0  0  0  0  0  0  0  0
   -6.5157    1.3474   -0.1389 C   0  0  0  0  0  0  0  0  0  0  0  0
   -7.3983    0.3253    0.3408 O   0  0  0  0  0  0  0  0  0  0  0  0
   -6.7174   -0.8789    0.7236 C   0  0  0  0  0  0  0  0  0  0  0  0
   -5.3815   -1.1083   -0.0028 C   0  0  0  0  0  0  0  0  0  0  0  0
   -2.4741   -1.2258   -0.3901 C   0  0  0  0  0  0  0  0  0  0  0  0
   -1.0776   -1.3731   -0.4367 C   0  0  0  0  0  0  0  0  0  0  0  0
    3.6218   -1.0526    0.8633 H   0  0  0  0  0  0  0  0  0  0  0  0
    4.0203   -2.0602   -0.5437 H   0  0  0  0  0  0  0  0  0  0  0  0
    6.4840    0.2005   -2.5343 H   0  0  0  0  0  0  0  0  0  0  0  0
    8.7991    0.5980   -1.7739 H   0  0  0  0  0  0  0  0  0  0  0  0
    9.2633    1.1276    0.6093 H   0  0  0  0  0  0  0  0  0  0  0  0
    7.3838    1.2601    2.2344 H   0  0  0  0  0  0  0  0  0  0  0  0
    1.6420    0.3257    0.5139 H   0  0  0  0  0  0  0  0  0  0  0  0
   -0.2296    1.4833    1.1716 H   0  0  0  0  0  0  0  0  0  0  0  0
   -2.6360    1.7087    1.2759 H   0  0  0  0  0  0  0  0  0  0  0  0
   -4.5359    2.1360    0.0608 H   0  0  0  0  0  0  0  0  0  0  0  0
   -5.1966    1.4791    1.5798 H   0  0  0  0  0  0  0  0  0  0  0  0
   -6.9954    2.3124    0.0554 H   0  0  0  0  0  0  0  0  0  0  0  0
   -6.4393    1.2372   -1.2278 H   0  0  0  0  0  0  0  0  0  0  0  0
   -7.3973   -1.7149    0.5320 H   0  0  0  0  0  0  0  0  0  0  0  0
   -6.5543   -0.8343    1.8072 H   0  0  0  0  0  0  0  0  0  0  0  0
   -4.9644   -2.0557    0.3595 H   0  0  0  0  0  0  0  0  0  0  0  0
   -5.5502   -1.1843   -1.0850 H   0  0  0  0  0  0  0  0  0  0  0  0
   -3.0664   -2.0048   -0.8628 H   0  0  0  0  0  0  0  0  0  0  0  0
   -0.6816   -2.2569   -0.9222 H   0  0  0  0  0  0  0  0  0  0  0  0
  1  2  2  0
  2  3  1  0
  3  4  1  0
  4  5  1  0
  5  6  2  0
  6  7  1  0
  7  8  2  0
  8  9  1  0
  9 10  2  0
 10 11  1  0
  2 12  1  0
 12 13  1  0
 13 14  2  0
 14 15  1  0
 15 16  2  0
 16 17  1  0
 17 18  1  0
 18 19  1  0
 19 20  1  0
 20 21  1  0
 21 22  1  0
 16 23  1  0
 23 24  2  0
 10  5  1  0
 24 13  1  0
 22 17  1  0
  3 25  1  0
  3 26  1  0
  6 27  1  0
  7 28  1  0
  8 29  1  0
  9 30  1  0
 12 31  1  0
 14 32  1  0
 15 33  1  0
 18 34  1  0
 18 35  1  0
 19 36  1  0
 19 37  1  0
 21 38  1  0
 21 39  1  0
 22 40  1  0
 22 41  1  0
 23 42  1  0
 24 43  1  0
M  END
$$$$
