
     RDKit          3D

 54 57  0  0  0  0  0  0  0  0999 V2000
   -2.0844   -5.8947    1.7189 C   0  0  0  0  0  0  0  0  0  0  0  0
   -2.9552   -5.0339    0.9952 O   0  0  0  0  0  0  0  0  0  0  0  0
   -2.6324   -3.7052    0.9698 C   0  0  0  0  0  0  0  0  0  0  0  0
   -3.5576   -2.8951    0.3013 C   0  0  0  0  0  0  0  0  0  0  0  0
   -3.3541   -1.5182    0.1951 C   0  0  0  0  0  0  0  0  0  0  0  0
   -2.2022   -0.9542    0.7442 C   0  0  0  0  0  0  0  0  0  0  0  0
   -1.9722    0.5055    0.6646 C   0  0  0  0  0  0  0  0  0  0  0  0
   -2.0818    1.1748    1.7683 N   0  0  0  0  0  0  0  0  0  0  0  0
   -1.8791    2.5567    1.7410 C   0  0  0  0  0  0  0  0  0  0  0  0
   -1.9858    3.2769    2.9335 C   0  0  0  0  0  0  0  0  0  0  0  0
   -1.7937    4.6613    2.9506 C   0  0  0  0  0  0  0  0  0  0  0  0
   -1.4927    5.3385    1.7696 C   0  0  0  0  0  0  0  0  0  0  0  0
   -1.3844    4.6298    0.5738 C   0  0  0  0  0  0  0  0  0  0  0  0
   -1.5796    3.2426    0.5695 C   0  0  0  0  0  0  0  0  0  0  0  0
   -1.4640    2.4615   -0.6726 C   0  0  0  0  0  0  0  0  0  0  0  0
   -1.2217    3.0521   -1.7233 O   0  0  0  0  0  0  0  0  0  0  0  0
   -1.6526    1.0810   -0.5643 N   0  0  0  0  0  0  0  0  0  0  0  0
   -1.3729    0.2931   -1.7786 C   0  0  0  0  0  0  0  0  0  0  0  0
    0.0364   -0.3158   -1.7777 C   0  0  0  0  0  0  0  0  0  0  0  0
    1.0036    0.7337   -1.7664 O   0  0  0  0  0  0  0  0  0  0  0  0
    2.2779    0.3908   -1.4000 C   0  0  0  0  0  0  0  0  0  0  0  0
    2.8193   -0.8909   -1.5498 C   0  0  0  0  0  0  0  0  0  0  0  0
    4.1400   -1.1599   -1.1629 C   0  0  0  0  0  0  0  0  0  0  0  0
    4.7020   -2.5444   -1.2949 C   0  0  0  0  0  0  0  0  0  0  0  0
    4.9088   -0.1340   -0.6063 C   0  0  0  0  0  0  0  0  0  0  0  0
    4.3795    1.1500   -0.4702 C   0  0  0  0  0  0  0  0  0  0  0  0
    3.0674    1.4274   -0.8765 C   0  0  0  0  0  0  0  0  0  0  0  0
    2.5079    2.8134   -0.7117 C   0  0  0  0  0  0  0  0  0  0  0  0
   -1.2859   -1.7475    1.4391 C   0  0  0  0  0  0  0  0  0  0  0  0
   -1.4976   -3.1257    1.5428 C   0  0  0  0  0  0  0  0  0  0  0  0
   -2.4934   -6.9081    1.6625 H   0  0  0  0  0  0  0  0  0  0  0  0
   -1.0861   -5.9130    1.2696 H   0  0  0  0  0  0  0  0  0  0  0  0
   -2.0380   -5.6125    2.7760 H   0  0  0  0  0  0  0  0  0  0  0  0
   -4.4507   -3.3429   -0.1289 H   0  0  0  0  0  0  0  0  0  0  0  0
   -4.0932   -0.8966   -0.3030 H   0  0  0  0  0  0  0  0  0  0  0  0
   -2.2214    2.7504    3.8550 H   0  0  0  0  0  0  0  0  0  0  0  0
   -1.8799    5.2081    3.8863 H   0  0  0  0  0  0  0  0  0  0  0  0
   -1.3425    6.4152    1.7801 H   0  0  0  0  0  0  0  0  0  0  0  0
   -1.1478    5.1531   -0.3498 H   0  0  0  0  0  0  0  0  0  0  0  0
   -1.4823    0.9328   -2.6616 H   0  0  0  0  0  0  0  0  0  0  0  0
   -2.1123   -0.5044   -1.8800 H   0  0  0  0  0  0  0  0  0  0  0  0
    0.1633   -0.9660   -0.9063 H   0  0  0  0  0  0  0  0  0  0  0  0
    0.1614   -0.9084   -2.6913 H   0  0  0  0  0  0  0  0  0  0  0  0
    2.2326   -1.6944   -1.9837 H   0  0  0  0  0  0  0  0  0  0  0  0
    4.4617   -3.1320   -0.4035 H   0  0  0  0  0  0  0  0  0  0  0  0
    4.2907   -3.0496   -2.1750 H   0  0  0  0  0  0  0  0  0  0  0  0
    5.7900   -2.5162   -1.4165 H   0  0  0  0  0  0  0  0  0  0  0  0
    5.9292   -0.3243   -0.2813 H   0  0  0  0  0  0  0  0  0  0  0  0
    4.9992    1.9356   -0.0439 H   0  0  0  0  0  0  0  0  0  0  0  0
    2.0815    3.1710   -1.6546 H   0  0  0  0  0  0  0  0  0  0  0  0
    3.2849    3.5258   -0.4151 H   0  0  0  0  0  0  0  0  0  0  0  0
    1.7342    2.8162    0.0623 H   0  0  0  0  0  0  0  0  0  0  0  0
   -0.4108   -1.2945    1.9000 H   0  0  0  0  0  0  0  0  0  0  0  0
   -0.7633   -3.7147    2.0825 H   0  0  0  0  0  0  0  0  0  0  0  0
  1  2  1  0
  2  3  1  0
  3  4  2  0
  4  5  1  0
  5  6  2  0
  6  7  1  0
  7  8  2  0
  8  9  1  0
  9 10  2  0
 10 11  1  0
 11 12  2  0
 12 13  1  0
 13 14  2  0
 14 15  1  0
 15 16  2  0
 15 17  1  0
 17 18  1  0
 18 19  1  0
 19 20  1  0
 20 21  1  0
 21 22  2  0
 22 23  1  0
 23 24  1  0
 23 25  2  0
 25 26  1  0
 26 27  2  0
 27 28  1  0
  6 29  1  0
 29 30  2  0
 30  3  1  0
 17  7  1  0
 27 21  1  0
 14  9  1  0
  1 31  1  0
  1 32  1  0
  1 33  1  0
  4 34  1  0
  5 35  1  0
 10 36  1  0
 11 37  1  0
 12 38  1  0
 13 39  1  0
 18 40  1  0
 18 41  1  0
 19 42  1  0
 19 43  1  0
 22 44  1  0
 24 45  1  0
 24 46  1  0
 24 47  1  0
 25 48  1  0
 26 49  1  0
 28 50  1  0
 28 51  1  0
 28 52  1  0
 29 53  1  0
 30 54  1  0
M  END
$$$$
