
     RDKit          3D

 53 52  0  0  0  0  0  0  0  0999 V2000
   -5.7552    1.9997    0.1853 C   0  0  0  0  0  0  0  0  0  0  0  0
   -4.5404    1.1526    0.5650 C   0  0  0  0  0  0  0  0  0  0  0  0
   -4.5741    0.8393    2.0629 C   0  0  0  0  0  0  0  0  0  0  0  0
   -4.4680   -0.1610   -0.2388 C   0  0  0  0  0  0  0  0  0  0  0  0
   -4.3211    0.0153   -1.7524 C   0  0  0  0  0  0  0  0  0  0  0  0
   -3.1352    0.7636   -2.1185 N   0  0  0  0  0  0  0  0  0  0  0  0
   -1.8799    0.1958   -2.0837 C   0  0  0  0  0  0  0  0  0  0  0  0
   -1.6822   -0.9902   -1.8405 O   0  0  0  0  0  0  0  0  0  0  0  0
   -0.7691    1.1696   -2.4150 C   0  0  0  0  0  0  0  0  0  0  0  0
    0.5856    0.7326   -1.8683 C   0  0  0  0  0  0  0  0  0  0  0  0
    0.9452    1.3823   -0.1934 S   0  0  0  0  0  0  0  0  0  0  0  0
   -0.2018    0.4065    0.8523 C   0  0  0  0  0  0  0  0  0  0  0  0
    0.1340   -1.0757    0.9428 C   0  0  0  0  0  0  0  0  0  0  0  0
    1.3838   -1.3073    1.7630 C   0  0  0  0  0  0  0  0  0  0  0  0
    1.4709   -0.9577    2.9358 O   0  0  0  0  0  0  0  0  0  0  0  0
    2.3902   -1.9562    1.0820 N   0  0  0  0  0  0  0  0  0  0  0  0
    3.7004   -2.1478    1.6674 C   0  0  0  0  0  0  0  0  0  0  0  0
    4.5910   -0.9097    1.5273 C   0  0  0  0  0  0  0  0  0  0  0  0
    4.8727   -0.4742    0.0746 C   0  0  0  0  0  0  0  0  0  0  0  0
    5.6127   -1.5488   -0.7240 C   0  0  0  0  0  0  0  0  0  0  0  0
    5.6850    0.8243    0.0717 C   0  0  0  0  0  0  0  0  0  0  0  0
   -5.6903    2.3467   -0.8499 H   0  0  0  0  0  0  0  0  0  0  0  0
   -6.6859    1.4331    0.2979 H   0  0  0  0  0  0  0  0  0  0  0  0
   -5.8223    2.8894    0.8211 H   0  0  0  0  0  0  0  0  0  0  0  0
   -3.6363    1.7437    0.3733 H   0  0  0  0  0  0  0  0  0  0  0  0
   -3.6850    0.2739    2.3614 H   0  0  0  0  0  0  0  0  0  0  0  0
   -5.4577    0.2474    2.3252 H   0  0  0  0  0  0  0  0  0  0  0  0
   -4.5954    1.7610    2.6540 H   0  0  0  0  0  0  0  0  0  0  0  0
   -5.3697   -0.7571   -0.0467 H   0  0  0  0  0  0  0  0  0  0  0  0
   -3.6216   -0.7536    0.1321 H   0  0  0  0  0  0  0  0  0  0  0  0
   -5.1845    0.5349   -2.1788 H   0  0  0  0  0  0  0  0  0  0  0  0
   -4.2651   -0.9720   -2.2257 H   0  0  0  0  0  0  0  0  0  0  0  0
   -3.2196    1.7678   -2.2177 H   0  0  0  0  0  0  0  0  0  0  0  0
   -0.7127    1.1921   -3.5112 H   0  0  0  0  0  0  0  0  0  0  0  0
   -1.0281    2.1823   -2.0842 H   0  0  0  0  0  0  0  0  0  0  0  0
    1.3627    1.1635   -2.5100 H   0  0  0  0  0  0  0  0  0  0  0  0
    0.7354   -0.3501   -1.8932 H   0  0  0  0  0  0  0  0  0  0  0  0
   -1.2219    0.5487    0.4879 H   0  0  0  0  0  0  0  0  0  0  0  0
   -0.1709    0.8588    1.8499 H   0  0  0  0  0  0  0  0  0  0  0  0
    0.2152   -1.5422   -0.0434 H   0  0  0  0  0  0  0  0  0  0  0  0
   -0.6792   -1.5996    1.4620 H   0  0  0  0  0  0  0  0  0  0  0  0
    2.3000   -2.0706    0.0809 H   0  0  0  0  0  0  0  0  0  0  0  0
    3.5782   -2.3849    2.7309 H   0  0  0  0  0  0  0  0  0  0  0  0
    4.1513   -3.0218    1.1876 H   0  0  0  0  0  0  0  0  0  0  0  0
    4.1198   -0.0736    2.0610 H   0  0  0  0  0  0  0  0  0  0  0  0
    5.5418   -1.1080    2.0382 H   0  0  0  0  0  0  0  0  0  0  0  0
    3.9215   -0.2684   -0.4304 H   0  0  0  0  0  0  0  0  0  0  0  0
    4.9986   -2.4463   -0.8482 H   0  0  0  0  0  0  0  0  0  0  0  0
    5.8601   -1.1856   -1.7276 H   0  0  0  0  0  0  0  0  0  0  0  0
    6.5467   -1.8385   -0.2305 H   0  0  0  0  0  0  0  0  0  0  0  0
    5.8617    1.1703   -0.9523 H   0  0  0  0  0  0  0  0  0  0  0  0
    6.6582    0.6868    0.5553 H   0  0  0  0  0  0  0  0  0  0  0  0
    5.1505    1.6191    0.6035 H   0  0  0  0  0  0  0  0  0  0  0  0
  1  2  1  0
  2  3  1  0
  2  4  1  0
  4  5  1  0
  5  6  1  0
  6  7  1  0
  7  8  2  0
  7  9  1  0
  9 10  1  0
 10 11  1  0
 11 12  1  0
 12 13  1  0
 13 14  1  0
 14 15  2  0
 14 16  1  0
 16 17  1  0
 17 18  1  0
 18 19  1  0
 19 20  1  0
 19 21  1  0
  1 22  1  0
  1 23  1  0
  1 24  1  0
  2 25  1  0
  3 26  1  0
  3 27  1  0
  3 28  1  0
  4 29  1  0
  4 30  1  0
  5 31  1  0
  5 32  1  0
  6 33  1  0
  9 34  1  0
  9 35  1  0
 10 36  1  0
 10 37  1  0
 12 38  1  0
 12 39  1  0
 13 40  1  0
 13 41  1  0
 16 42  1  0
 17 43  1  0
 17 44  1  0
 18 45  1  0
 18 46  1  0
 19 47  1  0
 20 48  1  0
 20 49  1  0
 20 50  1  0
 21 51  1  0
 21 52  1  0
 21 53  1  0
M  END
$$$$
