
     RDKit          3D

 45 49  0  0  0  0  0  0  0  0999 V2000
    7.0969    1.4737   -2.4674 Cl  0  0  0  0  0  0  0  0  0  0  0  0
    6.2479    0.8247   -1.1168 C   0  0  0  0  0  0  0  0  0  0  0  0
    6.9609    0.2781   -0.0584 C   0  0  0  0  0  0  0  0  0  0  0  0
    6.2690   -0.2424    1.0284 C   0  0  0  0  0  0  0  0  0  0  0  0
    4.8680   -0.2197    1.0384 C   0  0  0  0  0  0  0  0  0  0  0  0
    4.1189    0.3225   -0.0216 C   0  0  0  0  0  0  0  0  0  0  0  0
    2.7342    0.3417    0.0077 N   0  0  0  0  0  0  0  0  0  0  0  0
    1.9519    1.2304   -0.8708 C   0  0  0  0  0  0  0  0  0  0  0  0
    0.4892    1.3525   -0.3870 C   0  0  0  0  0  0  0  0  0  0  0  0
   -0.1792    0.0376   -0.3532 N   0  0  0  0  0  0  0  0  0  0  0  0
   -1.5547   -0.0249   -0.1656 C   0  0  0  0  0  0  0  0  0  0  0  0
   -2.1605    1.0191    0.3467 N   0  0  0  0  0  0  0  0  0  0  0  0
   -3.5469    0.9959    0.5963 C   0  0  0  0  0  0  0  0  0  0  0  0
   -4.1348    2.1177    1.1864 C   0  0  0  0  0  0  0  0  0  0  0  0
   -5.5061    2.1443    1.4611 C   0  0  0  0  0  0  0  0  0  0  0  0
   -6.3047    1.0455    1.1425 C   0  0  0  0  0  0  0  0  0  0  0  0
   -5.7386   -0.0879    0.5572 C   0  0  0  0  0  0  0  0  0  0  0  0
   -4.3656   -0.1029    0.2948 C   0  0  0  0  0  0  0  0  0  0  0  0
   -3.7145   -1.2036   -0.2886 N   0  0  0  0  0  0  0  0  0  0  0  0
   -4.2388   -2.4042   -0.7139 C   0  0  0  0  0  0  0  0  0  0  0  0
   -3.2218   -3.1416   -1.2777 C   0  0  0  0  0  0  0  0  0  0  0  0
   -2.0388   -2.3695   -1.1741 C   0  0  0  0  0  0  0  0  0  0  0  0
   -2.3580   -1.1862   -0.5287 C   0  0  0  0  0  0  0  0  0  0  0  0
    0.6921   -1.0961    0.0032 C   0  0  0  0  0  0  0  0  0  0  0  0
    1.9627   -0.6593    0.7696 C   0  0  0  0  0  0  0  0  0  0  0  0
    4.8496    0.8555   -1.0954 C   0  0  0  0  0  0  0  0  0  0  0  0
    8.0463    0.2617   -0.0680 H   0  0  0  0  0  0  0  0  0  0  0  0
    6.8082   -0.6532    1.8759 H   0  0  0  0  0  0  0  0  0  0  0  0
    4.3679   -0.6058    1.9226 H   0  0  0  0  0  0  0  0  0  0  0  0
    1.9606    0.8300   -1.8927 H   0  0  0  0  0  0  0  0  0  0  0  0
    2.3922    2.2362   -0.8885 H   0  0  0  0  0  0  0  0  0  0  0  0
    0.4669    1.8020    0.6155 H   0  0  0  0  0  0  0  0  0  0  0  0
   -0.0477    2.0204   -1.0707 H   0  0  0  0  0  0  0  0  0  0  0  0
   -3.5141    2.9763    1.4373 H   0  0  0  0  0  0  0  0  0  0  0  0
   -5.9487    3.0225    1.9227 H   0  0  0  0  0  0  0  0  0  0  0  0
   -7.3724    1.0733    1.3502 H   0  0  0  0  0  0  0  0  0  0  0  0
   -6.3783   -0.9297    0.3165 H   0  0  0  0  0  0  0  0  0  0  0  0
   -5.2882   -2.6398   -0.6074 H   0  0  0  0  0  0  0  0  0  0  0  0
   -3.3287   -4.1200   -1.7286 H   0  0  0  0  0  0  0  0  0  0  0  0
   -1.0622   -2.6493   -1.5482 H   0  0  0  0  0  0  0  0  0  0  0  0
    0.9935   -1.5993   -0.9223 H   0  0  0  0  0  0  0  0  0  0  0  0
    0.1561   -1.8218    0.6225 H   0  0  0  0  0  0  0  0  0  0  0  0
    1.6846   -0.2279    1.7399 H   0  0  0  0  0  0  0  0  0  0  0  0
    2.5494   -1.5651    0.9588 H   0  0  0  0  0  0  0  0  0  0  0  0
    4.3363    1.2886   -1.9488 H   0  0  0  0  0  0  0  0  0  0  0  0
  1  2  1  0
  2  3  2  0
  3  4  1  0
  4  5  2  0
  5  6  1  0
  6  7  1  0
  7  8  1  0
  8  9  1  0
  9 10  1  0
 10 11  1  0
 11 12  2  0
 12 13  1  0
 13 14  2  0
 14 15  1  0
 15 16  2  0
 16 17  1  0
 17 18  2  0
 18 19  1  0
 19 20  1  0
 20 21  2  0
 21 22  1  0
 22 23  2  0
 10 24  1  0
 24 25  1  0
  6 26  2  0
 26  2  1  0
 25  7  1  0
 23 11  1  0
 18 13  1  0
 23 19  1  0
  3 27  1  0
  4 28  1  0
  5 29  1  0
  8 30  1  0
  8 31  1  0
  9 32  1  0
  9 33  1  0
 14 34  1  0
 15 35  1  0
 16 36  1  0
 17 37  1  0
 20 38  1  0
 21 39  1  0
 22 40  1  0
 24 41  1  0
 24 42  1  0
 25 43  1  0
 25 44  1  0
 26 45  1  0
M  END
$$$$
