
     RDKit          3D

 57 59  0  0  0  0  0  0  0  0999 V2000
    0.6326   -4.7264   -2.7692 C   0  0  0  0  0  0  0  0  0  0  0  0
   -0.6654   -4.2261   -3.1898 N   0  0  0  0  0  0  0  0  0  0  0  0
   -1.4636   -3.4880   -2.3562 C   0  0  0  0  0  0  0  0  0  0  0  0
   -3.0520   -4.0193   -2.2338 S   0  0  0  0  0  0  0  0  0  0  0  0
   -0.8896   -2.3913   -1.7099 N   0  0  0  0  0  0  0  0  0  0  0  0
   -1.6075   -1.7345   -0.5914 C   0  0  0  0  0  0  0  0  0  0  0  0
   -2.5776   -0.6244   -1.0252 C   0  0  0  0  0  0  0  0  0  0  0  0
   -3.2889   -0.0164    0.1602 C   0  0  0  0  0  0  0  0  0  0  0  0
   -2.7319    1.0666    0.8497 C   0  0  0  0  0  0  0  0  0  0  0  0
   -3.3863    1.6092    1.9569 C   0  0  0  0  0  0  0  0  0  0  0  0
   -4.6014    1.0738    2.3828 C   0  0  0  0  0  0  0  0  0  0  0  0
   -5.1787   -0.0053    1.7016 C   0  0  0  0  0  0  0  0  0  0  0  0
   -6.4700   -0.6036    2.1780 C   0  0  0  0  0  0  0  0  0  0  0  0
   -4.5069   -0.5538    0.6012 C   0  0  0  0  0  0  0  0  0  0  0  0
    0.1074   -1.5716   -2.4382 C   0  0  0  0  0  0  0  0  0  0  0  0
    1.0715   -0.8427   -1.5416 C   0  0  0  0  0  0  0  0  0  0  0  0
    0.9550    0.4666   -1.2457 C   0  0  0  0  0  0  0  0  0  0  0  0
    1.9097    1.1382   -0.3657 C   0  0  0  0  0  0  0  0  0  0  0  0
    1.7690    2.4800   -0.0177 C   0  0  0  0  0  0  0  0  0  0  0  0
    2.7121    3.0802    0.8221 C   0  0  0  0  0  0  0  0  0  0  0  0
    2.4944    4.3939    1.1632 O   0  0  0  0  0  0  0  0  0  0  0  0
    3.3602    5.2548    0.4219 C   0  0  0  0  0  0  0  0  0  0  0  0
    3.7832    2.3465    1.3582 C   0  0  0  0  0  0  0  0  0  0  0  0
    4.6184    3.0258    2.2053 O   0  0  0  0  0  0  0  0  0  0  0  0
    5.6748    2.2924    2.8147 C   0  0  0  0  0  0  0  0  0  0  0  0
    3.9191    1.0008    1.0048 C   0  0  0  0  0  0  0  0  0  0  0  0
    2.9849    0.4088    0.1485 C   0  0  0  0  0  0  0  0  0  0  0  0
    3.1187   -0.9371   -0.2068 N   0  0  0  0  0  0  0  0  0  0  0  0
    2.2552   -1.6008   -1.0381 C   0  0  0  0  0  0  0  0  0  0  0  0
    2.4761   -2.7651   -1.3552 O   0  0  0  0  0  0  0  0  0  0  0  0
    1.4126   -4.2116   -3.3327 H   0  0  0  0  0  0  0  0  0  0  0  0
    0.7650   -4.6079   -1.6917 H   0  0  0  0  0  0  0  0  0  0  0  0
    0.6804   -5.7922   -3.0133 H   0  0  0  0  0  0  0  0  0  0  0  0
   -1.2190   -4.9357   -3.6592 H   0  0  0  0  0  0  0  0  0  0  0  0
   -2.1483   -2.5002   -0.0222 H   0  0  0  0  0  0  0  0  0  0  0  0
   -0.8647   -1.3443    0.1132 H   0  0  0  0  0  0  0  0  0  0  0  0
   -3.3190   -1.0020   -1.7387 H   0  0  0  0  0  0  0  0  0  0  0  0
   -2.0486    0.1681   -1.5648 H   0  0  0  0  0  0  0  0  0  0  0  0
   -1.7839    1.4935    0.5351 H   0  0  0  0  0  0  0  0  0  0  0  0
   -2.9478    2.4484    2.4910 H   0  0  0  0  0  0  0  0  0  0  0  0
   -5.0970    1.5038    3.2511 H   0  0  0  0  0  0  0  0  0  0  0  0
   -7.1351    0.1715    2.5728 H   0  0  0  0  0  0  0  0  0  0  0  0
   -7.0016   -1.0984    1.3567 H   0  0  0  0  0  0  0  0  0  0  0  0
   -6.2739   -1.3392    2.9651 H   0  0  0  0  0  0  0  0  0  0  0  0
   -4.9361   -1.4082    0.0798 H   0  0  0  0  0  0  0  0  0  0  0  0
    0.6539   -2.1520   -3.1842 H   0  0  0  0  0  0  0  0  0  0  0  0
   -0.4728   -0.8534   -3.0326 H   0  0  0  0  0  0  0  0  0  0  0  0
    0.1330    1.0571   -1.6333 H   0  0  0  0  0  0  0  0  0  0  0  0
    0.9366    3.0718   -0.3859 H   0  0  0  0  0  0  0  0  0  0  0  0
    4.4059    5.1278    0.7181 H   0  0  0  0  0  0  0  0  0  0  0  0
    3.0707    6.2869    0.6463 H   0  0  0  0  0  0  0  0  0  0  0  0
    3.2495    5.0976   -0.6570 H   0  0  0  0  0  0  0  0  0  0  0  0
    6.3796    1.9192    2.0626 H   0  0  0  0  0  0  0  0  0  0  0  0
    5.2864    1.4772    3.4343 H   0  0  0  0  0  0  0  0  0  0  0  0
    6.2207    2.9763    3.4711 H   0  0  0  0  0  0  0  0  0  0  0  0
    4.7328    0.3970    1.3874 H   0  0  0  0  0  0  0  0  0  0  0  0
    3.8986   -1.4823    0.1329 H   0  0  0  0  0  0  0  0  0  0  0  0
  1  2  1  0
  2  3  1  0
  3  4  2  0
  3  5  1  0
  5  6  1  0
  6  7  1  0
  7  8  1  0
  8  9  2  0
  9 10  1  0
 10 11  2  0
 11 12  1  0
 12 13  1  0
 12 14  2  0
  5 15  1  0
 15 16  1  0
 16 17  2  0
 17 18  1  0
 18 19  2  0
 19 20  1  0
 20 21  1  0
 21 22  1  0
 20 23  2  0
 23 24  1  0
 24 25  1  0
 23 26  1  0
 26 27  2  0
 27 28  1  0
 28 29  1  0
 29 30  2  0
 14  8  1  0
 29 16  1  0
 27 18  1  0
  1 31  1  0
  1 32  1  0
  1 33  1  0
  2 34  1  0
  6 35  1  0
  6 36  1  0
  7 37  1  0
  7 38  1  0
  9 39  1  0
 10 40  1  0
 11 41  1  0
 13 42  1  0
 13 43  1  0
 13 44  1  0
 14 45  1  0
 15 46  1  0
 15 47  1  0
 17 48  1  0
 19 49  1  0
 22 50  1  0
 22 51  1  0
 22 52  1  0
 25 53  1  0
 25 54  1  0
 25 55  1  0
 26 56  1  0
 28 57  1  0
M  END
$$$$
