
     RDKit          3D

 43 45  0  0  0  0  0  0  0  0999 V2000
    7.4638   -1.6993   -1.8734 O   0  0  0  0  0  0  0  0  0  0  0  0
    8.0332   -1.0367   -1.0231 C   0  0  0  0  0  0  0  0  0  0  0  0
    9.3752   -1.1265   -0.8904 O   0  0  0  0  0  0  0  0  0  0  0  0
    7.4417   -0.0405   -0.0559 C   0  0  0  0  0  0  0  0  0  0  0  0
    5.9340   -0.0711    0.0144 C   0  0  0  0  0  0  0  0  0  0  0  0
    5.1605    0.5493   -0.9727 C   0  0  0  0  0  0  0  0  0  0  0  0
    3.7641    0.5107   -0.9073 C   0  0  0  0  0  0  0  0  0  0  0  0
    3.1131   -0.1496    0.1417 C   0  0  0  0  0  0  0  0  0  0  0  0
    1.7022   -0.1362    0.1347 N   0  0  0  0  0  0  0  0  0  0  0  0
    0.8519   -0.7672    1.0244 C   0  0  0  0  0  0  0  0  0  0  0  0
    1.1670   -1.5047    1.9505 O   0  0  0  0  0  0  0  0  0  0  0  0
   -0.6000   -0.5360    0.7763 C   0  0  0  0  0  0  0  0  0  0  0  0
   -1.0876    0.6872    0.3057 C   0  0  0  0  0  0  0  0  0  0  0  0
   -2.4608    0.8616    0.0858 C   0  0  0  0  0  0  0  0  0  0  0  0
   -3.3616   -0.1750    0.3414 C   0  0  0  0  0  0  0  0  0  0  0  0
   -4.7563   -0.0823    0.1483 N   0  0  0  0  0  0  0  0  0  0  0  0
   -5.4781    0.9891   -0.3648 C   0  0  0  0  0  0  0  0  0  0  0  0
   -4.9683    2.0344   -0.7577 O   0  0  0  0  0  0  0  0  0  0  0  0
   -6.9193    0.7658   -0.4106 C   0  0  0  0  0  0  0  0  0  0  0  0
   -7.7471   -0.2662    0.0059 C   0  0  0  0  0  0  0  0  0  0  0  0
   -9.0754    0.1087   -0.3191 C   0  0  0  0  0  0  0  0  0  0  0  0
   -8.9879    1.3434   -0.9119 C   0  0  0  0  0  0  0  0  0  0  0  0
   -7.6964    1.7489   -0.9715 O   0  0  0  0  0  0  0  0  0  0  0  0
   -2.8681   -1.3903    0.8346 C   0  0  0  0  0  0  0  0  0  0  0  0
   -1.4986   -1.5699    1.0547 C   0  0  0  0  0  0  0  0  0  0  0  0
    3.8838   -0.7688    1.1250 C   0  0  0  0  0  0  0  0  0  0  0  0
    5.2820   -0.7343    1.0605 C   0  0  0  0  0  0  0  0  0  0  0  0
    9.6302   -1.7890   -1.5671 H   0  0  0  0  0  0  0  0  0  0  0  0
    7.7689    0.9634   -0.3511 H   0  0  0  0  0  0  0  0  0  0  0  0
    7.8549   -0.2407    0.9402 H   0  0  0  0  0  0  0  0  0  0  0  0
    5.6380    1.0598   -1.8064 H   0  0  0  0  0  0  0  0  0  0  0  0
    3.1970    1.0006   -1.6943 H   0  0  0  0  0  0  0  0  0  0  0  0
    1.2777    0.3373   -0.6515 H   0  0  0  0  0  0  0  0  0  0  0  0
   -0.4240    1.5303    0.1324 H   0  0  0  0  0  0  0  0  0  0  0  0
   -2.7912    1.8318   -0.2733 H   0  0  0  0  0  0  0  0  0  0  0  0
   -5.2837   -0.9055    0.3977 H   0  0  0  0  0  0  0  0  0  0  0  0
   -7.4484   -1.1835    0.4919 H   0  0  0  0  0  0  0  0  0  0  0  0
   -9.9838   -0.4499   -0.1411 H   0  0  0  0  0  0  0  0  0  0  0  0
   -9.7126    2.0324   -1.3239 H   0  0  0  0  0  0  0  0  0  0  0  0
   -3.5371   -2.2179    1.0575 H   0  0  0  0  0  0  0  0  0  0  0  0
   -1.1335   -2.5195    1.4422 H   0  0  0  0  0  0  0  0  0  0  0  0
    3.4285   -1.2913    1.9604 H   0  0  0  0  0  0  0  0  0  0  0  0
    5.8520   -1.2340    1.8411 H   0  0  0  0  0  0  0  0  0  0  0  0
  1  2  2  0
  2  3  1  0
  2  4  1  0
  4  5  1  0
  5  6  2  0
  6  7  1  0
  7  8  2  0
  8  9  1  0
  9 10  1  0
 10 11  2  0
 10 12  1  0
 12 13  2  0
 13 14  1  0
 14 15  2  0
 15 16  1  0
 16 17  1  0
 17 18  2  0
 17 19  1  0
 19 20  2  0
 20 21  1  0
 21 22  2  0
 22 23  1  0
 15 24  1  0
 24 25  2  0
  8 26  1  0
 26 27  2  0
 27  5  1  0
 25 12  1  0
 23 19  1  0
  3 28  1  0
  4 29  1  0
  4 30  1  0
  6 31  1  0
  7 32  1  0
  9 33  1  0
 13 34  1  0
 14 35  1  0
 16 36  1  0
 20 37  1  0
 21 38  1  0
 22 39  1  0
 24 40  1  0
 25 41  1  0
 26 42  1  0
 27 43  1  0
M  END
$$$$
