
     RDKit          3D

 61 66  0  0  0  0  0  0  0  0999 V2000
    9.3456   -1.9714    1.6556 F   0  0  0  0  0  0  0  0  0  0  0  0
    8.3153   -1.2524    1.1906 C   0  0  0  0  0  0  0  0  0  0  0  0
    7.5080   -1.7816    0.1896 C   0  0  0  0  0  0  0  0  0  0  0  0
    6.4345   -1.0341   -0.2964 C   0  0  0  0  0  0  0  0  0  0  0  0
    6.1714    0.2451    0.2193 C   0  0  0  0  0  0  0  0  0  0  0  0
    4.9962    1.0472   -0.2920 C   0  0  0  0  0  0  0  0  0  0  0  0
    3.6946    0.6658    0.4342 C   0  0  0  0  0  0  0  0  0  0  0  0
    2.5516    1.5088    0.0386 N   0  0  0  0  0  0  0  0  0  0  0  0
    2.0563    1.2162   -1.3284 C   0  0  0  0  0  0  0  0  0  0  0  0
    1.3042   -0.1266   -1.4974 C   0  0  0  0  0  0  0  0  0  0  0  0
    0.2278   -0.3057   -0.4993 N   0  0  0  0  0  0  0  0  0  0  0  0
   -1.0511    0.0827   -0.8162 C   0  0  0  0  0  0  0  0  0  0  0  0
   -1.4834    1.0710   -1.6833 C   0  0  0  0  0  0  0  0  0  0  0  0
   -2.8783    1.2196   -1.5225 C   0  0  0  0  0  0  0  0  0  0  0  0
   -3.2882    0.2991   -0.5776 C   0  0  0  0  0  0  0  0  0  0  0  0
   -4.5803    0.0233    0.0131 C   0  0  0  0  0  0  0  0  0  0  0  0
   -5.7300    0.9393   -0.2077 C   0  0  0  0  0  0  0  0  0  0  0  0
   -6.9761    0.3905   -0.5331 C   0  0  0  0  0  0  0  0  0  0  0  0
   -8.0752    1.2268   -0.7332 C   0  0  0  0  0  0  0  0  0  0  0  0
   -7.9346    2.6088   -0.5943 C   0  0  0  0  0  0  0  0  0  0  0  0
   -6.6989    3.1568   -0.2481 C   0  0  0  0  0  0  0  0  0  0  0  0
   -5.5959    2.3239   -0.0491 C   0  0  0  0  0  0  0  0  0  0  0  0
   -4.7631   -1.0340    0.7470 N   0  0  0  0  0  0  0  0  0  0  0  0
   -3.6859   -1.9156    0.9650 C   0  0  0  0  0  0  0  0  0  0  0  0
   -3.9356   -3.0734    1.7065 C   0  0  0  0  0  0  0  0  0  0  0  0
   -2.9247   -4.0086    1.9336 C   0  0  0  0  0  0  0  0  0  0  0  0
   -1.6539   -3.7986    1.4054 C   0  0  0  0  0  0  0  0  0  0  0  0
   -1.3837   -2.6461    0.6656 C   0  0  0  0  0  0  0  0  0  0  0  0
   -2.3892   -1.6947    0.4697 C   0  0  0  0  0  0  0  0  0  0  0  0
   -2.1993   -0.5000   -0.2692 N   0  0  0  0  0  0  0  0  0  0  0  0
    0.6818   -0.0197    0.8868 C   0  0  0  0  0  0  0  0  0  0  0  0
    1.4144    1.3396    0.9783 C   0  0  0  0  0  0  0  0  0  0  0  0
    6.9944    0.7596    1.2341 C   0  0  0  0  0  0  0  0  0  0  0  0
    8.0683    0.0104    1.7174 C   0  0  0  0  0  0  0  0  0  0  0  0
    7.7189   -2.7705   -0.2054 H   0  0  0  0  0  0  0  0  0  0  0  0
    5.8053   -1.4538   -1.0793 H   0  0  0  0  0  0  0  0  0  0  0  0
    5.1999    2.1176   -0.1607 H   0  0  0  0  0  0  0  0  0  0  0  0
    4.9119    0.8839   -1.3720 H   0  0  0  0  0  0  0  0  0  0  0  0
    3.8716    0.7988    1.5103 H   0  0  0  0  0  0  0  0  0  0  0  0
    3.4842   -0.4006    0.2909 H   0  0  0  0  0  0  0  0  0  0  0  0
    2.8726    1.2656   -2.0567 H   0  0  0  0  0  0  0  0  0  0  0  0
    1.3832    2.0358   -1.6090 H   0  0  0  0  0  0  0  0  0  0  0  0
    0.9107   -0.2074   -2.5182 H   0  0  0  0  0  0  0  0  0  0  0  0
    2.0108   -0.9573   -1.3839 H   0  0  0  0  0  0  0  0  0  0  0  0
   -0.8541    1.6829   -2.3148 H   0  0  0  0  0  0  0  0  0  0  0  0
   -3.5048    1.9416   -2.0301 H   0  0  0  0  0  0  0  0  0  0  0  0
   -7.0893   -0.6875   -0.6315 H   0  0  0  0  0  0  0  0  0  0  0  0
   -9.0410    0.8004   -0.9906 H   0  0  0  0  0  0  0  0  0  0  0  0
   -8.7931    3.2586   -0.7459 H   0  0  0  0  0  0  0  0  0  0  0  0
   -6.5978    4.2330   -0.1238 H   0  0  0  0  0  0  0  0  0  0  0  0
   -4.6452    2.7589    0.2474 H   0  0  0  0  0  0  0  0  0  0  0  0
   -4.9324   -3.2459    2.1026 H   0  0  0  0  0  0  0  0  0  0  0  0
   -3.1354   -4.9058    2.5086 H   0  0  0  0  0  0  0  0  0  0  0  0
   -0.8724   -4.5379    1.5600 H   0  0  0  0  0  0  0  0  0  0  0  0
   -0.3969   -2.5327    0.2331 H   0  0  0  0  0  0  0  0  0  0  0  0
   -0.1569   -0.0179    1.5925 H   0  0  0  0  0  0  0  0  0  0  0  0
    1.3517   -0.8270    1.2046 H   0  0  0  0  0  0  0  0  0  0  0  0
    0.6931    2.1432    0.7786 H   0  0  0  0  0  0  0  0  0  0  0  0
    1.7546    1.5029    2.0086 H   0  0  0  0  0  0  0  0  0  0  0  0
    6.8023    1.7464    1.6520 H   0  0  0  0  0  0  0  0  0  0  0  0
    8.7116    0.4028    2.4996 H   0  0  0  0  0  0  0  0  0  0  0  0
  1  2  1  0
  2  3  2  0
  3  4  1  0
  4  5  2  0
  5  6  1  0
  6  7  1  0
  7  8  1  0
  8  9  1  0
  9 10  1  0
 10 11  1  0
 11 12  1  0
 12 13  2  0
 13 14  1  0
 14 15  2  0
 15 16  1  0
 16 17  1  0
 17 18  2  0
 18 19  1  0
 19 20  2  0
 20 21  1  0
 21 22  2  0
 16 23  2  0
 23 24  1  0
 24 25  2  0
 25 26  1  0
 26 27  2  0
 27 28  1  0
 28 29  2  0
 29 30  1  0
 11 31  1  0
 31 32  1  0
  5 33  1  0
 33 34  2  0
 34  2  1  0
 32  8  1  0
 30 12  1  0
 30 15  1  0
 22 17  1  0
 29 24  1  0
  3 35  1  0
  4 36  1  0
  6 37  1  0
  6 38  1  0
  7 39  1  0
  7 40  1  0
  9 41  1  0
  9 42  1  0
 10 43  1  0
 10 44  1  0
 13 45  1  0
 14 46  1  0
 18 47  1  0
 19 48  1  0
 20 49  1  0
 21 50  1  0
 22 51  1  0
 25 52  1  0
 26 53  1  0
 27 54  1  0
 28 55  1  0
 31 56  1  0
 31 57  1  0
 32 58  1  0
 32 59  1  0
 33 60  1  0
 34 61  1  0
M  END
$$$$
