
     RDKit          3D

 63 65  0  0  0  0  0  0  0  0999 V2000
    3.9190    4.1890   -1.5113 C   0  0  0  0  0  0  0  0  0  0  0  0
    3.4802    2.9027   -1.0965 O   0  0  0  0  0  0  0  0  0  0  0  0
    2.8389    2.8217    0.1050 C   0  0  0  0  0  0  0  0  0  0  0  0
    2.5718    3.8861    0.9610 C   0  0  0  0  0  0  0  0  0  0  0  0
    1.9140    3.6613    2.1726 C   0  0  0  0  0  0  0  0  0  0  0  0
    1.5079    2.3772    2.5294 C   0  0  0  0  0  0  0  0  0  0  0  0
    1.7463    1.2987    1.6677 C   0  0  0  0  0  0  0  0  0  0  0  0
    1.2817   -0.0968    2.0203 C   0  0  0  0  0  0  0  0  0  0  0  0
    0.3365   -0.6219    1.0326 N   0  0  0  0  0  0  0  0  0  0  0  0
   -0.9969   -0.0098    0.9959 C   0  0  0  0  0  0  0  0  0  0  0  0
   -1.9536   -0.6253    2.0277 C   0  0  0  0  0  0  0  0  0  0  0  0
   -1.5840   -1.2968    2.9862 O   0  0  0  0  0  0  0  0  0  0  0  0
   -3.2785   -0.3199    1.7964 N   0  0  0  0  0  0  0  0  0  0  0  0
   -4.3376   -0.9138    2.5990 C   0  0  0  0  0  0  0  0  0  0  0  0
   -5.6585   -0.1581    2.4453 C   0  0  0  0  0  0  0  0  0  0  0  0
   -5.6613    1.2279    3.0711 C   0  0  0  0  0  0  0  0  0  0  0  0
   -6.7223    1.9239    2.2540 C   0  0  0  0  0  0  0  0  0  0  0  0
   -6.4371    1.3796    0.8712 C   0  0  0  0  0  0  0  0  0  0  0  0
   -5.9555    0.0341    1.0437 O   0  0  0  0  0  0  0  0  0  0  0  0
    0.6605   -1.7895    0.3610 C   0  0  0  0  0  0  0  0  0  0  0  0
    1.7241   -2.3833    0.5345 O   0  0  0  0  0  0  0  0  0  0  0  0
   -0.3494   -2.3104   -0.6493 C   0  0  0  0  0  0  0  0  0  0  0  0
    0.1407   -3.5501   -1.3896 C   0  0  0  0  0  0  0  0  0  0  0  0
    1.1458   -3.1789   -2.4663 C   0  0  0  0  0  0  0  0  0  0  0  0
    0.7853   -3.0033   -3.6207 O   0  0  0  0  0  0  0  0  0  0  0  0
    2.4231   -3.0534   -2.0008 N   0  0  0  0  0  0  0  0  0  0  0  0
    3.5264   -2.7230   -2.7536 C   0  0  0  0  0  0  0  0  0  0  0  0
    3.6151   -2.4572   -4.1405 C   0  0  0  0  0  0  0  0  0  0  0  0
    4.9456   -2.1677   -4.3466 C   0  0  0  0  0  0  0  0  0  0  0  0
    5.7471   -1.7989   -5.5254 C   0  0  0  0  0  0  0  0  0  0  0  0
    5.6192   -2.2793   -3.1650 O   0  0  0  0  0  0  0  0  0  0  0  0
    4.7265   -2.6170   -2.1658 N   0  0  0  0  0  0  0  0  0  0  0  0
    2.4260    1.5353    0.4629 C   0  0  0  0  0  0  0  0  0  0  0  0
    4.6775    4.5912   -0.8292 H   0  0  0  0  0  0  0  0  0  0  0  0
    4.3785    4.0859   -2.4955 H   0  0  0  0  0  0  0  0  0  0  0  0
    3.0770    4.8739   -1.6167 H   0  0  0  0  0  0  0  0  0  0  0  0
    2.8614    4.9021    0.7200 H   0  0  0  0  0  0  0  0  0  0  0  0
    1.7031    4.5010    2.8283 H   0  0  0  0  0  0  0  0  0  0  0  0
    0.9968    2.2218    3.4754 H   0  0  0  0  0  0  0  0  0  0  0  0
    0.7882   -0.1200    3.0003 H   0  0  0  0  0  0  0  0  0  0  0  0
    2.1680   -0.7306    2.1084 H   0  0  0  0  0  0  0  0  0  0  0  0
   -1.4308   -0.1179    0.0011 H   0  0  0  0  0  0  0  0  0  0  0  0
   -0.9215    1.0611    1.1979 H   0  0  0  0  0  0  0  0  0  0  0  0
   -3.5546   -0.0356    0.8674 H   0  0  0  0  0  0  0  0  0  0  0  0
   -4.0277   -0.9475    3.6492 H   0  0  0  0  0  0  0  0  0  0  0  0
   -4.4464   -1.9432    2.2380 H   0  0  0  0  0  0  0  0  0  0  0  0
   -6.4752   -0.7542    2.8707 H   0  0  0  0  0  0  0  0  0  0  0  0
   -4.6979    1.7337    2.9134 H   0  0  0  0  0  0  0  0  0  0  0  0
   -5.8738    1.2202    4.1468 H   0  0  0  0  0  0  0  0  0  0  0  0
   -7.7188    1.6142    2.5928 H   0  0  0  0  0  0  0  0  0  0  0  0
   -6.6670    3.0152    2.3037 H   0  0  0  0  0  0  0  0  0  0  0  0
   -7.3144    1.3851    0.2257 H   0  0  0  0  0  0  0  0  0  0  0  0
   -5.6383    1.9439    0.3780 H   0  0  0  0  0  0  0  0  0  0  0  0
   -1.2628   -2.5726   -0.1061 H   0  0  0  0  0  0  0  0  0  0  0  0
   -0.5724   -1.5177   -1.3704 H   0  0  0  0  0  0  0  0  0  0  0  0
   -0.7025   -4.0361   -1.8907 H   0  0  0  0  0  0  0  0  0  0  0  0
    0.5714   -4.2933   -0.7118 H   0  0  0  0  0  0  0  0  0  0  0  0
    2.6016   -3.1038   -1.0005 H   0  0  0  0  0  0  0  0  0  0  0  0
    2.8286   -2.4596   -4.8824 H   0  0  0  0  0  0  0  0  0  0  0  0
    6.4086   -2.6280   -5.8094 H   0  0  0  0  0  0  0  0  0  0  0  0
    6.3679   -0.9177   -5.3140 H   0  0  0  0  0  0  0  0  0  0  0  0
    5.1006   -1.5653   -6.3803 H   0  0  0  0  0  0  0  0  0  0  0  0
    2.6279    0.7106   -0.2163 H   0  0  0  0  0  0  0  0  0  0  0  0
  1  2  1  0
  2  3  1  0
  3  4  2  0
  4  5  1  0
  5  6  2  0
  6  7  1  0
  7  8  1  0
  8  9  1  0
  9 10  1  0
 10 11  1  0
 11 12  2  0
 11 13  1  0
 13 14  1  0
 14 15  1  0
 15 16  1  0
 16 17  1  0
 17 18  1  0
 18 19  1  0
  9 20  1  0
 20 21  2  0
 20 22  1  0
 22 23  1  0
 23 24  1  0
 24 25  2  0
 24 26  1  0
 26 27  1  0
 27 28  1  0
 28 29  2  0
 29 30  1  0
 29 31  1  0
 31 32  1  0
  7 33  2  0
 33  3  1  0
 19 15  1  0
 32 27  2  0
  1 34  1  0
  1 35  1  0
  1 36  1  0
  4 37  1  0
  5 38  1  0
  6 39  1  0
  8 40  1  0
  8 41  1  0
 10 42  1  0
 10 43  1  0
 13 44  1  0
 14 45  1  0
 14 46  1  0
 15 47  1  0
 16 48  1  0
 16 49  1  0
 17 50  1  0
 17 51  1  0
 18 52  1  0
 18 53  1  0
 22 54  1  0
 22 55  1  0
 23 56  1  0
 23 57  1  0
 26 58  1  0
 28 59  1  0
 30 60  1  0
 30 61  1  0
 30 62  1  0
 33 63  1  0
M  END
$$$$
