
     RDKit          3D

 58 63  0  0  0  0  0  0  0  0999 V2000
    8.1185   -0.6149    0.6315 C   0  0  0  0  0  0  0  0  0  0  0  0
    6.6643   -0.9279    0.7183 C   0  0  0  0  0  0  0  0  0  0  0  0
    5.8536   -0.9443    1.8343 C   0  0  0  0  0  0  0  0  0  0  0  0
    4.5104   -1.3021    1.5189 C   0  0  0  0  0  0  0  0  0  0  0  0
    4.3344   -1.5273    0.1672 C   0  0  0  0  0  0  0  0  0  0  0  0
    3.1322   -1.9210   -0.5474 C   0  0  0  0  0  0  0  0  0  0  0  0
    3.0703   -2.9903   -1.1552 O   0  0  0  0  0  0  0  0  0  0  0  0
    2.0320   -1.0419   -0.5194 N   0  0  0  0  0  0  0  0  0  0  0  0
    2.0241    0.2281    0.1979 C   0  0  0  0  0  0  0  0  0  0  0  0
    1.1407    1.2619   -0.4894 C   0  0  0  0  0  0  0  0  0  0  0  0
   -0.3076    0.7824   -0.7786 C   0  0  0  0  0  0  0  0  0  0  0  0
   -0.1846   -0.5680   -1.5281 C   0  0  0  0  0  0  0  0  0  0  0  0
    0.7316   -1.5940   -0.8740 C   0  0  0  0  0  0  0  0  0  0  0  0
   -0.8941    1.6791   -1.7692 O   0  0  0  0  0  0  0  0  0  0  0  0
   -1.2691    2.9140   -1.3205 C   0  0  0  0  0  0  0  0  0  0  0  0
   -1.4561    3.8944   -2.2937 C   0  0  0  0  0  0  0  0  0  0  0  0
   -1.8233    5.1891   -1.9186 C   0  0  0  0  0  0  0  0  0  0  0  0
   -2.0077    5.4971   -0.5702 C   0  0  0  0  0  0  0  0  0  0  0  0
   -2.4578    7.0932   -0.1152 Cl  0  0  0  0  0  0  0  0  0  0  0  0
   -1.8381    4.5203    0.4075 C   0  0  0  0  0  0  0  0  0  0  0  0
   -1.4786    3.2253    0.0217 C   0  0  0  0  0  0  0  0  0  0  0  0
   -1.3325    2.1556    1.0267 C   0  0  0  0  0  0  0  0  0  0  0  0
   -1.3290    2.4426    2.2190 O   0  0  0  0  0  0  0  0  0  0  0  0
   -1.2389    0.7368    0.4690 C   0  0  0  0  0  0  0  0  0  0  0  0
   -2.6663    0.2620    0.2068 C   0  0  0  0  0  0  0  0  0  0  0  0
   -2.6137   -1.0622    0.8804 C   0  0  0  0  0  0  0  0  0  0  0  0
   -3.7055   -2.0545    0.7481 C   0  0  0  0  0  0  0  0  0  0  0  0
   -3.5425   -3.3219    1.3213 C   0  0  0  0  0  0  0  0  0  0  0  0
   -4.5507   -4.2806    1.2069 C   0  0  0  0  0  0  0  0  0  0  0  0
   -5.7259   -3.9777    0.5220 C   0  0  0  0  0  0  0  0  0  0  0  0
   -5.8958   -2.7164   -0.0476 C   0  0  0  0  0  0  0  0  0  0  0  0
   -4.8890   -1.7537    0.0639 C   0  0  0  0  0  0  0  0  0  0  0  0
   -1.5491   -1.2702    1.5843 N   0  0  0  0  0  0  0  0  0  0  0  0
   -0.7329   -0.1220    1.4894 O   0  0  0  0  0  0  0  0  0  0  0  0
    5.7986   -1.3508   -0.6971 S   0  0  0  0  0  0  0  0  0  0  0  0
    8.6794   -1.4763    0.2544 H   0  0  0  0  0  0  0  0  0  0  0  0
    8.2938    0.2362   -0.0349 H   0  0  0  0  0  0  0  0  0  0  0  0
    8.5223   -0.3573    1.6162 H   0  0  0  0  0  0  0  0  0  0  0  0
    6.2072   -0.7218    2.8342 H   0  0  0  0  0  0  0  0  0  0  0  0
    3.7137   -1.3957    2.2476 H   0  0  0  0  0  0  0  0  0  0  0  0
    1.7036    0.0370    1.2261 H   0  0  0  0  0  0  0  0  0  0  0  0
    3.0359    0.6411    0.2465 H   0  0  0  0  0  0  0  0  0  0  0  0
    1.6089    1.5356   -1.4464 H   0  0  0  0  0  0  0  0  0  0  0  0
    1.1521    2.1853    0.1000 H   0  0  0  0  0  0  0  0  0  0  0  0
   -1.1689   -1.0130   -1.7102 H   0  0  0  0  0  0  0  0  0  0  0  0
    0.2110   -0.3630   -2.5344 H   0  0  0  0  0  0  0  0  0  0  0  0
    0.8495   -2.4374   -1.5633 H   0  0  0  0  0  0  0  0  0  0  0  0
    0.2981   -2.0106    0.0374 H   0  0  0  0  0  0  0  0  0  0  0  0
   -1.3043    3.6571   -3.3444 H   0  0  0  0  0  0  0  0  0  0  0  0
   -1.9599    5.9525   -2.6811 H   0  0  0  0  0  0  0  0  0  0  0  0
   -1.9916    4.7592    1.4577 H   0  0  0  0  0  0  0  0  0  0  0  0
   -2.9144    0.1765   -0.8535 H   0  0  0  0  0  0  0  0  0  0  0  0
   -3.4256    0.8770    0.7029 H   0  0  0  0  0  0  0  0  0  0  0  0
   -2.6310   -3.5724    1.8609 H   0  0  0  0  0  0  0  0  0  0  0  0
   -4.4176   -5.2628    1.6541 H   0  0  0  0  0  0  0  0  0  0  0  0
   -6.5111   -4.7250    0.4349 H   0  0  0  0  0  0  0  0  0  0  0  0
   -6.8163   -2.4827   -0.5776 H   0  0  0  0  0  0  0  0  0  0  0  0
   -5.0568   -0.7795   -0.3849 H   0  0  0  0  0  0  0  0  0  0  0  0
  1  2  1  0
  2  3  2  0
  3  4  1  0
  4  5  2  0
  5  6  1  0
  6  7  2  0
  6  8  1  0
  8  9  1  0
  9 10  1  0
 10 11  1  0
 11 12  1  0
 12 13  1  0
 11 14  1  0
 14 15  1  0
 15 16  2  0
 16 17  1  0
 17 18  2  0
 18 19  1  0
 18 20  1  0
 20 21  2  0
 21 22  1  0
 22 23  2  0
 22 24  1  0
 24 25  1  0
 25 26  1  0
 26 27  1  0
 27 28  2  0
 28 29  1  0
 29 30  2  0
 30 31  1  0
 31 32  2  0
 26 33  2  0
 33 34  1  0
  5 35  1  0
 35  2  1  0
 13  8  1  0
 21 15  1  0
 34 24  1  0
 24 11  1  0
 32 27  1  0
  1 36  1  0
  1 37  1  0
  1 38  1  0
  3 39  1  0
  4 40  1  0
  9 41  1  0
  9 42  1  0
 10 43  1  0
 10 44  1  0
 12 45  1  0
 12 46  1  0
 13 47  1  0
 13 48  1  0
 16 49  1  0
 17 50  1  0
 20 51  1  0
 25 52  1  0
 25 53  1  0
 28 54  1  0
 29 55  1  0
 30 56  1  0
 31 57  1  0
 32 58  1  0
M  END
$$$$
