
     RDKit          3D

 36 37  0  0  0  0  0  0  0  0999 V2000
   -7.0455   -0.7202    0.9091 C   0  0  0  0  0  0  0  0  0  0  0  0
   -6.4293    0.3130    0.1508 O   0  0  0  0  0  0  0  0  0  0  0  0
   -5.0645    0.3804    0.1886 C   0  0  0  0  0  0  0  0  0  0  0  0
   -4.2193   -0.4721    0.9000 C   0  0  0  0  0  0  0  0  0  0  0  0
   -2.8306   -0.2911    0.8517 C   0  0  0  0  0  0  0  0  0  0  0  0
   -2.2759    0.7458    0.0899 C   0  0  0  0  0  0  0  0  0  0  0  0
   -0.8089    0.9814    0.0043 C   0  0  0  0  0  0  0  0  0  0  0  0
   -0.3076    1.8864   -0.6434 O   0  0  0  0  0  0  0  0  0  0  0  0
   -0.1329    0.0552    0.7295 O   0  0  0  0  0  0  0  0  0  0  0  0
    1.2983    0.1962    0.7307 C   0  0  0  0  0  0  0  0  0  0  0  0
    1.9017   -0.4579   -0.5112 C   0  0  0  0  0  0  0  0  0  0  0  0
    3.4070   -0.3968   -0.5060 C   0  0  0  0  0  0  0  0  0  0  0  0
    4.0675    0.7522   -0.9633 C   0  0  0  0  0  0  0  0  0  0  0  0
    5.4610    0.8204   -0.9419 C   0  0  0  0  0  0  0  0  0  0  0  0
    6.1958   -0.2564   -0.4617 C   0  0  0  0  0  0  0  0  0  0  0  0
    7.5550   -0.1477   -0.4588 O   0  0  0  0  0  0  0  0  0  0  0  0
    5.5595   -1.4038    0.0005 C   0  0  0  0  0  0  0  0  0  0  0  0
    4.1644   -1.4720   -0.0202 C   0  0  0  0  0  0  0  0  0  0  0  0
   -3.1263    1.5992   -0.6219 C   0  0  0  0  0  0  0  0  0  0  0  0
   -4.5106    1.4142   -0.5705 C   0  0  0  0  0  0  0  0  0  0  0  0
   -8.1279   -0.6345    0.7731 H   0  0  0  0  0  0  0  0  0  0  0  0
   -6.7418   -1.7087    0.5490 H   0  0  0  0  0  0  0  0  0  0  0  0
   -6.8339   -0.6056    1.9773 H   0  0  0  0  0  0  0  0  0  0  0  0
   -4.6057   -1.2876    1.5027 H   0  0  0  0  0  0  0  0  0  0  0  0
   -2.1956   -0.9693    1.4166 H   0  0  0  0  0  0  0  0  0  0  0  0
    1.6618   -0.3041    1.6358 H   0  0  0  0  0  0  0  0  0  0  0  0
    1.5840    1.2517    0.8230 H   0  0  0  0  0  0  0  0  0  0  0  0
    1.5179    0.0171   -1.4227 H   0  0  0  0  0  0  0  0  0  0  0  0
    1.5653   -1.5006   -0.5790 H   0  0  0  0  0  0  0  0  0  0  0  0
    3.4995    1.6010   -1.3397 H   0  0  0  0  0  0  0  0  0  0  0  0
    5.9704    1.7108   -1.2988 H   0  0  0  0  0  0  0  0  0  0  0  0
    7.9298   -0.9726   -0.1101 H   0  0  0  0  0  0  0  0  0  0  0  0
    6.1267   -2.2484    0.3782 H   0  0  0  0  0  0  0  0  0  0  0  0
    3.6716   -2.3707    0.3441 H   0  0  0  0  0  0  0  0  0  0  0  0
   -2.7181    2.4119   -1.2198 H   0  0  0  0  0  0  0  0  0  0  0  0
   -5.1631    2.0829   -1.1275 H   0  0  0  0  0  0  0  0  0  0  0  0
  1  2  1  0
  2  3  1  0
  3  4  2  0
  4  5  1  0
  5  6  2  0
  6  7  1  0
  7  8  2  0
  7  9  1  0
  9 10  1  0
 10 11  1  0
 11 12  1  0
 12 13  2  0
 13 14  1  0
 14 15  2  0
 15 16  1  0
 15 17  1  0
 17 18  2  0
  6 19  1  0
 19 20  2  0
 20  3  1  0
 18 12  1  0
  1 21  1  0
  1 22  1  0
  1 23  1  0
  4 24  1  0
  5 25  1  0
 10 26  1  0
 10 27  1  0
 11 28  1  0
 11 29  1  0
 13 30  1  0
 14 31  1  0
 16 32  1  0
 17 33  1  0
 18 34  1  0
 19 35  1  0
 20 36  1  0
M  END
$$$$
