
     RDKit          3D

 38 39  0  0  0  0  0  0  0  0999 V2000
   -3.0608    3.3295    1.8726 C   0  0  0  0  0  0  0  0  0  0  0  0
   -3.6012    2.1295    1.6220 C   0  0  0  0  0  0  0  0  0  0  0  0
   -3.3058    0.8850    2.4107 C   0  0  0  0  0  0  0  0  0  0  0  0
   -2.7119   -0.2074    1.5529 C   0  0  0  0  0  0  0  0  0  0  0  0
   -3.5107   -1.2418    1.0566 C   0  0  0  0  0  0  0  0  0  0  0  0
   -2.9509   -2.2422    0.2641 C   0  0  0  0  0  0  0  0  0  0  0  0
   -1.5892   -2.2037   -0.0463 C   0  0  0  0  0  0  0  0  0  0  0  0
   -1.0546   -3.2204   -0.7961 O   0  0  0  0  0  0  0  0  0  0  0  0
   -0.7513   -1.1727    0.4120 C   0  0  0  0  0  0  0  0  0  0  0  0
    0.6892   -1.0665    0.0670 C   0  0  0  0  0  0  0  0  0  0  0  0
    1.1832    0.1476   -0.4583 C   0  0  0  0  0  0  0  0  0  0  0  0
    2.5466    0.3412   -0.7448 C   0  0  0  0  0  0  0  0  0  0  0  0
    3.0331    1.6505   -1.3190 C   0  0  0  0  0  0  0  0  0  0  0  0
    3.1595    1.6046   -2.8155 C   0  0  0  0  0  0  0  0  0  0  0  0
    4.2970    1.8301   -3.4862 C   0  0  0  0  0  0  0  0  0  0  0  0
    3.4423   -0.7070   -0.5128 C   0  0  0  0  0  0  0  0  0  0  0  0
    2.9830   -1.9200   -0.0061 C   0  0  0  0  0  0  0  0  0  0  0  0
    1.6259   -2.0970    0.2652 C   0  0  0  0  0  0  0  0  0  0  0  0
    1.2753   -3.3376    0.7283 O   0  0  0  0  0  0  0  0  0  0  0  0
   -1.3455   -0.1832    1.2220 C   0  0  0  0  0  0  0  0  0  0  0  0
   -2.3527    3.4802    2.6816 H   0  0  0  0  0  0  0  0  0  0  0  0
   -3.3179    4.1914    1.2644 H   0  0  0  0  0  0  0  0  0  0  0  0
   -4.3072    2.0316    0.7998 H   0  0  0  0  0  0  0  0  0  0  0  0
   -2.6236    1.0943    3.2447 H   0  0  0  0  0  0  0  0  0  0  0  0
   -4.2370    0.5308    2.8702 H   0  0  0  0  0  0  0  0  0  0  0  0
   -4.5719   -1.2790    1.2926 H   0  0  0  0  0  0  0  0  0  0  0  0
   -3.5855   -3.0485   -0.0914 H   0  0  0  0  0  0  0  0  0  0  0  0
   -1.7806   -3.6819   -1.2509 H   0  0  0  0  0  0  0  0  0  0  0  0
    0.4875    0.9634   -0.6525 H   0  0  0  0  0  0  0  0  0  0  0  0
    3.9880    1.9153   -0.8471 H   0  0  0  0  0  0  0  0  0  0  0  0
    2.3362    2.4537   -1.0489 H   0  0  0  0  0  0  0  0  0  0  0  0
    2.2551    1.3735   -3.3752 H   0  0  0  0  0  0  0  0  0  0  0  0
    4.3200    1.7796   -4.5705 H   0  0  0  0  0  0  0  0  0  0  0  0
    5.2257    2.0632   -2.9749 H   0  0  0  0  0  0  0  0  0  0  0  0
    4.5000   -0.5876   -0.7350 H   0  0  0  0  0  0  0  0  0  0  0  0
    3.6780   -2.7371    0.1660 H   0  0  0  0  0  0  0  0  0  0  0  0
    0.3621   -3.4888    0.4157 H   0  0  0  0  0  0  0  0  0  0  0  0
   -0.7294    0.6274    1.6114 H   0  0  0  0  0  0  0  0  0  0  0  0
  1  2  2  0
  2  3  1  0
  3  4  1  0
  4  5  2  0
  5  6  1  0
  6  7  2  0
  7  8  1  0
  7  9  1  0
  9 10  1  0
 10 11  2  0
 11 12  1  0
 12 13  1  0
 13 14  1  0
 14 15  2  0
 12 16  2  0
 16 17  1  0
 17 18  2  0
 18 19  1  0
  9 20  2  0
 20  4  1  0
 18 10  1  0
  1 21  1  0
  1 22  1  0
  2 23  1  0
  3 24  1  0
  3 25  1  0
  5 26  1  0
  6 27  1  0
  8 28  1  0
 11 29  1  0
 13 30  1  0
 13 31  1  0
 14 32  1  0
 15 33  1  0
 15 34  1  0
 16 35  1  0
 17 36  1  0
 19 37  1  0
 20 38  1  0
M  END
$$$$
