
     RDKit          3D

 42 44  0  0  0  0  0  0  0  0999 V2000
   -4.2253   -2.0825   -0.6017 C   0  0  0  0  0  0  0  0  0  0  0  0
   -4.0968   -0.9094    0.3710 C   0  0  0  0  0  0  0  0  0  0  0  0
   -4.1241   -1.3818    1.8253 C   0  0  0  0  0  0  0  0  0  0  0  0
   -2.9074   -0.1020    0.0885 N   0  0  0  0  0  0  0  0  0  0  0  0
   -1.6149   -0.5689    0.1673 C   0  0  0  0  0  0  0  0  0  0  0  0
   -0.7599    0.4577   -0.1652 C   0  0  0  0  0  0  0  0  0  0  0  0
    0.6687    0.3885   -0.2130 C   0  0  0  0  0  0  0  0  0  0  0  0
    1.4221   -0.6639    0.1505 C   0  0  0  0  0  0  0  0  0  0  0  0
    2.8871   -0.6742    0.0837 C   0  0  0  0  0  0  0  0  0  0  0  0
    3.6129   -1.2256    1.1374 C   0  0  0  0  0  0  0  0  0  0  0  0
    5.0012   -1.2585    1.0747 C   0  0  0  0  0  0  0  0  0  0  0  0
    5.6540   -0.7761   -0.0065 N   0  0  0  0  0  4  0  0  0  0  0  0
    7.1259   -0.8196   -0.0351 C   0  0  0  0  0  0  0  0  0  0  0  0
    4.9709   -0.2481   -1.0461 C   0  0  0  0  0  0  0  0  0  0  0  0
    3.5818   -0.1918   -1.0247 C   0  0  0  0  0  0  0  0  0  0  0  0
   -1.5639    1.6021   -0.4614 C   0  0  0  0  0  0  0  0  0  0  0  0
   -1.2779    2.9294   -0.8557 C   0  0  0  0  0  0  0  0  0  0  0  0
   -2.3209    3.8347   -1.0729 C   0  0  0  0  0  0  0  0  0  0  0  0
   -3.6415    3.4391   -0.9034 C   0  0  0  0  0  0  0  0  0  0  0  0
   -3.9557    2.1344   -0.5133 C   0  0  0  0  0  0  0  0  0  0  0  0
   -2.9037    1.2267   -0.2956 C   0  0  0  0  0  0  0  0  0  0  0  0
   -4.2071   -1.7324   -1.6397 H   0  0  0  0  0  0  0  0  0  0  0  0
   -5.1694   -2.6140   -0.4415 H   0  0  0  0  0  0  0  0  0  0  0  0
   -3.4102   -2.8040   -0.4786 H   0  0  0  0  0  0  0  0  0  0  0  0
   -4.9688   -0.2651    0.2212 H   0  0  0  0  0  0  0  0  0  0  0  0
   -5.0630   -1.9010    2.0446 H   0  0  0  0  0  0  0  0  0  0  0  0
   -3.3014   -2.0708    2.0449 H   0  0  0  0  0  0  0  0  0  0  0  0
   -4.0394   -0.5329    2.5127 H   0  0  0  0  0  0  0  0  0  0  0  0
   -1.4240   -1.5949    0.4503 H   0  0  0  0  0  0  0  0  0  0  0  0
    1.1650    1.2895   -0.5665 H   0  0  0  0  0  0  0  0  0  0  0  0
    0.9566   -1.5654    0.5420 H   0  0  0  0  0  0  0  0  0  0  0  0
    3.1050   -1.6191    2.0164 H   0  0  0  0  0  0  0  0  0  0  0  0
    5.6003   -1.6666    1.8838 H   0  0  0  0  0  0  0  0  0  0  0  0
    7.4830   -0.6363   -1.0515 H   0  0  0  0  0  0  0  0  0  0  0  0
    7.4472   -1.8124    0.2915 H   0  0  0  0  0  0  0  0  0  0  0  0
    7.4908   -0.0452    0.6443 H   0  0  0  0  0  0  0  0  0  0  0  0
    5.5410    0.1251   -1.8923 H   0  0  0  0  0  0  0  0  0  0  0  0
    3.0503    0.2215   -1.8803 H   0  0  0  0  0  0  0  0  0  0  0  0
   -0.2523    3.2572   -0.9911 H   0  0  0  0  0  0  0  0  0  0  0  0
   -2.0972    4.8547   -1.3755 H   0  0  0  0  0  0  0  0  0  0  0  0
   -4.4440    4.1534   -1.0755 H   0  0  0  0  0  0  0  0  0  0  0  0
   -4.9949    1.8487   -0.3866 H   0  0  0  0  0  0  0  0  0  0  0  0
  1  2  1  0
  2  3  1  0
  2  4  1  0
  4  5  1  0
  5  6  2  0
  6  7  1  0
  7  8  2  3
  8  9  1  0
  9 10  2  0
 10 11  1  0
 11 12  2  0
 12 13  1  0
 12 14  1  0
 14 15  2  0
  6 16  1  0
 16 17  2  0
 17 18  1  0
 18 19  2  0
 19 20  1  0
 20 21  2  0
 21  4  1  0
 15  9  1  0
 21 16  1  0
  1 22  1  0
  1 23  1  0
  1 24  1  0
  2 25  1  0
  3 26  1  0
  3 27  1  0
  3 28  1  0
  5 29  1  0
  7 30  1  0
  8 31  1  0
 10 32  1  0
 11 33  1  0
 13 34  1  0
 13 35  1  0
 13 36  1  0
 14 37  1  0
 15 38  1  0
 17 39  1  0
 18 40  1  0
 19 41  1  0
 20 42  1  0
M  CHG  1  12   1
M  END
$$$$
