
     RDKit          3D

 49 52  0  0  0  0  0  0  0  0999 V2000
   -0.5711    1.2360   -3.6582 O   0  0  0  0  0  0  0  0  0  0  0  0
   -0.2985    1.8487   -2.6460 C   0  0  0  0  0  0  0  0  0  0  0  0
    0.8856    2.4711   -2.4890 O   0  0  0  0  0  0  0  0  0  0  0  0
   -1.1326    2.0042   -1.4380 C   0  0  0  0  0  0  0  0  0  0  0  0
   -1.3426    3.3319   -1.0116 C   0  0  0  0  0  0  0  0  0  0  0  0
   -2.2309    3.6139    0.0193 C   0  0  0  0  0  0  0  0  0  0  0  0
   -2.9408    2.5750    0.6041 C   0  0  0  0  0  0  0  0  0  0  0  0
   -2.7315    1.2517    0.1815 C   0  0  0  0  0  0  0  0  0  0  0  0
   -3.5397    0.1843    0.8118 C   0  0  0  0  0  0  0  0  0  0  0  0
   -4.2773    0.4333    1.7598 O   0  0  0  0  0  0  0  0  0  0  0  0
   -3.4560   -1.1815    0.2638 C   0  0  0  0  0  0  0  0  0  0  0  0
   -4.3541   -2.1598    0.7132 C   0  0  0  0  0  0  0  0  0  0  0  0
   -4.2938   -3.4470    0.1890 C   0  0  0  0  0  0  0  0  0  0  0  0
   -3.3469   -3.7479   -0.7850 C   0  0  0  0  0  0  0  0  0  0  0  0
   -2.4481   -2.7673   -1.2224 C   0  0  0  0  0  0  0  0  0  0  0  0
   -2.4650   -1.4691   -0.6871 C   0  0  0  0  0  0  0  0  0  0  0  0
   -1.5611   -0.4582   -1.1104 N   0  0  0  0  0  0  0  0  0  0  0  0
   -0.1307   -0.8971   -1.1993 C   0  0  0  0  0  0  0  0  0  0  0  0
    0.6608   -0.6604    0.1123 C   0  0  0  0  0  0  0  0  0  0  0  0
    0.2579   -1.6179    1.1006 O   0  0  0  0  0  0  0  0  0  0  0  0
    2.1775   -0.8173   -0.1627 C   0  0  0  0  0  0  0  0  0  0  0  0
    3.0368   -0.4314    0.9676 N   0  0  0  0  0  0  0  0  0  0  0  0
    3.0106    1.0003    1.2707 C   0  0  0  0  0  0  0  0  0  0  0  0
    4.2648    1.2199    2.1079 C   0  0  0  0  0  0  0  0  0  0  0  0
    5.1515    0.0113    1.8338 C   0  0  0  0  0  0  0  0  0  0  0  0
    4.4450   -0.7454    0.7223 C   0  0  0  0  0  0  0  0  0  0  0  0
   -1.7851    0.9174   -0.8127 C   0  0  0  0  0  0  0  0  0  0  0  0
    1.3462    2.3317   -3.3445 H   0  0  0  0  0  0  0  0  0  0  0  0
   -0.8278    4.1544   -1.5056 H   0  0  0  0  0  0  0  0  0  0  0  0
   -2.3920    4.6382    0.3450 H   0  0  0  0  0  0  0  0  0  0  0  0
   -3.6660    2.7916    1.3873 H   0  0  0  0  0  0  0  0  0  0  0  0
   -5.1034   -1.9145    1.4628 H   0  0  0  0  0  0  0  0  0  0  0  0
   -4.9922   -4.2077    0.5286 H   0  0  0  0  0  0  0  0  0  0  0  0
   -3.3114   -4.7447   -1.2185 H   0  0  0  0  0  0  0  0  0  0  0  0
   -1.7559   -3.0358   -2.0165 H   0  0  0  0  0  0  0  0  0  0  0  0
   -0.0511   -1.9590   -1.4549 H   0  0  0  0  0  0  0  0  0  0  0  0
    0.3639   -0.3897   -2.0287 H   0  0  0  0  0  0  0  0  0  0  0  0
    0.4607    0.3377    0.5125 H   0  0  0  0  0  0  0  0  0  0  0  0
   -0.6627   -1.4160    1.3397 H   0  0  0  0  0  0  0  0  0  0  0  0
    2.3685   -1.8750   -0.3867 H   0  0  0  0  0  0  0  0  0  0  0  0
    2.4556   -0.2381   -1.0522 H   0  0  0  0  0  0  0  0  0  0  0  0
    2.1140    1.2922    1.8266 H   0  0  0  0  0  0  0  0  0  0  0  0
    3.0678    1.6077    0.3584 H   0  0  0  0  0  0  0  0  0  0  0  0
    4.7654    2.1524    1.8282 H   0  0  0  0  0  0  0  0  0  0  0  0
    4.0241    1.2745    3.1751 H   0  0  0  0  0  0  0  0  0  0  0  0
    5.2202   -0.6080    2.7363 H   0  0  0  0  0  0  0  0  0  0  0  0
    6.1672    0.3039    1.5494 H   0  0  0  0  0  0  0  0  0  0  0  0
    4.6453   -1.8202    0.7776 H   0  0  0  0  0  0  0  0  0  0  0  0
    4.7789   -0.3742   -0.2549 H   0  0  0  0  0  0  0  0  0  0  0  0
  1  2  2  0
  2  3  1  0
  2  4  1  0
  4  5  2  0
  5  6  1  0
  6  7  2  0
  7  8  1  0
  8  9  1  0
  9 10  2  0
  9 11  1  0
 11 12  2  0
 12 13  1  0
 13 14  2  0
 14 15  1  0
 15 16  2  0
 16 17  1  0
 17 18  1  0
 18 19  1  0
 19 20  1  0
 19 21  1  0
 21 22  1  0
 22 23  1  0
 23 24  1  0
 24 25  1  0
 25 26  1  0
 17 27  1  0
 27  4  1  0
 27  8  2  0
 16 11  1  0
 26 22  1  0
  3 28  1  0
  5 29  1  0
  6 30  1  0
  7 31  1  0
 12 32  1  0
 13 33  1  0
 14 34  1  0
 15 35  1  0
 18 36  1  0
 18 37  1  0
 19 38  1  0
 20 39  1  0
 21 40  1  0
 21 41  1  0
 23 42  1  0
 23 43  1  0
 24 44  1  0
 24 45  1  0
 25 46  1  0
 25 47  1  0
 26 48  1  0
 26 49  1  0
M  END
$$$$
