
     RDKit          3D

 46 49  0  0  0  0  0  0  0  0999 V2000
    3.2454    0.9938    2.3381 O   0  0  0  0  0  0  0  0  0  0  0  0
    2.9107    1.4833    1.2638 C   0  0  0  0  0  0  0  0  0  0  0  0
    2.6710    2.9803    1.1288 C   0  0  0  0  0  0  0  0  0  0  0  0
    0.9233    3.3941    1.3774 S   0  0  0  0  0  0  0  0  0  0  0  0
    0.2243    2.7214   -0.0504 C   0  0  0  0  0  0  0  0  0  0  0  0
    0.8703    2.5021   -1.1750 N   0  0  0  0  0  0  0  0  0  0  0  0
    0.0124    1.8624   -2.0265 N   0  0  0  0  0  0  0  0  0  0  0  0
   -1.1511    1.7185   -1.4146 C   0  0  0  0  0  0  0  0  0  0  0  0
   -2.3640    1.0678   -2.0021 C   0  0  0  0  0  0  0  0  0  0  0  0
   -2.5943   -0.3315   -1.4987 C   0  0  0  0  0  0  0  0  0  0  0  0
   -1.6675   -1.3119   -1.1921 C   0  0  0  0  0  0  0  0  0  0  0  0
   -2.2750   -2.5132   -0.7266 C   0  0  0  0  0  0  0  0  0  0  0  0
   -3.6471   -2.4196   -0.7114 C   0  0  0  0  0  0  0  0  0  0  0  0
   -4.1962   -0.9001   -1.2739 S   0  0  0  0  0  0  0  0  0  0  0  0
   -1.0602    2.2579   -0.1483 N   0  0  0  0  0  0  0  0  0  0  0  0
   -2.1109    2.3470    0.8509 C   0  0  0  0  0  0  0  0  0  0  0  0
   -2.1919    1.1278    1.6944 C   0  0  0  0  0  0  0  0  0  0  0  0
   -3.2483    0.3907    2.1923 C   0  0  0  0  0  0  0  0  0  0  0  0
   -2.6808   -0.6750    2.9316 C   0  0  0  0  0  0  0  0  0  0  0  0
   -1.3188   -0.5133    2.8548 C   0  0  0  0  0  0  0  0  0  0  0  0
   -1.0156    0.5799    2.1114 O   0  0  0  0  0  0  0  0  0  0  0  0
    2.7320    0.7940    0.0757 N   0  0  0  0  0  0  0  0  0  0  0  0
    2.9256   -0.5807   -0.1692 C   0  0  0  0  0  0  0  0  0  0  0  0
    2.5427   -1.0583   -1.4297 C   0  0  0  0  0  0  0  0  0  0  0  0
    2.7099   -2.4055   -1.7665 C   0  0  0  0  0  0  0  0  0  0  0  0
    3.2621   -3.2838   -0.8359 C   0  0  0  0  0  0  0  0  0  0  0  0
    3.4965   -5.1060   -1.2832 Br  0  0  0  0  0  0  0  0  0  0  0  0
    3.6472   -2.8242    0.4207 C   0  0  0  0  0  0  0  0  0  0  0  0
    3.4811   -1.4734    0.7528 C   0  0  0  0  0  0  0  0  0  0  0  0
    3.0325    3.3414    0.1593 H   0  0  0  0  0  0  0  0  0  0  0  0
    3.2660    3.4860    1.8956 H   0  0  0  0  0  0  0  0  0  0  0  0
   -3.2353    1.7043   -1.8212 H   0  0  0  0  0  0  0  0  0  0  0  0
   -2.2450    1.0198   -3.0949 H   0  0  0  0  0  0  0  0  0  0  0  0
   -0.5937   -1.1670   -1.2751 H   0  0  0  0  0  0  0  0  0  0  0  0
   -1.7312   -3.3937   -0.4136 H   0  0  0  0  0  0  0  0  0  0  0  0
   -4.3567   -3.1757   -0.4038 H   0  0  0  0  0  0  0  0  0  0  0  0
   -3.0571    2.5245    0.3205 H   0  0  0  0  0  0  0  0  0  0  0  0
   -1.9334    3.2318    1.4700 H   0  0  0  0  0  0  0  0  0  0  0  0
   -4.2956    0.5900    2.0328 H   0  0  0  0  0  0  0  0  0  0  0  0
   -3.1993   -1.4608    3.4566 H   0  0  0  0  0  0  0  0  0  0  0  0
   -0.4726   -1.0572    3.2486 H   0  0  0  0  0  0  0  0  0  0  0  0
    2.2827    1.3161   -0.6834 H   0  0  0  0  0  0  0  0  0  0  0  0
    2.1149   -0.3814   -2.1666 H   0  0  0  0  0  0  0  0  0  0  0  0
    2.4127   -2.7515   -2.7523 H   0  0  0  0  0  0  0  0  0  0  0  0
    4.0788   -3.5046    1.1557 H   0  0  0  0  0  0  0  0  0  0  0  0
    3.7994   -1.1467    1.7348 H   0  0  0  0  0  0  0  0  0  0  0  0
  1  2  2  0
  2  3  1  0
  3  4  1  0
  4  5  1  0
  5  6  2  0
  6  7  1  0
  7  8  2  0
  8  9  1  0
  9 10  1  0
 10 11  2  0
 11 12  1  0
 12 13  2  0
 13 14  1  0
  8 15  1  0
 15 16  1  0
 16 17  1  0
 17 18  2  0
 18 19  1  0
 19 20  2  0
 20 21  1  0
  2 22  1  0
 22 23  1  0
 23 24  2  0
 24 25  1  0
 25 26  2  0
 26 27  1  0
 26 28  1  0
 28 29  2  0
 15  5  1  0
 21 17  1  0
 29 23  1  0
 14 10  1  0
  3 30  1  0
  3 31  1  0
  9 32  1  0
  9 33  1  0
 11 34  1  0
 12 35  1  0
 13 36  1  0
 16 37  1  0
 16 38  1  0
 18 39  1  0
 19 40  1  0
 20 41  1  0
 22 42  1  0
 24 43  1  0
 25 44  1  0
 28 45  1  0
 29 46  1  0
M  END
$$$$
