
     RDKit          3D

 74 79  0  0  0  0  0  0  0  0999 V2000
    8.8534    3.9437   -2.2639 C   0  0  0  0  0  0  0  0  0  0  0  0
    7.4432    4.0737   -2.3825 O   0  0  0  0  0  0  0  0  0  0  0  0
    6.6829    3.1041   -1.7909 C   0  0  0  0  0  0  0  0  0  0  0  0
    7.1593    1.9858   -1.1146 C   0  0  0  0  0  0  0  0  0  0  0  0
    6.2602    1.0689   -0.5514 C   0  0  0  0  0  0  0  0  0  0  0  0
    4.8654    1.2378   -0.6447 C   0  0  0  0  0  0  0  0  0  0  0  0
    3.9448    0.2503   -0.0366 C   0  0  0  0  0  0  0  0  0  0  0  0
    2.6579    0.5564    0.3695 C   0  0  0  0  0  0  0  0  0  0  0  0
    1.8714   -0.4560    0.9234 C   0  0  0  0  0  0  0  0  0  0  0  0
    0.4739   -0.0862    1.2543 C   0  0  0  0  0  0  0  0  0  0  0  0
    0.2747    0.8980    1.9539 O   0  0  0  0  0  0  0  0  0  0  0  0
   -0.4683   -0.8959    0.6677 N   0  0  0  0  0  0  0  0  0  0  0  0
   -1.8704   -0.8477    0.7833 C   0  0  0  0  0  0  0  0  0  0  0  0
   -2.5592    0.0858    1.5533 C   0  0  0  0  0  0  0  0  0  0  0  0
   -3.9554    0.0520    1.5682 C   0  0  0  0  0  0  0  0  0  0  0  0
   -4.8661    1.2368    2.5285 S   0  0  0  0  0  6  0  0  0  0  0  0
   -5.9987    0.5430    3.1073 O   0  0  0  0  0  0  0  0  0  0  0  0
   -3.9462    1.9910    3.3527 O   0  0  0  0  0  0  0  0  0  0  0  0
   -5.4545    2.2936    1.3260 N   0  0  0  0  0  0  0  0  0  0  0  0
   -4.4173    3.1290    0.6329 C   0  0  0  0  0  0  0  0  0  0  0  0
   -4.4908    4.5885    1.0899 C   0  0  0  0  0  0  0  0  0  0  0  0
   -5.7483    5.2041    0.7720 O   0  0  0  0  0  0  0  0  0  0  0  0
   -6.8559    4.2942    0.8377 C   0  0  0  0  0  0  0  0  0  0  0  0
   -6.6223    3.1153    1.7871 C   0  0  0  0  0  0  0  0  0  0  0  0
   -4.6635   -0.9216    0.8548 C   0  0  0  0  0  0  0  0  0  0  0  0
   -3.9698   -1.8654    0.0969 C   0  0  0  0  0  0  0  0  0  0  0  0
   -2.5700   -1.8400    0.0468 C   0  0  0  0  0  0  0  0  0  0  0  0
   -1.8031   -2.7761   -0.6978 N   0  0  0  0  0  0  0  0  0  0  0  0
   -1.9322   -4.1559   -0.1635 C   0  0  0  0  0  0  0  0  0  0  0  0
   -1.0019   -5.0906   -0.9559 C   0  0  0  0  0  0  0  0  0  0  0  0
   -1.3028   -5.0584   -2.3616 O   0  0  0  0  0  0  0  0  0  0  0  0
   -1.1639   -3.7220   -2.8760 C   0  0  0  0  0  0  0  0  0  0  0  0
   -2.1045   -2.7445   -2.1507 C   0  0  0  0  0  0  0  0  0  0  0  0
    2.3858   -1.7563    1.1251 C   0  0  0  0  0  0  0  0  0  0  0  0
    1.6956   -2.8257    1.7563 C   0  0  0  0  0  0  0  0  0  0  0  0
    2.2818   -4.0819    1.8903 C   0  0  0  0  0  0  0  0  0  0  0  0
    3.5657   -4.2891    1.4095 C   0  0  0  0  0  0  0  0  0  0  0  0
    4.2586   -3.2331    0.8131 C   0  0  0  0  0  0  0  0  0  0  0  0
    3.6983   -1.9704    0.6710 C   0  0  0  0  0  0  0  0  0  0  0  0
    4.4419   -1.0052    0.1047 N   0  0  0  0  0  0  0  0  0  0  0  0
    4.4094    2.3699   -1.3416 C   0  0  0  0  0  0  0  0  0  0  0  0
    5.3055    3.2889   -1.9030 C   0  0  0  0  0  0  0  0  0  0  0  0
    9.3121    4.8005   -2.7686 H   0  0  0  0  0  0  0  0  0  0  0  0
    9.1658    3.9697   -1.2145 H   0  0  0  0  0  0  0  0  0  0  0  0
    9.2082    3.0344   -2.7617 H   0  0  0  0  0  0  0  0  0  0  0  0
    8.2205    1.7881   -1.0048 H   0  0  0  0  0  0  0  0  0  0  0  0
    6.6634    0.2038   -0.0256 H   0  0  0  0  0  0  0  0  0  0  0  0
    2.2523    1.5589    0.2723 H   0  0  0  0  0  0  0  0  0  0  0  0
   -0.1645   -1.6451    0.0465 H   0  0  0  0  0  0  0  0  0  0  0  0
   -2.0327    0.8396    2.1321 H   0  0  0  0  0  0  0  0  0  0  0  0
   -3.4077    2.7434    0.7990 H   0  0  0  0  0  0  0  0  0  0  0  0
   -4.6176    3.0589   -0.4430 H   0  0  0  0  0  0  0  0  0  0  0  0
   -4.3367    4.6701    2.1725 H   0  0  0  0  0  0  0  0  0  0  0  0
   -3.7077    5.1774    0.6035 H   0  0  0  0  0  0  0  0  0  0  0  0
   -7.7323    4.8701    1.1560 H   0  0  0  0  0  0  0  0  0  0  0  0
   -7.0541    3.9330   -0.1795 H   0  0  0  0  0  0  0  0  0  0  0  0
   -6.4351    3.4914    2.7985 H   0  0  0  0  0  0  0  0  0  0  0  0
   -7.5123    2.4813    1.7994 H   0  0  0  0  0  0  0  0  0  0  0  0
   -5.7507   -0.9475    0.8919 H   0  0  0  0  0  0  0  0  0  0  0  0
   -4.5334   -2.6198   -0.4452 H   0  0  0  0  0  0  0  0  0  0  0  0
   -2.9650   -4.5100   -0.2682 H   0  0  0  0  0  0  0  0  0  0  0  0
   -1.6544   -4.1833    0.8961 H   0  0  0  0  0  0  0  0  0  0  0  0
    0.0494   -4.8175   -0.8109 H   0  0  0  0  0  0  0  0  0  0  0  0
   -1.1293   -6.1225   -0.6145 H   0  0  0  0  0  0  0  0  0  0  0  0
   -0.1171   -3.4111   -2.7748 H   0  0  0  0  0  0  0  0  0  0  0  0
   -1.4071   -3.7507   -3.9422 H   0  0  0  0  0  0  0  0  0  0  0  0
   -1.9578   -1.7330   -2.5495 H   0  0  0  0  0  0  0  0  0  0  0  0
   -3.1414   -3.0498   -2.3363 H   0  0  0  0  0  0  0  0  0  0  0  0
    0.6986   -2.6806    2.1697 H   0  0  0  0  0  0  0  0  0  0  0  0
    1.7424   -4.8893    2.3791 H   0  0  0  0  0  0  0  0  0  0  0  0
    4.0396   -5.2620    1.5063 H   0  0  0  0  0  0  0  0  0  0  0  0
    5.2716   -3.3995    0.4522 H   0  0  0  0  0  0  0  0  0  0  0  0
    3.3467    2.5554   -1.4751 H   0  0  0  0  0  0  0  0  0  0  0  0
    4.9216    4.1569   -2.4350 H   0  0  0  0  0  0  0  0  0  0  0  0
  1  2  1  0
  2  3  1  0
  3  4  2  0
  4  5  1  0
  5  6  2  0
  6  7  1  0
  7  8  2  0
  8  9  1  0
  9 10  1  0
 10 11  2  0
 10 12  1  0
 12 13  1  0
 13 14  2  0
 14 15  1  0
 15 16  1  0
 16 17  2  0
 16 18  2  0
 16 19  1  0
 19 20  1  0
 20 21  1  0
 21 22  1  0
 22 23  1  0
 23 24  1  0
 15 25  2  0
 25 26  1  0
 26 27  2  0
 27 28  1  0
 28 29  1  0
 29 30  1  0
 30 31  1  0
 31 32  1  0
 32 33  1  0
  9 34  2  0
 34 35  1  0
 35 36  2  0
 36 37  1  0
 37 38  2  0
 38 39  1  0
 39 40  2  0
  6 41  1  0
 41 42  2  0
 42  3  1  0
 40  7  1  0
 27 13  1  0
 33 28  1  0
 39 34  1  0
 24 19  1  0
  1 43  1  0
  1 44  1  0
  1 45  1  0
  4 46  1  0
  5 47  1  0
  8 48  1  0
 12 49  1  0
 14 50  1  0
 20 51  1  0
 20 52  1  0
 21 53  1  0
 21 54  1  0
 23 55  1  0
 23 56  1  0
 24 57  1  0
 24 58  1  0
 25 59  1  0
 26 60  1  0
 29 61  1  0
 29 62  1  0
 30 63  1  0
 30 64  1  0
 32 65  1  0
 32 66  1  0
 33 67  1  0
 33 68  1  0
 35 69  1  0
 36 70  1  0
 37 71  1  0
 38 72  1  0
 41 73  1  0
 42 74  1  0
M  END
$$$$
