
     RDKit          3D

 63 67  0  0  0  0  0  0  0  0999 V2000
   -1.5611    0.3914    5.0563 C   0  0  0  0  0  0  0  0  0  0  0  0
   -2.2662   -0.4525    4.1405 O   0  0  0  0  0  0  0  0  0  0  0  0
   -3.6188   -0.4002    4.2438 C   0  0  0  0  0  0  0  0  0  0  0  0
   -4.2390    0.3289    5.0033 O   0  0  0  0  0  0  0  0  0  0  0  0
   -4.2741   -1.3721    3.3207 C   0  0  0  0  0  0  0  0  0  0  0  0
   -5.6056   -1.7023    3.6424 C   0  0  0  0  0  0  0  0  0  0  0  0
   -6.3369   -2.5777    2.8437 C   0  0  0  0  0  0  0  0  0  0  0  0
   -5.7509   -3.1208    1.7077 C   0  0  0  0  0  0  0  0  0  0  0  0
   -4.4324   -2.7967    1.3724 C   0  0  0  0  0  0  0  0  0  0  0  0
   -3.6660   -1.9426    2.1786 C   0  0  0  0  0  0  0  0  0  0  0  0
   -2.3533   -1.5650    1.7953 N   0  0  0  0  0  0  0  0  0  0  0  0
   -1.3937   -2.2114    1.0287 C   0  0  0  0  0  0  0  0  0  0  0  0
   -1.3020   -3.8703    0.7910 S   0  0  0  0  0  0  0  0  0  0  0  0
   -0.4424   -1.2846    0.5239 N   0  0  0  0  0  0  0  0  0  0  0  0
   -0.9171    0.0143   -0.0021 C   0  0  0  0  0  0  0  0  0  0  0  0
   -0.9674    0.0862   -1.5148 C   0  0  0  0  0  0  0  0  0  0  0  0
   -0.3952    1.1950   -2.1846 C   0  0  0  0  0  0  0  0  0  0  0  0
   -0.4292    1.2977   -3.5781 C   0  0  0  0  0  0  0  0  0  0  0  0
   -1.0571    0.2916   -4.2776 C   0  0  0  0  0  0  0  0  0  0  0  0
   -1.6358   -0.7793   -3.6403 C   0  0  0  0  0  0  0  0  0  0  0  0
   -1.6150   -0.9080   -2.2666 C   0  0  0  0  0  0  0  0  0  0  0  0
   -2.2067   -1.6524   -4.5131 O   0  0  0  0  0  0  0  0  0  0  0  0
   -1.9281   -1.0048   -5.7715 C   0  0  0  0  0  0  0  0  0  0  0  0
   -1.1913    0.2278   -5.6295 O   0  0  0  0  0  0  0  0  0  0  0  0
    0.9089   -1.7446    0.1420 C   0  0  0  0  0  0  0  0  0  0  0  0
    1.9460   -0.6576    0.1567 C   0  0  0  0  0  0  0  0  0  0  0  0
    2.5512   -0.2164   -0.9622 C   0  0  0  0  0  0  0  0  0  0  0  0
    3.5513    0.8458   -0.9108 C   0  0  0  0  0  0  0  0  0  0  0  0
    4.1563    1.3394   -2.0669 C   0  0  0  0  0  0  0  0  0  0  0  0
    5.1115    2.3589   -1.9811 C   0  0  0  0  0  0  0  0  0  0  0  0
    5.4676    2.8870   -0.7386 C   0  0  0  0  0  0  0  0  0  0  0  0
    6.3835    3.8787   -0.5217 O   0  0  0  0  0  0  0  0  0  0  0  0
    7.1023    4.3568   -1.6545 C   0  0  0  0  0  0  0  0  0  0  0  0
    4.8568    2.3950    0.4184 C   0  0  0  0  0  0  0  0  0  0  0  0
    3.9049    1.3816    0.3288 C   0  0  0  0  0  0  0  0  0  0  0  0
    3.2922    0.8884    1.4861 N   0  0  0  0  0  0  0  0  0  0  0  0
    2.3406   -0.0983    1.4857 C   0  0  0  0  0  0  0  0  0  0  0  0
    1.8359   -0.4843    2.5354 O   0  0  0  0  0  0  0  0  0  0  0  0
   -1.6431    1.4374    4.7350 H   0  0  0  0  0  0  0  0  0  0  0  0
   -0.5056    0.0984    5.0423 H   0  0  0  0  0  0  0  0  0  0  0  0
   -1.9362    0.2685    6.0766 H   0  0  0  0  0  0  0  0  0  0  0  0
   -6.0808   -1.2700    4.5225 H   0  0  0  0  0  0  0  0  0  0  0  0
   -7.3658   -2.8190    3.0975 H   0  0  0  0  0  0  0  0  0  0  0  0
   -6.3231   -3.7850    1.0642 H   0  0  0  0  0  0  0  0  0  0  0  0
   -4.0398   -3.1956    0.4432 H   0  0  0  0  0  0  0  0  0  0  0  0
   -1.9295   -0.8526    2.3867 H   0  0  0  0  0  0  0  0  0  0  0  0
   -1.9263    0.2453    0.3531 H   0  0  0  0  0  0  0  0  0  0  0  0
   -0.2705    0.7961    0.4073 H   0  0  0  0  0  0  0  0  0  0  0  0
    0.0856    1.9866   -1.6152 H   0  0  0  0  0  0  0  0  0  0  0  0
    0.0153    2.1439   -4.0917 H   0  0  0  0  0  0  0  0  0  0  0  0
   -2.0880   -1.7624   -1.7947 H   0  0  0  0  0  0  0  0  0  0  0  0
   -2.8801   -0.7922   -6.2736 H   0  0  0  0  0  0  0  0  0  0  0  0
   -1.3455   -1.6878   -6.3996 H   0  0  0  0  0  0  0  0  0  0  0  0
    0.8305   -2.1936   -0.8560 H   0  0  0  0  0  0  0  0  0  0  0  0
    1.2292   -2.5422    0.8235 H   0  0  0  0  0  0  0  0  0  0  0  0
    2.2979   -0.6274   -1.9336 H   0  0  0  0  0  0  0  0  0  0  0  0
    3.8926    0.9390   -3.0419 H   0  0  0  0  0  0  0  0  0  0  0  0
    5.5560    2.7182   -2.9032 H   0  0  0  0  0  0  0  0  0  0  0  0
    7.8169    5.1100   -1.3040 H   0  0  0  0  0  0  0  0  0  0  0  0
    6.4306    4.8431   -2.3722 H   0  0  0  0  0  0  0  0  0  0  0  0
    7.6750    3.5520   -2.1276 H   0  0  0  0  0  0  0  0  0  0  0  0
    5.1348    2.8105    1.3815 H   0  0  0  0  0  0  0  0  0  0  0  0
    3.5463    1.2561    2.3923 H   0  0  0  0  0  0  0  0  0  0  0  0
  1  2  1  0
  2  3  1  0
  3  4  2  0
  3  5  1  0
  5  6  2  0
  6  7  1  0
  7  8  2  0
  8  9  1  0
  9 10  2  0
 10 11  1  0
 11 12  1  0
 12 13  2  0
 12 14  1  0
 14 15  1  0
 15 16  1  0
 16 17  2  0
 17 18  1  0
 18 19  2  0
 19 20  1  0
 20 21  2  0
 20 22  1  0
 22 23  1  0
 23 24  1  0
 14 25  1  0
 25 26  1  0
 26 27  2  0
 27 28  1  0
 28 29  2  0
 29 30  1  0
 30 31  2  0
 31 32  1  0
 32 33  1  0
 31 34  1  0
 34 35  2  0
 35 36  1  0
 36 37  1  0
 37 38  2  0
 10  5  1  0
 21 16  1  0
 37 26  1  0
 24 19  1  0
 35 28  1  0
  1 39  1  0
  1 40  1  0
  1 41  1  0
  6 42  1  0
  7 43  1  0
  8 44  1  0
  9 45  1  0
 11 46  1  0
 15 47  1  0
 15 48  1  0
 17 49  1  0
 18 50  1  0
 21 51  1  0
 23 52  1  0
 23 53  1  0
 25 54  1  0
 25 55  1  0
 27 56  1  0
 29 57  1  0
 30 58  1  0
 33 59  1  0
 33 60  1  0
 33 61  1  0
 34 62  1  0
 36 63  1  0
M  END
$$$$
