
     RDKit          3D

 40 42  0  0  0  0  0  0  0  0999 V2000
    0.7767   -3.0024   -0.3182 O   0  0  0  0  0  0  0  0  0  0  0  0
    1.4111   -2.1246   -0.8982 C   0  0  0  0  0  0  0  0  0  0  0  0
    2.9263   -2.0472   -0.8556 C   0  0  0  0  0  0  0  0  0  0  0  0
    3.4252   -0.9262    0.0236 C   0  0  0  0  0  0  0  0  0  0  0  0
    4.1702    0.1308   -0.5167 C   0  0  0  0  0  0  0  0  0  0  0  0
    4.6209    1.1680    0.3016 C   0  0  0  0  0  0  0  0  0  0  0  0
    4.3345    1.1572    1.6656 C   0  0  0  0  0  0  0  0  0  0  0  0
    3.5975    0.1096    2.2135 C   0  0  0  0  0  0  0  0  0  0  0  0
    3.1450   -0.9279    1.3978 C   0  0  0  0  0  0  0  0  0  0  0  0
    0.8141   -1.1259   -1.6409 N   0  0  0  0  0  0  0  0  0  0  0  0
   -0.6312   -0.9391   -1.5825 C   0  0  0  0  0  0  0  0  0  0  0  0
   -1.0610   -0.2000   -0.2943 C   0  0  0  0  0  0  0  0  0  0  0  0
   -0.3878    1.0830   -0.3427 O   0  0  0  0  0  0  0  0  0  0  0  0
   -0.8394    1.9553    0.6899 C   0  0  0  0  0  0  0  0  0  0  0  0
   -2.2674    2.3836    0.3833 C   0  0  0  0  0  0  0  0  0  0  0  0
   -3.1473    1.1756    0.1914 C   0  0  0  0  0  0  0  0  0  0  0  0
   -4.5377    1.2955    0.3224 C   0  0  0  0  0  0  0  0  0  0  0  0
   -5.3583    0.1817    0.1584 C   0  0  0  0  0  0  0  0  0  0  0  0
   -4.7959   -1.0575   -0.1335 C   0  0  0  0  0  0  0  0  0  0  0  0
   -3.4132   -1.1815   -0.2810 C   0  0  0  0  0  0  0  0  0  0  0  0
   -2.5723   -0.0636   -0.1524 C   0  0  0  0  0  0  0  0  0  0  0  0
    3.2966   -1.9388   -1.8821 H   0  0  0  0  0  0  0  0  0  0  0  0
    3.3187   -3.0021   -0.4851 H   0  0  0  0  0  0  0  0  0  0  0  0
    4.4067    0.1574   -1.5784 H   0  0  0  0  0  0  0  0  0  0  0  0
    5.1978    1.9855   -0.1243 H   0  0  0  0  0  0  0  0  0  0  0  0
    4.6877    1.9643    2.3020 H   0  0  0  0  0  0  0  0  0  0  0  0
    3.3749    0.0987    3.2770 H   0  0  0  0  0  0  0  0  0  0  0  0
    2.5693   -1.7396    1.8397 H   0  0  0  0  0  0  0  0  0  0  0  0
    1.3499   -0.2731   -1.7619 H   0  0  0  0  0  0  0  0  0  0  0  0
   -1.1045   -1.9213   -1.6705 H   0  0  0  0  0  0  0  0  0  0  0  0
   -0.8985   -0.3480   -2.4656 H   0  0  0  0  0  0  0  0  0  0  0  0
   -0.6826   -0.7313    0.5887 H   0  0  0  0  0  0  0  0  0  0  0  0
   -0.1830    2.8315    0.7029 H   0  0  0  0  0  0  0  0  0  0  0  0
   -0.7535    1.4597    1.6650 H   0  0  0  0  0  0  0  0  0  0  0  0
   -2.6430    3.0090    1.2004 H   0  0  0  0  0  0  0  0  0  0  0  0
   -2.2902    2.9668   -0.5442 H   0  0  0  0  0  0  0  0  0  0  0  0
   -4.9860    2.2573    0.5610 H   0  0  0  0  0  0  0  0  0  0  0  0
   -6.4351    0.2783    0.2684 H   0  0  0  0  0  0  0  0  0  0  0  0
   -5.4334   -1.9312   -0.2436 H   0  0  0  0  0  0  0  0  0  0  0  0
   -3.0020   -2.1674   -0.4871 H   0  0  0  0  0  0  0  0  0  0  0  0
  1  2  2  0
  2  3  1  0
  3  4  1  0
  4  5  2  0
  5  6  1  0
  6  7  2  0
  7  8  1  0
  8  9  2  0
  2 10  1  0
 10 11  1  0
 11 12  1  0
 12 13  1  0
 13 14  1  0
 14 15  1  0
 15 16  1  0
 16 17  2  0
 17 18  1  0
 18 19  2  0
 19 20  1  0
 20 21  2  0
  9  4  1  0
 21 12  1  0
 21 16  1  0
  3 22  1  0
  3 23  1  0
  5 24  1  0
  6 25  1  0
  7 26  1  0
  8 27  1  0
  9 28  1  0
 10 29  1  0
 11 30  1  0
 11 31  1  0
 12 32  1  0
 14 33  1  0
 14 34  1  0
 15 35  1  0
 15 36  1  0
 17 37  1  0
 18 38  1  0
 19 39  1  0
 20 40  1  0
M  END
$$$$
