
     RDKit          3D

 56 60  0  0  0  0  0  0  0  0999 V2000
   -5.3102    1.5261   -0.5781 C   0  0  0  0  0  0  0  0  0  0  0  0
   -3.8824    1.1214   -0.3387 C   0  0  0  0  0  0  0  0  0  0  0  0
   -3.1931    1.7082    0.7338 C   0  0  0  0  0  0  0  0  0  0  0  0
   -1.8542    1.3960    0.9893 C   0  0  0  0  0  0  0  0  0  0  0  0
   -1.1556    0.4884    0.1819 C   0  0  0  0  0  0  0  0  0  0  0  0
    0.2577    0.1830    0.4515 C   0  0  0  0  0  0  0  0  0  0  0  0
    1.0791    1.2442    0.3021 N   0  0  0  0  0  0  0  0  0  0  0  0
    2.4265    1.1054    0.4871 N   0  0  0  0  0  0  0  0  0  0  0  0
    2.9661   -0.0848    0.8211 C   0  0  0  0  0  0  0  0  0  0  0  0
    4.3758   -0.2172    0.9586 N   0  0  0  0  0  0  0  0  0  0  0  0
    5.3421    0.8119    1.0562 C   0  0  0  0  0  0  0  0  0  0  0  0
    6.6774    0.5241    0.6797 C   0  0  0  0  0  0  0  0  0  0  0  0
    7.6984    1.4727    0.8136 C   0  0  0  0  0  0  0  0  0  0  0  0
    7.3665    2.6944    1.3512 C   0  0  0  0  0  0  0  0  0  0  0  0
    6.0844    2.9785    1.7530 C   0  0  0  0  0  0  0  0  0  0  0  0
    5.0604    2.0602    1.6311 C   0  0  0  0  0  0  0  0  0  0  0  0
    5.9721    4.2292    2.2773 O   0  0  0  0  0  0  0  0  0  0  0  0
    7.3257    4.7053    2.1365 C   0  0  0  0  0  0  0  0  0  0  0  0
    8.2212    3.7296    1.5635 O   0  0  0  0  0  0  0  0  0  0  0  0
    2.1422   -1.2177    1.0219 C   0  0  0  0  0  0  0  0  0  0  0  0
    2.6463   -2.4818    1.4225 C   0  0  0  0  0  0  0  0  0  0  0  0
    1.8096   -3.5802    1.6216 C   0  0  0  0  0  0  0  0  0  0  0  0
    0.4432   -3.4450    1.4363 C   0  0  0  0  0  0  0  0  0  0  0  0
   -0.0829   -2.2117    1.0527 C   0  0  0  0  0  0  0  0  0  0  0  0
    0.7461   -1.0814    0.8323 C   0  0  0  0  0  0  0  0  0  0  0  0
   -1.8335   -0.0849   -0.9052 C   0  0  0  0  0  0  0  0  0  0  0  0
   -3.1824    0.2194   -1.1609 C   0  0  0  0  0  0  0  0  0  0  0  0
   -3.9494   -0.5588   -2.5697 S   0  0  0  0  0  6  0  0  0  0  0  0
   -2.9811   -1.4228   -3.2094 O   0  0  0  0  0  0  0  0  0  0  0  0
   -4.6873    0.4395   -3.3073 O   0  0  0  0  0  0  0  0  0  0  0  0
   -5.0409   -1.6233   -1.8153 N   0  0  0  0  0  0  0  0  0  0  0  0
   -6.2387   -1.9351   -2.6354 C   0  0  0  0  0  0  0  0  0  0  0  0
   -7.2004   -2.8149   -1.8354 C   0  0  0  0  0  0  0  0  0  0  0  0
   -8.3468   -3.1499   -2.6075 O   0  0  0  0  0  0  0  0  0  0  0  0
   -5.7115    2.0852    0.2749 H   0  0  0  0  0  0  0  0  0  0  0  0
   -5.9560    0.6539   -0.7059 H   0  0  0  0  0  0  0  0  0  0  0  0
   -5.3797    2.1745   -1.4564 H   0  0  0  0  0  0  0  0  0  0  0  0
   -3.6912    2.4290    1.3808 H   0  0  0  0  0  0  0  0  0  0  0  0
   -1.3477    1.8806    1.8238 H   0  0  0  0  0  0  0  0  0  0  0  0
    4.6878   -0.9640    0.3463 H   0  0  0  0  0  0  0  0  0  0  0  0
    6.9312   -0.4514    0.2716 H   0  0  0  0  0  0  0  0  0  0  0  0
    8.7160    1.2522    0.5128 H   0  0  0  0  0  0  0  0  0  0  0  0
    4.0685    2.3178    1.9848 H   0  0  0  0  0  0  0  0  0  0  0  0
    7.3205    5.5952    1.4964 H   0  0  0  0  0  0  0  0  0  0  0  0
    7.7026    4.9871    3.1264 H   0  0  0  0  0  0  0  0  0  0  0  0
    3.7102   -2.6181    1.6086 H   0  0  0  0  0  0  0  0  0  0  0  0
    2.2274   -4.5343    1.9337 H   0  0  0  0  0  0  0  0  0  0  0  0
   -0.2172   -4.2929    1.6001 H   0  0  0  0  0  0  0  0  0  0  0  0
   -1.1628   -2.1378    0.9399 H   0  0  0  0  0  0  0  0  0  0  0  0
   -1.2935   -0.7633   -1.5656 H   0  0  0  0  0  0  0  0  0  0  0  0
   -4.5184   -2.4829   -1.6243 H   0  0  0  0  0  0  0  0  0  0  0  0
   -5.9415   -2.4544   -3.5532 H   0  0  0  0  0  0  0  0  0  0  0  0
   -6.7617   -1.0157   -2.9192 H   0  0  0  0  0  0  0  0  0  0  0  0
   -6.7092   -3.7482   -1.5408 H   0  0  0  0  0  0  0  0  0  0  0  0
   -7.5285   -2.3107   -0.9199 H   0  0  0  0  0  0  0  0  0  0  0  0
   -8.8470   -2.3300   -2.7659 H   0  0  0  0  0  0  0  0  0  0  0  0
  1  2  1  0
  2  3  2  0
  3  4  1  0
  4  5  2  0
  5  6  1  0
  6  7  2  0
  7  8  1  0
  8  9  2  0
  9 10  1  0
 10 11  1  0
 11 12  2  0
 12 13  1  0
 13 14  2  0
 14 15  1  0
 15 16  2  0
 15 17  1  0
 17 18  1  0
 18 19  1  0
  9 20  1  0
 20 21  2  0
 21 22  1  0
 22 23  2  0
 23 24  1  0
 24 25  2  0
  5 26  1  0
 26 27  2  0
 27 28  1  0
 28 29  2  0
 28 30  2  0
 28 31  1  0
 31 32  1  0
 32 33  1  0
 33 34  1  0
 27  2  1  0
 25  6  1  0
 16 11  1  0
 25 20  1  0
 19 14  1  0
  1 35  1  0
  1 36  1  0
  1 37  1  0
  3 38  1  0
  4 39  1  0
 10 40  1  0
 12 41  1  0
 13 42  1  0
 16 43  1  0
 18 44  1  0
 18 45  1  0
 21 46  1  0
 22 47  1  0
 23 48  1  0
 24 49  1  0
 26 50  1  0
 31 51  1  0
 32 52  1  0
 32 53  1  0
 33 54  1  0
 33 55  1  0
 34 56  1  0
M  END
$$$$
