
     RDKit          3D

 39 41  0  0  0  0  0  0  0  0999 V2000
   -5.6843    1.1919    2.0166 C   0  0  0  0  0  0  0  0  0  0  0  0
   -6.1316    0.6419    0.7828 O   0  0  0  0  0  0  0  0  0  0  0  0
   -5.1673    0.3695   -0.1538 C   0  0  0  0  0  0  0  0  0  0  0  0
   -3.8058    0.6573   -0.0440 C   0  0  0  0  0  0  0  0  0  0  0  0
   -2.9241    0.3127   -1.0824 C   0  0  0  0  0  0  0  0  0  0  0  0
   -1.4908    0.6182   -1.0006 C   0  0  0  0  0  0  0  0  0  0  0  0
   -0.6242    0.1228   -0.1067 C   0  0  0  0  0  0  0  0  0  0  0  0
   -0.9343   -0.9913    1.1744 S   0  0  0  0  0  0  0  0  0  0  0  0
    0.7515   -1.0312    1.6883 C   0  0  0  0  0  0  0  0  0  0  0  0
    1.2908   -1.9044    3.0032 S   0  0  0  0  0  0  0  0  0  0  0  0
    1.4800   -0.2033    0.8596 N   0  0  0  0  0  0  0  0  0  0  0  0
    2.8797   -0.0738    0.9568 N   0  0  0  0  0  0  0  0  0  0  0  0
    3.6236   -0.9431    0.1740 C   0  0  0  0  0  0  0  0  0  0  0  0
    3.1379   -1.8994   -0.4214 O   0  0  0  0  0  0  0  0  0  0  0  0
    5.0681   -0.6419    0.0533 C   0  0  0  0  0  0  0  0  0  0  0  0
    5.7801    0.0991    1.0006 C   0  0  0  0  0  0  0  0  0  0  0  0
    7.1411    0.3299    0.8031 C   0  0  0  0  0  0  0  0  0  0  0  0
    7.7427   -0.1921   -0.3316 C   0  0  0  0  0  0  0  0  0  0  0  0
    7.0852   -0.9204   -1.2588 N   0  0  0  0  0  0  0  0  0  0  0  0
    5.7637   -1.1377   -1.0426 C   0  0  0  0  0  0  0  0  0  0  0  0
    0.8172    0.4935   -0.1347 C   0  0  0  0  0  0  0  0  0  0  0  0
    1.3127    1.3198   -0.8899 O   0  0  0  0  0  0  0  0  0  0  0  0
   -3.4191   -0.3006   -2.2410 C   0  0  0  0  0  0  0  0  0  0  0  0
   -4.7787   -0.5849   -2.3589 C   0  0  0  0  0  0  0  0  0  0  0  0
   -5.6347   -0.2492   -1.3187 C   0  0  0  0  0  0  0  0  0  0  0  0
   -6.9647   -0.5390   -1.4586 O   0  0  0  0  0  0  0  0  0  0  0  0
   -6.5574    1.3089    2.6658 H   0  0  0  0  0  0  0  0  0  0  0  0
   -4.9828    0.5181    2.5197 H   0  0  0  0  0  0  0  0  0  0  0  0
   -5.2446    2.1836    1.8681 H   0  0  0  0  0  0  0  0  0  0  0  0
   -3.4086    1.1524    0.8356 H   0  0  0  0  0  0  0  0  0  0  0  0
   -1.1320    1.2933   -1.7773 H   0  0  0  0  0  0  0  0  0  0  0  0
    3.2062    0.8813    1.0654 H   0  0  0  0  0  0  0  0  0  0  0  0
    5.3086    0.4763    1.9027 H   0  0  0  0  0  0  0  0  0  0  0  0
    7.7240    0.8957    1.5223 H   0  0  0  0  0  0  0  0  0  0  0  0
    8.8007   -0.0394   -0.5274 H   0  0  0  0  0  0  0  0  0  0  0  0
    5.2691   -1.7356   -1.8049 H   0  0  0  0  0  0  0  0  0  0  0  0
   -2.7513   -0.5666   -3.0575 H   0  0  0  0  0  0  0  0  0  0  0  0
   -5.1681   -1.0642   -3.2520 H   0  0  0  0  0  0  0  0  0  0  0  0
   -7.3786   -0.2299   -0.6293 H   0  0  0  0  0  0  0  0  0  0  0  0
  1  2  1  0
  2  3  1  0
  3  4  2  0
  4  5  1  0
  5  6  1  0
  6  7  2  3
  7  8  1  0
  8  9  1  0
  9 10  2  0
  9 11  1  0
 11 12  1  0
 12 13  1  0
 13 14  2  0
 13 15  1  0
 15 16  2  0
 16 17  1  0
 17 18  2  0
 18 19  1  0
 19 20  2  0
 11 21  1  0
 21 22  2  0
  5 23  2  0
 23 24  1  0
 24 25  2  0
 25 26  1  0
 25  3  1  0
 21  7  1  0
 20 15  1  0
  1 27  1  0
  1 28  1  0
  1 29  1  0
  4 30  1  0
  6 31  1  0
 12 32  1  0
 16 33  1  0
 17 34  1  0
 18 35  1  0
 20 36  1  0
 23 37  1  0
 24 38  1  0
 26 39  1  0
M  END
$$$$
