
     RDKit          3D

 56 61  0  0  0  0  0  0  0  0999 V2000
    5.5586   -0.5865   -1.6271 C   0  0  0  0  0  0  0  0  0  0  0  0
    4.5598   -0.5531   -0.5101 C   0  0  0  0  0  0  0  0  0  0  0  0
    4.9624   -0.4844    0.8378 C   0  0  0  0  0  0  0  0  0  0  0  0
    6.6380   -0.4300    1.2707 Cl  0  0  0  0  0  0  0  0  0  0  0  0
    4.0257   -0.4650    1.8906 C   0  0  0  0  0  0  0  0  0  0  0  0
    2.6563   -0.5119    1.6296 C   0  0  0  0  0  0  0  0  0  0  0  0
    2.2479   -0.5743    0.3075 C   0  0  0  0  0  0  0  0  0  0  0  0
    3.1890   -0.6043   -0.7338 C   0  0  0  0  0  0  0  0  0  0  0  0
    2.5282   -0.7094   -1.9582 N   0  0  0  0  0  0  0  0  0  0  0  0
    1.1437   -0.7568   -1.7953 C   0  0  0  0  0  0  0  0  0  0  0  0
    0.3346   -0.9159   -2.6984 O   0  0  0  0  0  0  0  0  0  0  0  0
    0.8672   -0.6367   -0.2758 C   0  0  0  0  0  0  0  0  0  0  0  0
    0.0262   -1.7618    0.2422 N   0  0  0  0  0  0  0  0  0  0  0  0
   -1.3567   -1.2520    0.5395 C   0  0  2  0  0  0  0  0  0  0  0  0
   -2.4065   -1.6577   -0.5175 C   0  0  0  0  0  0  0  0  0  0  0  0
   -2.5763   -3.1504   -0.6766 C   0  0  0  0  0  0  0  0  0  0  0  0
   -2.1463   -3.7861   -1.8502 C   0  0  0  0  0  0  0  0  0  0  0  0
   -2.2906   -5.1657   -2.0007 C   0  0  0  0  0  0  0  0  0  0  0  0
   -2.8667   -5.9222   -0.9823 C   0  0  0  0  0  0  0  0  0  0  0  0
   -3.3004   -5.2998    0.1868 C   0  0  0  0  0  0  0  0  0  0  0  0
   -3.1574   -3.9198    0.3401 C   0  0  0  0  0  0  0  0  0  0  0  0
   -1.1536    0.2164    0.5775 C   0  0  0  0  0  0  0  0  0  0  0  0
    0.1107    0.5627    0.1074 C   0  0  0  0  0  0  0  0  0  0  0  0
    0.2092    1.9269    0.0718 C   0  0  0  0  0  0  0  0  0  0  0  0
    1.1788    2.6641   -0.4680 O   0  0  0  0  0  0  0  0  0  0  0  0
   -0.9597    2.4420    0.6687 N   0  0  0  0  0  0  0  0  0  0  0  0
   -1.2011    3.8165    0.9908 C   0  0  0  0  0  0  0  0  0  0  0  0
   -0.1299    4.6525    1.3515 C   0  0  0  0  0  0  0  0  0  0  0  0
   -0.3597    5.9937    1.6686 C   0  0  0  0  0  0  0  0  0  0  0  0
   -1.6538    6.4966    1.6311 C   0  0  0  0  0  0  0  0  0  0  0  0
   -1.8714    7.7825    1.9353 F   0  0  0  0  0  0  0  0  0  0  0  0
   -2.7255    5.6824    1.2884 C   0  0  0  0  0  0  0  0  0  0  0  0
   -2.5024    4.3392    0.9726 C   0  0  0  0  0  0  0  0  0  0  0  0
   -1.8291    1.3604    0.9141 C   0  0  0  0  0  0  0  0  0  0  0  0
   -3.0410    1.5126    1.4412 O   0  0  0  0  0  0  0  0  0  0  0  0
    5.0858   -0.5589   -2.6126 H   0  0  0  0  0  0  0  0  0  0  0  0
    6.1539   -1.5039   -1.5749 H   0  0  0  0  0  0  0  0  0  0  0  0
    6.2229    0.2823   -1.5727 H   0  0  0  0  0  0  0  0  0  0  0  0
    4.3674   -0.4146    2.9221 H   0  0  0  0  0  0  0  0  0  0  0  0
    1.9312   -0.5001    2.4376 H   0  0  0  0  0  0  0  0  0  0  0  0
    2.9632   -0.7719   -2.8652 H   0  0  0  0  0  0  0  0  0  0  0  0
   -0.0273   -2.4841   -0.4749 H   0  0  0  0  0  0  0  0  0  0  0  0
   -1.6461   -1.6218    1.5296 H   0  0  0  0  0  0  0  0  0  0  0  0
   -3.3824   -1.2304   -0.2486 H   0  0  0  0  0  0  0  0  0  0  0  0
   -2.1595   -1.2099   -1.4897 H   0  0  0  0  0  0  0  0  0  0  0  0
   -1.6939   -3.2095   -2.6561 H   0  0  0  0  0  0  0  0  0  0  0  0
   -1.9538   -5.6495   -2.9139 H   0  0  0  0  0  0  0  0  0  0  0  0
   -2.9788   -6.9967   -1.1004 H   0  0  0  0  0  0  0  0  0  0  0  0
   -3.7508   -5.8907    0.9802 H   0  0  0  0  0  0  0  0  0  0  0  0
   -3.5033   -3.4529    1.2590 H   0  0  0  0  0  0  0  0  0  0  0  0
    0.8170    3.5404   -0.6927 H   0  0  0  0  0  0  0  0  0  0  0  0
    0.8846    4.2697    1.4462 H   0  0  0  0  0  0  0  0  0  0  0  0
    0.4598    6.6435    1.9599 H   0  0  0  0  0  0  0  0  0  0  0  0
   -3.7291    6.0953    1.2670 H   0  0  0  0  0  0  0  0  0  0  0  0
   -3.3566    3.7316    0.6855 H   0  0  0  0  0  0  0  0  0  0  0  0
   -3.4123    0.6275    1.6003 H   0  0  0  0  0  0  0  0  0  0  0  0
  1  2  1  0
  2  3  2  0
  3  4  1  0
  3  5  1  0
  5  6  2  0
  6  7  1  0
  7  8  2  0
  8  9  1  0
  9 10  1  0
 10 11  2  0
 10 12  1  0
 12 13  1  0
 13 14  1  0
 14 15  1  0
 15 16  1  0
 16 17  2  0
 17 18  1  0
 18 19  2  0
 19 20  1  0
 20 21  2  0
 14 22  1  0
 22 23  1  0
 23 24  2  0
 24 25  1  0
 24 26  1  0
 26 27  1  0
 27 28  2  0
 28 29  1  0
 29 30  2  0
 30 31  1  0
 30 32  1  0
 32 33  2  0
 26 34  1  0
 34 35  1  0
  8  2  1  0
 23 12  1  0
 33 27  1  0
 12  7  1  0
 21 16  1  0
 34 22  2  0
  1 36  1  0
  1 37  1  0
  1 38  1  0
  5 39  1  0
  6 40  1  0
  9 41  1  0
 13 42  1  0
 14 43  1  1
 15 44  1  0
 15 45  1  0
 17 46  1  0
 18 47  1  0
 19 48  1  0
 20 49  1  0
 21 50  1  0
 25 51  1  0
 28 52  1  0
 29 53  1  0
 32 54  1  0
 33 55  1  0
 35 56  1  0
M  END
$$$$
