
     RDKit          3D

 39 40  0  0  0  0  0  0  0  0999 V2000
   -1.0043    2.1928    0.3325 O   0  0  0  0  0  0  0  0  0  0  0  0
   -1.0498    1.0833   -0.1846 C   0  0  0  0  0  0  0  0  0  0  0  0
    0.0397    0.5843   -1.1224 C   0  0  0  0  0  0  0  0  0  0  0  0
    1.2021    1.5709   -1.2353 C   0  0  0  0  0  0  0  0  0  0  0  0
    2.2525    1.1109   -2.2440 C   0  0  0  0  0  0  0  0  0  0  0  0
    2.7178   -0.2082   -1.9633 O   0  0  0  0  0  0  0  0  0  0  0  0
    3.7561   -0.3715   -1.0903 C   0  0  0  0  0  0  0  0  0  0  0  0
    4.3847    0.6305   -0.3513 C   0  0  0  0  0  0  0  0  0  0  0  0
    5.4365    0.3116    0.5144 C   0  0  0  0  0  0  0  0  0  0  0  0
    5.8639   -1.0082    0.6461 C   0  0  0  0  0  0  0  0  0  0  0  0
    5.2392   -2.0133   -0.0868 C   0  0  0  0  0  0  0  0  0  0  0  0
    4.1894   -1.6935   -0.9495 C   0  0  0  0  0  0  0  0  0  0  0  0
   -2.0533    0.1367   -0.0328 N   0  0  0  0  0  0  0  0  0  0  0  0
   -3.2331    0.2235    0.7473 C   0  0  0  0  0  0  0  0  0  0  0  0
   -3.5367    1.3632    1.5052 C   0  0  0  0  0  0  0  0  0  0  0  0
   -4.7036    1.4386    2.2720 C   0  0  0  0  0  0  0  0  0  0  0  0
   -5.5928    0.3740    2.2968 C   0  0  0  0  0  0  0  0  0  0  0  0
   -5.3121   -0.7671    1.5524 C   0  0  0  0  0  0  0  0  0  0  0  0
   -4.1378   -0.8602    0.7721 C   0  0  0  0  0  0  0  0  0  0  0  0
   -3.9339   -2.1421    0.0050 C   0  0  0  0  0  0  0  0  0  0  0  0
   -4.9437   -2.3907   -0.8755 F   0  0  0  0  0  0  0  0  0  0  0  0
   -3.8724   -3.2340    0.8174 F   0  0  0  0  0  0  0  0  0  0  0  0
   -2.7876   -2.1752   -0.7376 F   0  0  0  0  0  0  0  0  0  0  0  0
   -0.4101    0.4237   -2.1093 H   0  0  0  0  0  0  0  0  0  0  0  0
    0.3998   -0.3801   -0.7454 H   0  0  0  0  0  0  0  0  0  0  0  0
    0.8325    2.5589   -1.5348 H   0  0  0  0  0  0  0  0  0  0  0  0
    1.6558    1.6897   -0.2447 H   0  0  0  0  0  0  0  0  0  0  0  0
    1.7875    1.0662   -3.2363 H   0  0  0  0  0  0  0  0  0  0  0  0
    3.0747    1.8292   -2.3392 H   0  0  0  0  0  0  0  0  0  0  0  0
    4.0816    1.6695   -0.4152 H   0  0  0  0  0  0  0  0  0  0  0  0
    5.9210    1.0975    1.0886 H   0  0  0  0  0  0  0  0  0  0  0  0
    6.6811   -1.2520    1.3198 H   0  0  0  0  0  0  0  0  0  0  0  0
    5.5663   -3.0448    0.0113 H   0  0  0  0  0  0  0  0  0  0  0  0
    3.7047   -2.4820   -1.5199 H   0  0  0  0  0  0  0  0  0  0  0  0
   -1.9101   -0.7297   -0.5462 H   0  0  0  0  0  0  0  0  0  0  0  0
   -2.8798    2.2275    1.5268 H   0  0  0  0  0  0  0  0  0  0  0  0
   -4.9101    2.3368    2.8494 H   0  0  0  0  0  0  0  0  0  0  0  0
   -6.4998    0.4325    2.8932 H   0  0  0  0  0  0  0  0  0  0  0  0
   -6.0159   -1.5992    1.5776 H   0  0  0  0  0  0  0  0  0  0  0  0
  1  2  2  0
  2  3  1  0
  3  4  1  0
  4  5  1  0
  5  6  1  0
  6  7  1  0
  7  8  2  0
  8  9  1  0
  9 10  2  0
 10 11  1  0
 11 12  2  0
  2 13  1  0
 13 14  1  0
 14 15  2  0
 15 16  1  0
 16 17  2  0
 17 18  1  0
 18 19  2  0
 19 20  1  0
 20 21  1  0
 20 22  1  0
 20 23  1  0
 12  7  1  0
 19 14  1  0
  3 24  1  0
  3 25  1  0
  4 26  1  0
  4 27  1  0
  5 28  1  0
  5 29  1  0
  8 30  1  0
  9 31  1  0
 10 32  1  0
 11 33  1  0
 12 34  1  0
 13 35  1  0
 15 36  1  0
 16 37  1  0
 17 38  1  0
 18 39  1  0
M  END
$$$$
