
     RDKit          3D

 37 39  0  0  0  0  0  0  0  0999 V2000
   -7.7876    3.0244    0.8797 C   0  0  0  0  0  0  0  0  0  0  0  0
   -6.4867    2.9643    1.4503 O   0  0  0  0  0  0  0  0  0  0  0  0
   -5.5244    2.3115    0.7325 C   0  0  0  0  0  0  0  0  0  0  0  0
   -4.2673    2.2778    1.3339 C   0  0  0  0  0  0  0  0  0  0  0  0
   -3.1928    1.6406    0.7048 C   0  0  0  0  0  0  0  0  0  0  0  0
   -3.3475    1.0187   -0.5444 C   0  0  0  0  0  0  0  0  0  0  0  0
   -2.1804    0.3647   -1.1560 C   0  0  0  0  0  0  0  0  0  0  0  0
   -0.9679    0.3325   -0.6380 N   0  0  0  0  0  0  0  0  0  0  0  0
   -0.1229   -0.3686   -1.4699 C   0  0  0  0  0  0  0  0  0  0  0  0
    1.2016   -0.5551   -1.1705 N   0  0  0  0  0  0  0  0  0  0  0  0
    1.8246   -0.1343   -0.0165 C   0  0  0  0  0  0  0  0  0  0  0  0
    1.3067    0.4609    0.9242 O   0  0  0  0  0  0  0  0  0  0  0  0
    3.3034   -0.4761    0.0038 C   0  0  0  0  0  0  0  0  0  0  0  0
    3.5104   -2.2343    0.4082 S   0  0  0  0  0  0  0  0  0  0  0  0
    5.2522   -2.3519    0.3685 C   0  0  0  0  0  0  0  0  0  0  0  0
    6.0154   -1.4135   -0.1470 N   0  0  0  0  0  0  0  0  0  0  0  0
    7.3565   -1.7337   -0.0719 N   0  0  0  0  0  0  0  0  0  0  0  0
    7.5532   -2.9051    0.4963 C   0  0  0  0  0  0  0  0  0  0  0  0
    8.8804   -3.5284    0.7254 C   0  0  0  0  0  0  0  0  0  0  0  0
    6.1097   -3.7054    0.9751 S   0  0  0  0  0  0  0  0  0  0  0  0
   -0.6045   -0.8727   -2.6063 N   0  0  0  0  0  0  0  0  0  0  0  0
   -2.2212   -0.4710   -2.6591 S   0  0  0  0  0  0  0  0  0  0  0  0
   -4.6182    1.0603   -1.1396 C   0  0  0  0  0  0  0  0  0  0  0  0
   -5.6962    1.7002   -0.5077 C   0  0  0  0  0  0  0  0  0  0  0  0
   -7.7774    3.5706   -0.0693 H   0  0  0  0  0  0  0  0  0  0  0  0
   -8.4318    3.5738    1.5730 H   0  0  0  0  0  0  0  0  0  0  0  0
   -8.2107    2.0222    0.7551 H   0  0  0  0  0  0  0  0  0  0  0  0
   -4.1172    2.7506    2.3018 H   0  0  0  0  0  0  0  0  0  0  0  0
   -2.2229    1.6328    1.2037 H   0  0  0  0  0  0  0  0  0  0  0  0
    1.7004   -1.0973   -1.8598 H   0  0  0  0  0  0  0  0  0  0  0  0
    3.7977    0.1485    0.7552 H   0  0  0  0  0  0  0  0  0  0  0  0
    3.7391   -0.2469   -0.9748 H   0  0  0  0  0  0  0  0  0  0  0  0
    9.0475   -3.7091    1.7919 H   0  0  0  0  0  0  0  0  0  0  0  0
    8.9612   -4.4802    0.1909 H   0  0  0  0  0  0  0  0  0  0  0  0
    9.6792   -2.8718    0.3661 H   0  0  0  0  0  0  0  0  0  0  0  0
   -4.8063    0.6002   -2.1064 H   0  0  0  0  0  0  0  0  0  0  0  0
   -6.6554    1.7009   -1.0151 H   0  0  0  0  0  0  0  0  0  0  0  0
  1  2  1  0
  2  3  1  0
  3  4  2  0
  4  5  1  0
  5  6  2  0
  6  7  1  0
  7  8  2  0
  8  9  1  0
  9 10  1  0
 10 11  1  0
 11 12  2  0
 11 13  1  0
 13 14  1  0
 14 15  1  0
 15 16  2  0
 16 17  1  0
 17 18  2  0
 18 19  1  0
 18 20  1  0
  9 21  2  0
 21 22  1  0
  6 23  1  0
 23 24  2  0
 24  3  1  0
 22  7  1  0
 20 15  1  0
  1 25  1  0
  1 26  1  0
  1 27  1  0
  4 28  1  0
  5 29  1  0
 10 30  1  0
 13 31  1  0
 13 32  1  0
 19 33  1  0
 19 34  1  0
 19 35  1  0
 23 36  1  0
 24 37  1  0
M  END
$$$$
