
     RDKit          3D

 58 60  0  0  0  0  0  0  0  0999 V2000
    8.2006    3.5185    1.0142 C   0  0  0  0  0  0  0  0  0  0  0  0
    6.9038    3.4412    0.3206 C   0  0  0  0  0  0  0  0  0  0  0  0
    5.8143    2.6114    0.4107 C   0  0  0  0  0  0  0  0  0  0  0  0
    4.9128    3.1033   -0.5586 C   0  0  0  0  0  0  0  0  0  0  0  0
    3.6587    2.6499   -0.9018 N   0  0  0  0  0  0  0  0  0  0  0  0
    3.0259    1.5627   -0.3449 C   0  0  0  0  0  0  0  0  0  0  0  0
    3.4791    0.8405    0.5369 O   0  0  0  0  0  0  0  0  0  0  0  0
    1.6532    1.3392   -0.9468 C   0  0  0  0  0  0  0  0  0  0  0  0
    0.9914    0.0842   -0.3850 C   0  0  0  0  0  0  0  0  0  0  0  0
   -0.3702   -0.1521   -1.0078 C   0  0  0  0  0  0  0  0  0  0  0  0
   -0.9067    0.7134   -1.7059 O   0  0  0  0  0  0  0  0  0  0  0  0
   -1.0032   -1.3573   -0.7420 N   0  0  0  0  0  0  0  0  0  0  0  0
   -2.3204   -1.5936   -1.3540 C   0  0  0  0  0  0  0  0  0  0  0  0
   -3.4629   -1.0579   -0.4830 C   0  0  0  0  0  0  0  0  0  0  0  0
   -4.4155   -1.7583   -0.1511 O   0  0  0  0  0  0  0  0  0  0  0  0
   -3.3469    0.2801   -0.1578 N   0  0  0  0  0  0  0  0  0  0  0  0
   -4.3990    0.9890    0.5353 C   0  0  0  0  0  0  0  0  0  0  0  0
   -4.0936    2.4778    0.6732 C   0  0  0  0  0  0  0  0  0  0  0  0
   -5.0195    2.9126    1.7954 C   0  0  0  0  0  0  0  0  0  0  0  0
   -4.9512    1.7645    2.7936 C   0  0  0  0  0  0  0  0  0  0  0  0
   -4.5962    0.5178    1.9817 C   0  0  0  0  0  0  0  0  0  0  0  0
   -0.6064   -2.2799    0.3261 C   0  0  0  0  0  0  0  0  0  0  0  0
   -0.3141   -3.6728   -0.1836 C   0  0  0  0  0  0  0  0  0  0  0  0
    0.7391   -3.8982   -1.0858 C   0  0  0  0  0  0  0  0  0  0  0  0
    1.0141   -5.1876   -1.5436 C   0  0  0  0  0  0  0  0  0  0  0  0
    0.2403   -6.2521   -1.0996 C   0  0  0  0  0  0  0  0  0  0  0  0
    0.5094   -7.4897   -1.5350 F   0  0  0  0  0  0  0  0  0  0  0  0
   -0.8066   -6.0524   -0.2080 C   0  0  0  0  0  0  0  0  0  0  0  0
   -1.0850   -4.7635    0.2507 C   0  0  0  0  0  0  0  0  0  0  0  0
    5.4234    4.1666   -1.1910 N   0  0  0  0  0  0  0  0  0  0  0  0
    6.6755    4.3730   -0.6440 O   0  0  0  0  0  0  0  0  0  0  0  0
    9.0172    3.2759    0.3254 H   0  0  0  0  0  0  0  0  0  0  0  0
    8.2400    2.8162    1.8529 H   0  0  0  0  0  0  0  0  0  0  0  0
    8.3699    4.5276    1.4068 H   0  0  0  0  0  0  0  0  0  0  0  0
    5.6934    1.7733    1.0803 H   0  0  0  0  0  0  0  0  0  0  0  0
    3.2158    3.1881   -1.6344 H   0  0  0  0  0  0  0  0  0  0  0  0
    1.7579    1.2528   -2.0351 H   0  0  0  0  0  0  0  0  0  0  0  0
    1.0373    2.2211   -0.7335 H   0  0  0  0  0  0  0  0  0  0  0  0
    1.6319   -0.7826   -0.5805 H   0  0  0  0  0  0  0  0  0  0  0  0
    0.8635    0.1942    0.6981 H   0  0  0  0  0  0  0  0  0  0  0  0
   -2.4638   -2.6659   -1.5178 H   0  0  0  0  0  0  0  0  0  0  0  0
   -2.3788   -1.1012   -2.3315 H   0  0  0  0  0  0  0  0  0  0  0  0
   -2.6952    0.8166   -0.7296 H   0  0  0  0  0  0  0  0  0  0  0  0
   -5.3325    0.8490   -0.0257 H   0  0  0  0  0  0  0  0  0  0  0  0
   -3.0458    2.6424    0.9575 H   0  0  0  0  0  0  0  0  0  0  0  0
   -4.2798    3.0271   -0.2551 H   0  0  0  0  0  0  0  0  0  0  0  0
   -6.0445    3.0216    1.4187 H   0  0  0  0  0  0  0  0  0  0  0  0
   -4.7180    3.8666    2.2397 H   0  0  0  0  0  0  0  0  0  0  0  0
   -5.8951    1.6450    3.3351 H   0  0  0  0  0  0  0  0  0  0  0  0
   -4.1678    1.9548    3.5369 H   0  0  0  0  0  0  0  0  0  0  0  0
   -5.3917   -0.2335    2.0427 H   0  0  0  0  0  0  0  0  0  0  0  0
   -3.6873    0.0583    2.3881 H   0  0  0  0  0  0  0  0  0  0  0  0
    0.2752   -1.9248    0.8659 H   0  0  0  0  0  0  0  0  0  0  0  0
   -1.4191   -2.2964    1.0627 H   0  0  0  0  0  0  0  0  0  0  0  0
    1.3520   -3.0712   -1.4366 H   0  0  0  0  0  0  0  0  0  0  0  0
    1.8274   -5.3685   -2.2394 H   0  0  0  0  0  0  0  0  0  0  0  0
   -1.3966   -6.8996    0.1267 H   0  0  0  0  0  0  0  0  0  0  0  0
   -1.9093   -4.6172    0.9468 H   0  0  0  0  0  0  0  0  0  0  0  0
  1  2  1  0
  2  3  2  0
  3  4  1  0
  4  5  1  0
  5  6  1  0
  6  7  2  0
  6  8  1  0
  8  9  1  0
  9 10  1  0
 10 11  2  0
 10 12  1  0
 12 13  1  0
 13 14  1  0
 14 15  2  0
 14 16  1  0
 16 17  1  0
 17 18  1  0
 18 19  1  0
 19 20  1  0
 20 21  1  0
 12 22  1  0
 22 23  1  0
 23 24  2  0
 24 25  1  0
 25 26  2  0
 26 27  1  0
 26 28  1  0
 28 29  2  0
  4 30  2  0
 30 31  1  0
 31  2  1  0
 21 17  1  0
 29 23  1  0
  1 32  1  0
  1 33  1  0
  1 34  1  0
  3 35  1  0
  5 36  1  0
  8 37  1  0
  8 38  1  0
  9 39  1  0
  9 40  1  0
 13 41  1  0
 13 42  1  0
 16 43  1  0
 17 44  1  0
 18 45  1  0
 18 46  1  0
 19 47  1  0
 19 48  1  0
 20 49  1  0
 20 50  1  0
 21 51  1  0
 21 52  1  0
 22 53  1  0
 22 54  1  0
 24 55  1  0
 25 56  1  0
 28 57  1  0
 29 58  1  0
M  END
$$$$
