
     RDKit          3D

 31 32  0  0  0  0  0  0  0  0999 V2000
    4.8168    1.3726    0.9584 O   0  0  0  0  0  0  0  0  0  0  0  0
    4.7950    0.3449    0.2816 C   0  0  0  0  0  0  0  0  0  0  0  0
    3.6536   -0.3647   -0.0750 N   0  0  0  0  0  0  0  0  0  0  0  0
    2.3144   -0.0712    0.2475 C   0  0  0  0  0  0  0  0  0  0  0  0
    1.3362   -0.9491   -0.2297 C   0  0  0  0  0  0  0  0  0  0  0  0
   -0.0197   -0.7295    0.0449 C   0  0  0  0  0  0  0  0  0  0  0  0
   -0.4322    0.3642    0.8085 C   0  0  0  0  0  0  0  0  0  0  0  0
   -1.7807    0.6457    1.0803 N   0  0  0  0  0  0  0  0  0  0  0  0
   -2.9682    0.3121    0.4058 C   0  0  0  0  0  0  0  0  0  0  0  0
   -4.1581    0.2059    1.1408 C   0  0  0  0  0  0  0  0  0  0  0  0
   -5.3580   -0.1608    0.5243 C   0  0  0  0  0  0  0  0  0  0  0  0
   -5.3841   -0.4323   -0.8405 C   0  0  0  0  0  0  0  0  0  0  0  0
   -4.2119   -0.3371   -1.5853 C   0  0  0  0  0  0  0  0  0  0  0  0
   -3.0137    0.0279   -0.9636 C   0  0  0  0  0  0  0  0  0  0  0  0
    0.5537    1.2409    1.2771 C   0  0  0  0  0  0  0  0  0  0  0  0
    1.9120    1.0272    1.0033 C   0  0  0  0  0  0  0  0  0  0  0  0
    6.0978   -0.2594   -0.2438 C   0  0  0  0  0  0  0  0  0  0  0  0
    6.2968   -1.9003    0.4112 Cl  0  0  0  0  0  0  0  0  0  0  0  0
    6.0560   -0.3071   -2.0207 Cl  0  0  0  0  0  0  0  0  0  0  0  0
    3.8034   -1.1978   -0.6357 H   0  0  0  0  0  0  0  0  0  0  0  0
    1.6063   -1.8217   -0.8187 H   0  0  0  0  0  0  0  0  0  0  0  0
   -0.7475   -1.4492   -0.3202 H   0  0  0  0  0  0  0  0  0  0  0  0
   -1.9266    1.2001    1.9163 H   0  0  0  0  0  0  0  0  0  0  0  0
   -4.1578    0.3977    2.2108 H   0  0  0  0  0  0  0  0  0  0  0  0
   -6.2685   -0.2381    1.1124 H   0  0  0  0  0  0  0  0  0  0  0  0
   -6.3154   -0.7165   -1.3230 H   0  0  0  0  0  0  0  0  0  0  0  0
   -4.2267   -0.5412   -2.6527 H   0  0  0  0  0  0  0  0  0  0  0  0
   -2.1199    0.1223   -1.5739 H   0  0  0  0  0  0  0  0  0  0  0  0
    0.2747    2.1175    1.8572 H   0  0  0  0  0  0  0  0  0  0  0  0
    2.6231    1.7466    1.3958 H   0  0  0  0  0  0  0  0  0  0  0  0
    6.9490    0.3505    0.0712 H   0  0  0  0  0  0  0  0  0  0  0  0
  1  2  2  0
  2  3  1  0
  3  4  1  0
  4  5  2  0
  5  6  1  0
  6  7  2  0
  7  8  1  0
  8  9  1  0
  9 10  2  0
 10 11  1  0
 11 12  2  0
 12 13  1  0
 13 14  2  0
  7 15  1  0
 15 16  2  0
  2 17  1  0
 17 18  1  0
 17 19  1  0
 16  4  1  0
 14  9  1  0
  3 20  1  0
  5 21  1  0
  6 22  1  0
  8 23  1  0
 10 24  1  0
 11 25  1  0
 12 26  1  0
 13 27  1  0
 14 28  1  0
 15 29  1  0
 16 30  1  0
 17 31  1  0
M  END
$$$$
