
     RDKit          3D

 48 52  0  0  0  0  0  0  0  0999 V2000
   -3.5026   -3.0240   -0.7783 C   0  0  0  0  0  0  0  0  0  0  0  0
   -2.8778   -1.8309   -0.2532 N   0  0  0  0  0  0  0  0  0  0  0  0
   -1.6268   -1.3945   -0.5913 C   0  0  0  0  0  0  0  0  0  0  0  0
   -1.3598   -0.2183    0.0956 C   0  0  0  0  0  0  0  0  0  0  0  0
   -0.1150    0.6430    0.0592 C   0  0  0  0  0  0  0  0  0  0  0  0
   -0.0645    1.2761   -1.3289 C   0  0  0  0  0  0  0  0  0  0  0  0
    0.3577    0.5775   -2.4660 C   0  0  0  0  0  0  0  0  0  0  0  0
    0.3777    1.2223   -3.7004 C   0  0  0  0  0  0  0  0  0  0  0  0
   -0.0240    2.5478   -3.7826 C   0  0  0  0  0  0  0  0  0  0  0  0
   -0.4270    3.1791   -2.6203 C   0  0  0  0  0  0  0  0  0  0  0  0
   -0.4516    2.5832   -1.4084 N   0  0  0  0  0  0  0  0  0  0  0  0
    1.2092   -0.0385    0.3360 C   0  0  0  0  0  0  0  0  0  0  0  0
    1.4425   -1.3640    0.6691 C   0  0  0  0  0  0  0  0  0  0  0  0
    2.7841   -1.5443    0.8654 N   0  0  0  0  0  0  0  0  0  0  0  0
    3.4004   -2.8015    1.2252 C   0  0  0  0  0  0  0  0  0  0  0  0
    3.4570   -0.3561    0.6960 C   0  0  0  0  0  0  0  0  0  0  0  0
    4.8230   -0.0476    0.8055 C   0  0  0  0  0  0  0  0  0  0  0  0
    5.2189    1.2749    0.5895 C   0  0  0  0  0  0  0  0  0  0  0  0
    4.2855    2.2572    0.2776 C   0  0  0  0  0  0  0  0  0  0  0  0
    2.9277    1.9388    0.1710 C   0  0  0  0  0  0  0  0  0  0  0  0
    2.4976    0.6091    0.3776 C   0  0  0  0  0  0  0  0  0  0  0  0
   -2.5331    0.0513    0.8863 C   0  0  0  0  0  0  0  0  0  0  0  0
   -2.8907    1.0833    1.7819 C   0  0  0  0  0  0  0  0  0  0  0  0
   -4.1389    1.0587    2.4134 C   0  0  0  0  0  0  0  0  0  0  0  0
   -5.0354    0.0252    2.1658 C   0  0  0  0  0  0  0  0  0  0  0  0
   -4.7122   -1.0071    1.2816 C   0  0  0  0  0  0  0  0  0  0  0  0
   -3.4564   -0.9722    0.6530 C   0  0  0  0  0  0  0  0  0  0  0  0
   -4.4212   -2.7350   -1.2952 H   0  0  0  0  0  0  0  0  0  0  0  0
   -3.7213   -3.6958    0.0556 H   0  0  0  0  0  0  0  0  0  0  0  0
   -2.8237   -3.5157   -1.4798 H   0  0  0  0  0  0  0  0  0  0  0  0
   -1.0180   -1.9491   -1.2928 H   0  0  0  0  0  0  0  0  0  0  0  0
   -0.2134    1.4479    0.7996 H   0  0  0  0  0  0  0  0  0  0  0  0
    0.6794   -0.4564   -2.3939 H   0  0  0  0  0  0  0  0  0  0  0  0
    0.7071    0.6910   -4.5882 H   0  0  0  0  0  0  0  0  0  0  0  0
   -0.0220    3.0769   -4.7283 H   0  0  0  0  0  0  0  0  0  0  0  0
   -0.7513    4.2154   -2.6307 H   0  0  0  0  0  0  0  0  0  0  0  0
    0.7515   -2.1878    0.7927 H   0  0  0  0  0  0  0  0  0  0  0  0
    4.1258   -3.0649    0.4512 H   0  0  0  0  0  0  0  0  0  0  0  0
    2.6357   -3.5794    1.2935 H   0  0  0  0  0  0  0  0  0  0  0  0
    3.8929   -2.6813    2.1935 H   0  0  0  0  0  0  0  0  0  0  0  0
    5.5572   -0.8066    1.0544 H   0  0  0  0  0  0  0  0  0  0  0  0
    6.2706    1.5390    0.6696 H   0  0  0  0  0  0  0  0  0  0  0  0
    4.6090    3.2820    0.1144 H   0  0  0  0  0  0  0  0  0  0  0  0
    2.2104    2.7177   -0.0752 H   0  0  0  0  0  0  0  0  0  0  0  0
   -2.2051    1.9021    1.9809 H   0  0  0  0  0  0  0  0  0  0  0  0
   -4.4074    1.8573    3.1001 H   0  0  0  0  0  0  0  0  0  0  0  0
   -6.0021    0.0215    2.6633 H   0  0  0  0  0  0  0  0  0  0  0  0
   -5.4194   -1.8073    1.0905 H   0  0  0  0  0  0  0  0  0  0  0  0
  1  2  1  0
  2  3  1  0
  3  4  2  0
  4  5  1  0
  5  6  1  0
  6  7  2  0
  7  8  1  0
  8  9  2  0
  9 10  1  0
 10 11  2  0
  5 12  1  0
 12 13  2  0
 13 14  1  0
 14 15  1  0
 14 16  1  0
 16 17  2  0
 17 18  1  0
 18 19  2  0
 19 20  1  0
 20 21  2  0
  4 22  1  0
 22 23  2  0
 23 24  1  0
 24 25  2  0
 25 26  1  0
 26 27  2  0
 27  2  1  0
 11  6  1  0
 21 12  1  0
 27 22  1  0
 21 16  1  0
  1 28  1  0
  1 29  1  0
  1 30  1  0
  3 31  1  0
  5 32  1  0
  7 33  1  0
  8 34  1  0
  9 35  1  0
 10 36  1  0
 13 37  1  0
 15 38  1  0
 15 39  1  0
 15 40  1  0
 17 41  1  0
 18 42  1  0
 19 43  1  0
 20 44  1  0
 23 45  1  0
 24 46  1  0
 25 47  1  0
 26 48  1  0
M  END
$$$$
