
     RDKit          3D

 46 49  0  0  0  0  0  0  0  0999 V2000
   -4.6557   -3.9786   -1.3839 C   0  0  0  0  0  0  0  0  0  0  0  0
   -4.1134   -2.6648   -1.4466 O   0  0  0  0  0  0  0  0  0  0  0  0
   -3.5210   -2.1886   -0.3088 C   0  0  0  0  0  0  0  0  0  0  0  0
   -3.5728   -2.7875    0.9510 C   0  0  0  0  0  0  0  0  0  0  0  0
   -2.9161   -2.1983    2.0349 C   0  0  0  0  0  0  0  0  0  0  0  0
   -2.2099   -1.0076    1.8652 C   0  0  0  0  0  0  0  0  0  0  0  0
   -2.1648   -0.3921    0.6104 C   0  0  0  0  0  0  0  0  0  0  0  0
   -1.4209    0.8484    0.4282 C   0  0  0  0  0  0  0  0  0  0  0  0
   -0.0836    1.0466    0.1101 C   0  0  0  0  0  0  0  0  0  0  0  0
    0.9560    0.0540   -0.1479 C   0  0  0  0  0  0  0  0  0  0  0  0
    0.7526   -1.1552   -0.1134 O   0  0  0  0  0  0  0  0  0  0  0  0
    2.1827    0.6457   -0.4247 N   0  0  0  0  0  0  0  0  0  0  0  0
    3.2815   -0.1229   -0.6692 N   0  0  0  0  0  0  0  0  0  0  0  0
    4.4333    0.4421   -0.8996 C   0  0  0  0  0  0  0  0  0  0  0  0
    4.6253    1.9453   -0.9342 C   0  0  0  0  0  0  0  0  0  0  0  0
    5.5641   -0.4567   -1.1094 C   0  0  0  0  0  0  0  0  0  0  0  0
    5.5103   -1.8109   -1.4129 C   0  0  0  0  0  0  0  0  0  0  0  0
    6.8002   -2.4051   -1.5366 C   0  0  0  0  0  0  0  0  0  0  0  0
    7.7848   -1.4827   -1.3056 C   0  0  0  0  0  0  0  0  0  0  0  0
    9.4792   -1.7571   -1.3442 Cl  0  0  0  0  0  0  0  0  0  0  0  0
    7.1928    0.0606   -0.9552 S   0  0  0  0  0  0  0  0  0  0  0  0
    0.1792    2.3923    0.0684 N   0  0  0  0  0  0  0  0  0  0  0  0
   -0.9347    3.0416    0.3505 N   0  0  0  0  0  0  0  0  0  0  0  0
   -1.9392    2.1383    0.5713 N   0  0  0  0  0  0  0  0  0  0  0  0
   -3.2576    2.5624    0.8773 C   0  0  0  0  0  0  0  0  0  0  0  0
   -4.2524    1.6870    1.0235 N   0  0  0  0  0  0  0  0  0  0  0  0
   -5.3681    2.4778    1.2877 O   0  0  0  0  0  0  0  0  0  0  0  0
   -5.0373    3.8285    1.3005 N   0  0  0  0  0  0  0  0  0  0  0  0
   -3.7288    3.8776    1.0532 C   0  0  0  0  0  0  0  0  0  0  0  0
   -3.0114    5.0146    0.9894 N   0  0  0  0  0  0  0  0  0  0  0  0
   -2.8203   -0.9901   -0.4725 C   0  0  0  0  0  0  0  0  0  0  0  0
   -3.8924   -4.7072   -1.0875 H   0  0  0  0  0  0  0  0  0  0  0  0
   -5.0019   -4.2442   -2.3870 H   0  0  0  0  0  0  0  0  0  0  0  0
   -5.5197   -4.0139   -0.7124 H   0  0  0  0  0  0  0  0  0  0  0  0
   -4.1151   -3.7114    1.1220 H   0  0  0  0  0  0  0  0  0  0  0  0
   -2.9526   -2.6701    3.0134 H   0  0  0  0  0  0  0  0  0  0  0  0
   -1.6957   -0.5728    2.7176 H   0  0  0  0  0  0  0  0  0  0  0  0
    2.2420    1.6583   -0.4008 H   0  0  0  0  0  0  0  0  0  0  0  0
    4.5255    2.3436    0.0801 H   0  0  0  0  0  0  0  0  0  0  0  0
    5.5936    2.2463   -1.3361 H   0  0  0  0  0  0  0  0  0  0  0  0
    3.8636    2.4004   -1.5743 H   0  0  0  0  0  0  0  0  0  0  0  0
    4.5748   -2.3477   -1.5428 H   0  0  0  0  0  0  0  0  0  0  0  0
    6.9829   -3.4474   -1.7727 H   0  0  0  0  0  0  0  0  0  0  0  0
   -2.0602    5.0278    0.6280 H   0  0  0  0  0  0  0  0  0  0  0  0
   -3.4938    5.9077    0.9596 H   0  0  0  0  0  0  0  0  0  0  0  0
   -2.7851   -0.5341   -1.4595 H   0  0  0  0  0  0  0  0  0  0  0  0
  1  2  1  0
  2  3  1  0
  3  4  2  0
  4  5  1  0
  5  6  2  0
  6  7  1  0
  7  8  1  0
  8  9  2  0
  9 10  1  0
 10 11  2  0
 10 12  1  0
 12 13  1  0
 13 14  2  3
 14 15  1  0
 14 16  1  0
 16 17  2  0
 17 18  1  0
 18 19  2  0
 19 20  1  0
 19 21  1  0
  9 22  1  0
 22 23  2  0
 23 24  1  0
 24 25  1  0
 25 26  2  0
 26 27  1  0
 27 28  1  0
 28 29  2  0
 29 30  1  0
  7 31  2  0
 31  3  1  0
 24  8  1  0
 29 25  1  0
 21 16  1  0
  1 32  1  0
  1 33  1  0
  1 34  1  0
  4 35  1  0
  5 36  1  0
  6 37  1  0
 12 38  1  0
 15 39  1  0
 15 40  1  0
 15 41  1  0
 17 42  1  0
 18 43  1  0
 30 44  1  0
 30 45  1  0
 31 46  1  0
M  END
$$$$
