
     RDKit          3D

 38 40  0  0  0  0  0  0  0  0999 V2000
   -2.5140   -2.7851   -0.6424 C   0  0  0  0  0  0  0  0  0  0  0  0
   -3.0129   -1.4434   -0.1851 C   0  0  0  0  0  0  0  0  0  0  0  0
   -3.7642   -1.3833    1.0023 C   0  0  0  0  0  0  0  0  0  0  0  0
   -4.2644   -0.1701    1.4663 C   0  0  0  0  0  0  0  0  0  0  0  0
   -4.9826   -0.1424    2.5962 F   0  0  0  0  0  0  0  0  0  0  0  0
   -4.0356    1.0095    0.7736 C   0  0  0  0  0  0  0  0  0  0  0  0
   -3.2830    0.9783   -0.3993 C   0  0  0  0  0  0  0  0  0  0  0  0
   -2.7599   -0.2392   -0.8740 C   0  0  0  0  0  0  0  0  0  0  0  0
   -1.7619   -0.1819   -2.3587 S   0  0  0  0  0  6  0  0  0  0  0  0
   -2.6850    0.0029   -3.4582 O   0  0  0  0  0  0  0  0  0  0  0  0
   -0.8027   -1.2636   -2.3514 O   0  0  0  0  0  0  0  0  0  0  0  0
   -0.9144    1.2607   -2.2223 N   0  0  0  0  0  0  0  0  0  0  0  0
    0.2374    1.4439   -1.4020 C   0  0  0  0  0  0  0  0  0  0  0  0
    1.0312    2.5623   -1.6732 C   0  0  0  0  0  0  0  0  0  0  0  0
    2.1378    2.8573   -0.8766 C   0  0  0  0  0  0  0  0  0  0  0  0
    2.4485    2.0423    0.2069 C   0  0  0  0  0  0  0  0  0  0  0  0
    3.5559    2.3959    0.9269 O   0  0  0  0  0  0  0  0  0  0  0  0
    1.6501    0.9360    0.5221 C   0  0  0  0  0  0  0  0  0  0  0  0
    1.9064   -0.0849    1.9677 S   0  0  0  0  0  0  0  0  0  0  0  0
    3.4256   -0.8538    1.6103 C   0  0  0  0  0  0  0  0  0  0  0  0
    3.5664   -2.2002    1.4324 N   0  0  0  0  0  0  0  0  0  0  0  0
    4.8517   -2.3367    1.2086 C   0  0  0  0  0  0  0  0  0  0  0  0
    5.4541   -1.1202    1.2661 N   0  0  0  0  0  0  0  0  0  0  0  0
    4.5626   -0.1486    1.5344 N   0  0  0  0  0  0  0  0  0  0  0  0
    0.5370    0.6537   -0.2878 C   0  0  0  0  0  0  0  0  0  0  0  0
   -1.4427   -2.8811   -0.4435 H   0  0  0  0  0  0  0  0  0  0  0  0
   -3.0223   -3.5982   -0.1121 H   0  0  0  0  0  0  0  0  0  0  0  0
   -2.7184   -2.9356   -1.7069 H   0  0  0  0  0  0  0  0  0  0  0  0
   -3.9743   -2.2817    1.5776 H   0  0  0  0  0  0  0  0  0  0  0  0
   -4.4409    1.9429    1.1514 H   0  0  0  0  0  0  0  0  0  0  0  0
   -3.1100    1.9073   -0.9374 H   0  0  0  0  0  0  0  0  0  0  0  0
   -1.0442    1.8636   -3.0331 H   0  0  0  0  0  0  0  0  0  0  0  0
    0.8040    3.2172   -2.5102 H   0  0  0  0  0  0  0  0  0  0  0  0
    2.7583    3.7214   -1.0990 H   0  0  0  0  0  0  0  0  0  0  0  0
    3.8739    1.5938    1.3965 H   0  0  0  0  0  0  0  0  0  0  0  0
    5.3821   -3.2570    1.0089 H   0  0  0  0  0  0  0  0  0  0  0  0
    6.4324   -0.8834    1.1400 H   0  0  0  0  0  0  0  0  0  0  0  0
   -0.0821   -0.1984   -0.0262 H   0  0  0  0  0  0  0  0  0  0  0  0
  1  2  1  0
  2  3  2  0
  3  4  1  0
  4  5  1  0
  4  6  2  0
  6  7  1  0
  7  8  2  0
  8  9  1  0
  9 10  2  0
  9 11  2  0
  9 12  1  0
 12 13  1  0
 13 14  2  0
 14 15  1  0
 15 16  2  0
 16 17  1  0
 16 18  1  0
 18 19  1  0
 19 20  1  0
 20 21  1  0
 21 22  2  0
 22 23  1  0
 23 24  1  0
 18 25  2  0
  8  2  1  0
 25 13  1  0
 24 20  2  0
  1 26  1  0
  1 27  1  0
  1 28  1  0
  3 29  1  0
  6 30  1  0
  7 31  1  0
 12 32  1  0
 14 33  1  0
 15 34  1  0
 17 35  1  0
 22 36  1  0
 23 37  1  0
 25 38  1  0
M  END
$$$$
