
     RDKit          3D

 42 44  0  0  0  0  0  0  0  0999 V2000
   -3.6214   -0.2608   -2.5545 C   0  0  0  0  0  0  0  0  0  0  0  0
   -3.7520   -0.3615   -1.0579 C   0  0  0  0  0  0  0  0  0  0  0  0
   -4.9882   -0.7360   -0.5038 C   0  0  0  0  0  0  0  0  0  0  0  0
   -5.1481   -0.8344    0.8775 C   0  0  0  0  0  0  0  0  0  0  0  0
   -4.0707   -0.5631    1.7112 C   0  0  0  0  0  0  0  0  0  0  0  0
   -4.2524   -0.6892    3.4178 Cl  0  0  0  0  0  0  0  0  0  0  0  0
   -2.8353   -0.1964    1.1775 C   0  0  0  0  0  0  0  0  0  0  0  0
   -2.6559   -0.0903   -0.2111 C   0  0  0  0  0  0  0  0  0  0  0  0
   -1.4104    0.2489   -0.7727 N   0  0  0  0  0  0  0  0  0  0  0  0
   -0.5085   -0.9184   -0.8661 C   0  0  0  0  0  0  0  0  0  0  0  0
    0.9060   -0.4847   -1.3077 C   0  0  0  0  0  0  0  0  0  0  0  0
    1.5162    0.5425   -0.4090 N   0  0  0  0  0  0  0  0  0  0  0  0
    2.6407    0.0918    0.2856 C   0  0  0  0  0  0  0  0  0  0  0  0
    2.5796   -0.9210    1.2574 C   0  0  0  0  0  0  0  0  0  0  0  0
    3.7288   -1.3363    1.9191 C   0  0  0  0  0  0  0  0  0  0  0  0
    4.9386   -0.7400    1.6071 C   0  0  0  0  0  0  0  0  0  0  0  0
    4.9735    0.2555    0.6407 C   0  0  0  0  0  0  0  0  0  0  0  0
    3.8481    0.6503    0.0039 N   0  0  0  0  0  4  0  0  0  0  0  0
    3.9316    1.7058   -1.0217 C   0  0  0  0  0  0  0  0  0  0  0  0
    0.5319    1.2455    0.4638 C   0  0  0  0  0  0  0  0  0  0  0  0
   -0.7990    1.5015   -0.2759 C   0  0  0  0  0  0  0  0  0  0  0  0
   -3.2009    0.7091   -2.8393 H   0  0  0  0  0  0  0  0  0  0  0  0
   -4.5952   -0.3480   -3.0481 H   0  0  0  0  0  0  0  0  0  0  0  0
   -2.9803   -1.0626   -2.9335 H   0  0  0  0  0  0  0  0  0  0  0  0
   -5.8383   -0.9493   -1.1493 H   0  0  0  0  0  0  0  0  0  0  0  0
   -6.1112   -1.1218    1.2913 H   0  0  0  0  0  0  0  0  0  0  0  0
   -2.0100   -0.0050    1.8545 H   0  0  0  0  0  0  0  0  0  0  0  0
   -0.9032   -1.6341   -1.5970 H   0  0  0  0  0  0  0  0  0  0  0  0
   -0.4387   -1.4339    0.1005 H   0  0  0  0  0  0  0  0  0  0  0  0
    0.8404   -0.0332   -2.3056 H   0  0  0  0  0  0  0  0  0  0  0  0
    1.5484   -1.3686   -1.4099 H   0  0  0  0  0  0  0  0  0  0  0  0
    1.6315   -1.3925    1.5051 H   0  0  0  0  0  0  0  0  0  0  0  0
    3.6777   -2.1203    2.6732 H   0  0  0  0  0  0  0  0  0  0  0  0
    5.8511   -1.0491    2.1126 H   0  0  0  0  0  0  0  0  0  0  0  0
    5.9057    0.7432    0.3696 H   0  0  0  0  0  0  0  0  0  0  0  0
    3.3103    2.5463   -0.7010 H   0  0  0  0  0  0  0  0  0  0  0  0
    4.9660    2.0423   -1.1287 H   0  0  0  0  0  0  0  0  0  0  0  0
    3.5878    1.2892   -1.9722 H   0  0  0  0  0  0  0  0  0  0  0  0
    0.9586    2.2071    0.7733 H   0  0  0  0  0  0  0  0  0  0  0  0
    0.3264    0.6661    1.3725 H   0  0  0  0  0  0  0  0  0  0  0  0
   -1.4797    2.0722    0.3678 H   0  0  0  0  0  0  0  0  0  0  0  0
   -0.5997    2.1332   -1.1506 H   0  0  0  0  0  0  0  0  0  0  0  0
  1  2  1  0
  2  3  2  0
  3  4  1  0
  4  5  2  0
  5  6  1  0
  5  7  1  0
  7  8  2  0
  8  9  1  0
  9 10  1  0
 10 11  1  0
 11 12  1  0
 12 13  1  0
 13 14  2  0
 14 15  1  0
 15 16  2  0
 16 17  1  0
 17 18  2  0
 18 19  1  0
 12 20  1  0
 20 21  1  0
  8  2  1  0
 21  9  1  0
 18 13  1  0
  1 22  1  0
  1 23  1  0
  1 24  1  0
  3 25  1  0
  4 26  1  0
  7 27  1  0
 10 28  1  0
 10 29  1  0
 11 30  1  0
 11 31  1  0
 14 32  1  0
 15 33  1  0
 16 34  1  0
 17 35  1  0
 19 36  1  0
 19 37  1  0
 19 38  1  0
 20 39  1  0
 20 40  1  0
 21 41  1  0
 21 42  1  0
M  CHG  1  18   1
M  END
$$$$
