
     RDKit          3D

 42 44  0  0  0  0  0  0  0  0999 V2000
    6.2059    1.1270   -2.2276 C   0  0  0  0  0  0  0  0  0  0  0  0
    4.8148    1.4159   -2.2727 O   0  0  0  0  0  0  0  0  0  0  0  0
    3.9771    0.5756   -1.5911 C   0  0  0  0  0  0  0  0  0  0  0  0
    4.3672   -0.5177   -0.8116 C   0  0  0  0  0  0  0  0  0  0  0  0
    3.4049   -1.3028   -0.1681 C   0  0  0  0  0  0  0  0  0  0  0  0
    3.6537   -2.4020    0.6088 O   0  0  0  0  0  0  0  0  0  0  0  0
    5.0115   -2.7930    0.7676 C   0  0  0  0  0  0  0  0  0  0  0  0
    2.0500   -0.9851   -0.2968 C   0  0  0  0  0  0  0  0  0  0  0  0
    1.6530    0.1170   -1.0611 C   0  0  0  0  0  0  0  0  0  0  0  0
    0.2174    0.4867   -1.2298 C   0  0  0  0  0  0  0  0  0  0  0  0
   -0.1178    0.9965   -2.2920 O   0  0  0  0  0  0  0  0  0  0  0  0
   -0.5726    0.2383   -0.1249 N   0  0  0  0  0  0  0  0  0  0  0  0
   -1.9434    0.4249   -0.0040 C   0  0  0  0  0  0  0  0  0  0  0  0
   -2.8993    0.9059   -1.3408 S   0  0  0  0  0  0  0  0  0  0  0  0
   -4.2806    0.8458   -0.4133 C   0  0  0  0  0  0  0  0  0  0  0  0
   -4.0688    0.4786    0.8870 C   0  0  0  0  0  0  0  0  0  0  0  0
   -2.6902    0.2339    1.1654 C   0  0  0  0  0  0  0  0  0  0  0  0
   -2.0635   -0.1723    2.4213 C   0  0  0  0  0  0  0  0  0  0  0  0
   -2.8272   -0.0835    3.5486 N   0  0  0  0  0  0  0  0  0  0  0  0
   -0.8944   -0.5439    2.4984 O   0  0  0  0  0  0  0  0  0  0  0  0
   -5.3605    0.4253    1.6232 C   0  0  0  0  0  0  0  0  0  0  0  0
   -6.4129    0.4751    0.4725 C   0  0  0  0  0  0  0  0  0  0  0  0
   -5.6971    1.1021   -0.7593 C   0  0  0  0  0  0  0  0  0  0  0  0
    2.6213    0.8850   -1.7158 C   0  0  0  0  0  0  0  0  0  0  0  0
    6.4193    0.1418   -2.6553 H   0  0  0  0  0  0  0  0  0  0  0  0
    6.7227    1.8739   -2.8379 H   0  0  0  0  0  0  0  0  0  0  0  0
    6.5916    1.2072   -1.2059 H   0  0  0  0  0  0  0  0  0  0  0  0
    5.4169   -0.7596   -0.7100 H   0  0  0  0  0  0  0  0  0  0  0  0
    5.0310   -3.6833    1.4034 H   0  0  0  0  0  0  0  0  0  0  0  0
    5.4603   -3.0610   -0.1946 H   0  0  0  0  0  0  0  0  0  0  0  0
    5.5903   -2.0116    1.2709 H   0  0  0  0  0  0  0  0  0  0  0  0
    1.3173   -1.6259    0.1879 H   0  0  0  0  0  0  0  0  0  0  0  0
   -0.1223   -0.0767    0.7331 H   0  0  0  0  0  0  0  0  0  0  0  0
   -2.3421   -0.2320    4.4232 H   0  0  0  0  0  0  0  0  0  0  0  0
   -3.6683    0.4709    3.5688 H   0  0  0  0  0  0  0  0  0  0  0  0
   -5.4674    1.3009    2.2721 H   0  0  0  0  0  0  0  0  0  0  0  0
   -5.4749   -0.4860    2.2166 H   0  0  0  0  0  0  0  0  0  0  0  0
   -7.3146    1.0264    0.7565 H   0  0  0  0  0  0  0  0  0  0  0  0
   -6.7180   -0.5503    0.2246 H   0  0  0  0  0  0  0  0  0  0  0  0
   -5.8959    2.1773   -0.8141 H   0  0  0  0  0  0  0  0  0  0  0  0
   -6.0127    0.6211   -1.6890 H   0  0  0  0  0  0  0  0  0  0  0  0
    2.3186    1.7333   -2.3276 H   0  0  0  0  0  0  0  0  0  0  0  0
  1  2  1  0
  2  3  1  0
  3  4  2  0
  4  5  1  0
  5  6  1  0
  6  7  1  0
  5  8  2  0
  8  9  1  0
  9 10  1  0
 10 11  2  0
 10 12  1  0
 12 13  1  0
 13 14  1  0
 14 15  1  0
 15 16  2  0
 16 17  1  0
 17 18  1  0
 18 19  1  0
 18 20  2  0
 16 21  1  0
 21 22  1  0
 22 23  1  0
  9 24  2  0
 24  3  1  0
 17 13  2  0
 23 15  1  0
  1 25  1  0
  1 26  1  0
  1 27  1  0
  4 28  1  0
  7 29  1  0
  7 30  1  0
  7 31  1  0
  8 32  1  0
 12 33  1  0
 19 34  1  0
 19 35  1  0
 21 36  1  0
 21 37  1  0
 22 38  1  0
 22 39  1  0
 23 40  1  0
 23 41  1  0
 24 42  1  0
M  END
$$$$
