
     RDKit          3D

 51 55  0  0  0  0  0  0  0  0999 V2000
    6.6904    2.1055   -4.0590 C   0  0  0  0  0  0  0  0  0  0  0  0
    5.6596    2.0013   -2.9494 C   0  0  0  0  0  0  0  0  0  0  0  0
    5.1399    0.6730   -2.9551 O   0  0  0  0  0  0  0  0  0  0  0  0
    4.1971    0.3663   -2.0133 C   0  0  0  0  0  0  0  0  0  0  0  0
    3.6742    1.2424   -1.0593 C   0  0  0  0  0  0  0  0  0  0  0  0
    2.7080    0.7974   -0.1513 C   0  0  0  0  0  0  0  0  0  0  0  0
    2.2611   -0.5266   -0.2074 C   0  0  0  0  0  0  0  0  0  0  0  0
    1.0504   -1.0805    0.9746 S   0  0  0  0  0  6  0  0  0  0  0  0
    0.9276   -2.5198    0.8703 O   0  0  0  0  0  0  0  0  0  0  0  0
    1.4259   -0.4723    2.2381 O   0  0  0  0  0  0  0  0  0  0  0  0
   -0.3788   -0.3476    0.4316 N   0  0  0  0  0  0  0  0  0  0  0  0
   -0.8089   -0.5048   -0.9191 C   0  0  0  0  0  0  0  0  0  0  0  0
   -0.2927   -1.3223   -1.6723 O   0  0  0  0  0  0  0  0  0  0  0  0
   -1.8539    0.3981   -1.3795 C   0  0  0  0  0  0  0  0  0  0  0  0
   -2.6219    0.3585   -2.5311 C   0  0  0  0  0  0  0  0  0  0  0  0
   -3.4692    1.4917   -2.5023 C   0  0  0  0  0  0  0  0  0  0  0  0
   -3.1610    2.1678   -1.3470 C   0  0  0  0  0  0  0  0  0  0  0  0
   -2.1797    1.5235   -0.6668 O   0  0  0  0  0  0  0  0  0  0  0  0
   -1.4270   -0.3100    1.4346 C   0  0  0  0  0  0  0  0  0  0  0  0
   -1.4613    0.8463    2.2311 C   0  0  0  0  0  0  0  0  0  0  0  0
   -2.4354    0.9653    3.1998 C   0  0  0  0  0  0  0  0  0  0  0  0
   -2.7076    2.3091    4.2901 S   0  0  0  0  0  0  0  0  0  0  0  0
   -4.0749    1.4208    4.9684 C   0  0  0  0  0  0  0  0  0  0  0  0
   -4.7633    1.8824    5.8683 O   0  0  0  0  0  0  0  0  0  0  0  0
   -4.3176    0.1715    4.4050 O   0  0  0  0  0  0  0  0  0  0  0  0
   -3.3628   -0.0475    3.4028 C   0  0  0  0  0  0  0  0  0  0  0  0
   -3.3466   -1.2323    2.6540 C   0  0  0  0  0  0  0  0  0  0  0  0
   -4.2863   -2.2584    2.8815 C   0  0  0  0  0  0  0  0  0  0  0  0
   -4.2530   -3.4411    2.1481 C   0  0  0  0  0  0  0  0  0  0  0  0
   -3.2760   -3.6198    1.1811 C   0  0  0  0  0  0  0  0  0  0  0  0
   -2.3391   -2.6117    0.9389 C   0  0  0  0  0  0  0  0  0  0  0  0
   -2.3492   -1.3874    1.6527 C   0  0  0  0  0  0  0  0  0  0  0  0
    2.7879   -1.4140   -1.1454 C   0  0  0  0  0  0  0  0  0  0  0  0
    3.7497   -0.9591   -2.0493 C   0  0  0  0  0  0  0  0  0  0  0  0
    7.1216    3.1098   -4.0976 H   0  0  0  0  0  0  0  0  0  0  0  0
    6.2367    1.8778   -5.0293 H   0  0  0  0  0  0  0  0  0  0  0  0
    7.4964    1.3801   -3.9059 H   0  0  0  0  0  0  0  0  0  0  0  0
    4.8574    2.7241   -3.1375 H   0  0  0  0  0  0  0  0  0  0  0  0
    6.1438    2.2167   -1.9899 H   0  0  0  0  0  0  0  0  0  0  0  0
    4.0013    2.2749   -0.9917 H   0  0  0  0  0  0  0  0  0  0  0  0
    2.3184    1.4831    0.5981 H   0  0  0  0  0  0  0  0  0  0  0  0
   -2.5688   -0.4062   -3.2952 H   0  0  0  0  0  0  0  0  0  0  0  0
   -4.2084    1.7834   -3.2358 H   0  0  0  0  0  0  0  0  0  0  0  0
   -3.5271    3.0784   -0.8921 H   0  0  0  0  0  0  0  0  0  0  0  0
   -0.7407    1.6446    2.0762 H   0  0  0  0  0  0  0  0  0  0  0  0
   -5.0544   -2.1455    3.6453 H   0  0  0  0  0  0  0  0  0  0  0  0
   -4.9809   -4.2249    2.3420 H   0  0  0  0  0  0  0  0  0  0  0  0
   -3.2295   -4.5485    0.6167 H   0  0  0  0  0  0  0  0  0  0  0  0
   -1.5808   -2.8220    0.1876 H   0  0  0  0  0  0  0  0  0  0  0  0
    2.4520   -2.4477   -1.1906 H   0  0  0  0  0  0  0  0  0  0  0  0
    4.1573   -1.6441   -2.7897 H   0  0  0  0  0  0  0  0  0  0  0  0
  1  2  1  0
  2  3  1  0
  3  4  1  0
  4  5  2  0
  5  6  1  0
  6  7  2  0
  7  8  1  0
  8  9  2  0
  8 10  2  0
  8 11  1  0
 11 12  1  0
 12 13  2  0
 12 14  1  0
 14 15  2  0
 15 16  1  0
 16 17  2  0
 17 18  1  0
 11 19  1  0
 19 20  2  0
 20 21  1  0
 21 22  1  0
 22 23  1  0
 23 24  2  0
 23 25  1  0
 25 26  1  0
 26 27  1  0
 27 28  2  0
 28 29  1  0
 29 30  2  0
 30 31  1  0
 31 32  2  0
  7 33  1  0
 33 34  2  0
 34  4  1  0
 18 14  1  0
 32 19  1  0
 26 21  2  0
 32 27  1  0
  1 35  1  0
  1 36  1  0
  1 37  1  0
  2 38  1  0
  2 39  1  0
  5 40  1  0
  6 41  1  0
 15 42  1  0
 16 43  1  0
 17 44  1  0
 20 45  1  0
 28 46  1  0
 29 47  1  0
 30 48  1  0
 31 49  1  0
 33 50  1  0
 34 51  1  0
M  END
$$$$
