
     RDKit          3D

 36 37  0  0  0  0  0  0  0  0999 V2000
   -1.9200   -1.1203    1.3515 O   0  0  0  0  0  0  0  0  0  0  0  0
   -1.0027   -0.3840    0.9906 C   0  0  0  0  0  0  0  0  0  0  0  0
   -0.0237    0.2651    1.9644 C   0  0  0  0  0  0  0  0  0  0  0  0
    1.1995    0.6061    1.3014 O   0  0  0  0  0  0  0  0  0  0  0  0
    2.0836    1.2449    2.1068 C   0  0  0  0  0  0  0  0  0  0  0  0
    1.8932    1.5495    3.2720 O   0  0  0  0  0  0  0  0  0  0  0  0
    3.3399    1.5539    1.3751 C   0  0  0  0  0  0  0  0  0  0  0  0
    3.6041    1.0519    0.0945 C   0  0  0  0  0  0  0  0  0  0  0  0
    4.8028    1.3770   -0.5411 C   0  0  0  0  0  0  0  0  0  0  0  0
    5.1206    0.7599   -2.1155 Cl  0  0  0  0  0  0  0  0  0  0  0  0
    5.7433    2.1929    0.0823 C   0  0  0  0  0  0  0  0  0  0  0  0
    5.4787    2.6851    1.3575 C   0  0  0  0  0  0  0  0  0  0  0  0
    6.6348    3.6919    2.1376 Cl  0  0  0  0  0  0  0  0  0  0  0  0
    4.2863    2.3711    2.0080 C   0  0  0  0  0  0  0  0  0  0  0  0
   -0.8213   -0.0358   -0.3327 N   0  0  0  0  0  0  0  0  0  0  0  0
   -1.5771   -0.6990   -1.3796 C   0  0  0  0  0  0  0  0  0  0  0  0
   -3.0759   -0.3608   -1.3504 C   0  0  0  0  0  0  0  0  0  0  0  0
   -3.8940   -1.5143   -1.6616 N   0  0  0  0  0  0  0  0  0  0  0  0
   -4.4532   -2.3645   -0.7371 C   0  0  0  0  0  0  0  0  0  0  0  0
   -4.2694   -2.2020    0.6035 O   0  0  0  0  0  0  0  0  0  0  0  0
   -5.1832   -3.3517   -1.2644 C   0  0  0  0  0  0  0  0  0  0  0  0
   -5.1836   -3.2892   -2.9991 S   0  0  0  0  0  0  0  0  0  0  0  0
   -4.1409   -1.8582   -2.9840 C   0  0  0  0  0  0  0  0  0  0  0  0
   -3.7195   -1.3074   -3.9884 O   0  0  0  0  0  0  0  0  0  0  0  0
   -0.5036    1.1636    2.3680 H   0  0  0  0  0  0  0  0  0  0  0  0
    0.1859   -0.4568    2.7614 H   0  0  0  0  0  0  0  0  0  0  0  0
    2.8930    0.4047   -0.4114 H   0  0  0  0  0  0  0  0  0  0  0  0
    6.6749    2.4412   -0.4197 H   0  0  0  0  0  0  0  0  0  0  0  0
    4.0933    2.7620    3.0059 H   0  0  0  0  0  0  0  0  0  0  0  0
    0.0647    0.3981   -0.5699 H   0  0  0  0  0  0  0  0  0  0  0  0
   -1.1425   -0.3978   -2.3388 H   0  0  0  0  0  0  0  0  0  0  0  0
   -1.4097   -1.7766   -1.2635 H   0  0  0  0  0  0  0  0  0  0  0  0
   -3.4024    0.0656   -0.3958 H   0  0  0  0  0  0  0  0  0  0  0  0
   -3.2703    0.4156   -2.1015 H   0  0  0  0  0  0  0  0  0  0  0  0
   -3.4046   -1.7696    0.7714 H   0  0  0  0  0  0  0  0  0  0  0  0
   -5.7014   -4.1118   -0.6973 H   0  0  0  0  0  0  0  0  0  0  0  0
  1  2  2  0
  2  3  1  0
  3  4  1  0
  4  5  1  0
  5  6  2  0
  5  7  1  0
  7  8  2  0
  8  9  1  0
  9 10  1  0
  9 11  2  0
 11 12  1  0
 12 13  1  0
 12 14  2  0
  2 15  1  0
 15 16  1  0
 16 17  1  0
 17 18  1  0
 18 19  1  0
 19 20  1  0
 19 21  2  0
 21 22  1  0
 22 23  1  0
 23 24  2  0
 14  7  1  0
 23 18  1  0
  3 25  1  0
  3 26  1  0
  8 27  1  0
 11 28  1  0
 14 29  1  0
 15 30  1  0
 16 31  1  0
 16 32  1  0
 17 33  1  0
 17 34  1  0
 20 35  1  0
 21 36  1  0
M  END
$$$$
