
     RDKit          3D

 36 38  0  0  0  0  0  0  0  0999 V2000
   -5.7451    0.4481    0.1142 C   0  0  0  0  0  0  0  0  0  0  0  0
   -4.2672    0.7138    0.0572 C   0  0  0  0  0  0  0  0  0  0  0  0
   -3.7971    2.0067   -0.2346 C   0  0  0  0  0  0  0  0  0  0  0  0
   -2.4295    2.2656   -0.3193 C   0  0  0  0  0  0  0  0  0  0  0  0
   -1.5461    1.2153   -0.1216 C   0  0  0  0  0  0  0  0  0  0  0  0
   -1.9855   -0.0962    0.1569 C   0  0  0  0  0  0  0  0  0  0  0  0
   -3.3536   -0.3399    0.2408 C   0  0  0  0  0  0  0  0  0  0  0  0
   -0.9364   -1.0304    0.3138 N   0  0  0  0  0  0  0  0  0  0  0  0
   -1.2544   -2.3623    0.8002 C   0  0  0  0  0  0  0  0  0  0  0  0
    0.3163   -0.4203    0.2216 C   0  0  0  0  0  0  0  0  0  0  0  0
    1.5127   -1.0191    0.3747 C   0  0  0  0  0  0  0  0  0  0  0  0
    2.8150   -0.3542    0.2715 C   0  0  0  0  0  0  0  0  0  0  0  0
    3.4210    0.1506    1.4282 C   0  0  0  0  0  0  0  0  0  0  0  0
    4.6460    0.7988    1.3449 C   0  0  0  0  0  0  0  0  0  0  0  0
    5.2514    0.9398    0.1066 C   0  0  0  0  0  0  0  0  0  0  0  0
    4.6247    0.4268   -1.0220 C   0  0  0  0  0  0  0  0  0  0  0  0
    3.4355   -0.2161   -0.9330 N   0  0  0  0  0  4  0  0  0  0  0  0
    2.8186   -0.7357   -2.1707 C   0  0  0  0  0  0  0  0  0  0  0  0
    0.2365    1.3262   -0.1651 S   0  0  0  0  0  0  0  0  0  0  0  0
   -6.2889    1.3353    0.4552 H   0  0  0  0  0  0  0  0  0  0  0  0
   -5.9691   -0.3601    0.8184 H   0  0  0  0  0  0  0  0  0  0  0  0
   -6.1122    0.1667   -0.8775 H   0  0  0  0  0  0  0  0  0  0  0  0
   -4.5027    2.8209   -0.3932 H   0  0  0  0  0  0  0  0  0  0  0  0
   -2.0734    3.2682   -0.5332 H   0  0  0  0  0  0  0  0  0  0  0  0
   -3.7349   -1.3352    0.4460 H   0  0  0  0  0  0  0  0  0  0  0  0
   -0.3837   -3.0245    0.7869 H   0  0  0  0  0  0  0  0  0  0  0  0
   -2.0107   -2.8434    0.1701 H   0  0  0  0  0  0  0  0  0  0  0  0
   -1.6227   -2.3202    1.8312 H   0  0  0  0  0  0  0  0  0  0  0  0
    1.5748   -2.0759    0.6123 H   0  0  0  0  0  0  0  0  0  0  0  0
    2.9321    0.0516    2.3964 H   0  0  0  0  0  0  0  0  0  0  0  0
    5.1188    1.1997    2.2404 H   0  0  0  0  0  0  0  0  0  0  0  0
    6.2069    1.4532    0.0191 H   0  0  0  0  0  0  0  0  0  0  0  0
    5.0723    0.5301   -2.0069 H   0  0  0  0  0  0  0  0  0  0  0  0
    2.5009   -1.7676   -2.0015 H   0  0  0  0  0  0  0  0  0  0  0  0
    3.5525   -0.7264   -2.9809 H   0  0  0  0  0  0  0  0  0  0  0  0
    1.9772   -0.0899   -2.4302 H   0  0  0  0  0  0  0  0  0  0  0  0
  1  2  1  0
  2  3  2  0
  3  4  1  0
  4  5  2  0
  5  6  1  0
  6  7  2  0
  6  8  1  0
  8  9  1  0
  8 10  1  0
 10 11  2  3
 11 12  1  0
 12 13  2  0
 13 14  1  0
 14 15  2  0
 15 16  1  0
 16 17  2  0
 17 18  1  0
 10 19  1  0
  7  2  1  0
 17 12  1  0
 19  5  1  0
  1 20  1  0
  1 21  1  0
  1 22  1  0
  3 23  1  0
  4 24  1  0
  7 25  1  0
  9 26  1  0
  9 27  1  0
  9 28  1  0
 11 29  1  0
 13 30  1  0
 14 31  1  0
 15 32  1  0
 16 33  1  0
 18 34  1  0
 18 35  1  0
 18 36  1  0
M  CHG  1  17   1
M  END
$$$$
