
     RDKit          3D

 64 67  0  0  0  0  0  0  0  0999 V2000
    7.5739   -0.6752   -6.9764 C   0  0  0  0  0  0  0  0  0  0  0  0
    6.3397   -1.1738   -6.3422 C   0  0  0  0  0  0  0  0  0  0  0  0
    5.6076   -0.8004   -5.2431 C   0  0  0  0  0  0  0  0  0  0  0  0
    4.5373   -1.7221   -5.1964 C   0  0  0  0  0  0  0  0  0  0  0  0
    3.5031   -1.8190   -4.2924 N   0  0  0  0  0  0  0  0  0  0  0  0
    3.2937   -0.9700   -3.2301 C   0  0  0  0  0  0  0  0  0  0  0  0
    3.9845    0.0017   -2.9425 O   0  0  0  0  0  0  0  0  0  0  0  0
    2.0839   -1.3740   -2.4142 C   0  0  0  0  0  0  0  0  0  0  0  0
    1.7609   -0.3512   -1.3276 C   0  0  0  0  0  0  0  0  0  0  0  0
    0.5817   -0.8044   -0.4773 C   0  0  0  0  0  0  0  0  0  0  0  0
   -0.0708   -1.8041   -0.7907 O   0  0  0  0  0  0  0  0  0  0  0  0
    0.3220   -0.0870    0.6943 N   0  0  0  0  0  0  0  0  0  0  0  0
    0.8250    1.2275    0.9019 C   0  0  0  0  0  0  0  0  0  0  0  0
    0.5042    2.2771    0.0399 C   0  0  0  0  0  0  0  0  0  0  0  0
    1.0355    3.5445    0.2687 C   0  0  0  0  0  0  0  0  0  0  0  0
    1.8757    3.7202    1.3563 C   0  0  0  0  0  0  0  0  0  0  0  0
    2.2100    2.7320    2.2131 N   0  0  0  0  0  0  0  0  0  0  0  0
    1.6778    1.5103    1.9666 C   0  0  0  0  0  0  0  0  0  0  0  0
   -0.8464   -0.5322    1.4872 C   0  0  0  0  0  0  0  0  0  0  0  0
   -2.1987   -0.0377    0.8869 C   0  0  0  0  0  0  0  0  0  0  0  0
   -2.2875    0.8109    0.0003 O   0  0  0  0  0  0  0  0  0  0  0  0
   -3.3173   -0.6480    1.4396 N   0  0  0  0  0  0  0  0  0  0  0  0
   -4.6553   -0.2469    1.0646 C   0  0  0  0  0  0  0  0  0  0  0  0
   -5.1115    1.0435    1.7540 C   0  0  0  0  0  0  0  0  0  0  0  0
   -6.6170    0.8889    1.9807 C   0  0  0  0  0  0  0  0  0  0  0  0
   -6.9951   -0.4752    1.4118 C   0  0  0  0  0  0  0  0  0  0  0  0
   -5.7046   -1.2740    1.4754 C   0  0  0  0  0  0  0  0  0  0  0  0
   -0.7412   -0.2724    2.9891 C   0  0  0  0  0  0  0  0  0  0  0  0
   -1.2125    0.9152    3.5726 C   0  0  0  0  0  0  0  0  0  0  0  0
   -1.0978    1.1272    4.9467 C   0  0  0  0  0  0  0  0  0  0  0  0
   -0.5079    0.1609    5.7550 C   0  0  0  0  0  0  0  0  0  0  0  0
   -0.0272   -1.0190    5.1905 C   0  0  0  0  0  0  0  0  0  0  0  0
   -0.1394   -1.2347    3.8156 C   0  0  0  0  0  0  0  0  0  0  0  0
    4.6128   -2.5906   -6.2088 N   0  0  0  0  0  0  0  0  0  0  0  0
    5.7442   -2.2449   -6.9266 O   0  0  0  0  0  0  0  0  0  0  0  0
    7.3835   -0.3802   -8.0165 H   0  0  0  0  0  0  0  0  0  0  0  0
    8.3457   -1.4461   -6.9654 H   0  0  0  0  0  0  0  0  0  0  0  0
    7.9597    0.1981   -6.4455 H   0  0  0  0  0  0  0  0  0  0  0  0
    5.8248    0.0160   -4.5719 H   0  0  0  0  0  0  0  0  0  0  0  0
    2.8753   -2.5868   -4.4668 H   0  0  0  0  0  0  0  0  0  0  0  0
    2.2890   -2.3534   -1.9633 H   0  0  0  0  0  0  0  0  0  0  0  0
    1.2283   -1.4843   -3.0928 H   0  0  0  0  0  0  0  0  0  0  0  0
    2.6322   -0.2088   -0.6781 H   0  0  0  0  0  0  0  0  0  0  0  0
    1.5190    0.6024   -1.8086 H   0  0  0  0  0  0  0  0  0  0  0  0
   -0.1706    2.1258   -0.7987 H   0  0  0  0  0  0  0  0  0  0  0  0
    0.7964    4.3742   -0.3872 H   0  0  0  0  0  0  0  0  0  0  0  0
    2.3138    4.6905    1.5743 H   0  0  0  0  0  0  0  0  0  0  0  0
    1.9819    0.7392    2.6683 H   0  0  0  0  0  0  0  0  0  0  0  0
   -0.9029   -1.6254    1.3789 H   0  0  0  0  0  0  0  0  0  0  0  0
   -3.1959   -1.1501    2.3120 H   0  0  0  0  0  0  0  0  0  0  0  0
   -4.6876   -0.1037   -0.0234 H   0  0  0  0  0  0  0  0  0  0  0  0
   -4.8873    1.9217    1.1386 H   0  0  0  0  0  0  0  0  0  0  0  0
   -4.6079    1.1879    2.7176 H   0  0  0  0  0  0  0  0  0  0  0  0
   -7.1876    1.6917    1.5025 H   0  0  0  0  0  0  0  0  0  0  0  0
   -6.8344    0.9267    3.0544 H   0  0  0  0  0  0  0  0  0  0  0  0
   -7.8081   -0.9473    1.9714 H   0  0  0  0  0  0  0  0  0  0  0  0
   -7.3193   -0.3689    0.3691 H   0  0  0  0  0  0  0  0  0  0  0  0
   -5.5305   -1.6329    2.4974 H   0  0  0  0  0  0  0  0  0  0  0  0
   -5.7186   -2.1432    0.8115 H   0  0  0  0  0  0  0  0  0  0  0  0
   -1.6568    1.6976    2.9605 H   0  0  0  0  0  0  0  0  0  0  0  0
   -1.4610    2.0548    5.3817 H   0  0  0  0  0  0  0  0  0  0  0  0
   -0.4145    0.3320    6.8239 H   0  0  0  0  0  0  0  0  0  0  0  0
    0.4395   -1.7710    5.8191 H   0  0  0  0  0  0  0  0  0  0  0  0
    0.2506   -2.1593    3.3944 H   0  0  0  0  0  0  0  0  0  0  0  0
  1  2  1  0
  2  3  2  0
  3  4  1  0
  4  5  1  0
  5  6  1  0
  6  7  2  0
  6  8  1  0
  8  9  1  0
  9 10  1  0
 10 11  2  0
 10 12  1  0
 12 13  1  0
 13 14  2  0
 14 15  1  0
 15 16  2  0
 16 17  1  0
 17 18  2  0
 12 19  1  0
 19 20  1  0
 20 21  2  0
 20 22  1  0
 22 23  1  0
 23 24  1  0
 24 25  1  0
 25 26  1  0
 26 27  1  0
 19 28  1  0
 28 29  2  0
 29 30  1  0
 30 31  2  0
 31 32  1  0
 32 33  2  0
  4 34  2  0
 34 35  1  0
 35  2  1  0
 18 13  1  0
 27 23  1  0
 33 28  1  0
  1 36  1  0
  1 37  1  0
  1 38  1  0
  3 39  1  0
  5 40  1  0
  8 41  1  0
  8 42  1  0
  9 43  1  0
  9 44  1  0
 14 45  1  0
 15 46  1  0
 16 47  1  0
 18 48  1  0
 19 49  1  0
 22 50  1  0
 23 51  1  0
 24 52  1  0
 24 53  1  0
 25 54  1  0
 25 55  1  0
 26 56  1  0
 26 57  1  0
 27 58  1  0
 27 59  1  0
 29 60  1  0
 30 61  1  0
 31 62  1  0
 32 63  1  0
 33 64  1  0
M  END
$$$$
