
     RDKit          3D

 42 44  0  0  0  0  0  0  0  0999 V2000
   -4.1927   -1.9785   -0.9547 C   0  0  0  0  0  0  0  0  0  0  0  0
   -4.1013   -0.9514    0.1748 C   0  0  0  0  0  0  0  0  0  0  0  0
   -4.1715   -1.6211    1.5479 C   0  0  0  0  0  0  0  0  0  0  0  0
   -2.9084   -0.1111    0.0448 N   0  0  0  0  0  0  0  0  0  0  0  0
   -1.6163   -0.5831    0.0979 C   0  0  0  0  0  0  0  0  0  0  0  0
   -0.7572    0.4811   -0.0605 C   0  0  0  0  0  0  0  0  0  0  0  0
    0.6727    0.4223   -0.0617 C   0  0  0  0  0  0  0  0  0  0  0  0
    1.4182   -0.6951   -0.0081 C   0  0  0  0  0  0  0  0  0  0  0  0
    2.8847   -0.6928   -0.0174 C   0  0  0  0  0  0  0  0  0  0  0  0
    3.5623   -1.6294   -0.7950 C   0  0  0  0  0  0  0  0  0  0  0  0
    4.9521   -1.6491   -0.7939 C   0  0  0  0  0  0  0  0  0  0  0  0
    5.6535   -0.7785   -0.0338 N   0  0  0  0  0  4  0  0  0  0  0  0
    7.1252   -0.8290   -0.0625 C   0  0  0  0  0  0  0  0  0  0  0  0
    5.0182    0.1290    0.7401 C   0  0  0  0  0  0  0  0  0  0  0  0
    3.6292    0.1868    0.7674 C   0  0  0  0  0  0  0  0  0  0  0  0
   -1.5579    1.6552   -0.2151 C   0  0  0  0  0  0  0  0  0  0  0  0
   -1.2674    3.0249   -0.4103 C   0  0  0  0  0  0  0  0  0  0  0  0
   -2.3081    3.9509   -0.5280 C   0  0  0  0  0  0  0  0  0  0  0  0
   -3.6311    3.5343   -0.4547 C   0  0  0  0  0  0  0  0  0  0  0  0
   -3.9499    2.1872   -0.2632 C   0  0  0  0  0  0  0  0  0  0  0  0
   -2.9001    1.2588   -0.1456 C   0  0  0  0  0  0  0  0  0  0  0  0
   -5.1368   -2.5306   -0.8982 H   0  0  0  0  0  0  0  0  0  0  0  0
   -4.1471   -1.4874   -1.9331 H   0  0  0  0  0  0  0  0  0  0  0  0
   -3.3761   -2.7072   -0.9093 H   0  0  0  0  0  0  0  0  0  0  0  0
   -4.9719   -0.2939    0.0876 H   0  0  0  0  0  0  0  0  0  0  0  0
   -4.1110   -0.8761    2.3489 H   0  0  0  0  0  0  0  0  0  0  0  0
   -5.1151   -2.1649    1.6636 H   0  0  0  0  0  0  0  0  0  0  0  0
   -3.3539   -2.3351    1.6944 H   0  0  0  0  0  0  0  0  0  0  0  0
   -1.4285   -1.6374    0.2479 H   0  0  0  0  0  0  0  0  0  0  0  0
    1.1763    1.3841   -0.1274 H   0  0  0  0  0  0  0  0  0  0  0  0
    0.9434   -1.6731    0.0215 H   0  0  0  0  0  0  0  0  0  0  0  0
    3.0148   -2.3388   -1.4136 H   0  0  0  0  0  0  0  0  0  0  0  0
    5.5147   -2.3570   -1.3963 H   0  0  0  0  0  0  0  0  0  0  0  0
    7.4328   -1.8528    0.1673 H   0  0  0  0  0  0  0  0  0  0  0  0
    7.5383   -0.1432    0.6810 H   0  0  0  0  0  0  0  0  0  0  0  0
    7.4471   -0.5374   -1.0657 H   0  0  0  0  0  0  0  0  0  0  0  0
    5.6255    0.8030    1.3377 H   0  0  0  0  0  0  0  0  0  0  0  0
    3.1370    0.9141    1.4109 H   0  0  0  0  0  0  0  0  0  0  0  0
   -0.2399    3.3687   -0.4723 H   0  0  0  0  0  0  0  0  0  0  0  0
   -2.0808    5.0033   -0.6787 H   0  0  0  0  0  0  0  0  0  0  0  0
   -4.4318    4.2649   -0.5480 H   0  0  0  0  0  0  0  0  0  0  0  0
   -4.9910    1.8854   -0.2097 H   0  0  0  0  0  0  0  0  0  0  0  0
  1  2  1  0
  2  3  1  0
  2  4  1  0
  4  5  1  0
  5  6  2  0
  6  7  1  0
  7  8  2  3
  8  9  1  0
  9 10  2  0
 10 11  1  0
 11 12  2  0
 12 13  1  0
 12 14  1  0
 14 15  2  0
  6 16  1  0
 16 17  2  0
 17 18  1  0
 18 19  2  0
 19 20  1  0
 20 21  2  0
 21  4  1  0
 15  9  1  0
 21 16  1  0
  1 22  1  0
  1 23  1  0
  1 24  1  0
  2 25  1  0
  3 26  1  0
  3 27  1  0
  3 28  1  0
  5 29  1  0
  7 30  1  0
  8 31  1  0
 10 32  1  0
 11 33  1  0
 13 34  1  0
 13 35  1  0
 13 36  1  0
 14 37  1  0
 15 38  1  0
 17 39  1  0
 18 40  1  0
 19 41  1  0
 20 42  1  0
M  CHG  1  12   1
M  END
$$$$
