
     RDKit          3D

 69 75  0  0  0  0  0  0  0  0999 V2000
   -4.2983    5.2856    1.8995 C   0  0  0  0  0  0  0  0  0  0  0  0
   -3.8263    4.3628    0.8169 C   0  0  0  0  0  0  0  0  0  0  0  0
   -4.2773    4.4922   -0.5111 C   0  0  0  0  0  0  0  0  0  0  0  0
   -5.4054    5.7272   -0.9578 Cl  0  0  0  0  0  0  0  0  0  0  0  0
   -3.8273    3.6327   -1.5334 C   0  0  0  0  0  0  0  0  0  0  0  0
   -2.9146    2.6141   -1.2603 C   0  0  0  0  0  0  0  0  0  0  0  0
   -2.4683    2.4739    0.0433 C   0  0  0  0  0  0  0  0  0  0  0  0
   -2.9125    3.3427    1.0526 C   0  0  0  0  0  0  0  0  0  0  0  0
   -2.2880    3.0185    2.2577 N   0  0  0  0  0  0  0  0  0  0  0  0
   -1.4180    1.9349    2.1174 C   0  0  0  0  0  0  0  0  0  0  0  0
   -0.7287    1.4714    3.0143 O   0  0  0  0  0  0  0  0  0  0  0  0
   -1.4958    1.4973    0.6347 C   0  0  1  0  0  0  0  0  0  0  0  0
   -1.9925    0.1072    0.4611 C   0  0  0  0  0  0  0  0  0  0  0  0
   -0.9335   -0.7478    0.1073 C   0  0  0  0  0  0  0  0  0  0  0  0
   -1.4277   -2.0119   -0.0718 C   0  0  0  0  0  0  0  0  0  0  0  0
   -0.7993   -3.1482   -0.3621 O   0  0  0  0  0  0  0  0  0  0  0  0
   -2.8092   -1.9603    0.2129 N   0  0  0  0  0  0  0  0  0  0  0  0
   -3.7019   -3.0785    0.2604 C   0  0  0  0  0  0  0  0  0  0  0  0
   -4.7602   -3.0974    1.1821 C   0  0  0  0  0  0  0  0  0  0  0  0
   -5.6367   -4.1845    1.2272 C   0  0  0  0  0  0  0  0  0  0  0  0
   -5.4612   -5.2602    0.3596 C   0  0  0  0  0  0  0  0  0  0  0  0
   -4.4039   -5.2554   -0.5480 C   0  0  0  0  0  0  0  0  0  0  0  0
   -3.5225   -4.1720   -0.5958 C   0  0  0  0  0  0  0  0  0  0  0  0
   -3.1524   -0.6183    0.4825 C   0  0  0  0  0  0  0  0  0  0  0  0
   -4.3953   -0.1717    0.6577 O   0  0  0  0  0  0  0  0  0  0  0  0
    0.3346    0.0147    0.1002 C   0  0  1  0  0  0  0  0  0  0  0  0
    1.3621   -0.2513   -0.9965 C   0  0  0  0  0  0  0  0  0  0  0  0
    2.4487    0.7565   -0.9503 N   0  0  0  0  0  0  0  0  0  0  0  0
    3.6675    0.5627   -1.5892 C   0  0  0  0  0  0  0  0  0  0  0  0
    4.3559    1.4889   -2.0078 O   0  0  0  0  0  0  0  0  0  0  0  0
    4.0395   -0.7511   -1.7108 N   0  0  0  0  0  0  0  0  0  0  0  0
    5.3091   -1.1057   -2.3109 C   0  0  0  0  0  0  0  0  0  0  0  0
    6.3574   -1.3531   -1.2556 C   0  0  0  0  0  0  0  0  0  0  0  0
    7.0513   -0.2782   -0.6817 C   0  0  0  0  0  0  0  0  0  0  0  0
    8.0026   -0.5000    0.3148 C   0  0  0  0  0  0  0  0  0  0  0  0
    8.2663   -1.7970    0.7511 C   0  0  0  0  0  0  0  0  0  0  0  0
    7.5785   -2.8732    0.1931 C   0  0  0  0  0  0  0  0  0  0  0  0
    6.6253   -2.6534   -0.8030 C   0  0  0  0  0  0  0  0  0  0  0  0
    2.0006    2.1593   -0.8307 C   0  0  0  0  0  0  0  0  0  0  0  0
    0.8530    2.3784    0.1876 C   0  0  0  0  0  0  0  0  0  0  0  0
   -0.1934    1.4025   -0.0656 N   0  0  0  0  0  0  0  0  0  0  0  0
   -5.3906    5.2624    1.9717 H   0  0  0  0  0  0  0  0  0  0  0  0
   -3.9123    5.0091    2.8844 H   0  0  0  0  0  0  0  0  0  0  0  0
   -3.9677    6.3089    1.6945 H   0  0  0  0  0  0  0  0  0  0  0  0
   -4.1918    3.7592   -2.5507 H   0  0  0  0  0  0  0  0  0  0  0  0
   -2.5658    1.9491   -2.0443 H   0  0  0  0  0  0  0  0  0  0  0  0
   -2.4231    3.4829    3.1422 H   0  0  0  0  0  0  0  0  0  0  0  0
    0.1547   -2.9702   -0.3952 H   0  0  0  0  0  0  0  0  0  0  0  0
   -4.8899   -2.3025    1.9139 H   0  0  0  0  0  0  0  0  0  0  0  0
   -6.4467   -4.1996    1.9527 H   0  0  0  0  0  0  0  0  0  0  0  0
   -6.1409   -6.1077    0.3976 H   0  0  0  0  0  0  0  0  0  0  0  0
   -4.2625   -6.0965   -1.2223 H   0  0  0  0  0  0  0  0  0  0  0  0
   -2.7233   -4.1919   -1.3318 H   0  0  0  0  0  0  0  0  0  0  0  0
   -5.0140   -0.8031    0.2478 H   0  0  0  0  0  0  0  0  0  0  0  0
    0.8112   -0.0940    1.0854 H   0  0  0  0  0  0  0  0  0  0  0  0
    1.7629   -1.2626   -0.8879 H   0  0  0  0  0  0  0  0  0  0  0  0
    0.9107   -0.1958   -1.9956 H   0  0  0  0  0  0  0  0  0  0  0  0
    3.7852   -1.3174   -0.9179 H   0  0  0  0  0  0  0  0  0  0  0  0
    5.1421   -2.0190   -2.8927 H   0  0  0  0  0  0  0  0  0  0  0  0
    5.6439   -0.3345   -3.0137 H   0  0  0  0  0  0  0  0  0  0  0  0
    6.8462    0.7404   -1.0090 H   0  0  0  0  0  0  0  0  0  0  0  0
    8.5354    0.3407    0.7519 H   0  0  0  0  0  0  0  0  0  0  0  0
    9.0069   -1.9687    1.5276 H   0  0  0  0  0  0  0  0  0  0  0  0
    7.7852   -3.8843    0.5352 H   0  0  0  0  0  0  0  0  0  0  0  0
    6.0958   -3.5043   -1.2252 H   0  0  0  0  0  0  0  0  0  0  0  0
    2.8535    2.7897   -0.5537 H   0  0  0  0  0  0  0  0  0  0  0  0
    1.6716    2.4727   -1.8302 H   0  0  0  0  0  0  0  0  0  0  0  0
    0.4734    3.3996    0.0715 H   0  0  0  0  0  0  0  0  0  0  0  0
    1.2477    2.2831    1.2062 H   0  0  0  0  0  0  0  0  0  0  0  0
  1  2  1  0
  2  3  2  0
  3  4  1  0
  3  5  1  0
  5  6  2  0
  6  7  1  0
  7  8  2  0
  8  9  1  0
  9 10  1  0
 10 11  2  0
 10 12  1  0
 12 13  1  0
 13 14  1  0
 14 15  2  0
 15 16  1  0
 15 17  1  0
 17 18  1  0
 18 19  2  0
 19 20  1  0
 20 21  2  0
 21 22  1  0
 22 23  2  0
 17 24  1  0
 24 25  1  0
 14 26  1  0
 26 27  1  0
 27 28  1  0
 28 29  1  0
 29 30  2  0
 29 31  1  0
 31 32  1  0
 32 33  1  0
 33 34  2  0
 34 35  1  0
 35 36  2  0
 36 37  1  0
 37 38  2  0
 28 39  1  0
 39 40  1  0
 40 41  1  0
  8  2  1  0
 12 41  1  6
 12  7  1  0
 24 13  2  0
 41 26  1  0
 23 18  1  0
 38 33  1  0
  1 42  1  0
  1 43  1  0
  1 44  1  0
  5 45  1  0
  6 46  1  0
  9 47  1  0
 16 48  1  0
 19 49  1  0
 20 50  1  0
 21 51  1  0
 22 52  1  0
 23 53  1  0
 25 54  1  0
 26 55  1  1
 27 56  1  0
 27 57  1  0
 31 58  1  0
 32 59  1  0
 32 60  1  0
 34 61  1  0
 35 62  1  0
 36 63  1  0
 37 64  1  0
 38 65  1  0
 39 66  1  0
 39 67  1  0
 40 68  1  0
 40 69  1  0
M  END
$$$$
