
     RDKit          3D

 67 72  0  0  0  0  0  0  0  0999 V2000
   -4.1329   -4.8337    1.1372 C   0  0  0  0  0  0  0  0  0  0  0  0
   -3.0758   -3.7769    1.2589 C   0  0  0  0  0  0  0  0  0  0  0  0
   -2.4005   -3.5498    2.4723 C   0  0  0  0  0  0  0  0  0  0  0  0
   -2.7542   -4.4840    3.8849 Cl  0  0  0  0  0  0  0  0  0  0  0  0
   -1.4172   -2.5495    2.5918 C   0  0  0  0  0  0  0  0  0  0  0  0
   -1.0745   -1.7476    1.5022 C   0  0  0  0  0  0  0  0  0  0  0  0
   -1.7223   -1.9653    0.2967 C   0  0  0  0  0  0  0  0  0  0  0  0
   -2.7119   -2.9576    0.1959 C   0  0  0  0  0  0  0  0  0  0  0  0
   -3.2466   -2.9556   -1.0899 N   0  0  0  0  0  0  0  0  0  0  0  0
   -2.6560   -1.9866   -1.9035 C   0  0  0  0  0  0  0  0  0  0  0  0
   -2.9778   -1.7803   -3.0632 O   0  0  0  0  0  0  0  0  0  0  0  0
   -1.5806   -1.2778   -1.0387 C   0  0  1  0  0  0  0  0  0  0  0  0
   -1.8301    0.1665   -0.8280 C   0  0  0  0  0  0  0  0  0  0  0  0
   -0.6949    0.9089   -1.1683 C   0  0  0  0  0  0  0  0  0  0  0  0
   -0.9315    2.2288   -0.9076 C   0  0  0  0  0  0  0  0  0  0  0  0
   -0.0588    3.2344   -0.9401 O   0  0  0  0  0  0  0  0  0  0  0  0
   -2.2830    2.3377   -0.5199 N   0  0  0  0  0  0  0  0  0  0  0  0
   -2.9991    3.5605   -0.3129 C   0  0  0  0  0  0  0  0  0  0  0  0
   -4.0318    3.6358    0.6332 C   0  0  0  0  0  0  0  0  0  0  0  0
   -4.7231    4.8353    0.8255 C   0  0  0  0  0  0  0  0  0  0  0  0
   -4.3908    5.9509    0.0679 C   0  0  0  0  0  0  0  0  0  0  0  0
   -5.0568    7.0978    0.2535 F   0  0  0  0  0  0  0  0  0  0  0  0
   -3.3814    5.8916   -0.8844 C   0  0  0  0  0  0  0  0  0  0  0  0
   -2.6853    4.6961   -1.0799 C   0  0  0  0  0  0  0  0  0  0  0  0
   -2.8040    1.0330   -0.3971 C   0  0  0  0  0  0  0  0  0  0  0  0
   -4.0495    0.7923    0.0050 O   0  0  0  0  0  0  0  0  0  0  0  0
    0.4228    0.0454   -1.6180 C   0  0  1  0  0  0  0  0  0  0  0  0
    1.6306    0.0915   -0.6575 C   0  0  0  0  0  0  0  0  0  0  0  0
    2.4596   -1.1180   -0.6891 N   0  0  0  0  0  0  0  0  0  0  0  0
    3.7727   -1.1080   -0.2432 C   0  0  0  0  0  0  0  0  0  0  0  0
    4.4138   -2.1245   -0.0097 O   0  0  0  0  0  0  0  0  0  0  0  0
    4.2531    0.1522   -0.0942 O   0  0  0  0  0  0  0  0  0  0  0  0
    5.6103    0.3909    0.3583 C   0  0  0  0  0  0  0  0  0  0  0  0
    5.7502    1.9211    0.3719 C   0  0  0  0  0  0  0  0  0  0  0  0
    5.8209   -0.1317    1.7835 C   0  0  0  0  0  0  0  0  0  0  0  0
    6.6376   -0.1840   -0.6230 C   0  0  0  0  0  0  0  0  0  0  0  0
    1.7435   -2.3896   -0.6659 C   0  0  0  0  0  0  0  0  0  0  0  0
    0.5951   -2.4443   -1.6835 C   0  0  0  0  0  0  0  0  0  0  0  0
   -0.2610   -1.2755   -1.7066 N   0  0  0  0  0  0  0  0  0  0  0  0
   -4.9767   -4.6027    1.7954 H   0  0  0  0  0  0  0  0  0  0  0  0
   -3.7235   -5.8148    1.3999 H   0  0  0  0  0  0  0  0  0  0  0  0
   -4.5274   -4.9174    0.1209 H   0  0  0  0  0  0  0  0  0  0  0  0
   -0.9164   -2.3917    3.5454 H   0  0  0  0  0  0  0  0  0  0  0  0
   -0.3239   -0.9716    1.6106 H   0  0  0  0  0  0  0  0  0  0  0  0
   -3.9736   -3.5625   -1.4390 H   0  0  0  0  0  0  0  0  0  0  0  0
   -0.4011    3.9684   -0.3985 H   0  0  0  0  0  0  0  0  0  0  0  0
   -4.2991    2.7850    1.2543 H   0  0  0  0  0  0  0  0  0  0  0  0
   -5.5184    4.9028    1.5612 H   0  0  0  0  0  0  0  0  0  0  0  0
   -3.1547    6.7696   -1.4813 H   0  0  0  0  0  0  0  0  0  0  0  0
   -1.9428    4.6586   -1.8752 H   0  0  0  0  0  0  0  0  0  0  0  0
   -4.2224   -0.1613   -0.0840 H   0  0  0  0  0  0  0  0  0  0  0  0
    0.7469    0.3251   -2.6272 H   0  0  0  0  0  0  0  0  0  0  0  0
    1.3077    0.2132    0.3841 H   0  0  0  0  0  0  0  0  0  0  0  0
    2.2365    0.9731   -0.8967 H   0  0  0  0  0  0  0  0  0  0  0  0
    6.7451    2.2363    0.7030 H   0  0  0  0  0  0  0  0  0  0  0  0
    5.5694    2.3378   -0.6258 H   0  0  0  0  0  0  0  0  0  0  0  0
    5.0046    2.3746    1.0353 H   0  0  0  0  0  0  0  0  0  0  0  0
    6.7881    0.1876    2.1864 H   0  0  0  0  0  0  0  0  0  0  0  0
    5.7931   -1.2245    1.8275 H   0  0  0  0  0  0  0  0  0  0  0  0
    5.0295    0.2293    2.4501 H   0  0  0  0  0  0  0  0  0  0  0  0
    6.4105    0.1255   -1.6494 H   0  0  0  0  0  0  0  0  0  0  0  0
    7.6524    0.1460   -0.3755 H   0  0  0  0  0  0  0  0  0  0  0  0
    6.6409   -1.2781   -0.6182 H   0  0  0  0  0  0  0  0  0  0  0  0
    1.3708   -2.5325    0.3533 H   0  0  0  0  0  0  0  0  0  0  0  0
    2.4382   -3.2125   -0.8690 H   0  0  0  0  0  0  0  0  0  0  0  0
    0.0207   -3.3684   -1.5515 H   0  0  0  0  0  0  0  0  0  0  0  0
    1.0466   -2.5249   -2.6810 H   0  0  0  0  0  0  0  0  0  0  0  0
  1  2  1  0
  2  3  2  0
  3  4  1  0
  3  5  1  0
  5  6  2  0
  6  7  1  0
  7  8  2  0
  8  9  1  0
  9 10  1  0
 10 11  2  0
 10 12  1  0
 12 13  1  0
 13 14  1  0
 14 15  2  0
 15 16  1  0
 15 17  1  0
 17 18  1  0
 18 19  2  0
 19 20  1  0
 20 21  2  0
 21 22  1  0
 21 23  1  0
 23 24  2  0
 17 25  1  0
 25 26  1  0
 14 27  1  0
 27 28  1  0
 28 29  1  0
 29 30  1  0
 30 31  2  0
 30 32  1  0
 32 33  1  0
 33 34  1  0
 33 35  1  0
 33 36  1  0
 29 37  1  0
 37 38  1  0
 38 39  1  0
  8  2  1  0
 12 39  1  6
 12  7  1  0
 25 13  2  0
 39 27  1  0
 24 18  1  0
  1 40  1  0
  1 41  1  0
  1 42  1  0
  5 43  1  0
  6 44  1  0
  9 45  1  0
 16 46  1  0
 19 47  1  0
 20 48  1  0
 23 49  1  0
 24 50  1  0
 26 51  1  0
 27 52  1  6
 28 53  1  0
 28 54  1  0
 34 55  1  0
 34 56  1  0
 34 57  1  0
 35 58  1  0
 35 59  1  0
 35 60  1  0
 36 61  1  0
 36 62  1  0
 36 63  1  0
 37 64  1  0
 37 65  1  0
 38 66  1  0
 38 67  1  0
M  END
$$$$
