
     RDKit          3D

 59 64  0  0  0  0  0  0  0  0999 V2000
   -3.7922    1.5606    2.7533 C   0  0  0  0  0  0  0  0  0  0  0  0
   -3.7130    0.7606    1.5822 O   0  0  0  0  0  0  0  0  0  0  0  0
   -4.8910    0.3914    0.9809 C   0  0  0  0  0  0  0  0  0  0  0  0
   -6.1586    0.6680    1.5122 C   0  0  0  0  0  0  0  0  0  0  0  0
   -7.3159    0.2715    0.8381 C   0  0  0  0  0  0  0  0  0  0  0  0
   -7.2203   -0.4041   -0.3726 C   0  0  0  0  0  0  0  0  0  0  0  0
   -5.9650   -0.6874   -0.9079 C   0  0  0  0  0  0  0  0  0  0  0  0
   -4.7856   -0.3064   -0.2462 C   0  0  0  0  0  0  0  0  0  0  0  0
   -3.5730   -0.6419   -0.8848 N   0  0  0  0  0  0  0  0  0  0  0  0
   -2.6388   -1.4654   -0.0776 C   0  0  0  0  0  0  0  0  0  0  0  0
   -1.2689   -0.7909    0.1541 C   0  0  0  0  0  0  0  0  0  0  0  0
   -0.6208   -0.3719   -1.1235 N   0  0  0  0  0  0  0  0  0  0  0  0
    0.5709    0.2878   -0.9718 C   0  0  0  0  0  0  0  0  0  0  0  0
    0.8130    1.6484   -0.9343 C   0  0  0  0  0  0  0  0  0  0  0  0
    2.1725    1.8430   -0.6129 C   0  0  0  0  0  0  0  0  0  0  0  0
    2.7449    0.5960   -0.4502 C   0  0  0  0  0  0  0  0  0  0  0  0
    4.0830    0.1846   -0.0823 C   0  0  0  0  0  0  0  0  0  0  0  0
    5.0871    1.1787    0.3786 C   0  0  0  0  0  0  0  0  0  0  0  0
    6.3832    1.1212   -0.1464 C   0  0  0  0  0  0  0  0  0  0  0  0
    7.3500    2.0325    0.2809 C   0  0  0  0  0  0  0  0  0  0  0  0
    7.0274    2.9920    1.2408 C   0  0  0  0  0  0  0  0  0  0  0  0
    5.7419    3.0376    1.7820 C   0  0  0  0  0  0  0  0  0  0  0  0
    4.7715    2.1278    1.3574 C   0  0  0  0  0  0  0  0  0  0  0  0
    4.4383   -1.0644   -0.1504 N   0  0  0  0  0  0  0  0  0  0  0  0
    3.4997   -2.0258   -0.5731 C   0  0  0  0  0  0  0  0  0  0  0  0
    3.9328   -3.3518   -0.6733 C   0  0  0  0  0  0  0  0  0  0  0  0
    3.0658   -4.3565   -1.1042 C   0  0  0  0  0  0  0  0  0  0  0  0
    1.7537   -4.0392   -1.4479 C   0  0  0  0  0  0  0  0  0  0  0  0
    1.3017   -2.7210   -1.3524 C   0  0  0  0  0  0  0  0  0  0  0  0
    2.1668   -1.7199   -0.8995 C   0  0  0  0  0  0  0  0  0  0  0  0
    1.7941   -0.3567   -0.7840 N   0  0  0  0  0  0  0  0  0  0  0  0
   -1.5774    0.1334   -2.1447 C   0  0  0  0  0  0  0  0  0  0  0  0
   -2.9443    0.5244   -1.5445 C   0  0  0  0  0  0  0  0  0  0  0  0
   -2.7705    1.8076    3.0572 H   0  0  0  0  0  0  0  0  0  0  0  0
   -4.2586    1.0091    3.5759 H   0  0  0  0  0  0  0  0  0  0  0  0
   -4.3161    2.5021    2.5574 H   0  0  0  0  0  0  0  0  0  0  0  0
   -6.2822    1.1912    2.4543 H   0  0  0  0  0  0  0  0  0  0  0  0
   -8.2928    0.4915    1.2609 H   0  0  0  0  0  0  0  0  0  0  0  0
   -8.1175   -0.7146   -0.9003 H   0  0  0  0  0  0  0  0  0  0  0  0
   -5.8941   -1.2212   -1.8527 H   0  0  0  0  0  0  0  0  0  0  0  0
   -2.4740   -2.3937   -0.6389 H   0  0  0  0  0  0  0  0  0  0  0  0
   -3.0706   -1.7662    0.8849 H   0  0  0  0  0  0  0  0  0  0  0  0
   -0.6176   -1.4972    0.6823 H   0  0  0  0  0  0  0  0  0  0  0  0
   -1.3880    0.0850    0.8029 H   0  0  0  0  0  0  0  0  0  0  0  0
    0.0709    2.4229   -1.0725 H   0  0  0  0  0  0  0  0  0  0  0  0
    2.6674    2.7976   -0.4910 H   0  0  0  0  0  0  0  0  0  0  0  0
    6.6393    0.3676   -0.8875 H   0  0  0  0  0  0  0  0  0  0  0  0
    8.3552    1.9897   -0.1308 H   0  0  0  0  0  0  0  0  0  0  0  0
    7.7831    3.6986    1.5756 H   0  0  0  0  0  0  0  0  0  0  0  0
    5.4990    3.7760    2.5419 H   0  0  0  0  0  0  0  0  0  0  0  0
    3.7825    2.1536    1.8071 H   0  0  0  0  0  0  0  0  0  0  0  0
    4.9603   -3.5966   -0.4163 H   0  0  0  0  0  0  0  0  0  0  0  0
    3.4189   -5.3815   -1.1809 H   0  0  0  0  0  0  0  0  0  0  0  0
    1.0812   -4.8170   -1.8008 H   0  0  0  0  0  0  0  0  0  0  0  0
    0.2843   -2.5058   -1.6586 H   0  0  0  0  0  0  0  0  0  0  0  0
   -1.1685    0.9843   -2.7025 H   0  0  0  0  0  0  0  0  0  0  0  0
   -1.7255   -0.6725   -2.8745 H   0  0  0  0  0  0  0  0  0  0  0  0
   -2.8046    1.3555   -0.8416 H   0  0  0  0  0  0  0  0  0  0  0  0
   -3.5948    0.8781   -2.3538 H   0  0  0  0  0  0  0  0  0  0  0  0
  1  2  1  0
  2  3  1  0
  3  4  2  0
  4  5  1  0
  5  6  2  0
  6  7  1  0
  7  8  2  0
  8  9  1  0
  9 10  1  0
 10 11  1  0
 11 12  1  0
 12 13  1  0
 13 14  2  0
 14 15  1  0
 15 16  2  0
 16 17  1  0
 17 18  1  0
 18 19  2  0
 19 20  1  0
 20 21  2  0
 21 22  1  0
 22 23  2  0
 17 24  2  0
 24 25  1  0
 25 26  2  0
 26 27  1  0
 27 28  2  0
 28 29  1  0
 29 30  2  0
 30 31  1  0
 12 32  1  0
 32 33  1  0
  8  3  1  0
 33  9  1  0
 31 13  1  0
 31 16  1  0
 23 18  1  0
 30 25  1  0
  1 34  1  0
  1 35  1  0
  1 36  1  0
  4 37  1  0
  5 38  1  0
  6 39  1  0
  7 40  1  0
 10 41  1  0
 10 42  1  0
 11 43  1  0
 11 44  1  0
 14 45  1  0
 15 46  1  0
 19 47  1  0
 20 48  1  0
 21 49  1  0
 22 50  1  0
 23 51  1  0
 26 52  1  0
 27 53  1  0
 28 54  1  0
 29 55  1  0
 32 56  1  0
 32 57  1  0
 33 58  1  0
 33 59  1  0
M  END
$$$$
