
     RDKit          3D

 42 44  0  0  0  0  0  0  0  0999 V2000
    4.8402   -3.6963    0.0001 C   0  0  0  0  0  0  0  0  0  0  0  0
    5.2100   -2.3287   -0.1358 O   0  0  0  0  0  0  0  0  0  0  0  0
    4.1942   -1.4286   -0.3151 C   0  0  0  0  0  0  0  0  0  0  0  0
    4.6145   -0.1059   -0.4982 C   0  0  0  0  0  0  0  0  0  0  0  0
    3.6862    0.9158   -0.7033 C   0  0  0  0  0  0  0  0  0  0  0  0
    3.9769    2.2368   -0.9090 O   0  0  0  0  0  0  0  0  0  0  0  0
    5.3522    2.6006   -0.9074 C   0  0  0  0  0  0  0  0  0  0  0  0
    2.3233    0.6127   -0.7140 C   0  0  0  0  0  0  0  0  0  0  0  0
    1.8909   -0.7034   -0.5123 C   0  0  0  0  0  0  0  0  0  0  0  0
    0.4440   -1.0727   -0.5212 C   0  0  0  0  0  0  0  0  0  0  0  0
    0.1502   -2.1952   -0.9156 O   0  0  0  0  0  0  0  0  0  0  0  0
   -0.4054   -0.0955   -0.0420 N   0  0  0  0  0  0  0  0  0  0  0  0
   -1.7901   -0.1477    0.0547 C   0  0  0  0  0  0  0  0  0  0  0  0
   -2.6742   -1.5016   -0.5087 S   0  0  0  0  0  0  0  0  0  0  0  0
   -4.1063   -0.8084   -0.0188 C   0  0  0  0  0  0  0  0  0  0  0  0
   -3.9672    0.4288    0.5474 C   0  0  0  0  0  0  0  0  0  0  0  0
   -2.6064    0.8593    0.5859 C   0  0  0  0  0  0  0  0  0  0  0  0
   -2.0501    2.1127    1.0915 C   0  0  0  0  0  0  0  0  0  0  0  0
   -2.9347    3.1101    1.3819 N   0  0  0  0  0  0  0  0  0  0  0  0
   -0.8432    2.3055    1.2228 O   0  0  0  0  0  0  0  0  0  0  0  0
   -5.2943    0.9530    0.9687 C   0  0  0  0  0  0  0  0  0  0  0  0
   -6.2041   -0.3118    0.8873 C   0  0  0  0  0  0  0  0  0  0  0  0
   -5.4993   -1.3061   -0.0805 C   0  0  0  0  0  0  0  0  0  0  0  0
    2.8326   -1.7255   -0.3253 C   0  0  0  0  0  0  0  0  0  0  0  0
    4.3209   -4.0564   -0.8942 H   0  0  0  0  0  0  0  0  0  0  0  0
    4.2367   -3.8534    0.9001 H   0  0  0  0  0  0  0  0  0  0  0  0
    5.7588   -4.2809    0.1094 H   0  0  0  0  0  0  0  0  0  0  0  0
    5.6819    0.0907   -0.4837 H   0  0  0  0  0  0  0  0  0  0  0  0
    5.8141    2.3935    0.0636 H   0  0  0  0  0  0  0  0  0  0  0  0
    5.8932    2.1020   -1.7184 H   0  0  0  0  0  0  0  0  0  0  0  0
    5.4125    3.6793   -1.0812 H   0  0  0  0  0  0  0  0  0  0  0  0
    1.6159    1.4155   -0.9055 H   0  0  0  0  0  0  0  0  0  0  0  0
    0.0019    0.7460    0.3639 H   0  0  0  0  0  0  0  0  0  0  0  0
   -3.8807    3.0929    1.0363 H   0  0  0  0  0  0  0  0  0  0  0  0
   -2.5303    4.0107    1.6000 H   0  0  0  0  0  0  0  0  0  0  0  0
   -5.6444    1.7169    0.2664 H   0  0  0  0  0  0  0  0  0  0  0  0
   -5.2877    1.3631    1.9823 H   0  0  0  0  0  0  0  0  0  0  0  0
   -7.2234   -0.0716    0.5696 H   0  0  0  0  0  0  0  0  0  0  0  0
   -6.2686   -0.7684    1.8840 H   0  0  0  0  0  0  0  0  0  0  0  0
   -5.9029   -1.2087   -1.0936 H   0  0  0  0  0  0  0  0  0  0  0  0
   -5.6087   -2.3385    0.2621 H   0  0  0  0  0  0  0  0  0  0  0  0
    2.4710   -2.7405   -0.1877 H   0  0  0  0  0  0  0  0  0  0  0  0
  1  2  1  0
  2  3  1  0
  3  4  2  0
  4  5  1  0
  5  6  1  0
  6  7  1  0
  5  8  2  0
  8  9  1  0
  9 10  1  0
 10 11  2  0
 10 12  1  0
 12 13  1  0
 13 14  1  0
 14 15  1  0
 15 16  2  0
 16 17  1  0
 17 18  1  0
 18 19  1  0
 18 20  2  0
 16 21  1  0
 21 22  1  0
 22 23  1  0
  9 24  2  0
 24  3  1  0
 17 13  2  0
 23 15  1  0
  1 25  1  0
  1 26  1  0
  1 27  1  0
  4 28  1  0
  7 29  1  0
  7 30  1  0
  7 31  1  0
  8 32  1  0
 12 33  1  0
 19 34  1  0
 19 35  1  0
 21 36  1  0
 21 37  1  0
 22 38  1  0
 22 39  1  0
 23 40  1  0
 23 41  1  0
 24 42  1  0
M  END
$$$$
