
     RDKit          3D

 34 35  0  0  0  0  0  0  0  0999 V2000
    4.1252   -0.3439    2.4409 C   0  0  0  0  0  0  0  0  0  0  0  0
    3.2306    0.6034    1.8702 O   0  0  0  0  0  0  0  0  0  0  0  0
    2.7118    0.3026    0.6418 C   0  0  0  0  0  0  0  0  0  0  0  0
    2.9017   -0.8884   -0.0599 C   0  0  0  0  0  0  0  0  0  0  0  0
    2.2966   -1.0706   -1.3091 C   0  0  0  0  0  0  0  0  0  0  0  0
    1.4872   -0.0752   -1.8591 C   0  0  0  0  0  0  0  0  0  0  0  0
    0.8792   -0.2604   -3.1038 N   0  0  0  0  0  0  0  0  0  0  0  0
   -0.3219   -0.7545   -3.1680 C   0  0  0  0  0  0  0  0  0  0  0  0
   -1.1871   -1.2112   -2.0233 C   0  0  0  0  0  0  0  0  0  0  0  0
   -2.2639   -0.2045   -1.6990 C   0  0  0  0  0  0  0  0  0  0  0  0
   -2.9423    0.2987   -2.5955 O   0  0  0  0  0  0  0  0  0  0  0  0
   -2.5632    0.1585   -0.2806 C   0  0  0  0  0  0  0  0  0  0  0  0
   -1.6529   -0.0229    0.7676 C   0  0  0  0  0  0  0  0  0  0  0  0
   -1.9939    0.3572    2.0715 C   0  0  0  0  0  0  0  0  0  0  0  0
   -3.2433    0.9160    2.3326 C   0  0  0  0  0  0  0  0  0  0  0  0
   -3.6559    1.3767    3.9370 Cl  0  0  0  0  0  0  0  0  0  0  0  0
   -4.1565    1.1052    1.2992 C   0  0  0  0  0  0  0  0  0  0  0  0
   -3.8151    0.7316   -0.0042 C   0  0  0  0  0  0  0  0  0  0  0  0
    1.3216    1.1259   -1.1691 C   0  0  0  0  0  0  0  0  0  0  0  0
    1.9235    1.3093    0.0782 C   0  0  0  0  0  0  0  0  0  0  0  0
    4.9992   -0.4989    1.7998 H   0  0  0  0  0  0  0  0  0  0  0  0
    4.4784    0.0626    3.3935 H   0  0  0  0  0  0  0  0  0  0  0  0
    3.6148   -1.2896    2.6507 H   0  0  0  0  0  0  0  0  0  0  0  0
    3.5163   -1.6928    0.3302 H   0  0  0  0  0  0  0  0  0  0  0  0
    2.4584   -1.9936   -1.8591 H   0  0  0  0  0  0  0  0  0  0  0  0
   -0.7769   -0.8272   -4.1719 H   0  0  0  0  0  0  0  0  0  0  0  0
   -1.6961   -2.1276   -2.3450 H   0  0  0  0  0  0  0  0  0  0  0  0
   -0.5835   -1.4861   -1.1619 H   0  0  0  0  0  0  0  0  0  0  0  0
   -0.6594   -0.4298    0.6093 H   0  0  0  0  0  0  0  0  0  0  0  0
   -1.2738    0.2237    2.8759 H   0  0  0  0  0  0  0  0  0  0  0  0
   -5.1305    1.5462    1.4960 H   0  0  0  0  0  0  0  0  0  0  0  0
   -4.5352    0.8910   -0.8063 H   0  0  0  0  0  0  0  0  0  0  0  0
    0.7236    1.9215   -1.6052 H   0  0  0  0  0  0  0  0  0  0  0  0
    1.7831    2.2471    0.6105 H   0  0  0  0  0  0  0  0  0  0  0  0
  1  2  1  0
  2  3  1  0
  3  4  2  0
  4  5  1  0
  5  6  2  0
  6  7  1  0
  7  8  2  3
  8  9  1  0
  9 10  1  0
 10 11  2  0
 10 12  1  0
 12 13  2  0
 13 14  1  0
 14 15  2  0
 15 16  1  0
 15 17  1  0
 17 18  2  0
  6 19  1  0
 19 20  2  0
 20  3  1  0
 18 12  1  0
  1 21  1  0
  1 22  1  0
  1 23  1  0
  4 24  1  0
  5 25  1  0
  8 26  1  0
  9 27  1  0
  9 28  1  0
 13 29  1  0
 14 30  1  0
 17 31  1  0
 18 32  1  0
 19 33  1  0
 20 34  1  0
M  END
$$$$
