
     RDKit          3D

 51 54  0  0  0  0  0  0  0  0999 V2000
    6.5871    1.3865   -1.5088 C   0  0  0  0  0  0  0  0  0  0  0  0
    5.5746    0.8690   -2.5192 C   0  0  0  0  0  0  0  0  0  0  0  0
    4.1599    1.0286   -2.0267 C   0  0  0  0  0  0  0  0  0  0  0  0
    3.4321    2.1855   -2.3118 C   0  0  0  0  0  0  0  0  0  0  0  0
    2.1230    2.3394   -1.8380 C   0  0  0  0  0  0  0  0  0  0  0  0
    1.5010    1.3470   -1.0626 C   0  0  0  0  0  0  0  0  0  0  0  0
    0.1431    1.5127   -0.5768 N   0  0  0  0  0  0  0  0  0  0  0  0
   -0.2627    2.7911   -0.1706 C   0  0  0  0  0  0  0  0  0  0  0  0
    0.4384    3.8037   -0.1629 O   0  0  0  0  0  0  0  0  0  0  0  0
   -1.6290    2.9351    0.3580 C   0  0  0  0  0  0  0  0  0  0  0  0
   -2.0590    4.1905    0.8244 C   0  0  0  0  0  0  0  0  0  0  0  0
   -3.3355    4.3450    1.3560 C   0  0  0  0  0  0  0  0  0  0  0  0
   -4.1796    3.2450    1.4296 C   0  0  0  0  0  0  0  0  0  0  0  0
   -3.7507    1.9978    0.9626 C   0  0  0  0  0  0  0  0  0  0  0  0
   -2.4699    1.8301    0.4084 C   0  0  0  0  0  0  0  0  0  0  0  0
   -2.0077    0.5886   -0.0910 N   0  0  0  0  0  0  0  0  0  0  0  0
   -2.9081   -0.5715   -0.1362 C   0  0  0  0  0  0  0  0  0  0  0  0
   -2.8793   -1.3556    1.1751 C   0  0  0  0  0  0  0  0  0  0  0  0
   -3.8866   -1.5101    1.8619 O   0  0  0  0  0  0  0  0  0  0  0  0
   -1.6518   -1.8947    1.4882 N   0  0  0  0  0  0  0  0  0  0  0  0
   -1.4748   -2.7955    2.6018 C   0  0  0  0  0  0  0  0  0  0  0  0
   -1.6496   -4.1860    2.1186 C   0  0  0  0  0  0  0  0  0  0  0  0
   -2.7440   -5.0192    2.0118 C   0  0  0  0  0  0  0  0  0  0  0  0
   -2.2687   -6.2337    1.4626 C   0  0  0  0  0  0  0  0  0  0  0  0
   -0.9182   -6.0637    1.2679 C   0  0  0  0  0  0  0  0  0  0  0  0
   -0.5322   -4.8229    1.6617 O   0  0  0  0  0  0  0  0  0  0  0  0
   -0.6966    0.3912   -0.5249 C   0  0  0  0  0  0  0  0  0  0  0  0
   -0.3530   -0.7503   -0.8548 O   0  0  0  0  0  0  0  0  0  0  0  0
    2.2499    0.1940   -0.7771 C   0  0  0  0  0  0  0  0  0  0  0  0
    3.5592    0.0359   -1.2496 C   0  0  0  0  0  0  0  0  0  0  0  0
    7.6039    1.2607   -1.8939 H   0  0  0  0  0  0  0  0  0  0  0  0
    6.5142    0.8445   -0.5599 H   0  0  0  0  0  0  0  0  0  0  0  0
    6.4321    2.4507   -1.3007 H   0  0  0  0  0  0  0  0  0  0  0  0
    5.6970    1.4005   -3.4707 H   0  0  0  0  0  0  0  0  0  0  0  0
    5.7723   -0.1880   -2.7349 H   0  0  0  0  0  0  0  0  0  0  0  0
    3.8742    2.9814   -2.9072 H   0  0  0  0  0  0  0  0  0  0  0  0
    1.5953    3.2488   -2.1155 H   0  0  0  0  0  0  0  0  0  0  0  0
   -1.3942    5.0518    0.7808 H   0  0  0  0  0  0  0  0  0  0  0  0
   -3.6635    5.3156    1.7194 H   0  0  0  0  0  0  0  0  0  0  0  0
   -5.1744    3.3501    1.8574 H   0  0  0  0  0  0  0  0  0  0  0  0
   -4.4489    1.1721    1.0708 H   0  0  0  0  0  0  0  0  0  0  0  0
   -2.6135   -1.2558   -0.9414 H   0  0  0  0  0  0  0  0  0  0  0  0
   -3.9312   -0.2691   -0.3795 H   0  0  0  0  0  0  0  0  0  0  0  0
   -0.9436   -1.9139    0.7562 H   0  0  0  0  0  0  0  0  0  0  0  0
   -0.4639   -2.6430    2.9924 H   0  0  0  0  0  0  0  0  0  0  0  0
   -2.1922   -2.5652    3.3959 H   0  0  0  0  0  0  0  0  0  0  0  0
   -3.7584   -4.7690    2.2920 H   0  0  0  0  0  0  0  0  0  0  0  0
   -2.8394   -7.1223    1.2337 H   0  0  0  0  0  0  0  0  0  0  0  0
   -0.1325   -6.6949    0.8769 H   0  0  0  0  0  0  0  0  0  0  0  0
    1.8491   -0.5985   -0.1505 H   0  0  0  0  0  0  0  0  0  0  0  0
    4.1061   -0.8701   -0.9970 H   0  0  0  0  0  0  0  0  0  0  0  0
  1  2  1  0
  2  3  1  0
  3  4  2  0
  4  5  1  0
  5  6  2  0
  6  7  1  0
  7  8  1  0
  8  9  2  0
  8 10  1  0
 10 11  2  0
 11 12  1  0
 12 13  2  0
 13 14  1  0
 14 15  2  0
 15 16  1  0
 16 17  1  0
 17 18  1  0
 18 19  2  0
 18 20  1  0
 20 21  1  0
 21 22  1  0
 22 23  2  0
 23 24  1  0
 24 25  2  0
 25 26  1  0
 16 27  1  0
 27 28  2  0
  6 29  1  0
 29 30  2  0
 30  3  1  0
 27  7  1  0
 15 10  1  0
 26 22  1  0
  1 31  1  0
  1 32  1  0
  1 33  1  0
  2 34  1  0
  2 35  1  0
  4 36  1  0
  5 37  1  0
 11 38  1  0
 12 39  1  0
 13 40  1  0
 14 41  1  0
 17 42  1  0
 17 43  1  0
 20 44  1  0
 21 45  1  0
 21 46  1  0
 23 47  1  0
 24 48  1  0
 25 49  1  0
 29 50  1  0
 30 51  1  0
M  END
$$$$
