
     RDKit          3D

 51 54  0  0  0  0  0  0  0  0999 V2000
    8.2879   -0.4932   -1.9893 C   0  0  0  0  0  0  0  0  0  0  0  0
    6.9108   -0.6313   -1.4119 C   0  0  0  0  0  0  0  0  0  0  0  0
    6.3725   -1.8964   -1.1468 C   0  0  0  0  0  0  0  0  0  0  0  0
    5.0953   -2.0586   -0.5666 C   0  0  0  0  0  0  0  0  0  0  0  0
    4.6784   -3.4667   -0.2401 C   0  0  0  0  0  0  0  0  0  0  0  0
    4.3214   -0.9153   -0.2954 C   0  0  0  0  0  0  0  0  0  0  0  0
    3.0086   -0.9409    0.2424 N   0  0  0  0  0  0  0  0  0  0  0  0
    1.9912   -1.8145   -0.1105 C   0  0  0  0  0  0  0  0  0  0  0  0
    2.0610   -2.7048   -0.9516 O   0  0  0  0  0  0  0  0  0  0  0  0
    0.7059   -1.5480    0.6542 C   0  0  0  0  0  0  0  0  0  0  0  0
   -0.0472   -0.0048    0.0532 S   0  0  0  0  0  0  0  0  0  0  0  0
   -1.4058    0.0999    1.1148 C   0  0  0  0  0  0  0  0  0  0  0  0
   -1.5586   -0.5800    2.2253 N   0  0  0  0  0  0  0  0  0  0  0  0
   -2.7607   -0.2140    2.7763 N   0  0  0  0  0  0  0  0  0  0  0  0
   -3.3119    0.7028    2.0032 C   0  0  0  0  0  0  0  0  0  0  0  0
   -4.6095    1.3240    2.2282 C   0  0  0  0  0  0  0  0  0  0  0  0
   -5.7675    0.5504    2.1430 C   0  0  0  0  0  0  0  0  0  0  0  0
   -6.9876    1.1719    2.3386 C   0  0  0  0  0  0  0  0  0  0  0  0
   -7.1212    2.4872    2.6130 N   0  0  0  0  0  0  0  0  0  0  0  0
   -5.9853    3.2069    2.7271 C   0  0  0  0  0  0  0  0  0  0  0  0
   -4.7190    2.6779    2.5457 C   0  0  0  0  0  0  0  0  0  0  0  0
   -2.4794    0.9259    0.9232 N   0  0  0  0  0  0  0  0  0  0  0  0
   -2.7238    1.8314   -0.1825 C   0  0  0  0  0  0  0  0  0  0  0  0
   -3.6811    1.2442   -1.1508 C   0  0  0  0  0  0  0  0  0  0  0  0
   -5.0182    1.4595   -1.4170 C   0  0  0  0  0  0  0  0  0  0  0  0
   -5.3614    0.5777   -2.4702 C   0  0  0  0  0  0  0  0  0  0  0  0
   -4.2148   -0.1128   -2.7817 C   0  0  0  0  0  0  0  0  0  0  0  0
   -3.1887    0.2891   -1.9900 O   0  0  0  0  0  0  0  0  0  0  0  0
    4.8976    0.3568   -0.5097 C   0  0  0  0  0  0  0  0  0  0  0  0
    4.0265    1.8074   -0.1196 Cl  0  0  0  0  0  0  0  0  0  0  0  0
    6.1726    0.4988   -1.0623 C   0  0  0  0  0  0  0  0  0  0  0  0
    8.3542    0.3931   -2.6291 H   0  0  0  0  0  0  0  0  0  0  0  0
    8.5427   -1.3597   -2.6084 H   0  0  0  0  0  0  0  0  0  0  0  0
    9.0239   -0.4059   -1.1844 H   0  0  0  0  0  0  0  0  0  0  0  0
    6.9654   -2.7818   -1.3782 H   0  0  0  0  0  0  0  0  0  0  0  0
    5.5510   -4.0680    0.0421 H   0  0  0  0  0  0  0  0  0  0  0  0
    4.0047   -3.5016    0.6211 H   0  0  0  0  0  0  0  0  0  0  0  0
    4.2106   -3.9409   -1.1079 H   0  0  0  0  0  0  0  0  0  0  0  0
    2.6752   -0.0353    0.5654 H   0  0  0  0  0  0  0  0  0  0  0  0
    0.9393   -1.4794    1.7224 H   0  0  0  0  0  0  0  0  0  0  0  0
    0.0208   -2.3880    0.5015 H   0  0  0  0  0  0  0  0  0  0  0  0
   -5.7207   -0.5124    1.9259 H   0  0  0  0  0  0  0  0  0  0  0  0
   -7.9173    0.6126    2.2779 H   0  0  0  0  0  0  0  0  0  0  0  0
   -6.1253    4.2543    2.9794 H   0  0  0  0  0  0  0  0  0  0  0  0
   -3.8447    3.3080    2.6667 H   0  0  0  0  0  0  0  0  0  0  0  0
   -1.7774    2.0745   -0.6733 H   0  0  0  0  0  0  0  0  0  0  0  0
   -3.1058    2.7719    0.2264 H   0  0  0  0  0  0  0  0  0  0  0  0
   -5.6700    2.1601   -0.9116 H   0  0  0  0  0  0  0  0  0  0  0  0
   -6.3253    0.4586   -2.9450 H   0  0  0  0  0  0  0  0  0  0  0  0
   -3.9749   -0.8816   -3.5033 H   0  0  0  0  0  0  0  0  0  0  0  0
    6.5856    1.4911   -1.2266 H   0  0  0  0  0  0  0  0  0  0  0  0
  1  2  1  0
  2  3  2  0
  3  4  1  0
  4  5  1  0
  4  6  2  0
  6  7  1  0
  7  8  1  0
  8  9  2  0
  8 10  1  0
 10 11  1  0
 11 12  1  0
 12 13  2  0
 13 14  1  0
 14 15  2  0
 15 16  1  0
 16 17  2  0
 17 18  1  0
 18 19  2  0
 19 20  1  0
 20 21  2  0
 15 22  1  0
 22 23  1  0
 23 24  1  0
 24 25  2  0
 25 26  1  0
 26 27  2  0
 27 28  1  0
  6 29  1  0
 29 30  1  0
 29 31  2  0
 31  2  1  0
 22 12  1  0
 28 24  1  0
 21 16  1  0
  1 32  1  0
  1 33  1  0
  1 34  1  0
  3 35  1  0
  5 36  1  0
  5 37  1  0
  5 38  1  0
  7 39  1  0
 10 40  1  0
 10 41  1  0
 17 42  1  0
 18 43  1  0
 20 44  1  0
 21 45  1  0
 23 46  1  0
 23 47  1  0
 25 48  1  0
 26 49  1  0
 27 50  1  0
 31 51  1  0
M  END
$$$$
