
     RDKit          3D

 40 42  0  0  0  0  0  0  0  0999 V2000
   -4.0469   -1.4433   -2.0143 C   0  0  0  0  0  0  0  0  0  0  0  0
   -4.8169   -0.6561   -0.9879 C   0  0  0  0  0  0  0  0  0  0  0  0
   -6.2216   -0.6560   -1.0691 C   0  0  0  0  0  0  0  0  0  0  0  0
   -6.9911    0.0509   -0.1484 C   0  0  0  0  0  0  0  0  0  0  0  0
   -6.3659    0.7675    0.8637 C   0  0  0  0  0  0  0  0  0  0  0  0
   -4.9717    0.7776    0.9580 C   0  0  0  0  0  0  0  0  0  0  0  0
   -4.1812    0.0697    0.0450 C   0  0  0  0  0  0  0  0  0  0  0  0
   -2.7669    0.0679    0.1102 N   0  0  0  0  0  0  0  0  0  0  0  0
   -1.9624    0.6330    1.0835 C   0  0  0  0  0  0  0  0  0  0  0  0
   -2.3185    1.1806    2.1188 O   0  0  0  0  0  0  0  0  0  0  0  0
   -0.5010    0.5069    0.8240 C   0  0  0  0  0  0  0  0  0  0  0  0
    0.0324    0.6673   -0.4586 C   0  0  0  0  0  0  0  0  0  0  0  0
    1.4124    0.5481   -0.6593 C   0  0  0  0  0  0  0  0  0  0  0  0
    2.2754    0.2714    0.4115 C   0  0  0  0  0  0  0  0  0  0  0  0
    3.6511    0.1694    0.1136 N   0  0  0  0  0  0  0  0  0  0  0  0
    4.6912   -0.1463    0.9806 C   0  0  0  0  0  0  0  0  0  0  0  0
    4.5371   -0.4249    2.1658 O   0  0  0  0  0  0  0  0  0  0  0  0
    6.0089   -0.1338    0.3536 C   0  0  0  0  0  0  0  0  0  0  0  0
    6.4718    0.2158   -0.9063 C   0  0  0  0  0  0  0  0  0  0  0  0
    7.8747    0.0100   -0.9062 C   0  0  0  0  0  0  0  0  0  0  0  0
    8.1916   -0.4497    0.3476 C   0  0  0  0  0  0  0  0  0  0  0  0
    7.0777   -0.5390    1.1139 O   0  0  0  0  0  0  0  0  0  0  0  0
    1.7345    0.1305    1.6912 C   0  0  0  0  0  0  0  0  0  0  0  0
    0.3550    0.2544    1.8987 C   0  0  0  0  0  0  0  0  0  0  0  0
   -3.4532   -2.2238   -1.5276 H   0  0  0  0  0  0  0  0  0  0  0  0
   -4.7132   -1.9375   -2.7295 H   0  0  0  0  0  0  0  0  0  0  0  0
   -3.3883   -0.7810   -2.5854 H   0  0  0  0  0  0  0  0  0  0  0  0
   -6.7284   -1.2119   -1.8553 H   0  0  0  0  0  0  0  0  0  0  0  0
   -8.0753    0.0425   -0.2208 H   0  0  0  0  0  0  0  0  0  0  0  0
   -6.9578    1.3236    1.5861 H   0  0  0  0  0  0  0  0  0  0  0  0
   -4.5315    1.3585    1.7624 H   0  0  0  0  0  0  0  0  0  0  0  0
   -2.2943   -0.4722   -0.5995 H   0  0  0  0  0  0  0  0  0  0  0  0
   -0.6059    0.9160   -1.3023 H   0  0  0  0  0  0  0  0  0  0  0  0
    1.8012    0.6835   -1.6658 H   0  0  0  0  0  0  0  0  0  0  0  0
    3.9001    0.3230   -0.8517 H   0  0  0  0  0  0  0  0  0  0  0  0
    5.8852    0.5843   -1.7350 H   0  0  0  0  0  0  0  0  0  0  0  0
    8.5694    0.1793   -1.7171 H   0  0  0  0  0  0  0  0  0  0  0  0
    9.1142   -0.7419    0.8302 H   0  0  0  0  0  0  0  0  0  0  0  0
    2.3547   -0.0663    2.5606 H   0  0  0  0  0  0  0  0  0  0  0  0
   -0.0466    0.1518    2.9056 H   0  0  0  0  0  0  0  0  0  0  0  0
  1  2  1  0
  2  3  2  0
  3  4  1  0
  4  5  2  0
  5  6  1  0
  6  7  2  0
  7  8  1  0
  8  9  1  0
  9 10  2  0
  9 11  1  0
 11 12  2  0
 12 13  1  0
 13 14  2  0
 14 15  1  0
 15 16  1  0
 16 17  2  0
 16 18  1  0
 18 19  2  0
 19 20  1  0
 20 21  2  0
 21 22  1  0
 14 23  1  0
 23 24  2  0
  7  2  1  0
 24 11  1  0
 22 18  1  0
  1 25  1  0
  1 26  1  0
  1 27  1  0
  3 28  1  0
  4 29  1  0
  5 30  1  0
  6 31  1  0
  8 32  1  0
 12 33  1  0
 13 34  1  0
 15 35  1  0
 19 36  1  0
 20 37  1  0
 21 38  1  0
 23 39  1  0
 24 40  1  0
M  END
$$$$
