
     RDKit          3D

 48 51  0  0  0  0  0  0  0  0999 V2000
    3.6835    2.1937   -2.1018 C   0  0  0  0  0  0  0  0  0  0  0  0
    3.3829    2.2098   -0.6104 C   0  0  0  0  0  0  0  0  0  0  0  0
    3.0017    0.8814   -0.1357 N   0  0  0  0  0  0  0  0  0  0  0  0
    1.7278    0.3047   -0.1607 C   0  0  0  0  0  0  0  0  0  0  0  0
    0.5786    0.9215   -0.4983 C   0  0  0  0  0  0  0  0  0  0  0  0
   -0.7474    0.2898   -0.5370 C   0  0  0  0  0  0  0  0  0  0  0  0
   -1.1265   -0.3348   -1.7251 C   0  0  0  0  0  0  0  0  0  0  0  0
   -2.3650   -0.9379   -1.8258 C   0  0  0  0  0  0  0  0  0  0  0  0
   -3.2312   -0.9034   -0.7405 C   0  0  0  0  0  0  0  0  0  0  0  0
   -4.4946   -1.5063   -0.8466 C   0  0  0  0  0  0  0  0  0  0  0  0
   -5.4019   -1.4733    0.2154 C   0  0  0  0  0  0  0  0  0  0  0  0
   -6.7373   -2.1512    0.0984 C   0  0  0  0  0  0  0  0  0  0  0  0
   -5.0262   -0.8478    1.4019 C   0  0  0  0  0  0  0  0  0  0  0  0
   -3.7681   -0.2446    1.5221 C   0  0  0  0  0  0  0  0  0  0  0  0
   -2.8376   -0.2591    0.4646 C   0  0  0  0  0  0  0  0  0  0  0  0
   -1.5888    0.3186    0.5409 N   0  0  0  0  0  4  0  0  0  0  0  0
   -1.1298    0.9609    1.8098 C   0  0  0  0  0  0  0  0  0  0  0  0
   -1.5741    2.4114    1.8400 C   0  0  0  0  0  0  0  0  0  0  0  0
    1.7018   -1.4098    0.3467 S   0  0  0  0  0  0  0  0  0  0  0  0
    3.4777   -1.3402    0.5305 C   0  0  0  0  0  0  0  0  0  0  0  0
    4.2923   -2.3977    0.9116 C   0  0  0  0  0  0  0  0  0  0  0  0
    5.6655   -2.1785    0.9940 C   0  0  0  0  0  0  0  0  0  0  0  0
    6.1975   -0.9187    0.6950 C   0  0  0  0  0  0  0  0  0  0  0  0
    5.3649    0.1409    0.3109 C   0  0  0  0  0  0  0  0  0  0  0  0
    3.9910   -0.0594    0.2257 C   0  0  0  0  0  0  0  0  0  0  0  0
    4.5182    1.5250   -2.3348 H   0  0  0  0  0  0  0  0  0  0  0  0
    3.9484    3.1987   -2.4449 H   0  0  0  0  0  0  0  0  0  0  0  0
    2.8148    1.8567   -2.6769 H   0  0  0  0  0  0  0  0  0  0  0  0
    2.5746    2.9246   -0.4164 H   0  0  0  0  0  0  0  0  0  0  0  0
    4.2408    2.6049   -0.0549 H   0  0  0  0  0  0  0  0  0  0  0  0
    0.5828    1.9624   -0.8055 H   0  0  0  0  0  0  0  0  0  0  0  0
   -0.4490   -0.3631   -2.5780 H   0  0  0  0  0  0  0  0  0  0  0  0
   -2.6450   -1.4292   -2.7574 H   0  0  0  0  0  0  0  0  0  0  0  0
   -4.7862   -2.0098   -1.7696 H   0  0  0  0  0  0  0  0  0  0  0  0
   -6.6515   -3.1997    0.3995 H   0  0  0  0  0  0  0  0  0  0  0  0
   -7.4821   -1.6601    0.7335 H   0  0  0  0  0  0  0  0  0  0  0  0
   -7.1082   -2.1062   -0.9310 H   0  0  0  0  0  0  0  0  0  0  0  0
   -5.7153   -0.8230    2.2465 H   0  0  0  0  0  0  0  0  0  0  0  0
   -3.5657    0.2354    2.4742 H   0  0  0  0  0  0  0  0  0  0  0  0
   -0.0438    0.8891    1.8958 H   0  0  0  0  0  0  0  0  0  0  0  0
   -1.5133    0.3905    2.6597 H   0  0  0  0  0  0  0  0  0  0  0  0
   -1.2432    2.8885    2.7675 H   0  0  0  0  0  0  0  0  0  0  0  0
   -1.1520    2.9720    1.0001 H   0  0  0  0  0  0  0  0  0  0  0  0
   -2.6627    2.5014    1.7815 H   0  0  0  0  0  0  0  0  0  0  0  0
    3.8775   -3.3748    1.1372 H   0  0  0  0  0  0  0  0  0  0  0  0
    6.3289   -2.9892    1.2883 H   0  0  0  0  0  0  0  0  0  0  0  0
    7.2728   -0.7620    0.7606 H   0  0  0  0  0  0  0  0  0  0  0  0
    5.8223    1.0980    0.0859 H   0  0  0  0  0  0  0  0  0  0  0  0
  1  2  1  0
  2  3  1  0
  3  4  1  0
  4  5  2  3
  5  6  1  0
  6  7  2  0
  7  8  1  0
  8  9  2  0
  9 10  1  0
 10 11  2  0
 11 12  1  0
 11 13  1  0
 13 14  2  0
 14 15  1  0
 15 16  2  0
 16 17  1  0
 17 18  1  0
  4 19  1  0
 19 20  1  0
 20 21  2  0
 21 22  1  0
 22 23  2  0
 23 24  1  0
 24 25  2  0
 25  3  1  0
 16  6  1  0
 25 20  1  0
 15  9  1  0
  1 26  1  0
  1 27  1  0
  1 28  1  0
  2 29  1  0
  2 30  1  0
  5 31  1  0
  7 32  1  0
  8 33  1  0
 10 34  1  0
 12 35  1  0
 12 36  1  0
 12 37  1  0
 13 38  1  0
 14 39  1  0
 17 40  1  0
 17 41  1  0
 18 42  1  0
 18 43  1  0
 18 44  1  0
 21 45  1  0
 22 46  1  0
 23 47  1  0
 24 48  1  0
M  CHG  1  16   1
M  END
$$$$
