
     RDKit          3D

 44 46  0  0  0  0  0  0  0  0999 V2000
   -5.6819   -0.4525   -3.3854 C   0  0  0  0  0  0  0  0  0  0  0  0
   -4.8869   -0.7063   -2.1380 C   0  0  0  0  0  0  0  0  0  0  0  0
   -5.2423   -0.0879   -0.9311 C   0  0  0  0  0  0  0  0  0  0  0  0
   -4.5224   -0.3481    0.2361 C   0  0  0  0  0  0  0  0  0  0  0  0
   -3.4431   -1.2340    0.1950 C   0  0  0  0  0  0  0  0  0  0  0  0
   -2.5340   -1.5706    1.6803 S   0  0  0  0  0  6  0  0  0  0  0  0
   -1.7118   -2.7435    1.4765 O   0  0  0  0  0  0  0  0  0  0  0  0
   -3.4675   -1.5004    2.7858 O   0  0  0  0  0  0  0  0  0  0  0  0
   -1.5405   -0.2068    1.8273 N   0  0  0  0  0  0  0  0  0  0  0  0
   -0.3607   -0.1576    1.0344 C   0  0  0  0  0  0  0  0  0  0  0  0
   -0.4208    0.3773   -0.2515 C   0  0  0  0  0  0  0  0  0  0  0  0
    0.7180    0.3899   -1.0661 C   0  0  0  0  0  0  0  0  0  0  0  0
    0.6485    0.9622   -2.4528 C   0  0  0  0  0  0  0  0  0  0  0  0
    1.9157   -0.1400   -0.5637 C   0  0  0  0  0  0  0  0  0  0  0  0
    3.0072   -0.0980   -1.3932 O   0  0  0  0  0  0  0  0  0  0  0  0
    1.9827   -0.6921    0.7277 C   0  0  0  0  0  0  0  0  0  0  0  0
    3.4489   -1.4684    1.3947 S   0  0  0  0  0  0  0  0  0  0  0  0
    4.5356   -0.1170    1.5282 C   0  0  0  0  0  0  0  0  0  0  0  0
    5.0842    0.4376    0.4403 N   0  0  0  0  0  0  0  0  0  0  0  0
    5.8372    1.4056    0.9914 N   0  0  0  0  0  0  0  0  0  0  0  0
    5.7261    1.4075    2.3532 C   0  0  0  0  0  0  0  0  0  0  0  0
    6.4428    2.3667    3.2183 C   0  0  0  0  0  0  0  0  0  0  0  0
    4.9048    0.4459    2.7155 N   0  0  0  0  0  0  0  0  0  0  0  0
    0.8274   -0.7017    1.5198 C   0  0  0  0  0  0  0  0  0  0  0  0
   -3.0958   -1.8808   -0.9934 C   0  0  0  0  0  0  0  0  0  0  0  0
   -3.8186   -1.6139   -2.1571 C   0  0  0  0  0  0  0  0  0  0  0  0
   -6.4519   -1.2214   -3.5010 H   0  0  0  0  0  0  0  0  0  0  0  0
   -5.0328   -0.4628   -4.2672 H   0  0  0  0  0  0  0  0  0  0  0  0
   -6.1664    0.5287   -3.3503 H   0  0  0  0  0  0  0  0  0  0  0  0
   -6.0860    0.5984   -0.8935 H   0  0  0  0  0  0  0  0  0  0  0  0
   -4.8075    0.1365    1.1670 H   0  0  0  0  0  0  0  0  0  0  0  0
   -1.4613    0.0688    2.8056 H   0  0  0  0  0  0  0  0  0  0  0  0
   -1.3553    0.7930   -0.6210 H   0  0  0  0  0  0  0  0  0  0  0  0
    1.3430    1.8025   -2.5519 H   0  0  0  0  0  0  0  0  0  0  0  0
   -0.3558    1.3323   -2.6849 H   0  0  0  0  0  0  0  0  0  0  0  0
    0.8978    0.1946   -3.1924 H   0  0  0  0  0  0  0  0  0  0  0  0
    3.8133   -0.1780   -0.8396 H   0  0  0  0  0  0  0  0  0  0  0  0
    6.3875    2.0136    0.3943 H   0  0  0  0  0  0  0  0  0  0  0  0
    6.0521    3.3784    3.0742 H   0  0  0  0  0  0  0  0  0  0  0  0
    6.3208    2.1004    4.2726 H   0  0  0  0  0  0  0  0  0  0  0  0
    7.5132    2.3715    2.9911 H   0  0  0  0  0  0  0  0  0  0  0  0
    0.8491   -1.1532    2.5086 H   0  0  0  0  0  0  0  0  0  0  0  0
   -2.2672   -2.5854   -1.0232 H   0  0  0  0  0  0  0  0  0  0  0  0
   -3.5453   -2.1210   -3.0804 H   0  0  0  0  0  0  0  0  0  0  0  0
  1  2  1  0
  2  3  2  0
  3  4  1  0
  4  5  2  0
  5  6  1  0
  6  7  2  0
  6  8  2  0
  6  9  1  0
  9 10  1  0
 10 11  2  0
 11 12  1  0
 12 13  1  0
 12 14  2  0
 14 15  1  0
 14 16  1  0
 16 17  1  0
 17 18  1  0
 18 19  2  0
 19 20  1  0
 20 21  1  0
 21 22  1  0
 21 23  2  0
 16 24  2  0
  5 25  1  0
 25 26  2  0
 26  2  1  0
 24 10  1  0
 23 18  1  0
  1 27  1  0
  1 28  1  0
  1 29  1  0
  3 30  1  0
  4 31  1  0
  9 32  1  0
 11 33  1  0
 13 34  1  0
 13 35  1  0
 13 36  1  0
 15 37  1  0
 20 38  1  0
 22 39  1  0
 22 40  1  0
 22 41  1  0
 24 42  1  0
 25 43  1  0
 26 44  1  0
M  END
$$$$
