
     RDKit          3D

 54 57  0  0  0  0  0  0  0  0999 V2000
   -6.1591   -0.6855   -1.5034 C   0  0  0  0  0  0  0  0  0  0  0  0
   -5.8648    0.6859   -1.2756 O   0  0  0  0  0  0  0  0  0  0  0  0
   -4.6096    0.9918   -0.8176 C   0  0  0  0  0  0  0  0  0  0  0  0
   -3.5498    0.0855   -0.7265 C   0  0  0  0  0  0  0  0  0  0  0  0
   -2.2802    0.4757   -0.2521 C   0  0  0  0  0  0  0  0  0  0  0  0
   -1.1790   -0.5079   -0.1815 C   0  0  0  0  0  0  0  0  0  0  0  0
    0.1450   -0.1785   -0.4085 C   0  0  0  0  0  0  0  0  0  0  0  0
    1.1073   -1.1838   -0.3052 C   0  0  0  0  0  0  0  0  0  0  0  0
    2.5130   -0.7628   -0.5006 C   0  0  0  0  0  0  0  0  0  0  0  0
    2.8095   -0.2289   -1.5606 O   0  0  0  0  0  0  0  0  0  0  0  0
    3.3215   -0.9835    0.5973 N   0  0  0  0  0  0  0  0  0  0  0  0
    4.6978   -0.7029    0.7158 C   0  0  0  0  0  0  0  0  0  0  0  0
    5.3061   -0.9930    1.9441 C   0  0  0  0  0  0  0  0  0  0  0  0
    6.6684   -0.7516    2.1377 C   0  0  0  0  0  0  0  0  0  0  0  0
    7.4259   -0.2220    1.1025 C   0  0  0  0  0  0  0  0  0  0  0  0
    8.7514   -0.0050    1.3297 O   0  0  0  0  0  0  0  0  0  0  0  0
    6.8409    0.0748   -0.1218 C   0  0  0  0  0  0  0  0  0  0  0  0
    5.4759   -0.1681   -0.3139 C   0  0  0  0  0  0  0  0  0  0  0  0
    0.7480   -2.5188   -0.0249 C   0  0  0  0  0  0  0  0  0  0  0  0
    1.6485   -3.6144    0.0289 C   0  0  0  0  0  0  0  0  0  0  0  0
    1.1990   -4.8992    0.3255 C   0  0  0  0  0  0  0  0  0  0  0  0
   -0.1509   -5.1112    0.5631 C   0  0  0  0  0  0  0  0  0  0  0  0
   -1.0427   -4.0391    0.4897 C   0  0  0  0  0  0  0  0  0  0  0  0
   -0.6215   -2.7500    0.1920 C   0  0  0  0  0  0  0  0  0  0  0  0
   -1.5467   -1.7777    0.1219 N   0  0  0  0  0  0  0  0  0  0  0  0
   -2.1083    1.8146    0.1537 C   0  0  0  0  0  0  0  0  0  0  0  0
   -3.1542    2.7402    0.0752 C   0  0  0  0  0  0  0  0  0  0  0  0
   -3.0614    4.0575    0.4450 O   0  0  0  0  0  0  0  0  0  0  0  0
   -1.9207    4.4488    1.1952 C   0  0  0  0  0  0  0  0  0  0  0  0
   -4.3925    2.3237   -0.4364 C   0  0  0  0  0  0  0  0  0  0  0  0
   -5.4364    3.2216   -0.4892 O   0  0  0  0  0  0  0  0  0  0  0  0
   -5.4498    3.8681   -1.7604 C   0  0  0  0  0  0  0  0  0  0  0  0
   -7.2188   -0.7600   -1.7671 H   0  0  0  0  0  0  0  0  0  0  0  0
   -5.9986   -1.2835   -0.6002 H   0  0  0  0  0  0  0  0  0  0  0  0
   -5.5785   -1.0755   -2.3460 H   0  0  0  0  0  0  0  0  0  0  0  0
   -3.6799   -0.9497   -1.0312 H   0  0  0  0  0  0  0  0  0  0  0  0
    0.4425    0.8319   -0.6708 H   0  0  0  0  0  0  0  0  0  0  0  0
    2.8797   -1.3770    1.4202 H   0  0  0  0  0  0  0  0  0  0  0  0
    4.7334   -1.4103    2.7680 H   0  0  0  0  0  0  0  0  0  0  0  0
    7.1359   -0.9797    3.0906 H   0  0  0  0  0  0  0  0  0  0  0  0
    9.1500    0.3539    0.5193 H   0  0  0  0  0  0  0  0  0  0  0  0
    7.4211    0.4907   -0.9391 H   0  0  0  0  0  0  0  0  0  0  0  0
    5.0509    0.0676   -1.2848 H   0  0  0  0  0  0  0  0  0  0  0  0
    2.7084   -3.4794   -0.1801 H   0  0  0  0  0  0  0  0  0  0  0  0
    1.8995   -5.7300    0.3622 H   0  0  0  0  0  0  0  0  0  0  0  0
   -0.5180   -6.1074    0.7952 H   0  0  0  0  0  0  0  0  0  0  0  0
   -2.1019   -4.2169    0.6650 H   0  0  0  0  0  0  0  0  0  0  0  0
   -1.1430    2.1210    0.5434 H   0  0  0  0  0  0  0  0  0  0  0  0
   -1.0172    4.4149    0.5786 H   0  0  0  0  0  0  0  0  0  0  0  0
   -1.8069    3.8389    2.0975 H   0  0  0  0  0  0  0  0  0  0  0  0
   -2.0678    5.4861    1.5112 H   0  0  0  0  0  0  0  0  0  0  0  0
   -5.5953    3.1494   -2.5745 H   0  0  0  0  0  0  0  0  0  0  0  0
   -6.2928    4.5649   -1.7727 H   0  0  0  0  0  0  0  0  0  0  0  0
   -4.5331    4.4449   -1.9240 H   0  0  0  0  0  0  0  0  0  0  0  0
  1  2  1  0
  2  3  1  0
  3  4  2  0
  4  5  1  0
  5  6  1  0
  6  7  2  0
  7  8  1  0
  8  9  1  0
  9 10  2  0
  9 11  1  0
 11 12  1  0
 12 13  2  0
 13 14  1  0
 14 15  2  0
 15 16  1  0
 15 17  1  0
 17 18  2  0
  8 19  2  0
 19 20  1  0
 20 21  2  0
 21 22  1  0
 22 23  2  0
 23 24  1  0
 24 25  2  0
  5 26  2  0
 26 27  1  0
 27 28  1  0
 28 29  1  0
 27 30  2  0
 30 31  1  0
 31 32  1  0
 30  3  1  0
 25  6  1  0
 18 12  1  0
 24 19  1  0
  1 33  1  0
  1 34  1  0
  1 35  1  0
  4 36  1  0
  7 37  1  0
 11 38  1  0
 13 39  1  0
 14 40  1  0
 16 41  1  0
 17 42  1  0
 18 43  1  0
 20 44  1  0
 21 45  1  0
 22 46  1  0
 23 47  1  0
 26 48  1  0
 29 49  1  0
 29 50  1  0
 29 51  1  0
 32 52  1  0
 32 53  1  0
 32 54  1  0
M  END
$$$$
