
     RDKit          3D

 47 48  0  0  0  0  0  0  0  0999 V2000
   -3.3610    1.9324    3.5230 C   0  0  0  0  0  0  0  0  0  0  0  0
   -3.7120    0.4636    3.3262 C   0  0  0  0  0  0  0  0  0  0  0  0
   -3.4151    0.0142    1.9559 N   0  0  0  0  0  0  0  0  0  0  0  0
   -4.5777   -0.3168    1.1188 C   0  0  0  0  0  0  0  0  0  0  0  0
   -5.1388    0.9235    0.4402 C   0  0  0  0  0  0  0  0  0  0  0  0
   -2.1123   -0.1616    1.4999 C   0  0  0  0  0  0  0  0  0  0  0  0
   -1.0216   -0.2483    2.3779 C   0  0  0  0  0  0  0  0  0  0  0  0
    0.2926   -0.4189    1.9262 C   0  0  0  0  0  0  0  0  0  0  0  0
    0.5679   -0.5022    0.5616 C   0  0  0  0  0  0  0  0  0  0  0  0
    1.9686   -0.6860    0.1560 C   0  0  0  0  0  0  0  0  0  0  0  0
    2.5769    0.1803   -0.6674 C   0  0  0  0  0  0  0  0  0  0  0  0
    3.9413   -0.0268   -1.1436 C   0  0  0  0  0  0  0  0  0  0  0  0
    5.0279    0.1566   -0.2820 C   0  0  0  0  0  0  0  0  0  0  0  0
    6.3225   -0.0289   -0.7491 C   0  0  0  0  0  0  0  0  0  0  0  0
    6.5170   -0.3962   -2.0715 C   0  0  0  0  0  0  0  0  0  0  0  0
    5.4156   -0.5737   -2.8999 C   0  0  0  0  0  0  0  0  0  0  0  0
    4.1564   -0.3908   -2.4372 N   0  0  0  0  0  4  0  0  0  0  0  0
    3.0165   -0.6258   -3.3486 C   0  0  0  0  0  0  0  0  0  0  0  0
   -0.4962   -0.4374   -0.3535 C   0  0  0  0  0  0  0  0  0  0  0  0
   -0.1675   -0.5508   -1.6870 O   0  0  0  0  0  0  0  0  0  0  0  0
   -1.2484   -0.6704   -2.6077 C   0  0  0  0  0  0  0  0  0  0  0  0
   -1.8063   -0.2591    0.1275 C   0  0  0  0  0  0  0  0  0  0  0  0
   -3.8912    2.5649    2.8040 H   0  0  0  0  0  0  0  0  0  0  0  0
   -3.6435    2.2544    4.5303 H   0  0  0  0  0  0  0  0  0  0  0  0
   -2.2899    2.1178    3.4012 H   0  0  0  0  0  0  0  0  0  0  0  0
   -3.2080   -0.1645    4.0687 H   0  0  0  0  0  0  0  0  0  0  0  0
   -4.7827    0.3482    3.5369 H   0  0  0  0  0  0  0  0  0  0  0  0
   -5.3634   -0.7679    1.7380 H   0  0  0  0  0  0  0  0  0  0  0  0
   -4.3382   -1.0855    0.3748 H   0  0  0  0  0  0  0  0  0  0  0  0
   -4.3842    1.4270   -0.1716 H   0  0  0  0  0  0  0  0  0  0  0  0
   -5.9780    0.6519   -0.2079 H   0  0  0  0  0  0  0  0  0  0  0  0
   -5.5051    1.6443    1.1780 H   0  0  0  0  0  0  0  0  0  0  0  0
   -1.1663   -0.1974    3.4531 H   0  0  0  0  0  0  0  0  0  0  0  0
    1.0914   -0.4797    2.6620 H   0  0  0  0  0  0  0  0  0  0  0  0
    2.4650   -1.5657    0.5593 H   0  0  0  0  0  0  0  0  0  0  0  0
    2.0545    1.0537   -1.0512 H   0  0  0  0  0  0  0  0  0  0  0  0
    4.8669    0.4509    0.7540 H   0  0  0  0  0  0  0  0  0  0  0  0
    7.1732    0.1145   -0.0844 H   0  0  0  0  0  0  0  0  0  0  0  0
    7.5238   -0.5465   -2.4561 H   0  0  0  0  0  0  0  0  0  0  0  0
    5.5367   -0.8673   -3.9390 H   0  0  0  0  0  0  0  0  0  0  0  0
    3.3836   -0.9040   -4.3398 H   0  0  0  0  0  0  0  0  0  0  0  0
    2.4173   -1.4454   -2.9437 H   0  0  0  0  0  0  0  0  0  0  0  0
    2.4410    0.3001   -3.4273 H   0  0  0  0  0  0  0  0  0  0  0  0
   -0.8200   -0.8504   -3.5985 H   0  0  0  0  0  0  0  0  0  0  0  0
   -1.8227    0.2601   -2.6601 H   0  0  0  0  0  0  0  0  0  0  0  0
   -1.8886   -1.5246   -2.3635 H   0  0  0  0  0  0  0  0  0  0  0  0
   -2.6178   -0.1657   -0.5832 H   0  0  0  0  0  0  0  0  0  0  0  0
  1  2  1  0
  2  3  1  0
  3  4  1  0
  4  5  1  0
  3  6  1  0
  6  7  2  0
  7  8  1  0
  8  9  2  0
  9 10  1  0
 10 11  2  3
 11 12  1  0
 12 13  2  0
 13 14  1  0
 14 15  2  0
 15 16  1  0
 16 17  2  0
 17 18  1  0
  9 19  1  0
 19 20  1  0
 20 21  1  0
 19 22  2  0
 22  6  1  0
 17 12  1  0
  1 23  1  0
  1 24  1  0
  1 25  1  0
  2 26  1  0
  2 27  1  0
  4 28  1  0
  4 29  1  0
  5 30  1  0
  5 31  1  0
  5 32  1  0
  7 33  1  0
  8 34  1  0
 10 35  1  0
 11 36  1  0
 13 37  1  0
 14 38  1  0
 15 39  1  0
 16 40  1  0
 18 41  1  0
 18 42  1  0
 18 43  1  0
 21 44  1  0
 21 45  1  0
 21 46  1  0
 22 47  1  0
M  CHG  1  17   1
M  END
$$$$
