
     RDKit          3D

 43 45  0  0  0  0  0  0  0  0999 V2000
    7.4364    1.8447    0.8172 C   0  0  0  0  0  0  0  0  0  0  0  0
    6.1111    1.3181    0.7414 O   0  0  0  0  0  0  0  0  0  0  0  0
    5.9069    0.2274    1.5222 C   0  0  0  0  0  0  0  0  0  0  0  0
    6.7421   -0.3048    2.2366 O   0  0  0  0  0  0  0  0  0  0  0  0
    4.5052   -0.2567    1.3939 C   0  0  0  0  0  0  0  0  0  0  0  0
    4.1185   -1.3725    2.1451 C   0  0  0  0  0  0  0  0  0  0  0  0
    2.8116   -1.8598    2.0573 C   0  0  0  0  0  0  0  0  0  0  0  0
    1.8804   -1.2515    1.2126 C   0  0  0  0  0  0  0  0  0  0  0  0
    0.6374   -1.8187    1.2231 O   0  0  0  0  0  0  0  0  0  0  0  0
   -0.1938   -1.6106    0.0869 C   0  0  0  0  0  0  0  0  0  0  0  0
   -1.1512   -0.4006    0.1720 C   0  0  0  0  0  0  0  0  0  0  0  0
   -0.9123    0.5013    0.9771 O   0  0  0  0  0  0  0  0  0  0  0  0
   -2.2498   -0.4120   -0.7168 N   0  0  0  0  0  0  0  0  0  0  0  0
   -2.2911   -1.3495   -1.8480 C   0  0  0  0  0  0  0  0  0  0  0  0
   -2.9399   -0.7567   -3.0841 C   0  0  0  0  0  0  0  0  0  0  0  0
   -4.3699   -0.3853   -2.7620 C   0  0  0  0  0  0  0  0  0  0  0  0
   -4.4392    0.4487   -1.5113 C   0  0  0  0  0  0  0  0  0  0  0  0
   -5.5943    1.2333   -1.3238 C   0  0  0  0  0  0  0  0  0  0  0  0
   -5.7478    2.0131   -0.1844 C   0  0  0  0  0  0  0  0  0  0  0  0
   -4.7550    2.0034    0.7833 C   0  0  0  0  0  0  0  0  0  0  0  0
   -3.6095    1.2162    0.6119 C   0  0  0  0  0  0  0  0  0  0  0  0
   -3.4169    0.4275   -0.5337 C   0  0  0  0  0  0  0  0  0  0  0  0
    2.2576   -0.1292    0.4753 C   0  0  0  0  0  0  0  0  0  0  0  0
    3.5655    0.3652    0.5616 C   0  0  0  0  0  0  0  0  0  0  0  0
    7.4923    2.7167    0.1598 H   0  0  0  0  0  0  0  0  0  0  0  0
    8.1639    1.1034    0.4719 H   0  0  0  0  0  0  0  0  0  0  0  0
    7.6639    2.1660    1.8386 H   0  0  0  0  0  0  0  0  0  0  0  0
    4.8289   -1.8647    2.8065 H   0  0  0  0  0  0  0  0  0  0  0  0
    2.5185   -2.7220    2.6518 H   0  0  0  0  0  0  0  0  0  0  0  0
   -0.8095   -2.5144    0.0174 H   0  0  0  0  0  0  0  0  0  0  0  0
    0.4039   -1.5507   -0.8301 H   0  0  0  0  0  0  0  0  0  0  0  0
   -1.2796   -1.6519   -2.1293 H   0  0  0  0  0  0  0  0  0  0  0  0
   -2.8212   -2.2494   -1.5122 H   0  0  0  0  0  0  0  0  0  0  0  0
   -2.9164   -1.4762   -3.9100 H   0  0  0  0  0  0  0  0  0  0  0  0
   -2.3815    0.1313   -3.4071 H   0  0  0  0  0  0  0  0  0  0  0  0
   -4.7940    0.1629   -3.6116 H   0  0  0  0  0  0  0  0  0  0  0  0
   -4.9722   -1.2900   -2.6133 H   0  0  0  0  0  0  0  0  0  0  0  0
   -6.3818    1.2371   -2.0747 H   0  0  0  0  0  0  0  0  0  0  0  0
   -6.6390    2.6194   -0.0490 H   0  0  0  0  0  0  0  0  0  0  0  0
   -4.8649    2.6013    1.6848 H   0  0  0  0  0  0  0  0  0  0  0  0
   -2.8936    1.2379    1.4264 H   0  0  0  0  0  0  0  0  0  0  0  0
    1.5504    0.4056   -0.1509 H   0  0  0  0  0  0  0  0  0  0  0  0
    3.8296    1.2463   -0.0182 H   0  0  0  0  0  0  0  0  0  0  0  0
  1  2  1  0
  2  3  1  0
  3  4  2  0
  3  5  1  0
  5  6  2  0
  6  7  1  0
  7  8  2  0
  8  9  1  0
  9 10  1  0
 10 11  1  0
 11 12  2  0
 11 13  1  0
 13 14  1  0
 14 15  1  0
 15 16  1  0
 16 17  1  0
 17 18  2  0
 18 19  1  0
 19 20  2  0
 20 21  1  0
 21 22  2  0
  8 23  1  0
 23 24  2  0
 24  5  1  0
 22 13  1  0
 22 17  1  0
  1 25  1  0
  1 26  1  0
  1 27  1  0
  6 28  1  0
  7 29  1  0
 10 30  1  0
 10 31  1  0
 14 32  1  0
 14 33  1  0
 15 34  1  0
 15 35  1  0
 16 36  1  0
 16 37  1  0
 18 38  1  0
 19 39  1  0
 20 40  1  0
 21 41  1  0
 23 42  1  0
 24 43  1  0
M  END
$$$$
