
     RDKit          3D

 42 44  0  0  0  0  0  0  0  0999 V2000
   -3.3734   -0.5146   -2.4430 C   0  0  0  0  0  0  0  0  0  0  0  0
   -3.7233   -0.1956   -1.0122 C   0  0  0  0  0  0  0  0  0  0  0  0
   -5.0734   -0.3195   -0.6292 C   0  0  0  0  0  0  0  0  0  0  0  0
   -5.4819   -0.0001    0.6622 C   0  0  0  0  0  0  0  0  0  0  0  0
   -4.5410    0.4430    1.5791 C   0  0  0  0  0  0  0  0  0  0  0  0
   -5.0292    0.8443    3.1804 Cl  0  0  0  0  0  0  0  0  0  0  0  0
   -3.1959    0.5557    1.2201 C   0  0  0  0  0  0  0  0  0  0  0  0
   -2.7507    0.2234   -0.0717 C   0  0  0  0  0  0  0  0  0  0  0  0
   -1.3965    0.3020   -0.4196 N   0  0  0  0  0  0  0  0  0  0  0  0
   -0.5451    1.3127    0.2278 C   0  0  0  0  0  0  0  0  0  0  0  0
    0.8489    1.3431   -0.4384 C   0  0  0  0  0  0  0  0  0  0  0  0
    1.5331    0.0130   -0.4295 N   0  0  0  0  0  0  0  0  0  0  0  0
    2.7355    0.0045    0.2807 C   0  0  0  0  0  0  0  0  0  0  0  0
    2.7980    0.1826    1.6729 C   0  0  0  0  0  0  0  0  0  0  0  0
    4.0208    0.1700    2.3330 C   0  0  0  0  0  0  0  0  0  0  0  0
    5.1801   -0.0181    1.6000 C   0  0  0  0  0  0  0  0  0  0  0  0
    5.0922   -0.1876    0.2253 C   0  0  0  0  0  0  0  0  0  0  0  0
    3.8961   -0.1733   -0.4048 N   0  0  0  0  0  4  0  0  0  0  0  0
    3.8483   -0.3509   -1.8674 C   0  0  0  0  0  0  0  0  0  0  0  0
    0.6355   -1.1243   -0.0769 C   0  0  0  0  0  0  0  0  0  0  0  0
   -0.7481   -0.9863   -0.7531 C   0  0  0  0  0  0  0  0  0  0  0  0
   -2.6219    0.1812   -2.8297 H   0  0  0  0  0  0  0  0  0  0  0  0
   -3.0011   -1.5403   -2.5214 H   0  0  0  0  0  0  0  0  0  0  0  0
   -4.2494   -0.4190   -3.0942 H   0  0  0  0  0  0  0  0  0  0  0  0
   -5.8197   -0.6535   -1.3481 H   0  0  0  0  0  0  0  0  0  0  0  0
   -6.5285   -0.0926    0.9395 H   0  0  0  0  0  0  0  0  0  0  0  0
   -2.4974    0.8843    1.9820 H   0  0  0  0  0  0  0  0  0  0  0  0
   -0.4199    1.0919    1.2944 H   0  0  0  0  0  0  0  0  0  0  0  0
   -1.0026    2.3047    0.1335 H   0  0  0  0  0  0  0  0  0  0  0  0
    1.4625    2.1222    0.0315 H   0  0  0  0  0  0  0  0  0  0  0  0
    0.7317    1.6314   -1.4906 H   0  0  0  0  0  0  0  0  0  0  0  0
    1.8895    0.3337    2.2513 H   0  0  0  0  0  0  0  0  0  0  0  0
    4.0659    0.3069    3.4124 H   0  0  0  0  0  0  0  0  0  0  0  0
    6.1485   -0.0315    2.0958 H   0  0  0  0  0  0  0  0  0  0  0  0
    5.9816   -0.3353   -0.3808 H   0  0  0  0  0  0  0  0  0  0  0  0
    4.8591   -0.4843   -2.2612 H   0  0  0  0  0  0  0  0  0  0  0  0
    3.2557   -1.2433   -2.0861 H   0  0  0  0  0  0  0  0  0  0  0  0
    3.4049    0.5461   -2.3078 H   0  0  0  0  0  0  0  0  0  0  0  0
    1.1003   -2.0616   -0.4058 H   0  0  0  0  0  0  0  0  0  0  0  0
    0.4894   -1.1894    1.0091 H   0  0  0  0  0  0  0  0  0  0  0  0
   -0.6136   -1.0327   -1.8401 H   0  0  0  0  0  0  0  0  0  0  0  0
   -1.3648   -1.8430   -0.4532 H   0  0  0  0  0  0  0  0  0  0  0  0
  1  2  1  0
  2  3  2  0
  3  4  1  0
  4  5  2  0
  5  6  1  0
  5  7  1  0
  7  8  2  0
  8  9  1  0
  9 10  1  0
 10 11  1  0
 11 12  1  0
 12 13  1  0
 13 14  2  0
 14 15  1  0
 15 16  2  0
 16 17  1  0
 17 18  2  0
 18 19  1  0
 12 20  1  0
 20 21  1  0
  8  2  1  0
 21  9  1  0
 18 13  1  0
  1 22  1  0
  1 23  1  0
  1 24  1  0
  3 25  1  0
  4 26  1  0
  7 27  1  0
 10 28  1  0
 10 29  1  0
 11 30  1  0
 11 31  1  0
 14 32  1  0
 15 33  1  0
 16 34  1  0
 17 35  1  0
 19 36  1  0
 19 37  1  0
 19 38  1  0
 20 39  1  0
 20 40  1  0
 21 41  1  0
 21 42  1  0
M  CHG  1  18   1
M  END
$$$$
