
     RDKit          3D

 57 60  0  0  0  0  0  0  0  0999 V2000
   -2.3619   -1.7196    3.9243 C   0  0  0  0  0  0  0  0  0  0  0  0
   -1.9999   -0.6322    3.0819 O   0  0  0  0  0  0  0  0  0  0  0  0
   -0.6888   -0.5060    2.7231 C   0  0  0  0  0  0  0  0  0  0  0  0
    0.2965   -1.4559    3.0114 C   0  0  0  0  0  0  0  0  0  0  0  0
    1.6217   -1.2564    2.6041 C   0  0  0  0  0  0  0  0  0  0  0  0
    1.9901   -0.1043    1.9000 C   0  0  0  0  0  0  0  0  0  0  0  0
    3.4195    0.0535    1.5024 C   0  0  0  0  0  0  0  0  0  0  0  0
    4.2839   -0.6097    2.0653 O   0  0  0  0  0  0  0  0  0  0  0  0
    3.6868    0.9369    0.4786 N   0  0  0  0  0  0  0  0  0  0  0  0
    5.0175    1.0693   -0.0723 C   0  0  0  0  0  0  0  0  0  0  0  0
    5.1312    0.3035   -1.3658 C   0  0  0  0  0  0  0  0  0  0  0  0
    5.3811   -1.0893   -1.3434 C   0  0  0  0  0  0  0  0  0  0  0  0
    5.4686   -1.8258   -2.5290 C   0  0  0  0  0  0  0  0  0  0  0  0
    5.2978   -1.1489   -3.7166 C   0  0  0  0  0  0  0  0  0  0  0  0
    5.0439    0.2024   -3.7487 C   0  0  0  0  0  0  0  0  0  0  0  0
    4.9511    0.9555   -2.5966 C   0  0  0  0  0  0  0  0  0  0  0  0
    4.9024    0.6744   -5.0167 O   0  0  0  0  0  0  0  0  0  0  0  0
    5.1084   -0.5340   -5.7795 C   0  0  0  0  0  0  0  0  0  0  0  0
    5.3530   -1.6965   -4.9611 O   0  0  0  0  0  0  0  0  0  0  0  0
    1.0176    0.8567    1.6164 C   0  0  0  0  0  0  0  0  0  0  0  0
   -0.3144    0.6442    2.0131 C   0  0  0  0  0  0  0  0  0  0  0  0
   -1.5175    1.8844    1.5899 S   0  0  0  0  0  6  0  0  0  0  0  0
   -0.8885    2.8079    0.6634 O   0  0  0  0  0  0  0  0  0  0  0  0
   -2.0987    2.3702    2.8220 O   0  0  0  0  0  0  0  0  0  0  0  0
   -2.6948    1.0442    0.6929 N   0  0  0  0  0  0  0  0  0  0  0  0
   -2.2286    0.4478   -0.5770 C   0  0  0  0  0  0  0  0  0  0  0  0
   -3.9619    1.8007    0.5271 C   0  0  0  0  0  0  0  0  0  0  0  0
   -5.1637    0.8832    0.4563 C   0  0  0  0  0  0  0  0  0  0  0  0
   -5.9697    0.8267   -0.6911 C   0  0  0  0  0  0  0  0  0  0  0  0
   -7.0801   -0.0202   -0.7325 C   0  0  0  0  0  0  0  0  0  0  0  0
   -7.3955   -0.8156    0.3703 C   0  0  0  0  0  0  0  0  0  0  0  0
   -6.5975   -0.7732    1.5136 C   0  0  0  0  0  0  0  0  0  0  0  0
   -5.4871    0.0711    1.5558 C   0  0  0  0  0  0  0  0  0  0  0  0
   -3.4222   -1.6120    4.1722 H   0  0  0  0  0  0  0  0  0  0  0  0
   -2.2365   -2.6760    3.4062 H   0  0  0  0  0  0  0  0  0  0  0  0
   -1.7974   -1.7016    4.8637 H   0  0  0  0  0  0  0  0  0  0  0  0
    0.0713   -2.3708    3.5527 H   0  0  0  0  0  0  0  0  0  0  0  0
    2.3705   -2.0113    2.8430 H   0  0  0  0  0  0  0  0  0  0  0  0
    2.9315    1.2861   -0.0919 H   0  0  0  0  0  0  0  0  0  0  0  0
    5.1914    2.1371   -0.2444 H   0  0  0  0  0  0  0  0  0  0  0  0
    5.7760    0.7282    0.6409 H   0  0  0  0  0  0  0  0  0  0  0  0
    5.5050   -1.5998   -0.3882 H   0  0  0  0  0  0  0  0  0  0  0  0
    5.6650   -2.8920   -2.5150 H   0  0  0  0  0  0  0  0  0  0  0  0
    4.7473    2.0194   -2.6544 H   0  0  0  0  0  0  0  0  0  0  0  0
    5.9669   -0.3866   -6.4454 H   0  0  0  0  0  0  0  0  0  0  0  0
    4.2174   -0.7178   -6.3901 H   0  0  0  0  0  0  0  0  0  0  0  0
    1.2821    1.7835    1.1152 H   0  0  0  0  0  0  0  0  0  0  0  0
   -2.9871   -0.2332   -0.9767 H   0  0  0  0  0  0  0  0  0  0  0  0
   -1.3237   -0.1473   -0.4252 H   0  0  0  0  0  0  0  0  0  0  0  0
   -2.0287    1.2219   -1.3256 H   0  0  0  0  0  0  0  0  0  0  0  0
   -3.9032    2.4307   -0.3710 H   0  0  0  0  0  0  0  0  0  0  0  0
   -4.1363    2.4811    1.3692 H   0  0  0  0  0  0  0  0  0  0  0  0
   -5.7404    1.4395   -1.5609 H   0  0  0  0  0  0  0  0  0  0  0  0
   -7.7019   -0.0575   -1.6232 H   0  0  0  0  0  0  0  0  0  0  0  0
   -8.2625   -1.4714    0.3393 H   0  0  0  0  0  0  0  0  0  0  0  0
   -6.8402   -1.3945    2.3731 H   0  0  0  0  0  0  0  0  0  0  0  0
   -4.8666    0.0994    2.4505 H   0  0  0  0  0  0  0  0  0  0  0  0
  1  2  1  0
  2  3  1  0
  3  4  2  0
  4  5  1  0
  5  6  2  0
  6  7  1  0
  7  8  2  0
  7  9  1  0
  9 10  1  0
 10 11  1  0
 11 12  2  0
 12 13  1  0
 13 14  2  0
 14 15  1  0
 15 16  2  0
 15 17  1  0
 17 18  1  0
 18 19  1  0
  6 20  1  0
 20 21  2  0
 21 22  1  0
 22 23  2  0
 22 24  2  0
 22 25  1  0
 25 26  1  0
 25 27  1  0
 27 28  1  0
 28 29  2  0
 29 30  1  0
 30 31  2  0
 31 32  1  0
 32 33  2  0
 21  3  1  0
 33 28  1  0
 16 11  1  0
 19 14  1  0
  1 34  1  0
  1 35  1  0
  1 36  1  0
  4 37  1  0
  5 38  1  0
  9 39  1  0
 10 40  1  0
 10 41  1  0
 12 42  1  0
 13 43  1  0
 16 44  1  0
 18 45  1  0
 18 46  1  0
 20 47  1  0
 26 48  1  0
 26 49  1  0
 26 50  1  0
 27 51  1  0
 27 52  1  0
 29 53  1  0
 30 54  1  0
 31 55  1  0
 32 56  1  0
 33 57  1  0
M  END
$$$$
