
     RDKit          3D

 45 47  0  0  0  0  0  0  0  0999 V2000
   -3.2501   -0.7047   -0.8298 O   0  0  0  0  0  0  0  0  0  0  0  0
   -3.0641    0.3370   -0.2025 C   0  0  0  0  0  0  0  0  0  0  0  0
   -4.1746    1.0458    0.5639 C   0  0  0  0  0  0  0  0  0  0  0  0
   -5.5223    0.3651    0.4869 C   0  0  0  0  0  0  0  0  0  0  0  0
   -5.8803   -0.6108    1.4288 C   0  0  0  0  0  0  0  0  0  0  0  0
   -7.1210   -1.2476    1.3505 C   0  0  0  0  0  0  0  0  0  0  0  0
   -8.0063   -0.9163    0.3275 C   0  0  0  0  0  0  0  0  0  0  0  0
   -9.5352   -1.7003    0.2323 Cl  0  0  0  0  0  0  0  0  0  0  0  0
   -7.6609    0.0443   -0.6203 C   0  0  0  0  0  0  0  0  0  0  0  0
   -6.4205    0.6818   -0.5430 C   0  0  0  0  0  0  0  0  0  0  0  0
   -1.7263    0.9408   -0.1762 C   0  0  0  0  0  0  0  0  0  0  0  0
   -1.3352    2.0990    0.4685 C   0  0  0  0  0  0  0  0  0  0  0  0
   -0.0000    2.2960    0.2301 N   0  0  0  0  0  0  0  0  0  0  0  0
    0.5035    1.2860   -0.5613 C   0  0  0  0  0  0  0  0  0  0  0  0
    1.8954    1.2653   -0.9529 C   0  0  0  0  0  0  0  0  0  0  0  0
    2.6869    2.1311   -0.5911 O   0  0  0  0  0  0  0  0  0  0  0  0
    2.2752    0.2037   -1.7398 N   0  0  0  0  0  0  0  0  0  0  0  0
    3.6212    0.0539   -2.2509 C   0  0  0  0  0  0  0  0  0  0  0  0
    4.4956   -0.8256   -1.3624 C   0  0  0  0  0  0  0  0  0  0  0  0
    4.8500   -0.1599   -0.0338 C   0  0  0  0  0  0  0  0  0  0  0  0
    5.7790   -0.9637    0.7375 N   0  0  0  0  0  0  0  0  0  0  0  0
    7.1421   -0.8789    0.7079 C   0  0  0  0  0  0  0  0  0  0  0  0
    7.5734   -1.8321    1.6011 C   0  0  0  0  0  0  0  0  0  0  0  0
    6.5092   -2.4844    2.1692 N   0  0  0  0  0  0  0  0  0  0  0  0
    5.4415   -1.9353    1.6349 C   0  0  0  0  0  0  0  0  0  0  0  0
   -0.5572    0.4354   -0.8238 C   0  0  0  0  0  0  0  0  0  0  0  0
   -3.8770    1.1259    1.6168 H   0  0  0  0  0  0  0  0  0  0  0  0
   -4.2705    2.0675    0.1760 H   0  0  0  0  0  0  0  0  0  0  0  0
   -5.1937   -0.8881    2.2259 H   0  0  0  0  0  0  0  0  0  0  0  0
   -7.3867   -2.0031    2.0849 H   0  0  0  0  0  0  0  0  0  0  0  0
   -8.3479    0.2966   -1.4234 H   0  0  0  0  0  0  0  0  0  0  0  0
   -6.1588    1.4212   -1.2969 H   0  0  0  0  0  0  0  0  0  0  0  0
   -1.8826    2.8069    1.0773 H   0  0  0  0  0  0  0  0  0  0  0  0
    0.5617    3.0667    0.5747 H   0  0  0  0  0  0  0  0  0  0  0  0
    1.5820   -0.4812   -2.0072 H   0  0  0  0  0  0  0  0  0  0  0  0
    4.0782    1.0398   -2.3905 H   0  0  0  0  0  0  0  0  0  0  0  0
    3.5259   -0.4106   -3.2383 H   0  0  0  0  0  0  0  0  0  0  0  0
    3.9950   -1.7843   -1.1762 H   0  0  0  0  0  0  0  0  0  0  0  0
    5.4196   -1.0564   -1.9078 H   0  0  0  0  0  0  0  0  0  0  0  0
    5.3186    0.8178   -0.1942 H   0  0  0  0  0  0  0  0  0  0  0  0
    3.9621   -0.0118    0.5899 H   0  0  0  0  0  0  0  0  0  0  0  0
    7.6750   -0.1780    0.0813 H   0  0  0  0  0  0  0  0  0  0  0  0
    8.5923   -2.0825    1.8663 H   0  0  0  0  0  0  0  0  0  0  0  0
    4.4169   -2.2030    1.8584 H   0  0  0  0  0  0  0  0  0  0  0  0
   -0.5289   -0.4693   -1.4188 H   0  0  0  0  0  0  0  0  0  0  0  0
  1  2  2  0
  2  3  1  0
  3  4  1  0
  4  5  2  0
  5  6  1  0
  6  7  2  0
  7  8  1  0
  7  9  1  0
  9 10  2  0
  2 11  1  0
 11 12  2  0
 12 13  1  0
 13 14  1  0
 14 15  1  0
 15 16  2  0
 15 17  1  0
 17 18  1  0
 18 19  1  0
 19 20  1  0
 20 21  1  0
 21 22  1  0
 22 23  2  0
 23 24  1  0
 24 25  2  0
 14 26  2  0
 10  4  1  0
 26 11  1  0
 25 21  1  0
  3 27  1  0
  3 28  1  0
  5 29  1  0
  6 30  1  0
  9 31  1  0
 10 32  1  0
 12 33  1  0
 13 34  1  0
 17 35  1  0
 18 36  1  0
 18 37  1  0
 19 38  1  0
 19 39  1  0
 20 40  1  0
 20 41  1  0
 22 42  1  0
 23 43  1  0
 25 44  1  0
 26 45  1  0
M  END
$$$$
