
     RDKit          3D

 33 34  0  0  0  0  0  0  0  0999 V2000
   -2.0554    3.7361    1.6491 C   0  0  0  0  0  0  0  0  0  0  0  0
   -1.2827    2.5644    1.3878 O   0  0  0  0  0  0  0  0  0  0  0  0
   -0.3051    2.7579    0.4709 C   0  0  0  0  0  0  0  0  0  0  0  0
    0.0457    3.8060   -0.0409 O   0  0  0  0  0  0  0  0  0  0  0  0
    0.4044    1.4867    0.2864 C   0  0  0  0  0  0  0  0  0  0  0  0
    1.7466    1.4695    0.6607 C   0  0  0  0  0  0  0  0  0  0  0  0
    2.4172    0.2731    0.5619 C   0  0  0  0  0  0  0  0  0  0  0  0
    3.7401    0.2756    0.9473 O   0  0  0  0  0  0  0  0  0  0  0  0
    4.3738   -0.9918    0.8019 C   0  0  0  0  0  0  0  0  0  0  0  0
    1.8399   -0.8666    0.1314 N   0  0  0  0  0  0  0  0  0  0  0  0
    0.5362   -0.8290   -0.2477 C   0  0  0  0  0  0  0  0  0  0  0  0
   -0.2113    0.3327   -0.2054 C   0  0  0  0  0  0  0  0  0  0  0  0
   -1.5829    0.2976   -0.7262 C   0  0  0  0  0  0  0  0  0  0  0  0
   -2.1733    1.3450   -0.9704 O   0  0  0  0  0  0  0  0  0  0  0  0
   -2.1242   -0.9556   -0.9692 N   0  0  0  0  0  0  0  0  0  0  0  0
   -3.5063   -1.0145   -1.4114 C   0  0  0  0  0  0  0  0  0  0  0  0
   -1.3781   -2.1228   -1.0604 C   0  0  0  0  0  0  0  0  0  0  0  0
   -1.8745   -3.1776   -1.4603 O   0  0  0  0  0  0  0  0  0  0  0  0
   -0.0484   -2.0301   -0.6978 N   0  0  0  0  0  0  0  0  0  0  0  0
    0.8012   -3.2114   -0.7506 C   0  0  0  0  0  0  0  0  0  0  0  0
   -2.4938    4.1260    0.7249 H   0  0  0  0  0  0  0  0  0  0  0  0
   -2.8679    3.4618    2.3274 H   0  0  0  0  0  0  0  0  0  0  0  0
   -1.4377    4.4970    2.1360 H   0  0  0  0  0  0  0  0  0  0  0  0
    2.2471    2.3595    1.0280 H   0  0  0  0  0  0  0  0  0  0  0  0
    5.4162   -0.8813    1.1157 H   0  0  0  0  0  0  0  0  0  0  0  0
    4.3732   -1.3185   -0.2437 H   0  0  0  0  0  0  0  0  0  0  0  0
    3.9082   -1.7432    1.4490 H   0  0  0  0  0  0  0  0  0  0  0  0
   -3.9714   -1.9535   -1.0960 H   0  0  0  0  0  0  0  0  0  0  0  0
   -3.5227   -0.9604   -2.5047 H   0  0  0  0  0  0  0  0  0  0  0  0
   -4.0865   -0.1813   -1.0038 H   0  0  0  0  0  0  0  0  0  0  0  0
    1.1648   -3.4428    0.2560 H   0  0  0  0  0  0  0  0  0  0  0  0
    0.2615   -4.0857   -1.1248 H   0  0  0  0  0  0  0  0  0  0  0  0
    1.6462   -3.0227   -1.4209 H   0  0  0  0  0  0  0  0  0  0  0  0
  1  2  1  0
  2  3  1  0
  3  4  2  0
  3  5  1  0
  5  6  2  0
  6  7  1  0
  7  8  1  0
  8  9  1  0
  7 10  2  0
 10 11  1  0
 11 12  2  0
 12 13  1  0
 13 14  2  0
 13 15  1  0
 15 16  1  0
 15 17  1  0
 17 18  2  0
 17 19  1  0
 19 20  1  0
 12  5  1  0
 19 11  1  0
  1 21  1  0
  1 22  1  0
  1 23  1  0
  6 24  1  0
  9 25  1  0
  9 26  1  0
  9 27  1  0
 16 28  1  0
 16 29  1  0
 16 30  1  0
 20 31  1  0
 20 32  1  0
 20 33  1  0
M  END
$$$$
