
     RDKit          3D

 58 63  0  0  0  0  0  0  0  0999 V2000
    8.0894   -0.9376    1.4219 C   0  0  0  0  0  0  0  0  0  0  0  0
    6.6655   -1.1455    1.0324 C   0  0  0  0  0  0  0  0  0  0  0  0
    5.6375   -1.6511    1.8003 C   0  0  0  0  0  0  0  0  0  0  0  0
    4.4044   -1.6976    1.0869 C   0  0  0  0  0  0  0  0  0  0  0  0
    4.5208   -1.2035   -0.1994 C   0  0  0  0  0  0  0  0  0  0  0  0
    3.5119   -1.0830   -1.2422 C   0  0  0  0  0  0  0  0  0  0  0  0
    3.7312   -1.4151   -2.4087 O   0  0  0  0  0  0  0  0  0  0  0  0
    2.2484   -0.5931   -0.8762 N   0  0  0  0  0  0  0  0  0  0  0  0
    1.1839   -0.6515   -1.8703 C   0  0  0  0  0  0  0  0  0  0  0  0
   -0.1844   -0.5383   -1.2071 C   0  0  0  0  0  0  0  0  0  0  0  0
   -0.3673    0.8345   -0.5002 C   0  0  0  0  0  0  0  0  0  0  0  0
    1.0111    1.3318    0.0369 C   0  0  0  0  0  0  0  0  0  0  0  0
    1.9893    0.1966    0.3260 C   0  0  0  0  0  0  0  0  0  0  0  0
   -0.7974    1.7297   -1.5619 O   0  0  0  0  0  0  0  0  0  0  0  0
   -1.2439    2.9582   -1.1677 C   0  0  0  0  0  0  0  0  0  0  0  0
   -1.2598    3.9503   -2.1474 C   0  0  0  0  0  0  0  0  0  0  0  0
   -1.6857    5.2416   -1.8276 C   0  0  0  0  0  0  0  0  0  0  0  0
   -2.1036    5.5343   -0.5293 C   0  0  0  0  0  0  0  0  0  0  0  0
   -2.6290    7.1255   -0.1423 Cl  0  0  0  0  0  0  0  0  0  0  0  0
   -2.1059    4.5458    0.4514 C   0  0  0  0  0  0  0  0  0  0  0  0
   -1.6825    3.2542    0.1213 C   0  0  0  0  0  0  0  0  0  0  0  0
   -1.7129    2.1792    1.1293 C   0  0  0  0  0  0  0  0  0  0  0  0
   -1.9776    2.4533    2.2957 O   0  0  0  0  0  0  0  0  0  0  0  0
   -1.4561    0.7682    0.6081 C   0  0  0  0  0  0  0  0  0  0  0  0
   -2.7987    0.1825    0.1892 C   0  0  0  0  0  0  0  0  0  0  0  0
   -2.7203   -1.1337    0.8803 C   0  0  0  0  0  0  0  0  0  0  0  0
   -3.7216   -2.2029    0.6493 C   0  0  0  0  0  0  0  0  0  0  0  0
   -3.6137   -3.3988    1.3702 C   0  0  0  0  0  0  0  0  0  0  0  0
   -4.5457   -4.4222    1.1825 C   0  0  0  0  0  0  0  0  0  0  0  0
   -5.5855   -4.2581    0.2700 C   0  0  0  0  0  0  0  0  0  0  0  0
   -5.6960   -3.0721   -0.4547 C   0  0  0  0  0  0  0  0  0  0  0  0
   -4.7698   -2.0425   -0.2641 C   0  0  0  0  0  0  0  0  0  0  0  0
   -1.7249   -1.2606    1.6978 N   0  0  0  0  0  0  0  0  0  0  0  0
   -1.0035   -0.0461    1.6961 O   0  0  0  0  0  0  0  0  0  0  0  0
    6.1327   -0.7351   -0.5399 S   0  0  0  0  0  0  0  0  0  0  0  0
    8.2001    0.0230    1.9370 H   0  0  0  0  0  0  0  0  0  0  0  0
    8.7599   -0.9433    0.5562 H   0  0  0  0  0  0  0  0  0  0  0  0
    8.4194   -1.7294    2.1019 H   0  0  0  0  0  0  0  0  0  0  0  0
    5.7626   -1.9795    2.8252 H   0  0  0  0  0  0  0  0  0  0  0  0
    3.4772   -2.0787    1.4997 H   0  0  0  0  0  0  0  0  0  0  0  0
    1.3453    0.1588   -2.5918 H   0  0  0  0  0  0  0  0  0  0  0  0
    1.2550   -1.5986   -2.4177 H   0  0  0  0  0  0  0  0  0  0  0  0
   -0.2713   -1.3655   -0.4943 H   0  0  0  0  0  0  0  0  0  0  0  0
   -0.9556   -0.6824   -1.9734 H   0  0  0  0  0  0  0  0  0  0  0  0
    1.4714    2.0007   -0.7035 H   0  0  0  0  0  0  0  0  0  0  0  0
    0.8926    1.9338    0.9445 H   0  0  0  0  0  0  0  0  0  0  0  0
    2.9211    0.6247    0.7055 H   0  0  0  0  0  0  0  0  0  0  0  0
    1.5877   -0.4770    1.0890 H   0  0  0  0  0  0  0  0  0  0  0  0
   -0.9280    3.7254   -3.1584 H   0  0  0  0  0  0  0  0  0  0  0  0
   -1.6863    6.0143   -2.5931 H   0  0  0  0  0  0  0  0  0  0  0  0
   -2.4409    4.7738    1.4610 H   0  0  0  0  0  0  0  0  0  0  0  0
   -3.6558    0.7341    0.5915 H   0  0  0  0  0  0  0  0  0  0  0  0
   -2.9130    0.0850   -0.8918 H   0  0  0  0  0  0  0  0  0  0  0  0
   -2.8095   -3.5409    2.0889 H   0  0  0  0  0  0  0  0  0  0  0  0
   -4.4606   -5.3440    1.7524 H   0  0  0  0  0  0  0  0  0  0  0  0
   -6.3110   -5.0552    0.1242 H   0  0  0  0  0  0  0  0  0  0  0  0
   -6.5093   -2.9473   -1.1663 H   0  0  0  0  0  0  0  0  0  0  0  0
   -4.8914   -1.1290   -0.8399 H   0  0  0  0  0  0  0  0  0  0  0  0
  1  2  1  0
  2  3  2  0
  3  4  1  0
  4  5  2  0
  5  6  1  0
  6  7  2  0
  6  8  1  0
  8  9  1  0
  9 10  1  0
 10 11  1  0
 11 12  1  0
 12 13  1  0
 11 14  1  0
 14 15  1  0
 15 16  2  0
 16 17  1  0
 17 18  2  0
 18 19  1  0
 18 20  1  0
 20 21  2  0
 21 22  1  0
 22 23  2  0
 22 24  1  0
 24 25  1  0
 25 26  1  0
 26 27  1  0
 27 28  2  0
 28 29  1  0
 29 30  2  0
 30 31  1  0
 31 32  2  0
 26 33  2  0
 33 34  1  0
  5 35  1  0
 35  2  1  0
 13  8  1  0
 21 15  1  0
 34 24  1  0
 24 11  1  0
 32 27  1  0
  1 36  1  0
  1 37  1  0
  1 38  1  0
  3 39  1  0
  4 40  1  0
  9 41  1  0
  9 42  1  0
 10 43  1  0
 10 44  1  0
 12 45  1  0
 12 46  1  0
 13 47  1  0
 13 48  1  0
 16 49  1  0
 17 50  1  0
 20 51  1  0
 25 52  1  0
 25 53  1  0
 28 54  1  0
 29 55  1  0
 30 56  1  0
 31 57  1  0
 32 58  1  0
M  END
$$$$
