
     RDKit          3D

 19 19  0  0  0  0  0  0  0  0999 V2000
   -2.9508   -0.8255   -0.7907 C   0  0  0  0  0  0  0  0  0  0  0  0
   -2.2117    0.2816   -0.2901 O   0  0  0  0  0  0  0  0  0  0  0  0
   -0.8656    0.1148   -0.1000 C   0  0  0  0  0  0  0  0  0  0  0  0
   -0.1691   -1.0710   -0.3456 C   0  0  0  0  0  0  0  0  0  0  0  0
    1.2116   -1.1413   -0.1218 C   0  0  0  0  0  0  0  0  0  0  0  0
    1.9289   -0.0253    0.3090 C   0  0  0  0  0  0  0  0  0  0  0  0
    3.2801   -0.1418    0.6443 N   0  0  0  0  0  0  0  0  0  0  0  0
    1.2251    1.1400    0.6118 C   0  0  0  0  0  0  0  0  0  0  0  0
   -0.1594    1.2232    0.3916 C   0  0  0  0  0  0  0  0  0  0  0  0
   -0.8279    2.4578    0.6901 C   0  0  0  0  0  0  0  0  0  0  0  0
   -1.3278    3.4758    0.9411 N   0  0  0  0  0  0  0  0  0  0  0  0
   -2.5954   -1.1211   -1.7832 H   0  0  0  0  0  0  0  0  0  0  0  0
   -3.9946   -0.5126   -0.8904 H   0  0  0  0  0  0  0  0  0  0  0  0
   -2.9210   -1.6674   -0.0914 H   0  0  0  0  0  0  0  0  0  0  0  0
   -0.6680   -1.9675   -0.6991 H   0  0  0  0  0  0  0  0  0  0  0  0
    1.7235   -2.0862   -0.2898 H   0  0  0  0  0  0  0  0  0  0  0  0
    3.7775   -0.8675    0.1370 H   0  0  0  0  0  0  0  0  0  0  0  0
    3.7898    0.7368    0.6542 H   0  0  0  0  0  0  0  0  0  0  0  0
    1.7548    1.9972    1.0232 H   0  0  0  0  0  0  0  0  0  0  0  0
  1  2  1  0
  2  3  1  0
  3  4  2  0
  4  5  1  0
  5  6  2  0
  6  7  1  0
  6  8  1  0
  8  9  2  0
  9 10  1  0
 10 11  3  0
  9  3  1  0
  1 12  1  0
  1 13  1  0
  1 14  1  0
  4 15  1  0
  5 16  1  0
  7 17  1  0
  7 18  1  0
  8 19  1  0
M  END
$$$$
