
     RDKit          3D

 43 44  0  0  0  0  0  0  0  0999 V2000
   -2.8798   -2.8535    0.3478 C   0  0  0  0  0  0  0  0  0  0  0  0
   -2.7882   -1.5506    1.1183 C   0  0  0  0  0  0  0  0  0  0  0  0
   -3.2939   -0.4346    0.2740 N   0  0  0  0  0  4  0  0  0  0  0  0
   -4.6249   -0.1695    0.3077 C   0  0  0  0  0  0  0  0  0  0  0  0
   -5.1824    0.8720   -0.4307 C   0  0  0  0  0  0  0  0  0  0  0  0
   -6.6523    1.1641   -0.3528 C   0  0  0  0  0  0  0  0  0  0  0  0
   -4.3410    1.6705   -1.1960 C   0  0  0  0  0  0  0  0  0  0  0  0
   -2.9801    1.3953   -1.2272 C   0  0  0  0  0  0  0  0  0  0  0  0
   -2.4574    0.3307   -0.4821 C   0  0  0  0  0  0  0  0  0  0  0  0
   -1.0249    0.0304   -0.5496 C   0  0  0  0  0  0  0  0  0  0  0  0
   -0.0850    0.9065   -0.1598 C   0  0  0  0  0  0  0  0  0  0  0  0
    1.3508    0.6019   -0.1914 C   0  0  0  0  0  0  0  0  0  0  0  0
    2.1593    1.0255    0.8616 C   0  0  0  0  0  0  0  0  0  0  0  0
    3.5373    0.7568    0.8595 C   0  0  0  0  0  0  0  0  0  0  0  0
    4.1717    0.0788   -0.1952 C   0  0  0  0  0  0  0  0  0  0  0  0
    5.5395   -0.2092   -0.1804 N   0  0  0  0  0  0  0  0  0  0  0  0
    6.1958   -0.6273   -1.4196 C   0  0  0  0  0  0  0  0  0  0  0  0
    6.4038    0.4669    0.7877 C   0  0  0  0  0  0  0  0  0  0  0  0
    3.3332   -0.3277   -1.2472 C   0  0  0  0  0  0  0  0  0  0  0  0
    1.9535   -0.0663   -1.2560 C   0  0  0  0  0  0  0  0  0  0  0  0
   -2.2897   -2.8174   -0.5726 H   0  0  0  0  0  0  0  0  0  0  0  0
   -3.9151   -3.0731    0.0676 H   0  0  0  0  0  0  0  0  0  0  0  0
   -2.5101   -3.6822    0.9592 H   0  0  0  0  0  0  0  0  0  0  0  0
   -1.7660   -1.3352    1.4405 H   0  0  0  0  0  0  0  0  0  0  0  0
   -3.4040   -1.5890    2.0243 H   0  0  0  0  0  0  0  0  0  0  0  0
   -5.2401   -0.8087    0.9365 H   0  0  0  0  0  0  0  0  0  0  0  0
   -6.8505    1.8722    0.4577 H   0  0  0  0  0  0  0  0  0  0  0  0
   -7.2231    0.2476   -0.1697 H   0  0  0  0  0  0  0  0  0  0  0  0
   -7.0158    1.5907   -1.2936 H   0  0  0  0  0  0  0  0  0  0  0  0
   -4.7365    2.5049   -1.7750 H   0  0  0  0  0  0  0  0  0  0  0  0
   -2.3264    2.0126   -1.8424 H   0  0  0  0  0  0  0  0  0  0  0  0
   -0.7547   -0.9562   -0.9163 H   0  0  0  0  0  0  0  0  0  0  0  0
   -0.3439    1.8869    0.2374 H   0  0  0  0  0  0  0  0  0  0  0  0
    1.7392    1.5615    1.7096 H   0  0  0  0  0  0  0  0  0  0  0  0
    4.1034    1.0998    1.7209 H   0  0  0  0  0  0  0  0  0  0  0  0
    6.1015    0.1427   -2.1932 H   0  0  0  0  0  0  0  0  0  0  0  0
    7.2650   -0.8094   -1.2630 H   0  0  0  0  0  0  0  0  0  0  0  0
    5.7820   -1.5723   -1.7873 H   0  0  0  0  0  0  0  0  0  0  0  0
    6.3824    1.5526    0.6422 H   0  0  0  0  0  0  0  0  0  0  0  0
    6.1113    0.2264    1.8154 H   0  0  0  0  0  0  0  0  0  0  0  0
    7.4450    0.1400    0.6886 H   0  0  0  0  0  0  0  0  0  0  0  0
    3.7348   -0.8644   -2.1019 H   0  0  0  0  0  0  0  0  0  0  0  0
    1.3762   -0.3906   -2.1178 H   0  0  0  0  0  0  0  0  0  0  0  0
  1  2  1  0
  2  3  1  0
  3  4  2  0
  4  5  1  0
  5  6  1  0
  5  7  2  0
  7  8  1  0
  8  9  2  0
  9 10  1  0
 10 11  2  3
 11 12  1  0
 12 13  2  0
 13 14  1  0
 14 15  2  0
 15 16  1  0
 16 17  1  0
 16 18  1  0
 15 19  1  0
 19 20  2  0
  9  3  1  0
 20 12  1  0
  1 21  1  0
  1 22  1  0
  1 23  1  0
  2 24  1  0
  2 25  1  0
  4 26  1  0
  6 27  1  0
  6 28  1  0
  6 29  1  0
  7 30  1  0
  8 31  1  0
 10 32  1  0
 11 33  1  0
 13 34  1  0
 14 35  1  0
 17 36  1  0
 17 37  1  0
 17 38  1  0
 18 39  1  0
 18 40  1  0
 18 41  1  0
 19 42  1  0
 20 43  1  0
M  CHG  1   3   1
M  END
$$$$
