
     RDKit          3D

 40 41  0  0  0  0  0  0  0  0999 V2000
    7.6676   -1.4449    0.3625 C   0  0  0  0  0  0  0  0  0  0  0  0
    7.1746   -0.1837   -0.0709 O   0  0  0  0  0  0  0  0  0  0  0  0
    5.8399    0.0535    0.1057 C   0  0  0  0  0  0  0  0  0  0  0  0
    5.4104    1.3143   -0.3123 C   0  0  0  0  0  0  0  0  0  0  0  0
    4.0694    1.6894   -0.1887 C   0  0  0  0  0  0  0  0  0  0  0  0
    3.1321    0.7997    0.3443 C   0  0  0  0  0  0  0  0  0  0  0  0
    1.7372    1.2334    0.4803 C   0  0  0  0  0  0  0  0  0  0  0  0
    0.6871    0.4537    0.1791 C   0  0  0  0  0  0  0  0  0  0  0  0
   -0.6978    0.9853    0.3317 C   0  0  0  0  0  0  0  0  0  0  0  0
   -0.9000    2.1028    0.7858 O   0  0  0  0  0  0  0  0  0  0  0  0
   -1.6515    0.0779   -0.0930 N   0  0  0  0  0  0  0  0  0  0  0  0
   -3.0321    0.2071   -0.0999 C   0  0  0  0  0  0  0  0  0  0  0  0
   -3.6469    1.3088    0.3452 C   0  0  0  0  0  0  0  0  0  0  0  0
   -5.1087    1.4261    0.3282 C   0  0  0  0  0  0  0  0  0  0  0  0
   -5.6260    2.4795    0.6917 O   0  0  0  0  0  0  0  0  0  0  0  0
   -5.8001    0.3214   -0.1063 N   0  0  0  0  0  0  0  0  0  0  0  0
   -7.2493    0.3804   -0.1340 C   0  0  0  0  0  0  0  0  0  0  0  0
   -5.1972   -0.8157   -0.6180 C   0  0  0  0  0  0  0  0  0  0  0  0
   -5.8670   -1.7452   -1.0756 O   0  0  0  0  0  0  0  0  0  0  0  0
   -3.7981   -0.8480   -0.5912 N   0  0  0  0  0  0  0  0  0  0  0  0
   -3.1691   -2.0554   -1.1191 C   0  0  0  0  0  0  0  0  0  0  0  0
    3.5681   -0.4587    0.7767 C   0  0  0  0  0  0  0  0  0  0  0  0
    4.9132   -0.8320    0.6543 C   0  0  0  0  0  0  0  0  0  0  0  0
    8.7425   -1.4717    0.1589 H   0  0  0  0  0  0  0  0  0  0  0  0
    7.5297   -1.5734    1.4412 H   0  0  0  0  0  0  0  0  0  0  0  0
    7.2024   -2.2636   -0.1964 H   0  0  0  0  0  0  0  0  0  0  0  0
    6.1272    2.0142   -0.7354 H   0  0  0  0  0  0  0  0  0  0  0  0
    3.7671    2.6806   -0.5201 H   0  0  0  0  0  0  0  0  0  0  0  0
    1.5885    2.2576    0.8202 H   0  0  0  0  0  0  0  0  0  0  0  0
    0.8214   -0.5554   -0.1874 H   0  0  0  0  0  0  0  0  0  0  0  0
   -1.2926   -0.7929   -0.4491 H   0  0  0  0  0  0  0  0  0  0  0  0
   -3.1419    2.1809    0.7369 H   0  0  0  0  0  0  0  0  0  0  0  0
   -7.6672   -0.5627    0.2327 H   0  0  0  0  0  0  0  0  0  0  0  0
   -7.5701    0.5236   -1.1709 H   0  0  0  0  0  0  0  0  0  0  0  0
   -7.6394    1.1989    0.4768 H   0  0  0  0  0  0  0  0  0  0  0  0
   -3.8930   -2.7888   -1.4840 H   0  0  0  0  0  0  0  0  0  0  0  0
   -2.5193   -1.7861   -1.9583 H   0  0  0  0  0  0  0  0  0  0  0  0
   -2.5856   -2.5334   -0.3254 H   0  0  0  0  0  0  0  0  0  0  0  0
    2.8723   -1.1602    1.2302 H   0  0  0  0  0  0  0  0  0  0  0  0
    5.2023   -1.8173    1.0041 H   0  0  0  0  0  0  0  0  0  0  0  0
  1  2  1  0
  2  3  1  0
  3  4  2  0
  4  5  1  0
  5  6  2  0
  6  7  1  0
  7  8  2  3
  8  9  1  0
  9 10  2  0
  9 11  1  0
 11 12  1  0
 12 13  2  0
 13 14  1  0
 14 15  2  0
 14 16  1  0
 16 17  1  0
 16 18  1  0
 18 19  2  0
 18 20  1  0
 20 21  1  0
  6 22  1  0
 22 23  2  0
 23  3  1  0
 20 12  1  0
  1 24  1  0
  1 25  1  0
  1 26  1  0
  4 27  1  0
  5 28  1  0
  7 29  1  0
  8 30  1  0
 11 31  1  0
 13 32  1  0
 17 33  1  0
 17 34  1  0
 17 35  1  0
 21 36  1  0
 21 37  1  0
 21 38  1  0
 22 39  1  0
 23 40  1  0
M  END
$$$$
