
     RDKit          3D

 48 51  0  0  0  0  0  0  0  0999 V2000
    2.6746   -2.0630   -2.5245 C   0  0  0  0  0  0  0  0  0  0  0  0
    2.8915   -2.3384   -1.0441 C   0  0  0  0  0  0  0  0  0  0  0  0
    2.7102   -1.1214   -0.2579 N   0  0  0  0  0  0  0  0  0  0  0  0
    1.5262   -0.6417    0.3091 C   0  0  0  0  0  0  0  0  0  0  0  0
    0.3061   -1.2034    0.2031 C   0  0  0  0  0  0  0  0  0  0  0  0
   -0.9278   -0.6867    0.8198 C   0  0  0  0  0  0  0  0  0  0  0  0
   -1.2030   -1.1465    2.1005 C   0  0  0  0  0  0  0  0  0  0  0  0
   -2.3392   -0.7261    2.7457 C   0  0  0  0  0  0  0  0  0  0  0  0
   -3.1935    0.1599    2.1107 C   0  0  0  0  0  0  0  0  0  0  0  0
   -4.3284    0.5429    2.8313 C   0  0  0  0  0  0  0  0  0  0  0  0
   -5.2402    1.4277    2.2912 C   0  0  0  0  0  0  0  0  0  0  0  0
   -5.0155    1.9393    1.0246 C   0  0  0  0  0  0  0  0  0  0  0  0
   -3.8807    1.5799    0.2507 C   0  0  0  0  0  0  0  0  0  0  0  0
   -3.8342    2.3021   -1.0735 C   0  0  0  0  0  0  0  0  0  0  0  0
   -2.9225    0.6587    0.7818 C   0  0  0  0  0  0  0  0  0  0  0  0
   -1.7655    0.1842    0.1641 N   0  0  0  0  0  4  0  0  0  0  0  0
   -1.3827    0.5608   -1.2263 C   0  0  0  0  0  0  0  0  0  0  0  0
   -2.0089   -0.4107   -2.2114 C   0  0  0  0  0  0  0  0  0  0  0  0
    1.7258    0.8933    1.2043 S   0  0  0  0  0  0  0  0  0  0  0  0
    3.4543    0.8864    0.7494 C   0  0  0  0  0  0  0  0  0  0  0  0
    4.3829    1.8611    1.0877 C   0  0  0  0  0  0  0  0  0  0  0  0
    5.6934    1.7096    0.6405 C   0  0  0  0  0  0  0  0  0  0  0  0
    6.0509    0.5982   -0.1321 C   0  0  0  0  0  0  0  0  0  0  0  0
    5.1045   -0.3795   -0.4667 C   0  0  0  0  0  0  0  0  0  0  0  0
    3.7924   -0.2464   -0.0249 C   0  0  0  0  0  0  0  0  0  0  0  0
    1.6682   -1.6737   -2.7110 H   0  0  0  0  0  0  0  0  0  0  0  0
    3.3922   -1.3283   -2.9034 H   0  0  0  0  0  0  0  0  0  0  0  0
    2.7949   -2.9845   -3.1025 H   0  0  0  0  0  0  0  0  0  0  0  0
    2.1835   -3.1086   -0.7160 H   0  0  0  0  0  0  0  0  0  0  0  0
    3.8803   -2.7819   -0.8815 H   0  0  0  0  0  0  0  0  0  0  0  0
    0.1739   -2.1299   -0.3468 H   0  0  0  0  0  0  0  0  0  0  0  0
   -0.5259   -1.8342    2.6059 H   0  0  0  0  0  0  0  0  0  0  0  0
   -2.5414   -1.0952    3.7513 H   0  0  0  0  0  0  0  0  0  0  0  0
   -4.5210    0.1581    3.8333 H   0  0  0  0  0  0  0  0  0  0  0  0
   -6.1210    1.7260    2.8572 H   0  0  0  0  0  0  0  0  0  0  0  0
   -5.7512    2.6470    0.6365 H   0  0  0  0  0  0  0  0  0  0  0  0
   -3.0250    3.0382   -1.0783 H   0  0  0  0  0  0  0  0  0  0  0  0
   -3.7573    1.6095   -1.9116 H   0  0  0  0  0  0  0  0  0  0  0  0
   -4.7537    2.8695   -1.2638 H   0  0  0  0  0  0  0  0  0  0  0  0
   -1.6268    1.5997   -1.4114 H   0  0  0  0  0  0  0  0  0  0  0  0
   -0.2966    0.5505   -1.3385 H   0  0  0  0  0  0  0  0  0  0  0  0
   -1.8222   -0.0812   -3.2380 H   0  0  0  0  0  0  0  0  0  0  0  0
   -3.0889   -0.5047   -2.0677 H   0  0  0  0  0  0  0  0  0  0  0  0
   -1.5833   -1.4129   -2.0996 H   0  0  0  0  0  0  0  0  0  0  0  0
    4.1027    2.7219    1.6863 H   0  0  0  0  0  0  0  0  0  0  0  0
    6.4436    2.4566    0.8918 H   0  0  0  0  0  0  0  0  0  0  0  0
    7.0785    0.4927   -0.4756 H   0  0  0  0  0  0  0  0  0  0  0  0
    5.4259   -1.2216   -1.0698 H   0  0  0  0  0  0  0  0  0  0  0  0
  1  2  1  0
  2  3  1  0
  3  4  1  0
  4  5  2  3
  5  6  1  0
  6  7  2  0
  7  8  1  0
  8  9  2  0
  9 10  1  0
 10 11  2  0
 11 12  1  0
 12 13  2  0
 13 14  1  0
 13 15  1  0
 15 16  2  0
 16 17  1  0
 17 18  1  0
  4 19  1  0
 19 20  1  0
 20 21  2  0
 21 22  1  0
 22 23  2  0
 23 24  1  0
 24 25  2  0
 25  3  1  0
 16  6  1  0
 25 20  1  0
 15  9  1  0
  1 26  1  0
  1 27  1  0
  1 28  1  0
  2 29  1  0
  2 30  1  0
  5 31  1  0
  7 32  1  0
  8 33  1  0
 10 34  1  0
 11 35  1  0
 12 36  1  0
 14 37  1  0
 14 38  1  0
 14 39  1  0
 17 40  1  0
 17 41  1  0
 18 42  1  0
 18 43  1  0
 18 44  1  0
 21 45  1  0
 22 46  1  0
 23 47  1  0
 24 48  1  0
M  CHG  1  16   1
M  END
$$$$
