
     RDKit          3D

 62 65  0  0  0  0  0  0  0  0999 V2000
   -2.0860   -1.7701   -1.7410 C   0  0  0  0  0  0  0  0  0  0  0  0
   -2.3300   -1.7303   -0.2380 C   0  0  0  0  0  0  0  0  0  0  0  0
   -2.9366   -0.4710    0.1565 N   0  0  0  0  0  0  0  0  0  0  0  0
   -2.3550    0.6747    0.7205 C   0  0  0  0  0  0  0  0  0  0  0  0
   -1.0713    1.0731    0.8409 C   0  0  0  0  0  0  0  0  0  0  0  0
    0.1248    0.4432    0.3312 C   0  0  0  0  0  0  0  0  0  0  0  0
    1.3560    0.8917    0.6204 C   0  0  0  0  0  0  0  0  0  0  0  0
    2.5434    0.2594    0.0114 C   0  0  0  0  0  0  0  0  0  0  0  0
    2.9135   -0.9851    0.1158 N   0  0  0  0  0  4  0  0  0  0  0  0
    2.3236   -2.0948    0.8904 C   0  0  0  0  0  0  0  0  0  0  0  0
    3.0428   -2.2369    2.2200 C   0  0  0  0  0  0  0  0  0  0  0  0
    4.1381   -1.1980   -0.6787 C   0  0  0  0  0  0  0  0  0  0  0  0
    4.8567   -2.3631   -0.8757 C   0  0  0  0  0  0  0  0  0  0  0  0
    5.9932   -2.2926   -1.6869 C   0  0  0  0  0  0  0  0  0  0  0  0
    6.3804   -1.0777   -2.2758 C   0  0  0  0  0  0  0  0  0  0  0  0
    5.6391    0.0874   -2.0671 C   0  0  0  0  0  0  0  0  0  0  0  0
    4.5138    0.0088   -1.2616 C   0  0  0  0  0  0  0  0  0  0  0  0
    3.5292    1.0740   -0.8658 C   0  0  0  0  0  0  0  0  0  0  0  0
    2.8100    1.6500   -2.0900 C   0  0  0  0  0  0  0  0  0  0  0  0
    4.2071    2.1807   -0.0503 C   0  0  0  0  0  0  0  0  0  0  0  0
   -3.5142    1.5960    1.2544 C   0  0  0  0  0  0  0  0  0  0  0  0
   -3.4581    1.7474    2.7817 C   0  0  0  0  0  0  0  0  0  0  0  0
   -3.5202    2.9674    0.5627 C   0  0  0  0  0  0  0  0  0  0  0  0
   -4.7427    0.8020    0.8522 C   0  0  0  0  0  0  0  0  0  0  0  0
   -6.0845    1.1118    1.0454 C   0  0  0  0  0  0  0  0  0  0  0  0
   -7.0439    0.2116    0.5864 C   0  0  0  0  0  0  0  0  0  0  0  0
   -6.6552   -0.9727   -0.0531 C   0  0  0  0  0  0  0  0  0  0  0  0
   -5.3012   -1.2743   -0.2381 C   0  0  0  0  0  0  0  0  0  0  0  0
   -4.3398   -0.3856    0.2212 C   0  0  0  0  0  0  0  0  0  0  0  0
   -3.0289   -1.7271   -2.3005 H   0  0  0  0  0  0  0  0  0  0  0  0
   -1.4681   -0.9278   -2.0756 H   0  0  0  0  0  0  0  0  0  0  0  0
   -1.5756   -2.7005   -2.0129 H   0  0  0  0  0  0  0  0  0  0  0  0
   -1.3896   -1.8896    0.2990 H   0  0  0  0  0  0  0  0  0  0  0  0
   -2.9490   -2.5889    0.0544 H   0  0  0  0  0  0  0  0  0  0  0  0
   -0.8977    2.0181    1.3564 H   0  0  0  0  0  0  0  0  0  0  0  0
   -0.0081   -0.3853   -0.3523 H   0  0  0  0  0  0  0  0  0  0  0  0
    1.5185    1.7748    1.2323 H   0  0  0  0  0  0  0  0  0  0  0  0
    2.3770   -3.0124    0.2940 H   0  0  0  0  0  0  0  0  0  0  0  0
    1.2639   -1.8853    1.0636 H   0  0  0  0  0  0  0  0  0  0  0  0
    2.5667   -3.0135    2.8226 H   0  0  0  0  0  0  0  0  0  0  0  0
    4.0944   -2.5184    2.0863 H   0  0  0  0  0  0  0  0  0  0  0  0
    3.0198   -1.3019    2.7919 H   0  0  0  0  0  0  0  0  0  0  0  0
    4.5774   -3.3135   -0.4389 H   0  0  0  0  0  0  0  0  0  0  0  0
    6.5887   -3.1861   -1.8704 H   0  0  0  0  0  0  0  0  0  0  0  0
    7.2693   -1.0455   -2.9068 H   0  0  0  0  0  0  0  0  0  0  0  0
    5.9466    1.0220   -2.5347 H   0  0  0  0  0  0  0  0  0  0  0  0
    2.2696    0.8695   -2.6429 H   0  0  0  0  0  0  0  0  0  0  0  0
    2.0756    2.4076   -1.7949 H   0  0  0  0  0  0  0  0  0  0  0  0
    3.5150    2.1213   -2.7873 H   0  0  0  0  0  0  0  0  0  0  0  0
    3.4864    2.9441    0.2660 H   0  0  0  0  0  0  0  0  0  0  0  0
    4.6757    1.7800    0.8577 H   0  0  0  0  0  0  0  0  0  0  0  0
    4.9885    2.6857   -0.6304 H   0  0  0  0  0  0  0  0  0  0  0  0
   -3.4502    0.7721    3.2839 H   0  0  0  0  0  0  0  0  0  0  0  0
   -4.3258    2.3002    3.1609 H   0  0  0  0  0  0  0  0  0  0  0  0
   -2.5617    2.2917    3.0984 H   0  0  0  0  0  0  0  0  0  0  0  0
   -4.4013    3.5553    0.8464 H   0  0  0  0  0  0  0  0  0  0  0  0
   -2.6371    3.5583    0.8313 H   0  0  0  0  0  0  0  0  0  0  0  0
   -3.5338    2.8671   -0.5300 H   0  0  0  0  0  0  0  0  0  0  0  0
   -6.3882    2.0292    1.5411 H   0  0  0  0  0  0  0  0  0  0  0  0
   -8.1006    0.4297    0.7234 H   0  0  0  0  0  0  0  0  0  0  0  0
   -7.4153   -1.6633   -0.4118 H   0  0  0  0  0  0  0  0  0  0  0  0
   -5.0350   -2.1943   -0.7454 H   0  0  0  0  0  0  0  0  0  0  0  0
  1  2  1  0
  2  3  1  0
  3  4  1  0
  4  5  2  3
  5  6  1  0
  6  7  2  3
  7  8  1  0
  8  9  2  0
  9 10  1  0
 10 11  1  0
  9 12  1  0
 12 13  2  0
 13 14  1  0
 14 15  2  0
 15 16  1  0
 16 17  2  0
 17 18  1  0
 18 19  1  0
 18 20  1  0
  4 21  1  0
 21 22  1  0
 21 23  1  0
 21 24  1  0
 24 25  2  0
 25 26  1  0
 26 27  2  0
 27 28  1  0
 28 29  2  0
 29  3  1  0
 18  8  1  0
 29 24  1  0
 17 12  1  0
  1 30  1  0
  1 31  1  0
  1 32  1  0
  2 33  1  0
  2 34  1  0
  5 35  1  0
  6 36  1  0
  7 37  1  0
 10 38  1  0
 10 39  1  0
 11 40  1  0
 11 41  1  0
 11 42  1  0
 13 43  1  0
 14 44  1  0
 15 45  1  0
 16 46  1  0
 19 47  1  0
 19 48  1  0
 19 49  1  0
 20 50  1  0
 20 51  1  0
 20 52  1  0
 22 53  1  0
 22 54  1  0
 22 55  1  0
 23 56  1  0
 23 57  1  0
 23 58  1  0
 25 59  1  0
 26 60  1  0
 27 61  1  0
 28 62  1  0
M  CHG  1   9   1
M  END
$$$$
