
     RDKit          3D

 35 37  0  0  0  0  0  0  0  0999 V2000
    7.2495    0.5093   -2.1569 C   0  0  0  0  0  0  0  0  0  0  0  0
    5.8666    0.2602   -1.9008 O   0  0  0  0  0  0  0  0  0  0  0  0
    5.4646    0.6193   -0.6560 C   0  0  0  0  0  0  0  0  0  0  0  0
    6.1731    1.1066    0.2107 O   0  0  0  0  0  0  0  0  0  0  0  0
    4.0146    0.3378   -0.4699 C   0  0  0  0  0  0  0  0  0  0  0  0
    3.4209    0.6993    0.7466 C   0  0  0  0  0  0  0  0  0  0  0  0
    2.0628    0.4547    0.9725 C   0  0  0  0  0  0  0  0  0  0  0  0
    1.2822   -0.1510   -0.0182 C   0  0  0  0  0  0  0  0  0  0  0  0
   -0.1420   -0.4289    0.2010 C   0  0  0  0  0  0  0  0  0  0  0  0
   -1.1091    0.5044    0.3243 C   0  0  0  0  0  0  0  0  0  0  0  0
   -0.8438    1.9033    0.2151 C   0  0  0  0  0  0  0  0  0  0  0  0
   -0.6078    3.0386    0.1517 N   0  0  0  0  0  0  0  0  0  0  0  0
   -2.4639    0.0901    0.5136 C   0  0  0  0  0  0  0  0  0  0  0  0
   -3.4784    0.3991   -0.2697 N   0  0  0  0  0  0  0  0  0  0  0  0
   -4.6595   -0.1409    0.2099 C   0  0  0  0  0  0  0  0  0  0  0  0
   -5.9300   -0.0091   -0.3861 C   0  0  0  0  0  0  0  0  0  0  0  0
   -7.0433   -0.6106    0.2097 C   0  0  0  0  0  0  0  0  0  0  0  0
   -6.9046   -1.3379    1.3874 C   0  0  0  0  0  0  0  0  0  0  0  0
   -5.6548   -1.4819    1.9980 C   0  0  0  0  0  0  0  0  0  0  0  0
   -4.5440   -0.8733    1.3900 C   0  0  0  0  0  0  0  0  0  0  0  0
   -2.9007   -0.8664    1.8933 S   0  0  0  0  0  0  0  0  0  0  0  0
    1.8747   -0.5204   -1.2306 C   0  0  0  0  0  0  0  0  0  0  0  0
    3.2332   -0.2751   -1.4581 C   0  0  0  0  0  0  0  0  0  0  0  0
    7.4670    0.1909   -3.1802 H   0  0  0  0  0  0  0  0  0  0  0  0
    7.8766   -0.0712   -1.4729 H   0  0  0  0  0  0  0  0  0  0  0  0
    7.4689    1.5783   -2.0729 H   0  0  0  0  0  0  0  0  0  0  0  0
    4.0140    1.1765    1.5253 H   0  0  0  0  0  0  0  0  0  0  0  0
    1.6293    0.7434    1.9279 H   0  0  0  0  0  0  0  0  0  0  0  0
   -0.3836   -1.4904    0.2298 H   0  0  0  0  0  0  0  0  0  0  0  0
   -6.0342    0.5611   -1.3041 H   0  0  0  0  0  0  0  0  0  0  0  0
   -8.0223   -0.5056   -0.2525 H   0  0  0  0  0  0  0  0  0  0  0  0
   -7.7792   -1.7997    1.8415 H   0  0  0  0  0  0  0  0  0  0  0  0
   -5.5491   -2.0481    2.9186 H   0  0  0  0  0  0  0  0  0  0  0  0
    1.2857   -0.9950   -2.0133 H   0  0  0  0  0  0  0  0  0  0  0  0
    3.6666   -0.5673   -2.4117 H   0  0  0  0  0  0  0  0  0  0  0  0
  1  2  1  0
  2  3  1  0
  3  4  2  0
  3  5  1  0
  5  6  2  0
  6  7  1  0
  7  8  2  0
  8  9  1  0
  9 10  2  3
 10 11  1  0
 11 12  3  0
 10 13  1  0
 13 14  2  0
 14 15  1  0
 15 16  2  0
 16 17  1  0
 17 18  2  0
 18 19  1  0
 19 20  2  0
 20 21  1  0
  8 22  1  0
 22 23  2  0
 23  5  1  0
 21 13  1  0
 20 15  1  0
  1 24  1  0
  1 25  1  0
  1 26  1  0
  6 27  1  0
  7 28  1  0
  9 29  1  0
 16 30  1  0
 17 31  1  0
 18 32  1  0
 19 33  1  0
 22 34  1  0
 23 35  1  0
M  END
$$$$
