
     RDKit          3D

 55 60  0  0  0  0  0  0  0  0999 V2000
    5.2398   -0.2381   -0.5346 O   0  0  0  0  0  0  0  0  0  0  0  0
    4.3722   -0.2365    0.3365 C   0  0  0  0  0  0  0  0  0  0  0  0
    4.7326   -0.1225    1.7422 C   0  0  0  0  0  0  0  0  0  0  0  0
    4.1020   -0.6420    2.9122 C   0  0  0  0  0  0  0  0  0  0  0  0
    4.8841   -0.2693    3.9798 C   0  0  0  0  0  0  0  0  0  0  0  0
    5.9663    0.4277    3.5517 O   0  0  0  0  0  0  0  0  0  0  0  0
    5.8810    0.4943    2.1988 C   0  0  0  0  0  0  0  0  0  0  0  0
    3.0093   -0.3933    0.0300 N   0  0  0  0  0  0  0  0  0  0  0  0
    2.7116   -0.7607   -1.3474 C   0  0  0  0  0  0  0  0  0  0  0  0
    1.3124   -1.3553   -1.4800 C   0  0  0  0  0  0  0  0  0  0  0  0
    0.2145   -0.4069   -0.9217 C   0  0  0  0  0  0  0  0  0  0  0  0
    0.6119   -0.0782    0.5418 C   0  0  0  0  0  0  0  0  0  0  0  0
    2.0243    0.4939    0.6423 C   0  0  0  0  0  0  0  0  0  0  0  0
    0.2406    0.8588   -1.6258 O   0  0  0  0  0  0  0  0  0  0  0  0
   -0.2819    0.8523   -2.8886 C   0  0  0  0  0  0  0  0  0  0  0  0
    0.0794    1.9210   -3.7080 C   0  0  0  0  0  0  0  0  0  0  0  0
   -0.3940    1.9855   -5.0207 C   0  0  0  0  0  0  0  0  0  0  0  0
   -1.2325    0.9825   -5.5083 C   0  0  0  0  0  0  0  0  0  0  0  0
   -1.8110    1.0677   -7.1252 Cl  0  0  0  0  0  0  0  0  0  0  0  0
   -1.6101   -0.0811   -4.6927 C   0  0  0  0  0  0  0  0  0  0  0  0
   -1.1378   -0.1344   -3.3774 C   0  0  0  0  0  0  0  0  0  0  0  0
   -1.5556   -1.2266   -2.4773 C   0  0  0  0  0  0  0  0  0  0  0  0
   -2.1877   -2.1758   -2.9281 O   0  0  0  0  0  0  0  0  0  0  0  0
   -1.2051   -1.0366   -1.0057 C   0  0  0  0  0  0  0  0  0  0  0  0
   -2.3319   -0.2278   -0.3710 C   0  0  0  0  0  0  0  0  0  0  0  0
   -2.5222   -1.0178    0.8764 C   0  0  0  0  0  0  0  0  0  0  0  0
   -3.3573   -0.5289    1.9983 C   0  0  0  0  0  0  0  0  0  0  0  0
   -4.0930    0.6583    1.9009 C   0  0  0  0  0  0  0  0  0  0  0  0
   -4.8668    1.0927    2.9825 C   0  0  0  0  0  0  0  0  0  0  0  0
   -4.9071    0.3422    4.1569 C   0  0  0  0  0  0  0  0  0  0  0  0
   -5.8585    0.8829    5.4834 Cl  0  0  0  0  0  0  0  0  0  0  0  0
   -4.1822   -0.8425    4.2606 C   0  0  0  0  0  0  0  0  0  0  0  0
   -3.4085   -1.2786    3.1816 C   0  0  0  0  0  0  0  0  0  0  0  0
   -1.9033   -2.1536    0.8988 N   0  0  0  0  0  0  0  0  0  0  0  0
   -1.2349   -2.3017   -0.3380 O   0  0  0  0  0  0  0  0  0  0  0  0
    3.1957   -1.2292    2.9644 H   0  0  0  0  0  0  0  0  0  0  0  0
    4.8208   -0.4247    5.0480 H   0  0  0  0  0  0  0  0  0  0  0  0
    6.6956    1.0039    1.7018 H   0  0  0  0  0  0  0  0  0  0  0  0
    3.4470   -1.4972   -1.6927 H   0  0  0  0  0  0  0  0  0  0  0  0
    2.8270    0.1315   -1.9750 H   0  0  0  0  0  0  0  0  0  0  0  0
    1.2832   -2.3107   -0.9406 H   0  0  0  0  0  0  0  0  0  0  0  0
    1.1482   -1.5827   -2.5388 H   0  0  0  0  0  0  0  0  0  0  0  0
    0.5592   -0.9812    1.1615 H   0  0  0  0  0  0  0  0  0  0  0  0
   -0.0710    0.6633    0.9712 H   0  0  0  0  0  0  0  0  0  0  0  0
    2.0922    1.4620    0.1298 H   0  0  0  0  0  0  0  0  0  0  0  0
    2.2576    0.6949    1.6895 H   0  0  0  0  0  0  0  0  0  0  0  0
    0.7404    2.6994   -3.3332 H   0  0  0  0  0  0  0  0  0  0  0  0
   -0.1023    2.8167   -5.6587 H   0  0  0  0  0  0  0  0  0  0  0  0
   -2.2711   -0.8576   -5.0723 H   0  0  0  0  0  0  0  0  0  0  0  0
   -3.2632   -0.2588   -0.9476 H   0  0  0  0  0  0  0  0  0  0  0  0
   -2.0668    0.8133   -0.1743 H   0  0  0  0  0  0  0  0  0  0  0  0
   -4.0901    1.2591    0.9962 H   0  0  0  0  0  0  0  0  0  0  0  0
   -5.4384    2.0143    2.9022 H   0  0  0  0  0  0  0  0  0  0  0  0
   -4.2153   -1.4327    5.1730 H   0  0  0  0  0  0  0  0  0  0  0  0
   -2.8494   -2.2088    3.2718 H   0  0  0  0  0  0  0  0  0  0  0  0
  1  2  2  0
  2  3  1  0
  3  4  1  0
  4  5  2  0
  5  6  1  0
  6  7  1  0
  2  8  1  0
  8  9  1  0
  9 10  1  0
 10 11  1  0
 11 12  1  0
 12 13  1  0
 11 14  1  0
 14 15  1  0
 15 16  2  0
 16 17  1  0
 17 18  2  0
 18 19  1  0
 18 20  1  0
 20 21  2  0
 21 22  1  0
 22 23  2  0
 22 24  1  0
 24 25  1  0
 25 26  1  0
 26 27  1  0
 27 28  2  0
 28 29  1  0
 29 30  2  0
 30 31  1  0
 30 32  1  0
 32 33  2  0
 26 34  2  0
 34 35  1  0
  7  3  2  0
 13  8  1  0
 21 15  1  0
 35 24  1  0
 24 11  1  0
 33 27  1  0
  4 36  1  0
  5 37  1  0
  7 38  1  0
  9 39  1  0
  9 40  1  0
 10 41  1  0
 10 42  1  0
 12 43  1  0
 12 44  1  0
 13 45  1  0
 13 46  1  0
 16 47  1  0
 17 48  1  0
 20 49  1  0
 25 50  1  0
 25 51  1  0
 28 52  1  0
 29 53  1  0
 32 54  1  0
 33 55  1  0
M  END
$$$$
