
     RDKit          3D

 58 60  0  0  0  0  0  0  0  0999 V2000
    0.8167    1.2600   -2.1160 C   0  0  0  0  0  0  0  0  0  0  0  0
   -0.6494    0.9810   -1.8973 C   0  0  0  0  0  0  0  0  0  0  0  0
   -1.5677    2.0081   -2.1871 C   0  0  0  0  0  0  0  0  0  0  0  0
   -2.9351    1.8150   -2.0080 C   0  0  0  0  0  0  0  0  0  0  0  0
   -3.3894    0.5853   -1.5378 C   0  0  0  0  0  0  0  0  0  0  0  0
   -5.1281    0.3070   -1.3148 S   0  0  0  0  0  6  0  0  0  0  0  0
   -5.4829   -0.8383   -2.1250 O   0  0  0  0  0  0  0  0  0  0  0  0
   -5.8116    1.5735   -1.4741 O   0  0  0  0  0  0  0  0  0  0  0  0
   -5.2354   -0.1317    0.3238 N   0  0  0  0  0  0  0  0  0  0  0  0
   -4.8952    0.9144    1.3358 C   0  0  0  0  0  0  0  0  0  0  0  0
   -6.0959    1.8150    1.6561 C   0  0  0  0  0  0  0  0  0  0  0  0
   -7.2416    1.0476    2.0512 O   0  0  0  0  0  0  0  0  0  0  0  0
   -7.6199    0.1374    1.0077 C   0  0  0  0  0  0  0  0  0  0  0  0
   -6.4877   -0.8492    0.7133 C   0  0  0  0  0  0  0  0  0  0  0  0
   -2.4955   -0.4502   -1.2427 C   0  0  0  0  0  0  0  0  0  0  0  0
   -1.1195   -0.2621   -1.4103 C   0  0  0  0  0  0  0  0  0  0  0  0
   -0.1839   -1.2843   -1.1362 N   0  0  0  0  0  0  0  0  0  0  0  0
   -0.4048   -2.4924   -0.4964 C   0  0  0  0  0  0  0  0  0  0  0  0
   -1.4424   -2.8426    0.0588 O   0  0  0  0  0  0  0  0  0  0  0  0
    0.8281   -3.4062   -0.5037 C   0  0  0  0  0  0  0  0  0  0  0  0
    1.7339   -3.1637    0.5738 O   0  0  0  0  0  0  0  0  0  0  0  0
    2.5228   -2.0638    0.4299 C   0  0  0  0  0  0  0  0  0  0  0  0
    2.4569   -1.2827   -0.5153 O   0  0  0  0  0  0  0  0  0  0  0  0
    3.4292   -1.8994    1.6436 C   0  0  0  0  0  0  0  0  0  0  0  0
    4.4111   -0.8505    1.4132 N   0  0  0  0  0  0  0  0  0  0  0  0
    5.6022   -1.1533    0.7830 C   0  0  0  0  0  0  0  0  0  0  0  0
    5.9414   -2.2992    0.5120 O   0  0  0  0  0  0  0  0  0  0  0  0
    6.4527    0.0056    0.3932 C   0  0  0  0  0  0  0  0  0  0  0  0
    6.4161    1.2174    1.0971 C   0  0  0  0  0  0  0  0  0  0  0  0
    7.2261    2.2824    0.6962 C   0  0  0  0  0  0  0  0  0  0  0  0
    8.0773    2.1392   -0.4003 C   0  0  0  0  0  0  0  0  0  0  0  0
    8.1287    0.9303   -1.0937 C   0  0  0  0  0  0  0  0  0  0  0  0
    7.3218   -0.1373   -0.6957 C   0  0  0  0  0  0  0  0  0  0  0  0
    1.2331    0.5593   -2.8474 H   0  0  0  0  0  0  0  0  0  0  0  0
    0.9839    2.2715   -2.5010 H   0  0  0  0  0  0  0  0  0  0  0  0
    1.3619    1.1797   -1.1701 H   0  0  0  0  0  0  0  0  0  0  0  0
   -1.2177    2.9689   -2.5629 H   0  0  0  0  0  0  0  0  0  0  0  0
   -3.6302    2.6172   -2.2453 H   0  0  0  0  0  0  0  0  0  0  0  0
   -4.0406    1.5151    1.0116 H   0  0  0  0  0  0  0  0  0  0  0  0
   -4.5824    0.3865    2.2454 H   0  0  0  0  0  0  0  0  0  0  0  0
   -5.8412    2.4756    2.4910 H   0  0  0  0  0  0  0  0  0  0  0  0
   -6.3706    2.4553    0.8123 H   0  0  0  0  0  0  0  0  0  0  0  0
   -8.5027   -0.4086    1.3537 H   0  0  0  0  0  0  0  0  0  0  0  0
   -7.9093    0.7072    0.1176 H   0  0  0  0  0  0  0  0  0  0  0  0
   -6.2594   -1.4303    1.6167 H   0  0  0  0  0  0  0  0  0  0  0  0
   -6.7860   -1.5680   -0.0564 H   0  0  0  0  0  0  0  0  0  0  0  0
   -2.9043   -1.3965   -0.8989 H   0  0  0  0  0  0  0  0  0  0  0  0
    0.7959   -1.0713   -1.3268 H   0  0  0  0  0  0  0  0  0  0  0  0
    1.3438   -3.3459   -1.4705 H   0  0  0  0  0  0  0  0  0  0  0  0
    0.4759   -4.4396   -0.4114 H   0  0  0  0  0  0  0  0  0  0  0  0
    3.9351   -2.8457    1.8557 H   0  0  0  0  0  0  0  0  0  0  0  0
    2.8186   -1.5943    2.4974 H   0  0  0  0  0  0  0  0  0  0  0  0
    4.0511    0.0856    1.2852 H   0  0  0  0  0  0  0  0  0  0  0  0
    5.7853    1.3394    1.9738 H   0  0  0  0  0  0  0  0  0  0  0  0
    7.2018    3.2222    1.2438 H   0  0  0  0  0  0  0  0  0  0  0  0
    8.7095    2.9686   -0.7100 H   0  0  0  0  0  0  0  0  0  0  0  0
    8.8000    0.8165   -1.9420 H   0  0  0  0  0  0  0  0  0  0  0  0
    7.3695   -1.0808   -1.2367 H   0  0  0  0  0  0  0  0  0  0  0  0
  1  2  1  0
  2  3  2  0
  3  4  1  0
  4  5  2  0
  5  6  1  0
  6  7  2  0
  6  8  2  0
  6  9  1  0
  9 10  1  0
 10 11  1  0
 11 12  1  0
 12 13  1  0
 13 14  1  0
  5 15  1  0
 15 16  2  0
 16 17  1  0
 17 18  1  0
 18 19  2  0
 18 20  1  0
 20 21  1  0
 21 22  1  0
 22 23  2  0
 22 24  1  0
 24 25  1  0
 25 26  1  0
 26 27  2  0
 26 28  1  0
 28 29  2  0
 29 30  1  0
 30 31  2  0
 31 32  1  0
 32 33  2  0
 16  2  1  0
 33 28  1  0
 14  9  1  0
  1 34  1  0
  1 35  1  0
  1 36  1  0
  3 37  1  0
  4 38  1  0
 10 39  1  0
 10 40  1  0
 11 41  1  0
 11 42  1  0
 13 43  1  0
 13 44  1  0
 14 45  1  0
 14 46  1  0
 15 47  1  0
 17 48  1  0
 20 49  1  0
 20 50  1  0
 24 51  1  0
 24 52  1  0
 25 53  1  0
 29 54  1  0
 30 55  1  0
 31 56  1  0
 32 57  1  0
 33 58  1  0
M  END
$$$$
