
     RDKit          3D

 67 72  0  0  0  0  0  0  0  0999 V2000
   -4.7726   -4.0986   -1.4051 C   0  0  0  0  0  0  0  0  0  0  0  0
   -3.7653   -3.3265   -0.6063 C   0  0  0  0  0  0  0  0  0  0  0  0
   -3.4978   -3.6387    0.7401 C   0  0  0  0  0  0  0  0  0  0  0  0
   -4.3155   -4.9374    1.5393 Cl  0  0  0  0  0  0  0  0  0  0  0  0
   -2.5634   -2.9047    1.4963 C   0  0  0  0  0  0  0  0  0  0  0  0
   -1.8660   -1.8370    0.9308 C   0  0  0  0  0  0  0  0  0  0  0  0
   -2.1164   -1.5201   -0.3964 C   0  0  0  0  0  0  0  0  0  0  0  0
   -3.0593   -2.2520   -1.1352 C   0  0  0  0  0  0  0  0  0  0  0  0
   -3.1656   -1.7166   -2.4159 N   0  0  0  0  0  0  0  0  0  0  0  0
   -2.3152   -0.6241   -2.6020 C   0  0  0  0  0  0  0  0  0  0  0  0
   -2.2489    0.0207   -3.6372 O   0  0  0  0  0  0  0  0  0  0  0  0
   -1.5376   -0.4331   -1.2725 C   0  0  1  0  0  0  0  0  0  0  0  0
   -1.8069    0.8534   -0.5914 C   0  0  0  0  0  0  0  0  0  0  0  0
   -0.6153    1.5381   -0.3538 C   0  0  0  0  0  0  0  0  0  0  0  0
   -0.8890    2.6851    0.3358 C   0  0  0  0  0  0  0  0  0  0  0  0
   -0.0200    3.5358    0.8786 O   0  0  0  0  0  0  0  0  0  0  0  0
   -2.2919    2.7863    0.4320 N   0  0  0  0  0  0  0  0  0  0  0  0
   -3.0172    3.9078    0.9460 C   0  0  0  0  0  0  0  0  0  0  0  0
   -4.2395    3.7298    1.6054 C   0  0  0  0  0  0  0  0  0  0  0  0
   -4.9340    4.8325    2.1104 C   0  0  0  0  0  0  0  0  0  0  0  0
   -4.4211    6.1181    1.9510 C   0  0  0  0  0  0  0  0  0  0  0  0
   -3.2152    6.3063    1.2800 C   0  0  0  0  0  0  0  0  0  0  0  0
   -2.5149    5.2076    0.7759 C   0  0  0  0  0  0  0  0  0  0  0  0
   -2.8452    1.5970   -0.0853 C   0  0  0  0  0  0  0  0  0  0  0  0
   -4.1547    1.3590   -0.0941 O   0  0  0  0  0  0  0  0  0  0  0  0
    0.5618    0.8078   -0.8639 C   0  0  1  0  0  0  0  0  0  0  0  0
    1.6143    0.4589    0.2037 C   0  0  0  0  0  0  0  0  0  0  0  0
    2.6211   -0.4822   -0.2979 N   0  0  0  0  0  0  0  0  0  0  0  0
    3.8964   -0.4590    0.2266 C   0  0  0  0  0  0  0  0  0  0  0  0
    4.2342    0.2681    1.1510 O   0  0  0  0  0  0  0  0  0  0  0  0
    4.7193   -1.3340   -0.4060 O   0  0  0  0  0  0  0  0  0  0  0  0
    6.1110   -1.4663   -0.0193 C   0  0  0  0  0  0  0  0  0  0  0  0
    6.2440   -1.9738    1.4208 C   0  0  0  0  0  0  0  0  0  0  0  0
    6.8798   -0.1593   -0.2417 C   0  0  0  0  0  0  0  0  0  0  0  0
    6.6765   -2.5341   -0.9687 C   0  0  0  0  0  0  0  0  0  0  0  0
    2.2128   -1.3881   -1.3761 C   0  0  0  0  0  0  0  0  0  0  0  0
    0.6917   -1.6328   -1.3765 C   0  0  0  0  0  0  0  0  0  0  0  0
   -0.0664   -0.3938   -1.5129 N   0  0  0  0  0  0  0  0  0  0  0  0
   -4.7913   -3.7989   -2.4566 H   0  0  0  0  0  0  0  0  0  0  0  0
   -5.7773   -3.9406   -0.9998 H   0  0  0  0  0  0  0  0  0  0  0  0
   -4.5371   -5.1679   -1.3886 H   0  0  0  0  0  0  0  0  0  0  0  0
   -2.3811   -3.1660    2.5372 H   0  0  0  0  0  0  0  0  0  0  0  0
   -1.1517   -1.2698    1.5208 H   0  0  0  0  0  0  0  0  0  0  0  0
   -3.7700   -2.0430   -3.1553 H   0  0  0  0  0  0  0  0  0  0  0  0
   -0.4713    4.0457    1.5757 H   0  0  0  0  0  0  0  0  0  0  0  0
   -4.6596    2.7410    1.7677 H   0  0  0  0  0  0  0  0  0  0  0  0
   -5.8781    4.6849    2.6289 H   0  0  0  0  0  0  0  0  0  0  0  0
   -4.9678    6.9736    2.3394 H   0  0  0  0  0  0  0  0  0  0  0  0
   -2.8274    7.3114    1.1330 H   0  0  0  0  0  0  0  0  0  0  0  0
   -1.6079    5.3961    0.2046 H   0  0  0  0  0  0  0  0  0  0  0  0
   -4.3118    0.5254   -0.5701 H   0  0  0  0  0  0  0  0  0  0  0  0
    1.0408    1.3912   -1.6605 H   0  0  0  0  0  0  0  0  0  0  0  0
    1.1447   -0.0195    1.0730 H   0  0  0  0  0  0  0  0  0  0  0  0
    2.1036    1.3695    0.5688 H   0  0  0  0  0  0  0  0  0  0  0  0
    5.9213   -1.2252    2.1506 H   0  0  0  0  0  0  0  0  0  0  0  0
    7.2813   -2.2345    1.6571 H   0  0  0  0  0  0  0  0  0  0  0  0
    5.6172   -2.8584    1.5804 H   0  0  0  0  0  0  0  0  0  0  0  0
    6.5704    0.6223    0.4586 H   0  0  0  0  0  0  0  0  0  0  0  0
    6.6983    0.2318   -1.2493 H   0  0  0  0  0  0  0  0  0  0  0  0
    7.9579   -0.3047   -0.1134 H   0  0  0  0  0  0  0  0  0  0  0  0
    6.5656   -2.2238   -2.0144 H   0  0  0  0  0  0  0  0  0  0  0  0
    7.7367   -2.7296   -0.7765 H   0  0  0  0  0  0  0  0  0  0  0  0
    6.1263   -3.4769   -0.8667 H   0  0  0  0  0  0  0  0  0  0  0  0
    2.7368   -2.3446   -1.2749 H   0  0  0  0  0  0  0  0  0  0  0  0
    2.5301   -0.9326   -2.3219 H   0  0  0  0  0  0  0  0  0  0  0  0
    0.4577   -2.1454   -0.4380 H   0  0  0  0  0  0  0  0  0  0  0  0
    0.4359   -2.3116   -2.1974 H   0  0  0  0  0  0  0  0  0  0  0  0
  1  2  1  0
  2  3  2  0
  3  4  1  0
  3  5  1  0
  5  6  2  0
  6  7  1  0
  7  8  2  0
  8  9  1  0
  9 10  1  0
 10 11  2  0
 10 12  1  0
 12 13  1  0
 13 14  1  0
 14 15  2  0
 15 16  1  0
 15 17  1  0
 17 18  1  0
 18 19  2  0
 19 20  1  0
 20 21  2  0
 21 22  1  0
 22 23  2  0
 17 24  1  0
 24 25  1  0
 14 26  1  0
 26 27  1  0
 27 28  1  0
 28 29  1  0
 29 30  2  0
 29 31  1  0
 31 32  1  0
 32 33  1  0
 32 34  1  0
 32 35  1  0
 28 36  1  0
 36 37  1  0
 37 38  1  0
  8  2  1  0
 12 38  1  6
 12  7  1  0
 24 13  2  0
 38 26  1  0
 23 18  1  0
  1 39  1  0
  1 40  1  0
  1 41  1  0
  5 42  1  0
  6 43  1  0
  9 44  1  0
 16 45  1  0
 19 46  1  0
 20 47  1  0
 21 48  1  0
 22 49  1  0
 23 50  1  0
 25 51  1  0
 26 52  1  6
 27 53  1  0
 27 54  1  0
 33 55  1  0
 33 56  1  0
 33 57  1  0
 34 58  1  0
 34 59  1  0
 34 60  1  0
 35 61  1  0
 35 62  1  0
 35 63  1  0
 36 64  1  0
 36 65  1  0
 37 66  1  0
 37 67  1  0
M  END
$$$$
