
     RDKit          3D

 52 56  0  0  0  0  0  0  0  0999 V2000
    2.5980    0.7314   -1.3968 O   0  0  0  0  0  0  0  0  0  0  0  0
    1.9172    1.1836   -0.4816 C   0  0  0  0  0  0  0  0  0  0  0  0
    0.4182    1.3719   -0.6442 C   0  0  0  0  0  0  0  0  0  0  0  0
   -0.4519   -0.0353    0.1170 S   0  0  0  0  0  0  0  0  0  0  0  0
   -2.0930    0.4322   -0.1889 C   0  0  0  0  0  0  0  0  0  0  0  0
   -2.4788    1.6799   -0.3197 N   0  0  0  0  0  0  0  0  0  0  0  0
   -3.8397    1.6875   -0.4321 N   0  0  0  0  0  0  0  0  0  0  0  0
   -4.2678    0.4434   -0.3868 C   0  0  0  0  0  0  0  0  0  0  0  0
   -5.6708    0.0295   -0.6892 C   0  0  0  0  0  0  0  0  0  0  0  0
   -5.8816   -0.1889   -2.1601 C   0  0  0  0  0  0  0  0  0  0  0  0
   -6.0917    0.7684   -3.1368 C   0  0  0  0  0  0  0  0  0  0  0  0
   -6.2832    0.1983   -4.4229 C   0  0  0  0  0  0  0  0  0  0  0  0
   -6.1915   -1.1723   -4.3959 C   0  0  0  0  0  0  0  0  0  0  0  0
   -5.8865   -1.7738   -2.8171 S   0  0  0  0  0  0  0  0  0  0  0  0
   -3.1903   -0.4076   -0.1684 N   0  0  0  0  0  0  0  0  0  0  0  0
   -3.2284   -1.8102    0.0415 C   0  0  0  0  0  0  0  0  0  0  0  0
   -4.1445   -2.3511    0.9566 C   0  0  0  0  0  0  0  0  0  0  0  0
   -4.1889   -3.7327    1.1656 C   0  0  0  0  0  0  0  0  0  0  0  0
   -3.3179   -4.5727    0.4709 C   0  0  0  0  0  0  0  0  0  0  0  0
   -2.3998   -4.0362   -0.4324 C   0  0  0  0  0  0  0  0  0  0  0  0
   -2.3480   -2.6539   -0.6472 C   0  0  0  0  0  0  0  0  0  0  0  0
    2.3744    1.5701    0.7694 N   0  0  0  0  0  0  0  0  0  0  0  0
    3.7081    1.5822    1.2301 C   0  0  0  0  0  0  0  0  0  0  0  0
    3.9141    1.9223    2.5751 C   0  0  0  0  0  0  0  0  0  0  0  0
    5.2029    1.9562    3.1149 C   0  0  0  0  0  0  0  0  0  0  0  0
    6.2975    1.6611    2.3102 C   0  0  0  0  0  0  0  0  0  0  0  0
    6.1024    1.3122    0.9735 C   0  0  0  0  0  0  0  0  0  0  0  0
    4.8146    1.2804    0.4322 C   0  0  0  0  0  0  0  0  0  0  0  0
    7.1315    0.9849    0.1267 O   0  0  0  0  0  0  0  0  0  0  0  0
    8.3284    0.6889    0.8511 C   0  0  0  0  0  0  0  0  0  0  0  0
    8.5803    1.7326    1.9230 C   0  0  0  0  0  0  0  0  0  0  0  0
    7.5331    1.7284    2.9011 O   0  0  0  0  0  0  0  0  0  0  0  0
    0.1914    1.4074   -1.7126 H   0  0  0  0  0  0  0  0  0  0  0  0
    0.1167    2.3211   -0.1915 H   0  0  0  0  0  0  0  0  0  0  0  0
   -5.9907   -0.8506   -0.1199 H   0  0  0  0  0  0  0  0  0  0  0  0
   -6.3423    0.8400   -0.3602 H   0  0  0  0  0  0  0  0  0  0  0  0
   -6.1115    1.8304   -2.9292 H   0  0  0  0  0  0  0  0  0  0  0  0
   -6.4802    0.7736   -5.3232 H   0  0  0  0  0  0  0  0  0  0  0  0
   -6.2917   -1.8567   -5.2266 H   0  0  0  0  0  0  0  0  0  0  0  0
   -4.8013   -1.7159    1.5472 H   0  0  0  0  0  0  0  0  0  0  0  0
   -4.8951   -4.1550    1.8757 H   0  0  0  0  0  0  0  0  0  0  0  0
   -3.3530   -5.6483    0.6369 H   0  0  0  0  0  0  0  0  0  0  0  0
   -1.7232   -4.6974   -0.9748 H   0  0  0  0  0  0  0  0  0  0  0  0
   -1.6438   -2.2727   -1.3846 H   0  0  0  0  0  0  0  0  0  0  0  0
    1.6642    1.8103    1.4506 H   0  0  0  0  0  0  0  0  0  0  0  0
    3.0752    2.1595    3.2236 H   0  0  0  0  0  0  0  0  0  0  0  0
    5.3508    2.2165    4.1584 H   0  0  0  0  0  0  0  0  0  0  0  0
    4.7138    1.0041   -0.6128 H   0  0  0  0  0  0  0  0  0  0  0  0
    9.1554    0.6798    0.1343 H   0  0  0  0  0  0  0  0  0  0  0  0
    8.2323   -0.3171    1.2762 H   0  0  0  0  0  0  0  0  0  0  0  0
    9.5175    1.5205    2.4437 H   0  0  0  0  0  0  0  0  0  0  0  0
    8.6494    2.7397    1.4939 H   0  0  0  0  0  0  0  0  0  0  0  0
  1  2  2  0
  2  3  1  0
  3  4  1  0
  4  5  1  0
  5  6  2  0
  6  7  1  0
  7  8  2  0
  8  9  1  0
  9 10  1  0
 10 11  2  0
 11 12  1  0
 12 13  2  0
 13 14  1  0
  8 15  1  0
 15 16  1  0
 16 17  2  0
 17 18  1  0
 18 19  2  0
 19 20  1  0
 20 21  2  0
  2 22  1  0
 22 23  1  0
 23 24  2  0
 24 25  1  0
 25 26  2  0
 26 27  1  0
 27 28  2  0
 27 29  1  0
 29 30  1  0
 30 31  1  0
 31 32  1  0
 15  5  1  0
 21 16  1  0
 28 23  1  0
 14 10  1  0
 32 26  1  0
  3 33  1  0
  3 34  1  0
  9 35  1  0
  9 36  1  0
 11 37  1  0
 12 38  1  0
 13 39  1  0
 17 40  1  0
 18 41  1  0
 19 42  1  0
 20 43  1  0
 21 44  1  0
 22 45  1  0
 24 46  1  0
 25 47  1  0
 28 48  1  0
 30 49  1  0
 30 50  1  0
 31 51  1  0
 31 52  1  0
M  END
$$$$
