
     RDKit          3D

 33 35  0  0  0  0  0  0  0  0999 V2000
    4.9146   -1.6023   -1.3679 C   0  0  0  0  0  0  0  0  0  0  0  0
    4.3097   -0.2433   -1.0754 C   0  0  0  0  0  0  0  0  0  0  0  0
    2.9129   -0.3521   -0.7174 N   0  0  0  0  0  0  0  0  0  0  0  0
    2.2418    0.6652   -0.0907 C   0  0  0  0  0  0  0  0  0  0  0  0
    2.8085    1.6781    0.3229 O   0  0  0  0  0  0  0  0  0  0  0  0
    0.7621    0.4933    0.0749 C   0  0  0  0  0  0  0  0  0  0  0  0
    0.0824    1.4405    0.7741 C   0  0  0  0  0  0  0  0  0  0  0  0
    0.6478    2.5663    1.3480 O   0  0  0  0  0  0  0  0  0  0  0  0
   -1.3674    1.3275    0.9816 C   0  0  0  0  0  0  0  0  0  0  0  0
   -2.1896    2.2158    1.6743 C   0  0  0  0  0  0  0  0  0  0  0  0
   -3.5757    1.9661    1.7874 C   0  0  0  0  0  0  0  0  0  0  0  0
   -4.1622    0.8273    1.2116 C   0  0  0  0  0  0  0  0  0  0  0  0
   -3.3443   -0.0485    0.5267 C   0  0  0  0  0  0  0  0  0  0  0  0
   -1.9897    0.2265    0.4360 C   0  0  0  0  0  0  0  0  0  0  0  0
   -1.3192   -0.7452   -0.2811 N   0  0  0  0  0  0  0  0  0  0  0  0
    0.0278   -0.6915   -0.5156 C   0  0  0  0  0  0  0  0  0  0  0  0
    0.6170   -1.5499   -1.1723 O   0  0  0  0  0  0  0  0  0  0  0  0
   -2.2736   -1.7600   -0.7279 C   0  0  0  0  0  0  0  0  0  0  0  0
   -3.6597   -1.3284   -0.1849 C   0  0  0  0  0  0  0  0  0  0  0  0
    5.9694   -1.5012   -1.6407 H   0  0  0  0  0  0  0  0  0  0  0  0
    4.8460   -2.2571   -0.4929 H   0  0  0  0  0  0  0  0  0  0  0  0
    4.3917   -2.0948   -2.1946 H   0  0  0  0  0  0  0  0  0  0  0  0
    4.3743    0.4010   -1.9586 H   0  0  0  0  0  0  0  0  0  0  0  0
    4.8531    0.2476   -0.2609 H   0  0  0  0  0  0  0  0  0  0  0  0
    2.3570   -1.0936   -1.1475 H   0  0  0  0  0  0  0  0  0  0  0  0
    1.6102    2.5691    1.1393 H   0  0  0  0  0  0  0  0  0  0  0  0
   -1.7673    3.1076    2.1323 H   0  0  0  0  0  0  0  0  0  0  0  0
   -4.1984    2.6729    2.3329 H   0  0  0  0  0  0  0  0  0  0  0  0
   -5.2284    0.6484    1.3068 H   0  0  0  0  0  0  0  0  0  0  0  0
   -1.9663   -2.7371   -0.3396 H   0  0  0  0  0  0  0  0  0  0  0  0
   -2.2590   -1.8053   -1.8224 H   0  0  0  0  0  0  0  0  0  0  0  0
   -4.0584   -2.0774    0.5062 H   0  0  0  0  0  0  0  0  0  0  0  0
   -4.3670   -1.1657   -1.0036 H   0  0  0  0  0  0  0  0  0  0  0  0
  1  2  1  0
  2  3  1  0
  3  4  1  0
  4  5  2  0
  4  6  1  0
  6  7  2  0
  7  8  1  0
  7  9  1  0
  9 10  2  0
 10 11  1  0
 11 12  2  0
 12 13  1  0
 13 14  2  0
 14 15  1  0
 15 16  1  0
 16 17  2  0
 15 18  1  0
 18 19  1  0
 16  6  1  0
 14  9  1  0
 19 13  1  0
  1 20  1  0
  1 21  1  0
  1 22  1  0
  2 23  1  0
  2 24  1  0
  3 25  1  0
  8 26  1  0
 10 27  1  0
 11 28  1  0
 12 29  1  0
 18 30  1  0
 18 31  1  0
 19 32  1  0
 19 33  1  0
M  END
$$$$
