
     RDKit          3D

 57 60  0  0  0  0  0  0  0  0999 V2000
    5.6596    0.9383   -2.5827 C   0  0  0  0  0  0  0  0  0  0  0  0
    4.5327    0.5449   -1.6859 C   0  0  0  0  0  0  0  0  0  0  0  0
    3.2357    0.2577   -2.0588 C   0  0  0  0  0  0  0  0  0  0  0  0
    2.5348   -0.1531   -0.9094 C   0  0  0  0  0  0  0  0  0  0  0  0
    1.1600   -0.5301   -0.9032 C   0  0  0  0  0  0  0  0  0  0  0  0
    0.2310    0.0041   -0.0928 C   0  0  0  0  0  0  0  0  0  0  0  0
   -1.1856   -0.3624   -0.1617 C   0  0  0  0  0  0  0  0  0  0  0  0
   -1.5528   -1.6694    0.1624 C   0  0  0  0  0  0  0  0  0  0  0  0
   -2.8862   -2.0373    0.1523 C   0  0  0  0  0  0  0  0  0  0  0  0
   -3.8574   -1.0931   -0.1657 C   0  0  0  0  0  0  0  0  0  0  0  0
   -5.2210   -1.4525   -0.1663 C   0  0  0  0  0  0  0  0  0  0  0  0
   -6.2517   -0.5460   -0.4646 C   0  0  0  0  0  0  0  0  0  0  0  0
   -7.5898   -0.9266   -0.4846 N   0  0  0  0  0  0  0  0  0  0  0  0
   -8.0047   -2.1879    0.1346 C   0  0  0  0  0  0  0  0  0  0  0  0
   -8.6456    0.0758   -0.6391 C   0  0  0  0  0  0  0  0  0  0  0  0
   -5.8408    0.7557   -0.7787 C   0  0  0  0  0  0  0  0  0  0  0  0
   -4.4896    1.1398   -0.7869 C   0  0  0  0  0  0  0  0  0  0  0  0
   -3.4684    0.2273   -0.4871 C   0  0  0  0  0  0  0  0  0  0  0  0
   -2.1351    0.5601   -0.4937 N   0  0  0  0  0  4  0  0  0  0  0  0
   -1.7352    1.9307   -0.8974 C   0  0  0  0  0  0  0  0  0  0  0  0
    3.4158   -0.1391    0.1606 C   0  0  0  0  0  0  0  0  0  0  0  0
    3.1778   -0.4746    1.5987 C   0  0  0  0  0  0  0  0  0  0  0  0
    4.6565    0.3054   -0.3192 N   0  0  0  0  0  0  0  0  0  0  0  0
    5.8443    0.4831    0.4489 C   0  0  0  0  0  0  0  0  0  0  0  0
    6.2756   -0.5190    1.3261 C   0  0  0  0  0  0  0  0  0  0  0  0
    7.4411   -0.3372    2.0735 C   0  0  0  0  0  0  0  0  0  0  0  0
    8.1767    0.8404    1.9486 C   0  0  0  0  0  0  0  0  0  0  0  0
    7.7518    1.8386    1.0738 C   0  0  0  0  0  0  0  0  0  0  0  0
    6.5887    1.6626    0.3216 C   0  0  0  0  0  0  0  0  0  0  0  0
    5.8175    2.0203   -2.5549 H   0  0  0  0  0  0  0  0  0  0  0  0
    5.4329    0.6673   -3.6201 H   0  0  0  0  0  0  0  0  0  0  0  0
    6.5898    0.4279   -2.3153 H   0  0  0  0  0  0  0  0  0  0  0  0
    2.8535    0.3317   -3.0697 H   0  0  0  0  0  0  0  0  0  0  0  0
    0.8684   -1.2509   -1.6675 H   0  0  0  0  0  0  0  0  0  0  0  0
    0.5007    0.7636    0.6372 H   0  0  0  0  0  0  0  0  0  0  0  0
   -0.7991   -2.4074    0.4352 H   0  0  0  0  0  0  0  0  0  0  0  0
   -3.1586   -3.0616    0.4065 H   0  0  0  0  0  0  0  0  0  0  0  0
   -5.4723   -2.4849    0.0698 H   0  0  0  0  0  0  0  0  0  0  0  0
   -7.5612   -3.0431   -0.3858 H   0  0  0  0  0  0  0  0  0  0  0  0
   -7.7240   -2.2151    1.1928 H   0  0  0  0  0  0  0  0  0  0  0  0
   -9.0897   -2.3288    0.0805 H   0  0  0  0  0  0  0  0  0  0  0  0
   -9.6361   -0.3895   -0.6962 H   0  0  0  0  0  0  0  0  0  0  0  0
   -8.6522    0.7683    0.2097 H   0  0  0  0  0  0  0  0  0  0  0  0
   -8.5236    0.6381   -1.5713 H   0  0  0  0  0  0  0  0  0  0  0  0
   -6.5722    1.5217   -1.0306 H   0  0  0  0  0  0  0  0  0  0  0  0
   -4.2893    2.1778   -1.0363 H   0  0  0  0  0  0  0  0  0  0  0  0
   -2.1881    2.1466   -1.8690 H   0  0  0  0  0  0  0  0  0  0  0  0
   -2.0866    2.6202   -0.1250 H   0  0  0  0  0  0  0  0  0  0  0  0
   -0.6570    2.0355   -1.0113 H   0  0  0  0  0  0  0  0  0  0  0  0
    2.1180   -0.4249    1.8610 H   0  0  0  0  0  0  0  0  0  0  0  0
    3.6925    0.2233    2.2666 H   0  0  0  0  0  0  0  0  0  0  0  0
    3.5118   -1.4937    1.8140 H   0  0  0  0  0  0  0  0  0  0  0  0
    5.7495   -1.4654    1.4082 H   0  0  0  0  0  0  0  0  0  0  0  0
    7.7841   -1.1198    2.7457 H   0  0  0  0  0  0  0  0  0  0  0  0
    9.0849    0.9786    2.5304 H   0  0  0  0  0  0  0  0  0  0  0  0
    8.3260    2.7574    0.9812 H   0  0  0  0  0  0  0  0  0  0  0  0
    6.2621    2.4706   -0.3266 H   0  0  0  0  0  0  0  0  0  0  0  0
  1  2  1  0
  2  3  2  0
  3  4  1  0
  4  5  1  0
  5  6  2  3
  6  7  1  0
  7  8  2  0
  8  9  1  0
  9 10  2  0
 10 11  1  0
 11 12  2  0
 12 13  1  0
 13 14  1  0
 13 15  1  0
 12 16  1  0
 16 17  2  0
 17 18  1  0
 18 19  2  0
 19 20  1  0
  4 21  2  0
 21 22  1  0
 21 23  1  0
 23 24  1  0
 24 25  2  0
 25 26  1  0
 26 27  2  0
 27 28  1  0
 28 29  2  0
 23  2  1  0
 29 24  1  0
 19  7  1  0
 18 10  1  0
  1 30  1  0
  1 31  1  0
  1 32  1  0
  3 33  1  0
  5 34  1  0
  6 35  1  0
  8 36  1  0
  9 37  1  0
 11 38  1  0
 14 39  1  0
 14 40  1  0
 14 41  1  0
 15 42  1  0
 15 43  1  0
 15 44  1  0
 16 45  1  0
 17 46  1  0
 20 47  1  0
 20 48  1  0
 20 49  1  0
 22 50  1  0
 22 51  1  0
 22 52  1  0
 25 53  1  0
 26 54  1  0
 27 55  1  0
 28 56  1  0
 29 57  1  0
M  CHG  1  19   1
M  END
$$$$
