
     RDKit          3D

 42 44  0  0  0  0  0  0  0  0999 V2000
   -8.2931   -1.5106    0.6432 C   0  0  0  0  0  0  0  0  0  0  0  0
   -7.6411   -0.3028    0.0225 C   0  0  0  0  0  0  0  0  0  0  0  0
   -8.3162    0.6067   -0.4549 O   0  0  0  0  0  0  0  0  0  0  0  0
   -6.1500   -0.2228   -0.0094 C   0  0  0  0  0  0  0  0  0  0  0  0
   -5.5515    0.9234   -0.5440 C   0  0  0  0  0  0  0  0  0  0  0  0
   -4.1569    1.0443   -0.5952 C   0  0  0  0  0  0  0  0  0  0  0  0
   -3.3396    0.0224   -0.1126 C   0  0  0  0  0  0  0  0  0  0  0  0
   -1.9300    0.0621   -0.1339 N   0  0  0  0  0  0  0  0  0  0  0  0
   -1.1282    1.1204   -0.5240 C   0  0  0  0  0  0  0  0  0  0  0  0
   -1.4956    2.2402   -0.8554 O   0  0  0  0  0  0  0  0  0  0  0  0
    0.3342    0.8398   -0.4842 C   0  0  0  0  0  0  0  0  0  0  0  0
    0.8564   -0.3970   -0.8758 C   0  0  0  0  0  0  0  0  0  0  0  0
    2.2376   -0.6169   -0.8272 C   0  0  0  0  0  0  0  0  0  0  0  0
    3.1113    0.3906   -0.3946 C   0  0  0  0  0  0  0  0  0  0  0  0
    4.4831    0.0817   -0.3756 N   0  0  0  0  0  0  0  0  0  0  0  0
    5.5413    0.8826    0.0183 C   0  0  0  0  0  0  0  0  0  0  0  0
    5.4482    2.0300    0.4407 O   0  0  0  0  0  0  0  0  0  0  0  0
    6.8235    0.2123   -0.1142 C   0  0  0  0  0  0  0  0  0  0  0  0
    8.1083    0.6430    0.1581 C   0  0  0  0  0  0  0  0  0  0  0  0
    8.9751   -0.4296   -0.1597 C   0  0  0  0  0  0  0  0  0  0  0  0
    8.1717   -1.4514   -0.6066 C   0  0  0  0  0  0  0  0  0  0  0  0
    6.8660   -1.0776   -0.5841 O   0  0  0  0  0  0  0  0  0  0  0  0
    2.5829    1.6279   -0.0216 C   0  0  0  0  0  0  0  0  0  0  0  0
    1.2022    1.8549   -0.0726 C   0  0  0  0  0  0  0  0  0  0  0  0
   -3.9402   -1.1270    0.4171 C   0  0  0  0  0  0  0  0  0  0  0  0
   -5.3347   -1.2514    0.4714 C   0  0  0  0  0  0  0  0  0  0  0  0
   -7.9883   -1.6123    1.6879 H   0  0  0  0  0  0  0  0  0  0  0  0
   -8.0437   -2.4094    0.0735 H   0  0  0  0  0  0  0  0  0  0  0  0
   -9.3800   -1.3835    0.6205 H   0  0  0  0  0  0  0  0  0  0  0  0
   -6.1655    1.7372   -0.9275 H   0  0  0  0  0  0  0  0  0  0  0  0
   -3.7444    1.9526   -1.0247 H   0  0  0  0  0  0  0  0  0  0  0  0
   -1.4605   -0.7484    0.2475 H   0  0  0  0  0  0  0  0  0  0  0  0
    0.2097   -1.1856   -1.2507 H   0  0  0  0  0  0  0  0  0  0  0  0
    2.6219   -1.5843   -1.1424 H   0  0  0  0  0  0  0  0  0  0  0  0
    4.7560   -0.8443   -0.6879 H   0  0  0  0  0  0  0  0  0  0  0  0
    8.3731    1.6201    0.5403 H   0  0  0  0  0  0  0  0  0  0  0  0
   10.0526   -0.4544   -0.0742 H   0  0  0  0  0  0  0  0  0  0  0  0
    8.3662   -2.4552   -0.9591 H   0  0  0  0  0  0  0  0  0  0  0  0
    3.2157    2.4467    0.3077 H   0  0  0  0  0  0  0  0  0  0  0  0
    0.8088    2.8294    0.2119 H   0  0  0  0  0  0  0  0  0  0  0  0
   -3.3327   -1.9436    0.7997 H   0  0  0  0  0  0  0  0  0  0  0  0
   -5.7535   -2.1606    0.8921 H   0  0  0  0  0  0  0  0  0  0  0  0
  1  2  1  0
  2  3  2  0
  2  4  1  0
  4  5  2  0
  5  6  1  0
  6  7  2  0
  7  8  1  0
  8  9  1  0
  9 10  2  0
  9 11  1  0
 11 12  2  0
 12 13  1  0
 13 14  2  0
 14 15  1  0
 15 16  1  0
 16 17  2  0
 16 18  1  0
 18 19  2  0
 19 20  1  0
 20 21  2  0
 21 22  1  0
 14 23  1  0
 23 24  2  0
  7 25  1  0
 25 26  2  0
 26  4  1  0
 24 11  1  0
 22 18  1  0
  1 27  1  0
  1 28  1  0
  1 29  1  0
  5 30  1  0
  6 31  1  0
  8 32  1  0
 12 33  1  0
 13 34  1  0
 15 35  1  0
 19 36  1  0
 20 37  1  0
 21 38  1  0
 23 39  1  0
 24 40  1  0
 25 41  1  0
 26 42  1  0
M  END
$$$$
