
     RDKit          3D

 68 71  0  0  0  0  0  0  0  0999 V2000
    9.1649   -0.6114    4.8062 C   0  0  0  0  0  0  0  0  0  0  0  0
    8.2236   -0.0124    3.8453 C   0  0  0  0  0  0  0  0  0  0  0  0
    6.9194   -0.2636    3.5006 C   0  0  0  0  0  0  0  0  0  0  0  0
    6.6298    0.6832    2.4936 C   0  0  0  0  0  0  0  0  0  0  0  0
    5.4631    0.8905    1.7930 N   0  0  0  0  0  0  0  0  0  0  0  0
    4.3039    0.1620    1.9404 C   0  0  0  0  0  0  0  0  0  0  0  0
    4.1461   -0.7900    2.6971 O   0  0  0  0  0  0  0  0  0  0  0  0
    3.1996    0.6888    1.0454 C   0  0  0  0  0  0  0  0  0  0  0  0
    1.9222   -0.1396    1.1563 C   0  0  0  0  0  0  0  0  0  0  0  0
    0.7950    0.4781    0.3444 C   0  0  0  0  0  0  0  0  0  0  0  0
    1.0064    1.4829   -0.3420 O   0  0  0  0  0  0  0  0  0  0  0  0
   -0.4590   -0.1220    0.3877 N   0  0  0  0  0  0  0  0  0  0  0  0
   -0.7316   -1.3707    1.1027 C   0  0  0  0  0  0  0  0  0  0  0  0
   -1.3306   -1.0964    2.4386 C   0  0  0  0  0  0  0  0  0  0  0  0
   -2.5254   -1.4539    3.0299 C   0  0  0  0  0  0  0  0  0  0  0  0
   -2.5229   -0.8812    4.3242 C   0  0  0  0  0  0  0  0  0  0  0  0
   -1.3239   -0.2201    4.4471 C   0  0  0  0  0  0  0  0  0  0  0  0
   -0.5915   -0.3523    3.3134 O   0  0  0  0  0  0  0  0  0  0  0  0
   -1.4836    0.4219   -0.5322 C   0  0  0  0  0  0  0  0  0  0  0  0
   -1.3193   -0.1851   -1.9499 C   0  0  0  0  0  0  0  0  0  0  0  0
   -0.7991   -1.2811   -2.1605 O   0  0  0  0  0  0  0  0  0  0  0  0
   -1.7978    0.6216   -2.9713 N   0  0  0  0  0  0  0  0  0  0  0  0
   -1.6698    0.2571   -4.3640 C   0  0  0  0  0  0  0  0  0  0  0  0
   -1.7679    1.4632   -5.2910 C   0  0  0  0  0  0  0  0  0  0  0  0
   -2.0441    0.8473   -6.6559 C   0  0  0  0  0  0  0  0  0  0  0  0
   -2.7821   -0.4634   -6.3805 C   0  0  0  0  0  0  0  0  0  0  0  0
   -2.8030   -0.6322   -4.8631 C   0  0  0  0  0  0  0  0  0  0  0  0
   -2.9076    0.4647    0.0337 C   0  0  0  0  0  0  0  0  0  0  0  0
   -3.1598    1.5172    0.9482 C   0  0  0  0  0  0  0  0  0  0  0  0
   -4.4079    1.6992    1.5411 C   0  0  0  0  0  0  0  0  0  0  0  0
   -5.4434    0.8312    1.2347 C   0  0  0  0  0  0  0  0  0  0  0  0
   -5.2217   -0.2211    0.3485 C   0  0  0  0  0  0  0  0  0  0  0  0
   -3.9611   -0.4346   -0.2488 C   0  0  0  0  0  0  0  0  0  0  0  0
   -3.8526   -1.6092   -1.1826 C   0  0  0  0  0  0  0  0  0  0  0  0
    7.6880    1.4647    2.2530 N   0  0  0  0  0  0  0  0  0  0  0  0
    8.6909    1.0194    3.0944 O   0  0  0  0  0  0  0  0  0  0  0  0
    9.7367   -1.4133    4.3285 H   0  0  0  0  0  0  0  0  0  0  0  0
    9.8723    0.1364    5.1816 H   0  0  0  0  0  0  0  0  0  0  0  0
    8.6304   -1.0330    5.6638 H   0  0  0  0  0  0  0  0  0  0  0  0
    6.2739   -1.0212    3.9191 H   0  0  0  0  0  0  0  0  0  0  0  0
    5.5114    1.6513    1.1281 H   0  0  0  0  0  0  0  0  0  0  0  0
    3.5579    0.6860    0.0080 H   0  0  0  0  0  0  0  0  0  0  0  0
    3.0011    1.7293    1.3331 H   0  0  0  0  0  0  0  0  0  0  0  0
    1.6215   -0.2044    2.2045 H   0  0  0  0  0  0  0  0  0  0  0  0
    2.1209   -1.1486    0.7810 H   0  0  0  0  0  0  0  0  0  0  0  0
    0.1872   -1.9451    1.2452 H   0  0  0  0  0  0  0  0  0  0  0  0
   -1.3879   -2.0015    0.5004 H   0  0  0  0  0  0  0  0  0  0  0  0
   -3.3114   -2.0382    2.5728 H   0  0  0  0  0  0  0  0  0  0  0  0
   -3.2994   -0.9348    5.0732 H   0  0  0  0  0  0  0  0  0  0  0  0
   -0.8660    0.3664    5.2299 H   0  0  0  0  0  0  0  0  0  0  0  0
   -1.2295    1.4804   -0.6952 H   0  0  0  0  0  0  0  0  0  0  0  0
   -2.3595    1.4277   -2.7264 H   0  0  0  0  0  0  0  0  0  0  0  0
   -0.7092   -0.2519   -4.5123 H   0  0  0  0  0  0  0  0  0  0  0  0
   -2.6019    2.1148   -5.0004 H   0  0  0  0  0  0  0  0  0  0  0  0
   -0.8574    2.0698   -5.2856 H   0  0  0  0  0  0  0  0  0  0  0  0
   -2.6268    1.5206   -7.2933 H   0  0  0  0  0  0  0  0  0  0  0  0
   -1.0998    0.6386   -7.1722 H   0  0  0  0  0  0  0  0  0  0  0  0
   -2.2528   -1.2975   -6.8556 H   0  0  0  0  0  0  0  0  0  0  0  0
   -3.7987   -0.4453   -6.7869 H   0  0  0  0  0  0  0  0  0  0  0  0
   -3.7681   -0.2893   -4.4693 H   0  0  0  0  0  0  0  0  0  0  0  0
   -2.6786   -1.6776   -4.5628 H   0  0  0  0  0  0  0  0  0  0  0  0
   -2.3577    2.2052    1.2177 H   0  0  0  0  0  0  0  0  0  0  0  0
   -4.5633    2.5147    2.2419 H   0  0  0  0  0  0  0  0  0  0  0  0
   -6.4219    0.9662    1.6876 H   0  0  0  0  0  0  0  0  0  0  0  0
   -6.0517   -0.8910    0.1278 H   0  0  0  0  0  0  0  0  0  0  0  0
   -2.9394   -2.1813   -1.0112 H   0  0  0  0  0  0  0  0  0  0  0  0
   -4.6788   -2.3138   -1.0307 H   0  0  0  0  0  0  0  0  0  0  0  0
   -3.9005   -1.2722   -2.2203 H   0  0  0  0  0  0  0  0  0  0  0  0
  1  2  1  0
  2  3  2  0
  3  4  1  0
  4  5  1  0
  5  6  1  0
  6  7  2  0
  6  8  1  0
  8  9  1  0
  9 10  1  0
 10 11  2  0
 10 12  1  0
 12 13  1  0
 13 14  1  0
 14 15  2  0
 15 16  1  0
 16 17  2  0
 17 18  1  0
 12 19  1  0
 19 20  1  0
 20 21  2  0
 20 22  1  0
 22 23  1  0
 23 24  1  0
 24 25  1  0
 25 26  1  0
 26 27  1  0
 19 28  1  0
 28 29  2  0
 29 30  1  0
 30 31  2  0
 31 32  1  0
 32 33  2  0
 33 34  1  0
  4 35  2  0
 35 36  1  0
 36  2  1  0
 18 14  1  0
 27 23  1  0
 33 28  1  0
  1 37  1  0
  1 38  1  0
  1 39  1  0
  3 40  1  0
  5 41  1  0
  8 42  1  0
  8 43  1  0
  9 44  1  0
  9 45  1  0
 13 46  1  0
 13 47  1  0
 15 48  1  0
 16 49  1  0
 17 50  1  0
 19 51  1  0
 22 52  1  0
 23 53  1  0
 24 54  1  0
 24 55  1  0
 25 56  1  0
 25 57  1  0
 26 58  1  0
 26 59  1  0
 27 60  1  0
 27 61  1  0
 29 62  1  0
 30 63  1  0
 31 64  1  0
 32 65  1  0
 34 66  1  0
 34 67  1  0
 34 68  1  0
M  END
$$$$
