
     RDKit          3D

 59 63  0  0  0  0  0  0  0  0999 V2000
   -5.5860   -3.3907    1.1653 C   0  0  0  0  0  0  0  0  0  0  0  0
   -4.9320   -2.6390    0.0129 C   0  0  0  0  0  0  0  0  0  0  0  0
   -3.5665   -2.0405    0.3797 C   0  0  0  0  0  0  0  0  0  0  0  0
   -3.7342   -0.9842    1.3762 N   0  0  0  0  0  0  0  0  0  0  0  0
   -2.5099   -0.3925    1.7134 C   0  0  0  0  0  0  0  0  0  0  0  0
   -2.4090    0.0129    2.9854 N   0  0  0  0  0  0  0  0  0  0  0  0
   -1.2695    0.6269    3.3045 C   0  0  0  0  0  0  0  0  0  0  0  0
   -0.2153    0.8028    2.4996 N   0  0  0  0  0  0  0  0  0  0  0  0
   -0.3103    0.3416    1.2340 C   0  0  0  0  0  0  0  0  0  0  0  0
    0.8766    0.3309    0.4714 N   0  0  0  0  0  0  0  0  0  0  0  0
    1.4069   -1.0542    0.2912 C   0  0  0  0  0  0  0  0  0  0  0  0
    2.9118   -1.1838    0.6243 C   0  0  0  0  0  0  0  0  0  0  0  0
    3.6961   -0.1443   -0.0654 N   0  0  0  0  0  0  0  0  0  0  0  0
    5.0822   -0.2806    0.0432 C   0  0  0  0  0  0  0  0  0  0  0  0
    5.9347    0.5568   -0.6803 C   0  0  0  0  0  0  0  0  0  0  0  0
    7.3180    0.4088   -0.5760 C   0  0  0  0  0  0  0  0  0  0  0  0
    7.8311   -0.5828    0.2437 C   0  0  0  0  0  0  0  0  0  0  0  0
    6.9319   -1.3897    0.9140 C   0  0  0  0  0  0  0  0  0  0  0  0
    5.5884   -1.2607    0.8250 N   0  0  0  0  0  0  0  0  0  0  0  0
    3.1566    1.2288    0.0345 C   0  0  0  0  0  0  0  0  0  0  0  0
    1.8962    1.3010    0.9270 C   0  0  0  0  0  0  0  0  0  0  0  0
   -1.5055   -0.2158    0.7525 C   0  0  0  0  0  0  0  0  0  0  0  0
   -1.7706   -0.6218   -0.6060 N   0  0  0  0  0  0  0  0  0  0  0  0
   -1.2003    0.1204   -1.7304 C   0  0  0  0  0  0  0  0  0  0  0  0
   -1.8562    1.4743   -1.9272 C   0  0  0  0  0  0  0  0  0  0  0  0
   -3.1099    1.5780   -2.5497 C   0  0  0  0  0  0  0  0  0  0  0  0
   -3.7221    2.8226   -2.7141 C   0  0  0  0  0  0  0  0  0  0  0  0
   -3.0839    3.9719   -2.2550 C   0  0  0  0  0  0  0  0  0  0  0  0
   -3.9112    5.6571   -2.4756 Br  0  0  0  0  0  0  0  0  0  0  0  0
   -1.8405    3.8886   -1.6334 C   0  0  0  0  0  0  0  0  0  0  0  0
   -1.2298    2.6433   -1.4705 C   0  0  0  0  0  0  0  0  0  0  0  0
   -2.8609   -1.4644   -0.8744 C   0  0  0  0  0  0  0  0  0  0  0  0
   -3.1927   -1.7853   -2.0174 O   0  0  0  0  0  0  0  0  0  0  0  0
   -5.8455   -2.7188    1.9893 H   0  0  0  0  0  0  0  0  0  0  0  0
   -6.5092   -3.8698    0.8247 H   0  0  0  0  0  0  0  0  0  0  0  0
   -4.9227   -4.1705    1.5518 H   0  0  0  0  0  0  0  0  0  0  0  0
   -5.6111   -1.8523   -0.3367 H   0  0  0  0  0  0  0  0  0  0  0  0
   -4.8127   -3.3409   -0.8209 H   0  0  0  0  0  0  0  0  0  0  0  0
   -2.9241   -2.8399    0.7746 H   0  0  0  0  0  0  0  0  0  0  0  0
   -4.2141   -1.2199    2.2393 H   0  0  0  0  0  0  0  0  0  0  0  0
   -1.1823    1.0058    4.3166 H   0  0  0  0  0  0  0  0  0  0  0  0
    1.2626   -1.3335   -0.7592 H   0  0  0  0  0  0  0  0  0  0  0  0
    0.8616   -1.7899    0.8974 H   0  0  0  0  0  0  0  0  0  0  0  0
    3.2361   -2.1844    0.3106 H   0  0  0  0  0  0  0  0  0  0  0  0
    3.0509   -1.1091    1.7112 H   0  0  0  0  0  0  0  0  0  0  0  0
    5.5308    1.3138   -1.3443 H   0  0  0  0  0  0  0  0  0  0  0  0
    7.9815    1.0577   -1.1392 H   0  0  0  0  0  0  0  0  0  0  0  0
    8.8993   -0.7314    0.3495 H   0  0  0  0  0  0  0  0  0  0  0  0
    7.2750   -2.1902    1.5631 H   0  0  0  0  0  0  0  0  0  0  0  0
    3.8923    1.9318    0.4449 H   0  0  0  0  0  0  0  0  0  0  0  0
    2.9023    1.5659   -0.9777 H   0  0  0  0  0  0  0  0  0  0  0  0
    2.1934    1.1066    1.9662 H   0  0  0  0  0  0  0  0  0  0  0  0
    1.4918    2.3193    0.8776 H   0  0  0  0  0  0  0  0  0  0  0  0
   -1.3353   -0.4570   -2.6543 H   0  0  0  0  0  0  0  0  0  0  0  0
   -0.1201    0.2317   -1.6488 H   0  0  0  0  0  0  0  0  0  0  0  0
   -3.6202    0.6860   -2.9093 H   0  0  0  0  0  0  0  0  0  0  0  0
   -4.6938    2.8806   -3.1972 H   0  0  0  0  0  0  0  0  0  0  0  0
   -1.3396    4.7820   -1.2719 H   0  0  0  0  0  0  0  0  0  0  0  0
   -0.2614    2.5899   -0.9793 H   0  0  0  0  0  0  0  0  0  0  0  0
  1  2  1  0
  2  3  1  0
  3  4  1  0
  4  5  1  0
  5  6  2  0
  6  7  1  0
  7  8  2  0
  8  9  1  0
  9 10  1  0
 10 11  1  0
 11 12  1  0
 12 13  1  0
 13 14  1  0
 14 15  2  0
 15 16  1  0
 16 17  2  0
 17 18  1  0
 18 19  2  0
 13 20  1  0
 20 21  1  0
  9 22  2  0
 22 23  1  0
 23 24  1  0
 24 25  1  0
 25 26  2  0
 26 27  1  0
 27 28  2  0
 28 29  1  0
 28 30  1  0
 30 31  2  0
 23 32  1  0
 32 33  2  0
 32  3  1  0
 22  5  1  0
 31 25  1  0
 21 10  1  0
 19 14  1  0
  1 34  1  0
  1 35  1  0
  1 36  1  0
  2 37  1  0
  2 38  1  0
  3 39  1  0
  4 40  1  0
  7 41  1  0
 11 42  1  0
 11 43  1  0
 12 44  1  0
 12 45  1  0
 15 46  1  0
 16 47  1  0
 17 48  1  0
 18 49  1  0
 20 50  1  0
 20 51  1  0
 21 52  1  0
 21 53  1  0
 24 54  1  0
 24 55  1  0
 26 56  1  0
 27 57  1  0
 30 58  1  0
 31 59  1  0
M  END
$$$$
