
     RDKit          3D

 54 58  0  0  0  0  0  0  0  0999 V2000
    2.3366   -2.1551    1.7645 O   0  0  0  0  0  0  0  0  0  0  0  0
    2.5069   -1.5109    0.7327 C   0  0  0  0  0  0  0  0  0  0  0  0
    1.8066   -1.8259   -0.5792 C   0  0  0  0  0  0  0  0  0  0  0  0
    0.0340   -2.1042   -0.3506 S   0  0  0  0  0  0  0  0  0  0  0  0
   -0.5867   -0.4598   -0.4310 C   0  0  0  0  0  0  0  0  0  0  0  0
    0.1999    0.4877   -0.0189 N   0  0  0  0  0  0  0  0  0  0  0  0
   -0.3449    1.7772   -0.0772 C   0  0  0  0  0  0  0  0  0  0  0  0
   -1.6038    2.0122   -0.5371 C   0  0  0  0  0  0  0  0  0  0  0  0
   -2.0080    3.6523   -0.5151 S   0  0  0  0  0  0  0  0  0  0  0  0
   -0.4673    4.0852    0.1418 C   0  0  0  0  0  0  0  0  0  0  0  0
   -0.0156    5.3810    0.4622 C   0  0  0  0  0  0  0  0  0  0  0  0
    1.2634    5.5368    0.9999 C   0  0  0  0  0  0  0  0  0  0  0  0
    2.0765    4.4337    1.2183 C   0  0  0  0  0  0  0  0  0  0  0  0
    1.6238    3.1510    0.8974 C   0  0  0  0  0  0  0  0  0  0  0  0
    0.3388    2.9567    0.3424 C   0  0  0  0  0  0  0  0  0  0  0  0
   -2.4760    0.9705   -0.9842 C   0  0  0  0  0  0  0  0  0  0  0  0
   -3.6283    1.1562   -1.3731 O   0  0  0  0  0  0  0  0  0  0  0  0
   -1.8851   -0.2995   -0.9296 N   0  0  0  0  0  0  0  0  0  0  0  0
   -2.7448   -1.4097   -1.3676 C   0  0  0  0  0  0  0  0  0  0  0  0
   -3.5944   -1.9593   -0.2153 C   0  0  0  0  0  0  0  0  0  0  0  0
   -4.4864   -3.0825   -0.6778 C   0  0  0  0  0  0  0  0  0  0  0  0
   -5.7505   -2.8064   -1.2169 C   0  0  0  0  0  0  0  0  0  0  0  0
   -6.5642   -3.8432   -1.6734 C   0  0  0  0  0  0  0  0  0  0  0  0
   -6.1215   -5.1623   -1.5990 C   0  0  0  0  0  0  0  0  0  0  0  0
   -4.8632   -5.4457   -1.0687 C   0  0  0  0  0  0  0  0  0  0  0  0
   -4.0483   -4.4112   -0.6104 C   0  0  0  0  0  0  0  0  0  0  0  0
    3.4160   -0.4792    0.6484 N   0  0  0  0  0  0  0  0  0  0  0  0
    4.1115   -0.0277    1.8311 C   0  0  0  0  0  0  0  0  0  0  0  0
    5.1851    0.9137    1.4263 C   0  0  0  0  0  0  0  0  0  0  0  0
    6.5374    0.9800    1.6894 C   0  0  0  0  0  0  0  0  0  0  0  0
    7.0219    2.1239    1.0107 C   0  0  0  0  0  0  0  0  0  0  0  0
    5.9380    2.6831    0.3778 C   0  0  0  0  0  0  0  0  0  0  0  0
    4.8192    1.9563    0.6222 O   0  0  0  0  0  0  0  0  0  0  0  0
    2.2529   -2.7486   -0.9646 H   0  0  0  0  0  0  0  0  0  0  0  0
    1.9820   -1.0479   -1.3292 H   0  0  0  0  0  0  0  0  0  0  0  0
   -0.6526    6.2457    0.2977 H   0  0  0  0  0  0  0  0  0  0  0  0
    1.6213    6.5312    1.2531 H   0  0  0  0  0  0  0  0  0  0  0  0
    3.0694    4.5603    1.6424 H   0  0  0  0  0  0  0  0  0  0  0  0
    2.2630    2.2939    1.0794 H   0  0  0  0  0  0  0  0  0  0  0  0
   -3.4025   -1.0553   -2.1718 H   0  0  0  0  0  0  0  0  0  0  0  0
   -2.1456   -2.2038   -1.8246 H   0  0  0  0  0  0  0  0  0  0  0  0
   -4.2086   -1.1620    0.2210 H   0  0  0  0  0  0  0  0  0  0  0  0
   -2.9549   -2.3120    0.6028 H   0  0  0  0  0  0  0  0  0  0  0  0
   -6.1082   -1.7809   -1.2853 H   0  0  0  0  0  0  0  0  0  0  0  0
   -7.5426   -3.6209   -2.0894 H   0  0  0  0  0  0  0  0  0  0  0  0
   -6.7552   -5.9693   -1.9556 H   0  0  0  0  0  0  0  0  0  0  0  0
   -4.5169   -6.4737   -1.0119 H   0  0  0  0  0  0  0  0  0  0  0  0
   -3.0688   -4.6496   -0.2007 H   0  0  0  0  0  0  0  0  0  0  0  0
    3.2876    0.2107   -0.0836 H   0  0  0  0  0  0  0  0  0  0  0  0
    3.3874    0.4671    2.4885 H   0  0  0  0  0  0  0  0  0  0  0  0
    4.5227   -0.8920    2.3636 H   0  0  0  0  0  0  0  0  0  0  0  0
    7.1037    0.2848    2.2945 H   0  0  0  0  0  0  0  0  0  0  0  0
    8.0367    2.4958    0.9852 H   0  0  0  0  0  0  0  0  0  0  0  0
    5.8028    3.5516   -0.2516 H   0  0  0  0  0  0  0  0  0  0  0  0
  1  2  2  0
  2  3  1  0
  3  4  1  0
  4  5  1  0
  5  6  2  0
  6  7  1  0
  7  8  2  0
  8  9  1  0
  9 10  1  0
 10 11  2  0
 11 12  1  0
 12 13  2  0
 13 14  1  0
 14 15  2  0
  8 16  1  0
 16 17  2  0
 16 18  1  0
 18 19  1  0
 19 20  1  0
 20 21  1  0
 21 22  2  0
 22 23  1  0
 23 24  2  0
 24 25  1  0
 25 26  2  0
  2 27  1  0
 27 28  1  0
 28 29  1  0
 29 30  2  0
 30 31  1  0
 31 32  2  0
 32 33  1  0
 18  5  1  0
 26 21  1  0
 33 29  1  0
 15  7  1  0
 15 10  1  0
  3 34  1  0
  3 35  1  0
 11 36  1  0
 12 37  1  0
 13 38  1  0
 14 39  1  0
 19 40  1  0
 19 41  1  0
 20 42  1  0
 20 43  1  0
 22 44  1  0
 23 45  1  0
 24 46  1  0
 25 47  1  0
 26 48  1  0
 27 49  1  0
 28 50  1  0
 28 51  1  0
 30 52  1  0
 31 53  1  0
 32 54  1  0
M  END
$$$$
