
     RDKit          3D

 63 67  0  0  0  0  0  0  0  0999 V2000
    5.7404    1.4791   -4.8072 C   0  0  0  0  0  0  0  0  0  0  0  0
    6.4503    0.7881   -3.6592 C   0  0  0  0  0  0  0  0  0  0  0  0
    5.4948    0.5560   -2.6188 O   0  0  0  0  0  0  0  0  0  0  0  0
    6.0069   -0.0703   -1.5194 C   0  0  0  0  0  0  0  0  0  0  0  0
    7.1754   -0.4196   -1.4022 O   0  0  0  0  0  0  0  0  0  0  0  0
    4.9980   -0.2858   -0.4903 C   0  0  0  0  0  0  0  0  0  0  0  0
    3.6191    0.0733   -0.4978 C   0  0  0  0  0  0  0  0  0  0  0  0
    3.0475   -0.3539    0.6883 C   0  0  0  0  0  0  0  0  0  0  0  0
    1.6890   -0.2627    1.2093 C   0  0  0  0  0  0  0  0  0  0  0  0
    0.6098    0.2237    0.4777 N   0  0  0  0  0  0  0  0  0  0  0  0
   -0.6303    0.5893    1.1850 C   0  0  0  0  0  0  0  0  0  0  0  0
   -1.5982    1.3566    0.2585 C   0  0  0  0  0  0  0  0  0  0  0  0
   -1.9763    0.6552   -0.9930 N   0  0  0  0  0  0  0  0  0  0  0  0
   -3.3576    0.1464   -0.9673 C   0  0  0  0  0  0  0  0  0  0  0  0
   -4.3989    1.2702   -1.1252 C   0  0  0  0  0  0  0  0  0  0  0  0
   -5.8170    0.7329   -1.0858 C   0  0  0  0  0  0  0  0  0  0  0  0
   -6.3794    0.2526   -2.2827 C   0  0  0  0  0  0  0  0  0  0  0  0
   -7.6712   -0.2704   -2.3088 C   0  0  0  0  0  0  0  0  0  0  0  0
   -8.4216   -0.3246   -1.1402 C   0  0  0  0  0  0  0  0  0  0  0  0
   -7.8799    0.1448    0.0565 C   0  0  0  0  0  0  0  0  0  0  0  0
   -6.5758    0.6753    0.1067 C   0  0  0  0  0  0  0  0  0  0  0  0
   -6.0411    1.1828    1.4301 C   0  0  0  0  0  0  0  0  0  0  0  0
   -6.8585    0.9144    2.4887 F   0  0  0  0  0  0  0  0  0  0  0  0
   -5.8590    2.5333    1.4405 F   0  0  0  0  0  0  0  0  0  0  0  0
   -4.8345    0.6400    1.7589 F   0  0  0  0  0  0  0  0  0  0  0  0
   -1.0290   -0.4443   -1.2810 C   0  0  0  0  0  0  0  0  0  0  0  0
    0.4371   -0.0950   -0.9474 C   0  0  0  0  0  0  0  0  0  0  0  0
    1.4718   -0.6521    2.4421 N   0  0  0  0  0  0  0  0  0  0  0  0
    2.5090   -1.1921    3.2252 C   0  0  0  0  0  0  0  0  0  0  0  0
    2.2127   -1.6036    4.5262 C   0  0  0  0  0  0  0  0  0  0  0  0
    3.2024   -2.1588    5.3422 C   0  0  0  0  0  0  0  0  0  0  0  0
    4.5035   -2.3081    4.8610 C   0  0  0  0  0  0  0  0  0  0  0  0
    4.8220   -1.9029    3.5641 C   0  0  0  0  0  0  0  0  0  0  0  0
    3.8207   -1.3499    2.7597 C   0  0  0  0  0  0  0  0  0  0  0  0
    4.0562   -0.9023    1.4500 N   0  0  0  0  0  0  0  0  0  0  0  0
    5.2254   -0.8982    0.7309 C   0  0  0  0  0  0  0  0  0  0  0  0
    4.9178    0.8594   -5.1804 H   0  0  0  0  0  0  0  0  0  0  0  0
    5.3006    2.4254   -4.4750 H   0  0  0  0  0  0  0  0  0  0  0  0
    6.4325    1.6802   -5.6297 H   0  0  0  0  0  0  0  0  0  0  0  0
    7.2576    1.4274   -3.2850 H   0  0  0  0  0  0  0  0  0  0  0  0
    6.8635   -0.1667   -4.0027 H   0  0  0  0  0  0  0  0  0  0  0  0
    3.1095    0.5942   -1.2969 H   0  0  0  0  0  0  0  0  0  0  0  0
   -1.1221   -0.3126    1.5705 H   0  0  0  0  0  0  0  0  0  0  0  0
   -0.3907    1.2335    2.0397 H   0  0  0  0  0  0  0  0  0  0  0  0
   -1.1081    2.2913   -0.0441 H   0  0  0  0  0  0  0  0  0  0  0  0
   -2.4750    1.6559    0.8431 H   0  0  0  0  0  0  0  0  0  0  0  0
   -3.5387   -0.4353   -0.0541 H   0  0  0  0  0  0  0  0  0  0  0  0
   -3.4983   -0.5494   -1.8061 H   0  0  0  0  0  0  0  0  0  0  0  0
   -4.2763    2.0468   -0.3641 H   0  0  0  0  0  0  0  0  0  0  0  0
   -4.2402    1.7850   -2.0828 H   0  0  0  0  0  0  0  0  0  0  0  0
   -5.8076    0.2864   -3.2090 H   0  0  0  0  0  0  0  0  0  0  0  0
   -8.0915   -0.6343   -3.2433 H   0  0  0  0  0  0  0  0  0  0  0  0
   -9.4297   -0.7314   -1.1592 H   0  0  0  0  0  0  0  0  0  0  0  0
   -8.4868    0.0949    0.9603 H   0  0  0  0  0  0  0  0  0  0  0  0
   -1.3052   -1.3453   -0.7152 H   0  0  0  0  0  0  0  0  0  0  0  0
   -1.0970   -0.6970   -2.3457 H   0  0  0  0  0  0  0  0  0  0  0  0
    0.7566    0.7645   -1.5480 H   0  0  0  0  0  0  0  0  0  0  0  0
    1.0544   -0.9552   -1.2310 H   0  0  0  0  0  0  0  0  0  0  0  0
    1.1996   -1.4901    4.9029 H   0  0  0  0  0  0  0  0  0  0  0  0
    2.9553   -2.4741    6.3528 H   0  0  0  0  0  0  0  0  0  0  0  0
    5.2709   -2.7398    5.4994 H   0  0  0  0  0  0  0  0  0  0  0  0
    5.8417   -2.0260    3.2146 H   0  0  0  0  0  0  0  0  0  0  0  0
    6.1434   -1.3070    1.1299 H   0  0  0  0  0  0  0  0  0  0  0  0
  1  2  1  0
  2  3  1  0
  3  4  1  0
  4  5  2  0
  4  6  1  0
  6  7  1  0
  7  8  2  0
  8  9  1  0
  9 10  1  0
 10 11  1  0
 11 12  1  0
 12 13  1  0
 13 14  1  0
 14 15  1  0
 15 16  1  0
 16 17  2  0
 17 18  1  0
 18 19  2  0
 19 20  1  0
 20 21  2  0
 21 22  1  0
 22 23  1  0
 22 24  1  0
 22 25  1  0
 13 26  1  0
 26 27  1  0
  9 28  2  0
 28 29  1  0
 29 30  2  0
 30 31  1  0
 31 32  2  0
 32 33  1  0
 33 34  2  0
 34 35  1  0
 35 36  1  0
 36  6  2  0
 35  8  1  0
 27 10  1  0
 34 29  1  0
 21 16  1  0
  1 37  1  0
  1 38  1  0
  1 39  1  0
  2 40  1  0
  2 41  1  0
  7 42  1  0
 11 43  1  0
 11 44  1  0
 12 45  1  0
 12 46  1  0
 14 47  1  0
 14 48  1  0
 15 49  1  0
 15 50  1  0
 17 51  1  0
 18 52  1  0
 19 53  1  0
 20 54  1  0
 26 55  1  0
 26 56  1  0
 27 57  1  0
 27 58  1  0
 30 59  1  0
 31 60  1  0
 32 61  1  0
 33 62  1  0
 36 63  1  0
M  END
$$$$
