
     RDKit          3D

 55 58  0  0  0  0  0  0  0  0999 V2000
   -5.6650    1.6322    2.4469 C   0  0  0  0  0  0  0  0  0  0  0  0
   -4.5511    1.0028    1.8246 O   0  0  0  0  0  0  0  0  0  0  0  0
   -3.6885    0.3169    2.6523 C   0  0  0  0  0  0  0  0  0  0  0  0
   -3.9695   -0.0379    3.9750 C   0  0  0  0  0  0  0  0  0  0  0  0
   -3.0243   -0.7387    4.7266 C   0  0  0  0  0  0  0  0  0  0  0  0
   -1.8026   -1.0927    4.1593 C   0  0  0  0  0  0  0  0  0  0  0  0
   -1.5167   -0.7498    2.8362 C   0  0  0  0  0  0  0  0  0  0  0  0
   -2.4510   -0.0448    2.0756 C   0  0  0  0  0  0  0  0  0  0  0  0
   -2.2391    0.3375    0.7314 N   0  0  0  0  0  0  0  0  0  0  0  0
   -1.0878    0.2115   -0.0169 C   0  0  0  0  0  0  0  0  0  0  0  0
   -0.0007   -0.1894    0.3906 O   0  0  0  0  0  0  0  0  0  0  0  0
   -1.1849    0.6850   -1.4357 C   0  0  0  0  0  0  0  0  0  0  0  0
   -2.4008    0.5523   -2.1313 C   0  0  0  0  0  0  0  0  0  0  0  0
   -2.5137    1.0038   -3.4449 C   0  0  0  0  0  0  0  0  0  0  0  0
   -1.4150    1.5796   -4.0742 C   0  0  0  0  0  0  0  0  0  0  0  0
   -0.1941    1.6914   -3.4021 C   0  0  0  0  0  0  0  0  0  0  0  0
   -0.0554    1.2412   -2.0845 C   0  0  0  0  0  0  0  0  0  0  0  0
    1.1830    1.2937   -1.3983 N   0  0  0  0  0  0  0  0  0  0  0  0
    2.3835    1.8187   -1.8263 C   0  0  0  0  0  0  0  0  0  0  0  0
    2.5805    2.4980   -2.8254 O   0  0  0  0  0  0  0  0  0  0  0  0
    3.5328    1.5257   -0.9270 C   0  0  0  0  0  0  0  0  0  0  0  0
    4.3727    2.6071   -0.6200 C   0  0  0  0  0  0  0  0  0  0  0  0
    5.4518    2.4186    0.2335 C   0  0  0  0  0  0  0  0  0  0  0  0
    6.4724    3.7444    0.6316 Cl  0  0  0  0  0  0  0  0  0  0  0  0
    5.7059    1.1620    0.7742 C   0  0  0  0  0  0  0  0  0  0  0  0
    4.8799    0.0771    0.4543 C   0  0  0  0  0  0  0  0  0  0  0  0
    3.7875    0.2353   -0.4062 C   0  0  0  0  0  0  0  0  0  0  0  0
    2.9609   -0.8475   -0.7844 N   0  0  0  0  0  0  0  0  0  0  0  0
    2.9716   -2.1573   -0.3405 C   0  0  0  0  0  0  0  0  0  0  0  0
    3.7547   -2.6243    0.4800 O   0  0  0  0  0  0  0  0  0  0  0  0
    1.9292   -2.9574   -0.9622 C   0  0  0  0  0  0  0  0  0  0  0  0
    1.5583   -4.2765   -0.7829 C   0  0  0  0  0  0  0  0  0  0  0  0
    0.4681   -4.5167   -1.6534 C   0  0  0  0  0  0  0  0  0  0  0  0
    0.2369   -3.3335   -2.3135 C   0  0  0  0  0  0  0  0  0  0  0  0
    1.1147   -2.3819   -1.9070 O   0  0  0  0  0  0  0  0  0  0  0  0
   -6.3845    0.8894    2.8045 H   0  0  0  0  0  0  0  0  0  0  0  0
   -6.1683    2.2435    1.6915 H   0  0  0  0  0  0  0  0  0  0  0  0
   -5.3451    2.2998    3.2565 H   0  0  0  0  0  0  0  0  0  0  0  0
   -4.9140    0.2083    4.4485 H   0  0  0  0  0  0  0  0  0  0  0  0
   -3.2426   -1.0123    5.7558 H   0  0  0  0  0  0  0  0  0  0  0  0
   -1.0670   -1.6406    4.7439 H   0  0  0  0  0  0  0  0  0  0  0  0
   -0.5589   -1.0545    2.4268 H   0  0  0  0  0  0  0  0  0  0  0  0
   -3.0254    0.8441    0.3382 H   0  0  0  0  0  0  0  0  0  0  0  0
   -3.2640    0.0765   -1.6729 H   0  0  0  0  0  0  0  0  0  0  0  0
   -3.4548    0.9016   -3.9808 H   0  0  0  0  0  0  0  0  0  0  0  0
   -1.4970    1.9340   -5.0998 H   0  0  0  0  0  0  0  0  0  0  0  0
    0.6397    2.1282   -3.9443 H   0  0  0  0  0  0  0  0  0  0  0  0
    1.1677    0.8667   -0.4654 H   0  0  0  0  0  0  0  0  0  0  0  0
    4.1716    3.5894   -1.0428 H   0  0  0  0  0  0  0  0  0  0  0  0
    6.5497    1.0103    1.4432 H   0  0  0  0  0  0  0  0  0  0  0  0
    5.1324   -0.8855    0.8892 H   0  0  0  0  0  0  0  0  0  0  0  0
    2.2162   -0.6592   -1.4545 H   0  0  0  0  0  0  0  0  0  0  0  0
    2.0236   -4.9691   -0.0932 H   0  0  0  0  0  0  0  0  0  0  0  0
   -0.0836   -5.4376   -1.7809 H   0  0  0  0  0  0  0  0  0  0  0  0
   -0.4798   -3.0192   -3.0607 H   0  0  0  0  0  0  0  0  0  0  0  0
  1  2  1  0
  2  3  1  0
  3  4  2  0
  4  5  1  0
  5  6  2  0
  6  7  1  0
  7  8  2  0
  8  9  1  0
  9 10  1  0
 10 11  2  0
 10 12  1  0
 12 13  2  0
 13 14  1  0
 14 15  2  0
 15 16  1  0
 16 17  2  0
 17 18  1  0
 18 19  1  0
 19 20  2  0
 19 21  1  0
 21 22  2  0
 22 23  1  0
 23 24  1  0
 23 25  2  0
 25 26  1  0
 26 27  2  0
 27 28  1  0
 28 29  1  0
 29 30  2  0
 29 31  1  0
 31 32  2  0
 32 33  1  0
 33 34  2  0
 34 35  1  0
  8  3  1  0
 17 12  1  0
 27 21  1  0
 35 31  1  0
  1 36  1  0
  1 37  1  0
  1 38  1  0
  4 39  1  0
  5 40  1  0
  6 41  1  0
  7 42  1  0
  9 43  1  0
 13 44  1  0
 14 45  1  0
 15 46  1  0
 16 47  1  0
 18 48  1  0
 22 49  1  0
 25 50  1  0
 26 51  1  0
 28 52  1  0
 32 53  1  0
 33 54  1  0
 34 55  1  0
M  END
$$$$
