
     RDKit          3D

 59 62  0  0  0  0  0  0  0  0999 V2000
    9.8847   -0.4145    0.2066 C   0  0  0  0  0  0  0  0  0  0  0  0
    8.4447   -0.1583    0.5380 C   0  0  0  0  0  0  0  0  0  0  0  0
    7.8855   -0.6163    1.7347 C   0  0  0  0  0  0  0  0  0  0  0  0
    6.5406   -0.3681    2.0385 C   0  0  0  0  0  0  0  0  0  0  0  0
    5.7367    0.3568    1.1525 C   0  0  0  0  0  0  0  0  0  0  0  0
    4.3583    0.6312    1.4145 N   0  0  0  0  0  0  0  0  0  0  0  0
    3.5561    0.9801    0.3719 N   0  0  0  0  0  0  0  0  0  0  0  0
    2.3164    0.9618    0.8655 C   0  0  0  0  0  0  0  0  0  0  0  0
    1.0857    1.1964    0.1217 C   0  0  0  0  0  0  0  0  0  0  0  0
    1.0459    1.3848   -1.0929 O   0  0  0  0  0  0  0  0  0  0  0  0
   -0.0577    1.1901    0.9488 N   0  0  0  0  0  0  0  0  0  0  0  0
   -1.3707    1.3722    0.3437 C   0  0  0  0  0  0  0  0  0  0  0  0
   -2.0044    0.0359   -0.0364 C   0  0  0  0  0  0  0  0  0  0  0  0
   -3.3496    0.2432   -0.7252 C   0  0  0  0  0  0  0  0  0  0  0  0
   -4.0499   -1.0670   -1.0271 C   0  0  0  0  0  0  0  0  0  0  0  0
   -3.6323   -2.1639   -0.6749 O   0  0  0  0  0  0  0  0  0  0  0  0
   -5.2272   -0.8943   -1.7172 N   0  0  0  0  0  0  0  0  0  0  0  0
   -5.9708   -2.0377   -2.1922 C   0  0  0  0  0  0  0  0  0  0  0  0
   -7.2832   -1.5670   -2.6936 C   0  0  0  0  0  0  0  0  0  0  0  0
   -8.5840   -1.7590   -2.2760 C   0  0  0  0  0  0  0  0  0  0  0  0
   -9.4031   -1.0297   -3.1718 C   0  0  0  0  0  0  0  0  0  0  0  0
   -8.5535   -0.4363   -4.0807 C   0  0  0  0  0  0  0  0  0  0  0  0
   -8.7634    0.4374   -5.2526 C   0  0  0  0  0  0  0  0  0  0  0  0
   -7.2612   -0.7558   -3.7926 O   0  0  0  0  0  0  0  0  0  0  0  0
   -0.0576    0.9228    2.3224 N   0  0  0  0  0  0  0  0  0  0  0  0
    1.0546    0.6898    2.9616 C   0  0  0  0  0  0  0  0  0  0  0  0
    0.9830    0.4007    4.4341 C   0  0  0  0  0  0  0  0  0  0  0  0
    2.3054    0.7208    2.2434 C   0  0  0  0  0  0  0  0  0  0  0  0
    3.6351    0.6056    2.6141 C   0  0  0  0  0  0  0  0  0  0  0  0
    4.2433    0.5378    3.9678 C   0  0  0  0  0  0  0  0  0  0  0  0
    6.2945    0.7933   -0.0608 C   0  0  0  0  0  0  0  0  0  0  0  0
    7.6373    0.5460   -0.3591 C   0  0  0  0  0  0  0  0  0  0  0  0
   10.3739   -1.0172    0.9790 H   0  0  0  0  0  0  0  0  0  0  0  0
    9.9638   -0.9573   -0.7410 H   0  0  0  0  0  0  0  0  0  0  0  0
   10.4263    0.5334    0.1250 H   0  0  0  0  0  0  0  0  0  0  0  0
    8.4904   -1.1835    2.4389 H   0  0  0  0  0  0  0  0  0  0  0  0
    6.1542   -0.7992    2.9539 H   0  0  0  0  0  0  0  0  0  0  0  0
   -2.0048    1.9094    1.0592 H   0  0  0  0  0  0  0  0  0  0  0  0
   -1.2730    2.0083   -0.5436 H   0  0  0  0  0  0  0  0  0  0  0  0
   -2.1318   -0.5793    0.8634 H   0  0  0  0  0  0  0  0  0  0  0  0
   -1.3329   -0.5253   -0.6987 H   0  0  0  0  0  0  0  0  0  0  0  0
   -4.0114    0.8375   -0.0841 H   0  0  0  0  0  0  0  0  0  0  0  0
   -3.2046    0.7863   -1.6664 H   0  0  0  0  0  0  0  0  0  0  0  0
   -5.3858   -0.0192   -2.2014 H   0  0  0  0  0  0  0  0  0  0  0  0
   -6.0888   -2.7576   -1.3753 H   0  0  0  0  0  0  0  0  0  0  0  0
   -5.3960   -2.5156   -2.9926 H   0  0  0  0  0  0  0  0  0  0  0  0
   -8.8997   -2.3506   -1.4274 H   0  0  0  0  0  0  0  0  0  0  0  0
  -10.4810   -0.9469   -3.1578 H   0  0  0  0  0  0  0  0  0  0  0  0
   -9.8196    0.7020   -5.3616 H   0  0  0  0  0  0  0  0  0  0  0  0
   -8.1888    1.3635   -5.1478 H   0  0  0  0  0  0  0  0  0  0  0  0
   -8.4414   -0.0689   -6.1685 H   0  0  0  0  0  0  0  0  0  0  0  0
    1.5984   -0.4683    4.6813 H   0  0  0  0  0  0  0  0  0  0  0  0
    1.3324    1.2725    4.9935 H   0  0  0  0  0  0  0  0  0  0  0  0
   -0.0494    0.1901    4.7297 H   0  0  0  0  0  0  0  0  0  0  0  0
    3.6323    1.0758    4.6981 H   0  0  0  0  0  0  0  0  0  0  0  0
    4.3297   -0.4998    4.3029 H   0  0  0  0  0  0  0  0  0  0  0  0
    5.2256    1.0179    4.0009 H   0  0  0  0  0  0  0  0  0  0  0  0
    5.6965    1.3460   -0.7848 H   0  0  0  0  0  0  0  0  0  0  0  0
    8.0461    0.9074   -1.3007 H   0  0  0  0  0  0  0  0  0  0  0  0
  1  2  1  0
  2  3  2  0
  3  4  1  0
  4  5  2  0
  5  6  1  0
  6  7  1  0
  7  8  2  0
  8  9  1  0
  9 10  2  0
  9 11  1  0
 11 12  1  0
 12 13  1  0
 13 14  1  0
 14 15  1  0
 15 16  2  0
 15 17  1  0
 17 18  1  0
 18 19  1  0
 19 20  2  0
 20 21  1  0
 21 22  2  0
 22 23  1  0
 22 24  1  0
 11 25  1  0
 25 26  2  0
 26 27  1  0
 26 28  1  0
 28 29  2  0
 29 30  1  0
  5 31  1  0
 31 32  2  0
 32  2  1  0
 29  6  1  0
 28  8  1  0
 24 19  1  0
  1 33  1  0
  1 34  1  0
  1 35  1  0
  3 36  1  0
  4 37  1  0
 12 38  1  0
 12 39  1  0
 13 40  1  0
 13 41  1  0
 14 42  1  0
 14 43  1  0
 17 44  1  0
 18 45  1  0
 18 46  1  0
 20 47  1  0
 21 48  1  0
 23 49  1  0
 23 50  1  0
 23 51  1  0
 27 52  1  0
 27 53  1  0
 27 54  1  0
 30 55  1  0
 30 56  1  0
 30 57  1  0
 31 58  1  0
 32 59  1  0
M  END
$$$$
