
     RDKit          3D

 61 65  0  0  0  0  0  0  0  0999 V2000
    4.8213    5.0096    0.3519 C   0  0  0  0  0  0  0  0  0  0  0  0
    5.8185    4.0079    0.4957 O   0  0  0  0  0  0  0  0  0  0  0  0
    5.3933    2.7558    0.8411 C   0  0  0  0  0  0  0  0  0  0  0  0
    6.4098    1.8053    0.9540 C   0  0  0  0  0  0  0  0  0  0  0  0
    6.1180    0.4850    1.3035 C   0  0  0  0  0  0  0  0  0  0  0  0
    4.7964    0.0957    1.5532 C   0  0  0  0  0  0  0  0  0  0  0  0
    4.4745   -1.3301    1.9245 C   0  0  0  0  0  0  0  0  0  0  0  0
    4.3409   -2.1693    0.7525 N   0  0  0  0  0  0  0  0  0  0  0  0
    5.3686   -2.9486    0.3328 N   0  0  0  0  0  0  0  0  0  0  0  0
    4.9522   -3.6293   -0.7353 N   0  0  0  0  0  0  0  0  0  0  0  0
    3.6572   -3.2775   -0.9592 C   0  0  0  0  0  0  0  0  0  0  0  0
    2.7266   -3.7038   -1.9686 C   0  0  0  0  0  0  0  0  0  0  0  0
    2.9527   -4.5148   -2.8589 O   0  0  0  0  0  0  0  0  0  0  0  0
    1.4902   -3.0848   -1.8303 N   0  0  0  0  0  0  0  0  0  0  0  0
    1.1760   -2.1741   -0.8226 C   0  0  0  0  0  0  0  0  0  0  0  0
   -0.2366   -1.6169   -0.8995 C   0  0  0  0  0  0  0  0  0  0  0  0
   -0.6731   -0.9455    0.4056 C   0  0  0  0  0  0  0  0  0  0  0  0
   -2.0987   -0.4167    0.2881 C   0  0  0  0  0  0  0  0  0  0  0  0
   -2.3185    0.3563   -0.9666 N   0  0  0  0  0  0  0  0  0  0  0  0
   -3.6675   -0.1079   -1.9105 S   0  0  0  0  0  6  0  0  0  0  0  0
   -3.7993    0.8244   -3.0089 O   0  0  0  0  0  0  0  0  0  0  0  0
   -3.5450   -1.5329   -2.1450 O   0  0  0  0  0  0  0  0  0  0  0  0
   -5.0275    0.1757   -0.8080 C   0  0  0  0  0  0  0  0  0  0  0  0
   -5.8401   -0.8860   -0.4072 C   0  0  0  0  0  0  0  0  0  0  0  0
   -6.9020   -0.6432    0.4653 C   0  0  0  0  0  0  0  0  0  0  0  0
   -7.1610    0.6552    0.9275 C   0  0  0  0  0  0  0  0  0  0  0  0
   -8.2895    0.9008    1.8865 C   0  0  0  0  0  0  0  0  0  0  0  0
   -6.3306    1.7090    0.5214 C   0  0  0  0  0  0  0  0  0  0  0  0
   -5.2683    1.4740   -0.3519 C   0  0  0  0  0  0  0  0  0  0  0  0
   -1.0852    0.6382   -1.7380 C   0  0  0  0  0  0  0  0  0  0  0  0
   -0.3504   -0.6497   -2.0915 C   0  0  0  0  0  0  0  0  0  0  0  0
    2.0144   -1.7836    0.0976 N   0  0  0  0  0  0  0  0  0  0  0  0
    3.2341   -2.3642   -0.0235 C   0  0  0  0  0  0  0  0  0  0  0  0
    3.7772    1.0502    1.4282 C   0  0  0  0  0  0  0  0  0  0  0  0
    4.0737    2.3722    1.0774 C   0  0  0  0  0  0  0  0  0  0  0  0
    5.3212    5.9416    0.0723 H   0  0  0  0  0  0  0  0  0  0  0  0
    4.1188    4.7557   -0.4487 H   0  0  0  0  0  0  0  0  0  0  0  0
    4.2982    5.1839    1.2970 H   0  0  0  0  0  0  0  0  0  0  0  0
    7.4405    2.0949    0.7630 H   0  0  0  0  0  0  0  0  0  0  0  0
    6.9303   -0.2364    1.3723 H   0  0  0  0  0  0  0  0  0  0  0  0
    5.2597   -1.7515    2.5633 H   0  0  0  0  0  0  0  0  0  0  0  0
    3.5380   -1.3894    2.4914 H   0  0  0  0  0  0  0  0  0  0  0  0
    0.8008   -3.3580   -2.5166 H   0  0  0  0  0  0  0  0  0  0  0  0
   -0.9043   -2.4699   -1.0850 H   0  0  0  0  0  0  0  0  0  0  0  0
    0.0061   -0.1219    0.6604 H   0  0  0  0  0  0  0  0  0  0  0  0
   -0.6138   -1.6549    1.2398 H   0  0  0  0  0  0  0  0  0  0  0  0
   -2.3216    0.2397    1.1367 H   0  0  0  0  0  0  0  0  0  0  0  0
   -2.7895   -1.2642    0.3533 H   0  0  0  0  0  0  0  0  0  0  0  0
   -5.6591   -1.8964   -0.7667 H   0  0  0  0  0  0  0  0  0  0  0  0
   -7.5332   -1.4723    0.7801 H   0  0  0  0  0  0  0  0  0  0  0  0
   -7.9708    0.6652    2.9071 H   0  0  0  0  0  0  0  0  0  0  0  0
   -8.6150    1.9457    1.8532 H   0  0  0  0  0  0  0  0  0  0  0  0
   -9.1561    0.2822    1.6305 H   0  0  0  0  0  0  0  0  0  0  0  0
   -6.5118    2.7209    0.8785 H   0  0  0  0  0  0  0  0  0  0  0  0
   -4.6356    2.2980   -0.6739 H   0  0  0  0  0  0  0  0  0  0  0  0
   -0.4438    1.2949   -1.1375 H   0  0  0  0  0  0  0  0  0  0  0  0
   -1.3116    1.2095   -2.6444 H   0  0  0  0  0  0  0  0  0  0  0  0
   -0.8768   -1.1607   -2.9075 H   0  0  0  0  0  0  0  0  0  0  0  0
    0.6363   -0.3873   -2.4932 H   0  0  0  0  0  0  0  0  0  0  0  0
    2.7392    0.7693    1.5979 H   0  0  0  0  0  0  0  0  0  0  0  0
    3.2513    3.0747    0.9954 H   0  0  0  0  0  0  0  0  0  0  0  0
  1  2  1  0
  2  3  1  0
  3  4  2  0
  4  5  1  0
  5  6  2  0
  6  7  1  0
  7  8  1  0
  8  9  1  0
  9 10  2  0
 10 11  1  0
 11 12  1  0
 12 13  2  0
 12 14  1  0
 14 15  1  0
 15 16  1  0
 16 17  1  0
 17 18  1  0
 18 19  1  0
 19 20  1  0
 20 21  2  0
 20 22  2  0
 20 23  1  0
 23 24  2  0
 24 25  1  0
 25 26  2  0
 26 27  1  0
 26 28  1  0
 28 29  2  0
 19 30  1  0
 30 31  1  0
 15 32  2  0
 32 33  1  0
  6 34  1  0
 34 35  2  0
 35  3  1  0
 33  8  1  0
 33 11  2  0
 31 16  1  0
 29 23  1  0
  1 36  1  0
  1 37  1  0
  1 38  1  0
  4 39  1  0
  5 40  1  0
  7 41  1  0
  7 42  1  0
 14 43  1  0
 16 44  1  0
 17 45  1  0
 17 46  1  0
 18 47  1  0
 18 48  1  0
 24 49  1  0
 25 50  1  0
 27 51  1  0
 27 52  1  0
 27 53  1  0
 28 54  1  0
 29 55  1  0
 30 56  1  0
 30 57  1  0
 31 58  1  0
 31 59  1  0
 34 60  1  0
 35 61  1  0
M  END
$$$$
