
     RDKit          3D

 69 71  0  0  0  0  0  0  0  0999 V2000
   -4.0921    3.6207   -3.8320 C   0  0  0  0  0  0  0  0  0  0  0  0
   -3.8029    2.3085   -3.3674 O   0  0  0  0  0  0  0  0  0  0  0  0
   -3.3011    2.1791   -2.0985 C   0  0  0  0  0  0  0  0  0  0  0  0
   -3.2328    3.2272   -1.1765 C   0  0  0  0  0  0  0  0  0  0  0  0
   -2.6563    3.0283    0.0774 C   0  0  0  0  0  0  0  0  0  0  0  0
   -2.1384    1.7818    0.4230 C   0  0  0  0  0  0  0  0  0  0  0  0
   -2.2086    0.6982   -0.4683 C   0  0  0  0  0  0  0  0  0  0  0  0
   -1.6208   -0.6700   -0.1063 C   0  0  0  0  0  0  0  0  0  0  0  0
   -1.8799   -1.1880    1.3416 C   0  0  0  0  0  0  0  0  0  0  0  0
   -1.0761   -1.8982    1.9459 O   0  0  0  0  0  0  0  0  0  0  0  0
   -3.1447   -0.9094    1.8473 N   0  0  0  0  0  0  0  0  0  0  0  0
   -3.5861   -1.2317    3.2133 C   0  0  0  0  0  0  0  0  0  0  0  0
   -5.0538   -0.7884    3.3521 C   0  0  0  0  0  0  0  0  0  0  0  0
   -2.7464   -0.4663    4.2470 C   0  0  0  0  0  0  0  0  0  0  0  0
   -3.5199   -2.7429    3.4890 C   0  0  0  0  0  0  0  0  0  0  0  0
   -0.2016   -0.8024   -0.5041 N   0  0  0  0  0  0  0  0  0  0  0  0
    0.7626   -0.0686    0.1905 C   0  0  0  0  0  0  0  0  0  0  0  0
    0.5127    0.5859    1.2043 O   0  0  0  0  0  0  0  0  0  0  0  0
    2.1676   -0.0807   -0.3861 C   0  0  0  0  0  0  0  0  0  0  0  0
    3.1655    0.5774    0.5619 C   0  0  0  0  0  0  0  0  0  0  0  0
    4.5679    0.5319   -0.0094 C   0  0  0  0  0  0  0  0  0  0  0  0
    4.7753    0.5147   -1.2186 O   0  0  0  0  0  0  0  0  0  0  0  0
    5.5340    0.5489    0.9708 N   0  0  0  0  0  0  0  0  0  0  0  0
    6.8906    0.4718    0.7487 C   0  0  0  0  0  0  0  0  0  0  0  0
    7.6001    0.4356   -0.4714 C   0  0  0  0  0  0  0  0  0  0  0  0
    8.9188    0.3328   -0.1015 C   0  0  0  0  0  0  0  0  0  0  0  0
   10.1908    0.2432   -0.8382 C   0  0  0  0  0  0  0  0  0  0  0  0
    9.0005    0.3165    1.2544 O   0  0  0  0  0  0  0  0  0  0  0  0
    7.7292    0.4043    1.7909 N   0  0  0  0  0  0  0  0  0  0  0  0
    0.0702   -1.4668   -1.7613 C   0  0  0  0  0  0  0  0  0  0  0  0
    0.9123   -2.7183   -1.8251 C   0  0  0  0  0  0  0  0  0  0  0  0
   -0.5471   -2.7989   -2.1270 C   0  0  0  0  0  0  0  0  0  0  0  0
   -2.8159    0.9070   -1.7272 C   0  0  0  0  0  0  0  0  0  0  0  0
   -2.8314   -0.1703   -2.5838 O   0  0  0  0  0  0  0  0  0  0  0  0
   -4.1166   -0.4610   -3.1297 C   0  0  0  0  0  0  0  0  0  0  0  0
   -4.9492    4.0422   -3.2980 H   0  0  0  0  0  0  0  0  0  0  0  0
   -4.3645    3.5471   -4.8887 H   0  0  0  0  0  0  0  0  0  0  0  0
   -3.2163    4.2726   -3.7613 H   0  0  0  0  0  0  0  0  0  0  0  0
   -3.6088    4.2185   -1.4072 H   0  0  0  0  0  0  0  0  0  0  0  0
   -2.5892    3.8550    0.7818 H   0  0  0  0  0  0  0  0  0  0  0  0
   -1.6659    1.6707    1.3989 H   0  0  0  0  0  0  0  0  0  0  0  0
   -2.1856   -1.4136   -0.6834 H   0  0  0  0  0  0  0  0  0  0  0  0
   -3.6905   -0.2169    1.3474 H   0  0  0  0  0  0  0  0  0  0  0  0
   -5.6890   -1.3037    2.6218 H   0  0  0  0  0  0  0  0  0  0  0  0
   -5.1631    0.2881    3.1752 H   0  0  0  0  0  0  0  0  0  0  0  0
   -5.4448   -1.0048    4.3527 H   0  0  0  0  0  0  0  0  0  0  0  0
   -1.6945   -0.7655    4.2193 H   0  0  0  0  0  0  0  0  0  0  0  0
   -3.1102   -0.6437    5.2652 H   0  0  0  0  0  0  0  0  0  0  0  0
   -2.7827    0.6121    4.0582 H   0  0  0  0  0  0  0  0  0  0  0  0
   -2.4918   -3.1158    3.5116 H   0  0  0  0  0  0  0  0  0  0  0  0
   -3.9699   -2.9863    4.4582 H   0  0  0  0  0  0  0  0  0  0  0  0
   -4.0552   -3.3091    2.7180 H   0  0  0  0  0  0  0  0  0  0  0  0
    2.1491    0.4479   -1.3447 H   0  0  0  0  0  0  0  0  0  0  0  0
    2.4901   -1.1095   -0.5592 H   0  0  0  0  0  0  0  0  0  0  0  0
    2.9070    1.6289    0.7319 H   0  0  0  0  0  0  0  0  0  0  0  0
    3.1434    0.0657    1.5318 H   0  0  0  0  0  0  0  0  0  0  0  0
    5.2780    0.5435    1.9496 H   0  0  0  0  0  0  0  0  0  0  0  0
    7.2117    0.4758   -1.4793 H   0  0  0  0  0  0  0  0  0  0  0  0
   10.6102   -0.7643   -0.7544 H   0  0  0  0  0  0  0  0  0  0  0  0
   10.9201    0.9550   -0.4368 H   0  0  0  0  0  0  0  0  0  0  0  0
   10.0476    0.4667   -1.9005 H   0  0  0  0  0  0  0  0  0  0  0  0
    0.1765   -0.7583   -2.5816 H   0  0  0  0  0  0  0  0  0  0  0  0
    1.6129   -2.8147   -2.6453 H   0  0  0  0  0  0  0  0  0  0  0  0
    1.2505   -3.1649   -0.8963 H   0  0  0  0  0  0  0  0  0  0  0  0
   -1.1619   -3.3238   -1.4057 H   0  0  0  0  0  0  0  0  0  0  0  0
   -0.8517   -2.9392   -3.1570 H   0  0  0  0  0  0  0  0  0  0  0  0
   -4.9400   -0.1296   -2.4875 H   0  0  0  0  0  0  0  0  0  0  0  0
   -4.1934   -1.5479   -3.2303 H   0  0  0  0  0  0  0  0  0  0  0  0
   -4.2050   -0.0302   -4.1305 H   0  0  0  0  0  0  0  0  0  0  0  0
  1  2  1  0
  2  3  1  0
  3  4  2  0
  4  5  1  0
  5  6  2  0
  6  7  1  0
  7  8  1  0
  8  9  1  0
  9 10  2  0
  9 11  1  0
 11 12  1  0
 12 13  1  0
 12 14  1  0
 12 15  1  0
  8 16  1  0
 16 17  1  0
 17 18  2  0
 17 19  1  0
 19 20  1  0
 20 21  1  0
 21 22  2  0
 21 23  1  0
 23 24  1  0
 24 25  1  0
 25 26  2  0
 26 27  1  0
 26 28  1  0
 28 29  1  0
 16 30  1  0
 30 31  1  0
 31 32  1  0
  7 33  2  0
 33 34  1  0
 34 35  1  0
 33  3  1  0
 29 24  2  0
 32 30  1  0
  1 36  1  0
  1 37  1  0
  1 38  1  0
  4 39  1  0
  5 40  1  0
  6 41  1  0
  8 42  1  0
 11 43  1  0
 13 44  1  0
 13 45  1  0
 13 46  1  0
 14 47  1  0
 14 48  1  0
 14 49  1  0
 15 50  1  0
 15 51  1  0
 15 52  1  0
 19 53  1  0
 19 54  1  0
 20 55  1  0
 20 56  1  0
 23 57  1  0
 25 58  1  0
 27 59  1  0
 27 60  1  0
 27 61  1  0
 30 62  1  0
 31 63  1  0
 31 64  1  0
 32 65  1  0
 32 66  1  0
 35 67  1  0
 35 68  1  0
 35 69  1  0
M  END
$$$$
