
     RDKit          3D

 61 65  0  0  0  0  0  0  0  0999 V2000
   -9.6215    2.1326   -2.1911 C   0  0  0  0  0  0  0  0  0  0  0  0
   -8.3469    1.4047   -1.8859 C   0  0  0  0  0  0  0  0  0  0  0  0
   -7.2308    2.0956   -1.4087 C   0  0  0  0  0  0  0  0  0  0  0  0
   -6.0494    1.4115   -1.0955 C   0  0  0  0  0  0  0  0  0  0  0  0
   -5.9459    0.0161   -1.2428 C   0  0  0  0  0  0  0  0  0  0  0  0
   -4.7052   -0.7248   -0.9228 C   0  0  0  0  0  0  0  0  0  0  0  0
   -3.4445   -0.1593   -0.9932 C   0  0  0  0  0  0  0  0  0  0  0  0
   -2.3410   -0.9414   -0.6482 C   0  0  0  0  0  0  0  0  0  0  0  0
   -1.0286   -0.2563   -0.6662 C   0  0  0  0  0  0  0  0  0  0  0  0
   -0.6607    0.2551   -1.7146 O   0  0  0  0  0  0  0  0  0  0  0  0
   -0.3976   -0.2268    0.5631 N   0  0  0  0  0  0  0  0  0  0  0  0
    0.8344    0.3816    0.8773 C   0  0  0  0  0  0  0  0  0  0  0  0
    1.6406    1.0388   -0.0563 C   0  0  0  0  0  0  0  0  0  0  0  0
    2.8455    1.6325    0.3364 C   0  0  0  0  0  0  0  0  0  0  0  0
    3.2543    1.5543    1.6684 C   0  0  0  0  0  0  0  0  0  0  0  0
    4.7555    2.3511    2.1794 S   0  0  0  0  0  6  0  0  0  0  0  0
    5.0841    3.3942    1.2341 O   0  0  0  0  0  0  0  0  0  0  0  0
    4.6260    2.6512    3.5919 O   0  0  0  0  0  0  0  0  0  0  0  0
    5.8726    1.0972    2.0950 N   0  0  0  0  0  0  0  0  0  0  0  0
    6.6174    0.9974    0.8551 C   0  0  0  0  0  0  0  0  0  0  0  0
    6.0754    1.1302   -0.3849 O   0  0  0  0  0  0  0  0  0  0  0  0
    7.0480    0.9387   -1.3446 N   0  0  0  0  0  0  0  0  0  0  0  0
    8.1751    0.6891   -0.6704 C   0  0  0  0  0  0  0  0  0  0  0  0
    9.4380    0.4481   -1.4077 C   0  0  0  0  0  0  0  0  0  0  0  0
    7.9588    0.6996    0.7381 C   0  0  0  0  0  0  0  0  0  0  0  0
    8.9678    0.4577    1.7940 C   0  0  0  0  0  0  0  0  0  0  0  0
    2.4572    0.9068    2.6143 C   0  0  0  0  0  0  0  0  0  0  0  0
    1.2538    0.3189    2.2142 C   0  0  0  0  0  0  0  0  0  0  0  0
   -2.4855   -2.2968   -0.2864 C   0  0  0  0  0  0  0  0  0  0  0  0
   -1.4172   -3.1832    0.0090 C   0  0  0  0  0  0  0  0  0  0  0  0
   -1.6617   -4.5076    0.3667 C   0  0  0  0  0  0  0  0  0  0  0  0
   -2.9689   -4.9674    0.4260 C   0  0  0  0  0  0  0  0  0  0  0  0
   -4.0211   -4.1024    0.1167 C   0  0  0  0  0  0  0  0  0  0  0  0
   -3.8047   -2.7795   -0.2454 C   0  0  0  0  0  0  0  0  0  0  0  0
   -4.8711   -2.0176   -0.5424 N   0  0  0  0  0  0  0  0  0  0  0  0
   -7.0898   -0.6627   -1.7016 C   0  0  0  0  0  0  0  0  0  0  0  0
   -8.2726    0.0166   -2.0159 C   0  0  0  0  0  0  0  0  0  0  0  0
  -10.2522    2.1736   -1.2976 H   0  0  0  0  0  0  0  0  0  0  0  0
  -10.1734    1.6325   -2.9942 H   0  0  0  0  0  0  0  0  0  0  0  0
   -9.4166    3.1552   -2.5265 H   0  0  0  0  0  0  0  0  0  0  0  0
   -7.2706    3.1744   -1.2731 H   0  0  0  0  0  0  0  0  0  0  0  0
   -5.2141    1.9955   -0.7158 H   0  0  0  0  0  0  0  0  0  0  0  0
   -3.2982    0.8673   -1.3131 H   0  0  0  0  0  0  0  0  0  0  0  0
   -0.8916   -0.6549    1.3379 H   0  0  0  0  0  0  0  0  0  0  0  0
    1.3577    1.1151   -1.1025 H   0  0  0  0  0  0  0  0  0  0  0  0
    3.4501    2.1523   -0.4052 H   0  0  0  0  0  0  0  0  0  0  0  0
    6.3711    0.9772    2.9718 H   0  0  0  0  0  0  0  0  0  0  0  0
   10.0291    1.3695   -1.4554 H   0  0  0  0  0  0  0  0  0  0  0  0
   10.0391   -0.3226   -0.9123 H   0  0  0  0  0  0  0  0  0  0  0  0
    9.2435    0.1105   -2.4326 H   0  0  0  0  0  0  0  0  0  0  0  0
    9.7789    1.1895    1.7191 H   0  0  0  0  0  0  0  0  0  0  0  0
    9.3967   -0.5440    1.6893 H   0  0  0  0  0  0  0  0  0  0  0  0
    8.5420    0.5344    2.7985 H   0  0  0  0  0  0  0  0  0  0  0  0
    2.7569    0.8614    3.6588 H   0  0  0  0  0  0  0  0  0  0  0  0
    0.6454   -0.1792    2.9656 H   0  0  0  0  0  0  0  0  0  0  0  0
   -0.3818   -2.8536   -0.0597 H   0  0  0  0  0  0  0  0  0  0  0  0
   -0.8343   -5.1778    0.5865 H   0  0  0  0  0  0  0  0  0  0  0  0
   -3.1770   -5.9989    0.6990 H   0  0  0  0  0  0  0  0  0  0  0  0
   -5.0430   -4.4742    0.1526 H   0  0  0  0  0  0  0  0  0  0  0  0
   -7.0646   -1.7452   -1.8206 H   0  0  0  0  0  0  0  0  0  0  0  0
   -9.1327   -0.5521   -2.3628 H   0  0  0  0  0  0  0  0  0  0  0  0
  1  2  1  0
  2  3  2  0
  3  4  1  0
  4  5  2  0
  5  6  1  0
  6  7  2  0
  7  8  1  0
  8  9  1  0
  9 10  2  0
  9 11  1  0
 11 12  1  0
 12 13  2  0
 13 14  1  0
 14 15  2  0
 15 16  1  0
 16 17  2  0
 16 18  2  0
 16 19  1  0
 19 20  1  0
 20 21  1  0
 21 22  1  0
 22 23  2  0
 23 24  1  0
 23 25  1  0
 25 26  1  0
 15 27  1  0
 27 28  2  0
  8 29  2  0
 29 30  1  0
 30 31  2  0
 31 32  1  0
 32 33  2  0
 33 34  1  0
 34 35  2  0
  5 36  1  0
 36 37  2  0
 37  2  1  0
 35  6  1  0
 28 12  1  0
 34 29  1  0
 25 20  2  0
  1 38  1  0
  1 39  1  0
  1 40  1  0
  3 41  1  0
  4 42  1  0
  7 43  1  0
 11 44  1  0
 13 45  1  0
 14 46  1  0
 19 47  1  0
 24 48  1  0
 24 49  1  0
 24 50  1  0
 26 51  1  0
 26 52  1  0
 26 53  1  0
 27 54  1  0
 28 55  1  0
 30 56  1  0
 31 57  1  0
 32 58  1  0
 33 59  1  0
 36 60  1  0
 37 61  1  0
M  END
$$$$
