
     RDKit          3D

 61 66  0  0  0  0  0  0  0  0999 V2000
   10.0136    0.1471    0.1601 F   0  0  0  0  0  0  0  0  0  0  0  0
    9.0339   -0.7447    0.4771 C   0  0  0  0  0  0  0  0  0  0  0  0
    9.3277   -1.1907    1.7311 F   0  0  0  0  0  0  0  0  0  0  0  0
    9.2202   -1.8128   -0.3487 F   0  0  0  0  0  0  0  0  0  0  0  0
    7.6549   -0.1431    0.3722 C   0  0  0  0  0  0  0  0  0  0  0  0
    7.0925    0.5441    1.4579 C   0  0  0  0  0  0  0  0  0  0  0  0
    5.8251    1.1241    1.3553 C   0  0  0  0  0  0  0  0  0  0  0  0
    5.0933    1.0293    0.1641 C   0  0  0  0  0  0  0  0  0  0  0  0
    3.7296    1.6802    0.0436 C   0  0  0  0  0  0  0  0  0  0  0  0
    2.6976    0.7785   -0.4926 N   0  0  0  0  0  0  0  0  0  0  0  0
    1.4723    1.5386   -0.8261 C   0  0  0  0  0  0  0  0  0  0  0  0
    0.3417    0.6337   -1.3597 C   0  0  0  0  0  0  0  0  0  0  0  0
    0.0197   -0.4266   -0.3833 N   0  0  0  0  0  0  0  0  0  0  0  0
   -1.1690   -1.1274   -0.5767 C   0  0  0  0  0  0  0  0  0  0  0  0
   -1.1240   -2.3982   -0.8878 N   0  0  0  0  0  0  0  0  0  0  0  0
   -2.3116   -3.1206   -1.1184 C   0  0  0  0  0  0  0  0  0  0  0  0
   -2.2101   -4.4687   -1.4689 C   0  0  0  0  0  0  0  0  0  0  0  0
   -3.3552   -5.2298   -1.7152 C   0  0  0  0  0  0  0  0  0  0  0  0
   -4.6190   -4.6469   -1.6126 C   0  0  0  0  0  0  0  0  0  0  0  0
   -4.7452   -3.3017   -1.2648 C   0  0  0  0  0  0  0  0  0  0  0  0
   -3.5902   -2.5520   -1.0228 C   0  0  0  0  0  0  0  0  0  0  0  0
   -3.6256   -1.1956   -0.6598 N   0  0  0  0  0  0  0  0  0  0  0  0
   -4.7063   -0.3678   -0.4641 C   0  0  0  0  0  0  0  0  0  0  0  0
   -4.2449    0.8699   -0.0531 C   0  0  0  0  0  0  0  0  0  0  0  0
   -5.1062    2.0011    0.2625 C   0  0  0  0  0  0  0  0  0  0  0  0
   -4.6775    3.3067   -0.0136 C   0  0  0  0  0  0  0  0  0  0  0  0
   -5.4903    4.4022    0.2887 C   0  0  0  0  0  0  0  0  0  0  0  0
   -6.7381    4.2036    0.8762 C   0  0  0  0  0  0  0  0  0  0  0  0
   -7.1745    2.9110    1.1596 C   0  0  0  0  0  0  0  0  0  0  0  0
   -6.3634    1.8151    0.8528 C   0  0  0  0  0  0  0  0  0  0  0  0
   -2.8260    0.7805   -0.0259 C   0  0  0  0  0  0  0  0  0  0  0  0
   -2.4673   -0.4927   -0.4294 C   0  0  0  0  0  0  0  0  0  0  0  0
    1.2247   -1.2127   -0.0407 C   0  0  0  0  0  0  0  0  0  0  0  0
    2.3491   -0.2890    0.4761 C   0  0  0  0  0  0  0  0  0  0  0  0
    5.6630    0.3567   -0.9268 C   0  0  0  0  0  0  0  0  0  0  0  0
    6.9291   -0.2244   -0.8243 C   0  0  0  0  0  0  0  0  0  0  0  0
    7.6434    0.6322    2.3923 H   0  0  0  0  0  0  0  0  0  0  0  0
    5.4155    1.6542    2.2124 H   0  0  0  0  0  0  0  0  0  0  0  0
    3.4151    2.0903    1.0122 H   0  0  0  0  0  0  0  0  0  0  0  0
    3.8586    2.5381   -0.6298 H   0  0  0  0  0  0  0  0  0  0  0  0
    1.7040    2.2837   -1.5963 H   0  0  0  0  0  0  0  0  0  0  0  0
    1.1076    2.0791    0.0575 H   0  0  0  0  0  0  0  0  0  0  0  0
    0.6462    0.1752   -2.3092 H   0  0  0  0  0  0  0  0  0  0  0  0
   -0.5321    1.2578   -1.5707 H   0  0  0  0  0  0  0  0  0  0  0  0
   -1.2269   -4.9246   -1.5507 H   0  0  0  0  0  0  0  0  0  0  0  0
   -3.2582   -6.2775   -1.9874 H   0  0  0  0  0  0  0  0  0  0  0  0
   -5.5072   -5.2439   -1.8032 H   0  0  0  0  0  0  0  0  0  0  0  0
   -5.7385   -2.8716   -1.1906 H   0  0  0  0  0  0  0  0  0  0  0  0
   -5.7155   -0.7171   -0.6261 H   0  0  0  0  0  0  0  0  0  0  0  0
   -3.7113    3.4839   -0.4786 H   0  0  0  0  0  0  0  0  0  0  0  0
   -5.1483    5.4096    0.0636 H   0  0  0  0  0  0  0  0  0  0  0  0
   -7.3691    5.0556    1.1140 H   0  0  0  0  0  0  0  0  0  0  0  0
   -8.1450    2.7538    1.6229 H   0  0  0  0  0  0  0  0  0  0  0  0
   -6.7197    0.8178    1.0944 H   0  0  0  0  0  0  0  0  0  0  0  0
   -2.1347    1.5583    0.2702 H   0  0  0  0  0  0  0  0  0  0  0  0
    1.5737   -1.7729   -0.9178 H   0  0  0  0  0  0  0  0  0  0  0  0
    0.9838   -1.9347    0.7487 H   0  0  0  0  0  0  0  0  0  0  0  0
    3.2246   -0.9157    0.6811 H   0  0  0  0  0  0  0  0  0  0  0  0
    2.0319    0.1554    1.4290 H   0  0  0  0  0  0  0  0  0  0  0  0
    5.1124    0.2788   -1.8630 H   0  0  0  0  0  0  0  0  0  0  0  0
    7.3462   -0.7430   -1.6870 H   0  0  0  0  0  0  0  0  0  0  0  0
  1  2  1  0
  2  3  1  0
  2  4  1  0
  2  5  1  0
  5  6  2  0
  6  7  1  0
  7  8  2  0
  8  9  1  0
  9 10  1  0
 10 11  1  0
 11 12  1  0
 12 13  1  0
 13 14  1  0
 14 15  2  0
 15 16  1  0
 16 17  2  0
 17 18  1  0
 18 19  2  0
 19 20  1  0
 20 21  2  0
 21 22  1  0
 22 23  1  0
 23 24  2  0
 24 25  1  0
 25 26  2  0
 26 27  1  0
 27 28  2  0
 28 29  1  0
 29 30  2  0
 24 31  1  0
 31 32  2  0
 13 33  1  0
 33 34  1  0
  8 35  1  0
 35 36  2  0
 36  5  1  0
 34 10  1  0
 32 14  1  0
 21 16  1  0
 32 22  1  0
 30 25  1  0
  6 37  1  0
  7 38  1  0
  9 39  1  0
  9 40  1  0
 11 41  1  0
 11 42  1  0
 12 43  1  0
 12 44  1  0
 17 45  1  0
 18 46  1  0
 19 47  1  0
 20 48  1  0
 23 49  1  0
 26 50  1  0
 27 51  1  0
 28 52  1  0
 29 53  1  0
 30 54  1  0
 31 55  1  0
 33 56  1  0
 33 57  1  0
 34 58  1  0
 34 59  1  0
 35 60  1  0
 36 61  1  0
M  END
$$$$
