
     RDKit          3D

 51 53  0  0  0  0  0  0  0  0999 V2000
    9.6798   -0.6173   -1.6559 C   0  0  0  0  0  0  0  0  0  0  0  0
    8.2601   -0.6058   -1.5827 O   0  0  0  0  0  0  0  0  0  0  0  0
    7.7008   -0.1305   -0.4272 C   0  0  0  0  0  0  0  0  0  0  0  0
    8.3999    0.3418    0.6832 C   0  0  0  0  0  0  0  0  0  0  0  0
    7.7027    0.7998    1.8018 C   0  0  0  0  0  0  0  0  0  0  0  0
    6.3072    0.7867    1.8127 C   0  0  0  0  0  0  0  0  0  0  0  0
    5.5938    0.3157    0.7059 C   0  0  0  0  0  0  0  0  0  0  0  0
    4.1918    0.3340    0.7920 N   0  0  0  0  0  0  0  0  0  0  0  0
    3.2768   -0.0724   -0.1550 C   0  0  0  0  0  0  0  0  0  0  0  0
    3.4627   -0.5359   -1.2720 O   0  0  0  0  0  0  0  0  0  0  0  0
    1.8276    0.1109    0.3280 C   0  0  0  0  0  0  0  0  0  0  0  0
    1.6230    0.5699    1.4445 O   0  0  0  0  0  0  0  0  0  0  0  0
    0.9104   -0.2927   -0.6224 N   0  0  0  0  0  0  0  0  0  0  0  0
   -0.4273   -0.2057   -0.3798 N   0  0  0  0  0  0  0  0  0  0  0  0
   -1.1954   -0.6165   -1.3352 C   0  0  0  0  0  0  0  0  0  0  0  0
   -2.6410   -0.5638   -1.1987 C   0  0  0  0  0  0  0  0  0  0  0  0
   -3.5663   -0.8873   -2.2202 C   0  0  0  0  0  0  0  0  0  0  0  0
   -4.8446   -0.6872   -1.7392 C   0  0  0  0  0  0  0  0  0  0  0  0
   -6.1167   -0.8034   -2.5093 C   0  0  0  0  0  0  0  0  0  0  0  0
   -4.7426   -0.2445   -0.4233 N   0  0  0  0  0  0  0  0  0  0  0  0
   -5.8295    0.1491    0.4122 C   0  0  0  0  0  0  0  0  0  0  0  0
   -6.9855   -0.6353    0.4869 C   0  0  0  0  0  0  0  0  0  0  0  0
   -8.0471   -0.2375    1.3044 C   0  0  0  0  0  0  0  0  0  0  0  0
   -7.9622    0.9439    2.0469 C   0  0  0  0  0  0  0  0  0  0  0  0
   -9.3145    1.3710    3.0335 Cl  0  0  0  0  0  0  0  0  0  0  0  0
   -6.8075    1.7305    1.9723 C   0  0  0  0  0  0  0  0  0  0  0  0
   -6.6363    3.2071    2.8538 Cl  0  0  0  0  0  0  0  0  0  0  0  0
   -5.7420    1.3332    1.1570 C   0  0  0  0  0  0  0  0  0  0  0  0
   -3.3906   -0.2238   -0.0763 C   0  0  0  0  0  0  0  0  0  0  0  0
   -2.8967    0.0497    1.3120 C   0  0  0  0  0  0  0  0  0  0  0  0
    6.2996   -0.1408   -0.4093 C   0  0  0  0  0  0  0  0  0  0  0  0
   10.0871    0.3967   -1.5854 H   0  0  0  0  0  0  0  0  0  0  0  0
    9.9609   -1.0214   -2.6333 H   0  0  0  0  0  0  0  0  0  0  0  0
   10.1094   -1.2709   -0.8896 H   0  0  0  0  0  0  0  0  0  0  0  0
    9.4840    0.3669    0.7105 H   0  0  0  0  0  0  0  0  0  0  0  0
    8.2479    1.1681    2.6673 H   0  0  0  0  0  0  0  0  0  0  0  0
    5.7887    1.1493    2.6969 H   0  0  0  0  0  0  0  0  0  0  0  0
    3.7727    0.6870    1.6508 H   0  0  0  0  0  0  0  0  0  0  0  0
    1.2688   -0.6551   -1.5050 H   0  0  0  0  0  0  0  0  0  0  0  0
   -0.7983   -1.0044   -2.2902 H   0  0  0  0  0  0  0  0  0  0  0  0
   -3.3273   -1.2035   -3.2287 H   0  0  0  0  0  0  0  0  0  0  0  0
   -6.6209   -1.7479   -2.2854 H   0  0  0  0  0  0  0  0  0  0  0  0
   -6.7946    0.0302   -2.3030 H   0  0  0  0  0  0  0  0  0  0  0  0
   -5.9133   -0.7900   -3.5860 H   0  0  0  0  0  0  0  0  0  0  0  0
   -7.0637   -1.5798   -0.0453 H   0  0  0  0  0  0  0  0  0  0  0  0
   -8.9369   -0.8604    1.3650 H   0  0  0  0  0  0  0  0  0  0  0  0
   -4.8642    1.9715    1.0826 H   0  0  0  0  0  0  0  0  0  0  0  0
   -3.6539   -0.1570    2.0735 H   0  0  0  0  0  0  0  0  0  0  0  0
   -2.0498   -0.5983    1.5589 H   0  0  0  0  0  0  0  0  0  0  0  0
   -2.5738    1.0912    1.4043 H   0  0  0  0  0  0  0  0  0  0  0  0
    5.7866   -0.5148   -1.2900 H   0  0  0  0  0  0  0  0  0  0  0  0
  1  2  1  0
  2  3  1  0
  3  4  2  0
  4  5  1  0
  5  6  2  0
  6  7  1  0
  7  8  1  0
  8  9  1  0
  9 10  2  0
  9 11  1  0
 11 12  2  0
 11 13  1  0
 13 14  1  0
 14 15  2  3
 15 16  1  0
 16 17  1  0
 17 18  2  0
 18 19  1  0
 18 20  1  0
 20 21  1  0
 21 22  2  0
 22 23  1  0
 23 24  2  0
 24 25  1  0
 24 26  1  0
 26 27  1  0
 26 28  2  0
 20 29  1  0
 29 30  1  0
  7 31  2  0
 31  3  1  0
 29 16  2  0
 28 21  1  0
  1 32  1  0
  1 33  1  0
  1 34  1  0
  4 35  1  0
  5 36  1  0
  6 37  1  0
  8 38  1  0
 13 39  1  0
 15 40  1  0
 17 41  1  0
 19 42  1  0
 19 43  1  0
 19 44  1  0
 22 45  1  0
 23 46  1  0
 28 47  1  0
 30 48  1  0
 30 49  1  0
 30 50  1  0
 31 51  1  0
M  END
$$$$
