
     RDKit          3D

 49 53  0  0  0  0  0  0  0  0999 V2000
    6.8294   -1.3370    2.4673 C   0  0  0  0  0  0  0  0  0  0  0  0
    5.5012   -0.6518    2.5269 C   0  0  0  0  0  0  0  0  0  0  0  0
    5.3272    0.7403    3.4964 S   0  0  0  0  0  0  0  0  0  0  0  0
    3.6928    0.9159    3.0765 C   0  0  0  0  0  0  0  0  0  0  0  0
    2.9833    1.9345    3.5909 N   0  0  0  0  0  0  0  0  0  0  0  0
    1.7191    1.9434    3.1775 C   0  0  0  0  0  0  0  0  0  0  0  0
    1.1373    1.0797    2.3395 N   0  0  0  0  0  0  0  0  0  0  0  0
    1.8862    0.0728    1.8395 C   0  0  0  0  0  0  0  0  0  0  0  0
    1.0920   -1.0763    0.7554 S   0  0  0  0  0  0  0  0  0  0  0  0
    0.0052    0.0547   -0.2014 C   0  0  0  0  0  0  0  0  0  0  0  0
    0.8219    0.9137   -1.1639 C   0  0  0  0  0  0  0  0  0  0  0  0
   -1.0042   -0.7734   -1.0226 C   0  0  0  0  0  0  0  0  0  0  0  0
   -0.6914   -1.8105   -1.6101 O   0  0  0  0  0  0  0  0  0  0  0  0
   -2.2613   -0.1513   -1.1392 N   0  0  0  0  0  0  0  0  0  0  0  0
   -3.1055   -0.0453    0.0271 C   0  0  0  0  0  0  0  0  0  0  0  0
   -2.7932   -0.8030    1.1795 C   0  0  0  0  0  0  0  0  0  0  0  0
   -3.5637   -0.7379    2.3443 C   0  0  0  0  0  0  0  0  0  0  0  0
   -4.6807    0.0796    2.3862 C   0  0  0  0  0  0  0  0  0  0  0  0
   -5.0272    0.8160    1.2577 C   0  0  0  0  0  0  0  0  0  0  0  0
   -4.2572    0.7514    0.0802 C   0  0  0  0  0  0  0  0  0  0  0  0
   -4.8190    1.7447   -1.2680 S   0  0  0  0  0  0  0  0  0  0  0  0
   -3.9109    1.0274   -2.6086 C   0  0  0  0  0  0  0  0  0  0  0  0
   -4.3575    1.3764   -3.8987 C   0  0  0  0  0  0  0  0  0  0  0  0
   -3.6752    0.9550   -5.0344 C   0  0  0  0  0  0  0  0  0  0  0  0
   -2.5293    0.1923   -4.8882 C   0  0  0  0  0  0  0  0  0  0  0  0
   -2.0803   -0.1560   -3.6093 C   0  0  0  0  0  0  0  0  0  0  0  0
   -2.7672    0.2297   -2.4368 C   0  0  0  0  0  0  0  0  0  0  0  0
    3.2409   -0.0629    2.2008 C   0  0  0  0  0  0  0  0  0  0  0  0
    4.3208   -0.9926    1.8759 C   0  0  0  0  0  0  0  0  0  0  0  0
    4.1953   -2.1711    0.9575 C   0  0  0  0  0  0  0  0  0  0  0  0
    7.5801   -0.8540    3.1014 H   0  0  0  0  0  0  0  0  0  0  0  0
    7.2092   -1.3343    1.4401 H   0  0  0  0  0  0  0  0  0  0  0  0
    6.7336   -2.3763    2.7988 H   0  0  0  0  0  0  0  0  0  0  0  0
    1.0905    2.7404    3.5624 H   0  0  0  0  0  0  0  0  0  0  0  0
   -0.5344    0.7079    0.4896 H   0  0  0  0  0  0  0  0  0  0  0  0
    0.1643    1.5762   -1.7380 H   0  0  0  0  0  0  0  0  0  0  0  0
    1.5402    1.5490   -0.6357 H   0  0  0  0  0  0  0  0  0  0  0  0
    1.3695    0.3008   -1.8892 H   0  0  0  0  0  0  0  0  0  0  0  0
   -1.9560   -1.4972    1.1935 H   0  0  0  0  0  0  0  0  0  0  0  0
   -3.2901   -1.3364    3.2101 H   0  0  0  0  0  0  0  0  0  0  0  0
   -5.2878    0.1370    3.2859 H   0  0  0  0  0  0  0  0  0  0  0  0
   -5.9142    1.4462    1.2997 H   0  0  0  0  0  0  0  0  0  0  0  0
   -5.2436    1.9966   -4.0247 H   0  0  0  0  0  0  0  0  0  0  0  0
   -4.0315    1.2304   -6.0232 H   0  0  0  0  0  0  0  0  0  0  0  0
   -1.9781   -0.1412   -5.7643 H   0  0  0  0  0  0  0  0  0  0  0  0
   -1.1790   -0.7620   -3.5724 H   0  0  0  0  0  0  0  0  0  0  0  0
    5.1381   -2.7180    0.8598 H   0  0  0  0  0  0  0  0  0  0  0  0
    3.9081   -1.8454   -0.0470 H   0  0  0  0  0  0  0  0  0  0  0  0
    3.4526   -2.8779    1.3399 H   0  0  0  0  0  0  0  0  0  0  0  0
  1  2  1  0
  2  3  1  0
  3  4  1  0
  4  5  2  0
  5  6  1  0
  6  7  2  0
  7  8  1  0
  8  9  1  0
  9 10  1  0
 10 11  1  0
 10 12  1  0
 12 13  2  0
 12 14  1  0
 14 15  1  0
 15 16  2  0
 16 17  1  0
 17 18  2  0
 18 19  1  0
 19 20  2  0
 20 21  1  0
 21 22  1  0
 22 23  2  0
 23 24  1  0
 24 25  2  0
 25 26  1  0
 26 27  2  0
  8 28  2  0
 28 29  1  0
 29 30  1  0
 29  2  2  0
 28  4  1  0
 27 14  1  0
 20 15  1  0
 27 22  1  0
  1 31  1  0
  1 32  1  0
  1 33  1  0
  6 34  1  0
 10 35  1  0
 11 36  1  0
 11 37  1  0
 11 38  1  0
 16 39  1  0
 17 40  1  0
 18 41  1  0
 19 42  1  0
 23 43  1  0
 24 44  1  0
 25 45  1  0
 26 46  1  0
 30 47  1  0
 30 48  1  0
 30 49  1  0
M  END
$$$$
