
     RDKit          3D

 31 32  0  0  0  0  0  0  0  0999 V2000
    0.4182   -3.5857    1.3733 C   0  0  0  0  0  0  0  0  0  0  0  0
    0.9998   -2.2393    2.4407 S   0  0  0  0  0  0  0  0  0  0  0  0
    1.7896   -1.1593    1.2556 C   0  0  0  0  0  0  0  0  0  0  0  0
    2.9443   -0.4760    1.6565 C   0  0  0  0  0  0  0  0  0  0  0  0
    3.5927    0.4018    0.7843 C   0  0  0  0  0  0  0  0  0  0  0  0
    3.0877    0.6089   -0.4978 C   0  0  0  0  0  0  0  0  0  0  0  0
    1.9384   -0.0675   -0.9033 C   0  0  0  0  0  0  0  0  0  0  0  0
    1.3740    0.1835   -2.1916 N   0  0  0  0  0  0  0  0  0  0  0  0
    0.2485    1.4597   -2.2687 S   0  0  0  0  0  6  0  0  0  0  0  0
   -0.1836    1.5573   -3.6477 O   0  0  0  0  0  0  0  0  0  0  0  0
    0.8048    2.6103   -1.5844 O   0  0  0  0  0  0  0  0  0  0  0  0
   -1.1973    1.0548   -1.3805 C   0  0  0  0  0  0  0  0  0  0  0  0
   -1.9753    1.9348   -0.6518 C   0  0  0  0  0  0  0  0  0  0  0  0
   -2.9803    1.1716   -0.1345 N   0  0  0  0  0  0  0  0  0  0  0  0
   -4.0562    1.6270    0.7088 C   0  0  0  0  0  0  0  0  0  0  0  0
   -2.7952   -0.1152   -0.5538 C   0  0  0  0  0  0  0  0  0  0  0  0
   -1.7252   -0.2278   -1.3088 N   0  0  0  0  0  0  0  0  0  0  0  0
    1.2842   -0.9367   -0.0283 C   0  0  0  0  0  0  0  0  0  0  0  0
    0.0788   -4.4130    2.0027 H   0  0  0  0  0  0  0  0  0  0  0  0
    1.2253   -3.9495    0.7316 H   0  0  0  0  0  0  0  0  0  0  0  0
   -0.4253   -3.2596    0.7596 H   0  0  0  0  0  0  0  0  0  0  0  0
    3.3476   -0.6193    2.6572 H   0  0  0  0  0  0  0  0  0  0  0  0
    4.4832    0.9326    1.1114 H   0  0  0  0  0  0  0  0  0  0  0  0
    3.5829    1.3137   -1.1600 H   0  0  0  0  0  0  0  0  0  0  0  0
    2.0645    0.3384   -2.9248 H   0  0  0  0  0  0  0  0  0  0  0  0
   -1.8793    2.9972   -0.4729 H   0  0  0  0  0  0  0  0  0  0  0  0
   -4.0111    2.7149    0.8037 H   0  0  0  0  0  0  0  0  0  0  0  0
   -3.9443    1.1610    1.6910 H   0  0  0  0  0  0  0  0  0  0  0  0
   -5.0045    1.3339    0.2512 H   0  0  0  0  0  0  0  0  0  0  0  0
   -3.4630   -0.9231   -0.2821 H   0  0  0  0  0  0  0  0  0  0  0  0
    0.3762   -1.4293   -0.3615 H   0  0  0  0  0  0  0  0  0  0  0  0
  1  2  1  0
  2  3  1  0
  3  4  2  0
  4  5  1  0
  5  6  2  0
  6  7  1  0
  7  8  1  0
  8  9  1  0
  9 10  2  0
  9 11  2  0
  9 12  1  0
 12 13  2  0
 13 14  1  0
 14 15  1  0
 14 16  1  0
 16 17  2  0
  7 18  2  0
 18  3  1  0
 17 12  1  0
  1 19  1  0
  1 20  1  0
  1 21  1  0
  4 22  1  0
  5 23  1  0
  6 24  1  0
  8 25  1  0
 13 26  1  0
 15 27  1  0
 15 28  1  0
 15 29  1  0
 16 30  1  0
 18 31  1  0
M  END
$$$$
