
     RDKit          3D

 59 64  0  0  0  0  0  0  0  0999 V2000
    1.2363    0.5473   -4.0191 C   0  0  0  0  0  0  0  0  0  0  0  0
    1.4976   -0.4768   -3.0641 O   0  0  0  0  0  0  0  0  0  0  0  0
    2.6268   -0.3145   -2.2892 C   0  0  0  0  0  0  0  0  0  0  0  0
    3.7059    0.5114   -2.6435 C   0  0  0  0  0  0  0  0  0  0  0  0
    4.8102    0.5915   -1.7731 C   0  0  0  0  0  0  0  0  0  0  0  0
    4.7920   -0.1605   -0.6049 C   0  0  0  0  0  0  0  0  0  0  0  0
    3.7463   -1.0008   -0.2261 C   0  0  0  0  0  0  0  0  0  0  0  0
    2.6491   -1.0678   -1.0916 C   0  0  0  0  0  0  0  0  0  0  0  0
    1.5078   -1.8592   -0.8295 N   0  0  0  0  0  0  0  0  0  0  0  0
    1.2003   -2.5720    0.3086 C   0  0  0  0  0  0  0  0  0  0  0  0
    1.9269   -2.7172    1.2908 O   0  0  0  0  0  0  0  0  0  0  0  0
   -0.1294   -3.3099    0.2526 C   0  0  0  0  0  0  0  0  0  0  0  0
   -1.4803   -2.3953   -0.5471 S   0  0  0  0  0  0  0  0  0  0  0  0
   -1.5616   -0.9985    0.4659 C   0  0  0  0  0  0  0  0  0  0  0  0
   -0.7756    0.0430    0.3646 N   0  0  0  0  0  0  0  0  0  0  0  0
   -1.1459    0.9380    1.3350 N   0  0  0  0  0  0  0  0  0  0  0  0
   -2.1620    0.4297    2.0061 C   0  0  0  0  0  0  0  0  0  0  0  0
   -2.8343    1.0811    3.1717 C   0  0  0  0  0  0  0  0  0  0  0  0
   -4.2294    1.5608    2.8832 C   0  0  0  0  0  0  0  0  0  0  0  0
   -5.4180    1.1105    3.4280 C   0  0  0  0  0  0  0  0  0  0  0  0
   -6.5491    1.8114    2.9149 C   0  0  0  0  0  0  0  0  0  0  0  0
   -6.1883    2.7841    2.0107 C   0  0  0  0  0  0  0  0  0  0  0  0
   -4.4960    2.8535    1.7852 S   0  0  0  0  0  0  0  0  0  0  0  0
   -2.4692   -0.8046    1.4707 N   0  0  0  0  0  0  0  0  0  0  0  0
   -3.4974   -1.7226    1.9169 C   0  0  0  0  0  0  0  0  0  0  0  0
   -4.7646   -1.5751    1.1573 C   0  0  0  0  0  0  0  0  0  0  0  0
   -5.1974   -0.7752    0.1171 C   0  0  0  0  0  0  0  0  0  0  0  0
   -6.5500   -1.1191   -0.1189 C   0  0  0  0  0  0  0  0  0  0  0  0
   -6.8564   -2.1115    0.7807 C   0  0  0  0  0  0  0  0  0  0  0  0
   -5.7823   -2.3939    1.5607 O   0  0  0  0  0  0  0  0  0  0  0  0
    5.9336    0.0419    0.1116 O   0  0  0  0  0  0  0  0  0  0  0  0
    6.6923    0.9278   -0.5890 C   0  0  0  0  0  0  0  0  0  0  0  0
    7.9401    1.4076   -0.1956 C   0  0  0  0  0  0  0  0  0  0  0  0
    8.5592    2.3188   -1.0566 C   0  0  0  0  0  0  0  0  0  0  0  0
    7.9477    2.7166   -2.2486 C   0  0  0  0  0  0  0  0  0  0  0  0
    6.6904    2.2160   -2.6182 C   0  0  0  0  0  0  0  0  0  0  0  0
    6.0487    1.2988   -1.7655 C   0  0  0  0  0  0  0  0  0  0  0  0
    0.2292    0.3851   -4.4164 H   0  0  0  0  0  0  0  0  0  0  0  0
    1.9383    0.4827   -4.8584 H   0  0  0  0  0  0  0  0  0  0  0  0
    1.2581    1.5407   -3.5579 H   0  0  0  0  0  0  0  0  0  0  0  0
    3.7201    1.0849   -3.5617 H   0  0  0  0  0  0  0  0  0  0  0  0
    3.8094   -1.5502    0.7030 H   0  0  0  0  0  0  0  0  0  0  0  0
    0.7688   -1.7453   -1.5199 H   0  0  0  0  0  0  0  0  0  0  0  0
    0.0277   -4.2511   -0.2889 H   0  0  0  0  0  0  0  0  0  0  0  0
   -0.4365   -3.5544    1.2781 H   0  0  0  0  0  0  0  0  0  0  0  0
   -2.8474    0.3825    4.0185 H   0  0  0  0  0  0  0  0  0  0  0  0
   -2.2272    1.9350    3.5041 H   0  0  0  0  0  0  0  0  0  0  0  0
   -5.4823    0.3084    4.1546 H   0  0  0  0  0  0  0  0  0  0  0  0
   -7.5754    1.6122    3.1975 H   0  0  0  0  0  0  0  0  0  0  0  0
   -6.8363    3.4642    1.4728 H   0  0  0  0  0  0  0  0  0  0  0  0
   -3.1116   -2.7424    1.8269 H   0  0  0  0  0  0  0  0  0  0  0  0
   -3.6713   -1.5506    2.9827 H   0  0  0  0  0  0  0  0  0  0  0  0
   -4.6180   -0.0206   -0.3973 H   0  0  0  0  0  0  0  0  0  0  0  0
   -7.2196   -0.6934   -0.8523 H   0  0  0  0  0  0  0  0  0  0  0  0
   -7.7505   -2.6863    0.9875 H   0  0  0  0  0  0  0  0  0  0  0  0
    8.3966    1.0914    0.7355 H   0  0  0  0  0  0  0  0  0  0  0  0
    9.5327    2.7259   -0.7902 H   0  0  0  0  0  0  0  0  0  0  0  0
    8.4501    3.4291   -2.8977 H   0  0  0  0  0  0  0  0  0  0  0  0
    6.2212    2.5369   -3.5433 H   0  0  0  0  0  0  0  0  0  0  0  0
  1  2  1  0
  2  3  1  0
  3  4  2  0
  4  5  1  0
  5  6  2  0
  6  7  1  0
  7  8  2  0
  8  9  1  0
  9 10  1  0
 10 11  2  0
 10 12  1  0
 12 13  1  0
 13 14  1  0
 14 15  2  0
 15 16  1  0
 16 17  2  0
 17 18  1  0
 18 19  1  0
 19 20  2  0
 20 21  1  0
 21 22  2  0
 22 23  1  0
 17 24  1  0
 24 25  1  0
 25 26  1  0
 26 27  2  0
 27 28  1  0
 28 29  2  0
 29 30  1  0
  6 31  1  0
 31 32  1  0
 32 33  2  0
 33 34  1  0
 34 35  2  0
 35 36  1  0
 36 37  2  0
  8  3  1  0
 24 14  1  0
 30 26  1  0
 37 32  1  0
 37  5  1  0
 23 19  1  0
  1 38  1  0
  1 39  1  0
  1 40  1  0
  4 41  1  0
  7 42  1  0
  9 43  1  0
 12 44  1  0
 12 45  1  0
 18 46  1  0
 18 47  1  0
 20 48  1  0
 21 49  1  0
 22 50  1  0
 25 51  1  0
 25 52  1  0
 27 53  1  0
 28 54  1  0
 29 55  1  0
 33 56  1  0
 34 57  1  0
 35 58  1  0
 36 59  1  0
M  END
$$$$
