
     RDKit          3D

 54 58  0  0  0  0  0  0  0  0999 V2000
    4.5119   -0.2382    2.4724 F   0  0  0  0  0  0  0  0  0  0  0  0
    4.0529    0.8374    1.7734 C   0  0  0  0  0  0  0  0  0  0  0  0
    4.1582    1.8996    2.6221 F   0  0  0  0  0  0  0  0  0  0  0  0
    2.7152    0.6339    1.6106 F   0  0  0  0  0  0  0  0  0  0  0  0
    4.7836    1.0344    0.4617 C   0  0  0  0  0  0  0  0  0  0  0  0
    5.6371    2.1457    0.3172 C   0  0  0  0  0  0  0  0  0  0  0  0
    6.3421    2.3641   -0.8664 C   0  0  0  0  0  0  0  0  0  0  0  0
    6.2103    1.4738   -1.9255 C   0  0  0  0  0  0  0  0  0  0  0  0
    5.3744    0.3652   -1.8029 C   0  0  0  0  0  0  0  0  0  0  0  0
    4.6564    0.1277   -0.6165 C   0  0  0  0  0  0  0  0  0  0  0  0
    3.7504   -1.0881   -0.5578 C   0  0  0  0  0  0  0  0  0  0  0  0
    2.3679   -0.8015   -1.1747 C   0  0  0  0  0  0  0  0  0  0  0  0
    1.4888   -1.9848   -1.1602 N   0  0  0  0  0  0  0  0  0  0  0  0
    0.9521   -2.2853    0.1912 C   0  0  0  0  0  0  0  0  0  0  0  0
   -0.1236   -1.3065    0.7153 C   0  0  0  0  0  0  0  0  0  0  0  0
   -1.2298   -1.1720   -0.2554 N   0  0  0  0  0  0  0  0  0  0  0  0
   -2.3985   -0.5544    0.1868 C   0  0  0  0  0  0  0  0  0  0  0  0
   -2.3446    0.2603    1.2101 N   0  0  0  0  0  0  0  0  0  0  0  0
   -3.5042    0.9225    1.6600 C   0  0  0  0  0  0  0  0  0  0  0  0
   -3.3906    1.7941    2.7446 C   0  0  0  0  0  0  0  0  0  0  0  0
   -4.5067    2.4841    3.2255 C   0  0  0  0  0  0  0  0  0  0  0  0
   -5.7527    2.3073    2.6226 C   0  0  0  0  0  0  0  0  0  0  0  0
   -5.8902    1.4411    1.5375 C   0  0  0  0  0  0  0  0  0  0  0  0
   -4.7645    0.7586    1.0670 C   0  0  0  0  0  0  0  0  0  0  0  0
   -4.8148   -0.1388   -0.0118 N   0  0  0  0  0  0  0  0  0  0  0  0
   -5.8871   -0.5308   -0.7780 C   0  0  0  0  0  0  0  0  0  0  0  0
   -5.4496   -1.4794   -1.6776 C   0  0  0  0  0  0  0  0  0  0  0  0
   -4.0642   -1.6581   -1.4574 C   0  0  0  0  0  0  0  0  0  0  0  0
   -3.6851   -0.7946   -0.4451 C   0  0  0  0  0  0  0  0  0  0  0  0
   -0.7409   -0.8116   -1.6002 C   0  0  0  0  0  0  0  0  0  0  0  0
    0.3366   -1.8092   -2.0773 C   0  0  0  0  0  0  0  0  0  0  0  0
    5.7580    2.8544    1.1363 H   0  0  0  0  0  0  0  0  0  0  0  0
    6.9953    3.2283   -0.9596 H   0  0  0  0  0  0  0  0  0  0  0  0
    6.7598    1.6405   -2.8486 H   0  0  0  0  0  0  0  0  0  0  0  0
    5.2856   -0.3215   -2.6437 H   0  0  0  0  0  0  0  0  0  0  0  0
    4.2314   -1.9145   -1.0984 H   0  0  0  0  0  0  0  0  0  0  0  0
    3.6664   -1.4342    0.4764 H   0  0  0  0  0  0  0  0  0  0  0  0
    1.9008    0.0617   -0.6873 H   0  0  0  0  0  0  0  0  0  0  0  0
    2.5360   -0.5017   -2.2180 H   0  0  0  0  0  0  0  0  0  0  0  0
    1.7607   -2.3644    0.9251 H   0  0  0  0  0  0  0  0  0  0  0  0
    0.5078   -3.2890    0.1472 H   0  0  0  0  0  0  0  0  0  0  0  0
    0.3188   -0.3251    0.9223 H   0  0  0  0  0  0  0  0  0  0  0  0
   -0.5112   -1.7030    1.6618 H   0  0  0  0  0  0  0  0  0  0  0  0
   -2.4211    1.9346    3.2153 H   0  0  0  0  0  0  0  0  0  0  0  0
   -4.4009    3.1594    4.0708 H   0  0  0  0  0  0  0  0  0  0  0  0
   -6.6181    2.8462    3.0011 H   0  0  0  0  0  0  0  0  0  0  0  0
   -6.8691    1.3179    1.0866 H   0  0  0  0  0  0  0  0  0  0  0  0
   -6.8771   -0.1273   -0.6217 H   0  0  0  0  0  0  0  0  0  0  0  0
   -6.0655   -1.9937   -2.4041 H   0  0  0  0  0  0  0  0  0  0  0  0
   -3.4104   -2.3460   -1.9773 H   0  0  0  0  0  0  0  0  0  0  0  0
   -1.5561   -0.8153   -2.3304 H   0  0  0  0  0  0  0  0  0  0  0  0
   -0.3363    0.2078   -1.5813 H   0  0  0  0  0  0  0  0  0  0  0  0
   -0.1353   -2.7920   -2.2092 H   0  0  0  0  0  0  0  0  0  0  0  0
    0.6899   -1.5196   -3.0743 H   0  0  0  0  0  0  0  0  0  0  0  0
  1  2  1  0
  2  3  1  0
  2  4  1  0
  2  5  1  0
  5  6  2  0
  6  7  1  0
  7  8  2  0
  8  9  1  0
  9 10  2  0
 10 11  1  0
 11 12  1  0
 12 13  1  0
 13 14  1  0
 14 15  1  0
 15 16  1  0
 16 17  1  0
 17 18  2  0
 18 19  1  0
 19 20  2  0
 20 21  1  0
 21 22  2  0
 22 23  1  0
 23 24  2  0
 24 25  1  0
 25 26  1  0
 26 27  2  0
 27 28  1  0
 28 29  2  0
 16 30  1  0
 30 31  1  0
 10  5  1  0
 31 13  1  0
 29 17  1  0
 24 19  1  0
 29 25  1  0
  6 32  1  0
  7 33  1  0
  8 34  1  0
  9 35  1  0
 11 36  1  0
 11 37  1  0
 12 38  1  0
 12 39  1  0
 14 40  1  0
 14 41  1  0
 15 42  1  0
 15 43  1  0
 20 44  1  0
 21 45  1  0
 22 46  1  0
 23 47  1  0
 26 48  1  0
 27 49  1  0
 28 50  1  0
 30 51  1  0
 30 52  1  0
 31 53  1  0
 31 54  1  0
M  END
$$$$
