
     RDKit          3D

 36 37  0  0  0  0  0  0  0  0999 V2000
    4.1510   -0.3612    1.5972 C   0  0  0  0  0  0  0  0  0  0  0  0
    4.5302    0.2188    0.2887 N   0  0  0  0  0  0  0  0  0  0  0  0
    6.0013    0.3136    0.1457 C   0  0  0  0  0  0  0  0  0  0  0  0
    3.7758   -0.5013   -1.0690 S   0  0  0  0  0  6  0  0  0  0  0  0
    3.9182   -1.9360   -0.9326 O   0  0  0  0  0  0  0  0  0  0  0  0
    4.2206    0.1882   -2.2608 O   0  0  0  0  0  0  0  0  0  0  0  0
    2.0648   -0.0819   -0.8366 C   0  0  0  0  0  0  0  0  0  0  0  0
    1.1119   -1.0883   -0.6591 C   0  0  0  0  0  0  0  0  0  0  0  0
   -0.2300   -0.7410   -0.4765 C   0  0  0  0  0  0  0  0  0  0  0  0
   -0.6177    0.6083   -0.4756 C   0  0  0  0  0  0  0  0  0  0  0  0
   -2.0310    1.0318   -0.2783 C   0  0  0  0  0  0  0  0  0  0  0  0
   -2.3816    2.1981   -0.2024 O   0  0  0  0  0  0  0  0  0  0  0  0
   -2.8526   -0.0465   -0.2212 O   0  0  0  0  0  0  0  0  0  0  0  0
   -4.1993    0.2667    0.1003 C   0  0  0  0  0  0  0  0  0  0  0  0
   -5.1064   -0.8776   -0.2876 C   0  0  0  0  0  0  0  0  0  0  0  0
   -6.2953   -0.6412    0.6072 C   0  0  0  0  0  0  0  0  0  0  0  0
   -5.7536   -0.1324    1.8276 O   0  0  0  0  0  0  0  0  0  0  0  0
   -4.4932    0.3531    1.5887 C   0  0  0  0  0  0  0  0  0  0  0  0
   -3.7457    0.7631    2.4616 O   0  0  0  0  0  0  0  0  0  0  0  0
    0.3509    1.6074   -0.6594 C   0  0  0  0  0  0  0  0  0  0  0  0
    1.6922    1.2651   -0.8439 C   0  0  0  0  0  0  0  0  0  0  0  0
    4.5229   -1.3851    1.6982 H   0  0  0  0  0  0  0  0  0  0  0  0
    4.5780    0.2434    2.4043 H   0  0  0  0  0  0  0  0  0  0  0  0
    3.0669   -0.3504    1.7340 H   0  0  0  0  0  0  0  0  0  0  0  0
    6.2638    0.8955   -0.7424 H   0  0  0  0  0  0  0  0  0  0  0  0
    6.4544   -0.6804    0.0827 H   0  0  0  0  0  0  0  0  0  0  0  0
    6.4272    0.8367    1.0082 H   0  0  0  0  0  0  0  0  0  0  0  0
    1.4018   -2.1372   -0.6612 H   0  0  0  0  0  0  0  0  0  0  0  0
   -0.9607   -1.5335   -0.3329 H   0  0  0  0  0  0  0  0  0  0  0  0
   -4.5405    1.1904   -0.3848 H   0  0  0  0  0  0  0  0  0  0  0  0
   -4.6309   -1.8393   -0.0566 H   0  0  0  0  0  0  0  0  0  0  0  0
   -5.3626   -0.8858   -1.3509 H   0  0  0  0  0  0  0  0  0  0  0  0
   -6.8459   -1.5650    0.8062 H   0  0  0  0  0  0  0  0  0  0  0  0
   -6.9858    0.1023    0.1951 H   0  0  0  0  0  0  0  0  0  0  0  0
    0.0627    2.6578   -0.6592 H   0  0  0  0  0  0  0  0  0  0  0  0
    2.4384    2.0438   -0.9901 H   0  0  0  0  0  0  0  0  0  0  0  0
  1  2  1  0
  2  3  1  0
  2  4  1  0
  4  5  2  0
  4  6  2  0
  4  7  1  0
  7  8  2  0
  8  9  1  0
  9 10  2  0
 10 11  1  0
 11 12  2  0
 11 13  1  0
 13 14  1  0
 14 15  1  0
 15 16  1  0
 16 17  1  0
 17 18  1  0
 18 19  2  0
 10 20  1  0
 20 21  2  0
 21  7  1  0
 18 14  1  0
  1 22  1  0
  1 23  1  0
  1 24  1  0
  3 25  1  0
  3 26  1  0
  3 27  1  0
  8 28  1  0
  9 29  1  0
 14 30  1  0
 15 31  1  0
 15 32  1  0
 16 33  1  0
 16 34  1  0
 20 35  1  0
 21 36  1  0
M  END
$$$$
