
     RDKit          3D

 42 41  0  0  0  0  0  0  0  0999 V2000
   -4.6957   -1.7666    1.7548 C   0  0  0  0  0  0  0  0  0  0  0  0
   -3.9728   -0.4761    1.4783 C   0  0  0  0  0  0  0  0  0  0  0  0
   -4.7495    0.5039    0.6374 C   0  0  0  0  0  0  0  0  0  0  0  0
   -2.7307   -0.1798    1.9072 C   0  0  0  0  0  0  0  0  0  0  0  0
   -1.8335   -1.0216    2.7811 C   0  0  0  0  0  0  0  0  0  0  0  0
   -0.9372   -1.9935    1.9980 C   0  0  0  0  0  0  0  0  0  0  0  0
    0.2121   -1.4552    1.1580 C   0  0  0  0  0  0  0  0  0  0  0  0
    0.8877   -2.5333    0.3402 C   0  0  0  0  0  0  0  0  0  0  0  0
    0.6036   -0.1656    1.1317 C   0  0  0  0  0  0  0  0  0  0  0  0
    1.7484    0.4263    0.3475 C   0  0  0  0  0  0  0  0  0  0  0  0
    1.2637    1.0411   -0.9714 C   0  0  0  0  0  0  0  0  0  0  0  0
    2.4118    1.5672   -1.8162 C   0  0  0  0  0  0  0  0  0  0  0  0
    3.0103    2.8673   -1.3515 C   0  0  0  0  0  0  0  0  0  0  0  0
    2.8063    0.8969   -2.9197 C   0  0  0  0  0  0  0  0  0  0  0  0
    3.9274    1.2087   -3.8654 C   0  0  0  0  0  0  0  0  0  0  0  0
    5.0649    1.6966   -3.1714 O   0  0  0  0  0  0  0  0  0  0  0  0
   -4.9802   -2.2421    0.8077 H   0  0  0  0  0  0  0  0  0  0  0  0
   -4.0935   -2.4909    2.3096 H   0  0  0  0  0  0  0  0  0  0  0  0
   -5.6040   -1.5756    2.3343 H   0  0  0  0  0  0  0  0  0  0  0  0
   -4.2188    1.4521    0.5118 H   0  0  0  0  0  0  0  0  0  0  0  0
   -5.7126    0.7261    1.1056 H   0  0  0  0  0  0  0  0  0  0  0  0
   -4.9356    0.0871   -0.3590 H   0  0  0  0  0  0  0  0  0  0  0  0
   -2.3038    0.7792    1.6126 H   0  0  0  0  0  0  0  0  0  0  0  0
   -2.4448   -1.6011    3.4826 H   0  0  0  0  0  0  0  0  0  0  0  0
   -1.2313   -0.3604    3.4170 H   0  0  0  0  0  0  0  0  0  0  0  0
   -1.5842   -2.5967    1.3476 H   0  0  0  0  0  0  0  0  0  0  0  0
   -0.5001   -2.6931    2.7219 H   0  0  0  0  0  0  0  0  0  0  0  0
    0.1418   -3.1481   -0.1725 H   0  0  0  0  0  0  0  0  0  0  0  0
    1.5454   -2.1389   -0.4371 H   0  0  0  0  0  0  0  0  0  0  0  0
    1.4790   -3.1828    0.9924 H   0  0  0  0  0  0  0  0  0  0  0  0
    0.0808    0.5652    1.7384 H   0  0  0  0  0  0  0  0  0  0  0  0
    2.5292   -0.3202    0.1611 H   0  0  0  0  0  0  0  0  0  0  0  0
    2.2218    1.1958    0.9704 H   0  0  0  0  0  0  0  0  0  0  0  0
    0.6927    0.2893   -1.5342 H   0  0  0  0  0  0  0  0  0  0  0  0
    0.5571    1.8608   -0.7728 H   0  0  0  0  0  0  0  0  0  0  0  0
    2.2171    3.5754   -1.0872 H   0  0  0  0  0  0  0  0  0  0  0  0
    3.6137    3.3610   -2.1194 H   0  0  0  0  0  0  0  0  0  0  0  0
    3.6382    2.7049   -0.4691 H   0  0  0  0  0  0  0  0  0  0  0  0
    2.2654   -0.0142   -3.1798 H   0  0  0  0  0  0  0  0  0  0  0  0
    3.6057    1.9388   -4.6132 H   0  0  0  0  0  0  0  0  0  0  0  0
    4.2256    0.2896   -4.3816 H   0  0  0  0  0  0  0  0  0  0  0  0
    5.7785    1.7818   -3.8257 H   0  0  0  0  0  0  0  0  0  0  0  0
  1  2  1  0
  2  3  1  0
  2  4  2  3
  4  5  1  0
  5  6  1  0
  6  7  1  0
  7  8  1  0
  7  9  2  3
  9 10  1  0
 10 11  1  0
 11 12  1  0
 12 13  1  0
 12 14  2  3
 14 15  1  0
 15 16  1  0
  1 17  1  0
  1 18  1  0
  1 19  1  0
  3 20  1  0
  3 21  1  0
  3 22  1  0
  4 23  1  0
  5 24  1  0
  5 25  1  0
  6 26  1  0
  6 27  1  0
  8 28  1  0
  8 29  1  0
  8 30  1  0
  9 31  1  0
 10 32  1  0
 10 33  1  0
 11 34  1  0
 11 35  1  0
 13 36  1  0
 13 37  1  0
 13 38  1  0
 14 39  1  0
 15 40  1  0
 15 41  1  0
 16 42  1  0
M  END
$$$$
