
     RDKit          3D

 47 50  0  0  0  0  0  0  0  0999 V2000
   -9.2071   -1.1096    2.2696 C   0  0  0  0  0  0  0  0  0  0  0  0
   -8.0926   -1.3257    1.4018 O   0  0  0  0  0  0  0  0  0  0  0  0
   -6.9377   -0.7608    1.8383 C   0  0  0  0  0  0  0  0  0  0  0  0
   -6.8010   -0.1112    2.8633 O   0  0  0  0  0  0  0  0  0  0  0  0
   -5.8309   -1.0242    0.8791 C   0  0  0  0  0  0  0  0  0  0  0  0
   -5.9370   -1.9824   -0.1337 C   0  0  0  0  0  0  0  0  0  0  0  0
   -4.8616   -2.2071   -0.9920 C   0  0  0  0  0  0  0  0  0  0  0  0
   -3.6755   -1.4743   -0.8565 C   0  0  0  0  0  0  0  0  0  0  0  0
   -3.5511   -0.4995    0.1404 C   0  0  0  0  0  0  0  0  0  0  0  0
   -2.3723    0.2876    0.3245 N   0  0  0  0  0  0  0  0  0  0  0  0
   -2.2819    1.1134    1.4057 N   0  0  0  0  0  0  0  0  0  0  0  0
   -1.0941    1.6930    1.3505 N   0  0  0  0  0  0  0  0  0  0  0  0
   -0.4078    1.2982    0.2410 N   0  0  0  0  0  0  0  0  0  0  0  0
   -1.1908    0.4539   -0.3950 C   0  0  0  0  0  0  0  0  0  0  0  0
   -0.7598   -0.2420   -1.9222 S   0  0  0  0  0  0  0  0  0  0  0  0
   -0.0618    1.2069   -2.7662 C   0  0  0  0  0  0  0  0  0  0  0  0
    1.3268    1.6258   -2.2992 C   0  0  0  0  0  0  0  0  0  0  0  0
    1.6745    2.7931   -2.4627 O   0  0  0  0  0  0  0  0  0  0  0  0
    2.1039    0.6017   -1.8124 N   0  0  0  0  0  0  0  0  0  0  0  0
    3.3831    0.6777   -1.3230 C   0  0  0  0  0  0  0  0  0  0  0  0
    3.9920   -0.3956   -0.8640 N   0  0  0  0  0  0  0  0  0  0  0  0
    5.2559   -0.0481   -0.4351 C   0  0  0  0  0  0  0  0  0  0  0  0
    5.5729    1.2884   -0.5644 C   0  0  0  0  0  0  0  0  0  0  0  0
    4.2771    2.1316   -1.2664 S   0  0  0  0  0  0  0  0  0  0  0  0
    6.8744    1.9104   -0.1904 C   0  0  0  0  0  0  0  0  0  0  0  0
    7.6852    0.9477    0.6960 C   0  0  0  0  0  0  0  0  0  0  0  0
    7.6348   -0.5028    0.1841 C   0  0  0  0  0  0  0  0  0  0  0  0
    6.1954   -1.0510    0.1464 C   0  0  0  0  0  0  0  0  0  0  0  0
   -4.6399   -0.2930    1.0147 C   0  0  0  0  0  0  0  0  0  0  0  0
  -10.0688   -1.6410    1.8552 H   0  0  0  0  0  0  0  0  0  0  0  0
   -9.0019   -1.5129    3.2662 H   0  0  0  0  0  0  0  0  0  0  0  0
   -9.4475   -0.0411    2.3231 H   0  0  0  0  0  0  0  0  0  0  0  0
   -6.8442   -2.5732   -0.2560 H   0  0  0  0  0  0  0  0  0  0  0  0
   -4.9419   -2.9695   -1.7648 H   0  0  0  0  0  0  0  0  0  0  0  0
   -2.8782   -1.7304   -1.5414 H   0  0  0  0  0  0  0  0  0  0  0  0
    0.0035    0.9851   -3.8374 H   0  0  0  0  0  0  0  0  0  0  0  0
   -0.7454    2.0523   -2.6375 H   0  0  0  0  0  0  0  0  0  0  0  0
    1.6992   -0.3224   -1.7202 H   0  0  0  0  0  0  0  0  0  0  0  0
    6.7212    2.8578    0.3398 H   0  0  0  0  0  0  0  0  0  0  0  0
    7.4406    2.1297   -1.1036 H   0  0  0  0  0  0  0  0  0  0  0  0
    8.7255    1.2886    0.7501 H   0  0  0  0  0  0  0  0  0  0  0  0
    7.2898    0.9766    1.7203 H   0  0  0  0  0  0  0  0  0  0  0  0
    8.0618   -0.5365   -0.8279 H   0  0  0  0  0  0  0  0  0  0  0  0
    8.2590   -1.1472    0.8151 H   0  0  0  0  0  0  0  0  0  0  0  0
    5.8695   -1.2897    1.1657 H   0  0  0  0  0  0  0  0  0  0  0  0
    6.1687   -1.9786   -0.4362 H   0  0  0  0  0  0  0  0  0  0  0  0
   -4.5838    0.4500    1.8129 H   0  0  0  0  0  0  0  0  0  0  0  0
  1  2  1  0
  2  3  1  0
  3  4  2  0
  3  5  1  0
  5  6  2  0
  6  7  1  0
  7  8  2  0
  8  9  1  0
  9 10  1  0
 10 11  1  0
 11 12  2  0
 12 13  1  0
 13 14  2  0
 14 15  1  0
 15 16  1  0
 16 17  1  0
 17 18  2  0
 17 19  1  0
 19 20  1  0
 20 21  2  0
 21 22  1  0
 22 23  2  0
 23 24  1  0
 23 25  1  0
 25 26  1  0
 26 27  1  0
 27 28  1  0
  9 29  2  0
 29  5  1  0
 14 10  1  0
 24 20  1  0
 28 22  1  0
  1 30  1  0
  1 31  1  0
  1 32  1  0
  6 33  1  0
  7 34  1  0
  8 35  1  0
 16 36  1  0
 16 37  1  0
 19 38  1  0
 25 39  1  0
 25 40  1  0
 26 41  1  0
 26 42  1  0
 27 43  1  0
 27 44  1  0
 28 45  1  0
 28 46  1  0
 29 47  1  0
M  END
$$$$
