
     RDKit          3D

 43 46  0  0  0  0  0  0  0  0999 V2000
    6.4165    2.1338    0.4236 C   0  0  0  0  0  0  0  0  0  0  0  0
    5.0413    1.5334    0.4684 C   0  0  0  0  0  0  0  0  0  0  0  0
    4.6155    0.6602   -0.5369 C   0  0  0  0  0  0  0  0  0  0  0  0
    3.3240    0.1233   -0.5153 C   0  0  0  0  0  0  0  0  0  0  0  0
    2.4402    0.4616    0.5096 C   0  0  0  0  0  0  0  0  0  0  0  0
    0.9868   -0.1330    0.5459 C   0  0  0  0  0  0  0  0  0  0  0  0
   -0.0102    0.1809    1.4626 C   0  0  0  0  0  0  0  0  0  0  0  0
   -1.1699   -0.5248    1.1349 N   0  0  0  0  0  4  0  0  0  0  0  0
   -2.4477   -0.4828    1.8411 C   0  0  0  0  0  0  0  0  0  0  0  0
   -3.5240    0.0111    0.9063 C   0  0  0  0  0  0  0  0  0  0  0  0
   -4.7041   -0.7242    0.7259 C   0  0  0  0  0  0  0  0  0  0  0  0
   -5.7015   -0.2646   -0.1403 C   0  0  0  0  0  0  0  0  0  0  0  0
   -5.5387    0.9373   -0.8349 C   0  0  0  0  0  0  0  0  0  0  0  0
   -6.8049    1.4328   -1.8966 Cl  0  0  0  0  0  0  0  0  0  0  0  0
   -4.3734    1.6861   -0.6539 C   0  0  0  0  0  0  0  0  0  0  0  0
   -4.0874    3.1769   -1.4756 Cl  0  0  0  0  0  0  0  0  0  0  0  0
   -3.3770    1.2269    0.2170 C   0  0  0  0  0  0  0  0  0  0  0  0
   -0.8887   -1.2696    0.0701 C   0  0  0  0  0  0  0  0  0  0  0  0
    0.3768   -1.0608   -0.2793 N   0  0  0  0  0  0  0  0  0  0  0  0
    0.7613   -1.8626   -1.4328 C   0  0  0  0  0  0  0  0  0  0  0  0
   -0.4060   -2.8787   -1.5725 C   0  0  0  0  0  0  0  0  0  0  0  0
   -1.5815   -2.2477   -0.8003 C   0  0  0  0  0  0  0  0  0  0  0  0
    2.8545    1.3515    1.5073 C   0  0  0  0  0  0  0  0  0  0  0  0
    4.1465    1.8855    1.4827 C   0  0  0  0  0  0  0  0  0  0  0  0
    6.3985    3.0672   -0.1474 H   0  0  0  0  0  0  0  0  0  0  0  0
    7.1278    1.4453   -0.0446 H   0  0  0  0  0  0  0  0  0  0  0  0
    6.7842    2.3430    1.4336 H   0  0  0  0  0  0  0  0  0  0  0  0
    5.2916    0.3946   -1.3485 H   0  0  0  0  0  0  0  0  0  0  0  0
    3.0446   -0.5391   -1.3238 H   0  0  0  0  0  0  0  0  0  0  0  0
   -0.0474    0.8425    2.3116 H   0  0  0  0  0  0  0  0  0  0  0  0
   -2.3755    0.1814    2.7090 H   0  0  0  0  0  0  0  0  0  0  0  0
   -2.6600   -1.4954    2.2019 H   0  0  0  0  0  0  0  0  0  0  0  0
   -4.8701   -1.6608    1.2577 H   0  0  0  0  0  0  0  0  0  0  0  0
   -6.6124   -0.8479   -0.2682 H   0  0  0  0  0  0  0  0  0  0  0  0
   -2.4785    1.8267    0.3531 H   0  0  0  0  0  0  0  0  0  0  0  0
    1.7086   -2.3767   -1.2559 H   0  0  0  0  0  0  0  0  0  0  0  0
    0.8254   -1.2114   -2.3092 H   0  0  0  0  0  0  0  0  0  0  0  0
   -0.1198   -3.8179   -1.0843 H   0  0  0  0  0  0  0  0  0  0  0  0
   -0.6509   -3.1027   -2.6142 H   0  0  0  0  0  0  0  0  0  0  0  0
   -2.1249   -2.9586   -0.1769 H   0  0  0  0  0  0  0  0  0  0  0  0
   -2.2468   -1.6755   -1.4502 H   0  0  0  0  0  0  0  0  0  0  0  0
    2.2030    1.6523    2.3221 H   0  0  0  0  0  0  0  0  0  0  0  0
    4.4540    2.5805    2.2629 H   0  0  0  0  0  0  0  0  0  0  0  0
  1  2  1  0
  2  3  2  0
  3  4  1  0
  4  5  2  0
  5  6  1  0
  6  7  2  0
  7  8  1  0
  8  9  1  0
  9 10  1  0
 10 11  2  0
 11 12  1  0
 12 13  2  0
 13 14  1  0
 13 15  1  0
 15 16  1  0
 15 17  2  0
  8 18  2  0
 18 19  1  0
 19 20  1  0
 20 21  1  0
 21 22  1  0
  5 23  1  0
 23 24  2  0
 24  2  1  0
 19  6  1  0
 17 10  1  0
 22 18  1  0
  1 25  1  0
  1 26  1  0
  1 27  1  0
  3 28  1  0
  4 29  1  0
  7 30  1  0
  9 31  1  0
  9 32  1  0
 11 33  1  0
 12 34  1  0
 17 35  1  0
 20 36  1  0
 20 37  1  0
 21 38  1  0
 21 39  1  0
 22 40  1  0
 22 41  1  0
 23 42  1  0
 24 43  1  0
M  CHG  1   8   1
M  END
$$$$
