
     RDKit          3D

 35 36  0  0  0  0  0  0  0  0999 V2000
    4.3104    2.1383   -0.4035 C   0  0  0  0  0  0  0  0  0  0  0  0
    3.4293    1.9105    0.6980 O   0  0  0  0  0  0  0  0  0  0  0  0
    3.1100    0.5817    0.7890 C   0  0  0  0  0  0  0  0  0  0  0  0
    4.0165   -0.2843    1.4078 C   0  0  0  0  0  0  0  0  0  0  0  0
    3.6926   -1.6314    1.5772 C   0  0  0  0  0  0  0  0  0  0  0  0
    2.4576   -2.1137    1.1440 C   0  0  0  0  0  0  0  0  0  0  0  0
    1.5409   -1.2472    0.5453 C   0  0  0  0  0  0  0  0  0  0  0  0
    1.8608    0.1089    0.3738 C   0  0  0  0  0  0  0  0  0  0  0  0
    0.8894    1.0120   -0.2817 C   0  0  0  0  0  0  0  0  0  0  0  0
    1.1641    1.8362   -1.1370 O   0  0  0  0  0  0  0  0  0  0  0  0
   -0.3441    0.7563    0.2222 O   0  0  0  0  0  0  0  0  0  0  0  0
   -1.3975    1.5209   -0.3823 C   0  0  0  0  0  0  0  0  0  0  0  0
   -2.7366    1.0874    0.2132 C   0  0  0  0  0  0  0  0  0  0  0  0
   -3.1347   -0.3063   -0.2156 C   0  0  0  0  0  0  0  0  0  0  0  0
   -2.8118   -1.4135    0.5810 C   0  0  0  0  0  0  0  0  0  0  0  0
   -3.1621   -2.7025    0.1770 C   0  0  0  0  0  0  0  0  0  0  0  0
   -3.8348   -2.8971   -1.0278 C   0  0  0  0  0  0  0  0  0  0  0  0
   -4.1563   -1.8037   -1.8299 C   0  0  0  0  0  0  0  0  0  0  0  0
   -3.8070   -0.5136   -1.4275 C   0  0  0  0  0  0  0  0  0  0  0  0
    3.9383    1.6798   -1.3266 H   0  0  0  0  0  0  0  0  0  0  0  0
    4.3748    3.2187   -0.5627 H   0  0  0  0  0  0  0  0  0  0  0  0
    5.3157    1.7683   -0.1761 H   0  0  0  0  0  0  0  0  0  0  0  0
    4.9696    0.0922    1.7696 H   0  0  0  0  0  0  0  0  0  0  0  0
    4.4013   -2.3033    2.0554 H   0  0  0  0  0  0  0  0  0  0  0  0
    2.2063   -3.1633    1.2765 H   0  0  0  0  0  0  0  0  0  0  0  0
    0.5808   -1.6330    0.2087 H   0  0  0  0  0  0  0  0  0  0  0  0
   -1.3882    1.3760   -1.4694 H   0  0  0  0  0  0  0  0  0  0  0  0
   -1.2329    2.5811   -0.1573 H   0  0  0  0  0  0  0  0  0  0  0  0
   -3.5208    1.7903   -0.0936 H   0  0  0  0  0  0  0  0  0  0  0  0
   -2.6909    1.1268    1.3087 H   0  0  0  0  0  0  0  0  0  0  0  0
   -2.2809   -1.2756    1.5206 H   0  0  0  0  0  0  0  0  0  0  0  0
   -2.9101   -3.5545    0.8026 H   0  0  0  0  0  0  0  0  0  0  0  0
   -4.1081   -3.9008   -1.3422 H   0  0  0  0  0  0  0  0  0  0  0  0
   -4.6792   -1.9555   -2.7706 H   0  0  0  0  0  0  0  0  0  0  0  0
   -4.0624    0.3287   -2.0666 H   0  0  0  0  0  0  0  0  0  0  0  0
  1  2  1  0
  2  3  1  0
  3  4  2  0
  4  5  1  0
  5  6  2  0
  6  7  1  0
  7  8  2  0
  8  9  1  0
  9 10  2  0
  9 11  1  0
 11 12  1  0
 12 13  1  0
 13 14  1  0
 14 15  2  0
 15 16  1  0
 16 17  2  0
 17 18  1  0
 18 19  2  0
  8  3  1  0
 19 14  1  0
  1 20  1  0
  1 21  1  0
  1 22  1  0
  4 23  1  0
  5 24  1  0
  6 25  1  0
  7 26  1  0
 12 27  1  0
 12 28  1  0
 13 29  1  0
 13 30  1  0
 15 31  1  0
 16 32  1  0
 17 33  1  0
 18 34  1  0
 19 35  1  0
M  END
$$$$
