
     RDKit          3D

 35 37  0  0  0  0  0  0  0  0999 V2000
    7.2143    0.9221   -2.0597 C   0  0  0  0  0  0  0  0  0  0  0  0
    5.8073    0.8117   -1.8394 O   0  0  0  0  0  0  0  0  0  0  0  0
    5.4697    0.0031   -0.8044 C   0  0  0  0  0  0  0  0  0  0  0  0
    6.2486   -0.6097   -0.0914 O   0  0  0  0  0  0  0  0  0  0  0  0
    3.9915   -0.0312   -0.6298 C   0  0  0  0  0  0  0  0  0  0  0  0
    3.1087    0.5354   -1.5582 C   0  0  0  0  0  0  0  0  0  0  0  0
    1.7252    0.4775   -1.3478 C   0  0  0  0  0  0  0  0  0  0  0  0
    1.2059   -0.1238   -0.1938 C   0  0  0  0  0  0  0  0  0  0  0  0
   -0.2400   -0.2293    0.0658 C   0  0  0  0  0  0  0  0  0  0  0  0
   -1.1743    0.7443   -0.0071 C   0  0  0  0  0  0  0  0  0  0  0  0
   -0.8318    2.0825   -0.3629 C   0  0  0  0  0  0  0  0  0  0  0  0
   -0.5592    3.1682   -0.6706 N   0  0  0  0  0  0  0  0  0  0  0  0
   -2.5340    0.3911    0.3168 C   0  0  0  0  0  0  0  0  0  0  0  0
   -2.9228   -0.7308    0.9042 N   0  0  0  0  0  0  0  0  0  0  0  0
   -4.2990   -0.7769    1.0477 C   0  0  0  0  0  0  0  0  0  0  0  0
   -5.0333   -1.8410    1.6076 C   0  0  0  0  0  0  0  0  0  0  0  0
   -6.4281   -1.7561    1.6857 C   0  0  0  0  0  0  0  0  0  0  0  0
   -7.0947   -0.6275    1.2163 C   0  0  0  0  0  0  0  0  0  0  0  0
   -6.3865    0.4393    0.6535 C   0  0  0  0  0  0  0  0  0  0  0  0
   -4.9860    0.3386    0.5758 C   0  0  0  0  0  0  0  0  0  0  0  0
   -3.8528    1.4551   -0.0651 S   0  0  0  0  0  0  0  0  0  0  0  0
    2.0928   -0.7081    0.7239 C   0  0  0  0  0  0  0  0  0  0  0  0
    3.4744   -0.6625    0.5078 C   0  0  0  0  0  0  0  0  0  0  0  0
    7.6282   -0.0456   -2.3586 H   0  0  0  0  0  0  0  0  0  0  0  0
    7.7186    1.3008   -1.1646 H   0  0  0  0  0  0  0  0  0  0  0  0
    7.3755    1.6365   -2.8739 H   0  0  0  0  0  0  0  0  0  0  0  0
    3.4799    1.0243   -2.4531 H   0  0  0  0  0  0  0  0  0  0  0  0
    1.0688    0.9117   -2.1009 H   0  0  0  0  0  0  0  0  0  0  0  0
   -0.5405   -1.2272    0.3807 H   0  0  0  0  0  0  0  0  0  0  0  0
   -4.5099   -2.7199    1.9714 H   0  0  0  0  0  0  0  0  0  0  0  0
   -6.9928   -2.5813    2.1137 H   0  0  0  0  0  0  0  0  0  0  0  0
   -8.1808   -0.5752    1.2801 H   0  0  0  0  0  0  0  0  0  0  0  0
   -6.9082    1.3169    0.2803 H   0  0  0  0  0  0  0  0  0  0  0  0
    1.7192   -1.1968    1.6256 H   0  0  0  0  0  0  0  0  0  0  0  0
    4.1458   -1.1162    1.2370 H   0  0  0  0  0  0  0  0  0  0  0  0
  1  2  1  0
  2  3  1  0
  3  4  2  0
  3  5  1  0
  5  6  2  0
  6  7  1  0
  7  8  2  0
  8  9  1  0
  9 10  2  3
 10 11  1  0
 11 12  3  0
 10 13  1  0
 13 14  2  0
 14 15  1  0
 15 16  2  0
 16 17  1  0
 17 18  2  0
 18 19  1  0
 19 20  2  0
 20 21  1  0
  8 22  1  0
 22 23  2  0
 23  5  1  0
 21 13  1  0
 20 15  1  0
  1 24  1  0
  1 25  1  0
  1 26  1  0
  6 27  1  0
  7 28  1  0
  9 29  1  0
 16 30  1  0
 17 31  1  0
 18 32  1  0
 19 33  1  0
 22 34  1  0
 23 35  1  0
M  END
$$$$
