
     RDKit          3D

 59 62  0  0  0  0  0  0  0  0999 V2000
    9.1005    0.7444    0.8320 C   0  0  0  0  0  0  0  0  0  0  0  0
    8.1594    0.3479   -0.1571 O   0  0  0  0  0  0  0  0  0  0  0  0
    6.8397    0.3876    0.1985 C   0  0  0  0  0  0  0  0  0  0  0  0
    6.3453    0.6205    1.4831 C   0  0  0  0  0  0  0  0  0  0  0  0
    4.9642    0.6432    1.7156 C   0  0  0  0  0  0  0  0  0  0  0  0
    4.0716    0.4369    0.6634 C   0  0  0  0  0  0  0  0  0  0  0  0
    2.6244    0.4935    0.8597 C   0  0  0  0  0  0  0  0  0  0  0  0
    1.7781    0.3112   -0.1704 C   0  0  0  0  0  0  0  0  0  0  0  0
    0.2886    0.4489   -0.0368 C   0  0  0  0  0  0  0  0  0  0  0  0
   -0.2558   -0.6637    0.7674 N   0  0  0  0  0  0  0  0  0  0  0  0
   -0.4431   -1.9440    0.0236 C   0  0  0  0  0  0  0  0  0  0  0  0
   -1.8377   -2.1612   -0.5662 C   0  0  0  0  0  0  0  0  0  0  0  0
   -1.9048   -3.3780   -1.4798 C   0  0  0  0  0  0  0  0  0  0  0  0
   -3.0655   -3.0190   -2.3743 C   0  0  0  0  0  0  0  0  0  0  0  0
   -2.8544   -1.5347   -2.5724 C   0  0  0  0  0  0  0  0  0  0  0  0
   -2.2602   -1.0392   -1.3655 O   0  0  0  0  0  0  0  0  0  0  0  0
   -1.2085   -0.3033    2.1077 S   0  0  0  0  0  6  0  0  0  0  0  0
   -1.6722   -1.5532    2.6765 O   0  0  0  0  0  0  0  0  0  0  0  0
   -0.4751    0.6494    2.9189 O   0  0  0  0  0  0  0  0  0  0  0  0
   -2.6377    0.5725    1.4844 C   0  0  0  0  0  0  0  0  0  0  0  0
   -3.8654   -0.0786    1.3408 C   0  0  0  0  0  0  0  0  0  0  0  0
   -4.9843    0.6319    0.8866 C   0  0  0  0  0  0  0  0  0  0  0  0
   -4.8908    2.0048    0.6176 C   0  0  0  0  0  0  0  0  0  0  0  0
   -6.0610    2.8084    0.1487 C   0  0  0  0  0  0  0  0  0  0  0  0
   -7.3059    2.0882   -0.3061 C   0  0  0  0  0  0  0  0  0  0  0  0
   -5.9949    4.0357    0.1506 O   0  0  0  0  0  0  0  0  0  0  0  0
   -3.6720    2.6646    0.8264 C   0  0  0  0  0  0  0  0  0  0  0  0
   -2.5535    1.9529    1.2695 C   0  0  0  0  0  0  0  0  0  0  0  0
    2.3155    0.0322   -1.5351 C   0  0  0  0  0  0  0  0  0  0  0  0
    1.5768   -0.1573   -2.4976 O   0  0  0  0  0  0  0  0  0  0  0  0
    3.6772   -0.0044   -1.6744 N   0  0  0  0  0  0  0  0  0  0  0  0
    4.5723    0.1961   -0.6181 C   0  0  0  0  0  0  0  0  0  0  0  0
    5.9460    0.1634   -0.8519 C   0  0  0  0  0  0  0  0  0  0  0  0
    9.1055    0.0439    1.6727 H   0  0  0  0  0  0  0  0  0  0  0  0
    8.9129    1.7696    1.1692 H   0  0  0  0  0  0  0  0  0  0  0  0
   10.0925    0.7230    0.3723 H   0  0  0  0  0  0  0  0  0  0  0  0
    7.0067    0.7854    2.3276 H   0  0  0  0  0  0  0  0  0  0  0  0
    4.5975    0.8294    2.7215 H   0  0  0  0  0  0  0  0  0  0  0  0
    2.2494    0.7088    1.8558 H   0  0  0  0  0  0  0  0  0  0  0  0
    0.1012    1.4126    0.4468 H   0  0  0  0  0  0  0  0  0  0  0  0
   -0.2204    0.5083   -1.0036 H   0  0  0  0  0  0  0  0  0  0  0  0
   -0.1861   -2.7731    0.6944 H   0  0  0  0  0  0  0  0  0  0  0  0
    0.2950   -1.9860   -0.7860 H   0  0  0  0  0  0  0  0  0  0  0  0
   -2.5735   -2.2860    0.2329 H   0  0  0  0  0  0  0  0  0  0  0  0
   -0.9935   -3.4752   -2.0837 H   0  0  0  0  0  0  0  0  0  0  0  0
   -2.0508   -4.3115   -0.9293 H   0  0  0  0  0  0  0  0  0  0  0  0
   -4.0127   -3.1923   -1.8485 H   0  0  0  0  0  0  0  0  0  0  0  0
   -3.0882   -3.5786   -3.3131 H   0  0  0  0  0  0  0  0  0  0  0  0
   -3.7879   -1.0060   -2.7714 H   0  0  0  0  0  0  0  0  0  0  0  0
   -2.1568   -1.3356   -3.3941 H   0  0  0  0  0  0  0  0  0  0  0  0
   -3.9662   -1.1321    1.5861 H   0  0  0  0  0  0  0  0  0  0  0  0
   -5.9208    0.0933    0.7704 H   0  0  0  0  0  0  0  0  0  0  0  0
   -7.8040    1.6255    0.5499 H   0  0  0  0  0  0  0  0  0  0  0  0
   -7.0628    1.3418   -1.0664 H   0  0  0  0  0  0  0  0  0  0  0  0
   -7.9936    2.8126   -0.7638 H   0  0  0  0  0  0  0  0  0  0  0  0
   -3.5897    3.7427    0.6475 H   0  0  0  0  0  0  0  0  0  0  0  0
   -1.6312    2.4918    1.4622 H   0  0  0  0  0  0  0  0  0  0  0  0
    4.0247   -0.1844   -2.6053 H   0  0  0  0  0  0  0  0  0  0  0  0
    6.3366   -0.0252   -1.8463 H   0  0  0  0  0  0  0  0  0  0  0  0
  1  2  1  0
  2  3  1  0
  3  4  2  0
  4  5  1  0
  5  6  2  0
  6  7  1  0
  7  8  2  0
  8  9  1  0
  9 10  1  0
 10 11  1  0
 11 12  1  0
 12 13  1  0
 13 14  1  0
 14 15  1  0
 15 16  1  0
 10 17  1  0
 17 18  2  0
 17 19  2  0
 17 20  1  0
 20 21  2  0
 21 22  1  0
 22 23  2  0
 23 24  1  0
 24 25  1  0
 24 26  2  0
 23 27  1  0
 27 28  2  0
  8 29  1  0
 29 30  2  0
 29 31  1  0
 31 32  1  0
 32 33  2  0
 33  3  1  0
 32  6  1  0
 16 12  1  0
 28 20  1  0
  1 34  1  0
  1 35  1  0
  1 36  1  0
  4 37  1  0
  5 38  1  0
  7 39  1  0
  9 40  1  0
  9 41  1  0
 11 42  1  0
 11 43  1  0
 12 44  1  0
 13 45  1  0
 13 46  1  0
 14 47  1  0
 14 48  1  0
 15 49  1  0
 15 50  1  0
 21 51  1  0
 22 52  1  0
 25 53  1  0
 25 54  1  0
 25 55  1  0
 27 56  1  0
 28 57  1  0
 31 58  1  0
 33 59  1  0
M  END
$$$$
