
     RDKit          3D

 54 56  0  0  0  0  0  0  0  0999 V2000
    7.8610   -2.6447   -2.1190 C   0  0  0  0  0  0  0  0  0  0  0  0
    7.4628   -2.5494   -0.7580 O   0  0  0  0  0  0  0  0  0  0  0  0
    6.8109   -1.4037   -0.3896 C   0  0  0  0  0  0  0  0  0  0  0  0
    6.5603   -0.2994   -1.2059 C   0  0  0  0  0  0  0  0  0  0  0  0
    5.8754    0.8126   -0.7001 C   0  0  0  0  0  0  0  0  0  0  0  0
    5.4297    0.8341    0.6274 C   0  0  0  0  0  0  0  0  0  0  0  0
    4.6852    2.0276    1.1734 C   0  0  0  0  0  0  0  0  0  0  0  0
    3.3345    2.2816    0.4962 C   0  0  0  0  0  0  0  0  0  0  0  0
    2.3458    1.1287    0.6816 C   0  0  0  0  0  0  0  0  0  0  0  0
    1.0182    1.4743    0.1243 C   0  0  0  0  0  0  0  0  0  0  0  0
   -0.0395    1.9636    0.7305 N   0  0  0  0  0  0  0  0  0  0  0  0
   -1.0011    2.1190   -0.2421 N   0  0  0  0  0  0  0  0  0  0  0  0
   -0.4594    1.7251   -1.3794 C   0  0  0  0  0  0  0  0  0  0  0  0
   -1.2599    1.7740   -2.9146 S   0  0  0  0  0  0  0  0  0  0  0  0
   -2.8467    2.5104   -2.4460 C   0  0  0  0  0  0  0  0  0  0  0  0
   -3.8408    1.4354   -2.0463 C   0  0  0  0  0  0  0  0  0  0  0  0
   -4.6054    0.9697   -2.8880 O   0  0  0  0  0  0  0  0  0  0  0  0
   -3.7980    1.0957   -0.7046 N   0  0  0  0  0  0  0  0  0  0  0  0
   -4.6340    0.1804   -0.0128 C   0  0  0  0  0  0  0  0  0  0  0  0
   -5.6849   -0.5122   -0.6305 C   0  0  0  0  0  0  0  0  0  0  0  0
   -6.5015   -1.4143    0.0819 C   0  0  0  0  0  0  0  0  0  0  0  0
   -7.6122   -2.1259   -0.6499 C   0  0  0  0  0  0  0  0  0  0  0  0
   -6.2496   -1.6491    1.4452 C   0  0  0  0  0  0  0  0  0  0  0  0
   -7.1001   -2.5892    2.2539 C   0  0  0  0  0  0  0  0  0  0  0  0
   -5.2092   -0.9488    2.0742 C   0  0  0  0  0  0  0  0  0  0  0  0
   -4.4158   -0.0455    1.3563 C   0  0  0  0  0  0  0  0  0  0  0  0
   -3.0515    0.8687    2.3242 Br  0  0  0  0  0  0  0  0  0  0  0  0
    0.8309    1.2959   -1.2201 O   0  0  0  0  0  0  0  0  0  0  0  0
    5.6934   -0.2721    1.4443 C   0  0  0  0  0  0  0  0  0  0  0  0
    6.3794   -1.3791    0.9371 C   0  0  0  0  0  0  0  0  0  0  0  0
    8.6229   -1.8961   -2.3579 H   0  0  0  0  0  0  0  0  0  0  0  0
    8.3021   -3.6331   -2.2694 H   0  0  0  0  0  0  0  0  0  0  0  0
    7.0044   -2.5621   -2.7917 H   0  0  0  0  0  0  0  0  0  0  0  0
    6.8863   -0.2681   -2.2398 H   0  0  0  0  0  0  0  0  0  0  0  0
    5.6969    1.6634   -1.3545 H   0  0  0  0  0  0  0  0  0  0  0  0
    5.3220    2.9125    1.0529 H   0  0  0  0  0  0  0  0  0  0  0  0
    4.5317    1.9157    2.2528 H   0  0  0  0  0  0  0  0  0  0  0  0
    2.9058    3.1999    0.9188 H   0  0  0  0  0  0  0  0  0  0  0  0
    3.4764    2.4772   -0.5730 H   0  0  0  0  0  0  0  0  0  0  0  0
    2.2355    0.9003    1.7472 H   0  0  0  0  0  0  0  0  0  0  0  0
    2.7151    0.2197    0.1952 H   0  0  0  0  0  0  0  0  0  0  0  0
   -2.7491    3.2656   -1.6612 H   0  0  0  0  0  0  0  0  0  0  0  0
   -3.2530    3.0282   -3.3222 H   0  0  0  0  0  0  0  0  0  0  0  0
   -3.0559    1.5065   -0.1395 H   0  0  0  0  0  0  0  0  0  0  0  0
   -5.9045   -0.3674   -1.6853 H   0  0  0  0  0  0  0  0  0  0  0  0
   -7.3661   -3.1856   -0.7721 H   0  0  0  0  0  0  0  0  0  0  0  0
   -7.7739   -1.6990   -1.6460 H   0  0  0  0  0  0  0  0  0  0  0  0
   -8.5564   -2.0296   -0.1019 H   0  0  0  0  0  0  0  0  0  0  0  0
   -6.6419   -2.8083    3.2252 H   0  0  0  0  0  0  0  0  0  0  0  0
   -7.2279   -3.5453    1.7346 H   0  0  0  0  0  0  0  0  0  0  0  0
   -8.0809   -2.1372    2.4333 H   0  0  0  0  0  0  0  0  0  0  0  0
   -5.0180   -1.1047    3.1348 H   0  0  0  0  0  0  0  0  0  0  0  0
    5.3719   -0.2856    2.4830 H   0  0  0  0  0  0  0  0  0  0  0  0
    6.5790   -2.2302    1.5830 H   0  0  0  0  0  0  0  0  0  0  0  0
  1  2  1  0
  2  3  1  0
  3  4  2  0
  4  5  1  0
  5  6  2  0
  6  7  1  0
  7  8  1  0
  8  9  1  0
  9 10  1  0
 10 11  2  0
 11 12  1  0
 12 13  2  0
 13 14  1  0
 14 15  1  0
 15 16  1  0
 16 17  2  0
 16 18  1  0
 18 19  1  0
 19 20  2  0
 20 21  1  0
 21 22  1  0
 21 23  2  0
 23 24  1  0
 23 25  1  0
 25 26  2  0
 26 27  1  0
 13 28  1  0
  6 29  1  0
 29 30  2  0
 30  3  1  0
 28 10  1  0
 26 19  1  0
  1 31  1  0
  1 32  1  0
  1 33  1  0
  4 34  1  0
  5 35  1  0
  7 36  1  0
  7 37  1  0
  8 38  1  0
  8 39  1  0
  9 40  1  0
  9 41  1  0
 15 42  1  0
 15 43  1  0
 18 44  1  0
 20 45  1  0
 22 46  1  0
 22 47  1  0
 22 48  1  0
 24 49  1  0
 24 50  1  0
 24 51  1  0
 25 52  1  0
 29 53  1  0
 30 54  1  0
M  END
$$$$
