
     RDKit          3D

 31 32  0  0  0  0  0  0  0  0999 V2000
    2.5726    1.5683    0.9416 C   0  0  0  0  0  0  0  0  0  0  0  0
    2.2324    1.1216   -0.4727 C   0  0  0  0  0  0  0  0  0  0  0  0
    2.4445   -0.3124   -0.6528 N   0  0  0  0  0  0  0  0  0  0  0  0
    1.6580   -1.3463   -0.2359 C   0  0  0  0  0  0  0  0  0  0  0  0
    0.3257   -1.1933    0.3090 C   0  0  0  0  0  0  0  0  0  0  0  0
   -0.1055   -1.9138    1.4081 C   0  0  0  0  0  0  0  0  0  0  0  0
   -1.7075   -1.5448    1.8649 S   0  0  0  0  0  0  0  0  0  0  0  0
   -1.8951   -0.4499    0.5626 C   0  0  0  0  0  0  0  0  0  0  0  0
   -3.2106    0.2658    0.3607 C   0  0  0  0  0  0  0  0  0  0  0  0
   -3.0257    1.7823    0.4447 C   0  0  0  0  0  0  0  0  0  0  0  0
   -3.8487   -0.1284   -0.9725 C   0  0  0  0  0  0  0  0  0  0  0  0
   -0.7384   -0.3715   -0.1914 C   0  0  0  0  0  0  0  0  0  0  0  0
    2.2022   -2.5264   -0.3403 N   0  0  0  0  0  0  0  0  0  0  0  0
    3.4317   -2.2782   -0.8743 N   0  0  0  0  0  0  0  0  0  0  0  0
    3.6166   -0.9156   -1.0473 C   0  0  0  0  0  0  0  0  0  0  0  0
    5.0265   -0.2513   -1.6107 S   0  0  0  0  0  0  0  0  0  0  0  0
    1.9441    1.0603    1.6800 H   0  0  0  0  0  0  0  0  0  0  0  0
    2.4170    2.6464    1.0464 H   0  0  0  0  0  0  0  0  0  0  0  0
    3.6167    1.3481    1.1857 H   0  0  0  0  0  0  0  0  0  0  0  0
    1.1939    1.3716   -0.6924 H   0  0  0  0  0  0  0  0  0  0  0  0
    2.8518    1.6731   -1.1867 H   0  0  0  0  0  0  0  0  0  0  0  0
    0.4604   -2.6388    1.9790 H   0  0  0  0  0  0  0  0  0  0  0  0
   -3.9103   -0.0223    1.1566 H   0  0  0  0  0  0  0  0  0  0  0  0
   -2.5808    2.0701    1.4039 H   0  0  0  0  0  0  0  0  0  0  0  0
   -2.3718    2.1565   -0.3510 H   0  0  0  0  0  0  0  0  0  0  0  0
   -3.9896    2.2947    0.3547 H   0  0  0  0  0  0  0  0  0  0  0  0
   -3.2268    0.1695   -1.8242 H   0  0  0  0  0  0  0  0  0  0  0  0
   -4.8273    0.3497   -1.0891 H   0  0  0  0  0  0  0  0  0  0  0  0
   -3.9959   -1.2127   -1.0311 H   0  0  0  0  0  0  0  0  0  0  0  0
   -0.6688    0.2404   -1.0825 H   0  0  0  0  0  0  0  0  0  0  0  0
    4.1087   -3.0127   -1.0429 H   0  0  0  0  0  0  0  0  0  0  0  0
  1  2  1  0
  2  3  1  0
  3  4  1  0
  4  5  1  0
  5  6  2  0
  6  7  1  0
  7  8  1  0
  8  9  1  0
  9 10  1  0
  9 11  1  0
  8 12  2  0
  4 13  2  0
 13 14  1  0
 14 15  1  0
 15 16  2  0
 15  3  1  0
 12  5  1  0
  1 17  1  0
  1 18  1  0
  1 19  1  0
  2 20  1  0
  2 21  1  0
  6 22  1  0
  9 23  1  0
 10 24  1  0
 10 25  1  0
 10 26  1  0
 11 27  1  0
 11 28  1  0
 11 29  1  0
 12 30  1  0
 14 31  1  0
M  END
$$$$
