
     RDKit          3D

 39 41  0  0  0  0  0  0  0  0999 V2000
    5.3902   -0.8392   -1.5618 C   0  0  0  0  0  0  0  0  0  0  0  0
    4.4570    0.2803   -1.9879 C   0  0  0  0  0  0  0  0  0  0  0  0
    4.0382    1.1054   -0.8660 N   0  0  0  0  0  0  0  0  0  0  0  0
    4.8047    2.1742   -0.5453 N   0  0  0  0  0  0  0  0  0  0  0  0
    4.1743    2.7188    0.4940 C   0  0  0  0  0  0  0  0  0  0  0  0
    3.0061    2.0194    0.8154 C   0  0  0  0  0  0  0  0  0  0  0  0
    1.9093    2.4800    2.2617 Br  0  0  0  0  0  0  0  0  0  0  0  0
    2.9037    0.9785   -0.0872 C   0  0  0  0  0  0  0  0  0  0  0  0
    1.9203   -0.0769   -0.2437 C   0  0  0  0  0  0  0  0  0  0  0  0
    2.2350   -1.1614   -0.7190 O   0  0  0  0  0  0  0  0  0  0  0  0
    0.6447    0.2914    0.1398 N   0  0  0  0  0  0  0  0  0  0  0  0
   -0.5052   -0.4884    0.1407 C   0  0  0  0  0  0  0  0  0  0  0  0
   -0.4427   -2.1687   -0.2034 S   0  0  0  0  0  0  0  0  0  0  0  0
   -2.0855   -2.3125    0.0243 C   0  0  0  0  0  0  0  0  0  0  0  0
   -2.7061   -1.1415    0.3536 C   0  0  0  0  0  0  0  0  0  0  0  0
   -1.7993   -0.0458    0.4363 C   0  0  0  0  0  0  0  0  0  0  0  0
   -2.1114    1.3419    0.7659 C   0  0  0  0  0  0  0  0  0  0  0  0
   -1.2668    2.2324    0.7650 O   0  0  0  0  0  0  0  0  0  0  0  0
   -3.4265    1.5348    1.0729 O   0  0  0  0  0  0  0  0  0  0  0  0
   -3.7575    2.8837    1.4027 C   0  0  0  0  0  0  0  0  0  0  0  0
   -4.1661   -1.3536    0.5393 C   0  0  0  0  0  0  0  0  0  0  0  0
   -4.3792   -2.7762   -0.0673 C   0  0  0  0  0  0  0  0  0  0  0  0
   -2.9898   -3.4814   -0.0632 C   0  0  0  0  0  0  0  0  0  0  0  0
    4.9151   -1.5022   -0.8319 H   0  0  0  0  0  0  0  0  0  0  0  0
    5.6835   -1.4391   -2.4287 H   0  0  0  0  0  0  0  0  0  0  0  0
    6.2998   -0.4386   -1.1016 H   0  0  0  0  0  0  0  0  0  0  0  0
    3.5666   -0.1070   -2.4910 H   0  0  0  0  0  0  0  0  0  0  0  0
    4.9626    0.9379   -2.7051 H   0  0  0  0  0  0  0  0  0  0  0  0
    4.6009    3.5934    0.9680 H   0  0  0  0  0  0  0  0  0  0  0  0
    0.5010    1.2621    0.4125 H   0  0  0  0  0  0  0  0  0  0  0  0
   -3.2018    3.2100    2.2874 H   0  0  0  0  0  0  0  0  0  0  0  0
   -4.8261    2.9238    1.6314 H   0  0  0  0  0  0  0  0  0  0  0  0
   -3.5605    3.5455    0.5536 H   0  0  0  0  0  0  0  0  0  0  0  0
   -4.7751   -0.6123    0.0149 H   0  0  0  0  0  0  0  0  0  0  0  0
   -4.4209   -1.3493    1.6042 H   0  0  0  0  0  0  0  0  0  0  0  0
   -5.1387   -3.3491    0.4738 H   0  0  0  0  0  0  0  0  0  0  0  0
   -4.7233   -2.6723   -1.1050 H   0  0  0  0  0  0  0  0  0  0  0  0
   -2.8862   -4.1210    0.8193 H   0  0  0  0  0  0  0  0  0  0  0  0
   -2.8445   -4.0767   -0.9687 H   0  0  0  0  0  0  0  0  0  0  0  0
  1  2  1  0
  2  3  1  0
  3  4  1  0
  4  5  2  0
  5  6  1  0
  6  7  1  0
  6  8  2  0
  8  9  1  0
  9 10  2  0
  9 11  1  0
 11 12  1  0
 12 13  1  0
 13 14  1  0
 14 15  2  0
 15 16  1  0
 16 17  1  0
 17 18  2  0
 17 19  1  0
 19 20  1  0
 15 21  1  0
 21 22  1  0
 22 23  1  0
  8  3  1  0
 16 12  2  0
 23 14  1  0
  1 24  1  0
  1 25  1  0
  1 26  1  0
  2 27  1  0
  2 28  1  0
  5 29  1  0
 11 30  1  0
 20 31  1  0
 20 32  1  0
 20 33  1  0
 21 34  1  0
 21 35  1  0
 22 36  1  0
 22 37  1  0
 23 38  1  0
 23 39  1  0
M  END
$$$$
