
     RDKit          3D

 54 57  0  0  0  0  0  0  0  0999 V2000
   -3.4263    5.1938   -0.0206 C   0  0  0  0  0  0  0  0  0  0  0  0
   -3.1900    4.5921    1.2461 O   0  0  0  0  0  0  0  0  0  0  0  0
   -2.5617    3.3773    1.2460 C   0  0  0  0  0  0  0  0  0  0  0  0
   -2.1248    2.6771    0.1214 C   0  0  0  0  0  0  0  0  0  0  0  0
   -1.4862    1.4384    0.2627 C   0  0  0  0  0  0  0  0  0  0  0  0
   -1.2898    0.8902    1.5348 C   0  0  0  0  0  0  0  0  0  0  0  0
   -0.6518   -0.3672    1.6856 N   0  0  0  0  0  0  0  0  0  0  0  0
   -1.0638   -1.4366    2.4753 C   0  0  0  0  0  0  0  0  0  0  0  0
   -2.3846   -1.5662    3.1619 C   0  0  0  0  0  0  0  0  0  0  0  0
   -3.5286   -1.6843    2.1976 C   0  0  0  0  0  0  0  0  0  0  0  0
   -4.5203   -0.7628    1.9036 C   0  0  0  0  0  0  0  0  0  0  0  0
   -5.3654   -1.3288    0.9236 C   0  0  0  0  0  0  0  0  0  0  0  0
   -4.8805   -2.5857    0.6444 C   0  0  0  0  0  0  0  0  0  0  0  0
   -3.7687   -2.7989    1.4197 N   0  0  0  0  0  0  0  0  0  0  0  0
   -2.9838   -4.0161    1.3886 C   0  0  0  0  0  0  0  0  0  0  0  0
   -0.1680   -2.4053    2.4082 N   0  0  0  0  0  0  0  0  0  0  0  0
    0.8138   -2.0224    1.5415 N   0  0  0  0  0  0  0  0  0  0  0  0
    0.5185   -0.8214    1.1004 C   0  0  0  0  0  0  0  0  0  0  0  0
    1.5494    0.1034    0.0548 S   0  0  0  0  0  0  0  0  0  0  0  0
    3.1249   -0.7629    0.3122 C   0  0  0  0  0  0  0  0  0  0  0  0
    4.1868   -0.1429   -0.5799 C   0  0  0  0  0  0  0  0  0  0  0  0
    4.9242    0.7468   -0.1640 O   0  0  0  0  0  0  0  0  0  0  0  0
    4.2032   -0.6868   -1.8533 N   0  0  0  0  0  0  0  0  0  0  0  0
    5.0590   -0.3541   -2.9255 C   0  0  0  0  0  0  0  0  0  0  0  0
    6.0679    0.6074   -2.8632 C   0  0  0  0  0  0  0  0  0  0  0  0
    6.8656    0.8652   -3.9855 C   0  0  0  0  0  0  0  0  0  0  0  0
    6.6633    0.1657   -5.1758 C   0  0  0  0  0  0  0  0  0  0  0  0
    5.6607   -0.7978   -5.2486 C   0  0  0  0  0  0  0  0  0  0  0  0
    4.8707   -1.0460   -4.1296 C   0  0  0  0  0  0  0  0  0  0  0  0
    3.9043   -1.9760   -4.2115 F   0  0  0  0  0  0  0  0  0  0  0  0
   -1.7268    1.5898    2.6642 C   0  0  0  0  0  0  0  0  0  0  0  0
   -2.3573    2.8277    2.5134 C   0  0  0  0  0  0  0  0  0  0  0  0
   -3.9239    6.1530    0.1527 H   0  0  0  0  0  0  0  0  0  0  0  0
   -4.0944    4.5773   -0.6319 H   0  0  0  0  0  0  0  0  0  0  0  0
   -2.4859    5.3971   -0.5430 H   0  0  0  0  0  0  0  0  0  0  0  0
   -2.2691    3.0628   -0.8824 H   0  0  0  0  0  0  0  0  0  0  0  0
   -1.1920    0.9057   -0.6382 H   0  0  0  0  0  0  0  0  0  0  0  0
   -2.5551   -0.7336    3.8497 H   0  0  0  0  0  0  0  0  0  0  0  0
   -2.3658   -2.4577    3.8018 H   0  0  0  0  0  0  0  0  0  0  0  0
   -4.6213    0.2212    2.3449 H   0  0  0  0  0  0  0  0  0  0  0  0
   -6.2351   -0.8703    0.4706 H   0  0  0  0  0  0  0  0  0  0  0  0
   -5.2390   -3.3411   -0.0429 H   0  0  0  0  0  0  0  0  0  0  0  0
   -2.0682   -3.8190    0.8268 H   0  0  0  0  0  0  0  0  0  0  0  0
   -2.7611   -4.3252    2.4117 H   0  0  0  0  0  0  0  0  0  0  0  0
   -3.5590   -4.8031    0.8929 H   0  0  0  0  0  0  0  0  0  0  0  0
    3.0298   -1.8296    0.0803 H   0  0  0  0  0  0  0  0  0  0  0  0
    3.4447   -0.6688    1.3554 H   0  0  0  0  0  0  0  0  0  0  0  0
    3.5078   -1.3947   -2.0717 H   0  0  0  0  0  0  0  0  0  0  0  0
    6.2612    1.1767   -1.9591 H   0  0  0  0  0  0  0  0  0  0  0  0
    7.6484    1.6185   -3.9249 H   0  0  0  0  0  0  0  0  0  0  0  0
    7.2883    0.3719   -6.0413 H   0  0  0  0  0  0  0  0  0  0  0  0
    5.4885   -1.3537   -6.1642 H   0  0  0  0  0  0  0  0  0  0  0  0
   -1.5486    1.2227    3.6710 H   0  0  0  0  0  0  0  0  0  0  0  0
   -2.6839    3.3769    3.3937 H   0  0  0  0  0  0  0  0  0  0  0  0
  1  2  1  0
  2  3  1  0
  3  4  2  0
  4  5  1  0
  5  6  2  0
  6  7  1  0
  7  8  1  0
  8  9  1  0
  9 10  1  0
 10 11  2  0
 11 12  1  0
 12 13  2  0
 13 14  1  0
 14 15  1  0
  8 16  2  0
 16 17  1  0
 17 18  2  0
 18 19  1  0
 19 20  1  0
 20 21  1  0
 21 22  2  0
 21 23  1  0
 23 24  1  0
 24 25  2  0
 25 26  1  0
 26 27  2  0
 27 28  1  0
 28 29  2  0
 29 30  1  0
  6 31  1  0
 31 32  2  0
 32  3  1  0
 18  7  1  0
 29 24  1  0
 14 10  1  0
  1 33  1  0
  1 34  1  0
  1 35  1  0
  4 36  1  0
  5 37  1  0
  9 38  1  0
  9 39  1  0
 11 40  1  0
 12 41  1  0
 13 42  1  0
 15 43  1  0
 15 44  1  0
 15 45  1  0
 20 46  1  0
 20 47  1  0
 23 48  1  0
 25 49  1  0
 26 50  1  0
 27 51  1  0
 28 52  1  0
 31 53  1  0
 32 54  1  0
M  END
$$$$
