
     RDKit          3D

 16 16  0  0  0  0  0  0  0  0999 V2000
    2.1828    0.1984    0.2560 C   0  0  0  0  0  0  0  0  0  0  0  0
    1.1944   -0.3793   -0.7445 C   0  0  0  0  0  0  0  0  0  0  0  0
   -0.1746   -0.1798   -0.3177 N   0  0  0  0  0  0  0  0  0  0  0  0
   -0.9113    0.9283   -0.5794 C   0  0  0  0  0  0  0  0  0  0  0  0
   -0.6093    1.9178   -1.2204 O   0  0  0  0  0  0  0  0  0  0  0  0
   -2.2080    0.7495    0.0830 C   0  0  0  0  0  0  0  0  0  0  0  0
   -2.1774   -0.4178    0.7268 C   0  0  0  0  0  0  0  0  0  0  0  0
   -0.8602   -1.0210    0.4956 C   0  0  0  0  0  0  0  0  0  0  0  0
   -0.5046   -2.0779    0.9832 O   0  0  0  0  0  0  0  0  0  0  0  0
    3.2095    0.0367   -0.0860 H   0  0  0  0  0  0  0  0  0  0  0  0
    2.0696   -0.2734    1.2377 H   0  0  0  0  0  0  0  0  0  0  0  0
    2.0290    1.2750    0.3838 H   0  0  0  0  0  0  0  0  0  0  0  0
    1.3743   -1.4537   -0.8590 H   0  0  0  0  0  0  0  0  0  0  0  0
    1.3335    0.1036   -1.7178 H   0  0  0  0  0  0  0  0  0  0  0  0
   -3.0045    1.4702    0.0323 H   0  0  0  0  0  0  0  0  0  0  0  0
   -2.9430   -0.8767    1.3265 H   0  0  0  0  0  0  0  0  0  0  0  0
  1  2  1  0
  2  3  1  0
  3  4  1  0
  4  5  2  0
  4  6  1  0
  6  7  2  0
  7  8  1  0
  8  9  2  0
  8  3  1  0
  1 10  1  0
  1 11  1  0
  1 12  1  0
  2 13  1  0
  2 14  1  0
  6 15  1  0
  7 16  1  0
M  END
$$$$
