
     RDKit          3D

 63 66  0  0  0  0  0  0  0  0999 V2000
   -4.6934   -2.9837    1.5488 C   0  0  0  0  0  0  0  0  0  0  0  0
   -3.5527   -2.2673    0.8813 C   0  0  0  0  0  0  0  0  0  0  0  0
   -2.6368   -3.0232    0.1335 C   0  0  0  0  0  0  0  0  0  0  0  0
   -1.5494   -2.4160   -0.5029 C   0  0  0  0  0  0  0  0  0  0  0  0
   -1.3507   -1.0360   -0.4130 C   0  0  0  0  0  0  0  0  0  0  0  0
   -0.2415   -0.4937   -1.0943 N   0  0  0  0  0  0  0  0  0  0  0  0
   -0.0028    0.8462   -1.3465 C   0  0  0  0  0  0  0  0  0  0  0  0
   -0.7723    1.7772   -1.1380 O   0  0  0  0  0  0  0  0  0  0  0  0
    1.3068    1.1401   -1.9923 C   0  0  0  0  0  0  0  0  0  0  0  0
    1.3856    2.1955   -2.9122 C   0  0  0  0  0  0  0  0  0  0  0  0
    2.5981    2.5007   -3.5377 C   0  0  0  0  0  0  0  0  0  0  0  0
    3.7434    1.7648   -3.2362 C   0  0  0  0  0  0  0  0  0  0  0  0
    3.6663    0.7350   -2.2952 C   0  0  0  0  0  0  0  0  0  0  0  0
    5.1111   -0.2155   -1.8753 S   0  0  0  0  0  6  0  0  0  0  0  0
    6.2176    0.2819   -2.6672 O   0  0  0  0  0  0  0  0  0  0  0  0
    4.7003   -1.6026   -1.9398 O   0  0  0  0  0  0  0  0  0  0  0  0
    5.3652    0.2370   -0.2416 N   0  0  0  0  0  0  0  0  0  0  0  0
    5.7601    1.6516   -0.0332 C   0  0  0  0  0  0  0  0  0  0  0  0
    6.1524   -0.6981    0.5230 C   0  0  0  0  0  0  0  0  0  0  0  0
    7.4406   -1.0832    0.1389 C   0  0  0  0  0  0  0  0  0  0  0  0
    8.1929   -1.9219    0.9646 C   0  0  0  0  0  0  0  0  0  0  0  0
    7.6714   -2.3549    2.1845 C   0  0  0  0  0  0  0  0  0  0  0  0
    6.3996   -1.9457    2.5849 C   0  0  0  0  0  0  0  0  0  0  0  0
    5.6456   -1.1098    1.7590 C   0  0  0  0  0  0  0  0  0  0  0  0
    2.4553    0.4110   -1.6721 C   0  0  0  0  0  0  0  0  0  0  0  0
   -2.2295   -0.2769    0.3582 C   0  0  0  0  0  0  0  0  0  0  0  0
   -3.3242   -0.8835    1.0006 C   0  0  0  0  0  0  0  0  0  0  0  0
   -4.3727    0.1597    2.0045 S   0  0  0  0  0  6  0  0  0  0  0  0
   -4.7147   -0.5700    3.2082 O   0  0  0  0  0  0  0  0  0  0  0  0
   -3.7839    1.4795    2.0923 O   0  0  0  0  0  0  0  0  0  0  0  0
   -5.7818    0.3070    1.0514 N   0  0  0  0  0  0  0  0  0  0  0  0
   -5.6181    1.0537   -0.2415 C   0  0  0  0  0  0  0  0  0  0  0  0
   -6.2222    2.4577   -0.1472 C   0  0  0  0  0  0  0  0  0  0  0  0
   -7.6333    2.4425    0.1135 O   0  0  0  0  0  0  0  0  0  0  0  0
   -8.0520    1.3158    0.8973 C   0  0  0  0  0  0  0  0  0  0  0  0
   -6.9608    0.7992    1.8378 C   0  0  0  0  0  0  0  0  0  0  0  0
   -5.6329   -2.4366    1.4342 H   0  0  0  0  0  0  0  0  0  0  0  0
   -4.4752   -3.1367    2.6099 H   0  0  0  0  0  0  0  0  0  0  0  0
   -4.8566   -3.9687    1.0966 H   0  0  0  0  0  0  0  0  0  0  0  0
   -2.7645   -4.1008    0.0368 H   0  0  0  0  0  0  0  0  0  0  0  0
   -0.8723   -3.0414   -1.0821 H   0  0  0  0  0  0  0  0  0  0  0  0
    0.3737   -1.1629   -1.5410 H   0  0  0  0  0  0  0  0  0  0  0  0
    0.4971    2.7804   -3.1470 H   0  0  0  0  0  0  0  0  0  0  0  0
    2.6462    3.3133   -4.2595 H   0  0  0  0  0  0  0  0  0  0  0  0
    4.6837    2.0030   -3.7299 H   0  0  0  0  0  0  0  0  0  0  0  0
    5.8038    1.8772    1.0382 H   0  0  0  0  0  0  0  0  0  0  0  0
    5.0196    2.3290   -0.4666 H   0  0  0  0  0  0  0  0  0  0  0  0
    6.7426    1.8591   -0.4687 H   0  0  0  0  0  0  0  0  0  0  0  0
    7.8731   -0.7396   -0.7978 H   0  0  0  0  0  0  0  0  0  0  0  0
    9.1884   -2.2348    0.6573 H   0  0  0  0  0  0  0  0  0  0  0  0
    8.2601   -3.0072    2.8256 H   0  0  0  0  0  0  0  0  0  0  0  0
    5.9963   -2.2740    3.5401 H   0  0  0  0  0  0  0  0  0  0  0  0
    4.6581   -0.7869    2.0788 H   0  0  0  0  0  0  0  0  0  0  0  0
    2.4294   -0.3836   -0.9294 H   0  0  0  0  0  0  0  0  0  0  0  0
   -2.0718    0.7905    0.4822 H   0  0  0  0  0  0  0  0  0  0  0  0
   -4.5687    1.1233   -0.5390 H   0  0  0  0  0  0  0  0  0  0  0  0
   -6.1340    0.4711   -1.0144 H   0  0  0  0  0  0  0  0  0  0  0  0
   -5.7388    3.0408    0.6447 H   0  0  0  0  0  0  0  0  0  0  0  0
   -6.0717    2.9966   -1.0876 H   0  0  0  0  0  0  0  0  0  0  0  0
   -8.3727    0.5263    0.2071 H   0  0  0  0  0  0  0  0  0  0  0  0
   -8.9312    1.6253    1.4718 H   0  0  0  0  0  0  0  0  0  0  0  0
   -7.3534   -0.0297    2.4356 H   0  0  0  0  0  0  0  0  0  0  0  0
   -6.6478    1.6089    2.5081 H   0  0  0  0  0  0  0  0  0  0  0  0
  1  2  1  0
  2  3  2  0
  3  4  1  0
  4  5  2  0
  5  6  1  0
  6  7  1  0
  7  8  2  0
  7  9  1  0
  9 10  2  0
 10 11  1  0
 11 12  2  0
 12 13  1  0
 13 14  1  0
 14 15  2  0
 14 16  2  0
 14 17  1  0
 17 18  1  0
 17 19  1  0
 19 20  2  0
 20 21  1  0
 21 22  2  0
 22 23  1  0
 23 24  2  0
 13 25  2  0
  5 26  1  0
 26 27  2  0
 27 28  1  0
 28 29  2  0
 28 30  2  0
 28 31  1  0
 31 32  1  0
 32 33  1  0
 33 34  1  0
 34 35  1  0
 35 36  1  0
 27  2  1  0
 36 31  1  0
 25  9  1  0
 24 19  1  0
  1 37  1  0
  1 38  1  0
  1 39  1  0
  3 40  1  0
  4 41  1  0
  6 42  1  0
 10 43  1  0
 11 44  1  0
 12 45  1  0
 18 46  1  0
 18 47  1  0
 18 48  1  0
 20 49  1  0
 21 50  1  0
 22 51  1  0
 23 52  1  0
 24 53  1  0
 25 54  1  0
 26 55  1  0
 32 56  1  0
 32 57  1  0
 33 58  1  0
 33 59  1  0
 35 60  1  0
 35 61  1  0
 36 62  1  0
 36 63  1  0
M  END
$$$$
