
     RDKit          3D

 80 86  0  0  0  0  0  0  0  0999 V2000
    6.6782   -0.3685    2.5763 C   0  0  0  0  0  0  0  0  0  0  0  0
    6.0560   -1.5394    1.8078 C   0  0  0  0  0  0  0  0  0  0  0  0
    6.0640   -2.7816    2.7133 C   0  0  0  0  0  0  0  0  0  0  0  0
    6.8303   -1.8641    0.5248 C   0  0  0  0  0  0  0  0  0  0  0  0
    4.6527   -1.3012    1.5307 O   0  0  0  0  0  0  0  0  0  0  0  0
    4.2563   -0.2645    0.7489 C   0  0  0  0  0  0  0  0  0  0  0  0
    5.0120    0.5454    0.2271 O   0  0  0  0  0  0  0  0  0  0  0  0
    2.8857   -0.2315    0.6066 N   0  0  0  0  0  0  0  0  0  0  0  0
    2.0050   -1.2308    1.2160 C   0  0  0  0  0  0  0  0  0  0  0  0
    0.5124   -0.8909    1.0430 C   0  0  0  0  0  0  0  0  0  0  0  0
    0.1672   -0.6947   -0.3638 N   0  0  0  0  0  0  0  0  0  0  0  0
    1.1330    0.1992   -1.1030 C   0  0  2  0  0  0  0  0  0  0  0  0
    2.2501    0.7930   -0.2213 C   0  0  0  0  0  0  0  0  0  0  0  0
    0.2476    1.2153   -1.7113 C   0  0  0  0  0  0  0  0  0  0  0  0
   -1.1051    0.9302   -1.4752 C   0  0  0  0  0  0  0  0  0  0  0  0
   -1.8632    1.9072   -2.0689 C   0  0  0  0  0  0  0  0  0  0  0  0
   -3.1737    2.1000   -2.1409 O   0  0  0  0  0  0  0  0  0  0  0  0
   -0.9711    2.7973   -2.6464 N   0  0  0  0  0  0  0  0  0  0  0  0
   -1.3507    3.9977   -3.3804 C   0  0  0  0  0  0  0  0  0  0  0  0
   -1.4695    5.1931   -2.4650 C   0  0  0  0  0  0  0  0  0  0  0  0
   -0.3341    5.9414   -2.1197 C   0  0  0  0  0  0  0  0  0  0  0  0
   -0.4411    7.0378   -1.2632 C   0  0  0  0  0  0  0  0  0  0  0  0
   -1.6838    7.3972   -0.7422 C   0  0  0  0  0  0  0  0  0  0  0  0
   -2.8184    6.6580   -1.0713 C   0  0  0  0  0  0  0  0  0  0  0  0
   -2.7119    5.5594   -1.9262 C   0  0  0  0  0  0  0  0  0  0  0  0
    0.3306    2.3558   -2.4645 C   0  0  0  0  0  0  0  0  0  0  0  0
    1.3615    3.0144   -2.9775 O   0  0  0  0  0  0  0  0  0  0  0  0
   -1.2465   -0.3066   -0.6806 C   0  0  1  0  0  0  0  0  0  0  0  0
   -1.9230   -1.4729   -1.4604 C   0  0  0  0  0  0  0  0  0  0  0  0
   -1.5325   -2.0145   -2.4871 O   0  0  0  0  0  0  0  0  0  0  0  0
   -3.0770   -1.8200   -0.7395 N   0  0  0  0  0  0  0  0  0  0  0  0
   -3.9121   -2.9480   -1.0820 C   0  0  0  0  0  0  0  0  0  0  0  0
   -3.6100   -4.1750   -0.2485 C   0  0  0  0  0  0  0  0  0  0  0  0
   -4.6159   -4.7853    0.5143 C   0  0  0  0  0  0  0  0  0  0  0  0
   -4.3387   -5.9265    1.2715 C   0  0  0  0  0  0  0  0  0  0  0  0
   -3.0568   -6.4714    1.2716 C   0  0  0  0  0  0  0  0  0  0  0  0
   -2.0494   -5.8800    0.5121 C   0  0  0  0  0  0  0  0  0  0  0  0
   -2.3249   -4.7415   -0.2472 C   0  0  0  0  0  0  0  0  0  0  0  0
   -3.2544   -0.9880    0.3738 C   0  0  0  0  0  0  0  0  0  0  0  0
   -4.2810   -1.0035    1.3016 C   0  0  0  0  0  0  0  0  0  0  0  0
   -4.2762   -0.0288    2.3024 C   0  0  0  0  0  0  0  0  0  0  0  0
   -3.2627    0.9399    2.3565 C   0  0  0  0  0  0  0  0  0  0  0  0
   -2.2293    0.9399    1.4185 C   0  0  0  0  0  0  0  0  0  0  0  0
   -2.2217   -0.0441    0.4366 C   0  0  0  0  0  0  0  0  0  0  0  0
    7.6786   -0.6178    2.9469 H   0  0  0  0  0  0  0  0  0  0  0  0
    6.0508   -0.0855    3.4291 H   0  0  0  0  0  0  0  0  0  0  0  0
    6.7757    0.5234    1.9496 H   0  0  0  0  0  0  0  0  0  0  0  0
    5.4868   -2.5998    3.6277 H   0  0  0  0  0  0  0  0  0  0  0  0
    7.0808   -3.0706    2.9989 H   0  0  0  0  0  0  0  0  0  0  0  0
    5.5905   -3.6338    2.2110 H   0  0  0  0  0  0  0  0  0  0  0  0
    6.9200   -0.9929   -0.1312 H   0  0  0  0  0  0  0  0  0  0  0  0
    6.3151   -2.6402   -0.0528 H   0  0  0  0  0  0  0  0  0  0  0  0
    7.8446   -2.2128    0.7489 H   0  0  0  0  0  0  0  0  0  0  0  0
    2.2324   -2.1984    0.7517 H   0  0  0  0  0  0  0  0  0  0  0  0
    2.2489   -1.3092    2.2815 H   0  0  0  0  0  0  0  0  0  0  0  0
   -0.0827   -1.7066    1.4683 H   0  0  0  0  0  0  0  0  0  0  0  0
    0.3117    0.0144    1.6273 H   0  0  0  0  0  0  0  0  0  0  0  0
    1.5880   -0.4109   -1.8933 H   0  0  0  0  0  0  0  0  0  0  0  0
    2.9930    1.3012   -0.8462 H   0  0  0  0  0  0  0  0  0  0  0  0
    1.8479    1.5494    0.4652 H   0  0  0  0  0  0  0  0  0  0  0  0
   -3.6045    1.3995   -1.6210 H   0  0  0  0  0  0  0  0  0  0  0  0
   -0.6042    4.1775   -4.1634 H   0  0  0  0  0  0  0  0  0  0  0  0
   -2.2975    3.7979   -3.8957 H   0  0  0  0  0  0  0  0  0  0  0  0
    0.6426    5.6648   -2.5131 H   0  0  0  0  0  0  0  0  0  0  0  0
    0.4460    7.6083   -1.0002 H   0  0  0  0  0  0  0  0  0  0  0  0
   -1.7663    8.2533   -0.0775 H   0  0  0  0  0  0  0  0  0  0  0  0
   -3.7867    6.9338   -0.6605 H   0  0  0  0  0  0  0  0  0  0  0  0
   -3.6032    4.9827   -2.1674 H   0  0  0  0  0  0  0  0  0  0  0  0
    2.1622    2.4818   -2.8315 H   0  0  0  0  0  0  0  0  0  0  0  0
   -4.9621   -2.6481   -0.9810 H   0  0  0  0  0  0  0  0  0  0  0  0
   -3.7626   -3.2059   -2.1383 H   0  0  0  0  0  0  0  0  0  0  0  0
   -5.6256   -4.3818    0.5203 H   0  0  0  0  0  0  0  0  0  0  0  0
   -5.1261   -6.3948    1.8568 H   0  0  0  0  0  0  0  0  0  0  0  0
   -2.8416   -7.3609    1.8584 H   0  0  0  0  0  0  0  0  0  0  0  0
   -1.0502   -6.3084    0.5039 H   0  0  0  0  0  0  0  0  0  0  0  0
   -1.5287   -4.3016   -0.8458 H   0  0  0  0  0  0  0  0  0  0  0  0
   -5.0770   -1.7384    1.2685 H   0  0  0  0  0  0  0  0  0  0  0  0
   -5.0700   -0.0147    3.0457 H   0  0  0  0  0  0  0  0  0  0  0  0
   -3.2833    1.6984    3.1361 H   0  0  0  0  0  0  0  0  0  0  0  0
   -1.4514    1.6980    1.4558 H   0  0  0  0  0  0  0  0  0  0  0  0
  1  2  1  0
  2  3  1  0
  2  4  1  0
  2  5  1  0
  5  6  1  0
  6  7  2  0
  6  8  1  0
  8  9  1  0
  9 10  1  0
 10 11  1  0
 11 12  1  0
 12 13  1  0
 12 14  1  0
 14 15  1  0
 15 16  2  0
 16 17  1  0
 16 18  1  0
 18 19  1  0
 19 20  1  0
 20 21  2  0
 21 22  1  0
 22 23  2  0
 23 24  1  0
 24 25  2  0
 18 26  1  0
 26 27  1  0
 15 28  1  0
 28 29  1  0
 29 30  2  0
 29 31  1  0
 31 32  1  0
 32 33  1  0
 33 34  2  0
 34 35  1  0
 35 36  2  0
 36 37  1  0
 37 38  2  0
 31 39  1  0
 39 40  2  0
 40 41  1  0
 41 42  2  0
 42 43  1  0
 43 44  2  0
 13  8  1  0
 26 14  2  0
 44 28  1  0
 28 11  1  1
 38 33  1  0
 44 39  1  0
 25 20  1  0
  1 45  1  0
  1 46  1  0
  1 47  1  0
  3 48  1  0
  3 49  1  0
  3 50  1  0
  4 51  1  0
  4 52  1  0
  4 53  1  0
  9 54  1  0
  9 55  1  0
 10 56  1  0
 10 57  1  0
 12 58  1  6
 13 59  1  0
 13 60  1  0
 17 61  1  0
 19 62  1  0
 19 63  1  0
 21 64  1  0
 22 65  1  0
 23 66  1  0
 24 67  1  0
 25 68  1  0
 27 69  1  0
 32 70  1  0
 32 71  1  0
 34 72  1  0
 35 73  1  0
 36 74  1  0
 37 75  1  0
 38 76  1  0
 40 77  1  0
 41 78  1  0
 42 79  1  0
 43 80  1  0
M  END
$$$$
