
     RDKit          3D

 47 48  0  0  0  0  0  0  0  0999 V2000
    5.8133    3.5733   -1.7609 C   0  0  0  0  0  0  0  0  0  0  0  0
    6.6234    2.4867   -1.3262 O   0  0  0  0  0  0  0  0  0  0  0  0
    5.9667    1.3438   -0.9452 C   0  0  0  0  0  0  0  0  0  0  0  0
    4.5854    1.1384   -0.9634 C   0  0  0  0  0  0  0  0  0  0  0  0
    4.0403   -0.0845   -0.5357 C   0  0  0  0  0  0  0  0  0  0  0  0
    2.5844   -0.2682   -0.6001 C   0  0  0  0  0  0  0  0  0  0  0  0
    1.8717   -0.8963    0.3474 C   0  0  0  0  0  0  0  0  0  0  0  0
    0.3897   -1.0306    0.2085 C   0  0  0  0  0  0  0  0  0  0  0  0
   -0.1931   -0.5356   -0.7516 O   0  0  0  0  0  0  0  0  0  0  0  0
   -0.3006   -1.7952    1.3107 C   0  0  0  0  0  0  0  0  0  0  0  0
   -1.7739   -2.0690    1.1498 C   0  0  0  0  0  0  0  0  0  0  0  0
   -2.5097   -2.1427    2.1355 O   0  0  0  0  0  0  0  0  0  0  0  0
   -2.3005   -2.4186   -0.1956 C   0  0  0  0  0  0  0  0  0  0  0  0
   -3.3222   -1.7798   -0.7857 C   0  0  0  0  0  0  0  0  0  0  0  0
   -4.0575   -0.6395   -0.2323 C   0  0  0  0  0  0  0  0  0  0  0  0
   -3.8607    0.6305   -0.7900 C   0  0  0  0  0  0  0  0  0  0  0  0
   -4.5607    1.7299   -0.2953 C   0  0  0  0  0  0  0  0  0  0  0  0
   -5.4508    1.5492    0.7554 C   0  0  0  0  0  0  0  0  0  0  0  0
   -6.1243    2.6435    1.2279 O   0  0  0  0  0  0  0  0  0  0  0  0
   -5.6561    0.2924    1.3363 C   0  0  0  0  0  0  0  0  0  0  0  0
   -6.5492    0.2733    2.3775 O   0  0  0  0  0  0  0  0  0  0  0  0
   -6.6278   -0.9443    3.1133 C   0  0  0  0  0  0  0  0  0  0  0  0
   -4.9606   -0.8054    0.8279 C   0  0  0  0  0  0  0  0  0  0  0  0
    4.8980   -1.1106   -0.1134 C   0  0  0  0  0  0  0  0  0  0  0  0
    6.2789   -0.9121   -0.0932 C   0  0  0  0  0  0  0  0  0  0  0  0
    6.7963    0.3075   -0.5059 C   0  0  0  0  0  0  0  0  0  0  0  0
    8.1547    0.4746   -0.4809 O   0  0  0  0  0  0  0  0  0  0  0  0
    6.4792    4.4038   -2.0181 H   0  0  0  0  0  0  0  0  0  0  0  0
    5.2482    3.3080   -2.6611 H   0  0  0  0  0  0  0  0  0  0  0  0
    5.1484    3.9151   -0.9601 H   0  0  0  0  0  0  0  0  0  0  0  0
    3.9091    1.9176   -1.3003 H   0  0  0  0  0  0  0  0  0  0  0  0
    2.0889    0.1635   -1.4688 H   0  0  0  0  0  0  0  0  0  0  0  0
    2.3255   -1.3137    1.2388 H   0  0  0  0  0  0  0  0  0  0  0  0
    0.1971   -2.7631    1.4379 H   0  0  0  0  0  0  0  0  0  0  0  0
   -0.1781   -1.2087    2.2295 H   0  0  0  0  0  0  0  0  0  0  0  0
   -1.7642   -3.1968   -0.7259 H   0  0  0  0  0  0  0  0  0  0  0  0
   -3.6140   -2.0637   -1.7943 H   0  0  0  0  0  0  0  0  0  0  0  0
   -3.1547    0.7710   -1.6058 H   0  0  0  0  0  0  0  0  0  0  0  0
   -4.4116    2.7171   -0.7211 H   0  0  0  0  0  0  0  0  0  0  0  0
   -6.6880    2.2939    1.9459 H   0  0  0  0  0  0  0  0  0  0  0  0
   -5.6544   -1.2163    3.5354 H   0  0  0  0  0  0  0  0  0  0  0  0
   -7.3210   -0.7869    3.9463 H   0  0  0  0  0  0  0  0  0  0  0  0
   -7.0315   -1.7514    2.4920 H   0  0  0  0  0  0  0  0  0  0  0  0
   -5.0898   -1.7985    1.2461 H   0  0  0  0  0  0  0  0  0  0  0  0
    4.5057   -2.0798    0.1882 H   0  0  0  0  0  0  0  0  0  0  0  0
    6.9471   -1.7033    0.2328 H   0  0  0  0  0  0  0  0  0  0  0  0
    8.3034    1.3812   -0.8151 H   0  0  0  0  0  0  0  0  0  0  0  0
  1  2  1  0
  2  3  1  0
  3  4  2  0
  4  5  1  0
  5  6  1  0
  6  7  2  3
  7  8  1  0
  8  9  2  0
  8 10  1  0
 10 11  1  0
 11 12  2  0
 11 13  1  0
 13 14  2  3
 14 15  1  0
 15 16  2  0
 16 17  1  0
 17 18  2  0
 18 19  1  0
 18 20  1  0
 20 21  1  0
 21 22  1  0
 20 23  2  0
  5 24  2  0
 24 25  1  0
 25 26  2  0
 26 27  1  0
 26  3  1  0
 23 15  1  0
  1 28  1  0
  1 29  1  0
  1 30  1  0
  4 31  1  0
  6 32  1  0
  7 33  1  0
 10 34  1  0
 10 35  1  0
 13 36  1  0
 14 37  1  0
 16 38  1  0
 17 39  1  0
 19 40  1  0
 22 41  1  0
 22 42  1  0
 22 43  1  0
 23 44  1  0
 24 45  1  0
 25 46  1  0
 27 47  1  0
M  END
$$$$
