
     RDKit          3D

 40 42  0  0  0  0  0  0  0  0999 V2000
    2.4611    3.8638   -0.8391 C   0  0  0  0  0  0  0  0  0  0  0  0
    1.7795    4.1201    0.4943 C   0  0  0  0  0  0  0  0  0  0  0  0
   -0.0309    3.9248    0.3782 S   0  0  0  0  0  0  0  0  0  0  0  0
   -0.2080    2.1452    0.3875 C   0  0  0  0  0  0  0  0  0  0  0  0
   -1.4540    1.6106    0.1462 C   0  0  0  0  0  0  0  0  0  0  0  0
   -1.5676    0.2343    0.1628 C   0  0  0  0  0  0  0  0  0  0  0  0
   -2.8224   -0.3593   -0.0825 N   0  0  0  0  0  0  0  0  0  0  0  0
   -2.9041   -1.8030    0.2401 C   0  0  0  0  0  0  0  0  0  0  0  0
   -2.7158   -2.6515   -1.0250 C   0  0  0  0  0  0  0  0  0  0  0  0
   -3.7207   -2.4073   -2.0270 O   0  0  0  0  0  0  0  0  0  0  0  0
   -4.3198   -1.1059   -1.9235 C   0  0  0  0  0  0  0  0  0  0  0  0
   -3.3382   -0.0287   -1.4354 C   0  0  0  0  0  0  0  0  0  0  0  0
   -0.5011   -0.5387    0.4200 N   0  0  0  0  0  0  0  0  0  0  0  0
    0.6812    0.0631    0.6497 C   0  0  0  0  0  0  0  0  0  0  0  0
    1.8516   -0.7978    0.9211 C   0  0  0  0  0  0  0  0  0  0  0  0
    1.7432   -2.2023    0.9447 C   0  0  0  0  0  0  0  0  0  0  0  0
    2.8499   -3.0190    1.1996 C   0  0  0  0  0  0  0  0  0  0  0  0
    4.0963   -2.4486    1.4380 C   0  0  0  0  0  0  0  0  0  0  0  0
    4.2362   -1.0645    1.4219 C   0  0  0  0  0  0  0  0  0  0  0  0
    3.1269   -0.2513    1.1665 C   0  0  0  0  0  0  0  0  0  0  0  0
    0.8698    1.3915    0.6399 N   0  0  0  0  0  0  0  0  0  0  0  0
    2.3210    2.8350   -1.1844 H   0  0  0  0  0  0  0  0  0  0  0  0
    2.0893    4.5424   -1.6144 H   0  0  0  0  0  0  0  0  0  0  0  0
    3.5387    4.0334   -0.7424 H   0  0  0  0  0  0  0  0  0  0  0  0
    2.1930    3.4827    1.2820 H   0  0  0  0  0  0  0  0  0  0  0  0
    1.9716    5.1557    0.7945 H   0  0  0  0  0  0  0  0  0  0  0  0
   -2.3141    2.2427   -0.0295 H   0  0  0  0  0  0  0  0  0  0  0  0
   -3.9080   -1.9864    0.6437 H   0  0  0  0  0  0  0  0  0  0  0  0
   -2.2068   -2.1085    1.0287 H   0  0  0  0  0  0  0  0  0  0  0  0
   -1.7384   -2.4604   -1.4823 H   0  0  0  0  0  0  0  0  0  0  0  0
   -2.7597   -3.7163   -0.7754 H   0  0  0  0  0  0  0  0  0  0  0  0
   -5.1813   -1.1813   -1.2497 H   0  0  0  0  0  0  0  0  0  0  0  0
   -4.7038   -0.8432   -2.9144 H   0  0  0  0  0  0  0  0  0  0  0  0
   -3.8481    0.9406   -1.4085 H   0  0  0  0  0  0  0  0  0  0  0  0
   -2.5113    0.0298   -2.1563 H   0  0  0  0  0  0  0  0  0  0  0  0
    0.7801   -2.6761    0.7619 H   0  0  0  0  0  0  0  0  0  0  0  0
    2.7342   -4.0997    1.2112 H   0  0  0  0  0  0  0  0  0  0  0  0
    4.9570   -3.0816    1.6365 H   0  0  0  0  0  0  0  0  0  0  0  0
    5.2072   -0.6128    1.6080 H   0  0  0  0  0  0  0  0  0  0  0  0
    3.2663    0.8286    1.1607 H   0  0  0  0  0  0  0  0  0  0  0  0
  1  2  1  0
  2  3  1  0
  3  4  1  0
  4  5  2  0
  5  6  1  0
  6  7  1  0
  7  8  1  0
  8  9  1  0
  9 10  1  0
 10 11  1  0
 11 12  1  0
  6 13  2  0
 13 14  1  0
 14 15  1  0
 15 16  2  0
 16 17  1  0
 17 18  2  0
 18 19  1  0
 19 20  2  0
 14 21  2  0
 21  4  1  0
 12  7  1  0
 20 15  1  0
  1 22  1  0
  1 23  1  0
  1 24  1  0
  2 25  1  0
  2 26  1  0
  5 27  1  0
  8 28  1  0
  8 29  1  0
  9 30  1  0
  9 31  1  0
 11 32  1  0
 11 33  1  0
 12 34  1  0
 12 35  1  0
 16 36  1  0
 17 37  1  0
 18 38  1  0
 19 39  1  0
 20 40  1  0
M  END
$$$$
