
     RDKit          3D

 45 47  0  0  0  0  0  0  0  0999 V2000
    7.7738    1.5416   -1.6872 C   0  0  0  0  0  0  0  0  0  0  0  0
    6.9083    0.4951   -1.0025 C   0  0  0  0  0  0  0  0  0  0  0  0
    7.0611    0.5529    0.5200 C   0  0  0  0  0  0  0  0  0  0  0  0
    6.2661   -0.5377    1.2434 C   0  0  0  0  0  0  0  0  0  0  0  0
    4.7896   -0.3244    1.1608 C   0  0  0  0  0  0  0  0  0  0  0  0
    4.1457    0.6888    1.7025 N   0  0  0  0  0  0  0  0  0  0  0  0
    2.7873    0.6218    1.4659 N   0  0  0  0  0  0  0  0  0  0  0  0
    2.4565   -0.4387    0.7636 C   0  0  0  0  0  0  0  0  0  0  0  0
    1.1597   -0.7077    0.4150 N   0  0  0  0  0  0  0  0  0  0  0  0
    0.6895   -1.7759   -0.3114 C   0  0  0  0  0  0  0  0  0  0  0  0
    1.3496   -2.6942   -0.7889 O   0  0  0  0  0  0  0  0  0  0  0  0
   -0.8310   -1.7457   -0.4968 C   0  0  0  0  0  0  0  0  0  0  0  0
   -1.4047   -0.5868    0.1034 O   0  0  0  0  0  0  0  0  0  0  0  0
   -2.7611   -0.4461    0.0096 C   0  0  0  0  0  0  0  0  0  0  0  0
   -3.6385   -1.3320   -0.6171 C   0  0  0  0  0  0  0  0  0  0  0  0
   -5.0176   -1.0695   -0.6419 C   0  0  0  0  0  0  0  0  0  0  0  0
   -5.5431    0.0807   -0.0423 C   0  0  0  0  0  0  0  0  0  0  0  0
   -6.9735    0.4144   -0.0319 C   0  0  0  0  0  0  0  0  0  0  0  0
   -7.9681   -0.4981   -0.6864 C   0  0  0  0  0  0  0  0  0  0  0  0
   -7.3572    1.5474    0.5750 C   0  0  0  0  0  0  0  0  0  0  0  0
   -6.4225    2.4743    1.2320 C   0  0  0  0  0  0  0  0  0  0  0  0
   -6.8309    3.4956    1.7721 O   0  0  0  0  0  0  0  0  0  0  0  0
   -5.0819    2.1328    1.2058 O   0  0  0  0  0  0  0  0  0  0  0  0
   -4.6459    0.9506    0.5770 C   0  0  0  0  0  0  0  0  0  0  0  0
   -3.2726    0.7028    0.6100 C   0  0  0  0  0  0  0  0  0  0  0  0
    3.7703   -1.4340    0.3365 S   0  0  0  0  0  0  0  0  0  0  0  0
    7.4935    2.5510   -1.3699 H   0  0  0  0  0  0  0  0  0  0  0  0
    8.8326    1.3889   -1.4549 H   0  0  0  0  0  0  0  0  0  0  0  0
    7.6529    1.4812   -2.7733 H   0  0  0  0  0  0  0  0  0  0  0  0
    5.8636    0.6618   -1.2873 H   0  0  0  0  0  0  0  0  0  0  0  0
    7.1914   -0.4991   -1.3672 H   0  0  0  0  0  0  0  0  0  0  0  0
    8.1213    0.4297    0.7748 H   0  0  0  0  0  0  0  0  0  0  0  0
    6.7617    1.5441    0.8833 H   0  0  0  0  0  0  0  0  0  0  0  0
    6.5503   -1.5234    0.8559 H   0  0  0  0  0  0  0  0  0  0  0  0
    6.5476   -0.5302    2.3041 H   0  0  0  0  0  0  0  0  0  0  0  0
    0.4851   -0.0240    0.7407 H   0  0  0  0  0  0  0  0  0  0  0  0
   -1.2282   -2.6518   -0.0244 H   0  0  0  0  0  0  0  0  0  0  0  0
   -1.0222   -1.7446   -1.5762 H   0  0  0  0  0  0  0  0  0  0  0  0
   -3.2910   -2.2404   -1.0999 H   0  0  0  0  0  0  0  0  0  0  0  0
   -5.6644   -1.7872   -1.1411 H   0  0  0  0  0  0  0  0  0  0  0  0
   -8.9913   -0.1165   -0.5965 H   0  0  0  0  0  0  0  0  0  0  0  0
   -7.9509   -1.4897   -0.2214 H   0  0  0  0  0  0  0  0  0  0  0  0
   -7.7550   -0.6034   -1.7556 H   0  0  0  0  0  0  0  0  0  0  0  0
   -8.3969    1.8521    0.6189 H   0  0  0  0  0  0  0  0  0  0  0  0
   -2.6089    1.4075    1.1039 H   0  0  0  0  0  0  0  0  0  0  0  0
  1  2  1  0
  2  3  1  0
  3  4  1  0
  4  5  1  0
  5  6  2  0
  6  7  1  0
  7  8  2  0
  8  9  1  0
  9 10  1  0
 10 11  2  0
 10 12  1  0
 12 13  1  0
 13 14  1  0
 14 15  2  0
 15 16  1  0
 16 17  2  0
 17 18  1  0
 18 19  1  0
 18 20  2  0
 20 21  1  0
 21 22  2  0
 21 23  1  0
 23 24  1  0
 24 25  2  0
  8 26  1  0
 26  5  1  0
 25 14  1  0
 24 17  1  0
  1 27  1  0
  1 28  1  0
  1 29  1  0
  2 30  1  0
  2 31  1  0
  3 32  1  0
  3 33  1  0
  4 34  1  0
  4 35  1  0
  9 36  1  0
 12 37  1  0
 12 38  1  0
 15 39  1  0
 16 40  1  0
 19 41  1  0
 19 42  1  0
 19 43  1  0
 20 44  1  0
 25 45  1  0
M  END
$$$$
