
     RDKit          3D

 43 46  0  0  0  0  0  0  0  0999 V2000
    3.3572   -1.2494   -0.3210 O   0  0  0  0  0  0  0  0  0  0  0  0
    3.0465   -1.4577    0.8518 C   0  0  0  0  0  0  0  0  0  0  0  0
    2.0504   -2.5258    1.2741 C   0  0  0  0  0  0  0  0  0  0  0  0
    0.6568   -2.6190    0.1074 S   0  0  0  0  0  0  0  0  0  0  0  0
    0.0181   -1.0217    0.2868 C   0  0  0  0  0  0  0  0  0  0  0  0
    0.2002   -0.2432    1.3269 N   0  0  0  0  0  0  0  0  0  0  0  0
   -0.4321    0.9464    1.0705 N   0  0  0  0  0  0  0  0  0  0  0  0
   -0.9861    0.8743   -0.1264 C   0  0  0  0  0  0  0  0  0  0  0  0
   -1.7420    1.9319   -0.7725 C   0  0  0  0  0  0  0  0  0  0  0  0
   -3.0851    2.1471   -0.4682 C   0  0  0  0  0  0  0  0  0  0  0  0
   -3.7826    3.1635   -1.1174 C   0  0  0  0  0  0  0  0  0  0  0  0
   -3.1087    3.9316   -2.0535 C   0  0  0  0  0  0  0  0  0  0  0  0
   -1.8067    3.7600   -2.3670 N   0  0  0  0  0  0  0  0  0  0  0  0
   -1.1508    2.7738   -1.7095 C   0  0  0  0  0  0  0  0  0  0  0  0
   -0.7312   -0.3751   -0.6549 N   0  0  0  0  0  0  0  0  0  0  0  0
   -1.1456   -0.8671   -1.9542 C   0  0  0  0  0  0  0  0  0  0  0  0
   -2.4770   -1.5146   -1.8685 C   0  0  0  0  0  0  0  0  0  0  0  0
   -2.9000   -2.7906   -1.5554 C   0  0  0  0  0  0  0  0  0  0  0  0
   -4.3120   -2.7793   -1.6547 C   0  0  0  0  0  0  0  0  0  0  0  0
   -4.6599   -1.5033   -2.0267 C   0  0  0  0  0  0  0  0  0  0  0  0
   -3.5541   -0.7306   -2.1629 O   0  0  0  0  0  0  0  0  0  0  0  0
    3.6912   -0.6330    1.9114 C   0  0  0  0  0  0  0  0  0  0  0  0
    4.0906    0.6697    1.5887 C   0  0  0  0  0  0  0  0  0  0  0  0
    4.6974    1.4805    2.5513 C   0  0  0  0  0  0  0  0  0  0  0  0
    4.9181    0.9909    3.8403 C   0  0  0  0  0  0  0  0  0  0  0  0
    5.6728    2.0423    4.9830 Cl  0  0  0  0  0  0  0  0  0  0  0  0
    4.5347   -0.3182    4.1616 C   0  0  0  0  0  0  0  0  0  0  0  0
    4.7923   -0.9992    5.7289 Cl  0  0  0  0  0  0  0  0  0  0  0  0
    3.9243   -1.1307    3.1979 C   0  0  0  0  0  0  0  0  0  0  0  0
    1.6445   -2.3272    2.2705 H   0  0  0  0  0  0  0  0  0  0  0  0
    2.5671   -3.4895    1.2930 H   0  0  0  0  0  0  0  0  0  0  0  0
   -3.5892    1.5267    0.2701 H   0  0  0  0  0  0  0  0  0  0  0  0
   -4.8268    3.3500   -0.8980 H   0  0  0  0  0  0  0  0  0  0  0  0
   -3.6116    4.7330   -2.5873 H   0  0  0  0  0  0  0  0  0  0  0  0
   -0.0999    2.6777   -1.9703 H   0  0  0  0  0  0  0  0  0  0  0  0
   -0.3923   -1.5665   -2.3293 H   0  0  0  0  0  0  0  0  0  0  0  0
   -1.1616   -0.0270   -2.6558 H   0  0  0  0  0  0  0  0  0  0  0  0
   -2.2696   -3.6266   -1.2865 H   0  0  0  0  0  0  0  0  0  0  0  0
   -4.9938   -3.5992   -1.4830 H   0  0  0  0  0  0  0  0  0  0  0  0
   -5.6026   -1.0129   -2.2288 H   0  0  0  0  0  0  0  0  0  0  0  0
    3.9184    1.0633    0.5883 H   0  0  0  0  0  0  0  0  0  0  0  0
    4.9902    2.4936    2.2866 H   0  0  0  0  0  0  0  0  0  0  0  0
    3.6502   -2.1488    3.4633 H   0  0  0  0  0  0  0  0  0  0  0  0
  1  2  2  0
  2  3  1  0
  3  4  1  0
  4  5  1  0
  5  6  2  0
  6  7  1  0
  7  8  2  0
  8  9  1  0
  9 10  2  0
 10 11  1  0
 11 12  2  0
 12 13  1  0
 13 14  2  0
  8 15  1  0
 15 16  1  0
 16 17  1  0
 17 18  2  0
 18 19  1  0
 19 20  2  0
 20 21  1  0
  2 22  1  0
 22 23  2  0
 23 24  1  0
 24 25  2  0
 25 26  1  0
 25 27  1  0
 27 28  1  0
 27 29  2  0
 15  5  1  0
 21 17  1  0
 29 22  1  0
 14  9  1  0
  3 30  1  0
  3 31  1  0
 10 32  1  0
 11 33  1  0
 12 34  1  0
 14 35  1  0
 16 36  1  0
 16 37  1  0
 18 38  1  0
 19 39  1  0
 20 40  1  0
 23 41  1  0
 24 42  1  0
 29 43  1  0
M  END
$$$$
