
     RDKit          3D

 31 32  0  0  0  0  0  0  0  0999 V2000
   -3.5238    1.2798   -1.4399 C   0  0  0  0  0  0  0  0  0  0  0  0
   -3.2605    0.6127   -0.1157 C   0  0  0  0  0  0  0  0  0  0  0  0
   -4.2048    0.4417    0.6595 O   0  0  0  0  0  0  0  0  0  0  0  0
   -1.8931    0.1766    0.2271 C   0  0  0  0  0  0  0  0  0  0  0  0
   -1.6039   -0.6551    1.3055 C   0  0  0  0  0  0  0  0  0  0  0  0
   -2.4951   -1.2789    2.3227 C   0  0  0  0  0  0  0  0  0  0  0  0
   -0.2536   -0.8724    1.3310 N   0  0  0  0  0  0  0  0  0  0  0  0
    0.3604   -0.2116    0.2987 C   0  0  0  0  0  0  0  0  0  0  0  0
    1.8037   -0.3076    0.0942 C   0  0  0  0  0  0  0  0  0  0  0  0
    2.3155   -0.8327   -1.0982 C   0  0  0  0  0  0  0  0  0  0  0  0
    3.6948   -0.9356   -1.2906 C   0  0  0  0  0  0  0  0  0  0  0  0
    4.5715   -0.5141   -0.2921 C   0  0  0  0  0  0  0  0  0  0  0  0
    4.0709    0.0104    0.8985 C   0  0  0  0  0  0  0  0  0  0  0  0
    2.6915    0.1125    1.0921 C   0  0  0  0  0  0  0  0  0  0  0  0
   -0.6254    0.4746   -0.4037 C   0  0  0  0  0  0  0  0  0  0  0  0
   -0.3774    1.3675   -1.5734 C   0  0  0  0  0  0  0  0  0  0  0  0
   -4.6043    1.3345   -1.6076 H   0  0  0  0  0  0  0  0  0  0  0  0
   -3.0937    0.6942   -2.2555 H   0  0  0  0  0  0  0  0  0  0  0  0
   -3.1288    2.2975   -1.4342 H   0  0  0  0  0  0  0  0  0  0  0  0
   -1.9381   -1.9417    2.9933 H   0  0  0  0  0  0  0  0  0  0  0  0
   -3.2736   -1.8757    1.8369 H   0  0  0  0  0  0  0  0  0  0  0  0
   -2.9733   -0.5084    2.9355 H   0  0  0  0  0  0  0  0  0  0  0  0
    0.2302   -1.4562    2.0005 H   0  0  0  0  0  0  0  0  0  0  0  0
    1.6406   -1.1711   -1.8808 H   0  0  0  0  0  0  0  0  0  0  0  0
    4.0837   -1.3456   -2.2189 H   0  0  0  0  0  0  0  0  0  0  0  0
    5.6452   -0.5927   -0.4427 H   0  0  0  0  0  0  0  0  0  0  0  0
    4.7540    0.3444    1.6752 H   0  0  0  0  0  0  0  0  0  0  0  0
    2.3150    0.5364    2.0199 H   0  0  0  0  0  0  0  0  0  0  0  0
   -0.8609    2.3376   -1.4281 H   0  0  0  0  0  0  0  0  0  0  0  0
   -0.7549    0.9097   -2.4923 H   0  0  0  0  0  0  0  0  0  0  0  0
    0.6885    1.5690   -1.7170 H   0  0  0  0  0  0  0  0  0  0  0  0
  1  2  1  0
  2  3  2  0
  2  4  1  0
  4  5  2  0
  5  6  1  0
  5  7  1  0
  7  8  1  0
  8  9  1  0
  9 10  2  0
 10 11  1  0
 11 12  2  0
 12 13  1  0
 13 14  2  0
  8 15  2  0
 15 16  1  0
 15  4  1  0
 14  9  1  0
  1 17  1  0
  1 18  1  0
  1 19  1  0
  6 20  1  0
  6 21  1  0
  6 22  1  0
  7 23  1  0
 10 24  1  0
 11 25  1  0
 12 26  1  0
 13 27  1  0
 14 28  1  0
 16 29  1  0
 16 30  1  0
 16 31  1  0
M  END
$$$$
