
     RDKit          3D

 68 71  0  0  0  0  0  0  0  0999 V2000
   -3.7170   -5.8122    0.5028 C   0  0  0  0  0  0  0  0  0  0  0  0
   -3.0807   -4.4551    0.4255 C   0  0  0  0  0  0  0  0  0  0  0  0
   -2.5608   -3.8493    1.5739 C   0  0  0  0  0  0  0  0  0  0  0  0
   -1.9929   -2.5742    1.5077 C   0  0  0  0  0  0  0  0  0  0  0  0
   -1.9554   -1.8652    0.2955 C   0  0  0  0  0  0  0  0  0  0  0  0
   -1.3200   -0.4745    0.2684 C   0  0  0  0  0  0  0  0  0  0  0  0
   -2.0435    0.5814   -0.6270 C   0  0  0  0  0  0  0  0  0  0  0  0
   -1.4518    1.4856   -1.2175 O   0  0  0  0  0  0  0  0  0  0  0  0
   -3.4287    0.4987   -0.6377 N   0  0  0  0  0  0  0  0  0  0  0  0
   -4.2496    1.4708   -1.3420 C   0  0  0  0  0  0  0  0  0  0  0  0
   -4.5466    2.6938   -0.4773 C   0  0  0  0  0  0  0  0  0  0  0  0
   -5.6930    2.2494    0.4266 C   0  0  0  0  0  0  0  0  0  0  0  0
   -6.4444    1.1673   -0.3493 C   0  0  0  0  0  0  0  0  0  0  0  0
   -5.6434    0.9182   -1.6272 C   0  0  0  0  0  0  0  0  0  0  0  0
    0.1500   -0.5150    0.0687 N   0  0  0  0  0  0  0  0  0  0  0  0
    0.7083   -1.3507   -1.0068 C   0  0  0  0  0  0  0  0  0  0  0  0
    0.4420   -0.8008   -2.3612 C   0  0  0  0  0  0  0  0  0  0  0  0
    0.7642    0.3806   -2.9996 C   0  0  0  0  0  0  0  0  0  0  0  0
    0.2302    0.2906   -4.3080 C   0  0  0  0  0  0  0  0  0  0  0  0
   -0.3654   -0.9450   -4.3944 C   0  0  0  0  0  0  0  0  0  0  0  0
   -0.2311   -1.6193   -3.2244 O   0  0  0  0  0  0  0  0  0  0  0  0
    0.9115    0.3508    0.8476 C   0  0  0  0  0  0  0  0  0  0  0  0
    0.4118    1.0551    1.7275 O   0  0  0  0  0  0  0  0  0  0  0  0
    2.4110    0.3772    0.6111 C   0  0  0  0  0  0  0  0  0  0  0  0
    3.1174    1.3379    1.5647 C   0  0  0  0  0  0  0  0  0  0  0  0
    4.6143    1.3542    1.3313 C   0  0  0  0  0  0  0  0  0  0  0  0
    5.1258    0.8561    0.3324 O   0  0  0  0  0  0  0  0  0  0  0  0
    5.2879    1.9982    2.3452 N   0  0  0  0  0  0  0  0  0  0  0  0
    6.6455    2.2264    2.3818 C   0  0  0  0  0  0  0  0  0  0  0  0
    7.6365    1.9181    1.4217 C   0  0  0  0  0  0  0  0  0  0  0  0
    8.7994    2.4106    1.9579 C   0  0  0  0  0  0  0  0  0  0  0  0
   10.2003    2.4630    1.5036 C   0  0  0  0  0  0  0  0  0  0  0  0
    8.5308    2.9669    3.1690 O   0  0  0  0  0  0  0  0  0  0  0  0
    7.1789    2.8524    3.4380 N   0  0  0  0  0  0  0  0  0  0  0  0
   -2.4819   -2.4779   -0.8516 C   0  0  0  0  0  0  0  0  0  0  0  0
   -3.0439   -3.7562   -0.7848 C   0  0  0  0  0  0  0  0  0  0  0  0
   -3.5930   -6.3563   -0.4398 H   0  0  0  0  0  0  0  0  0  0  0  0
   -4.7862   -5.7114    0.7138 H   0  0  0  0  0  0  0  0  0  0  0  0
   -3.2548   -6.4171    1.2907 H   0  0  0  0  0  0  0  0  0  0  0  0
   -2.5902   -4.3686    2.5293 H   0  0  0  0  0  0  0  0  0  0  0  0
   -1.5816   -2.1333    2.4149 H   0  0  0  0  0  0  0  0  0  0  0  0
   -1.5037   -0.0650    1.2730 H   0  0  0  0  0  0  0  0  0  0  0  0
   -3.8781   -0.1332    0.0159 H   0  0  0  0  0  0  0  0  0  0  0  0
   -3.7361    1.7544   -2.2674 H   0  0  0  0  0  0  0  0  0  0  0  0
   -3.6859    3.0430    0.1010 H   0  0  0  0  0  0  0  0  0  0  0  0
   -4.8861    3.5220   -1.1124 H   0  0  0  0  0  0  0  0  0  0  0  0
   -5.2985    1.8286    1.3604 H   0  0  0  0  0  0  0  0  0  0  0  0
   -6.3428    3.0891    0.6947 H   0  0  0  0  0  0  0  0  0  0  0  0
   -7.4683    1.4764   -0.5846 H   0  0  0  0  0  0  0  0  0  0  0  0
   -6.5107    0.2526    0.2512 H   0  0  0  0  0  0  0  0  0  0  0  0
   -5.6427   -0.1405   -1.9071 H   0  0  0  0  0  0  0  0  0  0  0  0
   -6.1011    1.4816   -2.4501 H   0  0  0  0  0  0  0  0  0  0  0  0
    1.7888   -1.4556   -0.8954 H   0  0  0  0  0  0  0  0  0  0  0  0
    0.3184   -2.3674   -0.9071 H   0  0  0  0  0  0  0  0  0  0  0  0
    1.2865    1.2206   -2.5617 H   0  0  0  0  0  0  0  0  0  0  0  0
    0.2621    1.0404   -5.0839 H   0  0  0  0  0  0  0  0  0  0  0  0
   -0.8989   -1.4676   -5.1764 H   0  0  0  0  0  0  0  0  0  0  0  0
    2.6013    0.6780   -0.4249 H   0  0  0  0  0  0  0  0  0  0  0  0
    2.8120   -0.6305    0.7716 H   0  0  0  0  0  0  0  0  0  0  0  0
    2.9228    1.0431    2.6043 H   0  0  0  0  0  0  0  0  0  0  0  0
    2.7402    2.3588    1.4244 H   0  0  0  0  0  0  0  0  0  0  0  0
    4.7907    2.3586    3.1490 H   0  0  0  0  0  0  0  0  0  0  0  0
    7.5195    1.4339    0.4617 H   0  0  0  0  0  0  0  0  0  0  0  0
   10.2737    2.2383    0.4346 H   0  0  0  0  0  0  0  0  0  0  0  0
   10.6228    3.4586    1.6670 H   0  0  0  0  0  0  0  0  0  0  0  0
   10.8082    1.7344    2.0501 H   0  0  0  0  0  0  0  0  0  0  0  0
   -2.4585   -1.9702   -1.8147 H   0  0  0  0  0  0  0  0  0  0  0  0
   -3.4455   -4.2037   -1.6915 H   0  0  0  0  0  0  0  0  0  0  0  0
  1  2  1  0
  2  3  2  0
  3  4  1  0
  4  5  2  0
  5  6  1  0
  6  7  1  0
  7  8  2  0
  7  9  1  0
  9 10  1  0
 10 11  1  0
 11 12  1  0
 12 13  1  0
 13 14  1  0
  6 15  1  0
 15 16  1  0
 16 17  1  0
 17 18  2  0
 18 19  1  0
 19 20  2  0
 20 21  1  0
 15 22  1  0
 22 23  2  0
 22 24  1  0
 24 25  1  0
 25 26  1  0
 26 27  2  0
 26 28  1  0
 28 29  1  0
 29 30  1  0
 30 31  2  0
 31 32  1  0
 31 33  1  0
 33 34  1  0
  5 35  1  0
 35 36  2  0
 36  2  1  0
 14 10  1  0
 21 17  1  0
 34 29  2  0
  1 37  1  0
  1 38  1  0
  1 39  1  0
  3 40  1  0
  4 41  1  0
  6 42  1  0
  9 43  1  0
 10 44  1  0
 11 45  1  0
 11 46  1  0
 12 47  1  0
 12 48  1  0
 13 49  1  0
 13 50  1  0
 14 51  1  0
 14 52  1  0
 16 53  1  0
 16 54  1  0
 18 55  1  0
 19 56  1  0
 20 57  1  0
 24 58  1  0
 24 59  1  0
 25 60  1  0
 25 61  1  0
 28 62  1  0
 30 63  1  0
 32 64  1  0
 32 65  1  0
 32 66  1  0
 35 67  1  0
 36 68  1  0
M  END
$$$$
