
     RDKit          3D

 57 59  0  0  0  0  0  0  0  0999 V2000
   -1.8687   -5.5209   -2.5544 C   0  0  0  0  0  0  0  0  0  0  0  0
   -1.3051   -4.2818   -2.0536 N   0  0  0  0  0  0  0  0  0  0  0  0
   -0.7834   -3.2634   -2.8325 C   0  0  0  0  0  0  0  0  0  0  0  0
   -0.7995   -3.2846   -4.5126 S   0  0  0  0  0  0  0  0  0  0  0  0
   -0.2571   -2.2133   -2.0463 N   0  0  0  0  0  0  0  0  0  0  0  0
   -1.0218   -1.7579   -0.8617 C   0  0  0  0  0  0  0  0  0  0  0  0
   -2.1149   -0.7439   -1.2236 C   0  0  0  0  0  0  0  0  0  0  0  0
   -2.8476   -0.2553    0.0013 C   0  0  0  0  0  0  0  0  0  0  0  0
   -2.2842    0.7337    0.8179 C   0  0  0  0  0  0  0  0  0  0  0  0
   -2.9503    1.1642    1.9645 C   0  0  0  0  0  0  0  0  0  0  0  0
   -4.1855    0.6130    2.3047 C   0  0  0  0  0  0  0  0  0  0  0  0
   -4.7700   -0.3681    1.4961 C   0  0  0  0  0  0  0  0  0  0  0  0
   -6.0817   -0.9866    1.8800 C   0  0  0  0  0  0  0  0  0  0  0  0
   -4.0873   -0.8072    0.3538 C   0  0  0  0  0  0  0  0  0  0  0  0
    0.6816   -1.2510   -2.6643 C   0  0  0  0  0  0  0  0  0  0  0  0
    1.5382   -0.5320   -1.6634 C   0  0  0  0  0  0  0  0  0  0  0  0
    1.3801    0.7702   -1.3616 C   0  0  0  0  0  0  0  0  0  0  0  0
    2.2353    1.4255   -0.3725 C   0  0  0  0  0  0  0  0  0  0  0  0
    2.0577    2.7689   -0.0302 C   0  0  0  0  0  0  0  0  0  0  0  0
    2.8876    3.3673    0.9264 C   0  0  0  0  0  0  0  0  0  0  0  0
    2.7860    4.6764    1.3289 O   0  0  0  0  0  0  0  0  0  0  0  0
    1.8035    5.4895    0.7039 C   0  0  0  0  0  0  0  0  0  0  0  0
    3.9063    2.6093    1.5454 C   0  0  0  0  0  0  0  0  0  0  0  0
    4.6706    3.2759    2.4715 O   0  0  0  0  0  0  0  0  0  0  0  0
    5.7155    2.5571    3.1110 C   0  0  0  0  0  0  0  0  0  0  0  0
    4.0808    1.2653    1.1981 C   0  0  0  0  0  0  0  0  0  0  0  0
    3.2453    0.6839    0.2448 C   0  0  0  0  0  0  0  0  0  0  0  0
    3.4152   -0.6602   -0.1057 N   0  0  0  0  0  0  0  0  0  0  0  0
    2.6413   -1.3147   -1.0283 C   0  0  0  0  0  0  0  0  0  0  0  0
    2.8582   -2.4891   -1.3076 O   0  0  0  0  0  0  0  0  0  0  0  0
   -2.2866   -6.0713   -1.7079 H   0  0  0  0  0  0  0  0  0  0  0  0
   -1.0781   -6.1134   -3.0227 H   0  0  0  0  0  0  0  0  0  0  0  0
   -2.6600   -5.3105   -3.2782 H   0  0  0  0  0  0  0  0  0  0  0  0
   -0.8307   -4.3661   -1.1636 H   0  0  0  0  0  0  0  0  0  0  0  0
   -0.3241   -1.3502   -0.1230 H   0  0  0  0  0  0  0  0  0  0  0  0
   -1.4967   -2.6090   -0.3629 H   0  0  0  0  0  0  0  0  0  0  0  0
   -2.8242   -1.1940   -1.9298 H   0  0  0  0  0  0  0  0  0  0  0  0
   -1.6904    0.1208   -1.7471 H   0  0  0  0  0  0  0  0  0  0  0  0
   -1.3195    1.1704    0.5711 H   0  0  0  0  0  0  0  0  0  0  0  0
   -2.5048    1.9271    2.5978 H   0  0  0  0  0  0  0  0  0  0  0  0
   -4.6899    0.9538    3.2061 H   0  0  0  0  0  0  0  0  0  0  0  0
   -5.9108   -1.8676    2.5060 H   0  0  0  0  0  0  0  0  0  0  0  0
   -6.6463   -1.2869    0.9911 H   0  0  0  0  0  0  0  0  0  0  0  0
   -6.7030   -0.2745    2.4332 H   0  0  0  0  0  0  0  0  0  0  0  0
   -4.5268   -1.5864   -0.2670 H   0  0  0  0  0  0  0  0  0  0  0  0
    1.3323   -1.7741   -3.3747 H   0  0  0  0  0  0  0  0  0  0  0  0
    0.0845   -0.5392   -3.2483 H   0  0  0  0  0  0  0  0  0  0  0  0
    0.6022    1.3626   -1.8325 H   0  0  0  0  0  0  0  0  0  0  0  0
    1.2686    3.3316   -0.5168 H   0  0  0  0  0  0  0  0  0  0  0  0
    1.8808    6.4946    1.1295 H   0  0  0  0  0  0  0  0  0  0  0  0
    0.7946    5.1179    0.9109 H   0  0  0  0  0  0  0  0  0  0  0  0
    1.9834    5.5701   -0.3731 H   0  0  0  0  0  0  0  0  0  0  0  0
    6.2166    3.2404    3.8035 H   0  0  0  0  0  0  0  0  0  0  0  0
    5.3183    1.7221    3.6973 H   0  0  0  0  0  0  0  0  0  0  0  0
    6.4604    2.2138    2.3857 H   0  0  0  0  0  0  0  0  0  0  0  0
    4.8540    0.6604    1.6566 H   0  0  0  0  0  0  0  0  0  0  0  0
    4.1500   -1.2128    0.3147 H   0  0  0  0  0  0  0  0  0  0  0  0
  1  2  1  0
  2  3  1  0
  3  4  2  0
  3  5  1  0
  5  6  1  0
  6  7  1  0
  7  8  1  0
  8  9  2  0
  9 10  1  0
 10 11  2  0
 11 12  1  0
 12 13  1  0
 12 14  2  0
  5 15  1  0
 15 16  1  0
 16 17  2  0
 17 18  1  0
 18 19  2  0
 19 20  1  0
 20 21  1  0
 21 22  1  0
 20 23  2  0
 23 24  1  0
 24 25  1  0
 23 26  1  0
 26 27  2  0
 27 28  1  0
 28 29  1  0
 29 30  2  0
 14  8  1  0
 29 16  1  0
 27 18  1  0
  1 31  1  0
  1 32  1  0
  1 33  1  0
  2 34  1  0
  6 35  1  0
  6 36  1  0
  7 37  1  0
  7 38  1  0
  9 39  1  0
 10 40  1  0
 11 41  1  0
 13 42  1  0
 13 43  1  0
 13 44  1  0
 14 45  1  0
 15 46  1  0
 15 47  1  0
 17 48  1  0
 19 49  1  0
 22 50  1  0
 22 51  1  0
 22 52  1  0
 25 53  1  0
 25 54  1  0
 25 55  1  0
 26 56  1  0
 28 57  1  0
M  END
$$$$
