
     RDKit          3D

 37 37  0  0  0  0  0  0  0  0999 V2000
   -2.1618   -4.1776   -0.2928 C   0  0  0  0  0  0  0  0  0  0  0  0
   -1.6308   -2.8592   -0.1515 O   0  0  0  0  0  0  0  0  0  0  0  0
   -2.1871   -1.9437   -1.0002 C   0  0  0  0  0  0  0  0  0  0  0  0
   -3.1113   -2.1844   -1.7681 O   0  0  0  0  0  0  0  0  0  0  0  0
   -1.5724   -0.5454   -0.8086 C   0  0  0  0  0  0  0  0  0  0  0  0
   -2.6309    0.3799   -0.1944 C   0  0  0  0  0  0  0  0  0  0  0  0
   -2.1830    1.8400   -0.2369 C   0  0  0  0  0  0  0  0  0  0  0  0
   -3.4710    2.9655    0.3977 S   0  0  0  0  0  0  0  0  0  0  0  0
   -3.3187    2.6342    2.1702 C   0  0  0  0  0  0  0  0  0  0  0  0
   -0.3763   -0.5798    0.0426 N   0  0  0  0  0  0  0  0  0  0  0  0
    0.8472   -0.8159   -0.5343 C   0  0  0  0  0  0  0  0  0  0  0  0
    1.0323   -0.9019   -1.7390 O   0  0  0  0  0  0  0  0  0  0  0  0
    1.8206   -0.9440    0.4191 N   0  0  0  0  0  0  0  0  0  0  0  0
    3.2108   -1.0736    0.0393 C   0  0  0  0  0  0  0  0  0  0  0  0
    3.8211    0.2920   -0.0163 C   0  0  0  0  0  0  0  0  0  0  0  0
    3.8072    1.1893   -1.0671 C   0  0  0  0  0  0  0  0  0  0  0  0
    4.4902    2.3997   -0.7568 C   0  0  0  0  0  0  0  0  0  0  0  0
    5.0030    2.3882    0.5208 C   0  0  0  0  0  0  0  0  0  0  0  0
    4.6575    0.9268    1.3385 S   0  0  0  0  0  0  0  0  0  0  0  0
   -2.0105   -4.5467   -1.3121 H   0  0  0  0  0  0  0  0  0  0  0  0
   -1.6235   -4.8346    0.3959 H   0  0  0  0  0  0  0  0  0  0  0  0
   -3.2233   -4.1919   -0.0270 H   0  0  0  0  0  0  0  0  0  0  0  0
   -1.2875   -0.1899   -1.8061 H   0  0  0  0  0  0  0  0  0  0  0  0
   -3.5734    0.2731   -0.7471 H   0  0  0  0  0  0  0  0  0  0  0  0
   -2.8321    0.0662    0.8375 H   0  0  0  0  0  0  0  0  0  0  0  0
   -1.2611    1.9989    0.3316 H   0  0  0  0  0  0  0  0  0  0  0  0
   -1.9809    2.1338   -1.2726 H   0  0  0  0  0  0  0  0  0  0  0  0
   -3.9711    3.3199    2.7176 H   0  0  0  0  0  0  0  0  0  0  0  0
   -2.2905    2.7965    2.5036 H   0  0  0  0  0  0  0  0  0  0  0  0
   -3.6265    1.6121    2.4021 H   0  0  0  0  0  0  0  0  0  0  0  0
   -0.4915   -1.0915    0.9077 H   0  0  0  0  0  0  0  0  0  0  0  0
    1.6473   -0.4448    1.2785 H   0  0  0  0  0  0  0  0  0  0  0  0
    3.2981   -1.5775   -0.9293 H   0  0  0  0  0  0  0  0  0  0  0  0
    3.6973   -1.7017    0.7928 H   0  0  0  0  0  0  0  0  0  0  0  0
    3.3202    0.9828   -2.0144 H   0  0  0  0  0  0  0  0  0  0  0  0
    4.5983    3.2360   -1.4366 H   0  0  0  0  0  0  0  0  0  0  0  0
    5.5640    3.1691    1.0156 H   0  0  0  0  0  0  0  0  0  0  0  0
  1  2  1  0
  2  3  1  0
  3  4  2  0
  3  5  1  0
  5  6  1  0
  6  7  1  0
  7  8  1  0
  8  9  1  0
  5 10  1  0
 10 11  1  0
 11 12  2  0
 11 13  1  0
 13 14  1  0
 14 15  1  0
 15 16  2  0
 16 17  1  0
 17 18  2  0
 18 19  1  0
 19 15  1  0
  1 20  1  0
  1 21  1  0
  1 22  1  0
  5 23  1  0
  6 24  1  0
  6 25  1  0
  7 26  1  0
  7 27  1  0
  9 28  1  0
  9 29  1  0
  9 30  1  0
 10 31  1  0
 13 32  1  0
 14 33  1  0
 14 34  1  0
 16 35  1  0
 17 36  1  0
 18 37  1  0
M  END
$$$$
