
     RDKit          3D

 43 46  0  0  0  0  0  0  0  0999 V2000
    1.7748   -2.4104    0.8936 O   0  0  0  0  0  0  0  0  0  0  0  0
    2.6045   -1.7066    0.3167 C   0  0  0  0  0  0  0  0  0  0  0  0
    2.7848   -1.7074   -1.1929 C   0  0  0  0  0  0  0  0  0  0  0  0
    1.1706   -1.7443   -2.0356 S   0  0  0  0  0  0  0  0  0  0  0  0
    0.5107   -0.2502   -1.4661 C   0  0  0  0  0  0  0  0  0  0  0  0
    1.2127    0.7786   -1.0582 N   0  0  0  0  0  0  0  0  0  0  0  0
    0.3309    1.7615   -0.6938 N   0  0  0  0  0  0  0  0  0  0  0  0
   -0.8999    1.3093   -0.8608 C   0  0  0  0  0  0  0  0  0  0  0  0
   -2.1088    2.0813   -0.6130 C   0  0  0  0  0  0  0  0  0  0  0  0
   -3.1223    1.6446    0.2419 C   0  0  0  0  0  0  0  0  0  0  0  0
   -4.2564    2.4328    0.4312 C   0  0  0  0  0  0  0  0  0  0  0  0
   -4.3360    3.6440   -0.2358 C   0  0  0  0  0  0  0  0  0  0  0  0
   -3.3706    4.1109   -1.0549 N   0  0  0  0  0  0  0  0  0  0  0  0
   -2.2756    3.3268   -1.2119 C   0  0  0  0  0  0  0  0  0  0  0  0
   -0.8260    0.0234   -1.3638 N   0  0  0  0  0  0  0  0  0  0  0  0
   -1.9302   -0.8074   -1.8056 C   0  0  0  0  0  0  0  0  0  0  0  0
   -2.4560   -1.6573   -0.7071 C   0  0  0  0  0  0  0  0  0  0  0  0
   -1.8830   -2.4871    0.2367 C   0  0  0  0  0  0  0  0  0  0  0  0
   -2.9478   -3.0236    1.0005 C   0  0  0  0  0  0  0  0  0  0  0  0
   -4.1017   -2.4957    0.4742 C   0  0  0  0  0  0  0  0  0  0  0  0
   -3.8144   -1.6659   -0.5605 O   0  0  0  0  0  0  0  0  0  0  0  0
    3.4767   -0.8233    1.1396 C   0  0  0  0  0  0  0  0  0  0  0  0
    2.9783   -0.3510    2.3605 C   0  0  0  0  0  0  0  0  0  0  0  0
    3.7601    0.4792    3.1673 C   0  0  0  0  0  0  0  0  0  0  0  0
    5.0490    0.8360    2.7641 C   0  0  0  0  0  0  0  0  0  0  0  0
    5.9654    1.8605    3.8096 Cl  0  0  0  0  0  0  0  0  0  0  0  0
    5.5541    0.3553    1.5499 C   0  0  0  0  0  0  0  0  0  0  0  0
    7.1453    0.7405    0.9940 Cl  0  0  0  0  0  0  0  0  0  0  0  0
    4.7706   -0.4755    0.7387 C   0  0  0  0  0  0  0  0  0  0  0  0
    3.3309   -0.8264   -1.5395 H   0  0  0  0  0  0  0  0  0  0  0  0
    3.3551   -2.5991   -1.4697 H   0  0  0  0  0  0  0  0  0  0  0  0
   -3.0359    0.7061    0.7823 H   0  0  0  0  0  0  0  0  0  0  0  0
   -5.0553    2.1111    1.0902 H   0  0  0  0  0  0  0  0  0  0  0  0
   -5.1998    4.2926   -0.1199 H   0  0  0  0  0  0  0  0  0  0  0  0
   -1.5097    3.7431   -1.8629 H   0  0  0  0  0  0  0  0  0  0  0  0
   -1.5975   -1.4277   -2.6435 H   0  0  0  0  0  0  0  0  0  0  0  0
   -2.7084   -0.1464   -2.2031 H   0  0  0  0  0  0  0  0  0  0  0  0
   -0.8269   -2.6868    0.3674 H   0  0  0  0  0  0  0  0  0  0  0  0
   -2.8796   -3.7143    1.8295 H   0  0  0  0  0  0  0  0  0  0  0  0
   -5.1514   -2.6063    0.7093 H   0  0  0  0  0  0  0  0  0  0  0  0
    1.9730   -0.6190    2.6834 H   0  0  0  0  0  0  0  0  0  0  0  0
    3.3550    0.8452    4.1082 H   0  0  0  0  0  0  0  0  0  0  0  0
    5.1911   -0.8511   -0.1899 H   0  0  0  0  0  0  0  0  0  0  0  0
  1  2  2  0
  2  3  1  0
  3  4  1  0
  4  5  1  0
  5  6  2  0
  6  7  1  0
  7  8  2  0
  8  9  1  0
  9 10  2  0
 10 11  1  0
 11 12  2  0
 12 13  1  0
 13 14  2  0
  8 15  1  0
 15 16  1  0
 16 17  1  0
 17 18  2  0
 18 19  1  0
 19 20  2  0
 20 21  1  0
  2 22  1  0
 22 23  2  0
 23 24  1  0
 24 25  2  0
 25 26  1  0
 25 27  1  0
 27 28  1  0
 27 29  2  0
 15  5  1  0
 21 17  1  0
 29 22  1  0
 14  9  1  0
  3 30  1  0
  3 31  1  0
 10 32  1  0
 11 33  1  0
 12 34  1  0
 14 35  1  0
 16 36  1  0
 16 37  1  0
 18 38  1  0
 19 39  1  0
 20 40  1  0
 23 41  1  0
 24 42  1  0
 29 43  1  0
M  END
$$$$
