
     RDKit          3D

 37 39  0  0  0  0  0  0  0  0999 V2000
    3.9656    0.6653    0.2680 N   0  0  0  0  0  0  0  0  0  0  0  0
    3.6257    0.7431   -1.1476 C   0  0  0  0  0  0  0  0  0  0  0  0
    2.6223   -0.3358   -1.5549 C   0  0  0  0  0  0  0  0  0  0  0  0
    1.1763   -0.0744   -1.1165 C   0  0  0  0  0  0  0  0  0  0  0  0
    0.9625   -0.0678    0.4055 C   0  0  0  0  0  0  0  0  0  0  0  0
   -0.4887   -0.0826    0.7520 N   0  0  0  0  0  0  0  0  0  0  0  0
   -1.0943   -1.3682    0.6783 C   0  0  0  0  0  0  0  0  0  0  0  0
   -0.5229   -2.4630    1.3582 C   0  0  0  0  0  0  0  0  0  0  0  0
   -1.0993   -3.7356    1.3198 C   0  0  0  0  0  0  0  0  0  0  0  0
   -2.2734   -3.9419    0.6087 C   0  0  0  0  0  0  0  0  0  0  0  0
   -2.8743   -2.8715   -0.0496 C   0  0  0  0  0  0  0  0  0  0  0  0
   -2.3025   -1.5882   -0.0096 C   0  0  0  0  0  0  0  0  0  0  0  0
   -3.1529   -0.3005   -0.8988 S   0  0  0  0  0  0  0  0  0  0  0  0
   -2.3897    1.1641   -0.2326 C   0  0  0  0  0  0  0  0  0  0  0  0
   -3.0413    2.3850   -0.4796 C   0  0  0  0  0  0  0  0  0  0  0  0
   -2.5063    3.5847   -0.0154 C   0  0  0  0  0  0  0  0  0  0  0  0
   -1.3196    3.5654    0.7041 C   0  0  0  0  0  0  0  0  0  0  0  0
   -0.6600    5.0387    1.3011 Cl  0  0  0  0  0  0  0  0  0  0  0  0
   -0.6616    2.3600    0.9520 C   0  0  0  0  0  0  0  0  0  0  0  0
   -1.1704    1.1357    0.4733 C   0  0  0  0  0  0  0  0  0  0  0  0
    4.4533   -0.2120    0.4519 H   0  0  0  0  0  0  0  0  0  0  0  0
    4.6350    1.4031    0.4907 H   0  0  0  0  0  0  0  0  0  0  0  0
    4.5441    0.6203   -1.7324 H   0  0  0  0  0  0  0  0  0  0  0  0
    3.2248    1.7368   -1.3744 H   0  0  0  0  0  0  0  0  0  0  0  0
    2.9494   -1.3180   -1.1910 H   0  0  0  0  0  0  0  0  0  0  0  0
    2.6276   -0.4008   -2.6506 H   0  0  0  0  0  0  0  0  0  0  0  0
    0.5499   -0.8515   -1.5722 H   0  0  0  0  0  0  0  0  0  0  0  0
    0.8382    0.8777   -1.5437 H   0  0  0  0  0  0  0  0  0  0  0  0
    1.4868   -0.9222    0.8464 H   0  0  0  0  0  0  0  0  0  0  0  0
    1.4467    0.8059    0.8494 H   0  0  0  0  0  0  0  0  0  0  0  0
    0.3686   -2.3283    1.9650 H   0  0  0  0  0  0  0  0  0  0  0  0
   -0.6345   -4.5581    1.8572 H   0  0  0  0  0  0  0  0  0  0  0  0
   -2.7287   -4.9279    0.5754 H   0  0  0  0  0  0  0  0  0  0  0  0
   -3.8000   -3.0425   -0.5950 H   0  0  0  0  0  0  0  0  0  0  0  0
   -3.9753    2.4058   -1.0377 H   0  0  0  0  0  0  0  0  0  0  0  0
   -3.0226    4.5203   -0.2110 H   0  0  0  0  0  0  0  0  0  0  0  0
    0.2416    2.3789    1.5553 H   0  0  0  0  0  0  0  0  0  0  0  0
  1  2  1  0
  2  3  1  0
  3  4  1  0
  4  5  1  0
  5  6  1  0
  6  7  1  0
  7  8  2  0
  8  9  1  0
  9 10  2  0
 10 11  1  0
 11 12  2  0
 12 13  1  0
 13 14  1  0
 14 15  2  0
 15 16  1  0
 16 17  2  0
 17 18  1  0
 17 19  1  0
 19 20  2  0
 20  6  1  0
 12  7  1  0
 20 14  1  0
  1 21  1  0
  1 22  1  0
  2 23  1  0
  2 24  1  0
  3 25  1  0
  3 26  1  0
  4 27  1  0
  4 28  1  0
  5 29  1  0
  5 30  1  0
  8 31  1  0
  9 32  1  0
 10 33  1  0
 11 34  1  0
 15 35  1  0
 16 36  1  0
 19 37  1  0
M  END
$$$$
