
     RDKit          3D

 63 65  0  0  0  0  0  0  0  0999 V2000
    0.2676    2.7037    5.3643 C   0  0  0  0  0  0  0  0  0  0  0  0
   -0.3745    2.9885    4.1279 O   0  0  0  0  0  0  0  0  0  0  0  0
    0.1355    2.3785    3.0154 C   0  0  0  0  0  0  0  0  0  0  0  0
    1.1088    1.3817    3.0008 C   0  0  0  0  0  0  0  0  0  0  0  0
    1.5489    0.8545    1.7854 C   0  0  0  0  0  0  0  0  0  0  0  0
    1.0244    1.3233    0.5800 C   0  0  0  0  0  0  0  0  0  0  0  0
    0.0298    2.3081    0.5738 C   0  0  0  0  0  0  0  0  0  0  0  0
   -0.5255    2.8675   -0.7133 C   0  0  0  0  0  0  0  0  0  0  0  0
   -0.9662    1.8673   -1.6893 N   0  0  0  0  0  0  0  0  0  0  0  0
   -2.1166    1.0343   -1.3225 C   0  0  0  0  0  0  0  0  0  0  0  0
   -1.6808   -0.2380   -0.5819 C   0  0  0  0  0  0  0  0  0  0  0  0
   -0.7577   -0.9553   -0.9593 O   0  0  0  0  0  0  0  0  0  0  0  0
   -2.4215   -0.5078    0.5544 N   0  0  0  0  0  0  0  0  0  0  0  0
   -1.9725   -1.5323    1.4801 C   0  0  0  0  0  0  0  0  0  0  0  0
   -2.9750   -1.7090    2.6267 C   0  0  0  0  0  0  0  0  0  0  0  0
   -2.4531   -2.6118    3.7331 C   0  0  0  0  0  0  0  0  0  0  0  0
   -1.7391   -1.6407    4.6410 C   0  0  0  0  0  0  0  0  0  0  0  0
   -2.6176   -0.4132    4.5450 C   0  0  0  0  0  0  0  0  0  0  0  0
   -3.2076   -0.4174    3.2373 O   0  0  0  0  0  0  0  0  0  0  0  0
   -0.3649    1.6367   -2.9167 C   0  0  0  0  0  0  0  0  0  0  0  0
   -0.8477    0.8774   -3.7590 O   0  0  0  0  0  0  0  0  0  0  0  0
    0.9285    2.3785   -3.2136 C   0  0  0  0  0  0  0  0  0  0  0  0
    1.5816    1.9071   -4.5082 C   0  0  0  0  0  0  0  0  0  0  0  0
    2.2658    0.5673   -4.3132 C   0  0  0  0  0  0  0  0  0  0  0  0
    3.4506    0.5153   -3.9908 O   0  0  0  0  0  0  0  0  0  0  0  0
    1.4311   -0.5052   -4.5109 N   0  0  0  0  0  0  0  0  0  0  0  0
    1.7960   -1.8297   -4.4243 C   0  0  0  0  0  0  0  0  0  0  0  0
    3.0641   -2.3911   -4.1513 C   0  0  0  0  0  0  0  0  0  0  0  0
    2.8537   -3.7467   -4.1670 C   0  0  0  0  0  0  0  0  0  0  0  0
    3.7067   -4.9254   -3.9435 C   0  0  0  0  0  0  0  0  0  0  0  0
    1.5487   -3.9896   -4.4594 O   0  0  0  0  0  0  0  0  0  0  0  0
    0.8849   -2.7891   -4.6260 N   0  0  0  0  0  0  0  0  0  0  0  0
   -0.4018    2.8295    1.8052 C   0  0  0  0  0  0  0  0  0  0  0  0
   -0.1747    3.3529    6.1265 H   0  0  0  0  0  0  0  0  0  0  0  0
    1.3392    2.9265    5.3210 H   0  0  0  0  0  0  0  0  0  0  0  0
    0.0896    1.6674    5.6661 H   0  0  0  0  0  0  0  0  0  0  0  0
    1.5432    0.9913    3.9139 H   0  0  0  0  0  0  0  0  0  0  0  0
    2.3066    0.0734    1.7733 H   0  0  0  0  0  0  0  0  0  0  0  0
    1.3838    0.8893   -0.3512 H   0  0  0  0  0  0  0  0  0  0  0  0
   -1.4019    3.4944   -0.5037 H   0  0  0  0  0  0  0  0  0  0  0  0
    0.2237    3.5402   -1.1392 H   0  0  0  0  0  0  0  0  0  0  0  0
   -2.8047    1.6308   -0.7151 H   0  0  0  0  0  0  0  0  0  0  0  0
   -2.6627    0.7158   -2.2166 H   0  0  0  0  0  0  0  0  0  0  0  0
   -2.9018    0.2690    0.9977 H   0  0  0  0  0  0  0  0  0  0  0  0
   -0.9975   -1.2046    1.8560 H   0  0  0  0  0  0  0  0  0  0  0  0
   -1.8284   -2.4714    0.9343 H   0  0  0  0  0  0  0  0  0  0  0  0
   -3.9298   -2.0722    2.2301 H   0  0  0  0  0  0  0  0  0  0  0  0
   -1.8153   -3.4254    3.3791 H   0  0  0  0  0  0  0  0  0  0  0  0
   -3.2978   -3.0539    4.2741 H   0  0  0  0  0  0  0  0  0  0  0  0
   -0.7402   -1.4206    4.2468 H   0  0  0  0  0  0  0  0  0  0  0  0
   -1.6237   -2.0002    5.6664 H   0  0  0  0  0  0  0  0  0  0  0  0
   -2.0596    0.5146    4.6938 H   0  0  0  0  0  0  0  0  0  0  0  0
   -3.4294   -0.4504    5.2787 H   0  0  0  0  0  0  0  0  0  0  0  0
    1.6271    2.2496   -2.3796 H   0  0  0  0  0  0  0  0  0  0  0  0
    0.6843    3.4416   -3.3182 H   0  0  0  0  0  0  0  0  0  0  0  0
    0.8664    1.8458   -5.3369 H   0  0  0  0  0  0  0  0  0  0  0  0
    2.3519    2.6251   -4.8134 H   0  0  0  0  0  0  0  0  0  0  0  0
    0.4297   -0.3553   -4.6348 H   0  0  0  0  0  0  0  0  0  0  0  0
    3.9961   -1.8850   -3.9554 H   0  0  0  0  0  0  0  0  0  0  0  0
    3.3358   -5.5111   -3.0963 H   0  0  0  0  0  0  0  0  0  0  0  0
    4.7366   -4.6303   -3.7248 H   0  0  0  0  0  0  0  0  0  0  0  0
    3.7148   -5.5712   -4.8291 H   0  0  0  0  0  0  0  0  0  0  0  0
   -1.1662    3.6063    1.8363 H   0  0  0  0  0  0  0  0  0  0  0  0
  1  2  1  0
  2  3  1  0
  3  4  2  0
  4  5  1  0
  5  6  2  0
  6  7  1  0
  7  8  1  0
  8  9  1  0
  9 10  1  0
 10 11  1  0
 11 12  2  0
 11 13  1  0
 13 14  1  0
 14 15  1  0
 15 16  1  0
 16 17  1  0
 17 18  1  0
 18 19  1  0
  9 20  1  0
 20 21  2  0
 20 22  1  0
 22 23  1  0
 23 24  1  0
 24 25  2  0
 24 26  1  0
 26 27  1  0
 27 28  1  0
 28 29  2  0
 29 30  1  0
 29 31  1  0
 31 32  1  0
  7 33  2  0
 33  3  1  0
 19 15  1  0
 32 27  2  0
  1 34  1  0
  1 35  1  0
  1 36  1  0
  4 37  1  0
  5 38  1  0
  6 39  1  0
  8 40  1  0
  8 41  1  0
 10 42  1  0
 10 43  1  0
 13 44  1  0
 14 45  1  0
 14 46  1  0
 15 47  1  0
 16 48  1  0
 16 49  1  0
 17 50  1  0
 17 51  1  0
 18 52  1  0
 18 53  1  0
 22 54  1  0
 22 55  1  0
 23 56  1  0
 23 57  1  0
 26 58  1  0
 28 59  1  0
 30 60  1  0
 30 61  1  0
 30 62  1  0
 33 63  1  0
M  END
$$$$
