
     RDKit          3D

 34 36  0  0  0  0  0  0  0  0999 V2000
    0.0251   -2.0905   -1.0110 O   0  0  0  0  0  0  0  0  0  0  0  0
    0.4012   -1.0337   -0.5238 C   0  0  0  0  0  0  0  0  0  0  0  0
    1.8273   -0.8732   -0.1892 C   0  0  0  0  0  0  0  0  0  0  0  0
    2.6260    0.0157   -0.9165 C   0  0  0  0  0  0  0  0  0  0  0  0
    3.9789    0.1426   -0.5948 C   0  0  0  0  0  0  0  0  0  0  0  0
    4.5216   -0.6253    0.4377 C   0  0  0  0  0  0  0  0  0  0  0  0
    6.1882   -0.4635    0.8327 Cl  0  0  0  0  0  0  0  0  0  0  0  0
    3.7267   -1.5264    1.1485 C   0  0  0  0  0  0  0  0  0  0  0  0
    2.3736   -1.6575    0.8306 C   0  0  0  0  0  0  0  0  0  0  0  0
   -0.4496    0.0076   -0.2586 N   0  0  0  0  0  0  0  0  0  0  0  0
   -0.1652    1.2524    0.4691 C   0  0  0  0  0  0  0  0  0  0  0  0
   -0.7764    1.0738    1.8365 C   0  0  0  0  0  0  0  0  0  0  0  0
   -2.1126    1.1272    1.6981 C   0  0  0  0  0  0  0  0  0  0  0  0
   -2.3868    1.2532    0.2068 C   0  0  0  0  0  0  0  0  0  0  0  0
   -1.2130    2.2003   -0.1133 C   0  0  0  0  0  0  0  0  0  0  0  0
   -1.9480   -0.0754   -0.5216 C   0  0  0  0  0  0  0  0  0  0  0  0
   -2.6906   -1.2870    0.0511 C   0  0  0  0  0  0  0  0  0  0  0  0
   -4.0219   -1.0243    0.1373 F   0  0  0  0  0  0  0  0  0  0  0  0
   -2.5730   -2.4146   -0.6751 F   0  0  0  0  0  0  0  0  0  0  0  0
   -2.2882   -1.5932    1.3097 F   0  0  0  0  0  0  0  0  0  0  0  0
   -2.3516   -0.0456   -1.9932 C   0  0  0  0  0  0  0  0  0  0  0  0
   -3.6849    0.1534   -2.1307 F   0  0  0  0  0  0  0  0  0  0  0  0
   -1.7534    0.9777   -2.6548 F   0  0  0  0  0  0  0  0  0  0  0  0
   -2.0411   -1.1626   -2.6770 F   0  0  0  0  0  0  0  0  0  0  0  0
    2.2046    0.5953   -1.7339 H   0  0  0  0  0  0  0  0  0  0  0  0
    4.6062    0.8309   -1.1556 H   0  0  0  0  0  0  0  0  0  0  0  0
    4.1557   -2.1329    1.9422 H   0  0  0  0  0  0  0  0  0  0  0  0
    1.7513   -2.3694    1.3685 H   0  0  0  0  0  0  0  0  0  0  0  0
    0.8638    1.6067    0.4564 H   0  0  0  0  0  0  0  0  0  0  0  0
   -0.2284    0.9225    2.7545 H   0  0  0  0  0  0  0  0  0  0  0  0
   -2.8505    1.0042    2.4781 H   0  0  0  0  0  0  0  0  0  0  0  0
   -3.3743    1.6464   -0.0403 H   0  0  0  0  0  0  0  0  0  0  0  0
   -1.2719    3.1651    0.4087 H   0  0  0  0  0  0  0  0  0  0  0  0
   -1.0687    2.4001   -1.1769 H   0  0  0  0  0  0  0  0  0  0  0  0
  1  2  2  0
  2  3  1  0
  3  4  2  0
  4  5  1  0
  5  6  2  0
  6  7  1  0
  6  8  1  0
  8  9  2  0
  2 10  1  0
 10 11  1  0
 11 12  1  0
 12 13  2  0
 13 14  1  0
 14 15  1  0
 14 16  1  0
 16 17  1  0
 17 18  1  0
 17 19  1  0
 17 20  1  0
 16 21  1  0
 21 22  1  0
 21 23  1  0
 21 24  1  0
  9  3  1  0
 16 10  1  0
 15 11  1  0
  4 25  1  0
  5 26  1  0
  8 27  1  0
  9 28  1  0
 11 29  1  0
 12 30  1  0
 13 31  1  0
 14 32  1  0
 15 33  1  0
 15 34  1  0
M  END
$$$$
