
     RDKit          3D

 34 35  0  0  0  0  0  0  0  0999 V2000
   -2.9350    0.6528    1.9992 C   0  0  0  0  0  0  0  0  0  0  0  0
   -3.4429    0.2432    0.6425 C   0  0  0  0  0  0  0  0  0  0  0  0
   -4.8138   -0.0417    0.5049 C   0  0  0  0  0  0  0  0  0  0  0  0
   -5.3449   -0.4235   -0.7246 C   0  0  0  0  0  0  0  0  0  0  0  0
   -4.5100   -0.5376   -1.8285 C   0  0  0  0  0  0  0  0  0  0  0  0
   -3.1458   -0.2607   -1.7067 C   0  0  0  0  0  0  0  0  0  0  0  0
   -2.5980    0.1513   -0.4863 C   0  0  0  0  0  0  0  0  0  0  0  0
   -1.2122    0.4001   -0.3271 N   0  0  0  0  0  0  0  0  0  0  0  0
   -0.2559    0.7829   -1.2358 C   0  0  0  0  0  0  0  0  0  0  0  0
   -0.4587    1.4759   -2.7415 S   0  0  0  0  0  0  0  0  0  0  0  0
    1.0366    0.6037   -0.8171 N   0  0  0  0  0  0  0  0  0  0  0  0
    1.4936   -0.2504    0.2626 C   0  0  0  0  0  0  0  0  0  0  0  0
    2.9959   -0.2904    0.3192 C   0  0  0  0  0  0  0  0  0  0  0  0
    3.7036   -1.3424   -0.2788 C   0  0  0  0  0  0  0  0  0  0  0  0
    5.0988   -1.3648   -0.2457 C   0  0  0  0  0  0  0  0  0  0  0  0
    5.7993   -0.3336    0.3772 C   0  0  0  0  0  0  0  0  0  0  0  0
    5.1065    0.7236    0.9641 C   0  0  0  0  0  0  0  0  0  0  0  0
    3.7115    0.7481    0.9324 C   0  0  0  0  0  0  0  0  0  0  0  0
   -2.4485    1.6321    1.9446 H   0  0  0  0  0  0  0  0  0  0  0  0
   -2.2262   -0.0903    2.3787 H   0  0  0  0  0  0  0  0  0  0  0  0
   -3.7483    0.7347    2.7283 H   0  0  0  0  0  0  0  0  0  0  0  0
   -5.4809    0.0347    1.3612 H   0  0  0  0  0  0  0  0  0  0  0  0
   -6.4058   -0.6393   -0.8183 H   0  0  0  0  0  0  0  0  0  0  0  0
   -4.9130   -0.8520   -2.7877 H   0  0  0  0  0  0  0  0  0  0  0  0
   -2.5256   -0.4142   -2.5834 H   0  0  0  0  0  0  0  0  0  0  0  0
   -0.9103    0.5115    0.6283 H   0  0  0  0  0  0  0  0  0  0  0  0
    1.7249    0.8423   -1.5238 H   0  0  0  0  0  0  0  0  0  0  0  0
    1.0767   -1.2531    0.1126 H   0  0  0  0  0  0  0  0  0  0  0  0
    1.0932    0.1262    1.2106 H   0  0  0  0  0  0  0  0  0  0  0  0
    3.1721   -2.1503   -0.7775 H   0  0  0  0  0  0  0  0  0  0  0  0
    5.6400   -2.1854   -0.7099 H   0  0  0  0  0  0  0  0  0  0  0  0
    6.8859   -0.3509    0.4002 H   0  0  0  0  0  0  0  0  0  0  0  0
    5.6534    1.5321    1.4424 H   0  0  0  0  0  0  0  0  0  0  0  0
    3.1839    1.5857    1.3839 H   0  0  0  0  0  0  0  0  0  0  0  0
  1  2  1  0
  2  3  2  0
  3  4  1  0
  4  5  2  0
  5  6  1  0
  6  7  2  0
  7  8  1  0
  8  9  1  0
  9 10  2  0
  9 11  1  0
 11 12  1  0
 12 13  1  0
 13 14  2  0
 14 15  1  0
 15 16  2  0
 16 17  1  0
 17 18  2  0
  7  2  1  0
 18 13  1  0
  1 19  1  0
  1 20  1  0
  1 21  1  0
  3 22  1  0
  4 23  1  0
  5 24  1  0
  6 25  1  0
  8 26  1  0
 11 27  1  0
 12 28  1  0
 12 29  1  0
 14 30  1  0
 15 31  1  0
 16 32  1  0
 17 33  1  0
 18 34  1  0
M  END
$$$$
