
     RDKit          3D

 63 66  0  0  0  0  0  0  0  0999 V2000
    2.5040    0.4320   -3.1561 C   0  0  0  0  0  0  0  0  0  0  0  0
    2.7231    0.4726   -1.6703 C   0  0  0  0  0  0  0  0  0  0  0  0
    1.9500   -0.2525   -0.9107 N   0  0  0  0  0  0  0  0  0  0  0  0
    2.1135   -0.2691    0.4788 N   0  0  0  0  0  0  0  0  0  0  0  0
    1.1841   -1.1220    1.2145 C   0  0  0  0  0  0  0  0  0  0  0  0
   -0.0604   -0.3553    1.6387 C   0  0  0  0  0  0  0  0  0  0  0  0
   -1.0276   -1.2566    2.3703 C   0  0  0  0  0  0  0  0  0  0  0  0
   -0.8402   -2.4562    2.5404 O   0  0  0  0  0  0  0  0  0  0  0  0
   -2.1445   -0.5879    2.8218 N   0  0  0  0  0  0  0  0  0  0  0  0
   -3.2446   -1.2812    3.4528 C   0  0  0  0  0  0  0  0  0  0  0  0
   -4.3492   -1.5451    2.4630 C   0  0  0  0  0  0  0  0  0  0  0  0
   -4.2731   -2.6429    1.5953 C   0  0  0  0  0  0  0  0  0  0  0  0
   -5.2831   -2.8893    0.6579 C   0  0  0  0  0  0  0  0  0  0  0  0
   -6.3817   -2.0367    0.5708 C   0  0  0  0  0  0  0  0  0  0  0  0
   -7.4395   -2.1551   -0.2857 O   0  0  0  0  0  0  0  0  0  0  0  0
   -7.4379   -3.2018   -1.2624 C   0  0  0  0  0  0  0  0  0  0  0  0
   -8.0199   -4.4790   -0.6626 C   0  0  0  0  0  0  0  0  0  0  0  0
   -8.3154   -2.7231   -2.4177 C   0  0  0  0  0  0  0  0  0  0  0  0
   -6.4578   -0.9380    1.4314 C   0  0  0  0  0  0  0  0  0  0  0  0
   -5.4508   -0.6879    2.3674 C   0  0  0  0  0  0  0  0  0  0  0  0
    3.0417    0.5135    1.1974 C   0  0  0  0  0  0  0  0  0  0  0  0
    3.1100    0.5307    2.4247 O   0  0  0  0  0  0  0  0  0  0  0  0
    3.9000    1.3050    0.3257 C   0  0  0  0  0  0  0  0  0  0  0  0
    4.8697    2.1369    0.7117 N   0  0  0  0  0  0  0  0  0  0  0  0
    5.4487    2.5644   -0.4433 N   0  0  0  0  0  0  0  0  0  0  0  0
    6.6793    3.2877   -0.3637 C   0  0  0  0  0  0  0  0  0  0  0  0
    7.5411    3.4248   -1.4586 C   0  0  0  0  0  0  0  0  0  0  0  0
    8.7414    4.1324   -1.3290 C   0  0  0  0  0  0  0  0  0  0  0  0
    9.0974    4.6974   -0.1065 C   0  0  0  0  0  0  0  0  0  0  0  0
    8.2611    4.5457    0.9956 C   0  0  0  0  0  0  0  0  0  0  0  0
    7.0629    3.8386    0.8719 C   0  0  0  0  0  0  0  0  0  0  0  0
    4.6846    2.1838   -1.5545 C   0  0  0  0  0  0  0  0  0  0  0  0
    4.8634    2.7227   -2.9277 C   0  0  0  0  0  0  0  0  0  0  0  0
    3.7486    1.2873   -1.0652 C   0  0  0  0  0  0  0  0  0  0  0  0
    1.8207   -0.3819   -3.4182 H   0  0  0  0  0  0  0  0  0  0  0  0
    3.4526    0.2693   -3.6744 H   0  0  0  0  0  0  0  0  0  0  0  0
    2.0600    1.3758   -3.4850 H   0  0  0  0  0  0  0  0  0  0  0  0
    1.6977   -1.5277    2.0946 H   0  0  0  0  0  0  0  0  0  0  0  0
    0.9219   -1.9748    0.5761 H   0  0  0  0  0  0  0  0  0  0  0  0
   -0.5676    0.0586    0.7590 H   0  0  0  0  0  0  0  0  0  0  0  0
    0.2099    0.4796    2.2956 H   0  0  0  0  0  0  0  0  0  0  0  0
   -2.3124    0.3549    2.4989 H   0  0  0  0  0  0  0  0  0  0  0  0
   -2.9058   -2.2208    3.9036 H   0  0  0  0  0  0  0  0  0  0  0  0
   -3.6057   -0.6434    4.2673 H   0  0  0  0  0  0  0  0  0  0  0  0
   -3.4183   -3.3169    1.6466 H   0  0  0  0  0  0  0  0  0  0  0  0
   -5.1755   -3.7601    0.0209 H   0  0  0  0  0  0  0  0  0  0  0  0
   -6.4356   -3.3752   -1.6699 H   0  0  0  0  0  0  0  0  0  0  0  0
   -9.0207   -4.2987   -0.2546 H   0  0  0  0  0  0  0  0  0  0  0  0
   -8.0856   -5.2741   -1.4125 H   0  0  0  0  0  0  0  0  0  0  0  0
   -7.4076   -4.8428    0.1676 H   0  0  0  0  0  0  0  0  0  0  0  0
   -7.9182   -1.7920   -2.8374 H   0  0  0  0  0  0  0  0  0  0  0  0
   -8.3663   -3.4707   -3.2159 H   0  0  0  0  0  0  0  0  0  0  0  0
   -9.3327   -2.5037   -2.0750 H   0  0  0  0  0  0  0  0  0  0  0  0
   -7.3134   -0.2690    1.3709 H   0  0  0  0  0  0  0  0  0  0  0  0
   -5.5390    0.1771    3.0204 H   0  0  0  0  0  0  0  0  0  0  0  0
    7.3446    2.9565   -2.4152 H   0  0  0  0  0  0  0  0  0  0  0  0
    9.4087    4.2295   -2.1823 H   0  0  0  0  0  0  0  0  0  0  0  0
   10.0324    5.2427   -0.0087 H   0  0  0  0  0  0  0  0  0  0  0  0
    8.5401    4.9727    1.9557 H   0  0  0  0  0  0  0  0  0  0  0  0
    6.4294    3.7335    1.7521 H   0  0  0  0  0  0  0  0  0  0  0  0
    3.9077    2.7692   -3.4571 H   0  0  0  0  0  0  0  0  0  0  0  0
    5.5379    2.0873   -3.5091 H   0  0  0  0  0  0  0  0  0  0  0  0
    5.2419    3.7492   -2.9192 H   0  0  0  0  0  0  0  0  0  0  0  0
  1  2  1  0
  2  3  2  0
  3  4  1  0
  4  5  1  0
  5  6  1  0
  6  7  1  0
  7  8  2  0
  7  9  1  0
  9 10  1  0
 10 11  1  0
 11 12  2  0
 12 13  1  0
 13 14  2  0
 14 15  1  0
 15 16  1  0
 16 17  1  0
 16 18  1  0
 14 19  1  0
 19 20  2  0
  4 21  1  0
 21 22  2  0
 21 23  1  0
 23 24  2  0
 24 25  1  0
 25 26  1  0
 26 27  2  0
 27 28  1  0
 28 29  2  0
 29 30  1  0
 30 31  2  0
 25 32  1  0
 32 33  1  0
 32 34  2  0
 34  2  1  0
 20 11  1  0
 34 23  1  0
 31 26  1  0
  1 35  1  0
  1 36  1  0
  1 37  1  0
  5 38  1  0
  5 39  1  0
  6 40  1  0
  6 41  1  0
  9 42  1  0
 10 43  1  0
 10 44  1  0
 12 45  1  0
 13 46  1  0
 16 47  1  0
 17 48  1  0
 17 49  1  0
 17 50  1  0
 18 51  1  0
 18 52  1  0
 18 53  1  0
 19 54  1  0
 20 55  1  0
 27 56  1  0
 28 57  1  0
 29 58  1  0
 30 59  1  0
 31 60  1  0
 33 61  1  0
 33 62  1  0
 33 63  1  0
M  END
$$$$
