
     RDKit          3D

 53 52  0  0  0  0  0  0  0  0999 V2000
   -6.6287    1.4713    1.8077 C   0  0  0  0  0  0  0  0  0  0  0  0
   -5.9567    0.9327    0.5410 C   0  0  0  0  0  0  0  0  0  0  0  0
   -4.6613    0.2142    0.9135 C   0  0  0  0  0  0  0  0  0  0  0  0
   -5.7566    2.0816   -0.4684 C   0  0  0  0  0  0  0  0  0  0  0  0
   -5.1519    1.6606   -1.8080 C   0  0  0  0  0  0  0  0  0  0  0  0
   -3.7056    1.7490   -1.8187 N   0  0  0  0  0  0  0  0  0  0  0  0
   -3.0096    1.6605   -3.0040 C   0  0  0  0  0  0  0  0  0  0  0  0
   -3.5428    1.5769   -4.1067 O   0  0  0  0  0  0  0  0  0  0  0  0
   -1.5054    1.6586   -2.8402 C   0  0  0  0  0  0  0  0  0  0  0  0
   -0.9593    0.2415   -2.7644 C   0  0  0  0  0  0  0  0  0  0  0  0
   -1.2116   -0.5439   -1.1311 S   0  0  0  0  0  0  0  0  0  0  0  0
    0.1447    0.2218   -0.1722 C   0  0  0  0  0  0  0  0  0  0  0  0
    1.4856   -0.4287   -0.4846 C   0  0  0  0  0  0  0  0  0  0  0  0
    2.5872    0.1635    0.3691 C   0  0  0  0  0  0  0  0  0  0  0  0
    2.4341    1.1424    1.0894 O   0  0  0  0  0  0  0  0  0  0  0  0
    3.7852   -0.5074    0.2323 N   0  0  0  0  0  0  0  0  0  0  0  0
    4.9890   -0.0190    0.8730 C   0  0  0  0  0  0  0  0  0  0  0  0
    6.1097   -1.0584    0.8812 C   0  0  0  0  0  0  0  0  0  0  0  0
    6.0096   -2.1120    2.0032 C   0  0  0  0  0  0  0  0  0  0  0  0
    7.2332   -3.0320    1.9503 C   0  0  0  0  0  0  0  0  0  0  0  0
    4.7352   -2.9521    1.9342 C   0  0  0  0  0  0  0  0  0  0  0  0
   -6.8321    0.6612    2.5170 H   0  0  0  0  0  0  0  0  0  0  0  0
   -5.9932    2.2087    2.3103 H   0  0  0  0  0  0  0  0  0  0  0  0
   -7.5826    1.9525    1.5687 H   0  0  0  0  0  0  0  0  0  0  0  0
   -6.6336    0.1917    0.0940 H   0  0  0  0  0  0  0  0  0  0  0  0
   -4.8508   -0.5575    1.6673 H   0  0  0  0  0  0  0  0  0  0  0  0
   -4.2309   -0.2920    0.0457 H   0  0  0  0  0  0  0  0  0  0  0  0
   -3.9178    0.9074    1.3194 H   0  0  0  0  0  0  0  0  0  0  0  0
   -6.7466    2.5103   -0.6747 H   0  0  0  0  0  0  0  0  0  0  0  0
   -5.1581    2.8834   -0.0167 H   0  0  0  0  0  0  0  0  0  0  0  0
   -5.5232    2.3275   -2.5952 H   0  0  0  0  0  0  0  0  0  0  0  0
   -5.4399    0.6409   -2.0836 H   0  0  0  0  0  0  0  0  0  0  0  0
   -3.2020    1.4904   -0.9774 H   0  0  0  0  0  0  0  0  0  0  0  0
   -1.0930    2.1606   -3.7238 H   0  0  0  0  0  0  0  0  0  0  0  0
   -1.2141    2.2697   -1.9796 H   0  0  0  0  0  0  0  0  0  0  0  0
   -1.4538   -0.3948   -3.5068 H   0  0  0  0  0  0  0  0  0  0  0  0
    0.1078    0.2361   -3.0016 H   0  0  0  0  0  0  0  0  0  0  0  0
   -0.0958    0.0808    0.8879 H   0  0  0  0  0  0  0  0  0  0  0  0
    0.1663    1.3016   -0.3508 H   0  0  0  0  0  0  0  0  0  0  0  0
    1.4446   -1.5088   -0.2926 H   0  0  0  0  0  0  0  0  0  0  0  0
    1.7640   -0.2715   -1.5333 H   0  0  0  0  0  0  0  0  0  0  0  0
    3.8916   -1.1178   -0.5692 H   0  0  0  0  0  0  0  0  0  0  0  0
    4.7555    0.3229    1.8872 H   0  0  0  0  0  0  0  0  0  0  0  0
    5.3088    0.8569    0.2971 H   0  0  0  0  0  0  0  0  0  0  0  0
    6.1659   -1.5561   -0.0941 H   0  0  0  0  0  0  0  0  0  0  0  0
    7.0567   -0.5192    1.0117 H   0  0  0  0  0  0  0  0  0  0  0  0
    6.0239   -1.5928    2.9706 H   0  0  0  0  0  0  0  0  0  0  0  0
    8.1600   -2.4538    2.0162 H   0  0  0  0  0  0  0  0  0  0  0  0
    7.2248   -3.7411    2.7841 H   0  0  0  0  0  0  0  0  0  0  0  0
    7.2563   -3.6056    1.0178 H   0  0  0  0  0  0  0  0  0  0  0  0
    4.6030   -3.3959    0.9423 H   0  0  0  0  0  0  0  0  0  0  0  0
    3.8514   -2.3504    2.1660 H   0  0  0  0  0  0  0  0  0  0  0  0
    4.7629   -3.7662    2.6670 H   0  0  0  0  0  0  0  0  0  0  0  0
  1  2  1  0
  2  3  1  0
  2  4  1  0
  4  5  1  0
  5  6  1  0
  6  7  1  0
  7  8  2  0
  7  9  1  0
  9 10  1  0
 10 11  1  0
 11 12  1  0
 12 13  1  0
 13 14  1  0
 14 15  2  0
 14 16  1  0
 16 17  1  0
 17 18  1  0
 18 19  1  0
 19 20  1  0
 19 21  1  0
  1 22  1  0
  1 23  1  0
  1 24  1  0
  2 25  1  0
  3 26  1  0
  3 27  1  0
  3 28  1  0
  4 29  1  0
  4 30  1  0
  5 31  1  0
  5 32  1  0
  6 33  1  0
  9 34  1  0
  9 35  1  0
 10 36  1  0
 10 37  1  0
 12 38  1  0
 12 39  1  0
 13 40  1  0
 13 41  1  0
 16 42  1  0
 17 43  1  0
 17 44  1  0
 18 45  1  0
 18 46  1  0
 19 47  1  0
 20 48  1  0
 20 49  1  0
 20 50  1  0
 21 51  1  0
 21 52  1  0
 21 53  1  0
M  END
$$$$
