
     RDKit          3D

 57 62  0  0  0  0  0  0  0  0999 V2000
    8.0750   -0.9718    1.2535 C   0  0  0  0  0  0  0  0  0  0  0  0
    6.9848   -0.2219    1.7793 O   0  0  0  0  0  0  0  0  0  0  0  0
    5.8408   -0.1824    1.0348 C   0  0  0  0  0  0  0  0  0  0  0  0
    5.6966   -0.6351   -0.2749 C   0  0  0  0  0  0  0  0  0  0  0  0
    4.4592   -0.5371   -0.9254 C   0  0  0  0  0  0  0  0  0  0  0  0
    3.3580    0.0160   -0.2700 C   0  0  0  0  0  0  0  0  0  0  0  0
    1.9649    0.1164   -0.9875 C   0  0  0  0  0  0  0  0  0  0  0  0
    0.8227    0.7328   -0.4895 C   0  0  0  0  0  0  0  0  0  0  0  0
   -0.2003    0.6136   -1.4297 N   0  0  0  0  0  4  0  0  0  0  0  0
   -1.6008    1.0371   -1.2696 C   0  0  0  0  0  0  0  0  0  0  0  0
   -2.4359   -0.1386   -0.7291 C   0  0  0  0  0  0  0  0  0  0  0  0
   -2.2861   -1.2678   -1.2016 O   0  0  0  0  0  0  0  0  0  0  0  0
   -3.2374    0.2025    0.3685 N   0  0  0  0  0  0  0  0  0  0  0  0
   -3.1095   -0.5021    1.6222 C   0  0  0  0  0  0  0  0  0  0  0  0
   -2.4342   -1.7406    1.6836 C   0  0  0  0  0  0  0  0  0  0  0  0
   -2.2732   -2.4424    2.8838 C   0  0  0  0  0  0  0  0  0  0  0  0
   -2.7753   -1.9196    4.0651 C   0  0  0  0  0  0  0  0  0  0  0  0
   -3.4295   -0.6939    4.0409 C   0  0  0  0  0  0  0  0  0  0  0  0
   -3.5930    0.0178    2.8373 C   0  0  0  0  0  0  0  0  0  0  0  0
   -4.3214    1.6261    2.9913 S   0  0  0  0  0  0  0  0  0  0  0  0
   -4.7739    1.9407    1.3145 C   0  0  0  0  0  0  0  0  0  0  0  0
   -5.7139    2.9640    1.0996 C   0  0  0  0  0  0  0  0  0  0  0  0
   -6.1343    3.2947   -0.1852 C   0  0  0  0  0  0  0  0  0  0  0  0
   -5.6318    2.5923   -1.2685 C   0  0  0  0  0  0  0  0  0  0  0  0
   -4.6907    1.5804   -1.0623 C   0  0  0  0  0  0  0  0  0  0  0  0
   -4.2193    1.2502    0.2293 C   0  0  0  0  0  0  0  0  0  0  0  0
    0.2794   -0.0789   -2.4569 C   0  0  0  0  0  0  0  0  0  0  0  0
    1.5547   -0.3682   -2.2178 N   0  0  0  0  0  0  0  0  0  0  0  0
    2.1401   -1.1626   -3.2881 C   0  0  0  0  0  0  0  0  0  0  0  0
    0.9162   -1.5795   -4.1491 C   0  0  0  0  0  0  0  0  0  0  0  0
   -0.2072   -0.6016   -3.7534 C   0  0  0  0  0  0  0  0  0  0  0  0
    3.5065    0.4872    1.0389 C   0  0  0  0  0  0  0  0  0  0  0  0
    4.7431    0.3849    1.6828 C   0  0  0  0  0  0  0  0  0  0  0  0
    8.8641   -0.9942    2.0132 H   0  0  0  0  0  0  0  0  0  0  0  0
    8.4829   -0.4905    0.3579 H   0  0  0  0  0  0  0  0  0  0  0  0
    7.7823   -2.0069    1.0471 H   0  0  0  0  0  0  0  0  0  0  0  0
    6.5323   -1.0589   -0.8238 H   0  0  0  0  0  0  0  0  0  0  0  0
    4.4022   -0.8877   -1.9488 H   0  0  0  0  0  0  0  0  0  0  0  0
    0.6047    1.2489    0.4307 H   0  0  0  0  0  0  0  0  0  0  0  0
   -1.6219    1.8980   -0.5930 H   0  0  0  0  0  0  0  0  0  0  0  0
   -1.9867    1.3398   -2.2493 H   0  0  0  0  0  0  0  0  0  0  0  0
   -2.0409   -2.2306    0.7976 H   0  0  0  0  0  0  0  0  0  0  0  0
   -1.7667   -3.4066    2.8869 H   0  0  0  0  0  0  0  0  0  0  0  0
   -2.6592   -2.4598    5.0013 H   0  0  0  0  0  0  0  0  0  0  0  0
   -3.8073   -0.2867    4.9786 H   0  0  0  0  0  0  0  0  0  0  0  0
   -6.1364    3.5104    1.9430 H   0  0  0  0  0  0  0  0  0  0  0  0
   -6.8713    4.0821   -0.3314 H   0  0  0  0  0  0  0  0  0  0  0  0
   -5.9874    2.8160   -2.2722 H   0  0  0  0  0  0  0  0  0  0  0  0
   -4.3884    1.0165   -1.9409 H   0  0  0  0  0  0  0  0  0  0  0  0
    2.8285   -0.5319   -3.8584 H   0  0  0  0  0  0  0  0  0  0  0  0
    2.6543   -2.0392   -2.8872 H   0  0  0  0  0  0  0  0  0  0  0  0
    0.6185   -2.5992   -3.8764 H   0  0  0  0  0  0  0  0  0  0  0  0
    1.1311   -1.5688   -5.2207 H   0  0  0  0  0  0  0  0  0  0  0  0
   -0.2741    0.2550   -4.4274 H   0  0  0  0  0  0  0  0  0  0  0  0
   -1.1730   -1.0868   -3.6142 H   0  0  0  0  0  0  0  0  0  0  0  0
    2.6836    0.9240    1.5972 H   0  0  0  0  0  0  0  0  0  0  0  0
    4.8546    0.7441    2.7049 H   0  0  0  0  0  0  0  0  0  0  0  0
  1  2  1  0
  2  3  1  0
  3  4  2  0
  4  5  1  0
  5  6  2  0
  6  7  1  0
  7  8  2  0
  8  9  1  0
  9 10  1  0
 10 11  1  0
 11 12  2  0
 11 13  1  0
 13 14  1  0
 14 15  2  0
 15 16  1  0
 16 17  2  0
 17 18  1  0
 18 19  2  0
 19 20  1  0
 20 21  1  0
 21 22  2  0
 22 23  1  0
 23 24  2  0
 24 25  1  0
 25 26  2  0
  9 27  2  0
 27 28  1  0
 28 29  1  0
 29 30  1  0
 30 31  1  0
  6 32  1  0
 32 33  2  0
 33  3  1  0
 28  7  1  0
 26 13  1  0
 31 27  1  0
 19 14  1  0
 26 21  1  0
  1 34  1  0
  1 35  1  0
  1 36  1  0
  4 37  1  0
  5 38  1  0
  8 39  1  0
 10 40  1  0
 10 41  1  0
 15 42  1  0
 16 43  1  0
 17 44  1  0
 18 45  1  0
 22 46  1  0
 23 47  1  0
 24 48  1  0
 25 49  1  0
 29 50  1  0
 29 51  1  0
 30 52  1  0
 30 53  1  0
 31 54  1  0
 31 55  1  0
 32 56  1  0
 33 57  1  0
M  CHG  1   9   1
M  END
$$$$
