
     RDKit          3D

 58 62  0  0  0  0  0  0  0  0999 V2000
    6.2333    2.7687    1.1803 C   0  0  0  0  0  0  0  0  0  0  0  0
    6.2229    1.6508    0.1734 C   0  0  0  0  0  0  0  0  0  0  0  0
    7.1742    1.8514   -0.9740 C   0  0  0  0  0  0  0  0  0  0  0  0
    5.4284    0.5713    0.2877 C   0  0  0  0  0  0  0  0  0  0  0  0
    5.2415   -0.6526   -0.6234 C   0  0  0  0  0  0  0  0  0  0  0  0
    5.6339   -1.7144    0.4344 C   0  0  0  0  0  0  0  0  0  0  0  0
    5.0528   -1.1431    1.7752 C   0  0  0  0  0  0  0  0  0  0  0  0
    4.3830    0.1877    1.3516 C   0  0  0  0  0  0  0  0  0  0  0  0
    3.2314   -0.1416    0.4574 C   0  0  0  0  0  0  0  0  0  0  0  0
    3.7488   -0.6511   -0.7467 C   0  0  0  0  0  0  0  0  0  0  0  0
    2.7117   -0.9557   -1.5812 C   0  0  0  0  0  0  0  0  0  0  0  0
    2.7352   -1.4548   -2.8131 O   0  0  0  0  0  0  0  0  0  0  0  0
    1.5144   -0.6342   -0.8932 N   0  0  0  0  0  0  0  0  0  0  0  0
    0.1735   -0.7500   -1.3142 C   0  0  0  0  0  0  0  0  0  0  0  0
   -0.8253   -0.3915   -0.5302 N   0  0  0  0  0  0  0  0  0  0  0  0
   -2.0288   -0.6202   -1.1829 C   0  0  0  0  0  0  0  0  0  0  0  0
   -3.2846   -0.3079   -0.5161 C   0  0  0  0  0  0  0  0  0  0  0  0
   -4.3447   -1.2198   -0.4848 C   0  0  0  0  0  0  0  0  0  0  0  0
   -5.5379   -0.8977    0.1707 C   0  0  0  0  0  0  0  0  0  0  0  0
   -5.6910    0.3368    0.8191 C   0  0  0  0  0  0  0  0  0  0  0  0
   -6.9766    0.7077    1.5375 C   0  0  0  0  0  0  0  0  0  0  0  0
   -7.2975   -0.2734    2.6684 C   0  0  0  0  0  0  0  0  0  0  0  0
   -8.1491    0.8157    0.5597 C   0  0  0  0  0  0  0  0  0  0  0  0
   -4.6191    1.2399    0.7983 C   0  0  0  0  0  0  0  0  0  0  0  0
   -3.4269    0.9190    0.1418 C   0  0  0  0  0  0  0  0  0  0  0  0
   -1.9138   -1.1135   -2.4740 C   0  0  0  0  0  0  0  0  0  0  0  0
   -2.9504   -1.4273   -3.4956 C   0  0  0  0  0  0  0  0  0  0  0  0
   -0.2497   -1.3493   -2.8434 S   0  0  0  0  0  0  0  0  0  0  0  0
    1.8723   -0.1354    0.3888 C   0  0  0  0  0  0  0  0  0  0  0  0
    0.9870    0.2512    1.3094 O   0  0  0  0  0  0  0  0  0  0  0  0
    5.9189    3.7042    0.7059 H   0  0  0  0  0  0  0  0  0  0  0  0
    5.5699    2.5898    2.0295 H   0  0  0  0  0  0  0  0  0  0  0  0
    7.2435    2.9064    1.5803 H   0  0  0  0  0  0  0  0  0  0  0  0
    8.1959    1.9743   -0.5996 H   0  0  0  0  0  0  0  0  0  0  0  0
    6.9017    2.7502   -1.5370 H   0  0  0  0  0  0  0  0  0  0  0  0
    7.1844    1.0127   -1.6749 H   0  0  0  0  0  0  0  0  0  0  0  0
    5.7939   -0.6874   -1.5600 H   0  0  0  0  0  0  0  0  0  0  0  0
    5.2126   -2.7012    0.2122 H   0  0  0  0  0  0  0  0  0  0  0  0
    6.7231   -1.8143    0.5133 H   0  0  0  0  0  0  0  0  0  0  0  0
    4.3410   -1.8446    2.2248 H   0  0  0  0  0  0  0  0  0  0  0  0
    5.8660   -0.9706    2.4905 H   0  0  0  0  0  0  0  0  0  0  0  0
    4.1774    0.8947    2.1523 H   0  0  0  0  0  0  0  0  0  0  0  0
    3.6694   -1.5639   -3.0645 H   0  0  0  0  0  0  0  0  0  0  0  0
   -4.2508   -2.1961   -0.9527 H   0  0  0  0  0  0  0  0  0  0  0  0
   -6.3449   -1.6267    0.1765 H   0  0  0  0  0  0  0  0  0  0  0  0
   -6.8470    1.6962    1.9981 H   0  0  0  0  0  0  0  0  0  0  0  0
   -7.5105   -1.2794    2.2904 H   0  0  0  0  0  0  0  0  0  0  0  0
   -8.1763    0.0618    3.2303 H   0  0  0  0  0  0  0  0  0  0  0  0
   -6.4598   -0.3497    3.3703 H   0  0  0  0  0  0  0  0  0  0  0  0
   -9.0538    1.1522    1.0782 H   0  0  0  0  0  0  0  0  0  0  0  0
   -8.3758   -0.1450    0.0848 H   0  0  0  0  0  0  0  0  0  0  0  0
   -7.9300    1.5375   -0.2354 H   0  0  0  0  0  0  0  0  0  0  0  0
   -4.6992    2.2036    1.2970 H   0  0  0  0  0  0  0  0  0  0  0  0
   -2.6077    1.6355    0.1454 H   0  0  0  0  0  0  0  0  0  0  0  0
   -3.7789   -0.7132   -3.4452 H   0  0  0  0  0  0  0  0  0  0  0  0
   -2.5476   -1.3823   -4.5131 H   0  0  0  0  0  0  0  0  0  0  0  0
   -3.3500   -2.4334   -3.3342 H   0  0  0  0  0  0  0  0  0  0  0  0
    0.0856    0.1219    0.9366 H   0  0  0  0  0  0  0  0  0  0  0  0
  1  2  1  0
  2  3  1  0
  2  4  2  3
  4  5  1  0
  5  6  1  0
  6  7  1  0
  7  8  1  0
  8  9  1  0
  9 10  1  0
 10 11  2  0
 11 12  1  0
 11 13  1  0
 13 14  1  0
 14 15  2  0
 15 16  1  0
 16 17  1  0
 17 18  2  0
 18 19  1  0
 19 20  2  0
 20 21  1  0
 21 22  1  0
 21 23  1  0
 20 24  1  0
 24 25  2  0
 16 26  2  0
 26 27  1  0
 26 28  1  0
 13 29  1  0
 29 30  1  0
  8  4  1  0
 29  9  2  0
 10  5  1  0
 28 14  1  0
 25 17  1  0
  1 31  1  0
  1 32  1  0
  1 33  1  0
  3 34  1  0
  3 35  1  0
  3 36  1  0
  5 37  1  0
  6 38  1  0
  6 39  1  0
  7 40  1  0
  7 41  1  0
  8 42  1  0
 12 43  1  0
 18 44  1  0
 19 45  1  0
 21 46  1  0
 22 47  1  0
 22 48  1  0
 22 49  1  0
 23 50  1  0
 23 51  1  0
 23 52  1  0
 24 53  1  0
 25 54  1  0
 27 55  1  0
 27 56  1  0
 27 57  1  0
 30 58  1  0
M  END
$$$$
