
     RDKit          3D

 38 39  0  0  0  0  0  0  0  0999 V2000
    0.1503    1.8770    0.6865 C   0  0  0  0  0  0  0  0  0  0  0  0
   -0.2992    0.4908    0.6744 N   0  0  0  0  0  0  0  0  0  0  0  0
   -1.7385    0.2595    0.8239 C   0  0  0  0  0  0  0  0  0  0  0  0
   -2.4615    0.2460   -0.5226 C   0  0  0  0  0  0  0  0  0  0  0  0
   -3.9313   -0.0169   -0.3382 C   0  0  0  0  0  0  0  0  0  0  0  0
   -4.4268   -1.3181   -0.3796 C   0  0  0  0  0  0  0  0  0  0  0  0
   -5.7894   -1.5236   -0.1844 C   0  0  0  0  0  0  0  0  0  0  0  0
   -6.6157   -0.4319    0.0502 C   0  0  0  0  0  0  0  0  0  0  0  0
   -6.0409    0.8274    0.0831 C   0  0  0  0  0  0  0  0  0  0  0  0
   -4.7222    1.0585   -0.1015 N   0  0  0  0  0  0  0  0  0  0  0  0
    0.4989   -0.6038    0.3450 C   0  0  0  0  0  0  0  0  0  0  0  0
    0.0928   -1.7637    0.3363 O   0  0  0  0  0  0  0  0  0  0  0  0
    1.9092   -0.3766   -0.0278 C   0  0  0  0  0  0  0  0  0  0  0  0
    2.9175   -0.9116    0.7763 C   0  0  0  0  0  0  0  0  0  0  0  0
    4.2601   -0.7274    0.4274 C   0  0  0  0  0  0  0  0  0  0  0  0
    4.5943   -0.0217   -0.7318 C   0  0  0  0  0  0  0  0  0  0  0  0
    5.8544    0.2338   -1.1915 O   0  0  0  0  0  0  0  0  0  0  0  0
    6.9485   -0.2351   -0.4218 C   0  0  0  0  0  0  0  0  0  0  0  0
    8.0963    0.1311   -1.0341 F   0  0  0  0  0  0  0  0  0  0  0  0
    6.9352   -1.5814   -0.3247 F   0  0  0  0  0  0  0  0  0  0  0  0
    6.9420    0.3078    0.8145 F   0  0  0  0  0  0  0  0  0  0  0  0
    3.5721    0.4888   -1.5430 C   0  0  0  0  0  0  0  0  0  0  0  0
    2.2305    0.3087   -1.2007 C   0  0  0  0  0  0  0  0  0  0  0  0
    1.2270    1.9510    0.8525 H   0  0  0  0  0  0  0  0  0  0  0  0
   -0.3529    2.4143    1.4953 H   0  0  0  0  0  0  0  0  0  0  0  0
   -0.1044    2.3373   -0.2721 H   0  0  0  0  0  0  0  0  0  0  0  0
   -2.1523    1.0270    1.4892 H   0  0  0  0  0  0  0  0  0  0  0  0
   -1.8850   -0.7020    1.3325 H   0  0  0  0  0  0  0  0  0  0  0  0
   -2.0276   -0.5062   -1.1927 H   0  0  0  0  0  0  0  0  0  0  0  0
   -2.3312    1.2109   -1.0282 H   0  0  0  0  0  0  0  0  0  0  0  0
   -3.7647   -2.1608   -0.5573 H   0  0  0  0  0  0  0  0  0  0  0  0
   -6.2008   -2.5285   -0.2137 H   0  0  0  0  0  0  0  0  0  0  0  0
   -7.6808   -0.5588    0.2060 H   0  0  0  0  0  0  0  0  0  0  0  0
   -6.6438    1.7124    0.2657 H   0  0  0  0  0  0  0  0  0  0  0  0
    2.6586   -1.4741    1.6708 H   0  0  0  0  0  0  0  0  0  0  0  0
    5.0117   -1.1568    1.0841 H   0  0  0  0  0  0  0  0  0  0  0  0
    3.8228    1.0256   -2.4558 H   0  0  0  0  0  0  0  0  0  0  0  0
    1.4471    0.6911   -1.8494 H   0  0  0  0  0  0  0  0  0  0  0  0
  1  2  1  0
  2  3  1  0
  3  4  1  0
  4  5  1  0
  5  6  2  0
  6  7  1  0
  7  8  2  0
  8  9  1  0
  9 10  2  0
  2 11  1  0
 11 12  2  0
 11 13  1  0
 13 14  2  0
 14 15  1  0
 15 16  2  0
 16 17  1  0
 17 18  1  0
 18 19  1  0
 18 20  1  0
 18 21  1  0
 16 22  1  0
 22 23  2  0
 10  5  1  0
 23 13  1  0
  1 24  1  0
  1 25  1  0
  1 26  1  0
  3 27  1  0
  3 28  1  0
  4 29  1  0
  4 30  1  0
  6 31  1  0
  7 32  1  0
  8 33  1  0
  9 34  1  0
 14 35  1  0
 15 36  1  0
 22 37  1  0
 23 38  1  0
M  END
$$$$
