
     RDKit          3D

 35 36  0  0  0  0  0  0  0  0999 V2000
    3.1063    1.0686    1.0736 C   0  0  0  0  0  0  0  0  0  0  0  0
    2.4766    0.3214   -0.0204 N   0  0  0  0  0  0  0  0  0  0  0  0
    1.0356    0.1614    0.2478 C   0  0  0  0  0  0  0  0  0  0  0  0
    0.2496   -0.0630   -1.0521 C   0  0  0  0  0  0  0  0  0  0  0  0
   -1.2330   -0.3213   -0.7858 C   0  0  0  0  0  0  0  0  0  0  0  0
   -1.7883    0.7948   -0.0939 O   0  0  0  0  0  0  0  0  0  0  0  0
   -3.0940    0.7167    0.3112 C   0  0  0  0  0  0  0  0  0  0  0  0
   -3.9771   -0.3045   -0.0552 C   0  0  0  0  0  0  0  0  0  0  0  0
   -5.2989   -0.2940    0.4038 C   0  0  0  0  0  0  0  0  0  0  0  0
   -5.7435    0.7373    1.2278 C   0  0  0  0  0  0  0  0  0  0  0  0
   -7.3700    0.7407    1.7875 Cl  0  0  0  0  0  0  0  0  0  0  0  0
   -4.8816    1.7630    1.5997 C   0  0  0  0  0  0  0  0  0  0  0  0
   -3.5623    1.7513    1.1406 C   0  0  0  0  0  0  0  0  0  0  0  0
   -2.5244    3.0445    1.6357 Cl  0  0  0  0  0  0  0  0  0  0  0  0
    3.1421   -0.9785   -0.2128 C   0  0  0  0  0  0  0  0  0  0  0  0
    4.3328   -0.8314   -1.1149 C   0  0  0  0  0  0  0  0  0  0  0  0
    5.0218   -2.0503   -1.6733 C   0  0  0  0  0  0  0  0  0  0  0  0
    4.1273   -1.2612   -2.4692 O   0  0  0  0  0  0  0  0  0  0  0  0
    2.9885    0.5621    2.0386 H   0  0  0  0  0  0  0  0  0  0  0  0
    2.6682    2.0699    1.1550 H   0  0  0  0  0  0  0  0  0  0  0  0
    4.1758    1.2170    0.8921 H   0  0  0  0  0  0  0  0  0  0  0  0
    0.8579   -0.6533    0.9618 H   0  0  0  0  0  0  0  0  0  0  0  0
    0.6452    1.0764    0.7120 H   0  0  0  0  0  0  0  0  0  0  0  0
    0.3513    0.8307   -1.6810 H   0  0  0  0  0  0  0  0  0  0  0  0
    0.6502   -0.9092   -1.6200 H   0  0  0  0  0  0  0  0  0  0  0  0
   -1.3395   -1.2329   -0.1851 H   0  0  0  0  0  0  0  0  0  0  0  0
   -1.7412   -0.4524   -1.7484 H   0  0  0  0  0  0  0  0  0  0  0  0
   -3.6730   -1.1206   -0.7029 H   0  0  0  0  0  0  0  0  0  0  0  0
   -5.9760   -1.0931    0.1108 H   0  0  0  0  0  0  0  0  0  0  0  0
   -5.2310    2.5667    2.2417 H   0  0  0  0  0  0  0  0  0  0  0  0
    3.4519   -1.4110    0.7472 H   0  0  0  0  0  0  0  0  0  0  0  0
    2.4598   -1.7101   -0.6621 H   0  0  0  0  0  0  0  0  0  0  0  0
    4.9300    0.0526   -0.9426 H   0  0  0  0  0  0  0  0  0  0  0  0
    4.6843   -3.0323   -1.3677 H   0  0  0  0  0  0  0  0  0  0  0  0
    6.0785   -1.9835   -1.8994 H   0  0  0  0  0  0  0  0  0  0  0  0
  1  2  1  0
  2  3  1  0
  3  4  1  0
  4  5  1  0
  5  6  1  0
  6  7  1  0
  7  8  2  0
  8  9  1  0
  9 10  2  0
 10 11  1  0
 10 12  1  0
 12 13  2  0
 13 14  1  0
  2 15  1  0
 15 16  1  0
 16 17  1  0
 17 18  1  0
 13  7  1  0
 18 16  1  0
  1 19  1  0
  1 20  1  0
  1 21  1  0
  3 22  1  0
  3 23  1  0
  4 24  1  0
  4 25  1  0
  5 26  1  0
  5 27  1  0
  8 28  1  0
  9 29  1  0
 12 30  1  0
 15 31  1  0
 15 32  1  0
 16 33  1  0
 17 34  1  0
 17 35  1  0
M  END
$$$$
