
     RDKit          3D

 68 74  0  0  0  0  0  0  0  0999 V2000
   -4.7243   -2.9112   -4.4220 C   0  0  0  0  0  0  0  0  0  0  0  0
   -4.0225   -2.7665   -3.1028 C   0  0  0  0  0  0  0  0  0  0  0  0
   -4.3707   -3.5563   -1.9905 C   0  0  0  0  0  0  0  0  0  0  0  0
   -5.6197   -4.7508   -2.0931 Cl  0  0  0  0  0  0  0  0  0  0  0  0
   -3.7331   -3.4004   -0.7430 C   0  0  0  0  0  0  0  0  0  0  0  0
   -2.7287   -2.4469   -0.5665 C   0  0  0  0  0  0  0  0  0  0  0  0
   -2.3682   -1.6636   -1.6553 C   0  0  0  0  0  0  0  0  0  0  0  0
   -3.0234   -1.8213   -2.8900 C   0  0  0  0  0  0  0  0  0  0  0  0
   -2.5376   -0.8875   -3.8038 N   0  0  0  0  0  0  0  0  0  0  0  0
   -1.5696   -0.0574   -3.2372 C   0  0  0  0  0  0  0  0  0  0  0  0
   -1.0163    0.8540   -3.8348 O   0  0  0  0  0  0  0  0  0  0  0  0
   -1.3554   -0.5483   -1.7743 C   0  0  1  0  0  0  0  0  0  0  0  0
   -1.6744    0.4773   -0.7598 C   0  0  0  0  0  0  0  0  0  0  0  0
   -0.5375    0.8532   -0.0480 C   0  0  0  0  0  0  0  0  0  0  0  0
   -0.8804    1.8301    0.8517 C   0  0  0  0  0  0  0  0  0  0  0  0
   -0.1306    2.4732    1.7427 O   0  0  0  0  0  0  0  0  0  0  0  0
   -2.2735    2.0218    0.7440 N   0  0  0  0  0  0  0  0  0  0  0  0
   -3.0967    2.8145    1.6092 C   0  0  0  0  0  0  0  0  0  0  0  0
   -2.5843    3.9443    2.2577 C   0  0  0  0  0  0  0  0  0  0  0  0
   -3.3964    4.6964    3.1141 C   0  0  0  0  0  0  0  0  0  0  0  0
   -4.7203    4.3210    3.3363 C   0  0  0  0  0  0  0  0  0  0  0  0
   -5.2382    3.1956    2.7012 C   0  0  0  0  0  0  0  0  0  0  0  0
   -4.4316    2.4415    1.8442 C   0  0  0  0  0  0  0  0  0  0  0  0
   -2.7233    1.2561   -0.3517 C   0  0  0  0  0  0  0  0  0  0  0  0
   -3.9416    1.3391   -0.8872 O   0  0  0  0  0  0  0  0  0  0  0  0
    0.6596    0.1147   -0.5100 C   0  0  1  0  0  0  0  0  0  0  0  0
    1.4392   -0.5711    0.6294 C   0  0  0  0  0  0  0  0  0  0  0  0
    2.4067   -1.5491    0.1316 N   0  0  0  0  0  0  0  0  0  0  0  0
    3.6380   -1.7702    0.7117 C   0  0  0  0  0  0  0  0  0  0  0  0
    4.4441   -2.5957    0.2955 O   0  0  0  0  0  0  0  0  0  0  0  0
    3.8402   -0.9847    1.8007 O   0  0  0  0  0  0  0  0  0  0  0  0
    5.1211   -1.1004    2.4306 C   0  0  0  0  0  0  0  0  0  0  0  0
    6.0430   -0.0316    1.9001 C   0  0  0  0  0  0  0  0  0  0  0  0
    6.9426   -0.3234    0.8650 C   0  0  0  0  0  0  0  0  0  0  0  0
    7.7782    0.6708    0.3530 C   0  0  0  0  0  0  0  0  0  0  0  0
    7.7247    1.9648    0.8717 C   0  0  0  0  0  0  0  0  0  0  0  0
    6.8280    2.2685    1.8950 C   0  0  0  0  0  0  0  0  0  0  0  0
    5.9865    1.2766    2.4045 C   0  0  0  0  0  0  0  0  0  0  0  0
    2.0187   -2.3273   -1.0464 C   0  0  0  0  0  0  0  0  0  0  0  0
    0.5152   -2.2152   -1.3659 C   0  0  0  0  0  0  0  0  0  0  0  0
    0.0986   -0.8264   -1.5402 N   0  0  0  0  0  0  0  0  0  0  0  0
   -4.2343   -2.3439   -5.2182 H   0  0  0  0  0  0  0  0  0  0  0  0
   -4.7291   -3.9573   -4.7471 H   0  0  0  0  0  0  0  0  0  0  0  0
   -5.7541   -2.5514   -4.3430 H   0  0  0  0  0  0  0  0  0  0  0  0
   -4.0358   -4.0176    0.1021 H   0  0  0  0  0  0  0  0  0  0  0  0
   -2.2609   -2.3142    0.4044 H   0  0  0  0  0  0  0  0  0  0  0  0
   -2.8541   -0.7531   -4.7518 H   0  0  0  0  0  0  0  0  0  0  0  0
    0.7900    2.1729    1.6515 H   0  0  0  0  0  0  0  0  0  0  0  0
   -1.5643    4.2830    2.0956 H   0  0  0  0  0  0  0  0  0  0  0  0
   -2.9881    5.5737    3.6085 H   0  0  0  0  0  0  0  0  0  0  0  0
   -5.3449    4.9024    4.0094 H   0  0  0  0  0  0  0  0  0  0  0  0
   -6.2662    2.8938    2.8841 H   0  0  0  0  0  0  0  0  0  0  0  0
   -4.8535    1.5342    1.4187 H   0  0  0  0  0  0  0  0  0  0  0  0
   -4.3128    2.2137   -0.6679 H   0  0  0  0  0  0  0  0  0  0  0  0
    1.3301    0.8042   -1.0406 H   0  0  0  0  0  0  0  0  0  0  0  0
    1.9369    0.1900    1.2429 H   0  0  0  0  0  0  0  0  0  0  0  0
    0.7594   -1.1190    1.2963 H   0  0  0  0  0  0  0  0  0  0  0  0
    4.9696   -0.9487    3.5067 H   0  0  0  0  0  0  0  0  0  0  0  0
    5.5539   -2.1052    2.3295 H   0  0  0  0  0  0  0  0  0  0  0  0
    6.9864   -1.3264    0.4423 H   0  0  0  0  0  0  0  0  0  0  0  0
    8.4664    0.4355   -0.4563 H   0  0  0  0  0  0  0  0  0  0  0  0
    8.3766    2.7361    0.4648 H   0  0  0  0  0  0  0  0  0  0  0  0
    6.7791    3.2797    2.2914 H   0  0  0  0  0  0  0  0  0  0  0  0
    5.2837    1.5301    3.1956 H   0  0  0  0  0  0  0  0  0  0  0  0
    2.2823   -3.3792   -0.8790 H   0  0  0  0  0  0  0  0  0  0  0  0
    2.6195   -1.9672   -1.8930 H   0  0  0  0  0  0  0  0  0  0  0  0
    0.3047   -2.7879   -2.2765 H   0  0  0  0  0  0  0  0  0  0  0  0
   -0.0267   -2.6870   -0.5381 H   0  0  0  0  0  0  0  0  0  0  0  0
  1  2  1  0
  2  3  2  0
  3  4  1  0
  3  5  1  0
  5  6  2  0
  6  7  1  0
  7  8  2  0
  8  9  1  0
  9 10  1  0
 10 11  2  0
 10 12  1  0
 12 13  1  0
 13 14  1  0
 14 15  2  0
 15 16  1  0
 15 17  1  0
 17 18  1  0
 18 19  2  0
 19 20  1  0
 20 21  2  0
 21 22  1  0
 22 23  2  0
 17 24  1  0
 24 25  1  0
 14 26  1  0
 26 27  1  0
 27 28  1  0
 28 29  1  0
 29 30  2  0
 29 31  1  0
 31 32  1  0
 32 33  1  0
 33 34  2  0
 34 35  1  0
 35 36  2  0
 36 37  1  0
 37 38  2  0
 28 39  1  0
 39 40  1  0
 40 41  1  0
  8  2  1  0
 12 41  1  6
 12  7  1  0
 24 13  2  0
 41 26  1  0
 23 18  1  0
 38 33  1  0
  1 42  1  0
  1 43  1  0
  1 44  1  0
  5 45  1  0
  6 46  1  0
  9 47  1  0
 16 48  1  0
 19 49  1  0
 20 50  1  0
 21 51  1  0
 22 52  1  0
 23 53  1  0
 25 54  1  0
 26 55  1  6
 27 56  1  0
 27 57  1  0
 32 58  1  0
 32 59  1  0
 34 60  1  0
 35 61  1  0
 36 62  1  0
 37 63  1  0
 38 64  1  0
 39 65  1  0
 39 66  1  0
 40 67  1  0
 40 68  1  0
M  END
$$$$
