
     RDKit          3D

 67 72  0  0  0  0  0  0  0  0999 V2000
    3.6807    0.5489   -1.3052 O   0  0  0  0  0  0  0  0  0  0  0  0
    2.9535    0.8893   -0.3679 C   0  0  0  0  0  0  0  0  0  0  0  0
    3.5601    1.4694    0.9203 C   0  0  0  0  0  0  0  0  0  0  0  0
    3.8122    0.3677    1.9694 C   0  0  0  0  0  0  0  0  0  0  0  0
    4.9666   -0.5466    1.6365 C   0  0  0  0  0  0  0  0  0  0  0  0
    6.2892   -0.0923    1.7282 C   0  0  0  0  0  0  0  0  0  0  0  0
    7.3517   -0.9419    1.4153 C   0  0  0  0  0  0  0  0  0  0  0  0
    7.1035   -2.2520    1.0103 C   0  0  0  0  0  0  0  0  0  0  0  0
    5.7927   -2.7146    0.9198 C   0  0  0  0  0  0  0  0  0  0  0  0
    4.7296   -1.8670    1.2333 C   0  0  0  0  0  0  0  0  0  0  0  0
    2.6959    2.5140    1.4695 N   0  0  0  0  0  0  0  0  0  0  0  0
    1.3589    2.1404    1.5944 C   0  0  0  0  0  0  0  0  0  0  0  0
    0.7427    2.6854    2.6534 N   0  0  0  0  0  0  0  0  0  0  0  0
   -0.5549    2.4192    2.7695 C   0  0  0  0  0  0  0  0  0  0  0  0
   -1.2827    1.7017    1.9119 N   0  0  0  0  0  0  0  0  0  0  0  0
   -0.6504    1.1797    0.8339 C   0  0  0  0  0  0  0  0  0  0  0  0
   -1.4913    0.5881   -0.1353 N   0  0  0  0  0  0  0  0  0  0  0  0
   -2.6058   -0.1980    0.4642 C   0  0  0  0  0  0  0  0  0  0  0  0
   -3.9623    0.5408    0.4648 C   0  0  0  0  0  0  0  0  0  0  0  0
   -4.3485    0.9281   -0.9052 N   0  0  0  0  0  0  0  0  0  0  0  0
   -5.6662    1.1695   -1.2555 C   0  0  0  0  0  0  0  0  0  0  0  0
   -6.0778    1.1916   -2.5987 C   0  0  0  0  0  0  0  0  0  0  0  0
   -7.4086    1.4283   -2.9657 C   0  0  0  0  0  0  0  0  0  0  0  0
   -8.3709    1.6501   -1.9891 C   0  0  0  0  0  0  0  0  0  0  0  0
   -7.9992    1.6308   -0.6509 C   0  0  0  0  0  0  0  0  0  0  0  0
   -6.6659    1.3906   -0.2945 C   0  0  0  0  0  0  0  0  0  0  0  0
   -3.2422    1.2490   -1.8270 C   0  0  0  0  0  0  0  0  0  0  0  0
   -1.9712    1.6666   -1.0527 C   0  0  0  0  0  0  0  0  0  0  0  0
    0.7368    1.3105    0.6477 C   0  0  0  0  0  0  0  0  0  0  0  0
    1.5599    0.7001   -0.3755 N   0  0  0  0  0  0  0  0  0  0  0  0
    1.0593   -0.2073   -1.3983 C   0  0  0  0  0  0  0  0  0  0  0  0
    1.3214   -1.6657   -1.0644 C   0  0  0  0  0  0  0  0  0  0  0  0
    0.5963   -2.3234   -0.0614 C   0  0  0  0  0  0  0  0  0  0  0  0
    0.8531   -3.6628    0.2431 C   0  0  0  0  0  0  0  0  0  0  0  0
    1.8409   -4.3540   -0.4544 C   0  0  0  0  0  0  0  0  0  0  0  0
    2.2010   -6.1598   -0.0307 Br  0  0  0  0  0  0  0  0  0  0  0  0
    2.5735   -3.7188   -1.4530 C   0  0  0  0  0  0  0  0  0  0  0  0
    2.3151   -2.3796   -1.7540 C   0  0  0  0  0  0  0  0  0  0  0  0
    4.5028    1.9555    0.6417 H   0  0  0  0  0  0  0  0  0  0  0  0
    4.0227    0.8253    2.9458 H   0  0  0  0  0  0  0  0  0  0  0  0
    2.9076   -0.2356    2.1225 H   0  0  0  0  0  0  0  0  0  0  0  0
    6.5041    0.9257    2.0445 H   0  0  0  0  0  0  0  0  0  0  0  0
    8.3743   -0.5807    1.4859 H   0  0  0  0  0  0  0  0  0  0  0  0
    7.9310   -2.9118    0.7637 H   0  0  0  0  0  0  0  0  0  0  0  0
    5.5951   -3.7353    0.6030 H   0  0  0  0  0  0  0  0  0  0  0  0
    3.7138   -2.2468    1.1560 H   0  0  0  0  0  0  0  0  0  0  0  0
    2.9998    2.9590    2.3300 H   0  0  0  0  0  0  0  0  0  0  0  0
   -1.0705    2.8346    3.6283 H   0  0  0  0  0  0  0  0  0  0  0  0
   -2.3641   -0.5545    1.4739 H   0  0  0  0  0  0  0  0  0  0  0  0
   -2.7105   -1.1033   -0.1484 H   0  0  0  0  0  0  0  0  0  0  0  0
   -3.9147    1.4342    1.0982 H   0  0  0  0  0  0  0  0  0  0  0  0
   -4.7047   -0.1435    0.8928 H   0  0  0  0  0  0  0  0  0  0  0  0
   -5.3651    0.9960   -3.3949 H   0  0  0  0  0  0  0  0  0  0  0  0
   -7.6872    1.4313   -4.0160 H   0  0  0  0  0  0  0  0  0  0  0  0
   -9.4043    1.8343   -2.2688 H   0  0  0  0  0  0  0  0  0  0  0  0
   -8.7414    1.8054    0.1233 H   0  0  0  0  0  0  0  0  0  0  0  0
   -6.4223    1.4046    0.7638 H   0  0  0  0  0  0  0  0  0  0  0  0
   -3.0283    0.3714   -2.4489 H   0  0  0  0  0  0  0  0  0  0  0  0
   -3.5090    2.0818   -2.4885 H   0  0  0  0  0  0  0  0  0  0  0  0
   -2.2009    2.5866   -0.4956 H   0  0  0  0  0  0  0  0  0  0  0  0
   -1.1806    1.9111   -1.7723 H   0  0  0  0  0  0  0  0  0  0  0  0
    0.0128   -0.0718   -1.6497 H   0  0  0  0  0  0  0  0  0  0  0  0
    1.5722    0.0346   -2.3394 H   0  0  0  0  0  0  0  0  0  0  0  0
   -0.1733   -1.7965    0.4944 H   0  0  0  0  0  0  0  0  0  0  0  0
    0.2802   -4.1535    1.0254 H   0  0  0  0  0  0  0  0  0  0  0  0
    3.3526   -4.2471   -1.9956 H   0  0  0  0  0  0  0  0  0  0  0  0
    2.9113   -1.8866   -2.5212 H   0  0  0  0  0  0  0  0  0  0  0  0
  1  2  2  0
  2  3  1  0
  3  4  1  0
  4  5  1  0
  5  6  2  0
  6  7  1  0
  7  8  2  0
  8  9  1  0
  9 10  2  0
  3 11  1  0
 11 12  1  0
 12 13  2  0
 13 14  1  0
 14 15  2  0
 15 16  1  0
 16 17  1  0
 17 18  1  0
 18 19  1  0
 19 20  1  0
 20 21  1  0
 21 22  2  0
 22 23  1  0
 23 24  2  0
 24 25  1  0
 25 26  2  0
 20 27  1  0
 27 28  1  0
 16 29  2  0
 29 30  1  0
 30 31  1  0
 31 32  1  0
 32 33  2  0
 33 34  1  0
 34 35  2  0
 35 36  1  0
 35 37  1  0
 37 38  2  0
 30  2  1  0
 38 32  1  0
 10  5  1  0
 29 12  1  0
 28 17  1  0
 26 21  1  0
  3 39  1  0
  4 40  1  0
  4 41  1  0
  6 42  1  0
  7 43  1  0
  8 44  1  0
  9 45  1  0
 10 46  1  0
 11 47  1  0
 14 48  1  0
 18 49  1  0
 18 50  1  0
 19 51  1  0
 19 52  1  0
 22 53  1  0
 23 54  1  0
 24 55  1  0
 25 56  1  0
 26 57  1  0
 27 58  1  0
 27 59  1  0
 28 60  1  0
 28 61  1  0
 31 62  1  0
 31 63  1  0
 33 64  1  0
 34 65  1  0
 37 66  1  0
 38 67  1  0
M  END
$$$$
