
     RDKit          3D

 34 35  0  0  0  0  0  0  0  0999 V2000
   -4.2958   -0.6713    1.1934 O   0  0  0  0  0  0  0  0  0  0  0  0
   -3.8008    0.0449    0.3170 C   0  0  0  0  0  0  0  0  0  0  0  0
   -4.3150    1.4646    0.0441 C   0  0  0  0  0  0  0  0  0  0  0  0
   -6.0674    1.5621    0.3396 Cl  0  0  0  0  0  0  0  0  0  0  0  0
   -3.4491    2.6006    1.1023 Cl  0  0  0  0  0  0  0  0  0  0  0  0
   -2.7531   -0.4325   -0.4815 N   0  0  0  0  0  0  0  0  0  0  0  0
   -1.7306    0.4260   -1.0911 C   0  0  0  0  0  0  0  0  0  0  0  0
   -0.4639    0.4719   -0.2051 C   0  0  0  0  0  0  0  0  0  0  0  0
    0.0621   -0.8838    0.0819 N   0  0  0  0  0  0  0  0  0  0  0  0
    1.2257   -0.8314    0.9851 C   0  0  0  0  0  0  0  0  0  0  0  0
    2.4437   -0.1898    0.3546 C   0  0  0  0  0  0  0  0  0  0  0  0
    3.0316    0.9461    0.9295 C   0  0  0  0  0  0  0  0  0  0  0  0
    4.1598    1.5295    0.3495 C   0  0  0  0  0  0  0  0  0  0  0  0
    4.7126    0.9833   -0.8076 C   0  0  0  0  0  0  0  0  0  0  0  0
    4.1392   -0.1470   -1.3867 C   0  0  0  0  0  0  0  0  0  0  0  0
    3.0118   -0.7317   -0.8084 C   0  0  0  0  0  0  0  0  0  0  0  0
   -1.0004   -1.7318    0.6763 C   0  0  0  0  0  0  0  0  0  0  0  0
   -2.2529   -1.7847   -0.2203 C   0  0  0  0  0  0  0  0  0  0  0  0
   -4.1631    1.7503   -0.9986 H   0  0  0  0  0  0  0  0  0  0  0  0
   -2.0955    1.4404   -1.2573 H   0  0  0  0  0  0  0  0  0  0  0  0
   -1.4879    0.0006   -2.0725 H   0  0  0  0  0  0  0  0  0  0  0  0
   -0.7008    0.9893    0.7335 H   0  0  0  0  0  0  0  0  0  0  0  0
    0.2875    1.0687   -0.7337 H   0  0  0  0  0  0  0  0  0  0  0  0
    0.9651   -0.3193    1.9209 H   0  0  0  0  0  0  0  0  0  0  0  0
    1.5228   -1.8509    1.2663 H   0  0  0  0  0  0  0  0  0  0  0  0
    2.6145    1.3850    1.8328 H   0  0  0  0  0  0  0  0  0  0  0  0
    4.6087    2.4101    0.8017 H   0  0  0  0  0  0  0  0  0  0  0  0
    5.5912    1.4379   -1.2575 H   0  0  0  0  0  0  0  0  0  0  0  0
    4.5689   -0.5741   -2.2888 H   0  0  0  0  0  0  0  0  0  0  0  0
    2.5674   -1.6116   -1.2691 H   0  0  0  0  0  0  0  0  0  0  0  0
   -1.2795   -1.3508    1.6676 H   0  0  0  0  0  0  0  0  0  0  0  0
   -0.6257   -2.7542    0.8040 H   0  0  0  0  0  0  0  0  0  0  0  0
   -3.0238   -2.4081    0.2441 H   0  0  0  0  0  0  0  0  0  0  0  0
   -2.0071   -2.2385   -1.1882 H   0  0  0  0  0  0  0  0  0  0  0  0
  1  2  2  0
  2  3  1  0
  3  4  1  0
  3  5  1  0
  2  6  1  0
  6  7  1  0
  7  8  1  0
  8  9  1  0
  9 10  1  0
 10 11  1  0
 11 12  2  0
 12 13  1  0
 13 14  2  0
 14 15  1  0
 15 16  2  0
  9 17  1  0
 17 18  1  0
 18  6  1  0
 16 11  1  0
  3 19  1  0
  7 20  1  0
  7 21  1  0
  8 22  1  0
  8 23  1  0
 10 24  1  0
 10 25  1  0
 12 26  1  0
 13 27  1  0
 14 28  1  0
 15 29  1  0
 16 30  1  0
 17 31  1  0
 17 32  1  0
 18 33  1  0
 18 34  1  0
M  END
$$$$
