
     RDKit          3D

 43 45  0  0  0  0  0  0  0  0999 V2000
    7.3731   -1.8411   -1.9567 O   0  0  0  0  0  0  0  0  0  0  0  0
    7.9846   -1.2073   -1.1136 C   0  0  0  0  0  0  0  0  0  0  0  0
    9.3209   -1.3683   -0.9917 O   0  0  0  0  0  0  0  0  0  0  0  0
    7.4553   -0.1759   -0.1471 C   0  0  0  0  0  0  0  0  0  0  0  0
    5.9490   -0.1378   -0.0518 C   0  0  0  0  0  0  0  0  0  0  0  0
    5.1863    0.4867   -1.0448 C   0  0  0  0  0  0  0  0  0  0  0  0
    3.7908    0.5119   -0.9558 C   0  0  0  0  0  0  0  0  0  0  0  0
    3.1308   -0.0826    0.1262 C   0  0  0  0  0  0  0  0  0  0  0  0
    1.7216   -0.0206    0.1359 N   0  0  0  0  0  0  0  0  0  0  0  0
    0.8705   -0.4544    1.1359 C   0  0  0  0  0  0  0  0  0  0  0  0
    1.1836   -0.8999    2.2325 O   0  0  0  0  0  0  0  0  0  0  0  0
   -0.5781   -0.3112    0.8208 C   0  0  0  0  0  0  0  0  0  0  0  0
   -1.4549    0.0689    1.8398 C   0  0  0  0  0  0  0  0  0  0  0  0
   -2.8236    0.2120    1.5797 C   0  0  0  0  0  0  0  0  0  0  0  0
   -3.3335   -0.0363    0.3036 C   0  0  0  0  0  0  0  0  0  0  0  0
   -4.6965    0.0762   -0.0444 N   0  0  0  0  0  0  0  0  0  0  0  0
   -5.7497    0.5035    0.7564 C   0  0  0  0  0  0  0  0  0  0  0  0
   -5.6199    0.8895    1.9141 O   0  0  0  0  0  0  0  0  0  0  0  0
   -7.0492    0.4694    0.0933 C   0  0  0  0  0  0  0  0  0  0  0  0
   -7.4875    0.0161   -1.1421 C   0  0  0  0  0  0  0  0  0  0  0  0
   -8.8828    0.2607   -1.2041 C   0  0  0  0  0  0  0  0  0  0  0  0
   -9.2200    0.8451   -0.0090 C   0  0  0  0  0  0  0  0  0  0  0  0
   -8.1257    0.9745    0.7794 O   0  0  0  0  0  0  0  0  0  0  0  0
   -2.4507   -0.4403   -0.7090 C   0  0  0  0  0  0  0  0  0  0  0  0
   -1.0811   -0.5795   -0.4559 C   0  0  0  0  0  0  0  0  0  0  0  0
    3.8902   -0.7108    1.1126 C   0  0  0  0  0  0  0  0  0  0  0  0
    5.2871   -0.7405    1.0243 C   0  0  0  0  0  0  0  0  0  0  0  0
    9.5353   -2.0472   -1.6661 H   0  0  0  0  0  0  0  0  0  0  0  0
    7.8762   -0.3851    0.8439 H   0  0  0  0  0  0  0  0  0  0  0  0
    7.8221    0.8093   -0.4583 H   0  0  0  0  0  0  0  0  0  0  0  0
    5.6715    0.9505   -1.9009 H   0  0  0  0  0  0  0  0  0  0  0  0
    3.2321    1.0031   -1.7477 H   0  0  0  0  0  0  0  0  0  0  0  0
    1.3008    0.4574   -0.6495 H   0  0  0  0  0  0  0  0  0  0  0  0
   -1.0781    0.2568    2.8439 H   0  0  0  0  0  0  0  0  0  0  0  0
   -3.4609    0.5101    2.4069 H   0  0  0  0  0  0  0  0  0  0  0  0
   -4.9234   -0.1625   -0.9978 H   0  0  0  0  0  0  0  0  0  0  0  0
   -6.8898   -0.4451   -1.9145 H   0  0  0  0  0  0  0  0  0  0  0  0
   -9.5596    0.0356   -2.0166 H   0  0  0  0  0  0  0  0  0  0  0  0
  -10.1462    1.2075    0.4158 H   0  0  0  0  0  0  0  0  0  0  0  0
   -2.8157   -0.6613   -1.7092 H   0  0  0  0  0  0  0  0  0  0  0  0
   -0.4286   -0.9275   -1.2524 H   0  0  0  0  0  0  0  0  0  0  0  0
    3.4259   -1.1976    1.9646 H   0  0  0  0  0  0  0  0  0  0  0  0
    5.8479   -1.2435    1.8095 H   0  0  0  0  0  0  0  0  0  0  0  0
  1  2  2  0
  2  3  1  0
  2  4  1  0
  4  5  1  0
  5  6  2  0
  6  7  1  0
  7  8  2  0
  8  9  1  0
  9 10  1  0
 10 11  2  0
 10 12  1  0
 12 13  2  0
 13 14  1  0
 14 15  2  0
 15 16  1  0
 16 17  1  0
 17 18  2  0
 17 19  1  0
 19 20  2  0
 20 21  1  0
 21 22  2  0
 22 23  1  0
 15 24  1  0
 24 25  2  0
  8 26  1  0
 26 27  2  0
 27  5  1  0
 25 12  1  0
 23 19  1  0
  3 28  1  0
  4 29  1  0
  4 30  1  0
  6 31  1  0
  7 32  1  0
  9 33  1  0
 13 34  1  0
 14 35  1  0
 16 36  1  0
 20 37  1  0
 21 38  1  0
 22 39  1  0
 24 40  1  0
 25 41  1  0
 26 42  1  0
 27 43  1  0
M  END
$$$$
