
     RDKit          3D

 38 39  0  0  0  0  0  0  0  0999 V2000
    2.0762   -0.0909   -3.5511 O   0  0  0  0  0  0  0  0  0  0  0  0
    1.1211   -0.2915   -2.7984 C   0  0  0  0  0  0  0  0  0  0  0  0
   -0.2344    0.3946   -2.9989 C   0  0  0  0  0  0  0  0  0  0  0  0
   -0.8783    0.7919   -1.7818 O   0  0  0  0  0  0  0  0  0  0  0  0
   -1.8024   -0.0719   -1.2908 C   0  0  0  0  0  0  0  0  0  0  0  0
   -2.0405   -1.1803   -1.7583 O   0  0  0  0  0  0  0  0  0  0  0  0
   -2.4601    0.4710   -0.0693 C   0  0  0  0  0  0  0  0  0  0  0  0
   -3.4650   -0.3265    0.5058 C   0  0  0  0  0  0  0  0  0  0  0  0
   -4.1503    0.1025    1.6456 C   0  0  0  0  0  0  0  0  0  0  0  0
   -3.8376    1.3331    2.2149 C   0  0  0  0  0  0  0  0  0  0  0  0
   -4.5269    1.7114    3.3280 O   0  0  0  0  0  0  0  0  0  0  0  0
   -2.8527    2.1424    1.6628 C   0  0  0  0  0  0  0  0  0  0  0  0
   -2.1566    1.7057    0.5316 C   0  0  0  0  0  0  0  0  0  0  0  0
   -1.1895    2.5652    0.0874 O   0  0  0  0  0  0  0  0  0  0  0  0
    1.1916   -1.1806   -1.7446 N   0  0  0  0  0  0  0  0  0  0  0  0
    2.4641   -1.7277   -1.3153 C   0  0  0  0  0  0  0  0  0  0  0  0
    3.3001   -0.7094   -0.5155 C   0  0  0  0  0  0  0  0  0  0  0  0
    2.7420   -0.4482    0.8121 N   0  0  0  0  0  0  0  0  0  0  0  0
    2.9888   -1.2168    1.9279 C   0  0  0  0  0  0  0  0  0  0  0  0
    3.9283   -2.1993    1.9140 O   0  0  0  0  0  0  0  0  0  0  0  0
    2.2379   -0.9226    2.9928 C   0  0  0  0  0  0  0  0  0  0  0  0
    1.1480    0.3834    2.6556 S   0  0  0  0  0  0  0  0  0  0  0  0
    1.7188    0.4833    0.9815 C   0  0  0  0  0  0  0  0  0  0  0  0
    1.2216    1.2285    0.1495 O   0  0  0  0  0  0  0  0  0  0  0  0
   -0.0501    1.3188   -3.5651 H   0  0  0  0  0  0  0  0  0  0  0  0
   -0.8740   -0.2431   -3.6258 H   0  0  0  0  0  0  0  0  0  0  0  0
   -3.7285   -1.2875    0.0653 H   0  0  0  0  0  0  0  0  0  0  0  0
   -4.9258   -0.5189    2.0854 H   0  0  0  0  0  0  0  0  0  0  0  0
   -4.2552    2.6125    3.5829 H   0  0  0  0  0  0  0  0  0  0  0  0
   -2.5955    3.1022    2.1049 H   0  0  0  0  0  0  0  0  0  0  0  0
   -0.4668    2.0364   -0.3237 H   0  0  0  0  0  0  0  0  0  0  0  0
    0.4021   -1.2194   -1.0994 H   0  0  0  0  0  0  0  0  0  0  0  0
    2.2482   -2.6185   -0.7125 H   0  0  0  0  0  0  0  0  0  0  0  0
    3.0237   -2.0396   -2.2050 H   0  0  0  0  0  0  0  0  0  0  0  0
    4.3313   -1.0692   -0.4161 H   0  0  0  0  0  0  0  0  0  0  0  0
    3.3510    0.2476   -1.0533 H   0  0  0  0  0  0  0  0  0  0  0  0
    4.7073   -1.8465    1.4572 H   0  0  0  0  0  0  0  0  0  0  0  0
    2.2881   -1.4221    3.9515 H   0  0  0  0  0  0  0  0  0  0  0  0
  1  2  2  0
  2  3  1  0
  3  4  1  0
  4  5  1  0
  5  6  2  0
  5  7  1  0
  7  8  2  0
  8  9  1  0
  9 10  2  0
 10 11  1  0
 10 12  1  0
 12 13  2  0
 13 14  1  0
  2 15  1  0
 15 16  1  0
 16 17  1  0
 17 18  1  0
 18 19  1  0
 19 20  1  0
 19 21  2  0
 21 22  1  0
 22 23  1  0
 23 24  2  0
 13  7  1  0
 23 18  1  0
  3 25  1  0
  3 26  1  0
  8 27  1  0
  9 28  1  0
 11 29  1  0
 12 30  1  0
 14 31  1  0
 15 32  1  0
 16 33  1  0
 16 34  1  0
 17 35  1  0
 17 36  1  0
 20 37  1  0
 21 38  1  0
M  END
$$$$
