
     RDKit          3D

 61 66  0  0  0  0  0  0  0  0999 V2000
   10.4777    0.7440   -0.5597 Cl  0  0  0  0  0  0  0  0  0  0  0  0
    8.9169    0.1692   -0.0931 C   0  0  0  0  0  0  0  0  0  0  0  0
    7.9409    1.1192    0.2197 C   0  0  0  0  0  0  0  0  0  0  0  0
    6.6600    0.7139    0.6019 C   0  0  0  0  0  0  0  0  0  0  0  0
    6.3419   -0.6474    0.6795 C   0  0  0  0  0  0  0  0  0  0  0  0
    4.9513   -1.0888    1.0742 C   0  0  0  0  0  0  0  0  0  0  0  0
    4.0131   -1.1643   -0.1433 C   0  0  0  0  0  0  0  0  0  0  0  0
    2.6763   -1.6871    0.1864 N   0  0  0  0  0  0  0  0  0  0  0  0
    1.8648   -1.9137   -1.0346 C   0  0  0  0  0  0  0  0  0  0  0  0
    0.9092   -0.7603   -1.4115 C   0  0  0  0  0  0  0  0  0  0  0  0
   -0.0339   -0.4291   -0.3148 N   0  0  0  0  0  0  0  0  0  0  0  0
   -1.3718   -0.6027   -0.5545 C   0  0  0  0  0  0  0  0  0  0  0  0
   -2.0142   -1.7073   -1.0814 C   0  0  0  0  0  0  0  0  0  0  0  0
   -3.4036   -1.4803   -1.0119 C   0  0  0  0  0  0  0  0  0  0  0  0
   -3.5957   -0.2185   -0.4830 C   0  0  0  0  0  0  0  0  0  0  0  0
   -4.7976    0.5200   -0.1587 C   0  0  0  0  0  0  0  0  0  0  0  0
   -6.1385   -0.0578   -0.4253 C   0  0  0  0  0  0  0  0  0  0  0  0
   -7.0834   -0.0735    0.6066 C   0  0  0  0  0  0  0  0  0  0  0  0
   -8.3555   -0.5982    0.3759 C   0  0  0  0  0  0  0  0  0  0  0  0
   -8.6873   -1.0927   -0.8863 C   0  0  0  0  0  0  0  0  0  0  0  0
   -7.7529   -1.0564   -1.9226 C   0  0  0  0  0  0  0  0  0  0  0  0
   -6.4785   -0.5335   -1.6965 C   0  0  0  0  0  0  0  0  0  0  0  0
   -4.7319    1.6954    0.3920 N   0  0  0  0  0  0  0  0  0  0  0  0
   -3.4708    2.2825    0.6104 C   0  0  0  0  0  0  0  0  0  0  0  0
   -3.4447    3.5740    1.1454 C   0  0  0  0  0  0  0  0  0  0  0  0
   -2.2352    4.2362    1.3570 C   0  0  0  0  0  0  0  0  0  0  0  0
   -1.0360    3.6117    1.0235 C   0  0  0  0  0  0  0  0  0  0  0  0
   -1.0414    2.3210    0.4898 C   0  0  0  0  0  0  0  0  0  0  0  0
   -2.2539    1.6510    0.2985 C   0  0  0  0  0  0  0  0  0  0  0  0
   -2.3501    0.3362   -0.2249 N   0  0  0  0  0  0  0  0  0  0  0  0
    0.4187   -0.8905    1.0252 C   0  0  0  0  0  0  0  0  0  0  0  0
    1.9558   -0.8063    1.1389 C   0  0  0  0  0  0  0  0  0  0  0  0
    7.3238   -1.5963    0.3598 C   0  0  0  0  0  0  0  0  0  0  0  0
    8.6077   -1.1924   -0.0235 C   0  0  0  0  0  0  0  0  0  0  0  0
    9.7586   -2.4247   -0.4005 Cl  0  0  0  0  0  0  0  0  0  0  0  0
    8.1721    2.1804    0.1672 H   0  0  0  0  0  0  0  0  0  0  0  0
    5.9129    1.4688    0.8401 H   0  0  0  0  0  0  0  0  0  0  0  0
    4.5637   -0.3919    1.8272 H   0  0  0  0  0  0  0  0  0  0  0  0
    5.0073   -2.0677    1.5677 H   0  0  0  0  0  0  0  0  0  0  0  0
    4.4791   -1.8327   -0.8797 H   0  0  0  0  0  0  0  0  0  0  0  0
    3.9355   -0.1793   -0.6228 H   0  0  0  0  0  0  0  0  0  0  0  0
    1.2622   -2.8142   -0.8566 H   0  0  0  0  0  0  0  0  0  0  0  0
    2.5022   -2.1570   -1.8935 H   0  0  0  0  0  0  0  0  0  0  0  0
    1.4971    0.1402   -1.6296 H   0  0  0  0  0  0  0  0  0  0  0  0
    0.3805   -1.0134   -2.3390 H   0  0  0  0  0  0  0  0  0  0  0  0
   -1.5281   -2.6111   -1.4232 H   0  0  0  0  0  0  0  0  0  0  0  0
   -4.1762   -2.1810   -1.3004 H   0  0  0  0  0  0  0  0  0  0  0  0
   -6.8289    0.3224    1.5870 H   0  0  0  0  0  0  0  0  0  0  0  0
   -9.0890   -0.6151    1.1780 H   0  0  0  0  0  0  0  0  0  0  0  0
   -9.6808   -1.4967   -1.0655 H   0  0  0  0  0  0  0  0  0  0  0  0
   -8.0216   -1.4267   -2.9089 H   0  0  0  0  0  0  0  0  0  0  0  0
   -5.7666   -0.4832   -2.5162 H   0  0  0  0  0  0  0  0  0  0  0  0
   -4.3823    4.0669    1.3892 H   0  0  0  0  0  0  0  0  0  0  0  0
   -2.2326    5.2413    1.7695 H   0  0  0  0  0  0  0  0  0  0  0  0
   -0.0933    4.1323    1.1715 H   0  0  0  0  0  0  0  0  0  0  0  0
   -0.0913    1.8777    0.2173 H   0  0  0  0  0  0  0  0  0  0  0  0
   -0.0312   -0.2600    1.8014 H   0  0  0  0  0  0  0  0  0  0  0  0
    0.0917   -1.9230    1.2084 H   0  0  0  0  0  0  0  0  0  0  0  0
    2.2425    0.2429    0.9836 H   0  0  0  0  0  0  0  0  0  0  0  0
    2.2489   -1.0802    2.1586 H   0  0  0  0  0  0  0  0  0  0  0  0
    7.0866   -2.6575    0.4099 H   0  0  0  0  0  0  0  0  0  0  0  0
  1  2  1  0
  2  3  2  0
  3  4  1  0
  4  5  2  0
  5  6  1  0
  6  7  1  0
  7  8  1  0
  8  9  1  0
  9 10  1  0
 10 11  1  0
 11 12  1  0
 12 13  2  0
 13 14  1  0
 14 15  2  0
 15 16  1  0
 16 17  1  0
 17 18  2  0
 18 19  1  0
 19 20  2  0
 20 21  1  0
 21 22  2  0
 16 23  2  0
 23 24  1  0
 24 25  2  0
 25 26  1  0
 26 27  2  0
 27 28  1  0
 28 29  2  0
 29 30  1  0
 11 31  1  0
 31 32  1  0
  5 33  1  0
 33 34  2  0
 34 35  1  0
 34  2  1  0
 32  8  1  0
 30 12  1  0
 30 15  1  0
 22 17  1  0
 29 24  1  0
  3 36  1  0
  4 37  1  0
  6 38  1  0
  6 39  1  0
  7 40  1  0
  7 41  1  0
  9 42  1  0
  9 43  1  0
 10 44  1  0
 10 45  1  0
 13 46  1  0
 14 47  1  0
 18 48  1  0
 19 49  1  0
 20 50  1  0
 21 51  1  0
 22 52  1  0
 25 53  1  0
 26 54  1  0
 27 55  1  0
 28 56  1  0
 31 57  1  0
 31 58  1  0
 32 59  1  0
 32 60  1  0
 33 61  1  0
M  END
$$$$
