
     RDKit          3D

 47 50  0  0  0  0  0  0  0  0999 V2000
   -7.7103   -1.8457   -2.0719 C   0  0  0  0  0  0  0  0  0  0  0  0
   -6.8083   -1.7498   -0.9687 O   0  0  0  0  0  0  0  0  0  0  0  0
   -5.8421   -0.8120   -1.1299 C   0  0  0  0  0  0  0  0  0  0  0  0
   -5.7042   -0.0862   -2.1027 O   0  0  0  0  0  0  0  0  0  0  0  0
   -4.9441   -0.7608    0.0570 C   0  0  0  0  0  0  0  0  0  0  0  0
   -5.1278   -1.5916    1.1668 C   0  0  0  0  0  0  0  0  0  0  0  0
   -4.2720   -1.4840    2.2614 C   0  0  0  0  0  0  0  0  0  0  0  0
   -3.2283   -0.5559    2.2471 C   0  0  0  0  0  0  0  0  0  0  0  0
   -3.0151    0.2811    1.1345 C   0  0  0  0  0  0  0  0  0  0  0  0
   -1.9357    1.2154    1.1804 N   0  0  0  0  0  0  0  0  0  0  0  0
   -1.2451    1.3893    2.3458 N   0  0  0  0  0  0  0  0  0  0  0  0
   -0.3678    2.3545    2.1354 N   0  0  0  0  0  0  0  0  0  0  0  0
   -0.4188    2.7872    0.8461 N   0  0  0  0  0  0  0  0  0  0  0  0
   -1.3531    2.0731    0.2516 C   0  0  0  0  0  0  0  0  0  0  0  0
   -1.6741    2.1697   -1.4457 S   0  0  0  0  0  0  0  0  0  0  0  0
   -0.1199    2.8557   -2.0802 C   0  0  0  0  0  0  0  0  0  0  0  0
    1.0036    1.8356   -1.9822 C   0  0  0  0  0  0  0  0  0  0  0  0
    1.1637    0.9998   -2.8667 O   0  0  0  0  0  0  0  0  0  0  0  0
    1.7506    1.9777   -0.8332 N   0  0  0  0  0  0  0  0  0  0  0  0
    2.8244    1.1848   -0.5432 C   0  0  0  0  0  0  0  0  0  0  0  0
    3.3948    0.2529   -1.2633 N   0  0  0  0  0  0  0  0  0  0  0  0
    4.4673   -0.2582   -0.5665 C   0  0  0  0  0  0  0  0  0  0  0  0
    4.6856    0.3034    0.6769 C   0  0  0  0  0  0  0  0  0  0  0  0
    3.5159    1.4982    0.9940 S   0  0  0  0  0  0  0  0  0  0  0  0
    5.8010   -0.0516    1.5991 C   0  0  0  0  0  0  0  0  0  0  0  0
    6.4403   -1.3841    1.1648 C   0  0  0  0  0  0  0  0  0  0  0  0
    6.6444   -1.4625   -0.3599 C   0  0  0  0  0  0  0  0  0  0  0  0
    5.3108   -1.3537   -1.1231 C   0  0  0  0  0  0  0  0  0  0  0  0
   -3.8890    0.1733    0.0464 C   0  0  0  0  0  0  0  0  0  0  0  0
   -8.4298   -2.6400   -1.8528 H   0  0  0  0  0  0  0  0  0  0  0  0
   -7.1715   -2.1088   -2.9877 H   0  0  0  0  0  0  0  0  0  0  0  0
   -8.2561   -0.9077   -2.1992 H   0  0  0  0  0  0  0  0  0  0  0  0
   -5.9367   -2.3182    1.1982 H   0  0  0  0  0  0  0  0  0  0  0  0
   -4.4183   -2.1241    3.1298 H   0  0  0  0  0  0  0  0  0  0  0  0
   -2.5842   -0.5069    3.1244 H   0  0  0  0  0  0  0  0  0  0  0  0
    0.1466    3.7873   -1.5687 H   0  0  0  0  0  0  0  0  0  0  0  0
   -0.2552    3.1046   -3.1384 H   0  0  0  0  0  0  0  0  0  0  0  0
    1.4475    2.5984   -0.0933 H   0  0  0  0  0  0  0  0  0  0  0  0
    5.4512   -0.1325    2.6340 H   0  0  0  0  0  0  0  0  0  0  0  0
    6.5594    0.7419    1.5654 H   0  0  0  0  0  0  0  0  0  0  0  0
    5.7956   -2.2153    1.4765 H   0  0  0  0  0  0  0  0  0  0  0  0
    7.3973   -1.5138    1.6792 H   0  0  0  0  0  0  0  0  0  0  0  0
    7.3122   -0.6483   -0.6735 H   0  0  0  0  0  0  0  0  0  0  0  0
    7.1408   -2.4032   -0.6219 H   0  0  0  0  0  0  0  0  0  0  0  0
    5.5053   -1.1824   -2.1877 H   0  0  0  0  0  0  0  0  0  0  0  0
    4.7618   -2.2985   -1.0329 H   0  0  0  0  0  0  0  0  0  0  0  0
   -3.8128    0.8117   -0.8257 H   0  0  0  0  0  0  0  0  0  0  0  0
  1  2  1  0
  2  3  1  0
  3  4  2  0
  3  5  1  0
  5  6  2  0
  6  7  1  0
  7  8  2  0
  8  9  1  0
  9 10  1  0
 10 11  1  0
 11 12  2  0
 12 13  1  0
 13 14  2  0
 14 15  1  0
 15 16  1  0
 16 17  1  0
 17 18  2  0
 17 19  1  0
 19 20  1  0
 20 21  2  0
 21 22  1  0
 22 23  2  0
 23 24  1  0
 23 25  1  0
 25 26  1  0
 26 27  1  0
 27 28  1  0
  9 29  2  0
 29  5  1  0
 14 10  1  0
 24 20  1  0
 28 22  1  0
  1 30  1  0
  1 31  1  0
  1 32  1  0
  6 33  1  0
  7 34  1  0
  8 35  1  0
 16 36  1  0
 16 37  1  0
 19 38  1  0
 25 39  1  0
 25 40  1  0
 26 41  1  0
 26 42  1  0
 27 43  1  0
 27 44  1  0
 28 45  1  0
 28 46  1  0
 29 47  1  0
M  END
$$$$
