
     RDKit          3D

 35 36  0  0  0  0  0  0  0  0999 V2000
   -5.9095    0.0599    0.0399 C   0  0  0  0  0  0  0  0  0  0  0  0
   -4.7893    1.0658    0.0842 C   0  0  0  0  0  0  0  0  0  0  0  0
   -4.9369    2.1594    0.6251 O   0  0  0  0  0  0  0  0  0  0  0  0
   -3.4765    0.7160   -0.5360 C   0  0  0  0  0  0  0  0  0  0  0  0
   -2.4812    1.7001   -0.5947 C   0  0  0  0  0  0  0  0  0  0  0  0
   -1.2357    1.4196   -1.1662 C   0  0  0  0  0  0  0  0  0  0  0  0
   -0.9676    0.1488   -1.6697 C   0  0  0  0  0  0  0  0  0  0  0  0
    0.2817   -0.1822   -2.2629 N   0  0  0  0  0  0  0  0  0  0  0  0
    1.7352    0.0881   -1.4469 S   0  0  0  0  0  6  0  0  0  0  0  0
    2.7324   -0.5743   -2.2641 O   0  0  0  0  0  0  0  0  0  0  0  0
    1.8380    1.4955   -1.1270 O   0  0  0  0  0  0  0  0  0  0  0  0
    1.5041   -0.8651    0.0655 C   0  0  0  0  0  0  0  0  0  0  0  0
    2.7679   -0.8090    0.8860 C   0  0  0  0  0  0  0  0  0  0  0  0
    2.9664    0.2236    1.8154 C   0  0  0  0  0  0  0  0  0  0  0  0
    4.1381    0.2788    2.5738 C   0  0  0  0  0  0  0  0  0  0  0  0
    5.1189   -0.6955    2.4058 C   0  0  0  0  0  0  0  0  0  0  0  0
    6.5610   -0.6285    3.3415 Cl  0  0  0  0  0  0  0  0  0  0  0  0
    4.9396   -1.7229    1.4826 C   0  0  0  0  0  0  0  0  0  0  0  0
    3.7683   -1.7794    0.7236 C   0  0  0  0  0  0  0  0  0  0  0  0
   -1.9614   -0.8321   -1.6291 C   0  0  0  0  0  0  0  0  0  0  0  0
   -3.2104   -0.5540   -1.0600 C   0  0  0  0  0  0  0  0  0  0  0  0
   -6.8170    0.5149    0.4491 H   0  0  0  0  0  0  0  0  0  0  0  0
   -5.6577   -0.8115    0.6496 H   0  0  0  0  0  0  0  0  0  0  0  0
   -6.1187   -0.2326   -0.9924 H   0  0  0  0  0  0  0  0  0  0  0  0
   -2.6722    2.6995   -0.2050 H   0  0  0  0  0  0  0  0  0  0  0  0
   -0.4985    2.2169   -1.2265 H   0  0  0  0  0  0  0  0  0  0  0  0
    0.3272   -0.9990   -2.8716 H   0  0  0  0  0  0  0  0  0  0  0  0
    1.2639   -1.8954   -0.2149 H   0  0  0  0  0  0  0  0  0  0  0  0
    0.6652   -0.4399    0.6239 H   0  0  0  0  0  0  0  0  0  0  0  0
    2.2161    1.0016    1.9490 H   0  0  0  0  0  0  0  0  0  0  0  0
    4.2812    1.0866    3.2867 H   0  0  0  0  0  0  0  0  0  0  0  0
    5.7092   -2.4776    1.3439 H   0  0  0  0  0  0  0  0  0  0  0  0
    3.6516   -2.5809   -0.0039 H   0  0  0  0  0  0  0  0  0  0  0  0
   -1.7787   -1.8239   -2.0353 H   0  0  0  0  0  0  0  0  0  0  0  0
   -3.9549   -1.3449   -1.0395 H   0  0  0  0  0  0  0  0  0  0  0  0
  1  2  1  0
  2  3  2  0
  2  4  1  0
  4  5  2  0
  5  6  1  0
  6  7  2  0
  7  8  1  0
  8  9  1  0
  9 10  2  0
  9 11  2  0
  9 12  1  0
 12 13  1  0
 13 14  2  0
 14 15  1  0
 15 16  2  0
 16 17  1  0
 16 18  1  0
 18 19  2  0
  7 20  1  0
 20 21  2  0
 21  4  1  0
 19 13  1  0
  1 22  1  0
  1 23  1  0
  1 24  1  0
  5 25  1  0
  6 26  1  0
  8 27  1  0
 12 28  1  0
 12 29  1  0
 14 30  1  0
 15 31  1  0
 18 32  1  0
 19 33  1  0
 20 34  1  0
 21 35  1  0
M  END
$$$$
