
     RDKit          3D

 27 27  0  0  0  0  0  0  0  0999 V2000
    3.0445   -1.2023   -1.7589 C   0  0  0  0  0  0  0  0  0  0  0  0
    2.0173   -0.4869   -0.9669 C   0  0  0  0  0  0  0  0  0  0  0  0
    2.1476    0.7062   -0.2447 C   0  0  0  0  0  0  0  0  0  0  0  0
    0.9061    0.9621    0.3224 C   0  0  0  0  0  0  0  0  0  0  0  0
    0.5558    2.0805    1.1529 C   0  0  0  0  0  0  0  0  0  0  0  0
   -0.5095    2.3595    1.6775 O   0  0  0  0  0  0  0  0  0  0  0  0
    1.6131    2.9033    1.3369 O   0  0  0  0  0  0  0  0  0  0  0  0
    0.1038   -0.0906   -0.0918 N   0  0  0  0  0  0  0  0  0  0  0  0
   -1.3223   -0.3806    0.1854 C   0  0  0  0  0  0  0  0  0  0  0  0
   -1.5571   -0.5999    1.6919 C   0  0  0  0  0  0  0  0  0  0  0  0
   -1.7796   -1.6977   -0.5103 C   0  0  0  0  0  0  0  0  0  0  0  0
   -2.2298    0.7281   -0.3803 C   0  0  0  0  0  0  0  0  0  0  0  0
    0.7810   -0.9698   -0.8751 N   0  0  0  0  0  0  0  0  0  0  0  0
    3.2023   -2.2104   -1.3624 H   0  0  0  0  0  0  0  0  0  0  0  0
    2.7339   -1.2857   -2.8053 H   0  0  0  0  0  0  0  0  0  0  0  0
    4.0030   -0.6741   -1.7316 H   0  0  0  0  0  0  0  0  0  0  0  0
    3.0339    1.3179   -0.1404 H   0  0  0  0  0  0  0  0  0  0  0  0
    1.2482    3.6094    1.9079 H   0  0  0  0  0  0  0  0  0  0  0  0
   -1.3637    0.2881    2.2937 H   0  0  0  0  0  0  0  0  0  0  0  0
   -2.5948   -0.8935    1.8895 H   0  0  0  0  0  0  0  0  0  0  0  0
   -0.9075   -1.3954    2.0766 H   0  0  0  0  0  0  0  0  0  0  0  0
   -2.8356   -1.9086   -0.3025 H   0  0  0  0  0  0  0  0  0  0  0  0
   -1.6694   -1.6381   -1.5998 H   0  0  0  0  0  0  0  0  0  0  0  0
   -1.2017   -2.5612   -0.1593 H   0  0  0  0  0  0  0  0  0  0  0  0
   -2.0537    0.8671   -1.4537 H   0  0  0  0  0  0  0  0  0  0  0  0
   -2.0773    1.6968    0.0955 H   0  0  0  0  0  0  0  0  0  0  0  0
   -3.2885    0.4758   -0.2471 H   0  0  0  0  0  0  0  0  0  0  0  0
  1  2  1  0
  2  3  1  0
  3  4  2  0
  4  5  1  0
  5  6  2  0
  5  7  1  0
  4  8  1  0
  8  9  1  0
  9 10  1  0
  9 11  1  0
  9 12  1  0
  8 13  1  0
 13  2  2  0
  1 14  1  0
  1 15  1  0
  1 16  1  0
  3 17  1  0
  7 18  1  0
 10 19  1  0
 10 20  1  0
 10 21  1  0
 11 22  1  0
 11 23  1  0
 11 24  1  0
 12 25  1  0
 12 26  1  0
 12 27  1  0
M  END
$$$$
