
     RDKit          3D

 60 63  0  0  0  0  0  0  0  0999 V2000
   -5.2550    1.5753    0.2707 C   0  0  0  0  0  0  0  0  0  0  0  0
   -3.9018    2.1868    0.4301 C   0  0  0  0  0  0  0  0  0  0  0  0
   -3.2933    2.1991    1.6756 C   0  0  0  0  0  0  0  0  0  0  0  0
   -2.0339    2.7720    1.7482 C   0  0  0  0  0  0  0  0  0  0  0  0
   -1.2973    2.8347    3.0547 C   0  0  0  0  0  0  0  0  0  0  0  0
   -1.4152    3.3002    0.6749 N   0  0  0  0  0  0  0  0  0  0  0  0
   -2.0858    3.2369   -0.4988 C   0  0  0  0  0  0  0  0  0  0  0  0
   -1.2947    3.9433   -1.9105 S   0  0  0  0  0  0  0  0  0  0  0  0
   -1.4522    2.5521   -3.0623 C   0  0  0  0  0  0  0  0  0  0  0  0
   -0.7376    1.3397   -2.5821 C   0  0  0  0  0  0  0  0  0  0  0  0
    0.5541    1.2628   -2.3447 N   0  0  0  0  0  0  0  0  0  0  0  0
    0.8457   -0.0015   -1.9208 N   0  0  0  0  0  0  0  0  0  0  0  0
   -0.2633   -0.6874   -1.9430 C   0  0  0  0  0  0  0  0  0  0  0  0
   -0.3935   -2.3419   -1.4699 S   0  0  0  0  0  0  0  0  0  0  0  0
    1.2956   -2.9225   -1.8523 C   0  0  0  0  0  0  0  0  0  0  0  0
    2.2667   -2.8290   -0.6786 C   0  0  0  0  0  0  0  0  0  0  0  0
    3.0152   -3.7757   -0.4464 O   0  0  0  0  0  0  0  0  0  0  0  0
    2.2694   -1.6265   -0.0117 N   0  0  0  0  0  0  0  0  0  0  0  0
    2.9995   -1.2501    1.1311 C   0  0  0  0  0  0  0  0  0  0  0  0
    2.7305    0.0071    1.6649 C   0  0  0  0  0  0  0  0  0  0  0  0
    3.3689    0.4383    2.8361 C   0  0  0  0  0  0  0  0  0  0  0  0
    4.3067   -0.3643    3.4887 C   0  0  0  0  0  0  0  0  0  0  0  0
    4.9762    0.1516    4.7371 C   0  0  0  0  0  0  0  0  0  0  0  0
    4.6301   -1.6088    2.9202 C   0  0  0  0  0  0  0  0  0  0  0  0
    5.6403   -2.5266    3.5518 C   0  0  0  0  0  0  0  0  0  0  0  0
    3.9495   -2.0500    1.7632 C   0  0  0  0  0  0  0  0  0  0  0  0
   -1.2998    0.1033   -2.3536 N   0  0  0  0  0  0  0  0  0  0  0  0
   -2.6900   -0.2742   -2.5179 C   0  0  0  0  0  0  0  0  0  0  0  0
   -2.9238   -0.8844   -3.8481 C   0  0  0  0  0  0  0  0  0  0  0  0
   -2.9004   -0.4102   -5.1473 C   0  0  0  0  0  0  0  0  0  0  0  0
   -3.2464   -1.5022   -5.9797 C   0  0  0  0  0  0  0  0  0  0  0  0
   -3.4416   -2.5727   -5.1476 C   0  0  0  0  0  0  0  0  0  0  0  0
   -3.2592   -2.2060   -3.8484 O   0  0  0  0  0  0  0  0  0  0  0  0
   -3.3073    2.6827   -0.6748 N   0  0  0  0  0  0  0  0  0  0  0  0
   -5.1956    0.5132    0.4711 H   0  0  0  0  0  0  0  0  0  0  0  0
   -5.9631    2.0450    0.9689 H   0  0  0  0  0  0  0  0  0  0  0  0
   -5.6317    1.7032   -0.7359 H   0  0  0  0  0  0  0  0  0  0  0  0
   -3.7706    1.7895    2.5539 H   0  0  0  0  0  0  0  0  0  0  0  0
   -0.3168    3.3098    2.9402 H   0  0  0  0  0  0  0  0  0  0  0  0
   -1.8740    3.3990    3.7856 H   0  0  0  0  0  0  0  0  0  0  0  0
   -1.1342    1.8259    3.4365 H   0  0  0  0  0  0  0  0  0  0  0  0
   -0.9960    2.8610   -4.0139 H   0  0  0  0  0  0  0  0  0  0  0  0
   -2.5101    2.3809   -3.2762 H   0  0  0  0  0  0  0  0  0  0  0  0
    1.2018   -3.9877   -2.1037 H   0  0  0  0  0  0  0  0  0  0  0  0
    1.7245   -2.4171   -2.7262 H   0  0  0  0  0  0  0  0  0  0  0  0
    1.6606   -0.9052   -0.4003 H   0  0  0  0  0  0  0  0  0  0  0  0
    2.0090    0.6657    1.1869 H   0  0  0  0  0  0  0  0  0  0  0  0
    3.1148    1.4017    3.2442 H   0  0  0  0  0  0  0  0  0  0  0  0
    5.1392   -0.6563    5.4527 H   0  0  0  0  0  0  0  0  0  0  0  0
    5.9330    0.6202    4.4987 H   0  0  0  0  0  0  0  0  0  0  0  0
    4.3496    0.8853    5.2414 H   0  0  0  0  0  0  0  0  0  0  0  0
    5.1446   -3.1560    4.3209 H   0  0  0  0  0  0  0  0  0  0  0  0
    6.4730   -1.9703    4.0194 H   0  0  0  0  0  0  0  0  0  0  0  0
    6.0831   -3.1853    2.7941 H   0  0  0  0  0  0  0  0  0  0  0  0
    4.1889   -3.0238    1.3699 H   0  0  0  0  0  0  0  0  0  0  0  0
   -3.3187    0.6081   -2.3986 H   0  0  0  0  0  0  0  0  0  0  0  0
   -2.9574   -0.9524   -1.7023 H   0  0  0  0  0  0  0  0  0  0  0  0
   -2.6687    0.5954   -5.4704 H   0  0  0  0  0  0  0  0  0  0  0  0
   -3.3388   -1.4946   -7.0563 H   0  0  0  0  0  0  0  0  0  0  0  0
   -3.7026   -3.6073   -5.3047 H   0  0  0  0  0  0  0  0  0  0  0  0
  1  2  1  0
  2  3  2  0
  3  4  1  0
  4  5  1  0
  4  6  2  0
  6  7  1  0
  7  8  1  0
  8  9  1  0
  9 10  1  0
 10 11  2  0
 11 12  1  0
 12 13  2  0
 13 14  1  0
 14 15  1  0
 15 16  1  0
 16 17  2  0
 16 18  1  0
 18 19  1  0
 19 20  2  0
 20 21  1  0
 21 22  2  0
 22 23  1  0
 22 24  1  0
 24 25  1  0
 24 26  2  0
 13 27  1  0
 27 28  1  0
 28 29  1  0
 29 30  2  0
 30 31  1  0
 31 32  2  0
 32 33  1  0
  7 34  2  0
 34  2  1  0
 27 10  1  0
 33 29  1  0
 26 19  1  0
  1 35  1  0
  1 36  1  0
  1 37  1  0
  3 38  1  0
  5 39  1  0
  5 40  1  0
  5 41  1  0
  9 42  1  0
  9 43  1  0
 15 44  1  0
 15 45  1  0
 18 46  1  0
 20 47  1  0
 21 48  1  0
 23 49  1  0
 23 50  1  0
 23 51  1  0
 25 52  1  0
 25 53  1  0
 25 54  1  0
 26 55  1  0
 28 56  1  0
 28 57  1  0
 30 58  1  0
 31 59  1  0
 32 60  1  0
M  END
$$$$
