
     RDKit          3D

 57 62  0  0  0  0  0  0  0  0999 V2000
    2.6786   -1.7197   -5.1702 C   0  0  0  0  0  0  0  0  0  0  0  0
    1.8012   -1.4108   -4.0937 O   0  0  0  0  0  0  0  0  0  0  0  0
    2.3326   -1.4420   -2.8319 C   0  0  0  0  0  0  0  0  0  0  0  0
    3.6563   -1.7953   -2.5072 C   0  0  0  0  0  0  0  0  0  0  0  0
    4.0944   -1.7981   -1.1768 C   0  0  0  0  0  0  0  0  0  0  0  0
    3.1854   -1.4444   -0.2032 C   0  0  0  0  0  0  0  0  0  0  0  0
    1.8700   -1.0874   -0.5028 C   0  0  0  0  0  0  0  0  0  0  0  0
    1.4319   -1.0867   -1.8197 C   0  0  0  0  0  0  0  0  0  0  0  0
    1.1501   -0.7766    0.7783 C   0  0  0  0  0  0  0  0  0  0  0  0
   -0.0466   -1.6437    1.0349 N   0  0  0  0  0  0  0  0  0  0  0  0
   -1.2375   -0.7783    1.3496 C   0  0  2  0  0  0  0  0  0  0  0  0
   -2.4787   -1.1454    0.5102 C   0  0  0  0  0  0  0  0  0  0  0  0
   -2.9941   -2.5478    0.7350 C   0  0  0  0  0  0  0  0  0  0  0  0
   -3.5356   -2.9213    1.9720 C   0  0  0  0  0  0  0  0  0  0  0  0
   -4.0124   -4.2179    2.1732 C   0  0  0  0  0  0  0  0  0  0  0  0
   -3.9563   -5.1518    1.1414 C   0  0  0  0  0  0  0  0  0  0  0  0
   -3.4257   -4.7896   -0.0937 C   0  0  0  0  0  0  0  0  0  0  0  0
   -2.9480   -3.4941   -0.2974 C   0  0  0  0  0  0  0  0  0  0  0  0
   -0.7461    0.5901    1.0595 C   0  0  0  0  0  0  0  0  0  0  0  0
    0.6071    0.5858    0.7341 C   0  0  0  0  0  0  0  0  0  0  0  0
    0.9970    1.8641    0.4400 C   0  0  0  0  0  0  0  0  0  0  0  0
    2.1703    2.2729   -0.0412 O   0  0  0  0  0  0  0  0  0  0  0  0
   -0.1100    2.7021    0.6834 N   0  0  0  0  0  0  0  0  0  0  0  0
   -0.1087    4.1324    0.6324 C   0  0  0  0  0  0  0  0  0  0  0  0
    1.0452    4.8497    0.9846 C   0  0  0  0  0  0  0  0  0  0  0  0
    1.0503    6.2461    0.9346 C   0  0  0  0  0  0  0  0  0  0  0  0
   -0.0936    6.9360    0.5392 C   0  0  0  0  0  0  0  0  0  0  0  0
   -1.2475    6.2316    0.2018 C   0  0  0  0  0  0  0  0  0  0  0  0
   -1.2595    4.8347    0.2525 C   0  0  0  0  0  0  0  0  0  0  0  0
   -1.2046    1.8815    1.0218 C   0  0  0  0  0  0  0  0  0  0  0  0
   -2.4065    2.3722    1.3148 O   0  0  0  0  0  0  0  0  0  0  0  0
    2.2559   -0.9872    1.8530 C   0  0  0  0  0  0  0  0  0  0  0  0
    2.1863   -0.8496    3.0662 O   0  0  0  0  0  0  0  0  0  0  0  0
    3.4059   -1.3909    1.1662 N   0  0  0  0  0  0  0  0  0  0  0  0
    3.0422   -2.7504   -5.0988 H   0  0  0  0  0  0  0  0  0  0  0  0
    2.1095   -1.6327   -6.1015 H   0  0  0  0  0  0  0  0  0  0  0  0
    3.5097   -1.0078   -5.2199 H   0  0  0  0  0  0  0  0  0  0  0  0
    4.3713   -2.0753   -3.2743 H   0  0  0  0  0  0  0  0  0  0  0  0
    5.1139   -2.0716   -0.9304 H   0  0  0  0  0  0  0  0  0  0  0  0
    0.4133   -0.8060   -2.0670 H   0  0  0  0  0  0  0  0  0  0  0  0
   -0.2409   -2.1673    0.1854 H   0  0  0  0  0  0  0  0  0  0  0  0
   -1.4494   -0.8722    2.4211 H   0  0  0  0  0  0  0  0  0  0  0  0
   -2.2614   -0.9986   -0.5573 H   0  0  0  0  0  0  0  0  0  0  0  0
   -3.2979   -0.4492    0.7340 H   0  0  0  0  0  0  0  0  0  0  0  0
   -3.5890   -2.2080    2.7903 H   0  0  0  0  0  0  0  0  0  0  0  0
   -4.4251   -4.5003    3.1376 H   0  0  0  0  0  0  0  0  0  0  0  0
   -4.3250   -6.1616    1.3007 H   0  0  0  0  0  0  0  0  0  0  0  0
   -3.3822   -5.5174   -0.8990 H   0  0  0  0  0  0  0  0  0  0  0  0
   -2.5385   -3.2315   -1.2693 H   0  0  0  0  0  0  0  0  0  0  0  0
    2.0360    3.1168   -0.5104 H   0  0  0  0  0  0  0  0  0  0  0  0
    1.9359    4.3469    1.3574 H   0  0  0  0  0  0  0  0  0  0  0  0
    1.9432    6.7958    1.2226 H   0  0  0  0  0  0  0  0  0  0  0  0
   -0.0905    8.0227    0.5061 H   0  0  0  0  0  0  0  0  0  0  0  0
   -2.1433    6.7686   -0.1015 H   0  0  0  0  0  0  0  0  0  0  0  0
   -2.1705    4.3181   -0.0379 H   0  0  0  0  0  0  0  0  0  0  0  0
   -2.9418    1.6528    1.6916 H   0  0  0  0  0  0  0  0  0  0  0  0
    4.2733   -1.5925    1.6391 H   0  0  0  0  0  0  0  0  0  0  0  0
  1  2  1  0
  2  3  1  0
  3  4  2  0
  4  5  1  0
  5  6  2  0
  6  7  1  0
  7  8  2  0
  7  9  1  0
  9 10  1  0
 10 11  1  0
 11 12  1  0
 12 13  1  0
 13 14  2  0
 14 15  1  0
 15 16  2  0
 16 17  1  0
 17 18  2  0
 11 19  1  0
 19 20  1  0
 20 21  2  0
 21 22  1  0
 21 23  1  0
 23 24  1  0
 24 25  2  0
 25 26  1  0
 26 27  2  0
 27 28  1  0
 28 29  2  0
 23 30  1  0
 30 31  1  0
  9 32  1  0
 32 33  2  0
 32 34  1  0
  8  3  1  0
 20  9  1  0
 29 24  1  0
 34  6  1  0
 18 13  1  0
 30 19  2  0
  1 35  1  0
  1 36  1  0
  1 37  1  0
  4 38  1  0
  5 39  1  0
  8 40  1  0
 10 41  1  0
 11 42  1  1
 12 43  1  0
 12 44  1  0
 14 45  1  0
 15 46  1  0
 16 47  1  0
 17 48  1  0
 18 49  1  0
 22 50  1  0
 25 51  1  0
 26 52  1  0
 27 53  1  0
 28 54  1  0
 29 55  1  0
 31 56  1  0
 34 57  1  0
M  END
$$$$
