
     RDKit          3D

 51 55  0  0  0  0  0  0  0  0999 V2000
   -8.4430   -3.3189   -1.3131 C   0  0  0  0  0  0  0  0  0  0  0  0
   -7.7020   -2.0205   -1.4433 C   0  0  0  0  0  0  0  0  0  0  0  0
   -7.9450   -1.1713   -2.5306 C   0  0  0  0  0  0  0  0  0  0  0  0
   -7.2437    0.0282   -2.6648 C   0  0  0  0  0  0  0  0  0  0  0  0
   -6.2765    0.3839   -1.7238 C   0  0  0  0  0  0  0  0  0  0  0  0
   -6.0005   -0.4716   -0.6477 C   0  0  0  0  0  0  0  0  0  0  0  0
   -4.9748   -0.1331    0.3805 C   0  0  0  0  0  0  0  0  0  0  0  0
   -5.1774   -0.4784    1.5367 O   0  0  0  0  0  0  0  0  0  0  0  0
   -3.8722    0.5304   -0.1063 N   0  0  0  0  0  0  0  0  0  0  0  0
   -2.8102    1.0040    0.6223 C   0  0  0  0  0  0  0  0  0  0  0  0
   -1.7967    1.6196    0.0529 N   0  0  0  0  0  0  0  0  0  0  0  0
   -0.8562    2.0351    0.9761 N   0  0  0  0  0  0  0  0  0  0  0  0
   -1.2001    1.7070    2.2006 C   0  0  0  0  0  0  0  0  0  0  0  0
   -0.1974    2.0632    3.5864 S   0  0  0  0  0  0  0  0  0  0  0  0
    0.6879    3.5349    2.9981 C   0  0  0  0  0  0  0  0  0  0  0  0
    1.8447    3.2621    2.0421 C   0  0  0  0  0  0  0  0  0  0  0  0
    2.2853    4.1865    1.3593 O   0  0  0  0  0  0  0  0  0  0  0  0
    2.3621    1.9821    2.0880 N   0  0  0  0  0  0  0  0  0  0  0  0
    3.4577    1.4564    1.3707 C   0  0  0  0  0  0  0  0  0  0  0  0
    4.2923    2.2280    0.5544 C   0  0  0  0  0  0  0  0  0  0  0  0
    5.3763    1.6582   -0.1391 C   0  0  0  0  0  0  0  0  0  0  0  0
    5.6198    0.2816   -0.0078 C   0  0  0  0  0  0  0  0  0  0  0  0
    4.7741   -0.4578    0.8089 C   0  0  0  0  0  0  0  0  0  0  0  0
    3.6969    0.0805    1.5136 C   0  0  0  0  0  0  0  0  0  0  0  0
    5.1440   -1.7685    0.8202 O   0  0  0  0  0  0  0  0  0  0  0  0
    6.2340   -1.8799    0.0115 C   0  0  0  0  0  0  0  0  0  0  0  0
    6.9249   -3.0600   -0.2519 C   0  0  0  0  0  0  0  0  0  0  0  0
    8.0265   -2.9641   -1.1083 C   0  0  0  0  0  0  0  0  0  0  0  0
    8.4034   -1.7393   -1.6651 C   0  0  0  0  0  0  0  0  0  0  0  0
    7.6862   -0.5668   -1.3838 C   0  0  0  0  0  0  0  0  0  0  0  0
    6.5747   -0.6417   -0.5234 C   0  0  0  0  0  0  0  0  0  0  0  0
   -2.6905    0.8766    2.3168 S   0  0  0  0  0  0  0  0  0  0  0  0
   -6.7208   -1.6654   -0.5063 C   0  0  0  0  0  0  0  0  0  0  0  0
   -8.5523   -3.6045   -0.2617 H   0  0  0  0  0  0  0  0  0  0  0  0
   -7.9031   -4.1111   -1.8405 H   0  0  0  0  0  0  0  0  0  0  0  0
   -9.4501   -3.2371   -1.7330 H   0  0  0  0  0  0  0  0  0  0  0  0
   -8.6932   -1.4351   -3.2754 H   0  0  0  0  0  0  0  0  0  0  0  0
   -7.4600    0.6898   -3.5026 H   0  0  0  0  0  0  0  0  0  0  0  0
   -5.7718    1.3397   -1.8320 H   0  0  0  0  0  0  0  0  0  0  0  0
   -3.7657    0.6694   -1.1020 H   0  0  0  0  0  0  0  0  0  0  0  0
   -0.0175    4.2192    2.5146 H   0  0  0  0  0  0  0  0  0  0  0  0
    1.1067    4.0444    3.8734 H   0  0  0  0  0  0  0  0  0  0  0  0
    1.8464    1.3222    2.6605 H   0  0  0  0  0  0  0  0  0  0  0  0
    4.1352    3.2957    0.4324 H   0  0  0  0  0  0  0  0  0  0  0  0
    6.0085    2.2805   -0.7658 H   0  0  0  0  0  0  0  0  0  0  0  0
    3.0817   -0.5604    2.1333 H   0  0  0  0  0  0  0  0  0  0  0  0
    6.6183   -4.0015    0.1867 H   0  0  0  0  0  0  0  0  0  0  0  0
    8.5972   -3.8582   -1.3451 H   0  0  0  0  0  0  0  0  0  0  0  0
    9.2645   -1.6918   -2.3284 H   0  0  0  0  0  0  0  0  0  0  0  0
    7.9857    0.3798   -1.8225 H   0  0  0  0  0  0  0  0  0  0  0  0
   -6.5146   -2.3220    0.3373 H   0  0  0  0  0  0  0  0  0  0  0  0
  1  2  1  0
  2  3  2  0
  3  4  1  0
  4  5  2  0
  5  6  1  0
  6  7  1  0
  7  8  2  0
  7  9  1  0
  9 10  1  0
 10 11  2  0
 11 12  1  0
 12 13  2  0
 13 14  1  0
 14 15  1  0
 15 16  1  0
 16 17  2  0
 16 18  1  0
 18 19  1  0
 19 20  2  0
 20 21  1  0
 21 22  2  0
 22 23  1  0
 23 24  2  0
 23 25  1  0
 25 26  1  0
 26 27  2  0
 27 28  1  0
 28 29  2  0
 29 30  1  0
 30 31  2  0
 13 32  1  0
  6 33  2  0
 33  2  1  0
 32 10  1  0
 24 19  1  0
 31 26  1  0
 31 22  1  0
  1 34  1  0
  1 35  1  0
  1 36  1  0
  3 37  1  0
  4 38  1  0
  5 39  1  0
  9 40  1  0
 15 41  1  0
 15 42  1  0
 18 43  1  0
 20 44  1  0
 21 45  1  0
 24 46  1  0
 27 47  1  0
 28 48  1  0
 29 49  1  0
 30 50  1  0
 33 51  1  0
M  END
$$$$
