
     RDKit          3D

 48 51  0  0  0  0  0  0  0  0999 V2000
    1.2466   -1.8752   -0.5315 C   0  0  0  0  0  0  0  0  0  0  0  0
    1.7794   -0.6916   -1.3247 C   0  0  0  0  0  0  0  0  0  0  0  0
    2.4185    0.2853   -0.4462 N   0  0  0  0  0  0  0  0  0  0  0  0
    1.9410    1.5358   -0.0365 C   0  0  0  0  0  0  0  0  0  0  0  0
    0.6906    2.0270    0.0549 C   0  0  0  0  0  0  0  0  0  0  0  0
   -0.5626    1.3337   -0.2357 C   0  0  0  0  0  0  0  0  0  0  0  0
   -1.1082    1.4912   -1.5089 C   0  0  0  0  0  0  0  0  0  0  0  0
   -2.3048    0.8802   -1.8295 C   0  0  0  0  0  0  0  0  0  0  0  0
   -2.9685    0.1311   -0.8659 C   0  0  0  0  0  0  0  0  0  0  0  0
   -4.1884   -0.4835   -1.1898 C   0  0  0  0  0  0  0  0  0  0  0  0
   -4.8897   -1.2376   -0.2456 C   0  0  0  0  0  0  0  0  0  0  0  0
   -6.2107   -1.8610   -0.5964 C   0  0  0  0  0  0  0  0  0  0  0  0
   -4.3748   -1.3480    1.0441 C   0  0  0  0  0  0  0  0  0  0  0  0
   -3.1584   -0.7413    1.3802 C   0  0  0  0  0  0  0  0  0  0  0  0
   -2.4185    0.0008    0.4393 C   0  0  0  0  0  0  0  0  0  0  0  0
   -1.2136    0.6059    0.7229 N   0  0  0  0  0  4  0  0  0  0  0  0
   -0.6004    0.4709    2.0820 C   0  0  0  0  0  0  0  0  0  0  0  0
   -1.1297    1.5604    2.9953 C   0  0  0  0  0  0  0  0  0  0  0  0
    3.2204    2.6371    0.5702 S   0  0  0  0  0  0  0  0  0  0  0  0
    4.4133    1.3409    0.2996 C   0  0  0  0  0  0  0  0  0  0  0  0
    5.7725    1.4262    0.5695 C   0  0  0  0  0  0  0  0  0  0  0  0
    6.5748    0.3225    0.2900 C   0  0  0  0  0  0  0  0  0  0  0  0
    6.0112   -0.8390   -0.2497 C   0  0  0  0  0  0  0  0  0  0  0  0
    4.6380   -0.9127   -0.5190 C   0  0  0  0  0  0  0  0  0  0  0  0
    3.8215    0.1827   -0.2492 C   0  0  0  0  0  0  0  0  0  0  0  0
    0.7501   -2.5849   -1.2006 H   0  0  0  0  0  0  0  0  0  0  0  0
    2.0498   -2.4063   -0.0116 H   0  0  0  0  0  0  0  0  0  0  0  0
    0.5221   -1.5587    0.2229 H   0  0  0  0  0  0  0  0  0  0  0  0
    0.9586   -0.2327   -1.8812 H   0  0  0  0  0  0  0  0  0  0  0  0
    2.4656   -1.0434   -2.1050 H   0  0  0  0  0  0  0  0  0  0  0  0
    0.5371    3.0447    0.4148 H   0  0  0  0  0  0  0  0  0  0  0  0
   -0.5945    2.0883   -2.2621 H   0  0  0  0  0  0  0  0  0  0  0  0
   -2.7151    1.0027   -2.8318 H   0  0  0  0  0  0  0  0  0  0  0  0
   -4.6086   -0.3761   -2.1910 H   0  0  0  0  0  0  0  0  0  0  0  0
   -6.3870   -2.7634   -0.0017 H   0  0  0  0  0  0  0  0  0  0  0  0
   -7.0209   -1.1496   -0.4094 H   0  0  0  0  0  0  0  0  0  0  0  0
   -6.2340   -2.1572   -1.6504 H   0  0  0  0  0  0  0  0  0  0  0  0
   -4.9215   -1.9092    1.8025 H   0  0  0  0  0  0  0  0  0  0  0  0
   -2.8369   -0.8709    2.4088 H   0  0  0  0  0  0  0  0  0  0  0  0
   -0.8060   -0.5304    2.4689 H   0  0  0  0  0  0  0  0  0  0  0  0
    0.4876    0.5179    2.0084 H   0  0  0  0  0  0  0  0  0  0  0  0
   -2.2173    1.5054    3.0997 H   0  0  0  0  0  0  0  0  0  0  0  0
   -0.6877    1.4656    3.9918 H   0  0  0  0  0  0  0  0  0  0  0  0
   -0.8863    2.5549    2.6090 H   0  0  0  0  0  0  0  0  0  0  0  0
    6.2063    2.3303    0.9853 H   0  0  0  0  0  0  0  0  0  0  0  0
    7.6435    0.3632    0.4905 H   0  0  0  0  0  0  0  0  0  0  0  0
    6.6496   -1.6949   -0.4620 H   0  0  0  0  0  0  0  0  0  0  0  0
    4.2459   -1.8369   -0.9290 H   0  0  0  0  0  0  0  0  0  0  0  0
  1  2  1  0
  2  3  1  0
  3  4  1  0
  4  5  2  3
  5  6  1  0
  6  7  2  0
  7  8  1  0
  8  9  2  0
  9 10  1  0
 10 11  2  0
 11 12  1  0
 11 13  1  0
 13 14  2  0
 14 15  1  0
 15 16  2  0
 16 17  1  0
 17 18  1  0
  4 19  1  0
 19 20  1  0
 20 21  2  0
 21 22  1  0
 22 23  2  0
 23 24  1  0
 24 25  2  0
 25  3  1  0
 16  6  1  0
 25 20  1  0
 15  9  1  0
  1 26  1  0
  1 27  1  0
  1 28  1  0
  2 29  1  0
  2 30  1  0
  5 31  1  0
  7 32  1  0
  8 33  1  0
 10 34  1  0
 12 35  1  0
 12 36  1  0
 12 37  1  0
 13 38  1  0
 14 39  1  0
 17 40  1  0
 17 41  1  0
 18 42  1  0
 18 43  1  0
 18 44  1  0
 21 45  1  0
 22 46  1  0
 23 47  1  0
 24 48  1  0
M  CHG  1  16   1
M  END
$$$$
