
     RDKit          3D

 74 75  0  0  0  0  0  0  0  0999 V2000
   -2.8520    4.9647   -1.1890 C   0  0  0  0  0  0  0  0  0  0  0  0
   -2.4511    3.6002   -1.2247 O   0  0  0  0  0  0  0  0  0  0  0  0
   -2.4354    2.9191   -0.0359 C   0  0  0  0  0  0  0  0  0  0  0  0
   -3.1964    3.3158    1.0696 C   0  0  0  0  0  0  0  0  0  0  0  0
   -3.1248    2.6144    2.2706 C   0  0  0  0  0  0  0  0  0  0  0  0
   -2.2857    1.5101    2.3855 C   0  0  0  0  0  0  0  0  0  0  0  0
   -1.5113    1.0740    1.2939 C   0  0  0  0  0  0  0  0  0  0  0  0
   -0.6012   -0.1582    1.3966 C   0  0  0  0  0  0  0  0  0  0  0  0
   -0.8756   -1.1131    2.5987 C   0  0  0  0  0  0  0  0  0  0  0  0
   -0.0548   -1.3507    3.4802 O   0  0  0  0  0  0  0  0  0  0  0  0
   -2.1354   -1.7007    2.5724 N   0  0  0  0  0  0  0  0  0  0  0  0
   -2.6623   -2.6149    3.5977 C   0  0  0  0  0  0  0  0  0  0  0  0
   -1.7864   -3.8714    3.7249 C   0  0  0  0  0  0  0  0  0  0  0  0
   -2.7737   -1.9053    4.9555 C   0  0  0  0  0  0  0  0  0  0  0  0
   -4.0719   -3.0547    3.1606 C   0  0  0  0  0  0  0  0  0  0  0  0
    0.8598    0.0784    1.1687 N   0  0  0  0  0  0  0  0  0  0  0  0
    1.5560   -0.6804    0.2062 C   0  0  0  0  0  0  0  0  0  0  0  0
    2.7471   -0.5016   -0.0628 O   0  0  0  0  0  0  0  0  0  0  0  0
    0.8152   -1.8023   -0.5177 C   0  0  0  0  0  0  0  0  0  0  0  0
    1.7519   -2.5924   -1.4316 C   0  0  0  0  0  0  0  0  0  0  0  0
    2.0324   -1.8387   -2.7217 C   0  0  0  0  0  0  0  0  0  0  0  0
    1.1494   -1.2130   -3.3038 O   0  0  0  0  0  0  0  0  0  0  0  0
    3.3200   -2.0139   -3.1714 N   0  0  0  0  0  0  0  0  0  0  0  0
    3.8408   -1.4714   -4.3246 C   0  0  0  0  0  0  0  0  0  0  0  0
    3.2250   -0.6347   -5.2817 C   0  0  0  0  0  0  0  0  0  0  0  0
    4.2031   -0.3969   -6.2143 C   0  0  0  0  0  0  0  0  0  0  0  0
    4.2703    0.3861   -7.4596 C   0  0  0  0  0  0  0  0  0  0  0  0
    5.3355   -1.0524   -5.8473 O   0  0  0  0  0  0  0  0  0  0  0  0
    5.1106   -1.7286   -4.6624 N   0  0  0  0  0  0  0  0  0  0  0  0
    1.6567    1.0573    2.0098 C   0  0  0  0  0  0  0  0  0  0  0  0
    2.8065    0.3295    2.7529 C   0  0  0  0  0  0  0  0  0  0  0  0
    2.2508    2.1677    1.1094 C   0  0  0  0  0  0  0  0  0  0  0  0
    0.8662    1.8007    3.1123 C   0  0  0  0  0  0  0  0  0  0  0  0
   -1.6246    1.7689    0.0628 C   0  0  0  0  0  0  0  0  0  0  0  0
   -0.8566    1.2535   -0.9528 O   0  0  0  0  0  0  0  0  0  0  0  0
   -1.3442    1.3793   -2.2829 C   0  0  0  0  0  0  0  0  0  0  0  0
   -2.3296    5.5204   -0.4029 H   0  0  0  0  0  0  0  0  0  0  0  0
   -2.5818    5.4161   -2.1482 H   0  0  0  0  0  0  0  0  0  0  0  0
   -3.9375    5.0464   -1.0776 H   0  0  0  0  0  0  0  0  0  0  0  0
   -3.8604    4.1732    1.0245 H   0  0  0  0  0  0  0  0  0  0  0  0
   -3.7139    2.9405    3.1245 H   0  0  0  0  0  0  0  0  0  0  0  0
   -2.2315    1.0110    3.3513 H   0  0  0  0  0  0  0  0  0  0  0  0
   -0.9699   -0.7676    0.5669 H   0  0  0  0  0  0  0  0  0  0  0  0
   -2.7896   -1.3596    1.8770 H   0  0  0  0  0  0  0  0  0  0  0  0
   -0.7907   -3.6423    4.1163 H   0  0  0  0  0  0  0  0  0  0  0  0
   -2.2395   -4.6013    4.4053 H   0  0  0  0  0  0  0  0  0  0  0  0
   -1.6515   -4.3563    2.7516 H   0  0  0  0  0  0  0  0  0  0  0  0
   -1.7944   -1.6058    5.3423 H   0  0  0  0  0  0  0  0  0  0  0  0
   -3.2369   -2.5569    5.7050 H   0  0  0  0  0  0  0  0  0  0  0  0
   -3.3830   -0.9976    4.8755 H   0  0  0  0  0  0  0  0  0  0  0  0
   -4.5207   -3.7420    3.8863 H   0  0  0  0  0  0  0  0  0  0  0  0
   -4.7405   -2.1915    3.0576 H   0  0  0  0  0  0  0  0  0  0  0  0
   -4.0433   -3.5616    2.1886 H   0  0  0  0  0  0  0  0  0  0  0  0
   -0.0080   -1.3851   -1.1036 H   0  0  0  0  0  0  0  0  0  0  0  0
    0.4182   -2.4908    0.2367 H   0  0  0  0  0  0  0  0  0  0  0  0
    2.6826   -2.8528   -0.9151 H   0  0  0  0  0  0  0  0  0  0  0  0
    1.2683   -3.5334   -1.7209 H   0  0  0  0  0  0  0  0  0  0  0  0
    3.9934   -2.5295   -2.6212 H   0  0  0  0  0  0  0  0  0  0  0  0
    2.2163   -0.2494   -5.2900 H   0  0  0  0  0  0  0  0  0  0  0  0
    3.2981    0.8270   -7.7018 H   0  0  0  0  0  0  0  0  0  0  0  0
    4.9975    1.1984   -7.3613 H   0  0  0  0  0  0  0  0  0  0  0  0
    4.5722   -0.2495   -8.2981 H   0  0  0  0  0  0  0  0  0  0  0  0
    2.4198   -0.4889    3.3690 H   0  0  0  0  0  0  0  0  0  0  0  0
    3.5541   -0.0966    2.0790 H   0  0  0  0  0  0  0  0  0  0  0  0
    3.3503    1.0158    3.4136 H   0  0  0  0  0  0  0  0  0  0  0  0
    2.7581    2.9334    1.7085 H   0  0  0  0  0  0  0  0  0  0  0  0
    1.4616    2.6639    0.5329 H   0  0  0  0  0  0  0  0  0  0  0  0
    2.9884    1.7920    0.3957 H   0  0  0  0  0  0  0  0  0  0  0  0
    1.5415    2.3830    3.7527 H   0  0  0  0  0  0  0  0  0  0  0  0
    0.3253    1.1220    3.7744 H   0  0  0  0  0  0  0  0  0  0  0  0
    0.1708    2.5307    2.6918 H   0  0  0  0  0  0  0  0  0  0  0  0
   -2.4312    1.2570   -2.3419 H   0  0  0  0  0  0  0  0  0  0  0  0
   -1.0197    2.3274   -2.7225 H   0  0  0  0  0  0  0  0  0  0  0  0
   -0.8967    0.5763   -2.8767 H   0  0  0  0  0  0  0  0  0  0  0  0
  1  2  1  0
  2  3  1  0
  3  4  2  0
  4  5  1  0
  5  6  2  0
  6  7  1  0
  7  8  1  0
  8  9  1  0
  9 10  2  0
  9 11  1  0
 11 12  1  0
 12 13  1  0
 12 14  1  0
 12 15  1  0
  8 16  1  0
 16 17  1  0
 17 18  2  0
 17 19  1  0
 19 20  1  0
 20 21  1  0
 21 22  2  0
 21 23  1  0
 23 24  1  0
 24 25  1  0
 25 26  2  0
 26 27  1  0
 26 28  1  0
 28 29  1  0
 16 30  1  0
 30 31  1  0
 30 32  1  0
 30 33  1  0
  7 34  2  0
 34 35  1  0
 35 36  1  0
 34  3  1  0
 29 24  2  0
  1 37  1  0
  1 38  1  0
  1 39  1  0
  4 40  1  0
  5 41  1  0
  6 42  1  0
  8 43  1  0
 11 44  1  0
 13 45  1  0
 13 46  1  0
 13 47  1  0
 14 48  1  0
 14 49  1  0
 14 50  1  0
 15 51  1  0
 15 52  1  0
 15 53  1  0
 19 54  1  0
 19 55  1  0
 20 56  1  0
 20 57  1  0
 23 58  1  0
 25 59  1  0
 27 60  1  0
 27 61  1  0
 27 62  1  0
 31 63  1  0
 31 64  1  0
 31 65  1  0
 32 66  1  0
 32 67  1  0
 32 68  1  0
 33 69  1  0
 33 70  1  0
 33 71  1  0
 36 72  1  0
 36 73  1  0
 36 74  1  0
M  END
$$$$
