
     RDKit          3D

 31 32  0  0  0  0  0  0  0  0999 V2000
    2.8807   -1.4464    3.2476 C   0  0  0  0  0  0  0  0  0  0  0  0
    3.5038   -2.5472    1.9470 S   0  0  0  0  0  0  0  0  0  0  0  0
    2.4975   -2.0006    0.5786 C   0  0  0  0  0  0  0  0  0  0  0  0
    1.7065   -2.9345   -0.0988 C   0  0  0  0  0  0  0  0  0  0  0  0
    0.8957   -2.5339   -1.1627 C   0  0  0  0  0  0  0  0  0  0  0  0
    0.8807   -1.1984   -1.5614 C   0  0  0  0  0  0  0  0  0  0  0  0
    1.6906   -0.2714   -0.9096 C   0  0  0  0  0  0  0  0  0  0  0  0
    1.6366    1.1008   -1.3009 N   0  0  0  0  0  0  0  0  0  0  0  0
    0.5354    2.0717   -0.4408 S   0  0  0  0  0  6  0  0  0  0  0  0
    0.6993    3.4256   -0.9291 O   0  0  0  0  0  0  0  0  0  0  0  0
    0.6548    1.7766    0.9740 O   0  0  0  0  0  0  0  0  0  0  0  0
   -1.1079    1.6576   -0.8512 C   0  0  0  0  0  0  0  0  0  0  0  0
   -2.2157    1.8592   -0.0495 C   0  0  0  0  0  0  0  0  0  0  0  0
   -3.2708    1.4024   -0.7848 N   0  0  0  0  0  0  0  0  0  0  0  0
   -4.6518    1.4046   -0.3736 C   0  0  0  0  0  0  0  0  0  0  0  0
   -2.7904    0.9500   -1.9799 C   0  0  0  0  0  0  0  0  0  0  0  0
   -1.4854    1.0860   -2.0582 N   0  0  0  0  0  0  0  0  0  0  0  0
    2.4963   -0.6667    0.1597 C   0  0  0  0  0  0  0  0  0  0  0  0
    3.1591   -0.4085    3.0477 H   0  0  0  0  0  0  0  0  0  0  0  0
    3.3203   -1.7412    4.2042 H   0  0  0  0  0  0  0  0  0  0  0  0
    1.7929   -1.5236    3.3274 H   0  0  0  0  0  0  0  0  0  0  0  0
    1.7084   -3.9797    0.2032 H   0  0  0  0  0  0  0  0  0  0  0  0
    0.2750   -3.2615   -1.6790 H   0  0  0  0  0  0  0  0  0  0  0  0
    0.2466   -0.8885   -2.3887 H   0  0  0  0  0  0  0  0  0  0  0  0
    2.5403    1.5716   -1.2922 H   0  0  0  0  0  0  0  0  0  0  0  0
   -2.3176    2.2773    0.9427 H   0  0  0  0  0  0  0  0  0  0  0  0
   -5.2933    1.3244   -1.2550 H   0  0  0  0  0  0  0  0  0  0  0  0
   -4.8112    0.5509    0.2895 H   0  0  0  0  0  0  0  0  0  0  0  0
   -4.8630    2.3403    0.1506 H   0  0  0  0  0  0  0  0  0  0  0  0
   -3.4266    0.5364   -2.7523 H   0  0  0  0  0  0  0  0  0  0  0  0
    3.1134    0.0666    0.6705 H   0  0  0  0  0  0  0  0  0  0  0  0
  1  2  1  0
  2  3  1  0
  3  4  2  0
  4  5  1  0
  5  6  2  0
  6  7  1  0
  7  8  1  0
  8  9  1  0
  9 10  2  0
  9 11  2  0
  9 12  1  0
 12 13  2  0
 13 14  1  0
 14 15  1  0
 14 16  1  0
 16 17  2  0
  7 18  2  0
 18  3  1  0
 17 12  1  0
  1 19  1  0
  1 20  1  0
  1 21  1  0
  4 22  1  0
  5 23  1  0
  6 24  1  0
  8 25  1  0
 13 26  1  0
 15 27  1  0
 15 28  1  0
 15 29  1  0
 16 30  1  0
 18 31  1  0
M  END
$$$$
