
     RDKit          3D

 52 53  0  0  0  0  0  0  0  0999 V2000
    6.6865   -0.6412   -1.3832 C   0  0  0  0  0  0  0  0  0  0  0  0
    6.8369   -0.5470    0.1294 C   0  0  0  0  0  0  0  0  0  0  0  0
    5.7875   -1.3499    0.9052 C   0  0  0  0  0  0  0  0  0  0  0  0
    4.4421   -0.8221    0.6844 N   0  0  0  0  0  0  0  0  0  0  0  0
    3.4436   -1.5459    1.4878 C   0  0  0  0  0  0  0  0  0  0  0  0
    2.0089   -1.1536    1.0855 C   0  0  0  0  0  0  0  0  0  0  0  0
    1.8056   -1.5500   -0.2819 O   0  0  0  0  0  0  0  0  0  0  0  0
    1.7513    0.3513    1.2498 C   0  0  0  0  0  0  0  0  0  0  0  0
    0.3275    0.5610    1.2157 O   0  0  0  0  0  0  0  0  0  0  0  0
   -0.0252    1.7057    0.5525 C   0  0  0  0  0  0  0  0  0  0  0  0
    0.4253    2.9549    0.9874 C   0  0  0  0  0  0  0  0  0  0  0  0
   -0.0034    4.1142    0.3388 C   0  0  0  0  0  0  0  0  0  0  0  0
   -0.8891    4.0302   -0.7367 C   0  0  0  0  0  0  0  0  0  0  0  0
   -1.3541    2.7850   -1.1656 C   0  0  0  0  0  0  0  0  0  0  0  0
   -0.9296    1.6212   -0.5130 C   0  0  0  0  0  0  0  0  0  0  0  0
   -1.4111    0.2933   -0.9663 C   0  0  0  0  0  0  0  0  0  0  0  0
   -0.6049   -0.6145   -1.1658 O   0  0  0  0  0  0  0  0  0  0  0  0
   -2.9011    0.0872   -1.1148 C   0  0  0  0  0  0  0  0  0  0  0  0
   -3.4348   -0.6523    0.1073 C   0  0  0  0  0  0  0  0  0  0  0  0
   -4.9240   -0.8673    0.0100 C   0  0  0  0  0  0  0  0  0  0  0  0
   -5.4352   -2.0573   -0.5258 C   0  0  0  0  0  0  0  0  0  0  0  0
   -6.8138   -2.2430   -0.6425 C   0  0  0  0  0  0  0  0  0  0  0  0
   -7.6923   -1.2406   -0.2304 C   0  0  0  0  0  0  0  0  0  0  0  0
   -7.1936   -0.0519    0.3008 C   0  0  0  0  0  0  0  0  0  0  0  0
   -5.8154    0.1352    0.4205 C   0  0  0  0  0  0  0  0  0  0  0  0
    7.5079   -0.1130   -1.8778 H   0  0  0  0  0  0  0  0  0  0  0  0
    5.7515   -0.1864   -1.7228 H   0  0  0  0  0  0  0  0  0  0  0  0
    6.7047   -1.6846   -1.7143 H   0  0  0  0  0  0  0  0  0  0  0  0
    7.8307   -0.9200    0.4043 H   0  0  0  0  0  0  0  0  0  0  0  0
    6.8013    0.5070    0.4324 H   0  0  0  0  0  0  0  0  0  0  0  0
    5.8400   -2.4039    0.6059 H   0  0  0  0  0  0  0  0  0  0  0  0
    6.0341   -1.2941    1.9724 H   0  0  0  0  0  0  0  0  0  0  0  0
    4.1763   -0.9550   -0.2974 H   0  0  0  0  0  0  0  0  0  0  0  0
    3.5613   -2.6249    1.3266 H   0  0  0  0  0  0  0  0  0  0  0  0
    3.5995   -1.3356    2.5518 H   0  0  0  0  0  0  0  0  0  0  0  0
    1.2956   -1.7268    1.6889 H   0  0  0  0  0  0  0  0  0  0  0  0
    0.9200   -1.2136   -0.5546 H   0  0  0  0  0  0  0  0  0  0  0  0
    2.1146    0.7010    2.2227 H   0  0  0  0  0  0  0  0  0  0  0  0
    2.2535    0.9052    0.4455 H   0  0  0  0  0  0  0  0  0  0  0  0
    1.0983    3.0343    1.8376 H   0  0  0  0  0  0  0  0  0  0  0  0
    0.3500    5.0860    0.6763 H   0  0  0  0  0  0  0  0  0  0  0  0
   -1.2190    4.9379   -1.2396 H   0  0  0  0  0  0  0  0  0  0  0  0
   -2.0321    2.7365   -2.0155 H   0  0  0  0  0  0  0  0  0  0  0  0
   -3.4198    1.0423   -1.2448 H   0  0  0  0  0  0  0  0  0  0  0  0
   -3.0729   -0.4834   -2.0354 H   0  0  0  0  0  0  0  0  0  0  0  0
   -2.9260   -1.6179    0.2260 H   0  0  0  0  0  0  0  0  0  0  0  0
   -3.2084   -0.0895    1.0222 H   0  0  0  0  0  0  0  0  0  0  0  0
   -4.7616   -2.8473   -0.8559 H   0  0  0  0  0  0  0  0  0  0  0  0
   -7.2020   -3.1701   -1.0570 H   0  0  0  0  0  0  0  0  0  0  0  0
   -8.7655   -1.3862   -0.3229 H   0  0  0  0  0  0  0  0  0  0  0  0
   -7.8785    0.7304    0.6210 H   0  0  0  0  0  0  0  0  0  0  0  0
   -5.4407    1.0689    0.8356 H   0  0  0  0  0  0  0  0  0  0  0  0
  1  2  1  0
  2  3  1  0
  3  4  1  0
  4  5  1  0
  5  6  1  0
  6  7  1  0
  6  8  1  0
  8  9  1  0
  9 10  1  0
 10 11  2  0
 11 12  1  0
 12 13  2  0
 13 14  1  0
 14 15  2  0
 15 16  1  0
 16 17  2  0
 16 18  1  0
 18 19  1  0
 19 20  1  0
 20 21  2  0
 21 22  1  0
 22 23  2  0
 23 24  1  0
 24 25  2  0
 15 10  1  0
 25 20  1  0
  1 26  1  0
  1 27  1  0
  1 28  1  0
  2 29  1  0
  2 30  1  0
  3 31  1  0
  3 32  1  0
  4 33  1  0
  5 34  1  0
  5 35  1  0
  6 36  1  0
  7 37  1  0
  8 38  1  0
  8 39  1  0
 11 40  1  0
 12 41  1  0
 13 42  1  0
 14 43  1  0
 18 44  1  0
 18 45  1  0
 19 46  1  0
 19 47  1  0
 21 48  1  0
 22 49  1  0
 23 50  1  0
 24 51  1  0
 25 52  1  0
M  END
$$$$
