
     RDKit          3D

 61 66  0  0  0  0  0  0  0  0999 V2000
    8.4613   -0.1234    0.4325 C   0  0  0  0  0  0  0  0  0  0  0  0
    7.4220   -0.2164    1.3562 C   0  0  0  0  0  0  0  0  0  0  0  0
    6.1729   -0.6946    0.9574 C   0  0  0  0  0  0  0  0  0  0  0  0
    5.9511   -1.0873   -0.3691 C   0  0  0  0  0  0  0  0  0  0  0  0
    4.5961   -1.5963   -0.8026 C   0  0  0  0  0  0  0  0  0  0  0  0
    3.5990   -0.4754   -1.1580 C   0  0  0  0  0  0  0  0  0  0  0  0
    3.0985    0.2829    0.0044 N   0  0  0  0  0  0  0  0  0  0  0  0
    2.1011   -0.4685    0.8029 C   0  0  0  0  0  0  0  0  0  0  0  0
    0.7035   -0.6263    0.1549 C   0  0  0  0  0  0  0  0  0  0  0  0
    0.1600    0.6906   -0.2707 N   0  0  0  0  0  0  0  0  0  0  0  0
   -1.1560    0.6764   -0.6626 C   0  0  0  0  0  0  0  0  0  0  0  0
   -1.6903    0.7228   -1.9374 C   0  0  0  0  0  0  0  0  0  0  0  0
   -3.0824    0.5130   -1.8382 C   0  0  0  0  0  0  0  0  0  0  0  0
   -3.3849    0.3533   -0.4999 C   0  0  0  0  0  0  0  0  0  0  0  0
   -4.6269    0.0723    0.1883 C   0  0  0  0  0  0  0  0  0  0  0  0
   -5.8482   -0.3126   -0.5671 C   0  0  0  0  0  0  0  0  0  0  0  0
   -5.8035   -1.2828   -1.5747 C   0  0  0  0  0  0  0  0  0  0  0  0
   -6.9709   -1.6330   -2.2558 C   0  0  0  0  0  0  0  0  0  0  0  0
   -8.1824   -1.0261   -1.9236 C   0  0  0  0  0  0  0  0  0  0  0  0
   -8.2333   -0.0751   -0.9043 C   0  0  0  0  0  0  0  0  0  0  0  0
   -7.0689    0.2779   -0.2209 C   0  0  0  0  0  0  0  0  0  0  0  0
   -4.7018    0.1529    1.4840 N   0  0  0  0  0  0  0  0  0  0  0  0
   -3.5552    0.5116    2.2197 C   0  0  0  0  0  0  0  0  0  0  0  0
   -3.6894    0.6443    3.6050 C   0  0  0  0  0  0  0  0  0  0  0  0
   -2.6034    1.0230    4.3954 C   0  0  0  0  0  0  0  0  0  0  0  0
   -1.3708    1.2849    3.8014 C   0  0  0  0  0  0  0  0  0  0  0  0
   -1.2165    1.1556    2.4196 C   0  0  0  0  0  0  0  0  0  0  0  0
   -2.2991    0.7473    1.6344 C   0  0  0  0  0  0  0  0  0  0  0  0
   -2.2302    0.5992    0.2265 N   0  0  0  0  0  0  0  0  0  0  0  0
    1.1150    1.4370   -1.1200 C   0  0  0  0  0  0  0  0  0  0  0  0
    2.4836    1.5658   -0.4127 C   0  0  0  0  0  0  0  0  0  0  0  0
    7.0021   -0.9841   -1.2913 C   0  0  0  0  0  0  0  0  0  0  0  0
    8.2513   -0.5059   -0.8910 C   0  0  0  0  0  0  0  0  0  0  0  0
    9.4328    0.2507    0.7434 H   0  0  0  0  0  0  0  0  0  0  0  0
    7.5808    0.0885    2.3870 H   0  0  0  0  0  0  0  0  0  0  0  0
    5.3657   -0.7490    1.6848 H   0  0  0  0  0  0  0  0  0  0  0  0
    4.1946   -2.2682   -0.0355 H   0  0  0  0  0  0  0  0  0  0  0  0
    4.7296   -2.2294   -1.6900 H   0  0  0  0  0  0  0  0  0  0  0  0
    2.7691   -0.9126   -1.7251 H   0  0  0  0  0  0  0  0  0  0  0  0
    4.1103    0.2110   -1.8461 H   0  0  0  0  0  0  0  0  0  0  0  0
    1.9780    0.0661    1.7544 H   0  0  0  0  0  0  0  0  0  0  0  0
    2.4863   -1.4558    1.0787 H   0  0  0  0  0  0  0  0  0  0  0  0
    0.0376   -1.0997    0.8863 H   0  0  0  0  0  0  0  0  0  0  0  0
    0.7609   -1.2985   -0.7102 H   0  0  0  0  0  0  0  0  0  0  0  0
   -1.1276    0.8308   -2.8543 H   0  0  0  0  0  0  0  0  0  0  0  0
   -3.7794    0.4618   -2.6644 H   0  0  0  0  0  0  0  0  0  0  0  0
   -4.8716   -1.7837   -1.8224 H   0  0  0  0  0  0  0  0  0  0  0  0
   -6.9379   -2.3860   -3.0393 H   0  0  0  0  0  0  0  0  0  0  0  0
   -9.0912   -1.3026   -2.4525 H   0  0  0  0  0  0  0  0  0  0  0  0
   -9.1797    0.3875   -0.6373 H   0  0  0  0  0  0  0  0  0  0  0  0
   -7.1124    1.0125    0.5799 H   0  0  0  0  0  0  0  0  0  0  0  0
   -4.6555    0.4555    4.0661 H   0  0  0  0  0  0  0  0  0  0  0  0
   -2.7254    1.1261    5.4703 H   0  0  0  0  0  0  0  0  0  0  0  0
   -0.5290    1.6015    4.4123 H   0  0  0  0  0  0  0  0  0  0  0  0
   -0.2554    1.4057    1.9848 H   0  0  0  0  0  0  0  0  0  0  0  0
    1.2399    0.9360   -2.0880 H   0  0  0  0  0  0  0  0  0  0  0  0
    0.7301    2.4464   -1.3113 H   0  0  0  0  0  0  0  0  0  0  0  0
    3.1771    2.1261   -1.0514 H   0  0  0  0  0  0  0  0  0  0  0  0
    2.3535    2.1810    0.4877 H   0  0  0  0  0  0  0  0  0  0  0  0
    6.8551   -1.2749   -2.3287 H   0  0  0  0  0  0  0  0  0  0  0  0
    9.0602   -0.4297   -1.6128 H   0  0  0  0  0  0  0  0  0  0  0  0
  1  2  2  0
  2  3  1  0
  3  4  2  0
  4  5  1  0
  5  6  1  0
  6  7  1  0
  7  8  1  0
  8  9  1  0
  9 10  1  0
 10 11  1  0
 11 12  2  0
 12 13  1  0
 13 14  2  0
 14 15  1  0
 15 16  1  0
 16 17  2  0
 17 18  1  0
 18 19  2  0
 19 20  1  0
 20 21  2  0
 15 22  2  0
 22 23  1  0
 23 24  2  0
 24 25  1  0
 25 26  2  0
 26 27  1  0
 27 28  2  0
 28 29  1  0
 10 30  1  0
 30 31  1  0
  4 32  1  0
 32 33  2  0
 33  1  1  0
 31  7  1  0
 29 11  1  0
 29 14  1  0
 21 16  1  0
 28 23  1  0
  1 34  1  0
  2 35  1  0
  3 36  1  0
  5 37  1  0
  5 38  1  0
  6 39  1  0
  6 40  1  0
  8 41  1  0
  8 42  1  0
  9 43  1  0
  9 44  1  0
 12 45  1  0
 13 46  1  0
 17 47  1  0
 18 48  1  0
 19 49  1  0
 20 50  1  0
 21 51  1  0
 24 52  1  0
 25 53  1  0
 26 54  1  0
 27 55  1  0
 30 56  1  0
 30 57  1  0
 31 58  1  0
 31 59  1  0
 32 60  1  0
 33 61  1  0
M  END
$$$$
