
     RDKit          3D

 51 55  0  0  0  0  0  0  0  0999 V2000
    8.1295    3.2144   -1.3426 Cl  0  0  0  0  0  0  0  0  0  0  0  0
    6.8903    2.0828   -0.9315 C   0  0  0  0  0  0  0  0  0  0  0  0
    5.8179    1.9425   -1.8168 C   0  0  0  0  0  0  0  0  0  0  0  0
    4.7863    1.0432   -1.5368 C   0  0  0  0  0  0  0  0  0  0  0  0
    4.8175    0.2704   -0.3693 C   0  0  0  0  0  0  0  0  0  0  0  0
    3.6934   -0.6906   -0.0552 C   0  0  0  0  0  0  0  0  0  0  0  0
    2.5335    0.0101    0.6725 C   0  0  0  0  0  0  0  0  0  0  0  0
    1.4792   -0.9201    1.1195 N   0  0  0  0  0  0  0  0  0  0  0  0
    0.7212   -1.4924   -0.0189 C   0  0  0  0  0  0  0  0  0  0  0  0
   -0.4442   -2.4021    0.4384 C   0  0  0  0  0  0  0  0  0  0  0  0
   -1.3718   -1.6648    1.3175 N   0  0  0  0  0  0  0  0  0  0  0  0
   -2.3884   -0.9157    0.7263 C   0  0  0  0  0  0  0  0  0  0  0  0
   -2.4245    0.3795    0.9140 N   0  0  0  0  0  0  0  0  0  0  0  0
   -3.4188    1.1671    0.3011 C   0  0  0  0  0  0  0  0  0  0  0  0
   -3.4020    2.5456    0.5219 C   0  0  0  0  0  0  0  0  0  0  0  0
   -4.3577    3.3750   -0.0711 C   0  0  0  0  0  0  0  0  0  0  0  0
   -5.3436    2.8302   -0.8947 C   0  0  0  0  0  0  0  0  0  0  0  0
   -5.3804    1.4552   -1.1290 C   0  0  0  0  0  0  0  0  0  0  0  0
   -4.4173    0.6385   -0.5293 C   0  0  0  0  0  0  0  0  0  0  0  0
   -4.3878   -0.7548   -0.7004 N   0  0  0  0  0  0  0  0  0  0  0  0
   -5.2302   -1.5677   -1.4215 C   0  0  0  0  0  0  0  0  0  0  0  0
   -4.8361   -2.8744   -1.2292 C   0  0  0  0  0  0  0  0  0  0  0  0
   -3.7092   -2.8506   -0.3754 C   0  0  0  0  0  0  0  0  0  0  0  0
   -3.4255   -1.5268   -0.0898 C   0  0  0  0  0  0  0  0  0  0  0  0
   -0.6482   -1.0918    2.4709 C   0  0  0  0  0  0  0  0  0  0  0  0
    0.5311   -0.2047    2.0149 C   0  0  0  0  0  0  0  0  0  0  0  0
    5.8933    0.4195    0.5184 C   0  0  0  0  0  0  0  0  0  0  0  0
    6.9280    1.3199    0.2398 C   0  0  0  0  0  0  0  0  0  0  0  0
    8.2172    1.4415    1.3841 Cl  0  0  0  0  0  0  0  0  0  0  0  0
    5.7786    2.5331   -2.7291 H   0  0  0  0  0  0  0  0  0  0  0  0
    3.9582    0.9498   -2.2374 H   0  0  0  0  0  0  0  0  0  0  0  0
    4.0807   -1.5142    0.5584 H   0  0  0  0  0  0  0  0  0  0  0  0
    3.3536   -1.1442   -0.9937 H   0  0  0  0  0  0  0  0  0  0  0  0
    2.9515    0.5129    1.5553 H   0  0  0  0  0  0  0  0  0  0  0  0
    2.1115    0.8005    0.0371 H   0  0  0  0  0  0  0  0  0  0  0  0
    1.3855   -2.1048   -0.6376 H   0  0  0  0  0  0  0  0  0  0  0  0
    0.3236   -0.6894   -0.6536 H   0  0  0  0  0  0  0  0  0  0  0  0
   -0.9508   -2.8000   -0.4461 H   0  0  0  0  0  0  0  0  0  0  0  0
   -0.0466   -3.2658    0.9863 H   0  0  0  0  0  0  0  0  0  0  0  0
   -2.6355    2.9735    1.1624 H   0  0  0  0  0  0  0  0  0  0  0  0
   -4.3316    4.4463    0.1119 H   0  0  0  0  0  0  0  0  0  0  0  0
   -6.0861    3.4795   -1.3525 H   0  0  0  0  0  0  0  0  0  0  0  0
   -6.1585    1.0540   -1.7697 H   0  0  0  0  0  0  0  0  0  0  0  0
   -6.0521   -1.1689   -1.9980 H   0  0  0  0  0  0  0  0  0  0  0  0
   -5.3172   -3.7486   -1.6490 H   0  0  0  0  0  0  0  0  0  0  0  0
   -3.1621   -3.7071   -0.0038 H   0  0  0  0  0  0  0  0  0  0  0  0
   -1.3283   -0.5208    3.1142 H   0  0  0  0  0  0  0  0  0  0  0  0
   -0.2659   -1.9165    3.0859 H   0  0  0  0  0  0  0  0  0  0  0  0
    1.0671    0.1287    2.9118 H   0  0  0  0  0  0  0  0  0  0  0  0
    0.1472    0.6930    1.5143 H   0  0  0  0  0  0  0  0  0  0  0  0
    5.9248   -0.1696    1.4333 H   0  0  0  0  0  0  0  0  0  0  0  0
  1  2  1  0
  2  3  2  0
  3  4  1  0
  4  5  2  0
  5  6  1  0
  6  7  1  0
  7  8  1  0
  8  9  1  0
  9 10  1  0
 10 11  1  0
 11 12  1  0
 12 13  2  0
 13 14  1  0
 14 15  2  0
 15 16  1  0
 16 17  2  0
 17 18  1  0
 18 19  2  0
 19 20  1  0
 20 21  1  0
 21 22  2  0
 22 23  1  0
 23 24  2  0
 11 25  1  0
 25 26  1  0
  5 27  1  0
 27 28  2  0
 28 29  1  0
 28  2  1  0
 26  8  1  0
 24 12  1  0
 19 14  1  0
 24 20  1  0
  3 30  1  0
  4 31  1  0
  6 32  1  0
  6 33  1  0
  7 34  1  0
  7 35  1  0
  9 36  1  0
  9 37  1  0
 10 38  1  0
 10 39  1  0
 15 40  1  0
 16 41  1  0
 17 42  1  0
 18 43  1  0
 21 44  1  0
 22 45  1  0
 23 46  1  0
 25 47  1  0
 25 48  1  0
 26 49  1  0
 26 50  1  0
 27 51  1  0
M  END
$$$$
