
     RDKit          3D

 50 52  0  0  0  0  0  0  0  0999 V2000
   -3.8984    0.0424   -2.7801 C   0  0  0  0  0  0  0  0  0  0  0  0
   -4.2832   -0.3368   -1.4652 O   0  0  0  0  0  0  0  0  0  0  0  0
   -3.2833   -0.6710   -0.5917 C   0  0  0  0  0  0  0  0  0  0  0  0
   -1.9258   -0.7571   -0.9061 C   0  0  0  0  0  0  0  0  0  0  0  0
   -1.0019   -1.1371    0.0798 C   0  0  0  0  0  0  0  0  0  0  0  0
    0.4285   -1.2160   -0.2881 C   0  0  0  0  0  0  0  0  0  0  0  0
    1.3270   -1.5991    0.5624 N   0  0  0  0  0  0  0  0  0  0  0  0
    2.6271   -1.6923    0.1427 N   0  0  0  0  0  0  0  0  0  0  0  0
    3.0617   -2.0521   -1.1287 C   0  0  0  0  0  0  0  0  0  0  0  0
    2.3545   -2.2178   -2.1211 O   0  0  0  0  0  0  0  0  0  0  0  0
    4.5752   -2.2849   -1.1928 C   0  0  0  0  0  0  0  0  0  0  0  0
    5.3228   -1.7702   -0.0989 O   0  0  0  0  0  0  0  0  0  0  0  0
    5.6863   -0.4518   -0.1355 C   0  0  0  0  0  0  0  0  0  0  0  0
    6.5672   -0.0652    0.8768 C   0  0  0  0  0  0  0  0  0  0  0  0
    7.0112    1.2558    0.9706 C   0  0  0  0  0  0  0  0  0  0  0  0
    6.5823    2.2109    0.0447 C   0  0  0  0  0  0  0  0  0  0  0  0
    7.0267    3.6385    0.1619 C   0  0  0  0  0  0  0  0  0  0  0  0
    5.6836    1.8264   -0.9563 C   0  0  0  0  0  0  0  0  0  0  0  0
    5.2398    0.5021   -1.0496 C   0  0  0  0  0  0  0  0  0  0  0  0
   -1.4236   -1.4417    1.3791 C   0  0  0  0  0  0  0  0  0  0  0  0
   -2.7751   -1.3570    1.7030 C   0  0  0  0  0  0  0  0  0  0  0  0
   -3.6837   -0.9573    0.7226 C   0  0  0  0  0  0  0  0  0  0  0  0
   -5.0383   -0.9113    1.0720 O   0  0  0  0  0  0  0  0  0  0  0  0
   -5.5104    0.3834    1.2735 C   0  0  0  0  0  0  0  0  0  0  0  0
   -4.8144    1.3952    1.2919 O   0  0  0  0  0  0  0  0  0  0  0  0
   -6.9495    0.3861    1.4960 C   0  0  0  0  0  0  0  0  0  0  0  0
   -7.7371    1.4968    1.7503 C   0  0  0  0  0  0  0  0  0  0  0  0
   -9.1132    1.1709    1.9224 C   0  0  0  0  0  0  0  0  0  0  0  0
   -9.3386   -0.1803    1.7935 C   0  0  0  0  0  0  0  0  0  0  0  0
   -7.8988   -1.0419    1.4687 S   0  0  0  0  0  0  0  0  0  0  0  0
   -3.2413    0.9183   -2.7634 H   0  0  0  0  0  0  0  0  0  0  0  0
   -4.8051    0.3171   -3.3276 H   0  0  0  0  0  0  0  0  0  0  0  0
   -3.4305   -0.7942   -3.3091 H   0  0  0  0  0  0  0  0  0  0  0  0
   -1.5652   -0.5445   -1.9067 H   0  0  0  0  0  0  0  0  0  0  0  0
    0.6730   -0.8998   -1.3156 H   0  0  0  0  0  0  0  0  0  0  0  0
    3.3043   -1.7789    0.8990 H   0  0  0  0  0  0  0  0  0  0  0  0
    4.7148   -3.3723   -1.1800 H   0  0  0  0  0  0  0  0  0  0  0  0
    4.9687   -1.9324   -2.1535 H   0  0  0  0  0  0  0  0  0  0  0  0
    6.9134   -0.7978    1.6020 H   0  0  0  0  0  0  0  0  0  0  0  0
    7.6931    1.5319    1.7716 H   0  0  0  0  0  0  0  0  0  0  0  0
    6.3335    4.1949    0.8002 H   0  0  0  0  0  0  0  0  0  0  0  0
    7.0649    4.1179   -0.8218 H   0  0  0  0  0  0  0  0  0  0  0  0
    8.0318    3.7006    0.5922 H   0  0  0  0  0  0  0  0  0  0  0  0
    5.3176    2.5589   -1.6729 H   0  0  0  0  0  0  0  0  0  0  0  0
    4.5381    0.2634   -1.8419 H   0  0  0  0  0  0  0  0  0  0  0  0
   -0.7051   -1.7435    2.1376 H   0  0  0  0  0  0  0  0  0  0  0  0
   -3.1142   -1.5940    2.7068 H   0  0  0  0  0  0  0  0  0  0  0  0
   -7.3334    2.5020    1.8082 H   0  0  0  0  0  0  0  0  0  0  0  0
   -9.8960    1.8909    2.1286 H   0  0  0  0  0  0  0  0  0  0  0  0
  -10.2806   -0.7059    1.8735 H   0  0  0  0  0  0  0  0  0  0  0  0
  1  2  1  0
  2  3  1  0
  3  4  2  0
  4  5  1  0
  5  6  1  0
  6  7  2  3
  7  8  1  0
  8  9  1  0
  9 10  2  0
  9 11  1  0
 11 12  1  0
 12 13  1  0
 13 14  2  0
 14 15  1  0
 15 16  2  0
 16 17  1  0
 16 18  1  0
 18 19  2  0
  5 20  2  0
 20 21  1  0
 21 22  2  0
 22 23  1  0
 23 24  1  0
 24 25  2  0
 24 26  1  0
 26 27  2  0
 27 28  1  0
 28 29  2  0
 29 30  1  0
 22  3  1  0
 30 26  1  0
 19 13  1  0
  1 31  1  0
  1 32  1  0
  1 33  1  0
  4 34  1  0
  6 35  1  0
  8 36  1  0
 11 37  1  0
 11 38  1  0
 14 39  1  0
 15 40  1  0
 17 41  1  0
 17 42  1  0
 17 43  1  0
 18 44  1  0
 19 45  1  0
 20 46  1  0
 21 47  1  0
 27 48  1  0
 28 49  1  0
 29 50  1  0
M  END
$$$$
