
     RDKit          3D

 63 66  0  0  0  0  0  0  0  0999 V2000
    0.9841   -3.1098   -0.3330 C   0  0  0  0  0  0  0  0  0  0  0  0
    1.4940   -2.0966    0.6480 C   0  0  0  0  0  0  0  0  0  0  0  0
    1.4831   -2.3968    1.9177 N   0  0  0  0  0  0  0  0  0  0  0  0
    1.9317   -1.4860    2.8806 N   0  0  0  0  0  0  0  0  0  0  0  0
    1.8437   -1.9449    4.2700 C   0  0  0  0  0  0  0  0  0  0  0  0
    0.7607   -1.2258    5.0645 C   0  0  0  0  0  0  0  0  0  0  0  0
   -0.6111   -1.6388    4.5863 C   0  0  0  0  0  0  0  0  0  0  0  0
   -0.9817   -2.8132    4.5921 O   0  0  0  0  0  0  0  0  0  0  0  0
   -1.4008   -0.5723    4.1964 N   0  0  0  0  0  0  0  0  0  0  0  0
   -2.7024   -0.7798    3.6119 C   0  0  0  0  0  0  0  0  0  0  0  0
   -2.6348   -0.7123    2.1095 C   0  0  0  0  0  0  0  0  0  0  0  0
   -2.7773    0.5143    1.4324 C   0  0  0  0  0  0  0  0  0  0  0  0
   -2.7118    0.5626    0.0367 C   0  0  0  0  0  0  0  0  0  0  0  0
   -2.5068   -0.6091   -0.6968 C   0  0  0  0  0  0  0  0  0  0  0  0
   -2.4127   -0.6823   -2.0594 O   0  0  0  0  0  0  0  0  0  0  0  0
   -3.1707    0.2824   -2.8158 C   0  0  0  0  0  0  0  0  0  0  0  0
   -2.2081    1.3474   -3.3641 C   0  0  0  0  0  0  0  0  0  0  0  0
   -3.8590   -0.4800   -3.9564 C   0  0  0  0  0  0  0  0  0  0  0  0
   -2.3312   -1.8223   -0.0250 C   0  0  0  0  0  0  0  0  0  0  0  0
   -2.3890   -1.8747    1.3681 C   0  0  0  0  0  0  0  0  0  0  0  0
    2.4206   -0.1910    2.6051 C   0  0  0  0  0  0  0  0  0  0  0  0
    2.7745    0.6048    3.4767 O   0  0  0  0  0  0  0  0  0  0  0  0
    2.4273    0.1192    1.1826 C   0  0  0  0  0  0  0  0  0  0  0  0
    2.8360    1.2606    0.6213 N   0  0  0  0  0  0  0  0  0  0  0  0
    2.5379    1.1246   -0.6995 N   0  0  0  0  0  0  0  0  0  0  0  0
    2.5945    2.2854   -1.5325 C   0  0  0  0  0  0  0  0  0  0  0  0
    3.2478    3.4332   -1.0466 C   0  0  0  0  0  0  0  0  0  0  0  0
    3.3136    4.5961   -1.8201 C   0  0  0  0  0  0  0  0  0  0  0  0
    2.7236    4.6339   -3.0836 C   0  0  0  0  0  0  0  0  0  0  0  0
    2.0711    3.5040   -3.5738 C   0  0  0  0  0  0  0  0  0  0  0  0
    1.9798    2.3431   -2.7920 C   0  0  0  0  0  0  0  0  0  0  0  0
    2.1902   -0.2009   -0.9960 C   0  0  0  0  0  0  0  0  0  0  0  0
    2.1197   -0.7830   -2.3590 C   0  0  0  0  0  0  0  0  0  0  0  0
    1.9878   -0.8058    0.2327 C   0  0  0  0  0  0  0  0  0  0  0  0
    1.8180   -3.6659   -0.7641 H   0  0  0  0  0  0  0  0  0  0  0  0
    0.4282   -2.6171   -1.1286 H   0  0  0  0  0  0  0  0  0  0  0  0
    0.3151   -3.8150    0.1670 H   0  0  0  0  0  0  0  0  0  0  0  0
    2.8173   -1.7626    4.7368 H   0  0  0  0  0  0  0  0  0  0  0  0
    1.6770   -3.0271    4.2711 H   0  0  0  0  0  0  0  0  0  0  0  0
    0.8272   -1.4895    6.1282 H   0  0  0  0  0  0  0  0  0  0  0  0
    0.8802   -0.1397    5.0025 H   0  0  0  0  0  0  0  0  0  0  0  0
   -0.9468    0.3055    3.9893 H   0  0  0  0  0  0  0  0  0  0  0  0
   -3.3556    0.0088    3.9918 H   0  0  0  0  0  0  0  0  0  0  0  0
   -3.1326   -1.7323    3.9336 H   0  0  0  0  0  0  0  0  0  0  0  0
   -2.9402    1.4399    1.9909 H   0  0  0  0  0  0  0  0  0  0  0  0
   -2.8207    1.5286   -0.4463 H   0  0  0  0  0  0  0  0  0  0  0  0
   -3.9671    0.7492   -2.2162 H   0  0  0  0  0  0  0  0  0  0  0  0
   -1.4306    0.8865   -3.9855 H   0  0  0  0  0  0  0  0  0  0  0  0
   -2.7371    2.1065   -3.9665 H   0  0  0  0  0  0  0  0  0  0  0  0
   -1.6898    1.8595   -2.5425 H   0  0  0  0  0  0  0  0  0  0  0  0
   -4.4569    0.1799   -4.5856 H   0  0  0  0  0  0  0  0  0  0  0  0
   -3.1306   -0.9984   -4.5875 H   0  0  0  0  0  0  0  0  0  0  0  0
   -4.5099   -1.2540   -3.5404 H   0  0  0  0  0  0  0  0  0  0  0  0
   -2.1582   -2.7386   -0.5867 H   0  0  0  0  0  0  0  0  0  0  0  0
   -2.2346   -2.8305    1.8800 H   0  0  0  0  0  0  0  0  0  0  0  0
    3.7330    3.4259   -0.0657 H   0  0  0  0  0  0  0  0  0  0  0  0
    3.8326    5.4715   -1.4327 H   0  0  0  0  0  0  0  0  0  0  0  0
    2.7844    5.5347   -3.6932 H   0  0  0  0  0  0  0  0  0  0  0  0
    1.6231    3.5286   -4.5610 H   0  0  0  0  0  0  0  0  0  0  0  0
    1.4215    1.5153   -3.2029 H   0  0  0  0  0  0  0  0  0  0  0  0
    2.4334   -1.8365   -2.3410 H   0  0  0  0  0  0  0  0  0  0  0  0
    2.8027   -0.2784   -3.0597 H   0  0  0  0  0  0  0  0  0  0  0  0
    1.0929   -0.7410   -2.7531 H   0  0  0  0  0  0  0  0  0  0  0  0
  1  2  1  0
  2  3  2  0
  3  4  1  0
  4  5  1  0
  5  6  1  0
  6  7  1  0
  7  8  2  0
  7  9  1  0
  9 10  1  0
 10 11  1  0
 11 12  2  0
 12 13  1  0
 13 14  2  0
 14 15  1  0
 15 16  1  0
 16 17  1  0
 16 18  1  0
 14 19  1  0
 19 20  2  0
  4 21  1  0
 21 22  2  0
 21 23  1  0
 23 24  2  0
 24 25  1  0
 25 26  1  0
 26 27  2  0
 27 28  1  0
 28 29  2  0
 29 30  1  0
 30 31  2  0
 25 32  1  0
 32 33  1  0
 32 34  2  0
 34  2  1  0
 20 11  1  0
 34 23  1  0
 31 26  1  0
  1 35  1  0
  1 36  1  0
  1 37  1  0
  5 38  1  0
  5 39  1  0
  6 40  1  0
  6 41  1  0
  9 42  1  0
 10 43  1  0
 10 44  1  0
 12 45  1  0
 13 46  1  0
 16 47  1  0
 17 48  1  0
 17 49  1  0
 17 50  1  0
 18 51  1  0
 18 52  1  0
 18 53  1  0
 19 54  1  0
 20 55  1  0
 27 56  1  0
 28 57  1  0
 29 58  1  0
 30 59  1  0
 31 60  1  0
 33 61  1  0
 33 62  1  0
 33 63  1  0
M  END
$$$$
