
     RDKit          3D

 36 37  0  0  0  0  0  0  0  0999 V2000
   -2.1743   -0.0641    1.8428 C   0  0  0  0  0  0  0  0  0  0  0  0
   -2.3029   -1.0628    0.6996 C   0  0  0  0  0  0  0  0  0  0  0  0
   -1.6429   -0.5335   -0.5076 N   0  0  0  0  0  0  0  0  0  0  0  0
   -2.6171   -0.1289   -1.5379 C   0  0  0  0  0  0  0  0  0  0  0  0
   -3.5235    1.0445   -1.1349 C   0  0  0  0  0  0  0  0  0  0  0  0
   -4.3183    1.4566   -2.2453 O   0  0  0  0  0  0  0  0  0  0  0  0
   -0.6891   -1.4998   -1.0818 C   0  0  0  0  0  0  0  0  0  0  0  0
    0.5287   -1.6328   -0.2024 C   0  0  0  0  0  0  0  0  0  0  0  0
    0.8929   -2.8058    0.4316 C   0  0  0  0  0  0  0  0  0  0  0  0
    2.3247   -2.6579    1.3378 S   0  0  0  0  0  0  0  0  0  0  0  0
    2.5185   -1.0064    0.8997 C   0  0  0  0  0  0  0  0  0  0  0  0
    3.5641   -0.1462    1.2956 C   0  0  0  0  0  0  0  0  0  0  0  0
    3.5688    1.1845    0.8557 C   0  0  0  0  0  0  0  0  0  0  0  0
    4.6915    2.1013    1.2451 C   0  0  0  0  0  0  0  0  0  0  0  0
    2.5545    1.6313    0.0135 C   0  0  0  0  0  0  0  0  0  0  0  0
    1.5207    0.7729   -0.3766 C   0  0  0  0  0  0  0  0  0  0  0  0
    1.4848   -0.5740    0.0653 C   0  0  0  0  0  0  0  0  0  0  0  0
   -1.1234    0.1261    2.0852 H   0  0  0  0  0  0  0  0  0  0  0  0
   -2.6577   -0.4604    2.7418 H   0  0  0  0  0  0  0  0  0  0  0  0
   -2.6479    0.8928    1.6042 H   0  0  0  0  0  0  0  0  0  0  0  0
   -3.3610   -1.2923    0.5225 H   0  0  0  0  0  0  0  0  0  0  0  0
   -1.8605   -2.0089    1.0337 H   0  0  0  0  0  0  0  0  0  0  0  0
   -3.2377   -0.9791   -1.8521 H   0  0  0  0  0  0  0  0  0  0  0  0
   -2.0773    0.1881   -2.4407 H   0  0  0  0  0  0  0  0  0  0  0  0
   -2.9344    1.9042   -0.7982 H   0  0  0  0  0  0  0  0  0  0  0  0
   -4.2093    0.7603   -0.3319 H   0  0  0  0  0  0  0  0  0  0  0  0
   -3.7181    1.8698   -2.8898 H   0  0  0  0  0  0  0  0  0  0  0  0
   -0.3330   -1.1518   -2.0608 H   0  0  0  0  0  0  0  0  0  0  0  0
   -1.1667   -2.4741   -1.2495 H   0  0  0  0  0  0  0  0  0  0  0  0
    0.3749   -3.7547    0.4061 H   0  0  0  0  0  0  0  0  0  0  0  0
    4.3561   -0.5183    1.9403 H   0  0  0  0  0  0  0  0  0  0  0  0
    5.5041    2.0279    0.5159 H   0  0  0  0  0  0  0  0  0  0  0  0
    4.3496    3.1407    1.2911 H   0  0  0  0  0  0  0  0  0  0  0  0
    5.0801    1.8439    2.2361 H   0  0  0  0  0  0  0  0  0  0  0  0
    2.5508    2.6574   -0.3477 H   0  0  0  0  0  0  0  0  0  0  0  0
    0.7304    1.1494   -1.0211 H   0  0  0  0  0  0  0  0  0  0  0  0
  1  2  1  0
  2  3  1  0
  3  4  1  0
  4  5  1  0
  5  6  1  0
  3  7  1  0
  7  8  1  0
  8  9  2  0
  9 10  1  0
 10 11  1  0
 11 12  2  0
 12 13  1  0
 13 14  1  0
 13 15  2  0
 15 16  1  0
 16 17  2  0
 17  8  1  0
 17 11  1  0
  1 18  1  0
  1 19  1  0
  1 20  1  0
  2 21  1  0
  2 22  1  0
  4 23  1  0
  4 24  1  0
  5 25  1  0
  5 26  1  0
  6 27  1  0
  7 28  1  0
  7 29  1  0
  9 30  1  0
 12 31  1  0
 14 32  1  0
 14 33  1  0
 14 34  1  0
 15 35  1  0
 16 36  1  0
M  END
$$$$
