
     RDKit          3D

 44 46  0  0  0  0  0  0  0  0999 V2000
    7.8609    4.4960    1.6829 C   0  0  0  0  0  0  0  0  0  0  0  0
    6.7229    4.2959    2.5117 O   0  0  0  0  0  0  0  0  0  0  0  0
    5.6843    3.5868    1.9767 C   0  0  0  0  0  0  0  0  0  0  0  0
    4.5920    3.4173    2.8274 C   0  0  0  0  0  0  0  0  0  0  0  0
    3.4598    2.7106    2.4071 C   0  0  0  0  0  0  0  0  0  0  0  0
    3.3962    2.1563    1.1216 C   0  0  0  0  0  0  0  0  0  0  0  0
    2.2235    1.4164    0.6671 C   0  0  0  0  0  0  0  0  0  0  0  0
    1.8704    0.7750   -0.4968 C   0  0  0  0  0  0  0  0  0  0  0  0
    0.5724    0.2593   -0.2555 C   0  0  0  0  0  0  0  0  0  0  0  0
   -0.2660   -0.5142   -1.1797 C   0  0  0  0  0  0  0  0  0  0  0  0
    0.1279   -0.7875   -2.3079 O   0  0  0  0  0  0  0  0  0  0  0  0
   -1.4841   -0.8650   -0.6256 N   0  0  0  0  0  0  0  0  0  0  0  0
   -2.5325   -1.5996   -1.2097 C   0  0  0  0  0  0  0  0  0  0  0  0
   -2.4943   -2.1096   -2.5053 C   0  0  0  0  0  0  0  0  0  0  0  0
   -3.5786   -2.8318   -3.0170 C   0  0  0  0  0  0  0  0  0  0  0  0
   -4.7169   -3.0535   -2.2381 C   0  0  0  0  0  0  0  0  0  0  0  0
   -5.8230   -3.7488   -2.6582 O   0  0  0  0  0  0  0  0  0  0  0  0
   -5.8063   -4.2786   -3.9758 C   0  0  0  0  0  0  0  0  0  0  0  0
   -4.7650   -2.5421   -0.9275 C   0  0  0  0  0  0  0  0  0  0  0  0
   -5.9157   -2.8001   -0.2231 O   0  0  0  0  0  0  0  0  0  0  0  0
   -6.0079   -2.3031    1.1037 C   0  0  0  0  0  0  0  0  0  0  0  0
   -3.6733   -1.8203   -0.4254 C   0  0  0  0  0  0  0  0  0  0  0  0
    0.1603    0.5706    0.9863 N   0  0  0  0  0  0  0  0  0  0  0  0
    1.1945    1.2916    1.5550 O   0  0  0  0  0  0  0  0  0  0  0  0
    4.5001    2.3326    0.2741 C   0  0  0  0  0  0  0  0  0  0  0  0
    5.6345    3.0410    0.6961 C   0  0  0  0  0  0  0  0  0  0  0  0
    7.6021    5.0746    0.7900 H   0  0  0  0  0  0  0  0  0  0  0  0
    8.3267    3.5418    1.4150 H   0  0  0  0  0  0  0  0  0  0  0  0
    8.5929    5.0750    2.2541 H   0  0  0  0  0  0  0  0  0  0  0  0
    4.6199    3.8392    3.8295 H   0  0  0  0  0  0  0  0  0  0  0  0
    2.6309    2.6027    3.1035 H   0  0  0  0  0  0  0  0  0  0  0  0
    2.4492    0.6793   -1.4033 H   0  0  0  0  0  0  0  0  0  0  0  0
   -1.6167   -0.5391    0.3282 H   0  0  0  0  0  0  0  0  0  0  0  0
   -1.6347   -1.9662   -3.1526 H   0  0  0  0  0  0  0  0  0  0  0  0
   -3.4972   -3.2068   -4.0318 H   0  0  0  0  0  0  0  0  0  0  0  0
   -6.7564   -4.7960   -4.1403 H   0  0  0  0  0  0  0  0  0  0  0  0
   -5.7295   -3.4808   -4.7218 H   0  0  0  0  0  0  0  0  0  0  0  0
   -5.0033   -5.0132   -4.0963 H   0  0  0  0  0  0  0  0  0  0  0  0
   -5.2362   -2.7421    1.7445 H   0  0  0  0  0  0  0  0  0  0  0  0
   -6.9813   -2.6005    1.5055 H   0  0  0  0  0  0  0  0  0  0  0  0
   -5.9623   -1.2093    1.1200 H   0  0  0  0  0  0  0  0  0  0  0  0
   -3.6969   -1.4207    0.5824 H   0  0  0  0  0  0  0  0  0  0  0  0
    4.4984    1.9211   -0.7328 H   0  0  0  0  0  0  0  0  0  0  0  0
    6.4583    3.1456   -0.0023 H   0  0  0  0  0  0  0  0  0  0  0  0
  1  2  1  0
  2  3  1  0
  3  4  2  0
  4  5  1  0
  5  6  2  0
  6  7  1  0
  7  8  2  0
  8  9  1  0
  9 10  1  0
 10 11  2  0
 10 12  1  0
 12 13  1  0
 13 14  2  0
 14 15  1  0
 15 16  2  0
 16 17  1  0
 17 18  1  0
 16 19  1  0
 19 20  1  0
 20 21  1  0
 19 22  2  0
  9 23  2  0
 23 24  1  0
  6 25  1  0
 25 26  2  0
 26  3  1  0
 24  7  1  0
 22 13  1  0
  1 27  1  0
  1 28  1  0
  1 29  1  0
  4 30  1  0
  5 31  1  0
  8 32  1  0
 12 33  1  0
 14 34  1  0
 15 35  1  0
 18 36  1  0
 18 37  1  0
 18 38  1  0
 21 39  1  0
 21 40  1  0
 21 41  1  0
 22 42  1  0
 25 43  1  0
 26 44  1  0
M  END
$$$$
