
     RDKit          3D

 24 26  0  0  0  0  0  0  0  0999 V2000
   -4.5766   -1.2466   -0.8243 F   0  0  0  0  0  0  0  0  0  0  0  0
   -3.3544   -0.7119   -0.7257 C   0  0  0  0  0  0  0  0  0  0  0  0
   -2.3000   -1.2790   -1.4325 C   0  0  0  0  0  0  0  0  0  0  0  0
   -1.0214   -0.7262   -1.3300 C   0  0  0  0  0  0  0  0  0  0  0  0
   -0.8074    0.3959   -0.5154 C   0  0  0  0  0  0  0  0  0  0  0  0
    0.5193    0.9587   -0.3917 C   0  0  0  0  0  0  0  0  0  0  0  0
    0.8846    2.1912   -0.9034 C   0  0  0  0  0  0  0  0  0  0  0  0
    2.5588    2.5029   -0.5723 S   0  0  0  0  0  0  0  0  0  0  0  0
    2.7071    1.0261    0.2313 C   0  0  0  0  0  0  0  0  0  0  0  0
    1.5821    0.3574    0.2400 N   0  0  0  0  0  4  0  0  0  0  0  0
    1.6336   -0.9390    0.9013 C   0  0  0  0  0  0  0  0  0  0  0  0
    2.9019   -0.9756    1.7707 C   0  0  0  0  0  0  0  0  0  0  0  0
    4.0307    0.2716    1.0406 S   0  0  0  0  0  0  0  0  0  0  0  0
   -1.8812    0.9617    0.1881 C   0  0  0  0  0  0  0  0  0  0  0  0
   -3.1567    0.4025    0.0813 C   0  0  0  0  0  0  0  0  0  0  0  0
   -2.4887   -2.1426   -2.0655 H   0  0  0  0  0  0  0  0  0  0  0  0
   -0.2150   -1.1724   -1.9092 H   0  0  0  0  0  0  0  0  0  0  0  0
    0.2887    2.9106   -1.4522 H   0  0  0  0  0  0  0  0  0  0  0  0
    0.7399   -1.0991    1.5127 H   0  0  0  0  0  0  0  0  0  0  0  0
    1.6765   -1.7158    0.1285 H   0  0  0  0  0  0  0  0  0  0  0  0
    2.6696   -0.6667    2.7948 H   0  0  0  0  0  0  0  0  0  0  0  0
    3.3577   -1.9689    1.7927 H   0  0  0  0  0  0  0  0  0  0  0  0
   -1.7479    1.8366    0.8228 H   0  0  0  0  0  0  0  0  0  0  0  0
   -4.0012    0.8286    0.6173 H   0  0  0  0  0  0  0  0  0  0  0  0
  1  2  1  0
  2  3  2  0
  3  4  1  0
  4  5  2  0
  5  6  1  0
  6  7  2  0
  7  8  1  0
  8  9  1  0
  9 10  2  0
 10 11  1  0
 11 12  1  0
 12 13  1  0
  5 14  1  0
 14 15  2  0
 15  2  1  0
 10  6  1  0
 13  9  1  0
  3 16  1  0
  4 17  1  0
  7 18  1  0
 11 19  1  0
 11 20  1  0
 12 21  1  0
 12 22  1  0
 14 23  1  0
 15 24  1  0
M  CHG  1  10   1
M  END
$$$$
