
     RDKit          3D

 36 37  0  0  0  0  0  0  0  0999 V2000
   -0.7700    3.1261   -0.4277 O   0  0  0  0  0  0  0  0  0  0  0  0
   -0.1923    2.3905    0.3671 C   0  0  0  0  0  0  0  0  0  0  0  0
    1.2582    2.6303    0.7968 C   0  0  0  0  0  0  0  0  0  0  0  0
    2.1732    1.6254    0.3559 O   0  0  0  0  0  0  0  0  0  0  0  0
    2.2187    0.5044    1.1131 C   0  0  0  0  0  0  0  0  0  0  0  0
    1.5138    0.2787    2.0854 O   0  0  0  0  0  0  0  0  0  0  0  0
    3.2365   -0.4470    0.5937 C   0  0  0  0  0  0  0  0  0  0  0  0
    4.0146   -0.1697   -0.5402 C   0  0  0  0  0  0  0  0  0  0  0  0
    4.9565   -1.0983   -0.9901 C   0  0  0  0  0  0  0  0  0  0  0  0
    5.1250   -2.3052   -0.3116 C   0  0  0  0  0  0  0  0  0  0  0  0
    4.3518   -2.5808    0.8152 C   0  0  0  0  0  0  0  0  0  0  0  0
    4.5623   -4.0711    1.6487 Cl  0  0  0  0  0  0  0  0  0  0  0  0
    3.4099   -1.6608    1.2718 C   0  0  0  0  0  0  0  0  0  0  0  0
   -0.7912    1.2947    0.9480 N   0  0  0  0  0  0  0  0  0  0  0  0
   -2.2086    1.0108    0.8141 C   0  0  0  0  0  0  0  0  0  0  0  0
   -2.6660    0.7766   -0.6334 C   0  0  0  0  0  0  0  0  0  0  0  0
   -3.9253    0.0530   -0.6970 N   0  0  0  0  0  0  0  0  0  0  0  0
   -4.0617   -1.3159   -0.7003 C   0  0  0  0  0  0  0  0  0  0  0  0
   -2.9842   -2.1438   -0.7949 O   0  0  0  0  0  0  0  0  0  0  0  0
   -5.3195   -1.7537   -0.5983 C   0  0  0  0  0  0  0  0  0  0  0  0
   -6.4441   -0.4389   -0.4887 S   0  0  0  0  0  0  0  0  0  0  0  0
   -5.1246    0.7437   -0.5393 C   0  0  0  0  0  0  0  0  0  0  0  0
   -5.2908    1.9459   -0.4218 O   0  0  0  0  0  0  0  0  0  0  0  0
    1.3032    2.7625    1.8848 H   0  0  0  0  0  0  0  0  0  0  0  0
    1.5851    3.5777    0.3543 H   0  0  0  0  0  0  0  0  0  0  0  0
    3.9000    0.7650   -1.0850 H   0  0  0  0  0  0  0  0  0  0  0  0
    5.5590   -0.8805   -1.8694 H   0  0  0  0  0  0  0  0  0  0  0  0
    5.8593   -3.0252   -0.6648 H   0  0  0  0  0  0  0  0  0  0  0  0
    2.8138   -1.8879    2.1533 H   0  0  0  0  0  0  0  0  0  0  0  0
   -0.2747    0.8197    1.6905 H   0  0  0  0  0  0  0  0  0  0  0  0
   -2.7676    1.8414    1.2597 H   0  0  0  0  0  0  0  0  0  0  0  0
   -2.3976    0.1199    1.4234 H   0  0  0  0  0  0  0  0  0  0  0  0
   -1.9015    0.2441   -1.2079 H   0  0  0  0  0  0  0  0  0  0  0  0
   -2.8045    1.7430   -1.1327 H   0  0  0  0  0  0  0  0  0  0  0  0
   -2.2979   -1.6827   -1.3005 H   0  0  0  0  0  0  0  0  0  0  0  0
   -5.6185   -2.7920   -0.5815 H   0  0  0  0  0  0  0  0  0  0  0  0
  1  2  2  0
  2  3  1  0
  3  4  1  0
  4  5  1  0
  5  6  2  0
  5  7  1  0
  7  8  2  0
  8  9  1  0
  9 10  2  0
 10 11  1  0
 11 12  1  0
 11 13  2  0
  2 14  1  0
 14 15  1  0
 15 16  1  0
 16 17  1  0
 17 18  1  0
 18 19  1  0
 18 20  2  0
 20 21  1  0
 21 22  1  0
 22 23  2  0
 13  7  1  0
 22 17  1  0
  3 24  1  0
  3 25  1  0
  8 26  1  0
  9 27  1  0
 10 28  1  0
 13 29  1  0
 14 30  1  0
 15 31  1  0
 15 32  1  0
 16 33  1  0
 16 34  1  0
 19 35  1  0
 20 36  1  0
M  END
$$$$
