
     RDKit          3D

 67 72  0  0  0  0  0  0  0  0999 V2000
    1.5080   -2.5539    2.2166 O   0  0  0  0  0  0  0  0  0  0  0  0
    1.6532   -1.5552    1.5077 C   0  0  0  0  0  0  0  0  0  0  0  0
    2.8333   -0.5773    1.7069 C   0  0  0  0  0  0  0  0  0  0  0  0
    3.9631   -1.2599    2.4996 C   0  0  0  0  0  0  0  0  0  0  0  0
    5.0423   -0.2948    2.9396 C   0  0  0  0  0  0  0  0  0  0  0  0
    6.2107   -0.1384    2.1814 C   0  0  0  0  0  0  0  0  0  0  0  0
    7.1935    0.7696    2.5772 C   0  0  0  0  0  0  0  0  0  0  0  0
    7.0202    1.5263    3.7349 C   0  0  0  0  0  0  0  0  0  0  0  0
    5.8636    1.3758    4.4981 C   0  0  0  0  0  0  0  0  0  0  0  0
    4.8775    0.4710    4.1024 C   0  0  0  0  0  0  0  0  0  0  0  0
    3.3286   -0.1259    0.4033 N   0  0  0  0  0  0  0  0  0  0  0  0
    2.3178    0.4408   -0.3782 C   0  0  0  0  0  0  0  0  0  0  0  0
    2.7181    1.4306   -1.1859 N   0  0  0  0  0  0  0  0  0  0  0  0
    1.7796    1.9403   -1.9825 C   0  0  0  0  0  0  0  0  0  0  0  0
    0.4855    1.6019   -1.9922 N   0  0  0  0  0  0  0  0  0  0  0  0
    0.0854    0.6356   -1.1386 C   0  0  0  0  0  0  0  0  0  0  0  0
   -1.3047    0.4467   -1.0054 N   0  0  0  0  0  0  0  0  0  0  0  0
   -1.8219    1.0272    0.2665 C   0  0  0  0  0  0  0  0  0  0  0  0
   -2.9677    2.0490    0.0609 C   0  0  0  0  0  0  0  0  0  0  0  0
   -4.0425    1.4903   -0.7767 N   0  0  0  0  0  0  0  0  0  0  0  0
   -5.3200    2.0368   -0.7845 C   0  0  0  0  0  0  0  0  0  0  0  0
   -5.6191    3.2685   -0.1807 C   0  0  0  0  0  0  0  0  0  0  0  0
   -6.9136    3.8037   -0.1909 C   0  0  0  0  0  0  0  0  0  0  0  0
   -7.9512    3.1111   -0.8031 C   0  0  0  0  0  0  0  0  0  0  0  0
   -7.6927    1.8824   -1.3961 C   0  0  0  0  0  0  0  0  0  0  0  0
   -6.3953    1.3563   -1.3818 C   0  0  0  0  0  0  0  0  0  0  0  0
   -3.6030    0.6745   -1.9314 C   0  0  0  0  0  0  0  0  0  0  0  0
   -2.0894    0.8331   -2.2001 C   0  0  0  0  0  0  0  0  0  0  0  0
    1.0069   -0.0517   -0.3312 C   0  0  0  0  0  0  0  0  0  0  0  0
    0.7211   -1.1764    0.5276 N   0  0  0  0  0  0  0  0  0  0  0  0
   -0.3111   -2.1507    0.1745 C   0  0  0  0  0  0  0  0  0  0  0  0
    0.1312   -3.1001   -0.9234 C   0  0  0  0  0  0  0  0  0  0  0  0
    0.9112   -4.2274   -0.6219 C   0  0  0  0  0  0  0  0  0  0  0  0
    1.3306   -5.0948   -1.6331 C   0  0  0  0  0  0  0  0  0  0  0  0
    0.9743   -4.8378   -2.9545 C   0  0  0  0  0  0  0  0  0  0  0  0
    1.5411   -6.0094   -4.3251 Br  0  0  0  0  0  0  0  0  0  0  0  0
    0.2037   -3.7224   -3.2737 C   0  0  0  0  0  0  0  0  0  0  0  0
   -0.2156   -2.8576   -2.2604 C   0  0  0  0  0  0  0  0  0  0  0  0
    2.4503    0.2791    2.2808 H   0  0  0  0  0  0  0  0  0  0  0  0
    4.4120   -2.0665    1.9037 H   0  0  0  0  0  0  0  0  0  0  0  0
    3.5637   -1.7487    3.3980 H   0  0  0  0  0  0  0  0  0  0  0  0
    6.3609   -0.7221    1.2747 H   0  0  0  0  0  0  0  0  0  0  0  0
    8.0957    0.8861    1.9815 H   0  0  0  0  0  0  0  0  0  0  0  0
    7.7879    2.2309    4.0437 H   0  0  0  0  0  0  0  0  0  0  0  0
    5.7309    1.9625    5.4035 H   0  0  0  0  0  0  0  0  0  0  0  0
    3.9831    0.3635    4.7120 H   0  0  0  0  0  0  0  0  0  0  0  0
    4.1198    0.5130    0.4147 H   0  0  0  0  0  0  0  0  0  0  0  0
    2.0909    2.7111   -2.6780 H   0  0  0  0  0  0  0  0  0  0  0  0
   -1.0325    1.5133    0.8540 H   0  0  0  0  0  0  0  0  0  0  0  0
   -2.2053    0.1998    0.8750 H   0  0  0  0  0  0  0  0  0  0  0  0
   -3.3471    2.3137    1.0549 H   0  0  0  0  0  0  0  0  0  0  0  0
   -2.5730    2.9599   -0.4050 H   0  0  0  0  0  0  0  0  0  0  0  0
   -4.8424    3.8559    0.3004 H   0  0  0  0  0  0  0  0  0  0  0  0
   -7.1049    4.7643    0.2806 H   0  0  0  0  0  0  0  0  0  0  0  0
   -8.9562    3.5235   -0.8110 H   0  0  0  0  0  0  0  0  0  0  0  0
   -8.4975    1.3243   -1.8670 H   0  0  0  0  0  0  0  0  0  0  0  0
   -6.2429    0.3785   -1.8311 H   0  0  0  0  0  0  0  0  0  0  0  0
   -4.1317    0.9656   -2.8478 H   0  0  0  0  0  0  0  0  0  0  0  0
   -3.8309   -0.3780   -1.7229 H   0  0  0  0  0  0  0  0  0  0  0  0
   -1.8111    0.1942   -3.0467 H   0  0  0  0  0  0  0  0  0  0  0  0
   -1.8981    1.8759   -2.4881 H   0  0  0  0  0  0  0  0  0  0  0  0
   -1.2571   -1.6823   -0.0909 H   0  0  0  0  0  0  0  0  0  0  0  0
   -0.5590   -2.7497    1.0609 H   0  0  0  0  0  0  0  0  0  0  0  0
    1.1986   -4.4369    0.4070 H   0  0  0  0  0  0  0  0  0  0  0  0
    1.9329   -5.9624   -1.3774 H   0  0  0  0  0  0  0  0  0  0  0  0
   -0.0742   -3.5162   -4.3035 H   0  0  0  0  0  0  0  0  0  0  0  0
   -0.8151   -1.9901   -2.5218 H   0  0  0  0  0  0  0  0  0  0  0  0
  1  2  2  0
  2  3  1  0
  3  4  1  0
  4  5  1  0
  5  6  2  0
  6  7  1  0
  7  8  2  0
  8  9  1  0
  9 10  2  0
  3 11  1  0
 11 12  1  0
 12 13  2  0
 13 14  1  0
 14 15  2  0
 15 16  1  0
 16 17  1  0
 17 18  1  0
 18 19  1  0
 19 20  1  0
 20 21  1  0
 21 22  2  0
 22 23  1  0
 23 24  2  0
 24 25  1  0
 25 26  2  0
 20 27  1  0
 27 28  1  0
 16 29  2  0
 29 30  1  0
 30 31  1  0
 31 32  1  0
 32 33  2  0
 33 34  1  0
 34 35  2  0
 35 36  1  0
 35 37  1  0
 37 38  2  0
 30  2  1  0
 38 32  1  0
 10  5  1  0
 29 12  1  0
 28 17  1  0
 26 21  1  0
  3 39  1  0
  4 40  1  0
  4 41  1  0
  6 42  1  0
  7 43  1  0
  8 44  1  0
  9 45  1  0
 10 46  1  0
 11 47  1  0
 14 48  1  0
 18 49  1  0
 18 50  1  0
 19 51  1  0
 19 52  1  0
 22 53  1  0
 23 54  1  0
 24 55  1  0
 25 56  1  0
 26 57  1  0
 27 58  1  0
 27 59  1  0
 28 60  1  0
 28 61  1  0
 31 62  1  0
 31 63  1  0
 33 64  1  0
 34 65  1  0
 37 66  1  0
 38 67  1  0
M  END
$$$$
