
     RDKit          3D

 43 45  0  0  0  0  0  0  0  0999 V2000
   -6.2752    0.2947   -1.1687 C   0  0  0  0  0  0  0  0  0  0  0  0
   -5.0776    0.8286   -0.8925 C   0  0  0  0  0  0  0  0  0  0  0  0
   -4.3437    0.6456    0.4048 C   0  0  0  0  0  0  0  0  0  0  0  0
   -2.9893    0.1283    0.1983 N   0  0  0  0  0  0  0  0  0  0  0  0
   -1.8387    0.8932    0.1011 C   0  0  0  0  0  0  0  0  0  0  0  0
   -1.8620    2.3833    0.1756 C   0  0  0  0  0  0  0  0  0  0  0  0
   -0.7785    0.0127   -0.0414 C   0  0  0  0  0  0  0  0  0  0  0  0
    0.5867    0.4217   -0.1627 C   0  0  0  0  0  0  0  0  0  0  0  0
    1.6143   -0.1604    0.4787 C   0  0  0  0  0  0  0  0  0  0  0  0
    3.0148    0.2571    0.3545 C   0  0  0  0  0  0  0  0  0  0  0  0
    4.0141   -0.7145    0.3781 C   0  0  0  0  0  0  0  0  0  0  0  0
    5.3489   -0.3361    0.2868 C   0  0  0  0  0  0  0  0  0  0  0  0
    5.6888    0.9677    0.1827 N   0  0  0  0  0  4  0  0  0  0  0  0
    7.1096    1.3458    0.0979 C   0  0  0  0  0  0  0  0  0  0  0  0
    4.7396    1.9298    0.1838 C   0  0  0  0  0  0  0  0  0  0  0  0
    3.3924    1.5964    0.2711 C   0  0  0  0  0  0  0  0  0  0  0  0
   -1.2995   -1.3173   -0.0698 C   0  0  0  0  0  0  0  0  0  0  0  0
   -0.7323   -2.6019   -0.2345 C   0  0  0  0  0  0  0  0  0  0  0  0
   -1.5501   -3.7363   -0.2175 C   0  0  0  0  0  0  0  0  0  0  0  0
   -2.9231   -3.6105   -0.0477 C   0  0  0  0  0  0  0  0  0  0  0  0
   -3.5133   -2.3535    0.1043 C   0  0  0  0  0  0  0  0  0  0  0  0
   -2.6838   -1.2180    0.0884 C   0  0  0  0  0  0  0  0  0  0  0  0
   -6.8094   -0.3234   -0.4534 H   0  0  0  0  0  0  0  0  0  0  0  0
   -6.7496    0.4648   -2.1313 H   0  0  0  0  0  0  0  0  0  0  0  0
   -4.5893    1.4383   -1.6497 H   0  0  0  0  0  0  0  0  0  0  0  0
   -4.2668    1.6036    0.9281 H   0  0  0  0  0  0  0  0  0  0  0  0
   -4.8611   -0.0422    1.0830 H   0  0  0  0  0  0  0  0  0  0  0  0
   -2.1602    2.7108    1.1767 H   0  0  0  0  0  0  0  0  0  0  0  0
   -0.8798    2.8170   -0.0333 H   0  0  0  0  0  0  0  0  0  0  0  0
   -2.5634    2.7989   -0.5546 H   0  0  0  0  0  0  0  0  0  0  0  0
    0.7661    1.2702   -0.8178 H   0  0  0  0  0  0  0  0  0  0  0  0
    1.4229   -1.0056    1.1386 H   0  0  0  0  0  0  0  0  0  0  0  0
    3.7611   -1.7704    0.4596 H   0  0  0  0  0  0  0  0  0  0  0  0
    6.1511   -1.0688    0.2993 H   0  0  0  0  0  0  0  0  0  0  0  0
    7.4710    1.4909    1.1189 H   0  0  0  0  0  0  0  0  0  0  0  0
    7.2009    2.2673   -0.4829 H   0  0  0  0  0  0  0  0  0  0  0  0
    7.6637    0.5473   -0.4022 H   0  0  0  0  0  0  0  0  0  0  0  0
    5.0676    2.9637    0.1210 H   0  0  0  0  0  0  0  0  0  0  0  0
    2.6479    2.3900    0.2865 H   0  0  0  0  0  0  0  0  0  0  0  0
    0.3353   -2.7177   -0.3875 H   0  0  0  0  0  0  0  0  0  0  0  0
   -1.1105   -4.7220   -0.3463 H   0  0  0  0  0  0  0  0  0  0  0  0
   -3.5501   -4.4994   -0.0425 H   0  0  0  0  0  0  0  0  0  0  0  0
   -4.5895   -2.2700    0.2188 H   0  0  0  0  0  0  0  0  0  0  0  0
  1  2  2  0
  2  3  1  0
  3  4  1  0
  4  5  1  0
  5  6  1  0
  5  7  2  0
  7  8  1  0
  8  9  2  3
  9 10  1  0
 10 11  2  0
 11 12  1  0
 12 13  2  0
 13 14  1  0
 13 15  1  0
 15 16  2  0
  7 17  1  0
 17 18  2  0
 18 19  1  0
 19 20  2  0
 20 21  1  0
 21 22  2  0
 22  4  1  0
 16 10  1  0
 22 17  1  0
  1 23  1  0
  1 24  1  0
  2 25  1  0
  3 26  1  0
  3 27  1  0
  6 28  1  0
  6 29  1  0
  6 30  1  0
  8 31  1  0
  9 32  1  0
 11 33  1  0
 12 34  1  0
 14 35  1  0
 14 36  1  0
 14 37  1  0
 15 38  1  0
 16 39  1  0
 18 40  1  0
 19 41  1  0
 20 42  1  0
 21 43  1  0
M  CHG  1  13   1
M  END
$$$$
