
     RDKit          3D

 31 33  0  0  0  0  0  0  0  0999 V2000
   -3.0000    1.6401    0.2662 C   0  0  0  0  0  0  0  0  0  0  0  0
   -3.1791    0.2065   -0.1178 C   0  0  0  0  0  0  0  0  0  0  0  0
   -4.4471   -0.3636   -0.4686 C   0  0  0  0  0  0  0  0  0  0  0  0
   -4.3612   -1.6966   -0.7914 C   0  0  0  0  0  0  0  0  0  0  0  0
   -2.7653   -2.2778   -0.6784 S   0  0  0  0  0  0  0  0  0  0  0  0
   -2.1605   -0.7402   -0.1862 C   0  0  0  0  0  0  0  0  0  0  0  0
   -0.6808   -0.5394    0.1127 C   0  0  0  0  0  0  0  0  0  0  0  0
   -0.1238   -1.5757    1.0659 C   0  0  0  0  0  0  0  0  0  0  0  0
    0.8799   -0.9647    1.9877 C   0  0  0  0  0  0  0  0  0  0  0  0
    0.7824   -1.1393    3.2077 O   0  0  0  0  0  0  0  0  0  0  0  0
    1.9409   -0.2465    1.5554 N   0  0  0  0  0  0  0  0  0  0  0  0
    2.4398    0.1692    0.3054 C   0  0  0  0  0  0  0  0  0  0  0  0
    3.7075    0.7899    0.4023 C   0  0  0  0  0  0  0  0  0  0  0  0
    4.3989    1.2537   -0.7166 C   0  0  0  0  0  0  0  0  0  0  0  0
    3.8348    1.1088   -1.9700 C   0  0  0  0  0  0  0  0  0  0  0  0
    2.5804    0.5126   -2.0886 C   0  0  0  0  0  0  0  0  0  0  0  0
    1.8557    0.0454   -0.9662 C   0  0  0  0  0  0  0  0  0  0  0  0
    0.2684   -0.6157   -1.4368 S   0  0  0  0  0  0  0  0  0  0  0  0
   -2.6302    1.7162    1.2938 H   0  0  0  0  0  0  0  0  0  0  0  0
   -3.9452    2.1892    0.2062 H   0  0  0  0  0  0  0  0  0  0  0  0
   -2.2840    2.1290   -0.4023 H   0  0  0  0  0  0  0  0  0  0  0  0
   -5.3818    0.1846   -0.4856 H   0  0  0  0  0  0  0  0  0  0  0  0
   -5.1626   -2.3575   -1.0915 H   0  0  0  0  0  0  0  0  0  0  0  0
   -0.5614    0.4704    0.5235 H   0  0  0  0  0  0  0  0  0  0  0  0
    0.3239   -2.4503    0.5786 H   0  0  0  0  0  0  0  0  0  0  0  0
   -0.9225   -1.9616    1.7146 H   0  0  0  0  0  0  0  0  0  0  0  0
    2.5094    0.0031    2.3586 H   0  0  0  0  0  0  0  0  0  0  0  0
    4.1912    0.9115    1.3708 H   0  0  0  0  0  0  0  0  0  0  0  0
    5.3748    1.7187   -0.6039 H   0  0  0  0  0  0  0  0  0  0  0  0
    4.3590    1.4587   -2.8554 H   0  0  0  0  0  0  0  0  0  0  0  0
    2.1587    0.4214   -3.0903 H   0  0  0  0  0  0  0  0  0  0  0  0
  1  2  1  0
  2  3  1  0
  3  4  2  0
  4  5  1  0
  5  6  1  0
  6  7  1  0
  7  8  1  0
  8  9  1  0
  9 10  2  0
  9 11  1  0
 11 12  1  0
 12 13  2  0
 13 14  1  0
 14 15  2  0
 15 16  1  0
 16 17  2  0
 17 18  1  0
  6  2  2  0
 18  7  1  0
 17 12  1  0
  1 19  1  0
  1 20  1  0
  1 21  1  0
  3 22  1  0
  4 23  1  0
  7 24  1  0
  8 25  1  0
  8 26  1  0
 11 27  1  0
 13 28  1  0
 14 29  1  0
 15 30  1  0
 16 31  1  0
M  END
$$$$
