
     RDKit          3D

 57 59  0  0  0  0  0  0  0  0999 V2000
    7.2330   -1.4496   -3.6684 C   0  0  0  0  0  0  0  0  0  0  0  0
    6.5500   -2.4033   -2.8669 O   0  0  0  0  0  0  0  0  0  0  0  0
    6.2688   -2.0404   -1.5789 C   0  0  0  0  0  0  0  0  0  0  0  0
    6.6239   -0.8383   -0.9676 C   0  0  0  0  0  0  0  0  0  0  0  0
    6.2770   -0.5957    0.3668 C   0  0  0  0  0  0  0  0  0  0  0  0
    5.5758   -1.5552    1.1089 C   0  0  0  0  0  0  0  0  0  0  0  0
    5.1826   -1.2917    2.5386 C   0  0  0  0  0  0  0  0  0  0  0  0
    3.9044   -0.6356    2.6105 N   0  0  0  0  0  0  0  0  0  0  0  0
    2.7262   -1.3343    2.7218 C   0  0  0  0  0  0  0  0  0  0  0  0
    2.6084   -2.5370    2.9110 O   0  0  0  0  0  0  0  0  0  0  0  0
    1.4701   -0.4476    2.5592 C   0  0  0  0  0  0  0  0  0  0  0  0
    1.5847    0.7472    2.3205 O   0  0  0  0  0  0  0  0  0  0  0  0
    0.2862   -1.1375    2.6710 N   0  0  0  0  0  0  0  0  0  0  0  0
   -0.9888   -0.5266    2.3286 C   0  0  0  0  0  0  0  0  0  0  0  0
   -1.1364   -0.2152    0.8205 C   0  0  0  0  0  0  0  0  0  0  0  0
   -0.8513   -1.4393    0.0968 O   0  0  0  0  0  0  0  0  0  0  0  0
   -1.8742   -1.6077   -0.8862 C   0  0  0  0  0  0  0  0  0  0  0  0
   -3.0874   -0.9432   -0.2836 C   0  0  0  0  0  0  0  0  0  0  0  0
   -2.4796    0.2180    0.3723 N   0  0  0  0  0  0  0  0  0  0  0  0
   -3.4112    1.1449    1.4120 S   0  0  0  0  0  6  0  0  0  0  0  0
   -4.0325    0.2457    2.3628 O   0  0  0  0  0  0  0  0  0  0  0  0
   -2.6143    2.2694    1.8512 O   0  0  0  0  0  0  0  0  0  0  0  0
   -4.6673    1.7764    0.3292 C   0  0  0  0  0  0  0  0  0  0  0  0
   -4.3287    2.7701   -0.5967 C   0  0  0  0  0  0  0  0  0  0  0  0
   -5.3054    3.2746   -1.4604 C   0  0  0  0  0  0  0  0  0  0  0  0
   -6.6160    2.7920   -1.3938 C   0  0  0  0  0  0  0  0  0  0  0  0
   -7.6591    3.1962   -2.1795 O   0  0  0  0  0  0  0  0  0  0  0  0
   -7.4080    4.2727   -3.0766 C   0  0  0  0  0  0  0  0  0  0  0  0
   -6.9417    1.8000   -0.4584 C   0  0  0  0  0  0  0  0  0  0  0  0
   -5.9739    1.2915    0.4096 C   0  0  0  0  0  0  0  0  0  0  0  0
    5.2098   -2.7534    0.4848 C   0  0  0  0  0  0  0  0  0  0  0  0
    5.5597   -2.9932   -0.8455 C   0  0  0  0  0  0  0  0  0  0  0  0
    7.3762   -1.8892   -4.6604 H   0  0  0  0  0  0  0  0  0  0  0  0
    8.2233   -1.2243   -3.2593 H   0  0  0  0  0  0  0  0  0  0  0  0
    6.6376   -0.5381   -3.7915 H   0  0  0  0  0  0  0  0  0  0  0  0
    7.1717   -0.0679   -1.4990 H   0  0  0  0  0  0  0  0  0  0  0  0
    6.5611    0.3496    0.8234 H   0  0  0  0  0  0  0  0  0  0  0  0
    5.1577   -2.2283    3.1058 H   0  0  0  0  0  0  0  0  0  0  0  0
    5.9178   -0.6402    3.0214 H   0  0  0  0  0  0  0  0  0  0  0  0
    3.8214    0.3358    2.3297 H   0  0  0  0  0  0  0  0  0  0  0  0
    0.3665   -2.1512    2.6660 H   0  0  0  0  0  0  0  0  0  0  0  0
   -1.0877    0.3827    2.9261 H   0  0  0  0  0  0  0  0  0  0  0  0
   -1.7539   -1.2402    2.6477 H   0  0  0  0  0  0  0  0  0  0  0  0
   -0.3999    0.5273    0.5003 H   0  0  0  0  0  0  0  0  0  0  0  0
   -2.0281   -2.6689   -1.0954 H   0  0  0  0  0  0  0  0  0  0  0  0
   -1.5527   -1.1051   -1.8045 H   0  0  0  0  0  0  0  0  0  0  0  0
   -3.8118   -0.6656   -1.0526 H   0  0  0  0  0  0  0  0  0  0  0  0
   -3.5568   -1.6026    0.4544 H   0  0  0  0  0  0  0  0  0  0  0  0
   -3.3108    3.1529   -0.6482 H   0  0  0  0  0  0  0  0  0  0  0  0
   -5.0114    4.0408   -2.1723 H   0  0  0  0  0  0  0  0  0  0  0  0
   -6.6746    3.9848   -3.8370 H   0  0  0  0  0  0  0  0  0  0  0  0
   -8.3452    4.5071   -3.5909 H   0  0  0  0  0  0  0  0  0  0  0  0
   -7.0917    5.1713   -2.5380 H   0  0  0  0  0  0  0  0  0  0  0  0
   -7.9630    1.4260   -0.4053 H   0  0  0  0  0  0  0  0  0  0  0  0
   -6.2486    0.5272    1.1351 H   0  0  0  0  0  0  0  0  0  0  0  0
    4.6451   -3.5069    1.0311 H   0  0  0  0  0  0  0  0  0  0  0  0
    5.2733   -3.9312   -1.3141 H   0  0  0  0  0  0  0  0  0  0  0  0
  1  2  1  0
  2  3  1  0
  3  4  2  0
  4  5  1  0
  5  6  2  0
  6  7  1  0
  7  8  1  0
  8  9  1  0
  9 10  2  0
  9 11  1  0
 11 12  2  0
 11 13  1  0
 13 14  1  0
 14 15  1  0
 15 16  1  0
 16 17  1  0
 17 18  1  0
 18 19  1  0
 19 20  1  0
 20 21  2  0
 20 22  2  0
 20 23  1  0
 23 24  2  0
 24 25  1  0
 25 26  2  0
 26 27  1  0
 27 28  1  0
 26 29  1  0
 29 30  2  0
  6 31  1  0
 31 32  2  0
 32  3  1  0
 19 15  1  0
 30 23  1  0
  1 33  1  0
  1 34  1  0
  1 35  1  0
  4 36  1  0
  5 37  1  0
  7 38  1  0
  7 39  1  0
  8 40  1  0
 13 41  1  0
 14 42  1  0
 14 43  1  0
 15 44  1  0
 17 45  1  0
 17 46  1  0
 18 47  1  0
 18 48  1  0
 24 49  1  0
 25 50  1  0
 28 51  1  0
 28 52  1  0
 28 53  1  0
 29 54  1  0
 30 55  1  0
 31 56  1  0
 32 57  1  0
M  END
$$$$
