
     RDKit          3D

 56 60  0  0  0  0  0  0  0  0999 V2000
   -6.3034   -1.8518    0.1710 C   0  0  0  0  0  0  0  0  0  0  0  0
   -5.2997   -1.8456   -0.8624 N   0  0  0  0  0  0  0  0  0  0  0  0
   -4.4134   -2.8418   -1.1602 C   0  0  0  0  0  0  0  0  0  0  0  0
   -4.3463   -4.3690   -0.3568 S   0  0  0  0  0  0  0  0  0  0  0  0
   -2.7112   -4.9651   -0.8909 C   0  0  0  0  0  0  0  0  0  0  0  0
   -1.5959   -4.2299   -0.1585 C   0  0  0  0  0  0  0  0  0  0  0  0
   -1.1100   -4.6935    0.8709 O   0  0  0  0  0  0  0  0  0  0  0  0
   -1.2268   -3.0436   -0.7690 N   0  0  0  0  0  0  0  0  0  0  0  0
   -0.2124   -2.1450   -0.3832 C   0  0  0  0  0  0  0  0  0  0  0  0
   -0.1218   -0.9541   -1.1094 C   0  0  0  0  0  0  0  0  0  0  0  0
    0.8623   -0.0006   -0.8193 C   0  0  0  0  0  0  0  0  0  0  0  0
    1.7794   -0.2410    0.2199 C   0  0  0  0  0  0  0  0  0  0  0  0
    2.8077    0.6021    0.6079 N   0  0  0  0  0  0  0  0  0  0  0  0
    3.4665    0.0621    1.6057 C   0  0  0  0  0  0  0  0  0  0  0  0
    4.8494    0.8516    2.3352 S   0  0  0  0  0  0  0  0  0  0  0  0
    5.0436    2.2660    1.2069 C   0  0  0  0  0  0  0  0  0  0  0  0
    6.2837    3.0822    1.5309 C   0  0  0  0  0  0  0  0  0  0  0  0
    6.2853    4.3103    1.4545 O   0  0  0  0  0  0  0  0  0  0  0  0
    7.4190    2.3411    1.8099 N   0  0  0  0  0  0  0  0  0  0  0  0
    8.6734    2.9448    2.1208 C   0  0  0  0  0  0  0  0  0  0  0  0
    9.8214    2.1109    2.6211 C   0  0  0  0  0  0  0  0  0  0  0  0
    9.1329    3.0711    3.5456 C   0  0  0  0  0  0  0  0  0  0  0  0
    2.9061   -1.4619    2.1456 S   0  0  0  0  0  0  0  0  0  0  0  0
    1.6744   -1.4309    0.9405 C   0  0  0  0  0  0  0  0  0  0  0  0
    0.6885   -2.3946    0.6567 C   0  0  0  0  0  0  0  0  0  0  0  0
   -3.5990   -2.4469   -2.1092 N   0  0  0  0  0  0  0  0  0  0  0  0
   -3.9322   -1.1589   -2.4302 N   0  0  0  0  0  0  0  0  0  0  0  0
   -4.9842   -0.8038   -1.7109 C   0  0  0  0  0  0  0  0  0  0  0  0
   -5.6523    0.4916   -1.7802 C   0  0  0  0  0  0  0  0  0  0  0  0
   -4.8904    1.6635   -1.6905 C   0  0  0  0  0  0  0  0  0  0  0  0
   -5.5042    2.9164   -1.7563 C   0  0  0  0  0  0  0  0  0  0  0  0
   -6.8845    3.0082   -1.9221 C   0  0  0  0  0  0  0  0  0  0  0  0
   -7.6507    1.8486   -2.0320 C   0  0  0  0  0  0  0  0  0  0  0  0
   -7.0376    0.5944   -1.9648 C   0  0  0  0  0  0  0  0  0  0  0  0
   -5.9291   -2.3862    1.0477 H   0  0  0  0  0  0  0  0  0  0  0  0
   -6.5380   -0.8294    0.4757 H   0  0  0  0  0  0  0  0  0  0  0  0
   -7.1954   -2.3454   -0.2234 H   0  0  0  0  0  0  0  0  0  0  0  0
   -2.5873   -4.8784   -1.9758 H   0  0  0  0  0  0  0  0  0  0  0  0
   -2.6308   -6.0306   -0.6473 H   0  0  0  0  0  0  0  0  0  0  0  0
   -1.8195   -2.7339   -1.5428 H   0  0  0  0  0  0  0  0  0  0  0  0
   -0.8209   -0.7439   -1.9172 H   0  0  0  0  0  0  0  0  0  0  0  0
    0.9241    0.9204   -1.3908 H   0  0  0  0  0  0  0  0  0  0  0  0
    5.1344    1.9203    0.1710 H   0  0  0  0  0  0  0  0  0  0  0  0
    4.1679    2.9180    1.2989 H   0  0  0  0  0  0  0  0  0  0  0  0
    7.3025    1.3443    1.9640 H   0  0  0  0  0  0  0  0  0  0  0  0
    8.9275    3.7643    1.4507 H   0  0  0  0  0  0  0  0  0  0  0  0
   10.8149    2.3652    2.2717 H   0  0  0  0  0  0  0  0  0  0  0  0
    9.6690    1.0519    2.7895 H   0  0  0  0  0  0  0  0  0  0  0  0
    8.5009    2.6670    4.3284 H   0  0  0  0  0  0  0  0  0  0  0  0
    9.6552    3.9790    3.8236 H   0  0  0  0  0  0  0  0  0  0  0  0
    0.6556   -3.3045    1.2435 H   0  0  0  0  0  0  0  0  0  0  0  0
   -3.8102    1.6055   -1.5703 H   0  0  0  0  0  0  0  0  0  0  0  0
   -4.9031    3.8197   -1.6823 H   0  0  0  0  0  0  0  0  0  0  0  0
   -7.3612    3.9845   -1.9783 H   0  0  0  0  0  0  0  0  0  0  0  0
   -8.7249    1.9223   -2.1795 H   0  0  0  0  0  0  0  0  0  0  0  0
   -7.6496   -0.2970   -2.0806 H   0  0  0  0  0  0  0  0  0  0  0  0
  1  2  1  0
  2  3  1  0
  3  4  1  0
  4  5  1  0
  5  6  1  0
  6  7  2  0
  6  8  1  0
  8  9  1  0
  9 10  2  0
 10 11  1  0
 11 12  2  0
 12 13  1  0
 13 14  2  0
 14 15  1  0
 15 16  1  0
 16 17  1  0
 17 18  2  0
 17 19  1  0
 19 20  1  0
 20 21  1  0
 21 22  1  0
 14 23  1  0
 23 24  1  0
 24 25  2  0
  3 26  2  0
 26 27  1  0
 27 28  2  0
 28 29  1  0
 29 30  2  0
 30 31  1  0
 31 32  2  0
 32 33  1  0
 33 34  2  0
 28  2  1  0
 34 29  1  0
 25  9  1  0
 24 12  1  0
 22 20  1  0
  1 35  1  0
  1 36  1  0
  1 37  1  0
  5 38  1  0
  5 39  1  0
  8 40  1  0
 10 41  1  0
 11 42  1  0
 16 43  1  0
 16 44  1  0
 19 45  1  0
 20 46  1  0
 21 47  1  0
 21 48  1  0
 22 49  1  0
 22 50  1  0
 25 51  1  0
 30 52  1  0
 31 53  1  0
 32 54  1  0
 33 55  1  0
 34 56  1  0
M  END
$$$$
