
     RDKit          3D

 45 49  0  0  0  0  0  0  0  0999 V2000
    1.1116   -0.1824   -1.8710 O   0  0  0  0  0  0  0  0  0  0  0  0
    1.5719   -0.0952   -0.7421 C   0  0  0  0  0  0  0  0  0  0  0  0
    0.9293    0.3331    0.3852 O   0  0  0  0  0  0  0  0  0  0  0  0
   -0.4527    0.5023    0.1955 C   0  0  0  0  0  0  0  0  0  0  0  0
   -1.3405   -0.5158    0.3163 C   0  0  0  0  0  0  0  0  0  0  0  0
   -0.8638   -1.8725    0.6388 C   0  0  0  0  0  0  0  0  0  0  0  0
   -0.6746   -2.8134   -0.3810 C   0  0  0  0  0  0  0  0  0  0  0  0
   -0.1817   -4.0846   -0.0824 C   0  0  0  0  0  0  0  0  0  0  0  0
    0.1238   -4.4232    1.2352 C   0  0  0  0  0  0  0  0  0  0  0  0
   -0.0639   -3.4929    2.2566 C   0  0  0  0  0  0  0  0  0  0  0  0
   -0.5553   -2.2202    1.9607 C   0  0  0  0  0  0  0  0  0  0  0  0
   -2.8247   -0.2748    0.1180 C   0  0  0  0  0  0  0  0  0  0  0  0
   -3.6457   -1.1844    0.2039 O   0  0  0  0  0  0  0  0  0  0  0  0
   -3.1788    1.0219   -0.1486 N   0  0  0  0  0  0  0  0  0  0  0  0
   -2.2594    2.0509   -0.2345 C   0  0  0  0  0  0  0  0  0  0  0  0
   -2.8758    3.2630   -0.4981 C   0  0  0  0  0  0  0  0  0  0  0  0
   -2.1014    4.4001   -0.6091 C   0  0  0  0  0  0  0  0  0  0  0  0
   -0.7121    4.2725   -0.4475 C   0  0  0  0  0  0  0  0  0  0  0  0
   -0.1139    3.0206   -0.1798 C   0  0  0  0  0  0  0  0  0  0  0  0
   -0.9016    1.8749   -0.0703 C   0  0  0  0  0  0  0  0  0  0  0  0
   -4.3576    3.0734   -0.6157 C   0  0  0  0  0  0  0  0  0  0  0  0
   -4.5218    1.5512   -0.3758 C   0  0  0  0  0  0  0  0  0  0  0  0
    2.9858   -0.4296   -0.4173 C   0  0  0  0  0  0  0  0  0  0  0  0
    3.8776   -0.6333   -1.4824 C   0  0  0  0  0  0  0  0  0  0  0  0
    5.2127   -0.9561   -1.2303 C   0  0  0  0  0  0  0  0  0  0  0  0
    5.6515   -1.0793    0.0828 C   0  0  0  0  0  0  0  0  0  0  0  0
    6.9314   -1.3895    0.3243 F   0  0  0  0  0  0  0  0  0  0  0  0
    4.7805   -0.8885    1.1501 C   0  0  0  0  0  0  0  0  0  0  0  0
    3.4437   -0.5647    0.9032 C   0  0  0  0  0  0  0  0  0  0  0  0
   -0.9055   -2.5582   -1.4135 H   0  0  0  0  0  0  0  0  0  0  0  0
   -0.0401   -4.8106   -0.8788 H   0  0  0  0  0  0  0  0  0  0  0  0
    0.5021   -5.4158    1.4662 H   0  0  0  0  0  0  0  0  0  0  0  0
    0.1666   -3.7609    3.2843 H   0  0  0  0  0  0  0  0  0  0  0  0
   -0.7009   -1.5043    2.7661 H   0  0  0  0  0  0  0  0  0  0  0  0
   -2.5466    5.3679   -0.8166 H   0  0  0  0  0  0  0  0  0  0  0  0
   -0.0811    5.1554   -0.5331 H   0  0  0  0  0  0  0  0  0  0  0  0
    0.9652    2.9654   -0.0653 H   0  0  0  0  0  0  0  0  0  0  0  0
   -4.8927    3.6487    0.1459 H   0  0  0  0  0  0  0  0  0  0  0  0
   -4.7159    3.3530   -1.6110 H   0  0  0  0  0  0  0  0  0  0  0  0
   -5.1438    1.3392    0.5008 H   0  0  0  0  0  0  0  0  0  0  0  0
   -4.9640    1.0455   -1.2411 H   0  0  0  0  0  0  0  0  0  0  0  0
    3.5341   -0.5427   -2.5118 H   0  0  0  0  0  0  0  0  0  0  0  0
    5.9091   -1.1146   -2.0480 H   0  0  0  0  0  0  0  0  0  0  0  0
    5.1464   -0.9980    2.1666 H   0  0  0  0  0  0  0  0  0  0  0  0
    2.7726   -0.4335    1.7488 H   0  0  0  0  0  0  0  0  0  0  0  0
  1  2  2  0
  2  3  1  0
  3  4  1  0
  4  5  2  0
  5  6  1  0
  6  7  2  0
  7  8  1  0
  8  9  2  0
  9 10  1  0
 10 11  2  0
  5 12  1  0
 12 13  2  0
 12 14  1  0
 14 15  1  0
 15 16  2  0
 16 17  1  0
 17 18  2  0
 18 19  1  0
 19 20  2  0
 16 21  1  0
 21 22  1  0
  2 23  1  0
 23 24  2  0
 24 25  1  0
 25 26  2  0
 26 27  1  0
 26 28  1  0
 28 29  2  0
 20  4  1  0
 29 23  1  0
 11  6  1  0
 22 14  1  0
 20 15  1  0
  7 30  1  0
  8 31  1  0
  9 32  1  0
 10 33  1  0
 11 34  1  0
 17 35  1  0
 18 36  1  0
 19 37  1  0
 21 38  1  0
 21 39  1  0
 22 40  1  0
 22 41  1  0
 24 42  1  0
 25 43  1  0
 28 44  1  0
 29 45  1  0
M  END
$$$$
