
     RDKit          3D

 53 56  0  0  0  0  0  0  0  0999 V2000
    7.7290   -1.9026   -0.5573 C   0  0  0  0  0  0  0  0  0  0  0  0
    7.6505   -0.5067   -0.8407 O   0  0  0  0  0  0  0  0  0  0  0  0
    6.4488    0.1110   -0.5988 C   0  0  0  0  0  0  0  0  0  0  0  0
    6.4619    1.4945   -0.7806 C   0  0  0  0  0  0  0  0  0  0  0  0
    5.3076    2.2460   -0.5678 C   0  0  0  0  0  0  0  0  0  0  0  0
    4.1285    1.6094   -0.1779 C   0  0  0  0  0  0  0  0  0  0  0  0
    4.0935    0.2208   -0.0017 C   0  0  0  0  0  0  0  0  0  0  0  0
    2.8481   -0.3374    0.3640 N   0  0  0  0  0  0  0  0  0  0  0  0
    2.5361   -1.6641    0.5767 C   0  0  0  0  0  0  0  0  0  0  0  0
    3.3296   -2.6030    0.4993 O   0  0  0  0  0  0  0  0  0  0  0  0
    1.0550   -1.9643    0.7900 C   0  0  0  0  0  0  0  0  0  0  0  0
    0.2270   -0.8672    1.9787 S   0  0  0  0  0  0  0  0  0  0  0  0
   -0.2909    0.4022    0.9167 C   0  0  0  0  0  0  0  0  0  0  0  0
    0.5020    1.3984    0.6030 N   0  0  0  0  0  0  0  0  0  0  0  0
   -0.1140    2.1266   -0.3666 N   0  0  0  0  0  0  0  0  0  0  0  0
   -1.2860    1.5733   -0.6288 C   0  0  0  0  0  0  0  0  0  0  0  0
   -2.3433    2.2102   -1.4789 C   0  0  0  0  0  0  0  0  0  0  0  0
   -3.5189    2.6932   -0.6696 C   0  0  0  0  0  0  0  0  0  0  0  0
   -3.5288    3.6285    0.3515 C   0  0  0  0  0  0  0  0  0  0  0  0
   -4.8323    3.8296    0.8914 C   0  0  0  0  0  0  0  0  0  0  0  0
   -5.7750    3.0431    0.2645 C   0  0  0  0  0  0  0  0  0  0  0  0
   -5.0937    2.0875   -0.9773 S   0  0  0  0  0  0  0  0  0  0  0  0
   -1.4279    0.4151    0.1257 N   0  0  0  0  0  0  0  0  0  0  0  0
   -2.4726   -0.5394    0.0666 C   0  0  0  0  0  0  0  0  0  0  0  0
   -3.0198   -1.0573    1.2443 C   0  0  0  0  0  0  0  0  0  0  0  0
   -4.0493   -1.9984    1.1751 C   0  0  0  0  0  0  0  0  0  0  0  0
   -4.5370   -2.4362   -0.0642 C   0  0  0  0  0  0  0  0  0  0  0  0
   -5.6368   -3.4543   -0.1188 C   0  0  0  0  0  0  0  0  0  0  0  0
   -3.9746   -1.9251   -1.2379 C   0  0  0  0  0  0  0  0  0  0  0  0
   -2.9498   -0.9786   -1.1766 C   0  0  0  0  0  0  0  0  0  0  0  0
    5.2613   -0.5217   -0.2107 C   0  0  0  0  0  0  0  0  0  0  0  0
    7.5161   -2.0994    0.4995 H   0  0  0  0  0  0  0  0  0  0  0  0
    8.7536   -2.2270   -0.7578 H   0  0  0  0  0  0  0  0  0  0  0  0
    7.0686   -2.4787   -1.2149 H   0  0  0  0  0  0  0  0  0  0  0  0
    7.3817    1.9885   -1.0881 H   0  0  0  0  0  0  0  0  0  0  0  0
    5.3234    3.3230   -0.7095 H   0  0  0  0  0  0  0  0  0  0  0  0
    3.2354    2.2136   -0.0219 H   0  0  0  0  0  0  0  0  0  0  0  0
    2.0994    0.3432    0.4907 H   0  0  0  0  0  0  0  0  0  0  0  0
    0.5461   -1.9606   -0.1867 H   0  0  0  0  0  0  0  0  0  0  0  0
    0.9764   -2.9831    1.2022 H   0  0  0  0  0  0  0  0  0  0  0  0
   -2.6469    1.5452   -2.2957 H   0  0  0  0  0  0  0  0  0  0  0  0
   -1.9036    3.0887   -1.9739 H   0  0  0  0  0  0  0  0  0  0  0  0
   -2.6382    4.1445    0.6993 H   0  0  0  0  0  0  0  0  0  0  0  0
   -5.0658    4.5147    1.6966 H   0  0  0  0  0  0  0  0  0  0  0  0
   -6.8368    2.9910    0.4711 H   0  0  0  0  0  0  0  0  0  0  0  0
   -2.6999   -0.7145    2.2275 H   0  0  0  0  0  0  0  0  0  0  0  0
   -4.4780   -2.3828    2.0984 H   0  0  0  0  0  0  0  0  0  0  0  0
   -6.4936   -3.1184    0.4787 H   0  0  0  0  0  0  0  0  0  0  0  0
   -5.9898   -3.6119   -1.1446 H   0  0  0  0  0  0  0  0  0  0  0  0
   -5.2787   -4.4143    0.2677 H   0  0  0  0  0  0  0  0  0  0  0  0
   -4.3293   -2.2637   -2.2122 H   0  0  0  0  0  0  0  0  0  0  0  0
   -2.5166   -0.6375   -2.1128 H   0  0  0  0  0  0  0  0  0  0  0  0
    5.2481   -1.5932   -0.0756 H   0  0  0  0  0  0  0  0  0  0  0  0
  1  2  1  0
  2  3  1  0
  3  4  2  0
  4  5  1  0
  5  6  2  0
  6  7  1  0
  7  8  1  0
  8  9  1  0
  9 10  2  0
  9 11  1  0
 11 12  1  0
 12 13  1  0
 13 14  2  0
 14 15  1  0
 15 16  2  0
 16 17  1  0
 17 18  1  0
 18 19  2  0
 19 20  1  0
 20 21  2  0
 21 22  1  0
 16 23  1  0
 23 24  1  0
 24 25  2  0
 25 26  1  0
 26 27  2  0
 27 28  1  0
 27 29  1  0
 29 30  2  0
  7 31  2  0
 31  3  1  0
 23 13  1  0
 30 24  1  0
 22 18  1  0
  1 32  1  0
  1 33  1  0
  1 34  1  0
  4 35  1  0
  5 36  1  0
  6 37  1  0
  8 38  1  0
 11 39  1  0
 11 40  1  0
 17 41  1  0
 17 42  1  0
 19 43  1  0
 20 44  1  0
 21 45  1  0
 25 46  1  0
 26 47  1  0
 28 48  1  0
 28 49  1  0
 28 50  1  0
 29 51  1  0
 30 52  1  0
 31 53  1  0
M  END
$$$$
