
     RDKit          3D

 42 44  0  0  0  0  0  0  0  0999 V2000
   -4.6509    1.4290    0.6722 C   0  0  0  0  0  0  0  0  0  0  0  0
   -3.7538    1.0724   -0.4766 C   0  0  0  0  0  0  0  0  0  0  0  0
   -4.2793    0.9302   -1.7608 C   0  0  0  0  0  0  0  0  0  0  0  0
   -3.4660    0.5839   -2.8441 C   0  0  0  0  0  0  0  0  0  0  0  0
   -2.0985    0.3632   -2.6102 C   0  0  0  0  0  0  0  0  0  0  0  0
   -1.5441    0.4569   -1.3320 C   0  0  0  0  0  0  0  0  0  0  0  0
   -2.3887    0.8257   -0.2585 C   0  0  0  0  0  0  0  0  0  0  0  0
   -0.1561    0.1394   -1.4548 C   0  0  0  0  0  0  0  0  0  0  0  0
    0.8319    0.0903   -0.4217 C   0  0  0  0  0  0  0  0  0  0  0  0
    0.6455   -0.4701    0.7853 C   0  0  0  0  0  0  0  0  0  0  0  0
    1.6616   -0.5227    1.8415 C   0  0  0  0  0  0  0  0  0  0  0  0
    3.0087   -0.7607    1.5728 C   0  0  0  0  0  0  0  0  0  0  0  0
    3.9202   -0.8283    2.6206 C   0  0  0  0  0  0  0  0  0  0  0  0
    3.5129   -0.6689    3.8994 N   0  0  0  0  0  4  0  0  0  0  0  0
    4.4955   -0.7532    4.9931 C   0  0  0  0  0  0  0  0  0  0  0  0
    2.2089   -0.4609    4.1868 C   0  0  0  0  0  0  0  0  0  0  0  0
    1.2630   -0.3880    3.1704 C   0  0  0  0  0  0  0  0  0  0  0  0
    0.1153   -0.1128   -2.7898 C   0  0  0  0  0  0  0  0  0  0  0  0
    1.3866   -0.4992   -3.4676 C   0  0  0  0  0  0  0  0  0  0  0  0
   -1.0720    0.0427   -3.4786 N   0  0  0  0  0  0  0  0  0  0  0  0
   -1.2411   -0.1110   -4.9103 C   0  0  0  0  0  0  0  0  0  0  0  0
   -5.4766    2.0673    0.3402 H   0  0  0  0  0  0  0  0  0  0  0  0
   -5.0637    0.5200    1.1204 H   0  0  0  0  0  0  0  0  0  0  0  0
   -4.1010    1.9839    1.4397 H   0  0  0  0  0  0  0  0  0  0  0  0
   -5.3402    1.0990   -1.9377 H   0  0  0  0  0  0  0  0  0  0  0  0
   -3.8956    0.4938   -3.8369 H   0  0  0  0  0  0  0  0  0  0  0  0
   -1.9767    0.9282    0.7402 H   0  0  0  0  0  0  0  0  0  0  0  0
    1.7926    0.5333   -0.6722 H   0  0  0  0  0  0  0  0  0  0  0  0
   -0.3167   -0.9215    1.0234 H   0  0  0  0  0  0  0  0  0  0  0  0
    3.3582   -0.9088    0.5528 H   0  0  0  0  0  0  0  0  0  0  0  0
    4.9760   -1.0159    2.4458 H   0  0  0  0  0  0  0  0  0  0  0  0
    5.4652   -0.4012    4.6316 H   0  0  0  0  0  0  0  0  0  0  0  0
    4.5513   -1.7996    5.3028 H   0  0  0  0  0  0  0  0  0  0  0  0
    4.1663   -0.1186    5.8200 H   0  0  0  0  0  0  0  0  0  0  0  0
    1.9314   -0.3570    5.2320 H   0  0  0  0  0  0  0  0  0  0  0  0
    0.2175   -0.2182    3.4226 H   0  0  0  0  0  0  0  0  0  0  0  0
    1.2303   -1.3538   -4.1340 H   0  0  0  0  0  0  0  0  0  0  0  0
    1.7742    0.3391   -4.0552 H   0  0  0  0  0  0  0  0  0  0  0  0
    2.1571   -0.7891   -2.7467 H   0  0  0  0  0  0  0  0  0  0  0  0
   -2.0024    0.5882   -5.2642 H   0  0  0  0  0  0  0  0  0  0  0  0
   -0.3025    0.1153   -5.4206 H   0  0  0  0  0  0  0  0  0  0  0  0
   -1.5443   -1.1425   -5.1052 H   0  0  0  0  0  0  0  0  0  0  0  0
  1  2  1  0
  2  3  2  0
  3  4  1  0
  4  5  2  0
  5  6  1  0
  6  7  2  0
  6  8  1  0
  8  9  1  0
  9 10  2  3
 10 11  1  0
 11 12  2  0
 12 13  1  0
 13 14  2  0
 14 15  1  0
 14 16  1  0
 16 17  2  0
  8 18  2  0
 18 19  1  0
 18 20  1  0
 20 21  1  0
  7  2  1  0
 17 11  1  0
 20  5  1  0
  1 22  1  0
  1 23  1  0
  1 24  1  0
  3 25  1  0
  4 26  1  0
  7 27  1  0
  9 28  1  0
 10 29  1  0
 12 30  1  0
 13 31  1  0
 15 32  1  0
 15 33  1  0
 15 34  1  0
 16 35  1  0
 17 36  1  0
 19 37  1  0
 19 38  1  0
 19 39  1  0
 21 40  1  0
 21 41  1  0
 21 42  1  0
M  CHG  1  14   1
M  END
$$$$
