
     RDKit          3D

 37 38  0  0  0  0  0  0  0  0999 V2000
    5.7908    1.0011    0.6802 C   0  0  0  0  0  0  0  0  0  0  0  0
    4.5047    1.4877    0.0370 C   0  0  0  0  0  0  0  0  0  0  0  0
    3.4422    0.5053    0.1276 N   0  0  0  0  0  0  0  0  0  0  0  0
    2.4482    0.4595    1.0597 C   0  0  0  0  0  0  0  0  0  0  0  0
    1.6785   -0.6458    0.7542 C   0  0  0  0  0  0  0  0  0  0  0  0
    0.4746   -1.1449    1.4618 C   0  0  0  0  0  0  0  0  0  0  0  0
   -0.6892   -0.5791    0.8209 N   0  0  0  0  0  0  0  0  0  0  0  0
   -1.9464   -1.0294    1.1533 C   0  0  0  0  0  0  0  0  0  0  0  0
   -2.1449   -1.9512    1.9360 O   0  0  0  0  0  0  0  0  0  0  0  0
   -3.0979   -0.3146    0.5349 C   0  0  0  0  0  0  0  0  0  0  0  0
   -4.3355   -0.3575    1.1947 C   0  0  0  0  0  0  0  0  0  0  0  0
   -5.4518    0.2880    0.6577 C   0  0  0  0  0  0  0  0  0  0  0  0
   -5.3435    0.9774   -0.5494 C   0  0  0  0  0  0  0  0  0  0  0  0
   -4.1114    1.0089   -1.2170 C   0  0  0  0  0  0  0  0  0  0  0  0
   -3.9974    1.7284   -2.4918 N   0  0  0  0  0  4  0  0  0  0  0  0
   -2.8648    1.8566   -2.9776 O   0  0  0  0  0  0  0  0  0  0  0  0
   -5.0369    2.1694   -3.0008 O   0  0  0  0  0  1  0  0  0  0  0  0
   -2.9853    0.3624   -0.6854 C   0  0  0  0  0  0  0  0  0  0  0  0
    2.2999   -1.1950   -0.4021 C   0  0  0  0  0  0  0  0  0  0  0  0
    1.8914   -2.3958   -1.1733 C   0  0  0  0  0  0  0  0  0  0  0  0
    3.3686   -0.4829   -0.7785 N   0  0  0  0  0  0  0  0  0  0  0  0
    5.6395    0.7744    1.7410 H   0  0  0  0  0  0  0  0  0  0  0  0
    6.1569    0.0909    0.1936 H   0  0  0  0  0  0  0  0  0  0  0  0
    6.5686    1.7668    0.6014 H   0  0  0  0  0  0  0  0  0  0  0  0
    4.1549    2.4035    0.5259 H   0  0  0  0  0  0  0  0  0  0  0  0
    4.6598    1.7121   -1.0241 H   0  0  0  0  0  0  0  0  0  0  0  0
    2.3749    1.1922    1.8512 H   0  0  0  0  0  0  0  0  0  0  0  0
    0.4722   -0.8322    2.5119 H   0  0  0  0  0  0  0  0  0  0  0  0
    0.4129   -2.2381    1.4343 H   0  0  0  0  0  0  0  0  0  0  0  0
   -0.5760    0.3250    0.3840 H   0  0  0  0  0  0  0  0  0  0  0  0
   -4.4321   -0.8989    2.1356 H   0  0  0  0  0  0  0  0  0  0  0  0
   -6.4049    0.2483    1.1813 H   0  0  0  0  0  0  0  0  0  0  0  0
   -6.2217    1.4753   -0.9566 H   0  0  0  0  0  0  0  0  0  0  0  0
   -2.0448    0.3638   -1.2307 H   0  0  0  0  0  0  0  0  0  0  0  0
    1.9696   -3.2922   -0.5501 H   0  0  0  0  0  0  0  0  0  0  0  0
    0.8547   -2.2983   -1.5111 H   0  0  0  0  0  0  0  0  0  0  0  0
    2.5216   -2.5412   -2.0568 H   0  0  0  0  0  0  0  0  0  0  0  0
  1  2  1  0
  2  3  1  0
  3  4  1  0
  4  5  2  0
  5  6  1  0
  6  7  1  0
  7  8  1  0
  8  9  2  0
  8 10  1  0
 10 11  2  0
 11 12  1  0
 12 13  2  0
 13 14  1  0
 14 15  1  0
 15 16  2  0
 15 17  1  0
 14 18  2  0
  5 19  1  0
 19 20  1  0
 19 21  2  0
 21  3  1  0
 18 10  1  0
  1 22  1  0
  1 23  1  0
  1 24  1  0
  2 25  1  0
  2 26  1  0
  4 27  1  0
  6 28  1  0
  6 29  1  0
  7 30  1  0
 11 31  1  0
 12 32  1  0
 13 33  1  0
 18 34  1  0
 20 35  1  0
 20 36  1  0
 20 37  1  0
M  CHG  2  15   1  17  -1
M  END
$$$$
