
     RDKit          3D

 59 61  0  0  0  0  0  0  0  0999 V2000
   -8.2041    0.0290   -0.3264 C   0  0  0  0  0  0  0  0  0  0  0  0
   -6.9234    0.4073   -0.2050 C   0  0  0  0  0  0  0  0  0  0  0  0
   -5.8249   -0.2552    0.6335 C   0  0  0  0  0  0  0  0  0  0  0  0
   -6.2643   -1.5581    1.3471 C   0  0  0  0  0  0  0  0  0  0  0  0
   -5.5319    0.7641    1.7664 C   0  0  0  0  0  0  0  0  0  0  0  0
   -4.5938   -0.5601   -0.2576 C   0  0  0  0  0  0  0  0  0  0  0  0
   -3.3326    0.0223   -0.0050 C   0  0  0  0  0  0  0  0  0  0  0  0
   -2.1986   -0.2387   -0.8044 C   0  0  0  0  0  0  0  0  0  0  0  0
   -0.8784    0.4283   -0.4565 C   0  0  2  0  0  0  0  0  0  0  0  0
   -0.3971    1.3726   -1.5504 C   0  0  0  0  0  0  0  0  0  0  0  0
    0.8816    2.0032   -1.0828 C   0  0  0  0  0  0  0  0  0  0  0  0
    1.2250    3.1382   -1.4077 O   0  0  0  0  0  0  0  0  0  0  0  0
    1.7750    1.1728   -0.2506 C   0  0  0  0  0  0  0  0  0  0  0  0
    1.3294   -0.0905    0.1352 C   0  0  0  0  0  0  0  0  0  0  0  0
    2.1754   -0.9297    0.8524 C   0  0  0  0  0  0  0  0  0  0  0  0
    3.4513   -0.4933    1.2097 C   0  0  0  0  0  0  0  0  0  0  0  0
    4.2160   -1.3951    1.8964 O   0  0  0  0  0  0  0  0  0  0  0  0
    3.9101    0.7928    0.8793 C   0  0  0  0  0  0  0  0  0  0  0  0
    5.2749    1.2871    1.3139 C   0  0  0  0  0  0  0  0  0  0  0  0
    6.3829    0.7341    0.4558 C   0  0  0  0  0  0  0  0  0  0  0  0
    7.4778    0.0450    0.8361 C   0  0  0  0  0  0  0  0  0  0  0  0
    7.8417   -0.3143    2.2506 C   0  0  0  0  0  0  0  0  0  0  0  0
    8.4765   -0.4238   -0.1918 C   0  0  0  0  0  0  0  0  0  0  0  0
    3.0548    1.6153    0.1245 C   0  0  0  0  0  0  0  0  0  0  0  0
    3.5157    2.8573   -0.2385 O   0  0  0  0  0  0  0  0  0  0  0  0
    0.0923   -0.5912   -0.1715 O   0  0  0  0  0  0  0  0  0  0  0  0
   -2.3411   -1.1133   -1.8832 C   0  0  0  0  0  0  0  0  0  0  0  0
   -1.2598   -1.3834   -2.6728 O   0  0  0  0  0  0  0  0  0  0  0  0
   -3.5671   -1.7081   -2.1665 C   0  0  0  0  0  0  0  0  0  0  0  0
   -4.6752   -1.4301   -1.3614 C   0  0  0  0  0  0  0  0  0  0  0  0
   -5.8682   -2.0266   -1.6664 O   0  0  0  0  0  0  0  0  0  0  0  0
   -8.8840    0.5860   -0.9636 H   0  0  0  0  0  0  0  0  0  0  0  0
   -8.6054   -0.8390    0.1845 H   0  0  0  0  0  0  0  0  0  0  0  0
   -6.6076    1.2870   -0.7665 H   0  0  0  0  0  0  0  0  0  0  0  0
   -5.4295   -1.9968    1.9078 H   0  0  0  0  0  0  0  0  0  0  0  0
   -7.0732   -1.3695    2.0635 H   0  0  0  0  0  0  0  0  0  0  0  0
   -6.6243   -2.3254    0.6549 H   0  0  0  0  0  0  0  0  0  0  0  0
   -4.7690    0.3900    2.4599 H   0  0  0  0  0  0  0  0  0  0  0  0
   -5.1884    1.7293    1.3736 H   0  0  0  0  0  0  0  0  0  0  0  0
   -6.4316    0.9646    2.3626 H   0  0  0  0  0  0  0  0  0  0  0  0
   -3.2061    0.6985    0.8369 H   0  0  0  0  0  0  0  0  0  0  0  0
   -1.0195    1.0003    0.4732 H   0  0  0  0  0  0  0  0  0  0  0  0
   -1.1384    2.1585   -1.7318 H   0  0  0  0  0  0  0  0  0  0  0  0
   -0.1794    0.8657   -2.4956 H   0  0  0  0  0  0  0  0  0  0  0  0
    1.8448   -1.9259    1.1351 H   0  0  0  0  0  0  0  0  0  0  0  0
    5.1514   -1.1542    1.7865 H   0  0  0  0  0  0  0  0  0  0  0  0
    5.4014    1.0480    2.3742 H   0  0  0  0  0  0  0  0  0  0  0  0
    5.3244    2.3815    1.2714 H   0  0  0  0  0  0  0  0  0  0  0  0
    6.2546    0.9521   -0.6061 H   0  0  0  0  0  0  0  0  0  0  0  0
    8.8241    0.0992    2.5024 H   0  0  0  0  0  0  0  0  0  0  0  0
    7.8877   -1.4028    2.3605 H   0  0  0  0  0  0  0  0  0  0  0  0
    7.1338    0.0599    2.9923 H   0  0  0  0  0  0  0  0  0  0  0  0
    8.1847   -0.1513   -1.2115 H   0  0  0  0  0  0  0  0  0  0  0  0
    8.5737   -1.5138   -0.1549 H   0  0  0  0  0  0  0  0  0  0  0  0
    9.4581    0.0205    0.0030 H   0  0  0  0  0  0  0  0  0  0  0  0
    2.8167    3.3100   -0.7639 H   0  0  0  0  0  0  0  0  0  0  0  0
   -1.4714   -2.1246   -3.2636 H   0  0  0  0  0  0  0  0  0  0  0  0
   -3.6623   -2.3826   -3.0103 H   0  0  0  0  0  0  0  0  0  0  0  0
   -5.7853   -2.5231   -2.4952 H   0  0  0  0  0  0  0  0  0  0  0  0
  1  2  2  0
  2  3  1  0
  3  4  1  0
  3  5  1  0
  3  6  1  0
  6  7  2  0
  7  8  1  0
  8  9  1  0
  9 10  1  0
 10 11  1  0
 11 12  2  0
 11 13  1  0
 13 14  2  0
 14 15  1  0
 15 16  2  0
 16 17  1  0
 16 18  1  0
 18 19  1  0
 19 20  1  0
 20 21  2  3
 21 22  1  0
 21 23  1  0
 18 24  2  0
 24 25  1  0
 14 26  1  0
  8 27  2  0
 27 28  1  0
 27 29  1  0
 29 30  2  0
 30 31  1  0
 30  6  1  0
 26  9  1  0
 24 13  1  0
  1 32  1  0
  1 33  1  0
  2 34  1  0
  4 35  1  0
  4 36  1  0
  4 37  1  0
  5 38  1  0
  5 39  1  0
  5 40  1  0
  7 41  1  0
  9 42  1  1
 10 43  1  0
 10 44  1  0
 15 45  1  0
 17 46  1  0
 19 47  1  0
 19 48  1  0
 20 49  1  0
 22 50  1  0
 22 51  1  0
 22 52  1  0
 23 53  1  0
 23 54  1  0
 23 55  1  0
 25 56  1  0
 28 57  1  0
 29 58  1  0
 31 59  1  0
M  END
$$$$
