
     RDKit          3D

 41 43  0  0  0  0  0  0  0  0999 V2000
    2.6563    0.9242   -1.7590 O   0  0  0  0  0  0  0  0  0  0  0  0
    1.6837    1.5040   -1.2809 C   0  0  0  0  0  0  0  0  0  0  0  0
    1.8752    2.7788   -0.4763 C   0  0  0  0  0  0  0  0  0  0  0  0
    1.5919    2.5176    1.3013 S   0  0  0  0  0  0  0  0  0  0  0  0
    2.7344    1.1615    1.5812 C   0  0  0  0  0  0  0  0  0  0  0  0
    4.1056    1.4353    1.7209 C   0  0  0  0  0  0  0  0  0  0  0  0
    5.0141    0.3986    1.9222 C   0  0  0  0  0  0  0  0  0  0  0  0
    4.5649   -0.9137    1.9878 C   0  0  0  0  0  0  0  0  0  0  0  0
    3.2037   -1.1764    1.8565 C   0  0  0  0  0  0  0  0  0  0  0  0
    2.2756   -0.1623    1.6588 N   0  0  0  0  0  4  0  0  0  0  0  0
    1.0401   -0.4662    1.5568 O   0  0  0  0  0  1  0  0  0  0  0  0
    0.3607    1.1328   -1.4011 N   0  0  0  0  0  0  0  0  0  0  0  0
   -0.1726    0.0176   -2.0835 C   0  0  0  0  0  0  0  0  0  0  0  0
    0.5904   -0.8673   -2.8470 C   0  0  0  0  0  0  0  0  0  0  0  0
   -0.0162   -1.9547   -3.4871 C   0  0  0  0  0  0  0  0  0  0  0  0
   -1.3902   -2.1642   -3.3770 C   0  0  0  0  0  0  0  0  0  0  0  0
   -2.1662   -1.2859   -2.6252 C   0  0  0  0  0  0  0  0  0  0  0  0
   -1.5561   -0.2087   -1.9736 C   0  0  0  0  0  0  0  0  0  0  0  0
   -2.3189    0.7090   -1.2758 O   0  0  0  0  0  0  0  0  0  0  0  0
   -3.0537    0.2133   -0.2225 C   0  0  0  0  0  0  0  0  0  0  0  0
   -2.4863   -0.5736    0.7814 C   0  0  0  0  0  0  0  0  0  0  0  0
   -3.2754   -1.0101    1.8461 C   0  0  0  0  0  0  0  0  0  0  0  0
   -4.6225   -0.6520    1.9119 C   0  0  0  0  0  0  0  0  0  0  0  0
   -5.1816    0.1521    0.9180 C   0  0  0  0  0  0  0  0  0  0  0  0
   -4.3944    0.5929   -0.1463 C   0  0  0  0  0  0  0  0  0  0  0  0
    1.1824    3.5439   -0.8415 H   0  0  0  0  0  0  0  0  0  0  0  0
    2.8907    3.1554   -0.6379 H   0  0  0  0  0  0  0  0  0  0  0  0
    4.4693    2.4589    1.6686 H   0  0  0  0  0  0  0  0  0  0  0  0
    6.0756    0.6173    2.0219 H   0  0  0  0  0  0  0  0  0  0  0  0
    5.2647   -1.7314    2.1380 H   0  0  0  0  0  0  0  0  0  0  0  0
    2.7582   -2.1591    1.8920 H   0  0  0  0  0  0  0  0  0  0  0  0
   -0.3144    1.6248   -0.8213 H   0  0  0  0  0  0  0  0  0  0  0  0
    1.6619   -0.7423   -2.9622 H   0  0  0  0  0  0  0  0  0  0  0  0
    0.5912   -2.6384   -4.0751 H   0  0  0  0  0  0  0  0  0  0  0  0
   -1.8548   -3.0075   -3.8808 H   0  0  0  0  0  0  0  0  0  0  0  0
   -3.2390   -1.4381   -2.5511 H   0  0  0  0  0  0  0  0  0  0  0  0
   -1.4314   -0.8387    0.7553 H   0  0  0  0  0  0  0  0  0  0  0  0
   -2.8311   -1.6212    2.6278 H   0  0  0  0  0  0  0  0  0  0  0  0
   -5.2328   -0.9920    2.7446 H   0  0  0  0  0  0  0  0  0  0  0  0
   -6.2280    0.4393    0.9758 H   0  0  0  0  0  0  0  0  0  0  0  0
   -4.8251    1.2268   -0.9160 H   0  0  0  0  0  0  0  0  0  0  0  0
  1  2  2  0
  2  3  1  0
  3  4  1  0
  4  5  1  0
  5  6  2  0
  6  7  1  0
  7  8  2  0
  8  9  1  0
  9 10  2  0
 10 11  1  0
  2 12  1  0
 12 13  1  0
 13 14  2  0
 14 15  1  0
 15 16  2  0
 16 17  1  0
 17 18  2  0
 18 19  1  0
 19 20  1  0
 20 21  2  0
 21 22  1  0
 22 23  2  0
 23 24  1  0
 24 25  2  0
 10  5  1  0
 18 13  1  0
 25 20  1  0
  3 26  1  0
  3 27  1  0
  6 28  1  0
  7 29  1  0
  8 30  1  0
  9 31  1  0
 12 32  1  0
 14 33  1  0
 15 34  1  0
 16 35  1  0
 17 36  1  0
 21 37  1  0
 22 38  1  0
 23 39  1  0
 24 40  1  0
 25 41  1  0
M  CHG  2  10   1  11  -1
M  END
$$$$
