
     RDKit          3D

 60 62  0  0  0  0  0  0  0  0999 V2000
   -5.0905   -1.1362    1.9969 C   0  0  0  0  0  0  0  0  0  0  0  0
   -3.9699   -0.1618    1.7796 C   0  0  0  0  0  0  0  0  0  0  0  0
   -2.6407   -0.5876    1.8551 C   0  0  0  0  0  0  0  0  0  0  0  0
   -1.5989    0.3087    1.6187 C   0  0  0  0  0  0  0  0  0  0  0  0
   -1.8761    1.6429    1.2758 C   0  0  0  0  0  0  0  0  0  0  0  0
   -0.4694    2.7109    0.9671 S   0  0  0  0  0  6  0  0  0  0  0  0
    0.6936    2.1131    1.5966 O   0  0  0  0  0  0  0  0  0  0  0  0
   -0.8421    4.0765    1.2697 O   0  0  0  0  0  0  0  0  0  0  0  0
   -0.2948    2.6279   -0.7128 N   0  0  0  0  0  0  0  0  0  0  0  0
   -0.0572    1.3596   -1.3296 C   0  0  0  0  0  0  0  0  0  0  0  0
    1.1980    0.7757   -1.1244 C   0  0  0  0  0  0  0  0  0  0  0  0
    1.5036   -0.4820   -1.6489 C   0  0  0  0  0  0  0  0  0  0  0  0
    2.8781   -1.1231   -1.4726 C   0  0  0  0  0  0  0  0  0  0  0  0
    3.6276   -0.6484   -0.2504 C   0  0  0  0  0  0  0  0  0  0  0  0
    4.5996    0.0935   -0.2857 O   0  0  0  0  0  0  0  0  0  0  0  0
    3.0697   -1.1624    0.8833 O   0  0  0  0  0  0  0  0  0  0  0  0
    3.6140   -0.6923    2.1315 C   0  0  0  0  0  0  0  0  0  0  0  0
    4.8583   -1.4961    2.4869 C   0  0  0  0  0  0  0  0  0  0  0  0
    2.5286   -0.8779    3.1849 C   0  0  0  0  0  0  0  0  0  0  0  0
    3.7392   -0.9689   -2.7169 C   0  0  0  0  0  0  0  0  0  0  0  0
    3.5316   -0.1012   -3.5720 O   0  0  0  0  0  0  0  0  0  0  0  0
    4.8427   -2.0035   -2.8418 C   0  0  0  0  0  0  0  0  0  0  0  0
    5.5793   -2.1391   -1.7031 F   0  0  0  0  0  0  0  0  0  0  0  0
    5.7236   -1.7427   -3.8446 F   0  0  0  0  0  0  0  0  0  0  0  0
    4.3304   -3.2412   -3.0967 F   0  0  0  0  0  0  0  0  0  0  0  0
    0.5239   -1.1263   -2.4205 C   0  0  0  0  0  0  0  0  0  0  0  0
    0.9041   -2.3198   -2.9868 O   0  0  0  0  0  0  0  0  0  0  0  0
   -0.7668   -0.5784   -2.6314 C   0  0  0  0  0  0  0  0  0  0  0  0
   -1.7866   -1.2541   -3.3462 C   0  0  0  0  0  0  0  0  0  0  0  0
   -3.0493   -0.6900   -3.5404 C   0  0  0  0  0  0  0  0  0  0  0  0
   -3.3292    0.5623   -3.0188 C   0  0  0  0  0  0  0  0  0  0  0  0
   -2.3481    1.2450   -2.3024 C   0  0  0  0  0  0  0  0  0  0  0  0
   -1.0596    0.6978   -2.0842 C   0  0  0  0  0  0  0  0  0  0  0  0
   -3.2093    2.0966    1.1920 C   0  0  0  0  0  0  0  0  0  0  0  0
   -3.5939    3.5135    0.8595 C   0  0  0  0  0  0  0  0  0  0  0  0
   -4.2417    1.1732    1.4452 C   0  0  0  0  0  0  0  0  0  0  0  0
   -5.9934   -0.6258    2.3525 H   0  0  0  0  0  0  0  0  0  0  0  0
   -4.8194   -1.8813    2.7532 H   0  0  0  0  0  0  0  0  0  0  0  0
   -5.3239   -1.6502    1.0603 H   0  0  0  0  0  0  0  0  0  0  0  0
   -2.4051   -1.6227    2.0998 H   0  0  0  0  0  0  0  0  0  0  0  0
   -0.5709   -0.0475    1.6855 H   0  0  0  0  0  0  0  0  0  0  0  0
   -0.8419    3.3237   -1.2142 H   0  0  0  0  0  0  0  0  0  0  0  0
    1.9444    1.3370   -0.5618 H   0  0  0  0  0  0  0  0  0  0  0  0
    2.7294   -2.2047   -1.3273 H   0  0  0  0  0  0  0  0  0  0  0  0
    3.8529    0.3766    2.0626 H   0  0  0  0  0  0  0  0  0  0  0  0
    4.6503   -2.5742    2.4681 H   0  0  0  0  0  0  0  0  0  0  0  0
    5.6566   -1.3190    1.7564 H   0  0  0  0  0  0  0  0  0  0  0  0
    5.2358   -1.2264    3.4775 H   0  0  0  0  0  0  0  0  0  0  0  0
    2.8533   -0.5070    4.1615 H   0  0  0  0  0  0  0  0  0  0  0  0
    1.6240   -0.3390    2.8911 H   0  0  0  0  0  0  0  0  0  0  0  0
    2.2460   -1.9305    3.2849 H   0  0  0  0  0  0  0  0  0  0  0  0
    0.3912   -2.4439   -3.8039 H   0  0  0  0  0  0  0  0  0  0  0  0
   -1.6257   -2.2518   -3.7472 H   0  0  0  0  0  0  0  0  0  0  0  0
   -3.8111   -1.2341   -4.0931 H   0  0  0  0  0  0  0  0  0  0  0  0
   -4.3114    1.0053   -3.1573 H   0  0  0  0  0  0  0  0  0  0  0  0
   -2.6142    2.2178   -1.9008 H   0  0  0  0  0  0  0  0  0  0  0  0
   -3.1083    3.8458   -0.0623 H   0  0  0  0  0  0  0  0  0  0  0  0
   -4.6735    3.6112    0.6983 H   0  0  0  0  0  0  0  0  0  0  0  0
   -3.3275    4.1768    1.6859 H   0  0  0  0  0  0  0  0  0  0  0  0
   -5.2791    1.4999    1.3812 H   0  0  0  0  0  0  0  0  0  0  0  0
  1  2  1  0
  2  3  2  0
  3  4  1  0
  4  5  2  0
  5  6  1  0
  6  7  2  0
  6  8  2  0
  6  9  1  0
  9 10  1  0
 10 11  2  0
 11 12  1  0
 12 13  1  0
 13 14  1  0
 14 15  2  0
 14 16  1  0
 16 17  1  0
 17 18  1  0
 17 19  1  0
 13 20  1  0
 20 21  2  0
 20 22  1  0
 22 23  1  0
 22 24  1  0
 22 25  1  0
 12 26  2  0
 26 27  1  0
 26 28  1  0
 28 29  2  0
 29 30  1  0
 30 31  2  0
 31 32  1  0
 32 33  2  0
  5 34  1  0
 34 35  1  0
 34 36  2  0
 36  2  1  0
 33 10  1  0
 33 28  1  0
  1 37  1  0
  1 38  1  0
  1 39  1  0
  3 40  1  0
  4 41  1  0
  9 42  1  0
 11 43  1  0
 13 44  1  0
 17 45  1  0
 18 46  1  0
 18 47  1  0
 18 48  1  0
 19 49  1  0
 19 50  1  0
 19 51  1  0
 27 52  1  0
 29 53  1  0
 30 54  1  0
 31 55  1  0
 32 56  1  0
 35 57  1  0
 35 58  1  0
 35 59  1  0
 36 60  1  0
M  END
$$$$
