
     RDKit          3D

 42 45  0  0  0  0  0  0  0  0999 V2000
    2.4937    2.2968   -0.4071 O   0  0  0  0  0  0  0  0  0  0  0  0
    2.7639    1.1016   -0.4935 C   0  0  0  0  0  0  0  0  0  0  0  0
    4.0737    0.6461    0.0270 C   0  0  0  0  0  0  0  0  0  0  0  0
    4.8989   -0.1903   -0.7387 C   0  0  0  0  0  0  0  0  0  0  0  0
    6.1425   -0.5856   -0.2415 C   0  0  0  0  0  0  0  0  0  0  0  0
    6.5630   -0.1338    1.0095 C   0  0  0  0  0  0  0  0  0  0  0  0
    5.7441    0.7158    1.7487 C   0  0  0  0  0  0  0  0  0  0  0  0
    6.1610    1.1529    2.9441 F   0  0  0  0  0  0  0  0  0  0  0  0
    4.5049    1.1183    1.2683 C   0  0  0  0  0  0  0  0  0  0  0  0
    1.9096    0.1632   -1.0769 N   0  0  0  0  0  0  0  0  0  0  0  0
    0.6560    0.6687   -1.6428 C   0  0  0  0  0  0  0  0  0  0  0  0
   -0.4638    0.6436   -0.5926 C   0  0  0  0  0  0  0  0  0  0  0  0
   -0.6000   -0.6937    0.0186 N   0  0  0  0  0  0  0  0  0  0  0  0
   -1.7692   -1.0961    0.6849 C   0  0  0  0  0  0  0  0  0  0  0  0
   -1.7139   -1.8442    1.6632 O   0  0  0  0  0  0  0  0  0  0  0  0
   -3.0837   -0.6442    0.1828 C   0  0  0  0  0  0  0  0  0  0  0  0
   -4.2757   -0.5991    0.9504 C   0  0  0  0  0  0  0  0  0  0  0  0
   -5.2632   -0.1785    0.0950 C   0  0  0  0  0  0  0  0  0  0  0  0
   -6.5971    0.0557    0.2854 N   0  0  0  0  0  0  0  0  0  0  0  0
   -7.2562    0.4427   -0.7682 C   0  0  0  0  0  0  0  0  0  0  0  0
   -6.6889    0.6482   -2.1364 C   0  0  0  0  0  0  0  0  0  0  0  0
   -7.7914    1.2038   -3.5111 Br  0  0  0  0  0  0  0  0  0  0  0  0
   -5.3779    0.4016   -2.2511 C   0  0  0  0  0  0  0  0  0  0  0  0
   -4.6462   -0.0133   -1.1454 N   0  0  0  0  0  0  0  0  0  0  0  0
   -3.3251   -0.3024   -1.0972 N   0  0  0  0  0  0  0  0  0  0  0  0
    0.6596   -1.2729    0.5036 C   0  0  0  0  0  0  0  0  0  0  0  0
    1.7803   -1.2023   -0.5493 C   0  0  0  0  0  0  0  0  0  0  0  0
    4.5805   -0.5233   -1.7239 H   0  0  0  0  0  0  0  0  0  0  0  0
    6.7855   -1.2351   -0.8306 H   0  0  0  0  0  0  0  0  0  0  0  0
    7.5285   -0.4281    1.4100 H   0  0  0  0  0  0  0  0  0  0  0  0
    3.8904    1.7938    1.8554 H   0  0  0  0  0  0  0  0  0  0  0  0
    0.7917    1.6833   -2.0320 H   0  0  0  0  0  0  0  0  0  0  0  0
    0.3950    0.0202   -2.4876 H   0  0  0  0  0  0  0  0  0  0  0  0
   -0.2319    1.3356    0.2269 H   0  0  0  0  0  0  0  0  0  0  0  0
   -1.3888    0.9970   -1.0437 H   0  0  0  0  0  0  0  0  0  0  0  0
   -4.3918   -0.8466    1.9963 H   0  0  0  0  0  0  0  0  0  0  0  0
   -8.3358    0.6432   -0.6624 H   0  0  0  0  0  0  0  0  0  0  0  0
   -4.8233    0.5031   -3.1737 H   0  0  0  0  0  0  0  0  0  0  0  0
    0.9472   -0.7147    1.4034 H   0  0  0  0  0  0  0  0  0  0  0  0
    0.5028   -2.3176    0.7945 H   0  0  0  0  0  0  0  0  0  0  0  0
    1.5404   -1.8540   -1.3976 H   0  0  0  0  0  0  0  0  0  0  0  0
    2.7107   -1.5594   -0.1038 H   0  0  0  0  0  0  0  0  0  0  0  0
  1  2  2  0
  2  3  1  0
  3  4  2  0
  4  5  1  0
  5  6  2  0
  6  7  1  0
  7  8  1  0
  7  9  2  0
  2 10  1  0
 10 11  1  0
 11 12  1  0
 12 13  1  0
 13 14  1  0
 14 15  2  0
 14 16  1  0
 16 17  1  0
 17 18  2  0
 18 19  1  0
 19 20  2  0
 20 21  1  0
 21 22  1  0
 21 23  2  0
 23 24  1  0
 24 25  1  0
 13 26  1  0
 26 27  1  0
  9  3  1  0
 27 10  1  0
 25 16  2  0
 24 18  1  0
  4 28  1  0
  5 29  1  0
  6 30  1  0
  9 31  1  0
 11 32  1  0
 11 33  1  0
 12 34  1  0
 12 35  1  0
 17 36  1  0
 20 37  1  0
 23 38  1  0
 26 39  1  0
 26 40  1  0
 27 41  1  0
 27 42  1  0
M  END
$$$$
