
     RDKit          3D

 37 38  0  0  0  0  0  0  0  0999 V2000
    0.2651    0.9244   -0.7029 O   0  0  0  0  0  0  0  0  0  0  0  0
    0.7659    0.3741    0.2699 C   0  0  0  0  0  0  0  0  0  0  0  0
   -0.0488   -0.0094    1.4985 C   0  0  0  0  0  0  0  0  0  0  0  0
   -1.5467    0.2518    1.3473 C   0  0  0  0  0  0  0  0  0  0  0  0
   -2.2225   -0.7549    0.4104 C   0  0  0  0  0  0  0  0  0  0  0  0
   -3.7033   -0.4924    0.2933 C   0  0  0  0  0  0  0  0  0  0  0  0
   -4.1816    0.4488   -0.6283 C   0  0  0  0  0  0  0  0  0  0  0  0
   -5.5491    0.7076   -0.7297 C   0  0  0  0  0  0  0  0  0  0  0  0
   -6.4498    0.0317    0.0913 C   0  0  0  0  0  0  0  0  0  0  0  0
   -5.9838   -0.9019    1.0154 C   0  0  0  0  0  0  0  0  0  0  0  0
   -4.6162   -1.1621    1.1184 C   0  0  0  0  0  0  0  0  0  0  0  0
    2.1011    0.0312    0.4236 N   0  0  0  0  0  0  0  0  0  0  0  0
    3.1505    0.2265   -0.4991 C   0  0  0  0  0  0  0  0  0  0  0  0
    2.9860    0.8101   -1.7587 C   0  0  0  0  0  0  0  0  0  0  0  0
    4.0749    0.9714   -2.6239 C   0  0  0  0  0  0  0  0  0  0  0  0
    5.3458    0.5501   -2.2408 C   0  0  0  0  0  0  0  0  0  0  0  0
    5.5164   -0.0348   -0.9823 C   0  0  0  0  0  0  0  0  0  0  0  0
    6.8495   -0.4841   -0.5644 N   0  0  0  0  0  4  0  0  0  0  0  0
    6.9567   -0.9990    0.5582 O   0  0  0  0  0  0  0  0  0  0  0  0
    7.7888   -0.3232   -1.3562 O   0  0  0  0  0  1  0  0  0  0  0  0
    4.4272   -0.1983   -0.1118 C   0  0  0  0  0  0  0  0  0  0  0  0
    0.1287   -1.0656    1.7322 H   0  0  0  0  0  0  0  0  0  0  0  0
    0.3286    0.5896    2.3364 H   0  0  0  0  0  0  0  0  0  0  0  0
   -1.7173    1.2759    0.9921 H   0  0  0  0  0  0  0  0  0  0  0  0
   -2.0116    0.1856    2.3395 H   0  0  0  0  0  0  0  0  0  0  0  0
   -2.0611   -1.7761    0.7785 H   0  0  0  0  0  0  0  0  0  0  0  0
   -1.7754   -0.7241   -0.5902 H   0  0  0  0  0  0  0  0  0  0  0  0
   -3.4869    0.9860   -1.2714 H   0  0  0  0  0  0  0  0  0  0  0  0
   -5.9102    1.4377   -1.4489 H   0  0  0  0  0  0  0  0  0  0  0  0
   -7.5145    0.2339    0.0118 H   0  0  0  0  0  0  0  0  0  0  0  0
   -6.6860   -1.4273    1.6571 H   0  0  0  0  0  0  0  0  0  0  0  0
   -4.2678   -1.8907    1.8464 H   0  0  0  0  0  0  0  0  0  0  0  0
    2.3541   -0.4045    1.3027 H   0  0  0  0  0  0  0  0  0  0  0  0
    2.0156    1.1549   -2.1052 H   0  0  0  0  0  0  0  0  0  0  0  0
    3.9222    1.4288   -3.5996 H   0  0  0  0  0  0  0  0  0  0  0  0
    6.1803    0.6832   -2.9260 H   0  0  0  0  0  0  0  0  0  0  0  0
    4.5754   -0.6549    0.8642 H   0  0  0  0  0  0  0  0  0  0  0  0
  1  2  2  0
  2  3  1  0
  3  4  1  0
  4  5  1  0
  5  6  1  0
  6  7  2  0
  7  8  1  0
  8  9  2  0
  9 10  1  0
 10 11  2  0
  2 12  1  0
 12 13  1  0
 13 14  2  0
 14 15  1  0
 15 16  2  0
 16 17  1  0
 17 18  1  0
 18 19  2  0
 18 20  1  0
 17 21  2  0
 11  6  1  0
 21 13  1  0
  3 22  1  0
  3 23  1  0
  4 24  1  0
  4 25  1  0
  5 26  1  0
  5 27  1  0
  7 28  1  0
  8 29  1  0
  9 30  1  0
 10 31  1  0
 11 32  1  0
 12 33  1  0
 14 34  1  0
 15 35  1  0
 16 36  1  0
 21 37  1  0
M  CHG  2  18   1  20  -1
M  END
$$$$
