
     RDKit          3D

 74 79  0  0  0  0  0  0  0  0999 V2000
    9.5541   -1.1400   -3.4984 C   0  0  0  0  0  0  0  0  0  0  0  0
    8.4253   -0.2806   -3.5963 O   0  0  0  0  0  0  0  0  0  0  0  0
    7.3561   -0.5734   -2.7970 C   0  0  0  0  0  0  0  0  0  0  0  0
    6.2806    0.3055   -2.9137 C   0  0  0  0  0  0  0  0  0  0  0  0
    5.1186    0.1222   -2.1539 C   0  0  0  0  0  0  0  0  0  0  0  0
    4.9968   -0.9508   -1.2553 C   0  0  0  0  0  0  0  0  0  0  0  0
    3.7792   -1.1694   -0.4456 C   0  0  0  0  0  0  0  0  0  0  0  0
    2.5127   -0.8135   -0.8736 C   0  0  0  0  0  0  0  0  0  0  0  0
    1.4321   -1.0464   -0.0221 C   0  0  0  0  0  0  0  0  0  0  0  0
    0.1114   -0.5888   -0.5081 C   0  0  0  0  0  0  0  0  0  0  0  0
   -0.3116   -1.0457   -1.5609 O   0  0  0  0  0  0  0  0  0  0  0  0
   -0.4773    0.3603    0.2941 N   0  0  0  0  0  0  0  0  0  0  0  0
   -1.7309    0.9893    0.1360 C   0  0  0  0  0  0  0  0  0  0  0  0
   -2.5756    0.7455   -0.9471 C   0  0  0  0  0  0  0  0  0  0  0  0
   -3.8485    1.3154   -0.9655 C   0  0  0  0  0  0  0  0  0  0  0  0
   -4.9328    1.0037   -2.3440 S   0  0  0  0  0  6  0  0  0  0  0  0
   -5.9810    2.0027   -2.2965 O   0  0  0  0  0  0  0  0  0  0  0  0
   -4.1099    0.8415   -3.5224 O   0  0  0  0  0  0  0  0  0  0  0  0
   -5.6312   -0.4878   -1.9676 N   0  0  0  0  0  0  0  0  0  0  0  0
   -4.8035   -1.7114   -2.1501 C   0  0  0  0  0  0  0  0  0  0  0  0
   -5.5882   -2.9385   -1.6729 C   0  0  0  0  0  0  0  0  0  0  0  0
   -5.9110   -2.8906   -0.2741 O   0  0  0  0  0  0  0  0  0  0  0  0
   -6.0671   -1.5580    0.2319 C   0  0  0  0  0  0  0  0  0  0  0  0
   -6.5712   -0.5611   -0.8165 C   0  0  0  0  0  0  0  0  0  0  0  0
   -4.2617    2.1650    0.0619 C   0  0  0  0  0  0  0  0  0  0  0  0
   -3.4014    2.4340    1.1302 C   0  0  0  0  0  0  0  0  0  0  0  0
   -2.1212    1.8689    1.1857 C   0  0  0  0  0  0  0  0  0  0  0  0
   -1.2024    2.1391    2.2175 N   0  0  0  0  0  0  0  0  0  0  0  0
   -1.6899    2.2872    3.6072 C   0  0  0  0  0  0  0  0  0  0  0  0
   -1.9515    3.7483    4.0123 C   0  0  0  0  0  0  0  0  0  0  0  0
   -0.8528    4.6099    3.6877 O   0  0  0  0  0  0  0  0  0  0  0  0
   -0.5804    4.5589    2.2793 C   0  0  0  0  0  0  0  0  0  0  0  0
   -0.1672    3.1441    1.8567 C   0  0  0  0  0  0  0  0  0  0  0  0
    1.6048   -1.6727    1.2303 C   0  0  0  0  0  0  0  0  0  0  0  0
    0.5593   -2.0047    2.1308 C   0  0  0  0  0  0  0  0  0  0  0  0
    0.8306   -2.6183    3.3518 C   0  0  0  0  0  0  0  0  0  0  0  0
    2.1427   -2.9164    3.6883 C   0  0  0  0  0  0  0  0  0  0  0  0
    3.1722   -2.6072    2.7966 C   0  0  0  0  0  0  0  0  0  0  0  0
    2.9286   -1.9980    1.5726 C   0  0  0  0  0  0  0  0  0  0  0  0
    3.9744   -1.7479    0.7665 N   0  0  0  0  0  0  0  0  0  0  0  0
    6.0978   -1.8198   -1.1465 C   0  0  0  0  0  0  0  0  0  0  0  0
    7.2617   -1.6391   -1.9071 C   0  0  0  0  0  0  0  0  0  0  0  0
    9.2999   -2.1630   -3.7958 H   0  0  0  0  0  0  0  0  0  0  0  0
   10.3149   -0.7714   -4.1932 H   0  0  0  0  0  0  0  0  0  0  0  0
    9.9829   -1.1150   -2.4911 H   0  0  0  0  0  0  0  0  0  0  0  0
    6.3464    1.1457   -3.6012 H   0  0  0  0  0  0  0  0  0  0  0  0
    4.3169    0.8471   -2.2698 H   0  0  0  0  0  0  0  0  0  0  0  0
    2.3466   -0.3690   -1.8497 H   0  0  0  0  0  0  0  0  0  0  0  0
   -0.0141    0.6271    1.1601 H   0  0  0  0  0  0  0  0  0  0  0  0
   -2.2654    0.1140   -1.7735 H   0  0  0  0  0  0  0  0  0  0  0  0
   -3.8816   -1.6329   -1.5683 H   0  0  0  0  0  0  0  0  0  0  0  0
   -4.5565   -1.8282   -3.2098 H   0  0  0  0  0  0  0  0  0  0  0  0
   -5.0068   -3.8499   -1.8438 H   0  0  0  0  0  0  0  0  0  0  0  0
   -6.5275   -3.0380   -2.2291 H   0  0  0  0  0  0  0  0  0  0  0  0
   -5.0983   -1.2382    0.6333 H   0  0  0  0  0  0  0  0  0  0  0  0
   -6.7665   -1.6068    1.0724 H   0  0  0  0  0  0  0  0  0  0  0  0
   -6.7184    0.4170   -0.3505 H   0  0  0  0  0  0  0  0  0  0  0  0
   -7.5417   -0.8863   -1.2090 H   0  0  0  0  0  0  0  0  0  0  0  0
   -5.2425    2.6360    0.0335 H   0  0  0  0  0  0  0  0  0  0  0  0
   -3.7514    3.1136    1.8977 H   0  0  0  0  0  0  0  0  0  0  0  0
   -2.5753    1.6674    3.7908 H   0  0  0  0  0  0  0  0  0  0  0  0
   -0.8970    1.8952    4.2565 H   0  0  0  0  0  0  0  0  0  0  0  0
   -2.1020    3.8021    5.0957 H   0  0  0  0  0  0  0  0  0  0  0  0
   -2.8566    4.1491    3.5467 H   0  0  0  0  0  0  0  0  0  0  0  0
    0.2365    5.2585    2.0763 H   0  0  0  0  0  0  0  0  0  0  0  0
   -1.4618    4.9048    1.7268 H   0  0  0  0  0  0  0  0  0  0  0  0
    0.0716    3.1270    0.7867 H   0  0  0  0  0  0  0  0  0  0  0  0
    0.7477    2.8680    2.3953 H   0  0  0  0  0  0  0  0  0  0  0  0
   -0.4803   -1.8016    1.8805 H   0  0  0  0  0  0  0  0  0  0  0  0
    0.0194   -2.8684    4.0311 H   0  0  0  0  0  0  0  0  0  0  0  0
    2.3716   -3.3979    4.6357 H   0  0  0  0  0  0  0  0  0  0  0  0
    4.1981   -2.8542    3.0630 H   0  0  0  0  0  0  0  0  0  0  0  0
    6.0519   -2.6621   -0.4570 H   0  0  0  0  0  0  0  0  0  0  0  0
    8.0687   -2.3510   -1.7754 H   0  0  0  0  0  0  0  0  0  0  0  0
  1  2  1  0
  2  3  1  0
  3  4  2  0
  4  5  1  0
  5  6  2  0
  6  7  1  0
  7  8  2  0
  8  9  1  0
  9 10  1  0
 10 11  2  0
 10 12  1  0
 12 13  1  0
 13 14  2  0
 14 15  1  0
 15 16  1  0
 16 17  2  0
 16 18  2  0
 16 19  1  0
 19 20  1  0
 20 21  1  0
 21 22  1  0
 22 23  1  0
 23 24  1  0
 15 25  2  0
 25 26  1  0
 26 27  2  0
 27 28  1  0
 28 29  1  0
 29 30  1  0
 30 31  1  0
 31 32  1  0
 32 33  1  0
  9 34  2  0
 34 35  1  0
 35 36  2  0
 36 37  1  0
 37 38  2  0
 38 39  1  0
 39 40  2  0
  6 41  1  0
 41 42  2  0
 42  3  1  0
 40  7  1  0
 27 13  1  0
 33 28  1  0
 39 34  1  0
 24 19  1  0
  1 43  1  0
  1 44  1  0
  1 45  1  0
  4 46  1  0
  5 47  1  0
  8 48  1  0
 12 49  1  0
 14 50  1  0
 20 51  1  0
 20 52  1  0
 21 53  1  0
 21 54  1  0
 23 55  1  0
 23 56  1  0
 24 57  1  0
 24 58  1  0
 25 59  1  0
 26 60  1  0
 29 61  1  0
 29 62  1  0
 30 63  1  0
 30 64  1  0
 32 65  1  0
 32 66  1  0
 33 67  1  0
 33 68  1  0
 35 69  1  0
 36 70  1  0
 37 71  1  0
 38 72  1  0
 41 73  1  0
 42 74  1  0
M  END
$$$$
