
     RDKit          3D

 39 41  0  0  0  0  0  0  0  0999 V2000
    4.9953    2.3635    0.4345 C   0  0  0  0  0  0  0  0  0  0  0  0
    4.6688    1.4253    1.5825 C   0  0  0  0  0  0  0  0  0  0  0  0
    4.1922    0.1367    1.1172 N   0  0  0  0  0  0  0  0  0  0  0  0
    4.9254   -1.0052    0.9897 C   0  0  0  0  0  0  0  0  0  0  0  0
    4.0561   -1.9608    0.5219 C   0  0  0  0  0  0  0  0  0  0  0  0
    2.8042   -1.3042    0.3955 C   0  0  0  0  0  0  0  0  0  0  0  0
    1.5323   -1.8909   -0.0713 C   0  0  0  0  0  0  0  0  0  0  0  0
    1.4690   -3.0689   -0.4026 O   0  0  0  0  0  0  0  0  0  0  0  0
    0.5157   -0.9551   -0.0684 N   0  0  0  0  0  0  0  0  0  0  0  0
   -0.8084   -1.1206   -0.4350 C   0  0  0  0  0  0  0  0  0  0  0  0
   -1.3851   -2.6416   -0.9835 S   0  0  0  0  0  0  0  0  0  0  0  0
   -2.9174   -2.0249   -1.1899 C   0  0  0  0  0  0  0  0  0  0  0  0
   -3.0343   -0.7046   -0.8608 C   0  0  0  0  0  0  0  0  0  0  0  0
   -1.8035   -0.1382   -0.4169 C   0  0  0  0  0  0  0  0  0  0  0  0
   -1.5628    1.2409   -0.0004 C   0  0  0  0  0  0  0  0  0  0  0  0
   -0.4722    1.6470    0.3875 O   0  0  0  0  0  0  0  0  0  0  0  0
   -2.6772    2.0248   -0.0932 O   0  0  0  0  0  0  0  0  0  0  0  0
   -2.4714    3.3797    0.3052 C   0  0  0  0  0  0  0  0  0  0  0  0
   -4.4280   -0.2314   -1.0729 C   0  0  0  0  0  0  0  0  0  0  0  0
   -5.2131   -1.5679   -1.2580 C   0  0  0  0  0  0  0  0  0  0  0  0
   -4.1706   -2.6507   -1.6685 C   0  0  0  0  0  0  0  0  0  0  0  0
    2.9004   -0.0104    0.7681 N   0  0  0  0  0  0  0  0  0  0  0  0
    5.7689    1.9384   -0.2137 H   0  0  0  0  0  0  0  0  0  0  0  0
    5.3587    3.3217    0.8182 H   0  0  0  0  0  0  0  0  0  0  0  0
    4.1115    2.5559   -0.1830 H   0  0  0  0  0  0  0  0  0  0  0  0
    3.8921    1.8522    2.2265 H   0  0  0  0  0  0  0  0  0  0  0  0
    5.5574    1.2503    2.1986 H   0  0  0  0  0  0  0  0  0  0  0  0
    5.9778   -1.0442    1.2333 H   0  0  0  0  0  0  0  0  0  0  0  0
    4.2740   -2.9957    0.2959 H   0  0  0  0  0  0  0  0  0  0  0  0
    0.8003   -0.0251    0.2507 H   0  0  0  0  0  0  0  0  0  0  0  0
   -3.4194    3.9131    0.1931 H   0  0  0  0  0  0  0  0  0  0  0  0
   -1.7266    3.8601   -0.3370 H   0  0  0  0  0  0  0  0  0  0  0  0
   -2.1693    3.4294    1.3560 H   0  0  0  0  0  0  0  0  0  0  0  0
   -4.4911    0.3786   -1.9800 H   0  0  0  0  0  0  0  0  0  0  0  0
   -4.8206    0.3348   -0.2238 H   0  0  0  0  0  0  0  0  0  0  0  0
   -5.6629   -1.8521   -0.2974 H   0  0  0  0  0  0  0  0  0  0  0  0
   -6.0256   -1.4751   -1.9854 H   0  0  0  0  0  0  0  0  0  0  0  0
   -4.1536   -2.7748   -2.7560 H   0  0  0  0  0  0  0  0  0  0  0  0
   -4.3870   -3.6104   -1.1916 H   0  0  0  0  0  0  0  0  0  0  0  0
  1  2  1  0
  2  3  1  0
  3  4  1  0
  4  5  2  0
  5  6  1  0
  6  7  1  0
  7  8  2  0
  7  9  1  0
  9 10  1  0
 10 11  1  0
 11 12  1  0
 12 13  2  0
 13 14  1  0
 14 15  1  0
 15 16  2  0
 15 17  1  0
 17 18  1  0
 13 19  1  0
 19 20  1  0
 20 21  1  0
  6 22  2  0
 22  3  1  0
 14 10  2  0
 21 12  1  0
  1 23  1  0
  1 24  1  0
  1 25  1  0
  2 26  1  0
  2 27  1  0
  4 28  1  0
  5 29  1  0
  9 30  1  0
 18 31  1  0
 18 32  1  0
 18 33  1  0
 19 34  1  0
 19 35  1  0
 20 36  1  0
 20 37  1  0
 21 38  1  0
 21 39  1  0
M  END
$$$$
