
     RDKit          3D

 64 67  0  0  0  0  0  0  0  0999 V2000
    7.1663   -0.4065   -2.8863 C   0  0  0  0  0  0  0  0  0  0  0  0
    7.1986    0.2669   -1.6356 O   0  0  0  0  0  0  0  0  0  0  0  0
    6.1022    0.1273   -0.8297 C   0  0  0  0  0  0  0  0  0  0  0  0
    6.1448    0.8723    0.3509 C   0  0  0  0  0  0  0  0  0  0  0  0
    5.0862    0.8370    1.2678 C   0  0  0  0  0  0  0  0  0  0  0  0
    3.9685    0.0441    1.0188 C   0  0  0  0  0  0  0  0  0  0  0  0
    2.8576   -0.0507    1.8853 N   0  0  0  0  0  0  0  0  0  0  0  0
    2.6091    0.6871    3.0276 C   0  0  0  0  0  0  0  0  0  0  0  0
    3.3179    1.5882    3.4728 O   0  0  0  0  0  0  0  0  0  0  0  0
    1.3414    0.2786    3.7598 C   0  0  0  0  0  0  0  0  0  0  0  0
   -0.1305    0.9707    2.9505 S   0  0  0  0  0  0  0  0  0  0  0  0
   -0.4353   -0.2245    1.7427 C   0  0  0  0  0  0  0  0  0  0  0  0
    0.2150   -1.3562    1.6101 N   0  0  0  0  0  0  0  0  0  0  0  0
   -0.2998   -2.0072    0.5225 N   0  0  0  0  0  0  0  0  0  0  0  0
   -1.2576   -1.2588    0.0059 C   0  0  0  0  0  0  0  0  0  0  0  0
   -2.0684   -1.6025   -1.2004 C   0  0  0  0  0  0  0  0  0  0  0  0
   -3.4629   -2.0528   -0.8753 C   0  0  0  0  0  0  0  0  0  0  0  0
   -4.6702   -1.4845   -1.2496 C   0  0  0  0  0  0  0  0  0  0  0  0
   -5.7108   -2.2612   -0.6945 C   0  0  0  0  0  0  0  0  0  0  0  0
   -5.1218   -3.2964   -0.0077 C   0  0  0  0  0  0  0  0  0  0  0  0
   -3.7608   -3.1785   -0.1354 N   0  0  0  0  0  0  0  0  0  0  0  0
   -2.8160   -4.1173    0.4336 C   0  0  0  0  0  0  0  0  0  0  0  0
   -1.3752   -0.1091    0.7568 N   0  0  0  0  0  0  0  0  0  0  0  0
   -2.2977    0.9857    0.5398 C   0  0  0  0  0  0  0  0  0  0  0  0
   -1.7062    2.0713   -0.3574 C   0  0  0  0  0  0  0  0  0  0  0  0
   -2.7060    3.1716   -0.6045 C   0  0  0  0  0  0  0  0  0  0  0  0
   -2.8098    4.2478    0.2869 C   0  0  0  0  0  0  0  0  0  0  0  0
   -3.7604    5.2474    0.0781 C   0  0  0  0  0  0  0  0  0  0  0  0
   -4.6126    5.1817   -1.0226 C   0  0  0  0  0  0  0  0  0  0  0  0
   -4.5172    4.1151   -1.9145 C   0  0  0  0  0  0  0  0  0  0  0  0
   -3.5709    3.1112   -1.7051 C   0  0  0  0  0  0  0  0  0  0  0  0
    3.9481   -0.7239   -0.1569 C   0  0  0  0  0  0  0  0  0  0  0  0
    2.8431   -1.4883   -0.4490 O   0  0  0  0  0  0  0  0  0  0  0  0
    3.0792   -2.8528   -0.0938 C   0  0  0  0  0  0  0  0  0  0  0  0
    4.9922   -0.6725   -1.0868 C   0  0  0  0  0  0  0  0  0  0  0  0
    6.3292   -0.0608   -3.5012 H   0  0  0  0  0  0  0  0  0  0  0  0
    8.0911   -0.1665   -3.4172 H   0  0  0  0  0  0  0  0  0  0  0  0
    7.1337   -1.4919   -2.7467 H   0  0  0  0  0  0  0  0  0  0  0  0
    7.0088    1.4984    0.5611 H   0  0  0  0  0  0  0  0  0  0  0  0
    5.1733    1.4423    2.1646 H   0  0  0  0  0  0  0  0  0  0  0  0
    2.1259   -0.6885    1.5650 H   0  0  0  0  0  0  0  0  0  0  0  0
    1.2918   -0.8102    3.8617 H   0  0  0  0  0  0  0  0  0  0  0  0
    1.3928    0.6864    4.7755 H   0  0  0  0  0  0  0  0  0  0  0  0
   -2.1076   -0.7360   -1.8719 H   0  0  0  0  0  0  0  0  0  0  0  0
   -1.5587   -2.3942   -1.7637 H   0  0  0  0  0  0  0  0  0  0  0  0
   -4.7889   -0.5957   -1.8561 H   0  0  0  0  0  0  0  0  0  0  0  0
   -6.7752   -2.0888   -0.7859 H   0  0  0  0  0  0  0  0  0  0  0  0
   -5.5633   -4.1099    0.5528 H   0  0  0  0  0  0  0  0  0  0  0  0
   -2.0087   -4.2938   -0.2807 H   0  0  0  0  0  0  0  0  0  0  0  0
   -3.3274   -5.0635    0.6343 H   0  0  0  0  0  0  0  0  0  0  0  0
   -2.4361   -3.6956    1.3663 H   0  0  0  0  0  0  0  0  0  0  0  0
   -3.2157    0.5795    0.1067 H   0  0  0  0  0  0  0  0  0  0  0  0
   -2.5872    1.3897    1.5161 H   0  0  0  0  0  0  0  0  0  0  0  0
   -1.3857    1.6455   -1.3168 H   0  0  0  0  0  0  0  0  0  0  0  0
   -0.7988    2.4952    0.0901 H   0  0  0  0  0  0  0  0  0  0  0  0
   -2.1513    4.3161    1.1499 H   0  0  0  0  0  0  0  0  0  0  0  0
   -3.8363    6.0799    0.7739 H   0  0  0  0  0  0  0  0  0  0  0  0
   -5.3505    5.9630   -1.1847 H   0  0  0  0  0  0  0  0  0  0  0  0
   -5.1815    4.0666   -2.7735 H   0  0  0  0  0  0  0  0  0  0  0  0
   -3.5136    2.2835   -2.4076 H   0  0  0  0  0  0  0  0  0  0  0  0
    3.8411   -3.2983   -0.7416 H   0  0  0  0  0  0  0  0  0  0  0  0
    2.1471   -3.4033   -0.2414 H   0  0  0  0  0  0  0  0  0  0  0  0
    3.3669   -2.9496    0.9590 H   0  0  0  0  0  0  0  0  0  0  0  0
    4.9049   -1.2593   -1.9932 H   0  0  0  0  0  0  0  0  0  0  0  0
  1  2  1  0
  2  3  1  0
  3  4  2  0
  4  5  1  0
  5  6  2  0
  6  7  1  0
  7  8  1  0
  8  9  2  0
  8 10  1  0
 10 11  1  0
 11 12  1  0
 12 13  2  0
 13 14  1  0
 14 15  2  0
 15 16  1  0
 16 17  1  0
 17 18  2  0
 18 19  1  0
 19 20  2  0
 20 21  1  0
 21 22  1  0
 15 23  1  0
 23 24  1  0
 24 25  1  0
 25 26  1  0
 26 27  2  0
 27 28  1  0
 28 29  2  0
 29 30  1  0
 30 31  2  0
  6 32  1  0
 32 33  1  0
 33 34  1  0
 32 35  2  0
 35  3  1  0
 23 12  1  0
 31 26  1  0
 21 17  1  0
  1 36  1  0
  1 37  1  0
  1 38  1  0
  4 39  1  0
  5 40  1  0
  7 41  1  0
 10 42  1  0
 10 43  1  0
 16 44  1  0
 16 45  1  0
 18 46  1  0
 19 47  1  0
 20 48  1  0
 22 49  1  0
 22 50  1  0
 22 51  1  0
 24 52  1  0
 24 53  1  0
 25 54  1  0
 25 55  1  0
 27 56  1  0
 28 57  1  0
 29 58  1  0
 30 59  1  0
 31 60  1  0
 34 61  1  0
 34 62  1  0
 34 63  1  0
 35 64  1  0
M  END
$$$$
