
     RDKit          3D

 88 91  0  0  0  0  0  0  0  0999 V2000
   -6.2273   -4.0847    1.6224 C   0  0  0  0  0  0  0  0  0  0  0  0
   -5.2512   -4.0558    0.5872 O   0  0  0  0  0  0  0  0  0  0  0  0
   -4.9811   -2.7256    0.1112 C   0  0  2  0  0  0  0  0  0  0  0  0
   -4.5392   -2.8369   -1.3342 C   0  0  0  0  0  0  0  0  0  0  0  0
   -5.3618   -3.7295   -2.2233 C   0  0  0  0  0  0  0  0  0  0  0  0
   -3.4814   -2.1583   -1.8163 C   0  0  0  0  0  0  0  0  0  0  0  0
   -2.6373   -1.1870   -1.0092 C   0  0  0  0  0  0  0  0  0  0  0  0
   -1.2166   -1.7430   -0.9295 C   0  0  0  0  0  0  0  0  0  0  0  0
   -0.9057   -2.8657   -0.5573 O   0  0  0  0  0  0  0  0  0  0  0  0
   -0.3404   -0.8101   -1.4066 O   0  0  0  0  0  0  0  0  0  0  0  0
    1.0636   -1.1491   -1.3632 C   0  0  1  0  0  0  0  0  0  0  0  0
    1.7571   -0.4123   -2.5088 C   0  0  0  0  0  0  0  0  0  0  0  0
    2.2571    0.9735   -2.0920 C   0  0  1  0  0  0  0  0  0  0  0  0
    1.0883    1.9664   -1.9139 C   0  0  0  0  0  0  0  0  0  0  0  0
    1.5356    3.4048   -1.8252 C   0  0  0  0  0  0  0  0  0  0  0  0
    1.3750    4.2558   -0.7902 C   0  0  0  0  0  0  0  0  0  0  0  0
    1.9383    5.6522   -0.8772 C   0  0  0  0  0  0  0  0  0  0  0  0
    0.7596    3.8739    0.5451 C   0  0  0  0  0  0  0  0  0  0  0  0
   -0.7485    4.1527    0.7637 C   0  0  1  0  0  0  0  0  0  0  0  0
   -1.0948    5.6442    0.7130 C   0  0  0  0  0  0  0  0  0  0  0  0
   -1.6555    3.3837   -0.1768 C   0  0  0  0  0  0  0  0  0  0  0  0
   -2.1646    2.1494   -0.0151 C   0  0  0  0  0  0  0  0  0  0  0  0
   -1.8761    1.2563    1.0849 C   0  0  0  0  0  0  0  0  0  0  0  0
   -2.2993   -0.0156    1.2870 C   0  0  0  0  0  0  0  0  0  0  0  0
   -1.7881   -0.6926    2.5446 C   0  0  0  0  0  0  0  0  0  0  0  0
   -0.8238   -1.6718    2.2036 O   0  0  0  0  0  0  0  0  0  0  0  0
   -3.2593   -0.8155    0.3748 C   0  0  1  0  0  0  0  0  0  0  0  0
   -4.3854    0.0873    0.1572 O   0  0  0  0  0  0  0  0  0  0  0  0
   -3.9040   -2.0814    1.0304 C   0  0  2  0  0  0  0  0  0  0  0  0
   -2.9203   -3.0692    1.3901 O   0  0  0  0  0  0  0  0  0  0  0  0
    3.0623    0.9649   -0.9077 O   0  0  0  0  0  0  0  0  0  0  0  0
    3.0425   -0.2190   -0.0936 C   0  0  2  0  0  0  0  0  0  0  0  0
    3.5340    0.2402    1.2909 C   0  0  0  0  0  0  0  0  0  0  0  0
    5.0486    0.3564    1.2963 C   0  0  0  0  0  0  0  0  0  0  0  0
    5.7029   -0.9938    0.9795 C   0  0  2  0  0  0  0  0  0  0  0  0
    7.0543   -0.7511    0.2975 C   0  0  0  0  0  0  0  0  0  0  0  0
    4.8078   -1.9090    0.1162 C   0  0  1  0  0  0  0  0  0  0  0  0
    4.0852   -2.9873    0.9246 C   0  0  0  0  0  0  0  0  0  0  0  0
    3.9016   -1.1823   -0.7072 O   0  0  0  0  0  0  0  0  0  0  0  0
    1.6176   -0.7613    0.0070 C   0  0  0  0  0  0  0  0  0  0  0  0
   -7.1772   -3.6766    1.2648 H   0  0  0  0  0  0  0  0  0  0  0  0
   -6.3858   -5.1269    1.9127 H   0  0  0  0  0  0  0  0  0  0  0  0
   -5.8829   -3.5302    2.4992 H   0  0  0  0  0  0  0  0  0  0  0  0
   -5.9008   -2.1254    0.1242 H   0  0  0  0  0  0  0  0  0  0  0  0
   -6.4165   -3.4377   -2.1810 H   0  0  0  0  0  0  0  0  0  0  0  0
   -5.0457   -3.6702   -3.2706 H   0  0  0  0  0  0  0  0  0  0  0  0
   -5.2743   -4.7751   -1.9114 H   0  0  0  0  0  0  0  0  0  0  0  0
   -3.1891   -2.2852   -2.8585 H   0  0  0  0  0  0  0  0  0  0  0  0
   -2.6024   -0.2812   -1.6295 H   0  0  0  0  0  0  0  0  0  0  0  0
    1.1884   -2.2249   -1.5405 H   0  0  0  0  0  0  0  0  0  0  0  0
    2.6240   -1.0041   -2.8285 H   0  0  0  0  0  0  0  0  0  0  0  0
    1.0968   -0.3337   -3.3808 H   0  0  0  0  0  0  0  0  0  0  0  0
    2.9019    1.3489   -2.8966 H   0  0  0  0  0  0  0  0  0  0  0  0
    0.4099    1.8920   -2.7729 H   0  0  0  0  0  0  0  0  0  0  0  0
    0.5107    1.6918   -1.0319 H   0  0  0  0  0  0  0  0  0  0  0  0
    2.0370    3.7671   -2.7223 H   0  0  0  0  0  0  0  0  0  0  0  0
    1.1456    6.4018   -0.8220 H   0  0  0  0  0  0  0  0  0  0  0  0
    2.4815    5.8218   -1.8135 H   0  0  0  0  0  0  0  0  0  0  0  0
    2.6430    5.8297   -0.0577 H   0  0  0  0  0  0  0  0  0  0  0  0
    1.3202    4.3912    1.3367 H   0  0  0  0  0  0  0  0  0  0  0  0
    0.9520    2.8124    0.7465 H   0  0  0  0  0  0  0  0  0  0  0  0
   -0.9728    3.8426    1.7929 H   0  0  0  0  0  0  0  0  0  0  0  0
   -2.1209    5.8121    1.0615 H   0  0  0  0  0  0  0  0  0  0  0  0
   -1.0285    6.0486   -0.3022 H   0  0  0  0  0  0  0  0  0  0  0  0
   -0.4279    6.2230    1.3607 H   0  0  0  0  0  0  0  0  0  0  0  0
   -1.9239    3.9080   -1.0942 H   0  0  0  0  0  0  0  0  0  0  0  0
   -2.8238    1.7885   -0.7975 H   0  0  0  0  0  0  0  0  0  0  0  0
   -1.1927    1.6708    1.8249 H   0  0  0  0  0  0  0  0  0  0  0  0
   -1.2905    0.0170    3.2153 H   0  0  0  0  0  0  0  0  0  0  0  0
   -2.5902   -1.1380    3.1404 H   0  0  0  0  0  0  0  0  0  0  0  0
   -1.3262   -2.4367    1.8424 H   0  0  0  0  0  0  0  0  0  0  0  0
   -4.6927   -0.0142   -0.7598 H   0  0  0  0  0  0  0  0  0  0  0  0
   -4.4074   -1.7974    1.9628 H   0  0  0  0  0  0  0  0  0  0  0  0
   -3.2891   -3.9338    1.1076 H   0  0  0  0  0  0  0  0  0  0  0  0
    3.0935    1.2113    1.5498 H   0  0  0  0  0  0  0  0  0  0  0  0
    3.2288   -0.4583    2.0774 H   0  0  0  0  0  0  0  0  0  0  0  0
    5.3519    1.1175    0.5660 H   0  0  0  0  0  0  0  0  0  0  0  0
    5.3948    0.7128    2.2737 H   0  0  0  0  0  0  0  0  0  0  0  0
    5.9203   -1.5078    1.9253 H   0  0  0  0  0  0  0  0  0  0  0  0
    7.5877   -1.6957    0.1463 H   0  0  0  0  0  0  0  0  0  0  0  0
    7.6901   -0.1053    0.9127 H   0  0  0  0  0  0  0  0  0  0  0  0
    6.9264   -0.2741   -0.6803 H   0  0  0  0  0  0  0  0  0  0  0  0
    5.4467   -2.4608   -0.5848 H   0  0  0  0  0  0  0  0  0  0  0  0
    4.8055   -3.6717    1.3849 H   0  0  0  0  0  0  0  0  0  0  0  0
    3.4213   -3.5687    0.2755 H   0  0  0  0  0  0  0  0  0  0  0  0
    3.4668   -2.5733    1.7238 H   0  0  0  0  0  0  0  0  0  0  0  0
    0.9696   -0.0106    0.4758 H   0  0  0  0  0  0  0  0  0  0  0  0
    1.5769   -1.6448    0.6532 H   0  0  0  0  0  0  0  0  0  0  0  0
  1  2  1  0
  2  3  1  0
  3  4  1  0
  4  5  1  0
  4  6  2  0
  6  7  1  0
  7  8  1  0
  8  9  2  0
  8 10  1  0
 10 11  1  0
 11 12  1  0
 12 13  1  0
 13 14  1  0
 14 15  1  0
 15 16  2  0
 16 17  1  0
 16 18  1  0
 18 19  1  0
 19 20  1  0
 19 21  1  0
 21 22  2  0
 22 23  1  0
 23 24  2  0
 24 25  1  0
 25 26  1  0
 24 27  1  0
 27 28  1  6
 27 29  1  0
 29 30  1  0
 13 31  1  0
 32 31  1  6
 32 33  1  0
 33 34  1  0
 34 35  1  0
 35 36  1  0
 35 37  1  0
 37 38  1  0
 37 39  1  0
 32 40  1  0
 29  3  1  0
 39 32  1  0
 27  7  1  0
 40 11  1  0
  1 41  1  0
  1 42  1  0
  1 43  1  0
  3 44  1  6
  5 45  1  0
  5 46  1  0
  5 47  1  0
  6 48  1  0
  7 49  1  0
 11 50  1  6
 12 51  1  0
 12 52  1  0
 13 53  1  6
 14 54  1  0
 14 55  1  0
 15 56  1  0
 17 57  1  0
 17 58  1  0
 17 59  1  0
 18 60  1  0
 18 61  1  0
 19 62  1  1
 20 63  1  0
 20 64  1  0
 20 65  1  0
 21 66  1  0
 22 67  1  0
 23 68  1  0
 25 69  1  0
 25 70  1  0
 26 71  1  0
 28 72  1  0
 29 73  1  1
 30 74  1  0
 33 75  1  0
 33 76  1  0
 34 77  1  0
 34 78  1  0
 35 79  1  1
 36 80  1  0
 36 81  1  0
 36 82  1  0
 37 83  1  6
 38 84  1  0
 38 85  1  0
 38 86  1  0
 40 87  1  0
 40 88  1  0
M  END
$$$$
