
     RDKit          3D

 36 39  0  0  0  0  0  0  0  0999 V2000
   -6.2878    2.2084   -2.5602 C   0  0  0  0  0  0  0  0  0  0  0  0
   -5.5457    1.5186   -1.4542 C   0  0  0  0  0  0  0  0  0  0  0  0
   -5.6563    1.8013   -0.2691 O   0  0  0  0  0  0  0  0  0  0  0  0
   -4.7382    0.5303   -2.0089 O   0  0  0  0  0  0  0  0  0  0  0  0
   -3.9618   -0.2182   -1.1130 C   0  0  0  0  0  0  0  0  0  0  0  0
   -4.0967   -1.6038   -1.1595 C   0  0  0  0  0  0  0  0  0  0  0  0
   -3.3138   -2.3944   -0.3208 C   0  0  0  0  0  0  0  0  0  0  0  0
   -2.3944   -1.7975    0.5465 C   0  0  0  0  0  0  0  0  0  0  0  0
   -2.2415   -0.4049    0.5694 C   0  0  0  0  0  0  0  0  0  0  0  0
   -1.2987    0.2394    1.4867 C   0  0  0  0  0  0  0  0  0  0  0  0
    0.0394    0.1784    1.4158 C   0  0  0  0  0  0  0  0  0  0  0  0
    1.0582    1.0144    2.5907 S   0  0  0  0  0  0  0  0  0  0  0  0
    2.4542    0.4435    1.7797 C   0  0  0  0  0  0  0  0  0  0  0  0
    3.7381    0.5664    1.9529 N   0  0  0  0  0  0  0  0  0  0  0  0
    4.2297   -0.1833    0.8924 C   0  0  0  0  0  0  0  0  0  0  0  0
    5.7634   -0.3588    0.6434 C   0  0  0  0  0  0  0  0  0  0  0  0
    6.7669    0.1905    1.4186 C   0  0  0  0  0  0  0  0  0  0  0  0
    7.9955   -0.2159    0.8434 C   0  0  0  0  0  0  0  0  0  0  0  0
    7.6681   -0.9872   -0.2460 C   0  0  0  0  0  0  0  0  0  0  0  0
    6.3203   -1.0802   -0.3761 O   0  0  0  0  0  0  0  0  0  0  0  0
    3.2921   -0.7437    0.1018 N   0  0  0  0  0  0  0  0  0  0  0  0
    2.1700   -0.3167    0.7046 N   0  0  0  0  0  0  0  0  0  0  0  0
    0.8492   -0.5484    0.3808 C   0  0  0  0  0  0  0  0  0  0  0  0
    0.5024   -1.2206   -0.5712 O   0  0  0  0  0  0  0  0  0  0  0  0
   -3.0302    0.3888   -0.2697 C   0  0  0  0  0  0  0  0  0  0  0  0
   -6.9209    1.4896   -3.0864 H   0  0  0  0  0  0  0  0  0  0  0  0
   -5.5781    2.6742   -3.2484 H   0  0  0  0  0  0  0  0  0  0  0  0
   -6.9253    2.9894   -2.1360 H   0  0  0  0  0  0  0  0  0  0  0  0
   -4.8038   -2.0663   -1.8415 H   0  0  0  0  0  0  0  0  0  0  0  0
   -3.4124   -3.4767   -0.3450 H   0  0  0  0  0  0  0  0  0  0  0  0
   -1.7937   -2.4327    1.1933 H   0  0  0  0  0  0  0  0  0  0  0  0
   -1.7809    0.8226    2.2702 H   0  0  0  0  0  0  0  0  0  0  0  0
    6.6194    0.8095    2.2930 H   0  0  0  0  0  0  0  0  0  0  0  0
    8.9944    0.0231    1.1801 H   0  0  0  0  0  0  0  0  0  0  0  0
    8.2453   -1.5153   -0.9925 H   0  0  0  0  0  0  0  0  0  0  0  0
   -2.9263    1.4701   -0.2648 H   0  0  0  0  0  0  0  0  0  0  0  0
  1  2  1  0
  2  3  2  0
  2  4  1  0
  4  5  1  0
  5  6  2  0
  6  7  1  0
  7  8  2  0
  8  9  1  0
  9 10  1  0
 10 11  2  3
 11 12  1  0
 12 13  1  0
 13 14  2  0
 14 15  1  0
 15 16  1  0
 16 17  2  0
 17 18  1  0
 18 19  2  0
 19 20  1  0
 15 21  2  0
 21 22  1  0
 22 23  1  0
 23 24  2  0
  9 25  2  0
 25  5  1  0
 23 11  1  0
 22 13  1  0
 20 16  1  0
  1 26  1  0
  1 27  1  0
  1 28  1  0
  6 29  1  0
  7 30  1  0
  8 31  1  0
 10 32  1  0
 17 33  1  0
 18 34  1  0
 19 35  1  0
 25 36  1  0
M  END
$$$$
