
     RDKit          3D

 53 54  0  0  0  0  0  0  0  0999 V2000
   -5.6146    0.9061    1.0431 C   0  0  0  0  0  0  0  0  0  0  0  0
   -6.4813    0.5786   -0.1590 C   0  0  0  0  0  0  0  0  0  0  0  0
   -6.1021   -0.6850   -0.8155 N   0  0  0  0  0  0  0  0  0  0  0  0
   -6.4520   -1.9371   -0.1240 C   0  0  0  0  0  0  0  0  0  0  0  0
   -7.7672   -2.4690   -0.6678 C   0  0  0  0  0  0  0  0  0  0  0  0
   -4.9891   -0.7063   -2.0829 S   0  0  0  0  0  6  0  0  0  0  0  0
   -5.0746   -1.9915   -2.7448 O   0  0  0  0  0  0  0  0  0  0  0  0
   -5.1268    0.5271   -2.8289 O   0  0  0  0  0  0  0  0  0  0  0  0
   -3.4084   -0.6544   -1.2601 C   0  0  0  0  0  0  0  0  0  0  0  0
   -2.6935    0.5467   -1.2034 C   0  0  0  0  0  0  0  0  0  0  0  0
   -1.4362    0.5782   -0.5919 C   0  0  0  0  0  0  0  0  0  0  0  0
   -0.8839   -0.5925   -0.0516 C   0  0  0  0  0  0  0  0  0  0  0  0
    0.4507   -0.6147    0.6072 C   0  0  0  0  0  0  0  0  0  0  0  0
    0.9865   -1.6357    1.0088 O   0  0  0  0  0  0  0  0  0  0  0  0
    0.9522    0.6397    0.7151 O   0  0  0  0  0  0  0  0  0  0  0  0
    2.2846    0.6896    1.2237 C   0  0  0  0  0  0  0  0  0  0  0  0
    3.3278    0.2693    0.1841 C   0  0  0  0  0  0  0  0  0  0  0  0
    3.1107    0.2723   -1.0257 O   0  0  0  0  0  0  0  0  0  0  0  0
    4.5471   -0.0943    0.7271 N   0  0  0  0  0  0  0  0  0  0  0  0
    5.6974   -0.3115   -0.1345 C   0  0  0  0  0  0  0  0  0  0  0  0
    6.3685    1.0033   -0.5580 C   0  0  0  0  0  0  0  0  0  0  0  0
    7.1579    1.5970    0.5159 N   0  0  0  0  0  0  0  0  0  0  0  0
    8.5236    1.4740    0.6067 C   0  0  0  0  0  0  0  0  0  0  0  0
    9.1902    0.7675   -0.3483 O   0  0  0  0  0  0  0  0  0  0  0  0
    9.0683    2.0766    1.6698 C   0  0  0  0  0  0  0  0  0  0  0  0
    7.8555    2.8418    2.6493 S   0  0  0  0  0  0  0  0  0  0  0  0
    6.5672    2.2863    1.5634 C   0  0  0  0  0  0  0  0  0  0  0  0
    5.3802    2.4711    1.7796 O   0  0  0  0  0  0  0  0  0  0  0  0
   -1.5958   -1.7979   -0.1442 C   0  0  0  0  0  0  0  0  0  0  0  0
   -2.8522   -1.8331   -0.7549 C   0  0  0  0  0  0  0  0  0  0  0  0
   -5.6162    0.1006    1.7829 H   0  0  0  0  0  0  0  0  0  0  0  0
   -5.9866    1.8110    1.5349 H   0  0  0  0  0  0  0  0  0  0  0  0
   -4.5788    1.0932    0.7559 H   0  0  0  0  0  0  0  0  0  0  0  0
   -6.4499    1.4066   -0.8742 H   0  0  0  0  0  0  0  0  0  0  0  0
   -7.5284    0.5052    0.1581 H   0  0  0  0  0  0  0  0  0  0  0  0
   -5.6705   -2.6910   -0.2531 H   0  0  0  0  0  0  0  0  0  0  0  0
   -6.5417   -1.7750    0.9545 H   0  0  0  0  0  0  0  0  0  0  0  0
   -8.0382   -3.4010   -0.1623 H   0  0  0  0  0  0  0  0  0  0  0  0
   -7.6998   -2.6706   -1.7417 H   0  0  0  0  0  0  0  0  0  0  0  0
   -8.5780   -1.7495   -0.5136 H   0  0  0  0  0  0  0  0  0  0  0  0
   -3.1031    1.4589   -1.6331 H   0  0  0  0  0  0  0  0  0  0  0  0
   -0.8919    1.5196   -0.5577 H   0  0  0  0  0  0  0  0  0  0  0  0
    2.3773    0.0886    2.1362 H   0  0  0  0  0  0  0  0  0  0  0  0
    2.4910    1.7308    1.4927 H   0  0  0  0  0  0  0  0  0  0  0  0
    4.7277    0.2097    1.6777 H   0  0  0  0  0  0  0  0  0  0  0  0
    6.3970   -0.9529    0.4111 H   0  0  0  0  0  0  0  0  0  0  0  0
    5.3620   -0.8510   -1.0270 H   0  0  0  0  0  0  0  0  0  0  0  0
    5.6108    1.7367   -0.8591 H   0  0  0  0  0  0  0  0  0  0  0  0
    7.0099    0.8281   -1.4284 H   0  0  0  0  0  0  0  0  0  0  0  0
   10.1418    0.8012   -0.1501 H   0  0  0  0  0  0  0  0  0  0  0  0
   10.1173    2.0982    1.9260 H   0  0  0  0  0  0  0  0  0  0  0  0
   -1.1655   -2.7184    0.2478 H   0  0  0  0  0  0  0  0  0  0  0  0
   -3.3769   -2.7812   -0.8467 H   0  0  0  0  0  0  0  0  0  0  0  0
  1  2  1  0
  2  3  1  0
  3  4  1  0
  4  5  1  0
  3  6  1  0
  6  7  2  0
  6  8  2  0
  6  9  1  0
  9 10  2  0
 10 11  1  0
 11 12  2  0
 12 13  1  0
 13 14  2  0
 13 15  1  0
 15 16  1  0
 16 17  1  0
 17 18  2  0
 17 19  1  0
 19 20  1  0
 20 21  1  0
 21 22  1  0
 22 23  1  0
 23 24  1  0
 23 25  2  0
 25 26  1  0
 26 27  1  0
 27 28  2  0
 12 29  1  0
 29 30  2  0
 30  9  1  0
 27 22  1  0
  1 31  1  0
  1 32  1  0
  1 33  1  0
  2 34  1  0
  2 35  1  0
  4 36  1  0
  4 37  1  0
  5 38  1  0
  5 39  1  0
  5 40  1  0
 10 41  1  0
 11 42  1  0
 16 43  1  0
 16 44  1  0
 19 45  1  0
 20 46  1  0
 20 47  1  0
 21 48  1  0
 21 49  1  0
 24 50  1  0
 25 51  1  0
 29 52  1  0
 30 53  1  0
M  END
$$$$
