
     RDKit          3D

 54 57  0  0  0  0  0  0  0  0999 V2000
    5.0912    1.5113    4.3477 C   0  0  0  0  0  0  0  0  0  0  0  0
    4.0714    0.6792    3.5874 C   0  0  0  0  0  0  0  0  0  0  0  0
    4.4695    0.4573    2.1359 C   0  0  0  0  0  0  0  0  0  0  0  0
    5.5640    0.8177    1.7041 O   0  0  0  0  0  0  0  0  0  0  0  0
    3.5365   -0.1776    1.3294 N   0  0  0  0  0  0  0  0  0  0  0  0
    3.8354   -0.3673   -0.0949 C   0  0  0  0  0  0  0  0  0  0  0  0
    2.5839   -0.2422   -0.9812 C   0  0  0  0  0  0  0  0  0  0  0  0
    1.4598   -1.1102   -0.5360 N   0  0  0  0  0  0  0  0  0  0  0  0
    1.1003   -2.1106   -1.4816 C   0  0  0  0  0  0  0  0  0  0  0  0
    2.0145   -3.0661   -1.9488 C   0  0  0  0  0  0  0  0  0  0  0  0
    1.6075   -4.0477   -2.8538 C   0  0  0  0  0  0  0  0  0  0  0  0
    0.2856   -4.0804   -3.2946 C   0  0  0  0  0  0  0  0  0  0  0  0
   -0.2022   -5.3007   -4.4076 Cl  0  0  0  0  0  0  0  0  0  0  0  0
   -0.6416   -3.1409   -2.8454 C   0  0  0  0  0  0  0  0  0  0  0  0
   -0.2393   -2.1540   -1.9451 C   0  0  0  0  0  0  0  0  0  0  0  0
   -1.0890   -1.1467   -1.4395 N   0  0  0  0  0  0  0  0  0  0  0  0
   -2.4153   -0.9204   -1.7312 C   0  0  0  0  0  0  0  0  0  0  0  0
   -3.1057   -1.5553   -2.5193 O   0  0  0  0  0  0  0  0  0  0  0  0
   -3.0316    0.2345   -1.0162 C   0  0  0  0  0  0  0  0  0  0  0  0
   -2.6358    0.6042    0.2784 C   0  0  0  0  0  0  0  0  0  0  0  0
   -3.2407    1.6937    0.9109 C   0  0  0  0  0  0  0  0  0  0  0  0
   -4.2439    2.4077    0.2584 C   0  0  0  0  0  0  0  0  0  0  0  0
   -4.6695    2.0153   -1.0146 C   0  0  0  0  0  0  0  0  0  0  0  0
   -4.0596    0.9391   -1.6562 C   0  0  0  0  0  0  0  0  0  0  0  0
   -5.6773    2.6483   -1.6959 O   0  0  0  0  0  0  0  0  0  0  0  0
   -6.4570    3.4746   -0.8239 C   0  0  0  0  0  0  0  0  0  0  0  0
   -5.5539    4.3107    0.0681 C   0  0  0  0  0  0  0  0  0  0  0  0
   -4.7796    3.4732    0.9356 O   0  0  0  0  0  0  0  0  0  0  0  0
    1.6119   -1.6945    0.8196 C   0  0  0  0  0  0  0  0  0  0  0  0
    2.2351   -0.6771    1.7915 C   0  0  0  0  0  0  0  0  0  0  0  0
    5.2247    2.4932    3.8810 H   0  0  0  0  0  0  0  0  0  0  0  0
    6.0667    1.0136    4.3696 H   0  0  0  0  0  0  0  0  0  0  0  0
    4.7639    1.6642    5.3808 H   0  0  0  0  0  0  0  0  0  0  0  0
    3.1031    1.1887    3.6185 H   0  0  0  0  0  0  0  0  0  0  0  0
    3.9783   -0.2955    4.0774 H   0  0  0  0  0  0  0  0  0  0  0  0
    4.5904    0.3530   -0.4269 H   0  0  0  0  0  0  0  0  0  0  0  0
    4.2717   -1.3682   -0.1939 H   0  0  0  0  0  0  0  0  0  0  0  0
    2.2209    0.7914   -0.9227 H   0  0  0  0  0  0  0  0  0  0  0  0
    2.8527   -0.4131   -2.0307 H   0  0  0  0  0  0  0  0  0  0  0  0
    3.0457   -3.0620   -1.6080 H   0  0  0  0  0  0  0  0  0  0  0  0
    2.3233   -4.7846   -3.2089 H   0  0  0  0  0  0  0  0  0  0  0  0
   -1.6615   -3.1925   -3.2104 H   0  0  0  0  0  0  0  0  0  0  0  0
   -0.5839   -0.4934   -0.8480 H   0  0  0  0  0  0  0  0  0  0  0  0
   -1.8779    0.0427    0.8171 H   0  0  0  0  0  0  0  0  0  0  0  0
   -2.9318    1.9866    1.9105 H   0  0  0  0  0  0  0  0  0  0  0  0
   -4.3922    0.6435   -2.6486 H   0  0  0  0  0  0  0  0  0  0  0  0
   -7.0781    4.1235   -1.4489 H   0  0  0  0  0  0  0  0  0  0  0  0
   -7.1212    2.8308   -0.2339 H   0  0  0  0  0  0  0  0  0  0  0  0
   -6.1545    4.9745    0.6981 H   0  0  0  0  0  0  0  0  0  0  0  0
   -4.8664    4.9292   -0.5225 H   0  0  0  0  0  0  0  0  0  0  0  0
    0.6274   -1.9943    1.1988 H   0  0  0  0  0  0  0  0  0  0  0  0
    2.2482   -2.5897    0.7956 H   0  0  0  0  0  0  0  0  0  0  0  0
    1.5781    0.1939    1.8972 H   0  0  0  0  0  0  0  0  0  0  0  0
    2.3481   -1.1367    2.7774 H   0  0  0  0  0  0  0  0  0  0  0  0
  1  2  1  0
  2  3  1  0
  3  4  2  0
  3  5  1  0
  5  6  1  0
  6  7  1  0
  7  8  1  0
  8  9  1  0
  9 10  2  0
 10 11  1  0
 11 12  2  0
 12 13  1  0
 12 14  1  0
 14 15  2  0
 15 16  1  0
 16 17  1  0
 17 18  2  0
 17 19  1  0
 19 20  2  0
 20 21  1  0
 21 22  2  0
 22 23  1  0
 23 24  2  0
 23 25  1  0
 25 26  1  0
 26 27  1  0
 27 28  1  0
  8 29  1  0
 29 30  1  0
 30  5  1  0
 15  9  1  0
 24 19  1  0
 28 22  1  0
  1 31  1  0
  1 32  1  0
  1 33  1  0
  2 34  1  0
  2 35  1  0
  6 36  1  0
  6 37  1  0
  7 38  1  0
  7 39  1  0
 10 40  1  0
 11 41  1  0
 14 42  1  0
 16 43  1  0
 20 44  1  0
 21 45  1  0
 24 46  1  0
 26 47  1  0
 26 48  1  0
 27 49  1  0
 27 50  1  0
 29 51  1  0
 29 52  1  0
 30 53  1  0
 30 54  1  0
M  END
$$$$
