
     RDKit          3D

 80 86  0  0  0  0  0  0  0  0999 V2000
    6.8056   -1.4420    2.6977 C   0  0  0  0  0  0  0  0  0  0  0  0
    6.0547   -2.3085    1.6810 C   0  0  0  0  0  0  0  0  0  0  0  0
    5.9883   -3.7467    2.2185 C   0  0  0  0  0  0  0  0  0  0  0  0
    6.7519   -2.3303    0.3174 C   0  0  0  0  0  0  0  0  0  0  0  0
    4.6692   -1.8996    1.5563 O   0  0  0  0  0  0  0  0  0  0  0  0
    4.3430   -0.6690    1.0871 C   0  0  0  0  0  0  0  0  0  0  0  0
    5.1557    0.1927    0.7753 O   0  0  0  0  0  0  0  0  0  0  0  0
    2.9761   -0.4957    0.9812 N   0  0  0  0  0  0  0  0  0  0  0  0
    2.0027   -1.4503    1.5517 C   0  0  0  0  0  0  0  0  0  0  0  0
    0.6066   -1.4073    0.8722 C   0  0  0  0  0  0  0  0  0  0  0  0
    0.1851   -0.0229    0.7271 N   0  0  0  0  0  0  0  0  0  0  0  0
    1.1600    0.7367   -0.1146 C   0  0  2  0  0  0  0  0  0  0  0  0
    2.4664    0.8478    0.6566 C   0  0  0  0  0  0  0  0  0  0  0  0
    0.3771    1.9549   -0.4026 C   0  0  0  0  0  0  0  0  0  0  0  0
   -0.9957    1.6872   -0.2266 C   0  0  0  0  0  0  0  0  0  0  0  0
   -1.7088    2.7903   -0.6140 C   0  0  0  0  0  0  0  0  0  0  0  0
   -3.0230    2.9604   -0.6877 O   0  0  0  0  0  0  0  0  0  0  0  0
   -0.7686    3.7634   -0.9440 N   0  0  0  0  0  0  0  0  0  0  0  0
   -1.0579    5.1574   -1.2761 C   0  0  0  0  0  0  0  0  0  0  0  0
   -1.6952    5.3109   -2.6371 C   0  0  0  0  0  0  0  0  0  0  0  0
   -2.9175    5.9891   -2.7743 C   0  0  0  0  0  0  0  0  0  0  0  0
   -3.5151    6.1284   -4.0282 C   0  0  0  0  0  0  0  0  0  0  0  0
   -2.8930    5.6059   -5.1601 C   0  0  0  0  0  0  0  0  0  0  0  0
   -1.6693    4.9501   -5.0404 C   0  0  0  0  0  0  0  0  0  0  0  0
   -1.0713    4.8062   -3.7878 C   0  0  0  0  0  0  0  0  0  0  0  0
    0.5169    3.2422   -0.8403 C   0  0  0  0  0  0  0  0  0  0  0  0
    1.5810    3.9679   -1.1540 O   0  0  0  0  0  0  0  0  0  0  0  0
   -1.1908    0.2982    0.2632 C   0  0  1  0  0  0  0  0  0  0  0  0
   -1.7592   -0.6649   -0.8055 C   0  0  0  0  0  0  0  0  0  0  0  0
   -1.2396   -0.9891   -1.8669 O   0  0  0  0  0  0  0  0  0  0  0  0
   -2.9818   -1.1408   -0.2989 N   0  0  0  0  0  0  0  0  0  0  0  0
   -3.7658   -2.1560   -0.9589 C   0  0  0  0  0  0  0  0  0  0  0  0
   -3.3676   -3.5518   -0.5334 C   0  0  0  0  0  0  0  0  0  0  0  0
   -2.2199   -4.1561   -1.0713 C   0  0  0  0  0  0  0  0  0  0  0  0
   -1.8299   -5.4328   -0.6638 C   0  0  0  0  0  0  0  0  0  0  0  0
   -2.5805   -6.1192    0.2892 C   0  0  0  0  0  0  0  0  0  0  0  0
   -3.7207   -5.5302    0.8327 C   0  0  0  0  0  0  0  0  0  0  0  0
   -4.1135   -4.2544    0.4237 C   0  0  0  0  0  0  0  0  0  0  0  0
   -3.2609   -0.5862    0.9619 C   0  0  0  0  0  0  0  0  0  0  0  0
   -4.3541   -0.8024    1.7817 C   0  0  0  0  0  0  0  0  0  0  0  0
   -4.3945   -0.1422    3.0141 C   0  0  0  0  0  0  0  0  0  0  0  0
   -3.3543    0.7151    3.4063 C   0  0  0  0  0  0  0  0  0  0  0  0
   -2.2593    0.9300    2.5687 C   0  0  0  0  0  0  0  0  0  0  0  0
   -2.2281    0.2782    1.3429 C   0  0  0  0  0  0  0  0  0  0  0  0
    6.9357   -0.4149    2.3445 H   0  0  0  0  0  0  0  0  0  0  0  0
    6.2522   -1.3797    3.6406 H   0  0  0  0  0  0  0  0  0  0  0  0
    7.8011   -1.8478    2.9058 H   0  0  0  0  0  0  0  0  0  0  0  0
    5.4251   -4.3928    1.5344 H   0  0  0  0  0  0  0  0  0  0  0  0
    5.4633   -3.7801    3.1791 H   0  0  0  0  0  0  0  0  0  0  0  0
    6.9859   -4.1770    2.3561 H   0  0  0  0  0  0  0  0  0  0  0  0
    6.9028   -1.3228   -0.0814 H   0  0  0  0  0  0  0  0  0  0  0  0
    7.7363   -2.8059    0.3779 H   0  0  0  0  0  0  0  0  0  0  0  0
    6.1479   -2.8725   -0.4193 H   0  0  0  0  0  0  0  0  0  0  0  0
    2.3958   -2.4705    1.4966 H   0  0  0  0  0  0  0  0  0  0  0  0
    1.9045   -1.1936    2.6136 H   0  0  0  0  0  0  0  0  0  0  0  0
    0.6680   -1.9054   -0.1023 H   0  0  0  0  0  0  0  0  0  0  0  0
   -0.1010   -1.9707    1.4898 H   0  0  0  0  0  0  0  0  0  0  0  0
    1.3330    0.2062   -1.0614 H   0  0  0  0  0  0  0  0  0  0  0  0
    3.2059    1.4067    0.0729 H   0  0  0  0  0  0  0  0  0  0  0  0
    2.3330    1.3848    1.6043 H   0  0  0  0  0  0  0  0  0  0  0  0
   -3.2181    3.7064   -1.2792 H   0  0  0  0  0  0  0  0  0  0  0  0
   -1.7154    5.5287   -0.4806 H   0  0  0  0  0  0  0  0  0  0  0  0
   -0.1336    5.7419   -1.2327 H   0  0  0  0  0  0  0  0  0  0  0  0
   -3.4142    6.4157   -1.9048 H   0  0  0  0  0  0  0  0  0  0  0  0
   -4.4669    6.6468   -4.1232 H   0  0  0  0  0  0  0  0  0  0  0  0
   -3.3567    5.7157   -6.1370 H   0  0  0  0  0  0  0  0  0  0  0  0
   -1.1796    4.5478   -5.9230 H   0  0  0  0  0  0  0  0  0  0  0  0
   -0.1135    4.2914   -3.7137 H   0  0  0  0  0  0  0  0  0  0  0  0
    2.3714    3.4185   -1.0091 H   0  0  0  0  0  0  0  0  0  0  0  0
   -3.6220   -2.0644   -2.0428 H   0  0  0  0  0  0  0  0  0  0  0  0
   -4.8314   -1.9784   -0.7782 H   0  0  0  0  0  0  0  0  0  0  0  0
   -1.6226   -3.6296   -1.8147 H   0  0  0  0  0  0  0  0  0  0  0  0
   -0.9401   -5.8900   -1.0904 H   0  0  0  0  0  0  0  0  0  0  0  0
   -2.2769   -7.1121    0.6088 H   0  0  0  0  0  0  0  0  0  0  0  0
   -4.3029   -6.0650    1.5785 H   0  0  0  0  0  0  0  0  0  0  0  0
   -5.0057   -3.8136    0.8619 H   0  0  0  0  0  0  0  0  0  0  0  0
   -5.1680   -1.4562    1.4965 H   0  0  0  0  0  0  0  0  0  0  0  0
   -5.2414   -0.2932    3.6792 H   0  0  0  0  0  0  0  0  0  0  0  0
   -3.4038    1.2172    4.3697 H   0  0  0  0  0  0  0  0  0  0  0  0
   -1.4525    1.5938    2.8636 H   0  0  0  0  0  0  0  0  0  0  0  0
  1  2  1  0
  2  3  1  0
  2  4  1  0
  2  5  1  0
  5  6  1  0
  6  7  2  0
  6  8  1  0
  8  9  1  0
  9 10  1  0
 10 11  1  0
 11 12  1  0
 12 13  1  0
 12 14  1  0
 14 15  1  0
 15 16  2  0
 16 17  1  0
 16 18  1  0
 18 19  1  0
 19 20  1  0
 20 21  2  0
 21 22  1  0
 22 23  2  0
 23 24  1  0
 24 25  2  0
 18 26  1  0
 26 27  1  0
 15 28  1  0
 28 29  1  0
 29 30  2  0
 29 31  1  0
 31 32  1  0
 32 33  1  0
 33 34  2  0
 34 35  1  0
 35 36  2  0
 36 37  1  0
 37 38  2  0
 31 39  1  0
 39 40  2  0
 40 41  1  0
 41 42  2  0
 42 43  1  0
 43 44  2  0
 13  8  1  0
 26 14  2  0
 44 28  1  0
 28 11  1  1
 38 33  1  0
 44 39  1  0
 25 20  1  0
  1 45  1  0
  1 46  1  0
  1 47  1  0
  3 48  1  0
  3 49  1  0
  3 50  1  0
  4 51  1  0
  4 52  1  0
  4 53  1  0
  9 54  1  0
  9 55  1  0
 10 56  1  0
 10 57  1  0
 12 58  1  6
 13 59  1  0
 13 60  1  0
 17 61  1  0
 19 62  1  0
 19 63  1  0
 21 64  1  0
 22 65  1  0
 23 66  1  0
 24 67  1  0
 25 68  1  0
 27 69  1  0
 32 70  1  0
 32 71  1  0
 34 72  1  0
 35 73  1  0
 36 74  1  0
 37 75  1  0
 38 76  1  0
 40 77  1  0
 41 78  1  0
 42 79  1  0
 43 80  1  0
M  END
$$$$
