
     RDKit          3D

 57 61  0  0  0  0  0  0  0  0999 V2000
   -0.7982   -2.6267    0.1141 O   0  0  0  0  0  0  0  0  0  0  0  0
    0.0443   -1.7555    0.3061 C   0  0  0  0  0  0  0  0  0  0  0  0
   -0.2067   -0.4125    0.0517 N   0  0  0  0  0  0  0  0  0  0  0  0
    0.6683    0.6219    0.3567 C   0  0  0  0  0  0  0  0  0  0  0  0
    0.1677    2.0403    0.0923 C   0  0  0  0  0  0  0  0  0  0  0  0
   -0.9097    2.4415    1.1088 C   0  0  0  0  0  0  0  0  0  0  0  0
   -2.2681    1.7665    0.8872 C   0  0  0  0  0  0  0  0  0  0  0  0
   -2.4992    1.4396   -0.5609 N   0  0  0  0  0  0  0  0  0  0  0  0
   -4.1571    1.2378   -0.9931 S   0  0  0  0  0  6  0  0  0  0  0  0
   -4.2276    0.9214   -2.3974 O   0  0  0  0  0  0  0  0  0  0  0  0
   -4.8737    2.3751   -0.4580 O   0  0  0  0  0  0  0  0  0  0  0  0
   -4.6325   -0.2155   -0.0790 C   0  0  0  0  0  0  0  0  0  0  0  0
   -5.4495   -0.0298    1.0487 C   0  0  0  0  0  0  0  0  0  0  0  0
   -5.8841   -1.1302    1.7915 C   0  0  0  0  0  0  0  0  0  0  0  0
   -5.5041   -2.4125    1.4158 C   0  0  0  0  0  0  0  0  0  0  0  0
   -4.6987   -2.6025    0.2914 C   0  0  0  0  0  0  0  0  0  0  0  0
   -4.2526   -1.5137   -0.4859 C   0  0  0  0  0  0  0  0  0  0  0  0
   -3.4243   -1.7985   -1.7182 C   0  0  0  0  0  0  0  0  0  0  0  0
   -3.0116   -3.0994   -1.7898 F   0  0  0  0  0  0  0  0  0  0  0  0
   -4.1067   -1.5919   -2.8807 F   0  0  0  0  0  0  0  0  0  0  0  0
   -2.2841   -1.0488   -1.7775 F   0  0  0  0  0  0  0  0  0  0  0  0
   -1.8168    2.4112   -1.4664 C   0  0  0  0  0  0  0  0  0  0  0  0
   -0.3038    2.2218   -1.3566 C   0  0  0  0  0  0  0  0  0  0  0  0
    1.8540    0.4458    0.8780 N   0  0  0  0  0  0  0  0  0  0  0  0
    2.1553   -0.8616    1.0707 C   0  0  0  0  0  0  0  0  0  0  0  0
    1.3657   -1.9623    0.8388 C   0  0  0  0  0  0  0  0  0  0  0  0
    2.0253   -3.1040    1.1773 N   0  0  0  0  0  0  0  0  0  0  0  0
    3.2364   -2.7495    1.6106 N   0  0  0  0  0  0  0  0  0  0  0  0
    3.3255   -1.3971    1.5276 N   0  0  0  0  0  0  0  0  0  0  0  0
    4.5249   -0.7017    1.9460 C   0  0  0  0  0  0  0  0  0  0  0  0
    5.4278   -0.3916    0.7769 C   0  0  0  0  0  0  0  0  0  0  0  0
    6.4584   -1.2750    0.4145 C   0  0  0  0  0  0  0  0  0  0  0  0
    7.2890   -0.9933   -0.6750 C   0  0  0  0  0  0  0  0  0  0  0  0
    7.0912    0.1657   -1.4212 C   0  0  0  0  0  0  0  0  0  0  0  0
    6.0645    1.0378   -1.0714 C   0  0  0  0  0  0  0  0  0  0  0  0
    5.8607    2.1485   -1.7941 F   0  0  0  0  0  0  0  0  0  0  0  0
    5.2370    0.7724    0.0147 C   0  0  0  0  0  0  0  0  0  0  0  0
   -1.0982   -0.2148   -0.3943 H   0  0  0  0  0  0  0  0  0  0  0  0
    1.0332    2.7021    0.2461 H   0  0  0  0  0  0  0  0  0  0  0  0
   -1.0493    3.5302    1.0436 H   0  0  0  0  0  0  0  0  0  0  0  0
   -0.5734    2.2435    2.1356 H   0  0  0  0  0  0  0  0  0  0  0  0
   -2.3020    0.8228    1.4526 H   0  0  0  0  0  0  0  0  0  0  0  0
   -3.0532    2.4207    1.2929 H   0  0  0  0  0  0  0  0  0  0  0  0
   -5.7643    0.9648    1.3521 H   0  0  0  0  0  0  0  0  0  0  0  0
   -6.5239   -0.9831    2.6574 H   0  0  0  0  0  0  0  0  0  0  0  0
   -5.8484   -3.2727    1.9869 H   0  0  0  0  0  0  0  0  0  0  0  0
   -4.4217   -3.6211    0.0188 H   0  0  0  0  0  0  0  0  0  0  0  0
   -2.1069    3.4367   -1.1978 H   0  0  0  0  0  0  0  0  0  0  0  0
   -2.1036    2.2489   -2.5095 H   0  0  0  0  0  0  0  0  0  0  0  0
    0.0098    1.3702   -1.9744 H   0  0  0  0  0  0  0  0  0  0  0  0
    0.1832    3.1072   -1.7964 H   0  0  0  0  0  0  0  0  0  0  0  0
    4.2281    0.2197    2.4641 H   0  0  0  0  0  0  0  0  0  0  0  0
    5.0410   -1.3281    2.6856 H   0  0  0  0  0  0  0  0  0  0  0  0
    6.6172   -2.1968    0.9746 H   0  0  0  0  0  0  0  0  0  0  0  0
    8.0846   -1.6863   -0.9435 H   0  0  0  0  0  0  0  0  0  0  0  0
    7.7215    0.3889   -2.2749 H   0  0  0  0  0  0  0  0  0  0  0  0
    4.4396    1.4733    0.2481 H   0  0  0  0  0  0  0  0  0  0  0  0
  1  2  2  0
  2  3  1  0
  3  4  1  0
  4  5  1  0
  5  6  1  0
  6  7  1  0
  7  8  1  0
  8  9  1  0
  9 10  2  0
  9 11  2  0
  9 12  1  0
 12 13  2  0
 13 14  1  0
 14 15  2  0
 15 16  1  0
 16 17  2  0
 17 18  1  0
 18 19  1  0
 18 20  1  0
 18 21  1  0
  8 22  1  0
 22 23  1  0
  4 24  2  0
 24 25  1  0
 25 26  2  0
 26 27  1  0
 27 28  2  0
 28 29  1  0
 29 30  1  0
 30 31  1  0
 31 32  2  0
 32 33  1  0
 33 34  2  0
 34 35  1  0
 35 36  1  0
 35 37  2  0
 26  2  1  0
 37 31  1  0
 23  5  1  0
 29 25  1  0
 17 12  1  0
  3 38  1  0
  5 39  1  0
  6 40  1  0
  6 41  1  0
  7 42  1  0
  7 43  1  0
 13 44  1  0
 14 45  1  0
 15 46  1  0
 16 47  1  0
 22 48  1  0
 22 49  1  0
 23 50  1  0
 23 51  1  0
 30 52  1  0
 30 53  1  0
 32 54  1  0
 33 55  1  0
 34 56  1  0
 37 57  1  0
M  END
$$$$
