
     RDKit          3D

 40 41  0  0  0  0  0  0  0  0999 V2000
    6.1489    2.3188    0.4363 C   0  0  0  0  0  0  0  0  0  0  0  0
    6.6292    0.6839    1.0469 S   0  0  0  0  0  0  0  0  0  0  0  0
    5.6202   -0.3572   -0.0539 C   0  0  0  0  0  0  0  0  0  0  0  0
    4.1349   -0.1942    0.1542 C   0  0  0  0  0  0  0  0  0  0  0  0
    3.3409    0.4085   -0.8319 C   0  0  0  0  0  0  0  0  0  0  0  0
    1.9659    0.5625   -0.6384 C   0  0  0  0  0  0  0  0  0  0  0  0
    1.3625    0.1059    0.5388 C   0  0  0  0  0  0  0  0  0  0  0  0
   -0.1055    0.2953    0.6985 C   0  0  0  0  0  0  0  0  0  0  0  0
   -0.6636    1.2335    0.1413 O   0  0  0  0  0  0  0  0  0  0  0  0
   -0.7619   -0.6454    1.4639 N   0  0  0  0  0  0  0  0  0  0  0  0
   -2.2055   -0.6296    1.6396 C   0  0  0  0  0  0  0  0  0  0  0  0
   -2.8899   -1.8932    1.1086 C   0  0  0  0  0  0  0  0  0  0  0  0
   -2.6702   -2.1619   -0.6876 S   0  0  0  0  0  0  0  0  0  0  0  0
   -3.8564   -0.9863   -1.3071 C   0  0  0  0  0  0  0  0  0  0  0  0
   -3.4351    0.2701   -1.7509 C   0  0  0  0  0  0  0  0  0  0  0  0
   -4.3629    1.1935   -2.2395 C   0  0  0  0  0  0  0  0  0  0  0  0
   -5.7128    0.8532   -2.2937 C   0  0  0  0  0  0  0  0  0  0  0  0
   -6.9700    2.0998   -2.9552 Br  0  0  0  0  0  0  0  0  0  0  0  0
   -6.1427   -0.4015   -1.8652 C   0  0  0  0  0  0  0  0  0  0  0  0
   -5.2127   -1.3217   -1.3740 C   0  0  0  0  0  0  0  0  0  0  0  0
    2.1491   -0.4856    1.5334 C   0  0  0  0  0  0  0  0  0  0  0  0
    3.5250   -0.6387    1.3377 C   0  0  0  0  0  0  0  0  0  0  0  0
    6.3016    2.3859   -0.6440 H   0  0  0  0  0  0  0  0  0  0  0  0
    5.1053    2.5331    0.6789 H   0  0  0  0  0  0  0  0  0  0  0  0
    6.7727    3.0755    0.9201 H   0  0  0  0  0  0  0  0  0  0  0  0
    5.8877   -1.4045    0.1274 H   0  0  0  0  0  0  0  0  0  0  0  0
    5.8992   -0.1460   -1.0923 H   0  0  0  0  0  0  0  0  0  0  0  0
    3.7855    0.7681   -1.7576 H   0  0  0  0  0  0  0  0  0  0  0  0
    1.3630    1.0373   -1.4103 H   0  0  0  0  0  0  0  0  0  0  0  0
   -0.2574   -1.4613    1.7819 H   0  0  0  0  0  0  0  0  0  0  0  0
   -2.3754   -0.5689    2.7204 H   0  0  0  0  0  0  0  0  0  0  0  0
   -2.6406    0.2712    1.1956 H   0  0  0  0  0  0  0  0  0  0  0  0
   -3.9579   -1.8726    1.3499 H   0  0  0  0  0  0  0  0  0  0  0  0
   -2.4650   -2.7699    1.6101 H   0  0  0  0  0  0  0  0  0  0  0  0
   -2.3831    0.5464   -1.7110 H   0  0  0  0  0  0  0  0  0  0  0  0
   -4.0188    2.1696   -2.5713 H   0  0  0  0  0  0  0  0  0  0  0  0
   -7.1935   -0.6740   -1.9124 H   0  0  0  0  0  0  0  0  0  0  0  0
   -5.5550   -2.3018   -1.0507 H   0  0  0  0  0  0  0  0  0  0  0  0
    1.7174   -0.8044    2.4773 H   0  0  0  0  0  0  0  0  0  0  0  0
    4.1269   -1.0936    2.1230 H   0  0  0  0  0  0  0  0  0  0  0  0
  1  2  1  0
  2  3  1  0
  3  4  1  0
  4  5  2  0
  5  6  1  0
  6  7  2  0
  7  8  1  0
  8  9  2  0
  8 10  1  0
 10 11  1  0
 11 12  1  0
 12 13  1  0
 13 14  1  0
 14 15  2  0
 15 16  1  0
 16 17  2  0
 17 18  1  0
 17 19  1  0
 19 20  2  0
  7 21  1  0
 21 22  2  0
 22  4  1  0
 20 14  1  0
  1 23  1  0
  1 24  1  0
  1 25  1  0
  3 26  1  0
  3 27  1  0
  5 28  1  0
  6 29  1  0
 10 30  1  0
 11 31  1  0
 11 32  1  0
 12 33  1  0
 12 34  1  0
 15 35  1  0
 16 36  1  0
 19 37  1  0
 20 38  1  0
 21 39  1  0
 22 40  1  0
M  END
$$$$
