
     RDKit          3D

 44 47  0  0  0  0  0  0  0  0999 V2000
   -6.0419   -1.8430   -1.4243 C   0  0  0  0  0  0  0  0  0  0  0  0
   -5.2188   -0.5669   -1.4242 C   0  0  0  0  0  0  0  0  0  0  0  0
   -4.5946   -0.3696   -0.1582 O   0  0  0  0  0  0  0  0  0  0  0  0
   -3.3375   -0.8639    0.0566 C   0  0  0  0  0  0  0  0  0  0  0  0
   -2.6579   -1.7340   -0.7994 C   0  0  0  0  0  0  0  0  0  0  0  0
   -1.3858   -2.2162   -0.4638 C   0  0  0  0  0  0  0  0  0  0  0  0
   -0.7815   -1.8436    0.7395 C   0  0  0  0  0  0  0  0  0  0  0  0
    0.5434   -2.3526    1.0912 C   0  0  0  0  0  0  0  0  0  0  0  0
    1.7019   -1.7601    0.7671 C   0  0  0  0  0  0  0  0  0  0  0  0
    3.2555   -2.4446    1.2440 S   0  0  0  0  0  0  0  0  0  0  0  0
    4.0592   -1.1411    0.4762 C   0  0  0  0  0  0  0  0  0  0  0  0
    5.3002   -0.7911    0.3055 N   0  0  0  0  0  0  0  0  0  0  0  0
    5.1596    0.3815   -0.4213 C   0  0  0  0  0  0  0  0  0  0  0  0
    6.3916    1.2213   -0.8940 C   0  0  0  0  0  0  0  0  0  0  0  0
    6.3390    2.3959   -1.6208 C   0  0  0  0  0  0  0  0  0  0  0  0
    7.6776    2.8089   -1.8267 C   0  0  0  0  0  0  0  0  0  0  0  0
    8.4652    1.8637   -1.2142 C   0  0  0  0  0  0  0  0  0  0  0  0
    7.6975    0.8987   -0.6470 O   0  0  0  0  0  0  0  0  0  0  0  0
    3.8865    0.7421   -0.6906 N   0  0  0  0  0  0  0  0  0  0  0  0
    3.2160   -0.2608   -0.0960 N   0  0  0  0  0  0  0  0  0  0  0  0
    1.8579   -0.4854   -0.0111 C   0  0  0  0  0  0  0  0  0  0  0  0
    1.0265    0.2535   -0.5030 O   0  0  0  0  0  0  0  0  0  0  0  0
   -1.4543   -0.9818    1.6057 C   0  0  0  0  0  0  0  0  0  0  0  0
   -2.7112   -0.4818    1.2541 C   0  0  0  0  0  0  0  0  0  0  0  0
   -3.3105    0.3470    2.1716 O   0  0  0  0  0  0  0  0  0  0  0  0
   -3.3465    1.6977    1.6949 C   0  0  0  0  0  0  0  0  0  0  0  0
   -3.5902    2.6052    2.8874 C   0  0  0  0  0  0  0  0  0  0  0  0
   -5.4146   -2.7250   -1.2653 H   0  0  0  0  0  0  0  0  0  0  0  0
   -6.5737   -1.9599   -2.3730 H   0  0  0  0  0  0  0  0  0  0  0  0
   -6.7746   -1.8254   -0.6106 H   0  0  0  0  0  0  0  0  0  0  0  0
   -4.5085   -0.5253   -2.2572 H   0  0  0  0  0  0  0  0  0  0  0  0
   -5.8980    0.2811   -1.5692 H   0  0  0  0  0  0  0  0  0  0  0  0
   -3.0912   -2.0732   -1.7338 H   0  0  0  0  0  0  0  0  0  0  0  0
   -0.8800   -2.8903   -1.1515 H   0  0  0  0  0  0  0  0  0  0  0  0
    0.5304   -3.2783    1.6632 H   0  0  0  0  0  0  0  0  0  0  0  0
    5.4363    2.8877   -1.9576 H   0  0  0  0  0  0  0  0  0  0  0  0
    8.0249    3.6856   -2.3551 H   0  0  0  0  0  0  0  0  0  0  0  0
    9.5328    1.7385   -1.0971 H   0  0  0  0  0  0  0  0  0  0  0  0
   -1.0124   -0.6815    2.5518 H   0  0  0  0  0  0  0  0  0  0  0  0
   -4.1633    1.8252    0.9770 H   0  0  0  0  0  0  0  0  0  0  0  0
   -2.3977    1.9758    1.2184 H   0  0  0  0  0  0  0  0  0  0  0  0
   -3.6388    3.6525    2.5765 H   0  0  0  0  0  0  0  0  0  0  0  0
   -2.7907    2.4925    3.6270 H   0  0  0  0  0  0  0  0  0  0  0  0
   -4.5277    2.3410    3.3879 H   0  0  0  0  0  0  0  0  0  0  0  0
  1  2  1  0
  2  3  1  0
  3  4  1  0
  4  5  2  0
  5  6  1  0
  6  7  2  0
  7  8  1  0
  8  9  2  3
  9 10  1  0
 10 11  1  0
 11 12  2  0
 12 13  1  0
 13 14  1  0
 14 15  2  0
 15 16  1  0
 16 17  2  0
 17 18  1  0
 13 19  2  0
 19 20  1  0
 20 21  1  0
 21 22  2  0
  7 23  1  0
 23 24  2  0
 24 25  1  0
 25 26  1  0
 26 27  1  0
 24  4  1  0
 21  9  1  0
 20 11  1  0
 18 14  1  0
  1 28  1  0
  1 29  1  0
  1 30  1  0
  2 31  1  0
  2 32  1  0
  5 33  1  0
  6 34  1  0
  8 35  1  0
 15 36  1  0
 16 37  1  0
 17 38  1  0
 23 39  1  0
 26 40  1  0
 26 41  1  0
 27 42  1  0
 27 43  1  0
 27 44  1  0
M  END
$$$$
