
     RDKit          3D

 57 62  0  0  0  0  0  0  0  0999 V2000
    7.3063   -2.4797    1.3479 C   0  0  0  0  0  0  0  0  0  0  0  0
    6.1427   -1.9235    0.6015 C   0  0  0  0  0  0  0  0  0  0  0  0
    5.1699   -2.6009   -0.1029 C   0  0  0  0  0  0  0  0  0  0  0  0
    4.2209   -1.7172   -0.6940 C   0  0  0  0  0  0  0  0  0  0  0  0
    4.4854   -0.3905   -0.4072 C   0  0  0  0  0  0  0  0  0  0  0  0
    3.7702    0.8052   -0.8319 C   0  0  0  0  0  0  0  0  0  0  0  0
    4.3538    1.8202   -1.2147 O   0  0  0  0  0  0  0  0  0  0  0  0
    2.3589    0.7432   -0.8382 N   0  0  0  0  0  0  0  0  0  0  0  0
    1.6501    0.1074    0.2694 C   0  0  0  0  0  0  0  0  0  0  0  0
    0.2153   -0.2546   -0.1086 C   0  0  0  0  0  0  0  0  0  0  0  0
   -0.5790    0.9668   -0.6406 C   0  0  0  0  0  0  0  0  0  0  0  0
    0.2429    1.5488   -1.8240 C   0  0  0  0  0  0  0  0  0  0  0  0
    1.6748    1.8894   -1.4212 C   0  0  0  0  0  0  0  0  0  0  0  0
   -0.6215    1.9125    0.4553 O   0  0  0  0  0  0  0  0  0  0  0  0
   -1.4509    2.9857    0.2874 C   0  0  0  0  0  0  0  0  0  0  0  0
   -1.2162    4.0794    1.1196 C   0  0  0  0  0  0  0  0  0  0  0  0
   -2.0048    5.2267    1.0039 C   0  0  0  0  0  0  0  0  0  0  0  0
   -3.0302    5.2740    0.0589 C   0  0  0  0  0  0  0  0  0  0  0  0
   -3.9964    6.6896   -0.0790 Cl  0  0  0  0  0  0  0  0  0  0  0  0
   -3.2813    4.1810   -0.7666 C   0  0  0  0  0  0  0  0  0  0  0  0
   -2.4919    3.0336   -0.6395 C   0  0  0  0  0  0  0  0  0  0  0  0
   -2.7622    1.8447   -1.4711 C   0  0  0  0  0  0  0  0  0  0  0  0
   -3.5781    1.9150   -2.3839 O   0  0  0  0  0  0  0  0  0  0  0  0
   -2.0233    0.5747   -1.0638 C   0  0  0  0  0  0  0  0  0  0  0  0
   -2.8654   -0.1188    0.0028 C   0  0  0  0  0  0  0  0  0  0  0  0
   -2.8035   -1.5149   -0.5107 C   0  0  0  0  0  0  0  0  0  0  0  0
   -3.2733   -2.6659    0.2846 C   0  0  0  0  0  0  0  0  0  0  0  0
   -3.1264   -3.9639   -0.2086 C   0  0  0  0  0  0  0  0  0  0  0  0
   -3.5682   -5.0431    0.5538 C   0  0  0  0  0  0  0  0  0  0  0  0
   -4.1425   -4.7850    1.7877 C   0  0  0  0  0  0  0  0  0  0  0  0
   -4.3010   -3.5424    2.2948 N   0  0  0  0  0  0  0  0  0  0  0  0
   -3.8683   -2.5109    1.5297 C   0  0  0  0  0  0  0  0  0  0  0  0
   -2.3086   -1.6347   -1.6998 N   0  0  0  0  0  0  0  0  0  0  0  0
   -1.9951   -0.3376   -2.1660 O   0  0  0  0  0  0  0  0  0  0  0  0
    5.9045   -0.2301    0.5363 S   0  0  0  0  0  0  0  0  0  0  0  0
    7.3127   -3.5738    1.3026 H   0  0  0  0  0  0  0  0  0  0  0  0
    8.2488   -2.1213    0.9211 H   0  0  0  0  0  0  0  0  0  0  0  0
    7.2665   -2.1890    2.4028 H   0  0  0  0  0  0  0  0  0  0  0  0
    5.1445   -3.6798   -0.2016 H   0  0  0  0  0  0  0  0  0  0  0  0
    3.3871   -2.0377   -1.3076 H   0  0  0  0  0  0  0  0  0  0  0  0
    2.1640   -0.7920    0.6140 H   0  0  0  0  0  0  0  0  0  0  0  0
    1.6680    0.8082    1.1136 H   0  0  0  0  0  0  0  0  0  0  0  0
   -0.2624   -0.6674    0.7869 H   0  0  0  0  0  0  0  0  0  0  0  0
    0.2459   -1.0464   -0.8667 H   0  0  0  0  0  0  0  0  0  0  0  0
    0.2716    0.8218   -2.6457 H   0  0  0  0  0  0  0  0  0  0  0  0
   -0.2147    2.4606   -2.2227 H   0  0  0  0  0  0  0  0  0  0  0  0
    1.6990    2.7092   -0.6928 H   0  0  0  0  0  0  0  0  0  0  0  0
    2.2214    2.2283   -2.3092 H   0  0  0  0  0  0  0  0  0  0  0  0
   -0.4114    4.0483    1.8509 H   0  0  0  0  0  0  0  0  0  0  0  0
   -1.8120    6.0805    1.6496 H   0  0  0  0  0  0  0  0  0  0  0  0
   -4.0872    4.2169   -1.4967 H   0  0  0  0  0  0  0  0  0  0  0  0
   -3.9123    0.2048    0.0045 H   0  0  0  0  0  0  0  0  0  0  0  0
   -2.4599   -0.0228    1.0124 H   0  0  0  0  0  0  0  0  0  0  0  0
   -2.6745   -4.1414   -1.1821 H   0  0  0  0  0  0  0  0  0  0  0  0
   -3.4679   -6.0605    0.1912 H   0  0  0  0  0  0  0  0  0  0  0  0
   -4.5026   -5.5935    2.4183 H   0  0  0  0  0  0  0  0  0  0  0  0
   -4.0325   -1.5371    1.9798 H   0  0  0  0  0  0  0  0  0  0  0  0
  1  2  1  0
  2  3  2  0
  3  4  1  0
  4  5  2  0
  5  6  1  0
  6  7  2  0
  6  8  1  0
  8  9  1  0
  9 10  1  0
 10 11  1  0
 11 12  1  0
 12 13  1  0
 11 14  1  0
 14 15  1  0
 15 16  2  0
 16 17  1  0
 17 18  2  0
 18 19  1  0
 18 20  1  0
 20 21  2  0
 21 22  1  0
 22 23  2  0
 22 24  1  0
 24 25  1  0
 25 26  1  0
 26 27  1  0
 27 28  2  0
 28 29  1  0
 29 30  2  0
 30 31  1  0
 31 32  2  0
 26 33  2  0
 33 34  1  0
  5 35  1  0
 35  2  1  0
 13  8  1  0
 21 15  1  0
 34 24  1  0
 24 11  1  0
 32 27  1  0
  1 36  1  0
  1 37  1  0
  1 38  1  0
  3 39  1  0
  4 40  1  0
  9 41  1  0
  9 42  1  0
 10 43  1  0
 10 44  1  0
 12 45  1  0
 12 46  1  0
 13 47  1  0
 13 48  1  0
 16 49  1  0
 17 50  1  0
 20 51  1  0
 25 52  1  0
 25 53  1  0
 28 54  1  0
 29 55  1  0
 30 56  1  0
 32 57  1  0
M  END
$$$$
