
     RDKit          3D

 34 35  0  0  0  0  0  0  0  0999 V2000
   -4.2691   -0.1032   -1.7834 O   0  0  0  0  0  0  0  0  0  0  0  0
   -3.9209   -0.3542   -0.6252 C   0  0  0  0  0  0  0  0  0  0  0  0
   -4.8499   -1.0723    0.3635 C   0  0  0  0  0  0  0  0  0  0  0  0
   -5.9156    0.1328    1.1202 Cl  0  0  0  0  0  0  0  0  0  0  0  0
   -5.8090   -2.3137   -0.4741 Cl  0  0  0  0  0  0  0  0  0  0  0  0
   -2.6556    0.0233   -0.1685 N   0  0  0  0  0  0  0  0  0  0  0  0
   -2.2304   -0.0258    1.2338 C   0  0  0  0  0  0  0  0  0  0  0  0
   -0.9111    0.7241    1.4988 C   0  0  0  0  0  0  0  0  0  0  0  0
    0.1437    0.2552    0.5947 N   0  0  0  0  0  0  0  0  0  0  0  0
    1.4289    0.9108    0.8720 C   0  0  0  0  0  0  0  0  0  0  0  0
    2.5997    0.2594    0.1656 C   0  0  0  0  0  0  0  0  0  0  0  0
    3.4437    1.0140   -0.6620 C   0  0  0  0  0  0  0  0  0  0  0  0
    4.5315    0.4146   -1.3000 C   0  0  0  0  0  0  0  0  0  0  0  0
    4.7897   -0.9424   -1.1147 C   0  0  0  0  0  0  0  0  0  0  0  0
    3.9620   -1.7021   -0.2907 C   0  0  0  0  0  0  0  0  0  0  0  0
    2.8747   -1.1044    0.3482 C   0  0  0  0  0  0  0  0  0  0  0  0
   -0.2547    0.3590   -0.8269 C   0  0  0  0  0  0  0  0  0  0  0  0
   -1.7397    0.6937   -1.0913 C   0  0  0  0  0  0  0  0  0  0  0  0
   -4.2933   -1.5869    1.1476 H   0  0  0  0  0  0  0  0  0  0  0  0
   -3.0225    0.3961    1.8602 H   0  0  0  0  0  0  0  0  0  0  0  0
   -2.1163   -1.0830    1.5010 H   0  0  0  0  0  0  0  0  0  0  0  0
   -1.0677    1.8045    1.3824 H   0  0  0  0  0  0  0  0  0  0  0  0
   -0.6221    0.5464    2.5416 H   0  0  0  0  0  0  0  0  0  0  0  0
    1.3732    1.9782    0.6203 H   0  0  0  0  0  0  0  0  0  0  0  0
    1.6490    0.8597    1.9468 H   0  0  0  0  0  0  0  0  0  0  0  0
    3.2591    2.0742   -0.8177 H   0  0  0  0  0  0  0  0  0  0  0  0
    5.1784    1.0067   -1.9421 H   0  0  0  0  0  0  0  0  0  0  0  0
    5.6360   -1.4082   -1.6127 H   0  0  0  0  0  0  0  0  0  0  0  0
    4.1611   -2.7605   -0.1459 H   0  0  0  0  0  0  0  0  0  0  0  0
    2.2312   -1.7067    0.9862 H   0  0  0  0  0  0  0  0  0  0  0  0
   -0.0367   -0.6125   -1.2874 H   0  0  0  0  0  0  0  0  0  0  0  0
    0.3436    1.1032   -1.3676 H   0  0  0  0  0  0  0  0  0  0  0  0
   -1.9045    1.7712   -0.9654 H   0  0  0  0  0  0  0  0  0  0  0  0
   -1.9863    0.4486   -2.1299 H   0  0  0  0  0  0  0  0  0  0  0  0
  1  2  2  0
  2  3  1  0
  3  4  1  0
  3  5  1  0
  2  6  1  0
  6  7  1  0
  7  8  1  0
  8  9  1  0
  9 10  1  0
 10 11  1  0
 11 12  2  0
 12 13  1  0
 13 14  2  0
 14 15  1  0
 15 16  2  0
  9 17  1  0
 17 18  1  0
 18  6  1  0
 16 11  1  0
  3 19  1  0
  7 20  1  0
  7 21  1  0
  8 22  1  0
  8 23  1  0
 10 24  1  0
 10 25  1  0
 12 26  1  0
 13 27  1  0
 14 28  1  0
 15 29  1  0
 16 30  1  0
 17 31  1  0
 17 32  1  0
 18 33  1  0
 18 34  1  0
M  END
$$$$
