
     RDKit          3D

 60 62  0  0  0  0  0  0  0  0999 V2000
   -8.2888    1.6717   -2.1409 C   0  0  0  0  0  0  0  0  0  0  0  0
   -7.8960    1.5777   -0.6747 C   0  0  0  0  0  0  0  0  0  0  0  0
   -6.4749    1.1086   -0.5011 C   0  0  0  0  0  0  0  0  0  0  0  0
   -5.4404    2.0274   -0.2989 C   0  0  0  0  0  0  0  0  0  0  0  0
   -4.1227    1.5856   -0.1401 C   0  0  0  0  0  0  0  0  0  0  0  0
   -3.8128    0.2209   -0.1879 C   0  0  0  0  0  0  0  0  0  0  0  0
   -2.4624   -0.1342   -0.0019 N   0  0  0  0  0  0  0  0  0  0  0  0
   -1.9070   -1.4073    0.0226 C   0  0  0  0  0  0  0  0  0  0  0  0
   -2.5224   -2.4565   -0.1452 O   0  0  0  0  0  0  0  0  0  0  0  0
   -0.3819   -1.3768    0.2958 C   0  0  0  0  0  0  0  0  0  0  0  0
   -0.1424   -0.8475    1.6596 N   0  0  0  0  0  0  0  0  0  0  0  0
    0.3067    0.7426    1.8828 S   0  0  0  0  0  6  0  0  0  0  0  0
   -0.4243    1.5170    0.9021 O   0  0  0  0  0  0  0  0  0  0  0  0
    0.2119    1.0147    3.2977 O   0  0  0  0  0  0  0  0  0  0  0  0
    2.0246    0.7260    1.4455 C   0  0  0  0  0  0  0  0  0  0  0  0
    2.8966   -0.1316    2.1368 C   0  0  0  0  0  0  0  0  0  0  0  0
    4.2536   -0.1757    1.7983 C   0  0  0  0  0  0  0  0  0  0  0  0
    4.7118    0.6480    0.7827 C   0  0  0  0  0  0  0  0  0  0  0  0
    3.8378    1.5025    0.1059 C   0  0  0  0  0  0  0  0  0  0  0  0
    2.4874    1.5534    0.4193 C   0  0  0  0  0  0  0  0  0  0  0  0
    4.5464    2.2677   -0.9657 C   0  0  0  0  0  0  0  0  0  0  0  0
    6.0083    1.8716   -0.7260 C   0  0  0  0  0  0  0  0  0  0  0  0
    6.0173    0.7941    0.2785 N   0  0  0  0  0  0  0  0  0  0  0  0
    7.1309    0.0869    0.6966 C   0  0  0  0  0  0  0  0  0  0  0  0
    8.4308    0.4799    0.0331 C   0  0  0  0  0  0  0  0  0  0  0  0
    7.1251   -0.8168    1.5318 O   0  0  0  0  0  0  0  0  0  0  0  0
    0.3639   -2.7286    0.1565 C   0  0  0  0  0  0  0  0  0  0  0  0
    0.3503   -3.2395   -1.2907 C   0  0  0  0  0  0  0  0  0  0  0  0
   -0.1100   -3.8280    1.1149 C   0  0  0  0  0  0  0  0  0  0  0  0
   -4.8419   -0.6948   -0.4045 C   0  0  0  0  0  0  0  0  0  0  0  0
   -6.1625   -0.2541   -0.5581 C   0  0  0  0  0  0  0  0  0  0  0  0
   -8.2103    0.6968   -2.6361 H   0  0  0  0  0  0  0  0  0  0  0  0
   -7.6458    2.3761   -2.6818 H   0  0  0  0  0  0  0  0  0  0  0  0
   -9.3229    2.0158   -2.2331 H   0  0  0  0  0  0  0  0  0  0  0  0
   -8.0279    2.5550   -0.1969 H   0  0  0  0  0  0  0  0  0  0  0  0
   -8.5710    0.8907   -0.1498 H   0  0  0  0  0  0  0  0  0  0  0  0
   -5.6521    3.0942   -0.2588 H   0  0  0  0  0  0  0  0  0  0  0  0
   -3.3428    2.3258    0.0257 H   0  0  0  0  0  0  0  0  0  0  0  0
   -1.8248    0.6450    0.1757 H   0  0  0  0  0  0  0  0  0  0  0  0
    0.0577   -0.6935   -0.4443 H   0  0  0  0  0  0  0  0  0  0  0  0
   -0.6185   -1.2863    2.4499 H   0  0  0  0  0  0  0  0  0  0  0  0
    2.5241   -0.7667    2.9378 H   0  0  0  0  0  0  0  0  0  0  0  0
    4.9187   -0.8394    2.3387 H   0  0  0  0  0  0  0  0  0  0  0  0
    1.8175    2.2165   -0.1167 H   0  0  0  0  0  0  0  0  0  0  0  0
    4.4033    3.3472   -0.8691 H   0  0  0  0  0  0  0  0  0  0  0  0
    4.2101    1.9384   -1.9531 H   0  0  0  0  0  0  0  0  0  0  0  0
    6.4928    1.5311   -1.6483 H   0  0  0  0  0  0  0  0  0  0  0  0
    6.5852    2.7139   -0.3282 H   0  0  0  0  0  0  0  0  0  0  0  0
    8.6287    1.5475    0.1767 H   0  0  0  0  0  0  0  0  0  0  0  0
    9.2544   -0.0809    0.4901 H   0  0  0  0  0  0  0  0  0  0  0  0
    8.3947    0.2385   -1.0345 H   0  0  0  0  0  0  0  0  0  0  0  0
    1.4180   -2.5363    0.4112 H   0  0  0  0  0  0  0  0  0  0  0  0
    0.7344   -2.4778   -1.9735 H   0  0  0  0  0  0  0  0  0  0  0  0
    0.9872   -4.1274   -1.3882 H   0  0  0  0  0  0  0  0  0  0  0  0
   -0.6572   -3.5146   -1.6214 H   0  0  0  0  0  0  0  0  0  0  0  0
    0.5615   -4.6920    1.0612 H   0  0  0  0  0  0  0  0  0  0  0  0
   -1.1125   -4.1849    0.8752 H   0  0  0  0  0  0  0  0  0  0  0  0
   -0.1139   -3.4837    2.1510 H   0  0  0  0  0  0  0  0  0  0  0  0
   -4.6563   -1.7627   -0.4543 H   0  0  0  0  0  0  0  0  0  0  0  0
   -6.9455   -0.9916   -0.7203 H   0  0  0  0  0  0  0  0  0  0  0  0
  1  2  1  0
  2  3  1  0
  3  4  2  0
  4  5  1  0
  5  6  2  0
  6  7  1  0
  7  8  1  0
  8  9  2  0
  8 10  1  0
 10 11  1  0
 11 12  1  0
 12 13  2  0
 12 14  2  0
 12 15  1  0
 15 16  2  0
 16 17  1  0
 17 18  2  0
 18 19  1  0
 19 20  2  0
 19 21  1  0
 21 22  1  0
 22 23  1  0
 23 24  1  0
 24 25  1  0
 24 26  2  0
 10 27  1  0
 27 28  1  0
 27 29  1  0
  6 30  1  0
 30 31  2  0
 31  3  1  0
 20 15  1  0
 23 18  1  0
  1 32  1  0
  1 33  1  0
  1 34  1  0
  2 35  1  0
  2 36  1  0
  4 37  1  0
  5 38  1  0
  7 39  1  0
 10 40  1  0
 11 41  1  0
 16 42  1  0
 17 43  1  0
 20 44  1  0
 21 45  1  0
 21 46  1  0
 22 47  1  0
 22 48  1  0
 25 49  1  0
 25 50  1  0
 25 51  1  0
 27 52  1  0
 28 53  1  0
 28 54  1  0
 28 55  1  0
 29 56  1  0
 29 57  1  0
 29 58  1  0
 30 59  1  0
 31 60  1  0
M  END
$$$$
