
     RDKit          3D

 38 39  0  0  0  0  0  0  0  0999 V2000
    1.7997   -0.3868   -1.9766 O   0  0  0  0  0  0  0  0  0  0  0  0
    0.7723   -0.7048   -1.3792 C   0  0  0  0  0  0  0  0  0  0  0  0
   -0.5822   -0.8619   -2.0725 C   0  0  0  0  0  0  0  0  0  0  0  0
   -1.7025   -0.6758   -1.2023 O   0  0  0  0  0  0  0  0  0  0  0  0
   -1.9882    0.6192   -0.9228 C   0  0  0  0  0  0  0  0  0  0  0  0
   -1.3505    1.5906   -1.3015 O   0  0  0  0  0  0  0  0  0  0  0  0
   -3.1796    0.7433   -0.0470 C   0  0  0  0  0  0  0  0  0  0  0  0
   -3.9395   -0.3776    0.3222 C   0  0  0  0  0  0  0  0  0  0  0  0
   -5.0513   -0.2282    1.1552 C   0  0  0  0  0  0  0  0  0  0  0  0
   -5.4050    1.0345    1.6175 C   0  0  0  0  0  0  0  0  0  0  0  0
   -6.4966    1.1283    2.4279 O   0  0  0  0  0  0  0  0  0  0  0  0
   -4.6677    2.1577    1.2607 C   0  0  0  0  0  0  0  0  0  0  0  0
   -3.5582    2.0099    0.4280 C   0  0  0  0  0  0  0  0  0  0  0  0
   -2.8866    3.1652    0.1221 O   0  0  0  0  0  0  0  0  0  0  0  0
    0.7755   -1.0304   -0.0367 N   0  0  0  0  0  0  0  0  0  0  0  0
    1.9509   -0.7726    0.7754 C   0  0  0  0  0  0  0  0  0  0  0  0
    3.1423   -1.6746    0.4176 C   0  0  0  0  0  0  0  0  0  0  0  0
    4.3991   -0.9588    0.4852 N   0  0  0  0  0  0  0  0  0  0  0  0
    5.0205   -0.3444   -0.5762 C   0  0  0  0  0  0  0  0  0  0  0  0
    4.4852   -0.3439   -1.8296 O   0  0  0  0  0  0  0  0  0  0  0  0
    6.1816    0.2429   -0.2725 C   0  0  0  0  0  0  0  0  0  0  0  0
    6.5561    0.0828    1.4150 S   0  0  0  0  0  0  0  0  0  0  0  0
    5.0588   -0.8191    1.6989 C   0  0  0  0  0  0  0  0  0  0  0  0
    4.6985   -1.2200    2.7939 O   0  0  0  0  0  0  0  0  0  0  0  0
   -0.6387   -0.1757   -2.9256 H   0  0  0  0  0  0  0  0  0  0  0  0
   -0.6365   -1.8835   -2.4626 H   0  0  0  0  0  0  0  0  0  0  0  0
   -3.6865   -1.3741   -0.0307 H   0  0  0  0  0  0  0  0  0  0  0  0
   -5.6426   -1.0943    1.4422 H   0  0  0  0  0  0  0  0  0  0  0  0
   -6.6291    2.0611    2.6683 H   0  0  0  0  0  0  0  0  0  0  0  0
   -4.9371    3.1478    1.6151 H   0  0  0  0  0  0  0  0  0  0  0  0
   -2.1500    2.9578   -0.4941 H   0  0  0  0  0  0  0  0  0  0  0  0
   -0.1225   -1.1207    0.4257 H   0  0  0  0  0  0  0  0  0  0  0  0
    2.2024    0.2875    0.6497 H   0  0  0  0  0  0  0  0  0  0  0  0
    1.6663   -0.9230    1.8223 H   0  0  0  0  0  0  0  0  0  0  0  0
    3.1758   -2.5047    1.1349 H   0  0  0  0  0  0  0  0  0  0  0  0
    3.0472   -2.1421   -0.5684 H   0  0  0  0  0  0  0  0  0  0  0  0
    3.5059   -0.3815   -1.7736 H   0  0  0  0  0  0  0  0  0  0  0  0
    6.8129    0.7698   -0.9736 H   0  0  0  0  0  0  0  0  0  0  0  0
  1  2  2  0
  2  3  1  0
  3  4  1  0
  4  5  1  0
  5  6  2  0
  5  7  1  0
  7  8  2  0
  8  9  1  0
  9 10  2  0
 10 11  1  0
 10 12  1  0
 12 13  2  0
 13 14  1  0
  2 15  1  0
 15 16  1  0
 16 17  1  0
 17 18  1  0
 18 19  1  0
 19 20  1  0
 19 21  2  0
 21 22  1  0
 22 23  1  0
 23 24  2  0
 13  7  1  0
 23 18  1  0
  3 25  1  0
  3 26  1  0
  8 27  1  0
  9 28  1  0
 11 29  1  0
 12 30  1  0
 14 31  1  0
 15 32  1  0
 16 33  1  0
 16 34  1  0
 17 35  1  0
 17 36  1  0
 20 37  1  0
 21 38  1  0
M  END
$$$$
