
     RDKit          3D

 56 61  0  0  0  0  0  0  0  0999 V2000
    7.2479    2.5329   -1.4833 C   0  0  0  0  0  0  0  0  0  0  0  0
    5.9995    1.7444   -1.2119 C   0  0  0  0  0  0  0  0  0  0  0  0
    4.8149    2.0208   -1.9002 C   0  0  0  0  0  0  0  0  0  0  0  0
    3.6484    1.3012   -1.6238 C   0  0  0  0  0  0  0  0  0  0  0  0
    3.6537    0.2974   -0.6481 C   0  0  0  0  0  0  0  0  0  0  0  0
    2.3375   -0.5018   -0.3406 C   0  0  0  0  0  0  0  0  0  0  0  0
    1.0871   -0.2769   -0.9017 C   0  0  0  0  0  0  0  0  0  0  0  0
    0.1685   -1.1615   -0.3360 N   0  0  0  0  0  4  0  0  0  0  0  0
   -1.2654   -1.2600   -0.6528 C   0  0  0  0  0  0  0  0  0  0  0  0
   -2.1546   -0.9186    0.5552 C   0  0  0  0  0  0  0  0  0  0  0  0
   -1.9400   -1.4310    1.6545 O   0  0  0  0  0  0  0  0  0  0  0  0
   -3.2171   -0.0633    0.2447 N   0  0  0  0  0  0  0  0  0  0  0  0
   -2.9368    1.2775   -0.2022 C   0  0  0  0  0  0  0  0  0  0  0  0
   -1.6780    1.8494    0.0917 C   0  0  0  0  0  0  0  0  0  0  0  0
   -1.3397    3.1389   -0.3260 C   0  0  0  0  0  0  0  0  0  0  0  0
   -2.2575    3.8931   -1.0408 C   0  0  0  0  0  0  0  0  0  0  0  0
   -3.5157    3.3631   -1.3146 C   0  0  0  0  0  0  0  0  0  0  0  0
   -3.8659    2.0709   -0.8877 C   0  0  0  0  0  0  0  0  0  0  0  0
   -5.4892    1.5082   -1.2959 S   0  0  0  0  0  0  0  0  0  0  0  0
   -5.6745    0.1957   -0.1170 C   0  0  0  0  0  0  0  0  0  0  0  0
   -6.9923   -0.2327    0.1272 C   0  0  0  0  0  0  0  0  0  0  0  0
   -7.2485   -1.3201    0.9550 C   0  0  0  0  0  0  0  0  0  0  0  0
   -6.1867   -1.9963    1.5341 C   0  0  0  0  0  0  0  0  0  0  0  0
   -4.8733   -1.5775    1.2926 C   0  0  0  0  0  0  0  0  0  0  0  0
   -4.5829   -0.4621    0.4794 C   0  0  0  0  0  0  0  0  0  0  0  0
    0.8317   -1.9266    0.5288 C   0  0  0  0  0  0  0  0  0  0  0  0
    2.1133   -1.5655    0.5133 N   0  0  0  0  0  0  0  0  0  0  0  0
    2.9235   -2.4105    1.3812 C   0  0  0  0  0  0  0  0  0  0  0  0
    1.9892   -3.6126    1.6842 C   0  0  0  0  0  0  0  0  0  0  0  0
    0.5674   -3.0751    1.4294 C   0  0  0  0  0  0  0  0  0  0  0  0
    4.8296    0.0310    0.0535 C   0  0  0  0  0  0  0  0  0  0  0  0
    5.9944    0.7529   -0.2259 C   0  0  0  0  0  0  0  0  0  0  0  0
    8.1236    1.8757   -1.4905 H   0  0  0  0  0  0  0  0  0  0  0  0
    7.3810    3.2989   -0.7133 H   0  0  0  0  0  0  0  0  0  0  0  0
    7.2010    3.0252   -2.4601 H   0  0  0  0  0  0  0  0  0  0  0  0
    4.7951    2.8013   -2.6598 H   0  0  0  0  0  0  0  0  0  0  0  0
    2.7579    1.5507   -2.1930 H   0  0  0  0  0  0  0  0  0  0  0  0
    0.7252    0.4253   -1.6337 H   0  0  0  0  0  0  0  0  0  0  0  0
   -1.4762   -2.2959   -0.9416 H   0  0  0  0  0  0  0  0  0  0  0  0
   -1.4876   -0.6288   -1.5181 H   0  0  0  0  0  0  0  0  0  0  0  0
   -0.9515    1.3283    0.7113 H   0  0  0  0  0  0  0  0  0  0  0  0
   -0.3728    3.5664   -0.0684 H   0  0  0  0  0  0  0  0  0  0  0  0
   -2.0103    4.9018   -1.3640 H   0  0  0  0  0  0  0  0  0  0  0  0
   -4.2328    3.9757   -1.8600 H   0  0  0  0  0  0  0  0  0  0  0  0
   -7.8342    0.2763   -0.3404 H   0  0  0  0  0  0  0  0  0  0  0  0
   -8.2714   -1.6405    1.1385 H   0  0  0  0  0  0  0  0  0  0  0  0
   -6.3755   -2.8486    2.1837 H   0  0  0  0  0  0  0  0  0  0  0  0
   -4.0961   -2.1425    1.7984 H   0  0  0  0  0  0  0  0  0  0  0  0
    3.8332   -2.7394    0.8740 H   0  0  0  0  0  0  0  0  0  0  0  0
    3.1610   -1.8534    2.2921 H   0  0  0  0  0  0  0  0  0  0  0  0
    2.2013   -4.4162    0.9690 H   0  0  0  0  0  0  0  0  0  0  0  0
    2.1227   -4.0126    2.6926 H   0  0  0  0  0  0  0  0  0  0  0  0
    0.1229   -2.6723    2.3407 H   0  0  0  0  0  0  0  0  0  0  0  0
   -0.0871   -3.7864    0.9251 H   0  0  0  0  0  0  0  0  0  0  0  0
    4.8782   -0.7151    0.8361 H   0  0  0  0  0  0  0  0  0  0  0  0
    6.9037    0.5404    0.3350 H   0  0  0  0  0  0  0  0  0  0  0  0
  1  2  1  0
  2  3  2  0
  3  4  1  0
  4  5  2  0
  5  6  1  0
  6  7  2  0
  7  8  1  0
  8  9  1  0
  9 10  1  0
 10 11  2  0
 10 12  1  0
 12 13  1  0
 13 14  2  0
 14 15  1  0
 15 16  2  0
 16 17  1  0
 17 18  2  0
 18 19  1  0
 19 20  1  0
 20 21  2  0
 21 22  1  0
 22 23  2  0
 23 24  1  0
 24 25  2  0
  8 26  2  0
 26 27  1  0
 27 28  1  0
 28 29  1  0
 29 30  1  0
  5 31  1  0
 31 32  2  0
 32  2  1  0
 27  6  1  0
 25 12  1  0
 30 26  1  0
 18 13  1  0
 25 20  1  0
  1 33  1  0
  1 34  1  0
  1 35  1  0
  3 36  1  0
  4 37  1  0
  7 38  1  0
  9 39  1  0
  9 40  1  0
 14 41  1  0
 15 42  1  0
 16 43  1  0
 17 44  1  0
 21 45  1  0
 22 46  1  0
 23 47  1  0
 24 48  1  0
 28 49  1  0
 28 50  1  0
 29 51  1  0
 29 52  1  0
 30 53  1  0
 30 54  1  0
 31 55  1  0
 32 56  1  0
M  CHG  1   8   1
M  END
$$$$
