
     RDKit          3D

 51 55  0  0  0  0  0  0  0  0999 V2000
   -7.2763   -1.6043    2.5880 F   0  0  0  0  0  0  0  0  0  0  0  0
   -6.7051   -1.3160    1.4114 C   0  0  0  0  0  0  0  0  0  0  0  0
   -7.4616   -1.3874    0.2484 C   0  0  0  0  0  0  0  0  0  0  0  0
   -6.8678   -1.0824   -0.9748 C   0  0  0  0  0  0  0  0  0  0  0  0
   -5.5219   -0.7092   -1.0241 C   0  0  0  0  0  0  0  0  0  0  0  0
   -4.7562   -0.6421    0.1496 C   0  0  0  0  0  0  0  0  0  0  0  0
   -3.3057   -0.2236    0.0984 C   0  0  0  0  0  0  0  0  0  0  0  0
   -3.1414    1.2858    0.3578 C   0  0  0  0  0  0  0  0  0  0  0  0
   -1.7766    1.8227    0.2921 N   0  0  0  0  0  0  0  0  0  0  0  0
   -0.9033    1.3569    1.3814 C   0  0  0  0  0  0  0  0  0  0  0  0
    0.5826    1.7151    1.1550 C   0  0  0  0  0  0  0  0  0  0  0  0
    1.1023    1.1267   -0.0898 N   0  0  0  0  0  0  0  0  0  0  0  0
    2.3503    0.5120   -0.1400 C   0  0  0  0  0  0  0  0  0  0  0  0
    2.4677   -0.5784   -0.8595 N   0  0  0  0  0  0  0  0  0  0  0  0
    3.6887   -1.2758   -0.9230 C   0  0  0  0  0  0  0  0  0  0  0  0
    3.7471   -2.4404   -1.6908 C   0  0  0  0  0  0  0  0  0  0  0  0
    4.9295   -3.1798   -1.7774 C   0  0  0  0  0  0  0  0  0  0  0  0
    6.0697   -2.7588   -1.0928 C   0  0  0  0  0  0  0  0  0  0  0  0
    6.0342   -1.5975   -0.3203 C   0  0  0  0  0  0  0  0  0  0  0  0
    4.8434   -0.8688   -0.2428 C   0  0  0  0  0  0  0  0  0  0  0  0
    4.7218    0.3165    0.5003 N   0  0  0  0  0  0  0  0  0  0  0  0
    5.6699    0.9789    1.2439 C   0  0  0  0  0  0  0  0  0  0  0  0
    5.1060    2.1393    1.7253 C   0  0  0  0  0  0  0  0  0  0  0  0
    3.7664    2.1715    1.2725 C   0  0  0  0  0  0  0  0  0  0  0  0
    3.5328    1.0138    0.5492 C   0  0  0  0  0  0  0  0  0  0  0  0
    0.0780    0.7496   -1.0802 C   0  0  0  0  0  0  0  0  0  0  0  0
   -1.1348    1.7023   -1.0297 C   0  0  0  0  0  0  0  0  0  0  0  0
   -5.3639   -0.9472    1.3746 C   0  0  0  0  0  0  0  0  0  0  0  0
   -8.5062   -1.6762    0.3031 H   0  0  0  0  0  0  0  0  0  0  0  0
   -7.4517   -1.1326   -1.8902 H   0  0  0  0  0  0  0  0  0  0  0  0
   -5.0740   -0.4707   -1.9869 H   0  0  0  0  0  0  0  0  0  0  0  0
   -2.7495   -0.8124    0.8367 H   0  0  0  0  0  0  0  0  0  0  0  0
   -2.8910   -0.4977   -0.8790 H   0  0  0  0  0  0  0  0  0  0  0  0
   -3.7597    1.8431   -0.3592 H   0  0  0  0  0  0  0  0  0  0  0  0
   -3.5636    1.5339    1.3409 H   0  0  0  0  0  0  0  0  0  0  0  0
   -1.2358    1.8082    2.3234 H   0  0  0  0  0  0  0  0  0  0  0  0
   -0.9686    0.2692    1.5027 H   0  0  0  0  0  0  0  0  0  0  0  0
    0.6962    2.8041    1.1092 H   0  0  0  0  0  0  0  0  0  0  0  0
    1.1450    1.3501    2.0222 H   0  0  0  0  0  0  0  0  0  0  0  0
    2.8596   -2.7727   -2.2227 H   0  0  0  0  0  0  0  0  0  0  0  0
    4.9580   -4.0844   -2.3790 H   0  0  0  0  0  0  0  0  0  0  0  0
    6.9882   -3.3366   -1.1634 H   0  0  0  0  0  0  0  0  0  0  0  0
    6.9343   -1.2885    0.2001 H   0  0  0  0  0  0  0  0  0  0  0  0
    6.6728    0.5955    1.3608 H   0  0  0  0  0  0  0  0  0  0  0  0
    5.6091    2.8859    2.3262 H   0  0  0  0  0  0  0  0  0  0  0  0
    3.0539    2.9634    1.4562 H   0  0  0  0  0  0  0  0  0  0  0  0
    0.5073    0.7926   -2.0885 H   0  0  0  0  0  0  0  0  0  0  0  0
   -0.2527   -0.2807   -0.8993 H   0  0  0  0  0  0  0  0  0  0  0  0
   -1.8547    1.4213   -1.8077 H   0  0  0  0  0  0  0  0  0  0  0  0
   -0.7858    2.7070   -1.3020 H   0  0  0  0  0  0  0  0  0  0  0  0
   -4.8067   -0.9016    2.3056 H   0  0  0  0  0  0  0  0  0  0  0  0
  1  2  1  0
  2  3  2  0
  3  4  1  0
  4  5  2  0
  5  6  1  0
  6  7  1  0
  7  8  1  0
  8  9  1  0
  9 10  1  0
 10 11  1  0
 11 12  1  0
 12 13  1  0
 13 14  2  0
 14 15  1  0
 15 16  2  0
 16 17  1  0
 17 18  2  0
 18 19  1  0
 19 20  2  0
 20 21  1  0
 21 22  1  0
 22 23  2  0
 23 24  1  0
 24 25  2  0
 12 26  1  0
 26 27  1  0
  6 28  2  0
 28  2  1  0
 27  9  1  0
 25 13  1  0
 20 15  1  0
 25 21  1  0
  3 29  1  0
  4 30  1  0
  5 31  1  0
  7 32  1  0
  7 33  1  0
  8 34  1  0
  8 35  1  0
 10 36  1  0
 10 37  1  0
 11 38  1  0
 11 39  1  0
 16 40  1  0
 17 41  1  0
 18 42  1  0
 19 43  1  0
 22 44  1  0
 23 45  1  0
 24 46  1  0
 26 47  1  0
 26 48  1  0
 27 49  1  0
 27 50  1  0
 28 51  1  0
M  END
$$$$
