
     RDKit          3D

 42 44  0  0  0  0  0  0  0  0999 V2000
   -4.6723    1.3498    0.6823 C   0  0  0  0  0  0  0  0  0  0  0  0
   -3.7673    1.0245   -0.4697 C   0  0  0  0  0  0  0  0  0  0  0  0
   -4.2874    0.8963   -1.7576 C   0  0  0  0  0  0  0  0  0  0  0  0
   -3.4666    0.5789   -2.8441 C   0  0  0  0  0  0  0  0  0  0  0  0
   -2.0968    0.3732   -2.6099 C   0  0  0  0  0  0  0  0  0  0  0  0
   -1.5471    0.4534   -1.3288 C   0  0  0  0  0  0  0  0  0  0  0  0
   -2.3995    0.7929   -0.2517 C   0  0  0  0  0  0  0  0  0  0  0  0
   -0.1546    0.1571   -1.4528 C   0  0  0  0  0  0  0  0  0  0  0  0
    0.8313    0.1046   -0.4179 C   0  0  0  0  0  0  0  0  0  0  0  0
    0.6495   -0.4779    0.7793 C   0  0  0  0  0  0  0  0  0  0  0  0
    1.6634   -0.5340    1.8375 C   0  0  0  0  0  0  0  0  0  0  0  0
    3.0143   -0.7490    1.5691 C   0  0  0  0  0  0  0  0  0  0  0  0
    3.9237   -0.8210    2.6186 C   0  0  0  0  0  0  0  0  0  0  0  0
    3.5091   -0.6983    3.8990 N   0  0  0  0  0  4  0  0  0  0  0  0
    4.4927   -0.7652    4.9931 C   0  0  0  0  0  0  0  0  0  0  0  0
    2.2037   -0.4970    4.1849 C   0  0  0  0  0  0  0  0  0  0  0  0
    1.2598   -0.4206    3.1669 C   0  0  0  0  0  0  0  0  0  0  0  0
    0.1237   -0.0695   -2.7910 C   0  0  0  0  0  0  0  0  0  0  0  0
    1.4020   -0.4274   -3.4714 C   0  0  0  0  0  0  0  0  0  0  0  0
   -1.0638    0.0810   -3.4805 N   0  0  0  0  0  0  0  0  0  0  0  0
   -1.2270   -0.0515   -4.9150 C   0  0  0  0  0  0  0  0  0  0  0  0
   -5.0738    0.4279    1.1141 H   0  0  0  0  0  0  0  0  0  0  0  0
   -4.1320    1.8993    1.4604 H   0  0  0  0  0  0  0  0  0  0  0  0
   -5.5057    1.9821    0.3585 H   0  0  0  0  0  0  0  0  0  0  0  0
   -5.3501    1.0534   -1.9346 H   0  0  0  0  0  0  0  0  0  0  0  0
   -3.8924    0.4993   -3.8394 H   0  0  0  0  0  0  0  0  0  0  0  0
   -1.9916    0.8846    0.7496 H   0  0  0  0  0  0  0  0  0  0  0  0
    1.7865    0.5647   -0.6584 H   0  0  0  0  0  0  0  0  0  0  0  0
   -0.3069   -0.9463    1.0074 H   0  0  0  0  0  0  0  0  0  0  0  0
    3.3693   -0.8724    0.5478 H   0  0  0  0  0  0  0  0  0  0  0  0
    4.9840   -0.9801    2.4433 H   0  0  0  0  0  0  0  0  0  0  0  0
    5.3148   -1.4216    4.6964 H   0  0  0  0  0  0  0  0  0  0  0  0
    4.0097   -1.1720    5.8853 H   0  0  0  0  0  0  0  0  0  0  0  0
    4.8510    0.2514    5.1731 H   0  0  0  0  0  0  0  0  0  0  0  0
    1.9237   -0.3984    5.2300 H   0  0  0  0  0  0  0  0  0  0  0  0
    0.2124   -0.2615    3.4181 H   0  0  0  0  0  0  0  0  0  0  0  0
    1.7796    0.4257   -4.0441 H   0  0  0  0  0  0  0  0  0  0  0  0
    1.2591   -1.2730   -4.1521 H   0  0  0  0  0  0  0  0  0  0  0  0
    2.1745   -0.7184   -2.7532 H   0  0  0  0  0  0  0  0  0  0  0  0
   -0.2902    0.1958   -5.4189 H   0  0  0  0  0  0  0  0  0  0  0  0
   -1.5157   -1.0837   -5.1276 H   0  0  0  0  0  0  0  0  0  0  0  0
   -1.9968    0.6431   -5.2596 H   0  0  0  0  0  0  0  0  0  0  0  0
  1  2  1  0
  2  3  2  0
  3  4  1  0
  4  5  2  0
  5  6  1  0
  6  7  2  0
  6  8  1  0
  8  9  1  0
  9 10  2  3
 10 11  1  0
 11 12  2  0
 12 13  1  0
 13 14  2  0
 14 15  1  0
 14 16  1  0
 16 17  2  0
  8 18  2  0
 18 19  1  0
 18 20  1  0
 20 21  1  0
  7  2  1  0
 17 11  1  0
 20  5  1  0
  1 22  1  0
  1 23  1  0
  1 24  1  0
  3 25  1  0
  4 26  1  0
  7 27  1  0
  9 28  1  0
 10 29  1  0
 12 30  1  0
 13 31  1  0
 15 32  1  0
 15 33  1  0
 15 34  1  0
 16 35  1  0
 17 36  1  0
 19 37  1  0
 19 38  1  0
 19 39  1  0
 21 40  1  0
 21 41  1  0
 21 42  1  0
M  CHG  1  14   1
M  END
$$$$
