
     RDKit          3D

 56 58  0  0  0  0  0  0  0  0999 V2000
    4.4721   -4.3435    0.5113 C   0  0  0  0  0  0  0  0  0  0  0  0
    3.6353   -3.1948    0.5200 O   0  0  0  0  0  0  0  0  0  0  0  0
    3.7021   -2.3641   -0.5653 C   0  0  0  0  0  0  0  0  0  0  0  0
    4.5324   -2.5349   -1.6719 C   0  0  0  0  0  0  0  0  0  0  0  0
    4.4977   -1.6187   -2.7293 C   0  0  0  0  0  0  0  0  0  0  0  0
    3.6330   -0.5232   -2.6826 C   0  0  0  0  0  0  0  0  0  0  0  0
    3.5211    0.4360   -3.6638 O   0  0  0  0  0  0  0  0  0  0  0  0
    4.3054    0.2560   -4.8378 C   0  0  0  0  0  0  0  0  0  0  0  0
    2.7975   -0.3399   -1.5604 C   0  0  0  0  0  0  0  0  0  0  0  0
    1.9554    0.7963   -1.5790 N   0  0  0  0  0  0  0  0  0  0  0  0
    1.0652    1.2243   -0.6120 C   0  0  0  0  0  0  0  0  0  0  0  0
    0.8467    0.6637    0.4593 O   0  0  0  0  0  0  0  0  0  0  0  0
    0.3555    2.5197   -0.9938 C   0  0  0  0  0  0  0  0  0  0  0  0
   -1.4449    2.2986   -0.9798 S   0  0  0  0  0  0  0  0  0  0  0  0
   -1.6735    2.1549    0.7516 C   0  0  0  0  0  0  0  0  0  0  0  0
   -1.3143    3.1738    1.4627 N   0  0  0  0  0  0  0  0  0  0  0  0
   -1.4814    3.1067    2.8482 C   0  0  0  0  0  0  0  0  0  0  0  0
   -1.0362    4.1716    3.6360 C   0  0  0  0  0  0  0  0  0  0  0  0
   -1.1930    4.1440    5.0247 C   0  0  0  0  0  0  0  0  0  0  0  0
   -1.8006    3.0486    5.6375 C   0  0  0  0  0  0  0  0  0  0  0  0
   -2.2491    1.9807    4.8610 C   0  0  0  0  0  0  0  0  0  0  0  0
   -2.0827    2.0190    3.4715 C   0  0  0  0  0  0  0  0  0  0  0  0
   -2.5385    0.9100    2.6177 C   0  0  0  0  0  0  0  0  0  0  0  0
   -3.1663   -0.0190    3.1233 O   0  0  0  0  0  0  0  0  0  0  0  0
   -2.2474    1.0030    1.2589 N   0  0  0  0  0  0  0  0  0  0  0  0
   -2.6394   -0.1519    0.4411 C   0  0  0  0  0  0  0  0  0  0  0  0
   -4.0981   -0.0519   -0.0239 C   0  0  0  0  0  0  0  0  0  0  0  0
   -4.5983   -1.2920   -0.5874 N   0  0  0  0  0  0  0  0  0  0  0  0
   -4.2323   -1.7191   -1.8411 C   0  0  0  0  0  0  0  0  0  0  0  0
   -4.8302   -3.0407   -2.2428 C   0  0  0  0  0  0  0  0  0  0  0  0
   -3.4724   -1.0961   -2.5746 O   0  0  0  0  0  0  0  0  0  0  0  0
    2.8392   -1.2634   -0.5138 C   0  0  0  0  0  0  0  0  0  0  0  0
    4.2974   -4.8913    1.4433 H   0  0  0  0  0  0  0  0  0  0  0  0
    5.5298   -4.0610    0.4853 H   0  0  0  0  0  0  0  0  0  0  0  0
    4.2195   -5.0094   -0.3200 H   0  0  0  0  0  0  0  0  0  0  0  0
    5.2168   -3.3748   -1.7471 H   0  0  0  0  0  0  0  0  0  0  0  0
    5.1603   -1.7920   -3.5703 H   0  0  0  0  0  0  0  0  0  0  0  0
    4.0495   -0.6789   -5.3484 H   0  0  0  0  0  0  0  0  0  0  0  0
    5.3752    0.3056   -4.6093 H   0  0  0  0  0  0  0  0  0  0  0  0
    4.0739    1.0792   -5.5232 H   0  0  0  0  0  0  0  0  0  0  0  0
    2.0438    1.3381   -2.4344 H   0  0  0  0  0  0  0  0  0  0  0  0
    0.6727    3.3111   -0.3075 H   0  0  0  0  0  0  0  0  0  0  0  0
    0.6388    2.8362   -2.0025 H   0  0  0  0  0  0  0  0  0  0  0  0
   -0.5629    5.0272    3.1606 H   0  0  0  0  0  0  0  0  0  0  0  0
   -0.8386    4.9780    5.6264 H   0  0  0  0  0  0  0  0  0  0  0  0
   -1.9215    3.0253    6.7178 H   0  0  0  0  0  0  0  0  0  0  0  0
   -2.7215    1.1235    5.3347 H   0  0  0  0  0  0  0  0  0  0  0  0
   -1.9656   -0.2735   -0.4124 H   0  0  0  0  0  0  0  0  0  0  0  0
   -2.5147   -1.0633    1.0403 H   0  0  0  0  0  0  0  0  0  0  0  0
   -4.2057    0.7382   -0.7748 H   0  0  0  0  0  0  0  0  0  0  0  0
   -4.7580    0.1995    0.8135 H   0  0  0  0  0  0  0  0  0  0  0  0
   -5.1225   -1.9117    0.0189 H   0  0  0  0  0  0  0  0  0  0  0  0
   -5.6640   -3.3198   -1.5915 H   0  0  0  0  0  0  0  0  0  0  0  0
   -5.2080   -2.9665   -3.2661 H   0  0  0  0  0  0  0  0  0  0  0  0
   -4.0596   -3.8150   -2.1887 H   0  0  0  0  0  0  0  0  0  0  0  0
    2.2048   -1.1581    0.3604 H   0  0  0  0  0  0  0  0  0  0  0  0
  1  2  1  0
  2  3  1  0
  3  4  2  0
  4  5  1  0
  5  6  2  0
  6  7  1  0
  7  8  1  0
  6  9  1  0
  9 10  1  0
 10 11  1  0
 11 12  2  0
 11 13  1  0
 13 14  1  0
 14 15  1  0
 15 16  2  0
 16 17  1  0
 17 18  2  0
 18 19  1  0
 19 20  2  0
 20 21  1  0
 21 22  2  0
 22 23  1  0
 23 24  2  0
 23 25  1  0
 25 26  1  0
 26 27  1  0
 27 28  1  0
 28 29  1  0
 29 30  1  0
 29 31  2  0
  9 32  2  0
 32  3  1  0
 25 15  1  0
 22 17  1  0
  1 33  1  0
  1 34  1  0
  1 35  1  0
  4 36  1  0
  5 37  1  0
  8 38  1  0
  8 39  1  0
  8 40  1  0
 10 41  1  0
 13 42  1  0
 13 43  1  0
 18 44  1  0
 19 45  1  0
 20 46  1  0
 21 47  1  0
 26 48  1  0
 26 49  1  0
 27 50  1  0
 27 51  1  0
 28 52  1  0
 30 53  1  0
 30 54  1  0
 30 55  1  0
 32 56  1  0
M  END
$$$$
