
     RDKit          3D

 61 66  0  0  0  0  0  0  0  0999 V2000
   -3.4066   -2.5927   -0.5346 C   0  0  0  0  0  0  0  0  0  0  0  0
   -2.1251   -1.8521   -0.9400 C   0  0  0  0  0  0  0  0  0  0  0  0
   -1.1711   -2.8026   -1.6706 C   0  0  0  0  0  0  0  0  0  0  0  0
   -2.4581   -0.6070   -1.7588 C   0  0  0  0  0  0  0  0  0  0  0  0
   -2.9742   -0.7608   -3.0602 C   0  0  0  0  0  0  0  0  0  0  0  0
   -3.3928    0.3379   -3.8171 C   0  0  0  0  0  0  0  0  0  0  0  0
   -3.3161    1.6225   -3.2898 C   0  0  0  0  0  0  0  0  0  0  0  0
   -2.8110    1.8135   -2.0074 C   0  0  0  0  0  0  0  0  0  0  0  0
   -2.3753    0.7099   -1.2528 C   0  0  0  0  0  0  0  0  0  0  0  0
   -1.8602    0.9798    0.0359 N   0  0  0  0  0  0  0  0  0  0  0  0
   -0.5414    0.8873    0.4386 C   0  0  0  0  0  0  0  0  0  0  0  0
    0.7661    0.3750   -0.5778 S   0  0  0  0  0  0  0  0  0  0  0  0
    2.1577    1.2448    0.2106 C   0  0  0  0  0  0  0  0  0  0  0  0
    3.4400    0.9371   -0.5234 C   0  0  0  0  0  0  0  0  0  0  0  0
    3.7141    1.7009   -1.5981 C   0  0  0  0  0  0  0  0  0  0  0  0
    4.9603    1.6508   -2.3590 C   0  0  0  0  0  0  0  0  0  0  0  0
    5.1126    2.3202   -3.3723 O   0  0  0  0  0  0  0  0  0  0  0  0
    5.9480    0.8572   -1.8322 O   0  0  0  0  0  0  0  0  0  0  0  0
    5.7123    0.0348   -0.7099 C   0  0  0  0  0  0  0  0  0  0  0  0
    6.8284   -0.7002   -0.3254 C   0  0  0  0  0  0  0  0  0  0  0  0
    6.7281   -1.5692    0.7444 C   0  0  0  0  0  0  0  0  0  0  0  0
    5.5081   -1.7489    1.4008 C   0  0  0  0  0  0  0  0  0  0  0  0
    5.4697   -2.6726    2.4600 C   0  0  0  0  0  0  0  0  0  0  0  0
    4.2889   -2.9455    3.1389 C   0  0  0  0  0  0  0  0  0  0  0  0
    3.1268   -2.3127    2.7429 C   0  0  0  0  0  0  0  0  0  0  0  0
    3.1553   -1.3878    1.6899 C   0  0  0  0  0  0  0  0  0  0  0  0
    4.3422   -1.0260    0.9975 C   0  0  0  0  0  0  0  0  0  0  0  0
    4.4648   -0.0473   -0.0582 C   0  0  0  0  0  0  0  0  0  0  0  0
   -0.4071    1.3337    1.6628 N   0  0  0  0  0  0  0  0  0  0  0  0
   -1.6314    1.7741    2.0810 N   0  0  0  0  0  0  0  0  0  0  0  0
   -2.5129    1.5900    1.1061 C   0  0  0  0  0  0  0  0  0  0  0  0
   -3.9233    1.9770    1.2055 C   0  0  0  0  0  0  0  0  0  0  0  0
   -4.2807    3.0701    2.0045 C   0  0  0  0  0  0  0  0  0  0  0  0
   -5.6161    3.4479    2.1288 C   0  0  0  0  0  0  0  0  0  0  0  0
   -6.5693    2.7154    1.4474 C   0  0  0  0  0  0  0  0  0  0  0  0
   -6.2765    1.6486    0.6763 N   0  0  0  0  0  0  0  0  0  0  0  0
   -4.9678    1.3014    0.5808 C   0  0  0  0  0  0  0  0  0  0  0  0
   -4.0766   -1.9377    0.0329 H   0  0  0  0  0  0  0  0  0  0  0  0
   -3.1704   -3.4546    0.0991 H   0  0  0  0  0  0  0  0  0  0  0  0
   -3.9600   -2.9616   -1.4060 H   0  0  0  0  0  0  0  0  0  0  0  0
   -1.6252   -1.5690   -0.0097 H   0  0  0  0  0  0  0  0  0  0  0  0
   -0.2708   -2.2801   -2.0121 H   0  0  0  0  0  0  0  0  0  0  0  0
   -0.8545   -3.6109   -1.0027 H   0  0  0  0  0  0  0  0  0  0  0  0
   -1.6398   -3.2674   -2.5434 H   0  0  0  0  0  0  0  0  0  0  0  0
   -3.0802   -1.7515   -3.4994 H   0  0  0  0  0  0  0  0  0  0  0  0
   -3.7922    0.1850   -4.8175 H   0  0  0  0  0  0  0  0  0  0  0  0
   -3.6502    2.4738   -3.8784 H   0  0  0  0  0  0  0  0  0  0  0  0
   -2.7472    2.8290   -1.6182 H   0  0  0  0  0  0  0  0  0  0  0  0
    1.9439    2.3200    0.1390 H   0  0  0  0  0  0  0  0  0  0  0  0
    2.2366    1.0590    1.2847 H   0  0  0  0  0  0  0  0  0  0  0  0
    3.0136    2.4444   -1.9655 H   0  0  0  0  0  0  0  0  0  0  0  0
    7.7712   -0.5888   -0.8551 H   0  0  0  0  0  0  0  0  0  0  0  0
    7.6129   -2.1272    1.0441 H   0  0  0  0  0  0  0  0  0  0  0  0
    6.3713   -3.1994    2.7666 H   0  0  0  0  0  0  0  0  0  0  0  0
    4.2782   -3.6614    3.9580 H   0  0  0  0  0  0  0  0  0  0  0  0
    2.1869   -2.5346    3.2422 H   0  0  0  0  0  0  0  0  0  0  0  0
    2.1932   -0.9876    1.4120 H   0  0  0  0  0  0  0  0  0  0  0  0
   -3.5178    3.6313    2.5417 H   0  0  0  0  0  0  0  0  0  0  0  0
   -5.9019    4.2904    2.7493 H   0  0  0  0  0  0  0  0  0  0  0  0
   -7.6232    2.9700    1.5098 H   0  0  0  0  0  0  0  0  0  0  0  0
   -4.8038    0.4246   -0.0365 H   0  0  0  0  0  0  0  0  0  0  0  0
  1  2  1  0
  2  3  1  0
  2  4  1  0
  4  5  2  0
  5  6  1  0
  6  7  2  0
  7  8  1  0
  8  9  2  0
  9 10  1  0
 10 11  1  0
 11 12  1  0
 12 13  1  0
 13 14  1  0
 14 15  2  0
 15 16  1  0
 16 17  2  0
 16 18  1  0
 18 19  1  0
 19 20  2  0
 20 21  1  0
 21 22  2  0
 22 23  1  0
 23 24  2  0
 24 25  1  0
 25 26  2  0
 26 27  1  0
 27 28  2  0
 11 29  2  0
 29 30  1  0
 30 31  2  0
 31 32  1  0
 32 33  2  0
 33 34  1  0
 34 35  2  0
 35 36  1  0
 36 37  2  0
  9  4  1  0
 31 10  1  0
 37 32  1  0
 28 14  1  0
 28 19  1  0
 27 22  1  0
  1 38  1  0
  1 39  1  0
  1 40  1  0
  2 41  1  0
  3 42  1  0
  3 43  1  0
  3 44  1  0
  5 45  1  0
  6 46  1  0
  7 47  1  0
  8 48  1  0
 13 49  1  0
 13 50  1  0
 15 51  1  0
 20 52  1  0
 21 53  1  0
 23 54  1  0
 24 55  1  0
 25 56  1  0
 26 57  1  0
 33 58  1  0
 34 59  1  0
 35 60  1  0
 37 61  1  0
M  END
$$$$
