
     RDKit          3D

 48 52  0  0  0  0  0  0  0  0999 V2000
   -3.6053    1.7731    2.4862 C   0  0  0  0  0  0  0  0  0  0  0  0
   -2.9200    0.9798    1.4914 N   0  0  0  0  0  0  0  0  0  0  0  0
   -1.6845    1.2686    0.9857 C   0  0  0  0  0  0  0  0  0  0  0  0
   -1.3431    0.3019    0.0520 C   0  0  0  0  0  0  0  0  0  0  0  0
   -0.0855    0.1912   -0.7781 C   0  0  0  0  0  0  0  0  0  0  0  0
    0.2933    1.5980   -1.2491 C   0  0  0  0  0  0  0  0  0  0  0  0
   -0.1896    2.0401   -2.4866 C   0  0  0  0  0  0  0  0  0  0  0  0
    0.1332    3.3197   -2.9321 C   0  0  0  0  0  0  0  0  0  0  0  0
    0.9257    4.1367   -2.1381 C   0  0  0  0  0  0  0  0  0  0  0  0
    1.3585    3.6411   -0.9218 C   0  0  0  0  0  0  0  0  0  0  0  0
    1.0563    2.4089   -0.4610 N   0  0  0  0  0  0  0  0  0  0  0  0
    1.1060   -0.4255   -0.0906 C   0  0  0  0  0  0  0  0  0  0  0  0
    1.3355   -0.5636    1.2690 C   0  0  0  0  0  0  0  0  0  0  0  0
    2.5321   -1.1980    1.4521 N   0  0  0  0  0  0  0  0  0  0  0  0
    3.1109   -1.5001    2.7412 C   0  0  0  0  0  0  0  0  0  0  0  0
    3.1019   -1.5080    0.2375 C   0  0  0  0  0  0  0  0  0  0  0  0
    4.3049   -2.1616   -0.0760 C   0  0  0  0  0  0  0  0  0  0  0  0
    4.6296   -2.3318   -1.4245 C   0  0  0  0  0  0  0  0  0  0  0  0
    3.7858   -1.8648   -2.4266 C   0  0  0  0  0  0  0  0  0  0  0  0
    2.5897   -1.2150   -2.1031 C   0  0  0  0  0  0  0  0  0  0  0  0
    2.2337   -1.0314   -0.7488 C   0  0  0  0  0  0  0  0  0  0  0  0
   -2.4407   -0.6277    0.0251 C   0  0  0  0  0  0  0  0  0  0  0  0
   -2.6907   -1.8212   -0.6874 C   0  0  0  0  0  0  0  0  0  0  0  0
   -3.8915   -2.5116   -0.4900 C   0  0  0  0  0  0  0  0  0  0  0  0
   -4.8428   -2.0333    0.4046 C   0  0  0  0  0  0  0  0  0  0  0  0
   -4.6205   -0.8587    1.1282 C   0  0  0  0  0  0  0  0  0  0  0  0
   -3.4112   -0.1744    0.9238 C   0  0  0  0  0  0  0  0  0  0  0  0
   -2.9884    2.6331    2.7596 H   0  0  0  0  0  0  0  0  0  0  0  0
   -3.7796    1.1491    3.3665 H   0  0  0  0  0  0  0  0  0  0  0  0
   -4.5517    2.1181    2.0620 H   0  0  0  0  0  0  0  0  0  0  0  0
   -1.1295    2.1381    1.3172 H   0  0  0  0  0  0  0  0  0  0  0  0
   -0.3044   -0.4195   -1.6647 H   0  0  0  0  0  0  0  0  0  0  0  0
   -0.8171    1.3981   -3.0972 H   0  0  0  0  0  0  0  0  0  0  0  0
   -0.2338    3.6742   -3.8908 H   0  0  0  0  0  0  0  0  0  0  0  0
    1.1977    5.1361   -2.4566 H   0  0  0  0  0  0  0  0  0  0  0  0
    1.9796    4.2390   -0.2617 H   0  0  0  0  0  0  0  0  0  0  0  0
    0.7350   -0.2466    2.1118 H   0  0  0  0  0  0  0  0  0  0  0  0
    4.0816   -1.0025    2.8102 H   0  0  0  0  0  0  0  0  0  0  0  0
    3.2243   -2.5840    2.8242 H   0  0  0  0  0  0  0  0  0  0  0  0
    2.4529   -1.1360    3.5345 H   0  0  0  0  0  0  0  0  0  0  0  0
    4.9702   -2.5250    0.7000 H   0  0  0  0  0  0  0  0  0  0  0  0
    5.5567   -2.8329   -1.6920 H   0  0  0  0  0  0  0  0  0  0  0  0
    4.0573   -2.0011   -3.4701 H   0  0  0  0  0  0  0  0  0  0  0  0
    1.9452   -0.8486   -2.8959 H   0  0  0  0  0  0  0  0  0  0  0  0
   -1.9539   -2.2133   -1.3822 H   0  0  0  0  0  0  0  0  0  0  0  0
   -4.0781   -3.4310   -1.0388 H   0  0  0  0  0  0  0  0  0  0  0  0
   -5.7704   -2.5823    0.5478 H   0  0  0  0  0  0  0  0  0  0  0  0
   -5.3652   -0.4955    1.8286 H   0  0  0  0  0  0  0  0  0  0  0  0
  1  2  1  0
  2  3  1  0
  3  4  2  0
  4  5  1  0
  5  6  1  0
  6  7  2  0
  7  8  1  0
  8  9  2  0
  9 10  1  0
 10 11  2  0
  5 12  1  0
 12 13  2  0
 13 14  1  0
 14 15  1  0
 14 16  1  0
 16 17  2  0
 17 18  1  0
 18 19  2  0
 19 20  1  0
 20 21  2  0
  4 22  1  0
 22 23  2  0
 23 24  1  0
 24 25  2  0
 25 26  1  0
 26 27  2  0
 27  2  1  0
 11  6  1  0
 21 12  1  0
 27 22  1  0
 21 16  1  0
  1 28  1  0
  1 29  1  0
  1 30  1  0
  3 31  1  0
  5 32  1  0
  7 33  1  0
  8 34  1  0
  9 35  1  0
 10 36  1  0
 13 37  1  0
 15 38  1  0
 15 39  1  0
 15 40  1  0
 17 41  1  0
 18 42  1  0
 19 43  1  0
 20 44  1  0
 23 45  1  0
 24 46  1  0
 25 47  1  0
 26 48  1  0
M  END
$$$$
