
     RDKit          3D

 44 47  0  0  0  0  0  0  0  0999 V2000
   -5.5883   -2.9804    1.7939 C   0  0  0  0  0  0  0  0  0  0  0  0
   -5.7064   -1.8065    0.8369 C   0  0  0  0  0  0  0  0  0  0  0  0
   -4.6692   -0.8609    1.0989 O   0  0  0  0  0  0  0  0  0  0  0  0
   -3.6419   -0.7823    0.1951 C   0  0  0  0  0  0  0  0  0  0  0  0
   -3.1679   -1.8692   -0.5439 C   0  0  0  0  0  0  0  0  0  0  0  0
   -2.1004   -1.7056   -1.4327 C   0  0  0  0  0  0  0  0  0  0  0  0
   -1.4913   -0.4557   -1.5869 C   0  0  0  0  0  0  0  0  0  0  0  0
   -0.4059   -0.3025   -2.5594 C   0  0  0  0  0  0  0  0  0  0  0  0
    0.8781   -0.0376   -2.2752 C   0  0  0  0  0  0  0  0  0  0  0  0
    2.0903    0.0937   -3.5515 S   0  0  0  0  0  0  0  0  0  0  0  0
    3.3031    0.3509   -2.3681 C   0  0  0  0  0  0  0  0  0  0  0  0
    4.5867    0.5609   -2.3891 N   0  0  0  0  0  0  0  0  0  0  0  0
    4.8711    0.6780   -1.0356 C   0  0  0  0  0  0  0  0  0  0  0  0
    6.3200    0.9439   -0.5087 C   0  0  0  0  0  0  0  0  0  0  0  0
    6.6904    1.0625    0.8183 C   0  0  0  0  0  0  0  0  0  0  0  0
    8.0858    1.2993    0.8356 C   0  0  0  0  0  0  0  0  0  0  0  0
    8.4818    1.3205   -0.4819 C   0  0  0  0  0  0  0  0  0  0  0  0
    7.4225    1.1015   -1.3031 O   0  0  0  0  0  0  0  0  0  0  0  0
    3.8084    0.5500   -0.2116 N   0  0  0  0  0  0  0  0  0  0  0  0
    2.8260    0.3432   -1.1091 N   0  0  0  0  0  0  0  0  0  0  0  0
    1.4748    0.1508   -0.9094 C   0  0  0  0  0  0  0  0  0  0  0  0
    0.9575    0.1636    0.1901 O   0  0  0  0  0  0  0  0  0  0  0  0
   -1.9559    0.6321   -0.8409 C   0  0  0  0  0  0  0  0  0  0  0  0
   -3.0022    0.4626    0.0728 C   0  0  0  0  0  0  0  0  0  0  0  0
   -3.4893    1.5064    0.8213 O   0  0  0  0  0  0  0  0  0  0  0  0
   -2.5034    2.2532    1.5410 C   0  0  0  0  0  0  0  0  0  0  0  0
   -1.8334    1.4439    2.6445 C   0  0  0  0  0  0  0  0  0  0  0  0
   -6.3940   -3.7011    1.6297 H   0  0  0  0  0  0  0  0  0  0  0  0
   -5.6369   -2.6335    2.8306 H   0  0  0  0  0  0  0  0  0  0  0  0
   -4.6285   -3.4938    1.6765 H   0  0  0  0  0  0  0  0  0  0  0  0
   -6.6576   -1.2921    1.0241 H   0  0  0  0  0  0  0  0  0  0  0  0
   -5.7380   -2.1347   -0.2081 H   0  0  0  0  0  0  0  0  0  0  0  0
   -3.6000   -2.8596   -0.4345 H   0  0  0  0  0  0  0  0  0  0  0  0
   -1.7517   -2.5663   -1.9995 H   0  0  0  0  0  0  0  0  0  0  0  0
   -0.7175   -0.4487   -3.5921 H   0  0  0  0  0  0  0  0  0  0  0  0
    6.0247    0.9812    1.6668 H   0  0  0  0  0  0  0  0  0  0  0  0
    8.7234    1.4432    1.6972 H   0  0  0  0  0  0  0  0  0  0  0  0
    9.4316    1.4700   -0.9775 H   0  0  0  0  0  0  0  0  0  0  0  0
   -1.5100    1.6119   -0.9817 H   0  0  0  0  0  0  0  0  0  0  0  0
   -1.7618    2.7065    0.8702 H   0  0  0  0  0  0  0  0  0  0  0  0
   -3.0400    3.0917    2.0042 H   0  0  0  0  0  0  0  0  0  0  0  0
   -2.5793    1.0107    3.3242 H   0  0  0  0  0  0  0  0  0  0  0  0
   -1.2468    0.6140    2.2367 H   0  0  0  0  0  0  0  0  0  0  0  0
   -1.1585    2.0843    3.2224 H   0  0  0  0  0  0  0  0  0  0  0  0
  1  2  1  0
  2  3  1  0
  3  4  1  0
  4  5  2  0
  5  6  1  0
  6  7  2  0
  7  8  1  0
  8  9  2  3
  9 10  1  0
 10 11  1  0
 11 12  2  0
 12 13  1  0
 13 14  1  0
 14 15  2  0
 15 16  1  0
 16 17  2  0
 17 18  1  0
 13 19  2  0
 19 20  1  0
 20 21  1  0
 21 22  2  0
  7 23  1  0
 23 24  2  0
 24 25  1  0
 25 26  1  0
 26 27  1  0
 24  4  1  0
 21  9  1  0
 20 11  1  0
 18 14  1  0
  1 28  1  0
  1 29  1  0
  1 30  1  0
  2 31  1  0
  2 32  1  0
  5 33  1  0
  6 34  1  0
  8 35  1  0
 15 36  1  0
 16 37  1  0
 17 38  1  0
 23 39  1  0
 26 40  1  0
 26 41  1  0
 27 42  1  0
 27 43  1  0
 27 44  1  0
M  END
$$$$
