
     RDKit          3D

 56 59  0  0  0  0  0  0  0  0999 V2000
   -4.2929   -0.7587    1.9730 C   0  0  0  0  0  0  0  0  0  0  0  0
   -4.0181    0.4597    1.0969 C   0  0  0  0  0  0  0  0  0  0  0  0
   -2.8978    0.2944    0.0496 C   0  0  0  0  0  0  0  0  0  0  0  0
   -3.0192   -1.0391   -0.7276 C   0  0  0  0  0  0  0  0  0  0  0  0
   -2.2340   -1.9702   -0.5664 O   0  0  0  0  0  0  0  0  0  0  0  0
   -4.1223   -1.0649   -1.5708 N   0  0  0  0  0  0  0  0  0  0  0  0
   -4.5582   -2.1308   -2.3892 C   0  0  0  0  0  0  0  0  0  0  0  0
   -3.9480   -3.3827   -2.4532 C   0  0  0  0  0  0  0  0  0  0  0  0
   -4.4722   -4.3621   -3.2974 C   0  0  0  0  0  0  0  0  0  0  0  0
   -3.8843   -5.5645   -3.3538 F   0  0  0  0  0  0  0  0  0  0  0  0
   -5.5962   -4.1214   -4.0832 C   0  0  0  0  0  0  0  0  0  0  0  0
   -6.2138   -2.8756   -4.0265 C   0  0  0  0  0  0  0  0  0  0  0  0
   -5.6920   -1.8970   -3.1835 C   0  0  0  0  0  0  0  0  0  0  0  0
   -6.2965   -0.6988   -3.1299 F   0  0  0  0  0  0  0  0  0  0  0  0
   -1.5321    0.4490    0.5642 N   0  0  0  0  0  0  0  0  0  0  0  0
   -1.2961    0.1516    1.9104 N   0  0  0  0  0  0  0  0  0  0  0  0
   -0.0934    0.1858    2.4119 C   0  0  0  0  0  0  0  0  0  0  0  0
    0.0805   -0.1514    3.8653 C   0  0  0  0  0  0  0  0  0  0  0  0
    1.0178    0.5450    1.5665 C   0  0  0  0  0  0  0  0  0  0  0  0
    2.3883    0.6235    1.7522 C   0  0  0  0  0  0  0  0  0  0  0  0
    3.2167    0.2056    2.9126 C   0  0  0  0  0  0  0  0  0  0  0  0
    2.8970    1.1371    0.5522 N   0  0  0  0  0  0  0  0  0  0  0  0
    4.2039    1.6157    0.2233 C   0  0  0  0  0  0  0  0  0  0  0  0
    5.1337    1.9932    1.1977 C   0  0  0  0  0  0  0  0  0  0  0  0
    6.3997    2.4629    0.8251 C   0  0  0  0  0  0  0  0  0  0  0  0
    6.7573    2.5664   -0.5230 C   0  0  0  0  0  0  0  0  0  0  0  0
    8.1025    3.1022   -0.9138 C   0  0  0  0  0  0  0  0  0  0  0  0
    5.8165    2.2276   -1.4986 C   0  0  0  0  0  0  0  0  0  0  0  0
    4.5515    1.7595   -1.1304 C   0  0  0  0  0  0  0  0  0  0  0  0
    1.9345    1.1673   -0.4097 N   0  0  0  0  0  0  0  0  0  0  0  0
    0.8001    0.8604    0.2223 C   0  0  0  0  0  0  0  0  0  0  0  0
   -0.5316    0.8170   -0.3648 C   0  0  0  0  0  0  0  0  0  0  0  0
   -0.7723    1.0856   -1.5412 O   0  0  0  0  0  0  0  0  0  0  0  0
   -4.6483   -1.6060    1.3788 H   0  0  0  0  0  0  0  0  0  0  0  0
   -5.0760   -0.5206    2.7005 H   0  0  0  0  0  0  0  0  0  0  0  0
   -3.4107   -1.0796    2.5311 H   0  0  0  0  0  0  0  0  0  0  0  0
   -4.9527    0.6986    0.5732 H   0  0  0  0  0  0  0  0  0  0  0  0
   -3.7983    1.3225    1.7375 H   0  0  0  0  0  0  0  0  0  0  0  0
   -3.0370    1.0998   -0.6852 H   0  0  0  0  0  0  0  0  0  0  0  0
   -4.6699   -0.2140   -1.6599 H   0  0  0  0  0  0  0  0  0  0  0  0
   -3.0704   -3.6362   -1.8696 H   0  0  0  0  0  0  0  0  0  0  0  0
   -5.9779   -4.9055   -4.7298 H   0  0  0  0  0  0  0  0  0  0  0  0
   -7.0913   -2.6602   -4.6275 H   0  0  0  0  0  0  0  0  0  0  0  0
    0.7062    0.5981    4.3564 H   0  0  0  0  0  0  0  0  0  0  0  0
   -0.8911   -0.1762    4.3681 H   0  0  0  0  0  0  0  0  0  0  0  0
    0.5431   -1.1376    3.9578 H   0  0  0  0  0  0  0  0  0  0  0  0
    2.7476   -0.6229    3.4504 H   0  0  0  0  0  0  0  0  0  0  0  0
    4.1973   -0.1675    2.6026 H   0  0  0  0  0  0  0  0  0  0  0  0
    3.3437    1.0326    3.6171 H   0  0  0  0  0  0  0  0  0  0  0  0
    4.9023    1.9870    2.2555 H   0  0  0  0  0  0  0  0  0  0  0  0
    7.1041    2.7604    1.5992 H   0  0  0  0  0  0  0  0  0  0  0  0
    8.0747    4.1959   -0.9473 H   0  0  0  0  0  0  0  0  0  0  0  0
    8.8685    2.7873   -0.1971 H   0  0  0  0  0  0  0  0  0  0  0  0
    8.4043    2.7269   -1.8977 H   0  0  0  0  0  0  0  0  0  0  0  0
    6.0564    2.3255   -2.5552 H   0  0  0  0  0  0  0  0  0  0  0  0
    3.8465    1.4997   -1.9195 H   0  0  0  0  0  0  0  0  0  0  0  0
  1  2  1  0
  2  3  1  0
  3  4  1  0
  4  5  2  0
  4  6  1  0
  6  7  1  0
  7  8  2  0
  8  9  1  0
  9 10  1  0
  9 11  2  0
 11 12  1  0
 12 13  2  0
 13 14  1  0
  3 15  1  0
 15 16  1  0
 16 17  2  0
 17 18  1  0
 17 19  1  0
 19 20  2  0
 20 21  1  0
 20 22  1  0
 22 23  1  0
 23 24  2  0
 24 25  1  0
 25 26  2  0
 26 27  1  0
 26 28  1  0
 28 29  2  0
 22 30  1  0
 30 31  2  0
 31 32  1  0
 32 33  2  0
 13  7  1  0
 32 15  1  0
 31 19  1  0
 29 23  1  0
  1 34  1  0
  1 35  1  0
  1 36  1  0
  2 37  1  0
  2 38  1  0
  3 39  1  0
  6 40  1  0
  8 41  1  0
 11 42  1  0
 12 43  1  0
 18 44  1  0
 18 45  1  0
 18 46  1  0
 21 47  1  0
 21 48  1  0
 21 49  1  0
 24 50  1  0
 25 51  1  0
 27 52  1  0
 27 53  1  0
 27 54  1  0
 28 55  1  0
 29 56  1  0
M  END
$$$$
