
     RDKit          3D

 32 32  0  0  0  0  0  0  0  0999 V2000
   -3.7397    2.9016   -3.1300 C   0  0  0  0  0  0  0  0  0  0  0  0
   -3.0322    1.9318   -3.1783 C   0  0  0  0  0  0  0  0  0  0  0  0
   -2.1701    0.7392   -3.2419 C   0  0  0  0  0  0  0  0  0  0  0  0
   -0.8927    0.8635   -2.5174 N   0  0  0  0  0  0  0  0  0  0  0  0
   -0.0396    1.8957   -3.1089 C   0  0  0  0  0  0  0  0  0  0  0  0
   -1.0936    1.0540   -1.0743 C   0  0  0  0  0  0  0  0  0  0  0  0
    0.1688    0.8393   -0.2323 C   0  0  0  0  0  0  0  0  0  0  0  0
    0.7945   -0.5386   -0.4380 C   0  0  0  0  0  0  0  0  0  0  0  0
    1.9060   -0.7111    0.4449 O   0  0  0  0  0  0  0  0  0  0  0  0
    1.7174   -1.3281    1.6530 C   0  0  0  0  0  0  0  0  0  0  0  0
    0.4692   -1.5759    2.2334 C   0  0  0  0  0  0  0  0  0  0  0  0
    0.3862   -2.2014    3.4805 C   0  0  0  0  0  0  0  0  0  0  0  0
   -1.1581   -2.4996    4.1808 Cl  0  0  0  0  0  0  0  0  0  0  0  0
    1.5364   -2.5826    4.1667 C   0  0  0  0  0  0  0  0  0  0  0  0
    2.7860   -2.3319    3.6028 C   0  0  0  0  0  0  0  0  0  0  0  0
    2.8760   -1.7057    2.3554 C   0  0  0  0  0  0  0  0  0  0  0  0
    4.4554   -1.4201    1.7101 Cl  0  0  0  0  0  0  0  0  0  0  0  0
   -4.3661    3.7626   -3.0872 H   0  0  0  0  0  0  0  0  0  0  0  0
   -2.7189   -0.1264   -2.8500 H   0  0  0  0  0  0  0  0  0  0  0  0
   -1.9640    0.4947   -4.2916 H   0  0  0  0  0  0  0  0  0  0  0  0
    0.9748    1.8462   -2.7003 H   0  0  0  0  0  0  0  0  0  0  0  0
    0.0650    1.7397   -4.1888 H   0  0  0  0  0  0  0  0  0  0  0  0
   -0.4245    2.9078   -2.9429 H   0  0  0  0  0  0  0  0  0  0  0  0
   -1.4922    2.0538   -0.8601 H   0  0  0  0  0  0  0  0  0  0  0  0
   -1.8425    0.3350   -0.7163 H   0  0  0  0  0  0  0  0  0  0  0  0
   -0.0906    0.9748    0.8247 H   0  0  0  0  0  0  0  0  0  0  0  0
    0.9168    1.6145   -0.4379 H   0  0  0  0  0  0  0  0  0  0  0  0
    0.0674   -1.3547   -0.3574 H   0  0  0  0  0  0  0  0  0  0  0  0
    1.2043   -0.6029   -1.4525 H   0  0  0  0  0  0  0  0  0  0  0  0
   -0.4535   -1.2824    1.7453 H   0  0  0  0  0  0  0  0  0  0  0  0
    1.4675   -3.0684    5.1365 H   0  0  0  0  0  0  0  0  0  0  0  0
    3.6866   -2.6242    4.1371 H   0  0  0  0  0  0  0  0  0  0  0  0
  1  2  3  0
  2  3  1  0
  3  4  1  0
  4  5  1  0
  4  6  1  0
  6  7  1  0
  7  8  1  0
  8  9  1  0
  9 10  1  0
 10 11  2  0
 11 12  1  0
 12 13  1  0
 12 14  2  0
 14 15  1  0
 15 16  2  0
 16 17  1  0
 16 10  1  0
  1 18  1  0
  3 19  1  0
  3 20  1  0
  5 21  1  0
  5 22  1  0
  5 23  1  0
  6 24  1  0
  6 25  1  0
  7 26  1  0
  7 27  1  0
  8 28  1  0
  8 29  1  0
 11 30  1  0
 14 31  1  0
 15 32  1  0
M  END
$$$$
