
     RDKit          3D

 32 33  0  0  0  0  0  0  0  0999 V2000
   -5.9784   -0.3892   -0.7241 C   0  0  0  0  0  0  0  0  0  0  0  0
   -4.5465   -0.2760   -0.2898 C   0  0  0  0  0  0  0  0  0  0  0  0
   -3.7999   -1.4248    0.0005 C   0  0  0  0  0  0  0  0  0  0  0  0
   -2.4573   -1.3224    0.3787 C   0  0  0  0  0  0  0  0  0  0  0  0
   -1.6102   -2.7770    0.7699 Cl  0  0  0  0  0  0  0  0  0  0  0  0
   -1.8342   -0.0699    0.4411 C   0  0  0  0  0  0  0  0  0  0  0  0
   -0.5259    0.0374    0.8435 O   0  0  0  0  0  0  0  0  0  0  0  0
    0.3630   -0.0689   -0.2761 C   0  0  0  0  0  0  0  0  0  0  0  0
    1.7788    0.1691    0.2350 C   0  0  0  0  0  0  0  0  0  0  0  0
    2.7959    0.0722   -0.8938 C   0  0  0  0  0  0  0  0  0  0  0  0
    4.1500    0.2931   -0.4304 N   0  0  0  0  0  0  0  0  0  0  0  0
    5.0174   -0.6623    0.0177 C   0  0  0  0  0  0  0  0  0  0  0  0
    6.1710    0.0235    0.3196 C   0  0  0  0  0  0  0  0  0  0  0  0
    6.0238    1.3619    0.0603 N   0  0  0  0  0  0  0  0  0  0  0  0
    4.7966    1.4946   -0.3904 C   0  0  0  0  0  0  0  0  0  0  0  0
   -2.5830    1.0810    0.1685 C   0  0  0  0  0  0  0  0  0  0  0  0
   -1.8283    2.8184    0.3048 Br  0  0  0  0  0  0  0  0  0  0  0  0
   -3.9259    0.9771   -0.2098 C   0  0  0  0  0  0  0  0  0  0  0  0
   -6.4570   -1.2627   -0.2689 H   0  0  0  0  0  0  0  0  0  0  0  0
   -6.0322   -0.4833   -1.8130 H   0  0  0  0  0  0  0  0  0  0  0  0
   -6.5509    0.4918   -0.4157 H   0  0  0  0  0  0  0  0  0  0  0  0
   -4.2693   -2.4051   -0.0575 H   0  0  0  0  0  0  0  0  0  0  0  0
    0.2941   -1.0670   -0.7245 H   0  0  0  0  0  0  0  0  0  0  0  0
    0.1143    0.6779   -1.0401 H   0  0  0  0  0  0  0  0  0  0  0  0
    1.8331    1.1532    0.7183 H   0  0  0  0  0  0  0  0  0  0  0  0
    2.0099   -0.5573    1.0248 H   0  0  0  0  0  0  0  0  0  0  0  0
    2.5888    0.8146   -1.6734 H   0  0  0  0  0  0  0  0  0  0  0  0
    2.7671   -0.9179   -1.3636 H   0  0  0  0  0  0  0  0  0  0  0  0
    4.7573   -1.7090    0.0871 H   0  0  0  0  0  0  0  0  0  0  0  0
    7.0993   -0.3746    0.7084 H   0  0  0  0  0  0  0  0  0  0  0  0
    4.3359    2.4253   -0.6953 H   0  0  0  0  0  0  0  0  0  0  0  0
   -4.4974    1.8762   -0.4336 H   0  0  0  0  0  0  0  0  0  0  0  0
  1  2  1  0
  2  3  2  0
  3  4  1  0
  4  5  1  0
  4  6  2  0
  6  7  1  0
  7  8  1  0
  8  9  1  0
  9 10  1  0
 10 11  1  0
 11 12  1  0
 12 13  2  0
 13 14  1  0
 14 15  2  0
  6 16  1  0
 16 17  1  0
 16 18  2  0
 18  2  1  0
 15 11  1  0
  1 19  1  0
  1 20  1  0
  1 21  1  0
  3 22  1  0
  8 23  1  0
  8 24  1  0
  9 25  1  0
  9 26  1  0
 10 27  1  0
 10 28  1  0
 12 29  1  0
 13 30  1  0
 15 31  1  0
 18 32  1  0
M  END
$$$$
