
     RDKit          3D

 48 50  0  0  0  0  0  0  0  0999 V2000
   -3.8557   -0.8957   -3.8207 C   0  0  0  0  0  0  0  0  0  0  0  0
   -3.3137   -0.7726   -2.5045 O   0  0  0  0  0  0  0  0  0  0  0  0
   -4.2455   -0.5349   -1.5359 C   0  0  0  0  0  0  0  0  0  0  0  0
   -5.4405   -0.3675   -1.7515 O   0  0  0  0  0  0  0  0  0  0  0  0
   -3.6069   -0.4217   -0.1419 C   0  0  0  0  0  0  0  0  0  0  0  0
   -3.8333    1.0150    0.3611 C   0  0  0  0  0  0  0  0  0  0  0  0
   -3.2532    1.2794    1.7323 C   0  0  0  0  0  0  0  0  0  0  0  0
   -3.7419    0.5997    2.8570 C   0  0  0  0  0  0  0  0  0  0  0  0
   -3.1933    0.8324    4.1196 C   0  0  0  0  0  0  0  0  0  0  0  0
   -2.1553    1.7500    4.2728 C   0  0  0  0  0  0  0  0  0  0  0  0
   -1.6692    2.4404    3.1639 C   0  0  0  0  0  0  0  0  0  0  0  0
   -2.2157    2.2087    1.8996 C   0  0  0  0  0  0  0  0  0  0  0  0
   -2.1785   -0.7590   -0.1481 N   0  0  0  0  0  0  0  0  0  0  0  0
   -1.7699   -2.0771   -0.0333 C   0  0  0  0  0  0  0  0  0  0  0  0
   -2.5737   -2.9865    0.1581 O   0  0  0  0  0  0  0  0  0  0  0  0
   -0.3237   -2.2887   -0.1775 C   0  0  0  0  0  0  0  0  0  0  0  0
    0.7244   -1.3279   -0.1512 C   0  0  0  0  0  0  0  0  0  0  0  0
    1.8760   -2.0538   -0.3378 C   0  0  0  0  0  0  0  0  0  0  0  0
    3.3184   -1.7223   -0.4178 C   0  0  0  0  0  0  0  0  0  0  0  0
    3.4001   -0.3483   -0.8023 O   0  0  0  0  0  0  0  0  0  0  0  0
    4.6469    0.1949   -0.9525 C   0  0  0  0  0  0  0  0  0  0  0  0
    4.6703    1.5355   -1.3526 C   0  0  0  0  0  0  0  0  0  0  0  0
    3.5179    2.1925   -1.5614 F   0  0  0  0  0  0  0  0  0  0  0  0
    5.8684    2.2237   -1.5441 C   0  0  0  0  0  0  0  0  0  0  0  0
    7.0808    1.5707   -1.3337 C   0  0  0  0  0  0  0  0  0  0  0  0
    7.0799    0.2347   -0.9331 C   0  0  0  0  0  0  0  0  0  0  0  0
    5.8718   -0.4419   -0.7459 C   0  0  0  0  0  0  0  0  0  0  0  0
    5.9360   -1.7253   -0.3594 F   0  0  0  0  0  0  0  0  0  0  0  0
    1.5534   -3.3675   -0.4569 O   0  0  0  0  0  0  0  0  0  0  0  0
    0.1855   -3.5205   -0.3540 N   0  0  0  0  0  0  0  0  0  0  0  0
   -4.3130    0.0486   -4.1339 H   0  0  0  0  0  0  0  0  0  0  0  0
   -4.5816   -1.7143   -3.8640 H   0  0  0  0  0  0  0  0  0  0  0  0
   -3.0344   -1.1267   -4.5052 H   0  0  0  0  0  0  0  0  0  0  0  0
   -4.1256   -1.1424    0.5011 H   0  0  0  0  0  0  0  0  0  0  0  0
   -3.4065    1.7258   -0.3604 H   0  0  0  0  0  0  0  0  0  0  0  0
   -4.9076    1.2403    0.3947 H   0  0  0  0  0  0  0  0  0  0  0  0
   -4.5529   -0.1201    2.7608 H   0  0  0  0  0  0  0  0  0  0  0  0
   -3.5755    0.2950    4.9843 H   0  0  0  0  0  0  0  0  0  0  0  0
   -1.7294    1.9293    5.2567 H   0  0  0  0  0  0  0  0  0  0  0  0
   -0.8652    3.1618    3.2835 H   0  0  0  0  0  0  0  0  0  0  0  0
   -1.8239    2.7614    1.0483 H   0  0  0  0  0  0  0  0  0  0  0  0
   -1.5529   -0.1094   -0.6030 H   0  0  0  0  0  0  0  0  0  0  0  0
    0.6600   -0.2586   -0.0107 H   0  0  0  0  0  0  0  0  0  0  0  0
    3.7978   -2.3571   -1.1729 H   0  0  0  0  0  0  0  0  0  0  0  0
    3.7714   -1.8721    0.5695 H   0  0  0  0  0  0  0  0  0  0  0  0
    5.8435    3.2646   -1.8566 H   0  0  0  0  0  0  0  0  0  0  0  0
    8.0199    2.0990   -1.4804 H   0  0  0  0  0  0  0  0  0  0  0  0
    8.0160   -0.2914   -0.7638 H   0  0  0  0  0  0  0  0  0  0  0  0
  1  2  1  0
  2  3  1  0
  3  4  2  0
  3  5  1  0
  5  6  1  0
  6  7  1  0
  7  8  2  0
  8  9  1  0
  9 10  2  0
 10 11  1  0
 11 12  2  0
  5 13  1  0
 13 14  1  0
 14 15  2  0
 14 16  1  0
 16 17  1  0
 17 18  2  0
 18 19  1  0
 19 20  1  0
 20 21  1  0
 21 22  2  0
 22 23  1  0
 22 24  1  0
 24 25  2  0
 25 26  1  0
 26 27  2  0
 27 28  1  0
 18 29  1  0
 29 30  1  0
 12  7  1  0
 30 16  2  0
 27 21  1  0
  1 31  1  0
  1 32  1  0
  1 33  1  0
  5 34  1  0
  6 35  1  0
  6 36  1  0
  8 37  1  0
  9 38  1  0
 10 39  1  0
 11 40  1  0
 12 41  1  0
 13 42  1  0
 17 43  1  0
 19 44  1  0
 19 45  1  0
 24 46  1  0
 25 47  1  0
 26 48  1  0
M  END
$$$$
