
     RDKit          3D

 23 24  0  0  0  0  0  0  0  0999 V2000
    0.9118    0.2045    2.0209 O   0  0  0  0  0  0  0  0  0  0  0  0
    1.6915    0.3250    1.0971 C   0  0  0  0  0  0  0  0  0  0  0  0
    3.0511    0.3279    1.2224 O   0  0  0  0  0  0  0  0  0  0  0  0
    3.6549    0.3447   -0.0709 C   0  0  0  0  0  0  0  0  0  0  0  0
    2.6380    0.9596   -0.9963 C   0  0  0  0  0  0  0  0  0  0  0  0
    1.3765    0.5297   -0.3405 C   0  0  0  0  0  0  0  0  0  0  0  0
    0.2047    0.3593   -0.9715 C   0  0  0  0  0  0  0  0  0  0  0  0
   -1.0641   -0.0926   -0.3908 C   0  0  0  0  0  0  0  0  0  0  0  0
   -2.2161    0.6776   -0.5942 C   0  0  0  0  0  0  0  0  0  0  0  0
   -3.4502    0.2526   -0.0964 C   0  0  0  0  0  0  0  0  0  0  0  0
   -3.5441   -0.9507    0.5998 C   0  0  0  0  0  0  0  0  0  0  0  0
   -2.4059   -1.7304    0.7956 C   0  0  0  0  0  0  0  0  0  0  0  0
   -1.1717   -1.3067    0.2966 C   0  0  0  0  0  0  0  0  0  0  0  0
    3.9086   -0.6841   -0.3518 H   0  0  0  0  0  0  0  0  0  0  0  0
    4.5772    0.9325   -0.0360 H   0  0  0  0  0  0  0  0  0  0  0  0
    2.7085    2.0530   -0.9765 H   0  0  0  0  0  0  0  0  0  0  0  0
    2.7566    0.6113   -2.0258 H   0  0  0  0  0  0  0  0  0  0  0  0
    0.1446    0.5804   -2.0359 H   0  0  0  0  0  0  0  0  0  0  0  0
   -2.1613    1.6202   -1.1332 H   0  0  0  0  0  0  0  0  0  0  0  0
   -4.3365    0.8626   -0.2487 H   0  0  0  0  0  0  0  0  0  0  0  0
   -4.5023   -1.2794    0.9932 H   0  0  0  0  0  0  0  0  0  0  0  0
   -2.4749   -2.6669    1.3426 H   0  0  0  0  0  0  0  0  0  0  0  0
   -0.2967   -1.9302    0.4612 H   0  0  0  0  0  0  0  0  0  0  0  0
  1  2  2  0
  2  3  1  0
  3  4  1  0
  4  5  1  0
  5  6  1  0
  6  7  2  3
  7  8  1  0
  8  9  2  0
  9 10  1  0
 10 11  2  0
 11 12  1  0
 12 13  2  0
  6  2  1  0
 13  8  1  0
  4 14  1  0
  4 15  1  0
  5 16  1  0
  5 17  1  0
  7 18  1  0
  9 19  1  0
 10 20  1  0
 11 21  1  0
 12 22  1  0
 13 23  1  0
M  END
$$$$
