
     RDKit          3D

 39 41  0  0  0  0  0  0  0  0999 V2000
    4.5360   -1.1302   -0.6807 C   0  0  0  0  0  0  0  0  0  0  0  0
    3.8872   -0.3768    0.3882 N   0  0  0  0  0  0  0  0  0  0  0  0
    3.5897   -1.2374    1.5306 C   0  0  0  0  0  0  0  0  0  0  0  0
    2.7126    0.3778   -0.0753 C   0  0  0  0  0  0  0  0  0  0  0  0
    1.5608   -0.4344   -0.6965 C   0  0  0  0  0  0  0  0  0  0  0  0
    0.3830    0.4477   -1.0339 C   0  0  0  0  0  0  0  0  0  0  0  0
   -0.8517    0.4760   -0.4804 C   0  0  0  0  0  0  0  0  0  0  0  0
   -1.8857    1.3125   -1.1532 C   0  0  0  0  0  0  0  0  0  0  0  0
   -1.6364    2.6397   -1.5382 C   0  0  0  0  0  0  0  0  0  0  0  0
   -2.6294    3.3956   -2.1643 C   0  0  0  0  0  0  0  0  0  0  0  0
   -3.8829    2.8383   -2.4048 C   0  0  0  0  0  0  0  0  0  0  0  0
   -4.1514    1.5274   -2.0090 C   0  0  0  0  0  0  0  0  0  0  0  0
   -3.1645    0.7633   -1.3728 C   0  0  0  0  0  0  0  0  0  0  0  0
   -3.5792   -0.9068   -0.8648 S   0  0  0  0  0  0  0  0  0  0  0  0
   -2.4828   -1.1111    0.5389 C   0  0  0  0  0  0  0  0  0  0  0  0
   -2.8850   -1.9686    1.5721 C   0  0  0  0  0  0  0  0  0  0  0  0
   -2.0934   -2.1185    2.7119 C   0  0  0  0  0  0  0  0  0  0  0  0
   -0.9080   -1.3982    2.8266 C   0  0  0  0  0  0  0  0  0  0  0  0
    0.0577   -1.5614    4.2413 Cl  0  0  0  0  0  0  0  0  0  0  0  0
   -0.4954   -0.5443    1.8048 C   0  0  0  0  0  0  0  0  0  0  0  0
   -1.2565   -0.4227    0.6327 C   0  0  0  0  0  0  0  0  0  0  0  0
    3.9200   -1.9590   -1.0460 H   0  0  0  0  0  0  0  0  0  0  0  0
    4.7753   -0.4761   -1.5264 H   0  0  0  0  0  0  0  0  0  0  0  0
    5.4868   -1.5464   -0.3290 H   0  0  0  0  0  0  0  0  0  0  0  0
    3.1298   -0.6615    2.3412 H   0  0  0  0  0  0  0  0  0  0  0  0
    2.9230   -2.0673    1.2737 H   0  0  0  0  0  0  0  0  0  0  0  0
    4.5148   -1.6621    1.9365 H   0  0  0  0  0  0  0  0  0  0  0  0
    3.0542    1.1216   -0.8081 H   0  0  0  0  0  0  0  0  0  0  0  0
    2.3319    0.9717    0.7661 H   0  0  0  0  0  0  0  0  0  0  0  0
    1.2668   -1.2630   -0.0482 H   0  0  0  0  0  0  0  0  0  0  0  0
    1.8986   -0.8977   -1.6318 H   0  0  0  0  0  0  0  0  0  0  0  0
    0.5827    1.0837   -1.8974 H   0  0  0  0  0  0  0  0  0  0  0  0
   -0.6699    3.0992   -1.3450 H   0  0  0  0  0  0  0  0  0  0  0  0
   -2.4244    4.4213   -2.4613 H   0  0  0  0  0  0  0  0  0  0  0  0
   -4.6557    3.4265   -2.8935 H   0  0  0  0  0  0  0  0  0  0  0  0
   -5.1381    1.1092   -2.1937 H   0  0  0  0  0  0  0  0  0  0  0  0
   -3.8230   -2.5149    1.5015 H   0  0  0  0  0  0  0  0  0  0  0  0
   -2.4154   -2.7835    3.5089 H   0  0  0  0  0  0  0  0  0  0  0  0
    0.4177    0.0305    1.9281 H   0  0  0  0  0  0  0  0  0  0  0  0
  1  2  1  0
  2  3  1  0
  2  4  1  0
  4  5  1  0
  5  6  1  0
  6  7  2  3
  7  8  1  0
  8  9  2  0
  9 10  1  0
 10 11  2  0
 11 12  1  0
 12 13  2  0
 13 14  1  0
 14 15  1  0
 15 16  2  0
 16 17  1  0
 17 18  2  0
 18 19  1  0
 18 20  1  0
 20 21  2  0
 21  7  1  0
 13  8  1  0
 21 15  1  0
  1 22  1  0
  1 23  1  0
  1 24  1  0
  3 25  1  0
  3 26  1  0
  3 27  1  0
  4 28  1  0
  4 29  1  0
  5 30  1  0
  5 31  1  0
  6 32  1  0
  9 33  1  0
 10 34  1  0
 11 35  1  0
 12 36  1  0
 16 37  1  0
 17 38  1  0
 20 39  1  0
M  END
$$$$
