
     RDKit          3D

 44 46  0  0  0  0  0  0  0  0999 V2000
   -4.6826    2.8078   -0.2195 C   0  0  0  0  0  0  0  0  0  0  0  0
   -4.4701    2.0495   -1.5321 C   0  0  0  0  0  0  0  0  0  0  0  0
   -5.8072    1.5976   -2.1243 C   0  0  0  0  0  0  0  0  0  0  0  0
   -3.5151    0.8812   -1.3530 C   0  0  0  0  0  0  0  0  0  0  0  0
   -2.3039    0.8591   -2.0640 C   0  0  0  0  0  0  0  0  0  0  0  0
   -1.4096   -0.2032   -1.9186 C   0  0  0  0  0  0  0  0  0  0  0  0
   -1.7207   -1.2491   -1.0482 C   0  0  0  0  0  0  0  0  0  0  0  0
   -0.5952   -2.6063   -0.8600 S   0  0  0  0  0  6  0  0  0  0  0  0
    0.4138   -2.5323   -1.8941 O   0  0  0  0  0  0  0  0  0  0  0  0
   -1.3884   -3.8047   -0.6791 O   0  0  0  0  0  0  0  0  0  0  0  0
    0.1185   -2.2929    0.6434 N   0  0  0  0  0  0  0  0  0  0  0  0
    1.1706   -1.3376    0.6925 C   0  0  0  0  0  0  0  0  0  0  0  0
    0.8674    0.0087    0.8822 C   0  0  0  0  0  0  0  0  0  0  0  0
    1.8924    0.9526    0.8909 C   0  0  0  0  0  0  0  0  0  0  0  0
    3.2138    0.5463    0.7103 C   0  0  0  0  0  0  0  0  0  0  0  0
    4.1529    1.5411    0.7421 O   0  0  0  0  0  0  0  0  0  0  0  0
    3.5317   -0.8046    0.5047 C   0  0  0  0  0  0  0  0  0  0  0  0
    5.1863   -1.3912    0.1733 S   0  0  0  0  0  0  0  0  0  0  0  0
    6.0005   -1.0276    1.6667 C   0  0  0  0  0  0  0  0  0  0  0  0
    6.3780   -1.9742    2.5756 N   0  0  0  0  0  0  0  0  0  0  0  0
    6.9545   -1.2656    3.5174 C   0  0  0  0  0  0  0  0  0  0  0  0
    6.9225    0.0505    3.1801 N   0  0  0  0  0  0  0  0  0  0  0  0
    6.3141    0.2330    1.9943 N   0  0  0  0  0  0  0  0  0  0  0  0
    2.4910   -1.7443    0.4906 C   0  0  0  0  0  0  0  0  0  0  0  0
   -2.9254   -1.2542   -0.3427 C   0  0  0  0  0  0  0  0  0  0  0  0
   -3.8153   -0.1891   -0.4937 C   0  0  0  0  0  0  0  0  0  0  0  0
   -3.7265    3.1417    0.1988 H   0  0  0  0  0  0  0  0  0  0  0  0
   -5.1795    2.1892    0.5357 H   0  0  0  0  0  0  0  0  0  0  0  0
   -5.3044    3.6946   -0.3839 H   0  0  0  0  0  0  0  0  0  0  0  0
   -4.0255    2.7576   -2.2440 H   0  0  0  0  0  0  0  0  0  0  0  0
   -5.6564    1.0650   -3.0699 H   0  0  0  0  0  0  0  0  0  0  0  0
   -6.4505    2.4612   -2.3249 H   0  0  0  0  0  0  0  0  0  0  0  0
   -6.3504    0.9290   -1.4477 H   0  0  0  0  0  0  0  0  0  0  0  0
   -2.0480    1.6712   -2.7421 H   0  0  0  0  0  0  0  0  0  0  0  0
   -0.4774   -0.2030   -2.4798 H   0  0  0  0  0  0  0  0  0  0  0  0
    0.2477   -3.1622    1.1604 H   0  0  0  0  0  0  0  0  0  0  0  0
   -0.1588    0.3325    1.0327 H   0  0  0  0  0  0  0  0  0  0  0  0
    1.6652    2.0047    1.0405 H   0  0  0  0  0  0  0  0  0  0  0  0
    5.0283    1.1291    0.9066 H   0  0  0  0  0  0  0  0  0  0  0  0
    7.3975   -1.6371    4.4306 H   0  0  0  0  0  0  0  0  0  0  0  0
    7.2820    0.8516    3.6883 H   0  0  0  0  0  0  0  0  0  0  0  0
    2.7080   -2.7931    0.3016 H   0  0  0  0  0  0  0  0  0  0  0  0
   -3.1761   -2.0784    0.3213 H   0  0  0  0  0  0  0  0  0  0  0  0
   -4.7500   -0.2039    0.0630 H   0  0  0  0  0  0  0  0  0  0  0  0
  1  2  1  0
  2  3  1  0
  2  4  1  0
  4  5  2  0
  5  6  1  0
  6  7  2  0
  7  8  1  0
  8  9  2  0
  8 10  2  0
  8 11  1  0
 11 12  1  0
 12 13  2  0
 13 14  1  0
 14 15  2  0
 15 16  1  0
 15 17  1  0
 17 18  1  0
 18 19  1  0
 19 20  1  0
 20 21  2  0
 21 22  1  0
 22 23  1  0
 17 24  2  0
  7 25  1  0
 25 26  2  0
 26  4  1  0
 24 12  1  0
 23 19  2  0
  1 27  1  0
  1 28  1  0
  1 29  1  0
  2 30  1  0
  3 31  1  0
  3 32  1  0
  3 33  1  0
  5 34  1  0
  6 35  1  0
 11 36  1  0
 13 37  1  0
 14 38  1  0
 16 39  1  0
 21 40  1  0
 22 41  1  0
 24 42  1  0
 25 43  1  0
 26 44  1  0
M  END
$$$$
