
     RDKit          3D

 32 34  0  0  0  0  0  0  0  0999 V2000
   -3.0210    1.6796   -1.9959 C   0  0  0  0  0  0  0  0  0  0  0  0
   -3.3744    0.2701   -1.5584 C   0  0  0  0  0  0  0  0  0  0  0  0
   -2.8148   -0.6501   -2.5022 O   0  0  0  0  0  0  0  0  0  0  0  0
   -2.1678   -1.7084   -1.8919 C   0  0  0  0  0  0  0  0  0  0  0  0
   -2.6217   -2.9881   -2.2302 C   0  0  0  0  0  0  0  0  0  0  0  0
   -1.9968   -4.1161   -1.7100 C   0  0  0  0  0  0  0  0  0  0  0  0
   -0.8954   -3.9931   -0.8579 C   0  0  0  0  0  0  0  0  0  0  0  0
   -0.4265   -2.7038   -0.5507 C   0  0  0  0  0  0  0  0  0  0  0  0
    0.9071   -2.2432    0.4334 S   0  0  0  0  0  0  0  0  0  0  0  0
    0.6046   -0.6086    0.0935 C   0  0  0  0  0  0  0  0  0  0  0  0
    1.3723    0.4175    0.5785 N   0  0  0  0  0  0  0  0  0  0  0  0
    2.4766    0.3359    1.3952 C   0  0  0  0  0  0  0  0  0  0  0  0
    2.9488   -0.7052    1.8409 O   0  0  0  0  0  0  0  0  0  0  0  0
    3.0877    1.6278    1.7151 C   0  0  0  0  0  0  0  0  0  0  0  0
    4.2181    1.8344    2.4900 C   0  0  0  0  0  0  0  0  0  0  0  0
    4.5577    3.2144    2.6155 C   0  0  0  0  0  0  0  0  0  0  0  0
    3.6655    4.0038    1.9392 C   0  0  0  0  0  0  0  0  0  0  0  0
    3.7746    5.9099    1.8846 Br  0  0  0  0  0  0  0  0  0  0  0  0
    2.4517    3.1229    1.1550 S   0  0  0  0  0  0  0  0  0  0  0  0
   -0.4270   -0.3592   -0.6751 N   0  0  0  0  0  0  0  0  0  0  0  0
   -1.0328   -1.5519   -1.0577 C   0  0  0  0  0  0  0  0  0  0  0  0
   -1.9362    1.8282   -1.9675 H   0  0  0  0  0  0  0  0  0  0  0  0
   -3.3469    1.8549   -3.0267 H   0  0  0  0  0  0  0  0  0  0  0  0
   -3.4978    2.4171   -1.3438 H   0  0  0  0  0  0  0  0  0  0  0  0
   -4.4633    0.1424   -1.5841 H   0  0  0  0  0  0  0  0  0  0  0  0
   -3.0518    0.1023   -0.5238 H   0  0  0  0  0  0  0  0  0  0  0  0
   -3.4671   -3.0967   -2.9053 H   0  0  0  0  0  0  0  0  0  0  0  0
   -2.3637   -5.1056   -1.9747 H   0  0  0  0  0  0  0  0  0  0  0  0
   -0.4028   -4.8742   -0.4574 H   0  0  0  0  0  0  0  0  0  0  0  0
    1.0678    1.3303    0.2669 H   0  0  0  0  0  0  0  0  0  0  0  0
    4.7723    1.0226    2.9507 H   0  0  0  0  0  0  0  0  0  0  0  0
    5.4030    3.5902    3.1789 H   0  0  0  0  0  0  0  0  0  0  0  0
  1  2  1  0
  2  3  1  0
  3  4  1  0
  4  5  2  0
  5  6  1  0
  6  7  2  0
  7  8  1  0
  8  9  1  0
  9 10  1  0
 10 11  1  0
 11 12  1  0
 12 13  2  0
 12 14  1  0
 14 15  2  0
 15 16  1  0
 16 17  2  0
 17 18  1  0
 17 19  1  0
 10 20  2  0
 20 21  1  0
 21  4  1  0
 21  8  2  0
 19 14  1  0
  1 22  1  0
  1 23  1  0
  1 24  1  0
  2 25  1  0
  2 26  1  0
  5 27  1  0
  6 28  1  0
  7 29  1  0
 11 30  1  0
 15 31  1  0
 16 32  1  0
M  END
$$$$
