
     RDKit          3D

 55 60  0  0  0  0  0  0  0  0999 V2000
    3.6659    3.0591    1.3095 O   0  0  0  0  0  0  0  0  0  0  0  0
    3.5931    1.8308    1.3202 C   0  0  0  0  0  0  0  0  0  0  0  0
    4.6761    1.0465    1.8953 C   0  0  0  0  0  0  0  0  0  0  0  0
    6.0622    1.3858    1.9205 C   0  0  0  0  0  0  0  0  0  0  0  0
    6.7047    0.3791    2.6000 C   0  0  0  0  0  0  0  0  0  0  0  0
    5.8097   -0.5480    3.0240 O   0  0  0  0  0  0  0  0  0  0  0  0
    4.5842   -0.1281    2.6162 C   0  0  0  0  0  0  0  0  0  0  0  0
    2.4821    1.1674    0.7912 N   0  0  0  0  0  0  0  0  0  0  0  0
    2.4819   -0.2237    0.3376 C   0  0  0  0  0  0  0  0  0  0  0  0
    1.6950   -0.3802   -0.9614 C   0  0  0  0  0  0  0  0  0  0  0  0
    0.2060    0.0715   -0.8374 C   0  0  0  0  0  0  0  0  0  0  0  0
    0.0757    1.1228    0.3001 C   0  0  0  0  0  0  0  0  0  0  0  0
    1.3312    1.9796    0.4149 C   0  0  0  0  0  0  0  0  0  0  0  0
   -0.1552    0.8029   -2.0404 O   0  0  0  0  0  0  0  0  0  0  0  0
   -0.3526    0.0550   -3.1656 C   0  0  0  0  0  0  0  0  0  0  0  0
   -0.3000    0.7430   -4.3775 C   0  0  0  0  0  0  0  0  0  0  0  0
   -0.4747    0.0547   -5.5803 C   0  0  0  0  0  0  0  0  0  0  0  0
   -0.7077   -1.3205   -5.5665 C   0  0  0  0  0  0  0  0  0  0  0  0
   -0.9210   -2.1634   -7.0499 Cl  0  0  0  0  0  0  0  0  0  0  0  0
   -0.7772   -2.0127   -4.3602 C   0  0  0  0  0  0  0  0  0  0  0  0
   -0.6078   -1.3143   -3.1600 C   0  0  0  0  0  0  0  0  0  0  0  0
   -0.7230   -2.0135   -1.8673 C   0  0  0  0  0  0  0  0  0  0  0  0
   -0.8204   -3.2363   -1.8484 O   0  0  0  0  0  0  0  0  0  0  0  0
   -0.7683   -1.1225   -0.6295 C   0  0  0  0  0  0  0  0  0  0  0  0
   -2.2269   -0.7585   -0.3788 C   0  0  0  0  0  0  0  0  0  0  0  0
   -2.3136   -1.0781    1.0726 C   0  0  0  0  0  0  0  0  0  0  0  0
   -3.4967   -0.7149    1.8878 C   0  0  0  0  0  0  0  0  0  0  0  0
   -4.6330   -0.1340    1.3116 C   0  0  0  0  0  0  0  0  0  0  0  0
   -5.7307    0.1997    2.1123 C   0  0  0  0  0  0  0  0  0  0  0  0
   -5.6942   -0.0475    3.4840 C   0  0  0  0  0  0  0  0  0  0  0  0
   -7.0466    0.3659    4.4624 Cl  0  0  0  0  0  0  0  0  0  0  0  0
   -4.5694   -0.6282    4.0648 C   0  0  0  0  0  0  0  0  0  0  0  0
   -3.4716   -0.9628    3.2673 C   0  0  0  0  0  0  0  0  0  0  0  0
   -1.2827   -1.6901    1.5593 N   0  0  0  0  0  0  0  0  0  0  0  0
   -0.3645   -1.8953    0.5066 O   0  0  0  0  0  0  0  0  0  0  0  0
    6.5223    2.2645    1.4893 H   0  0  0  0  0  0  0  0  0  0  0  0
    7.7359    0.1911    2.8650 H   0  0  0  0  0  0  0  0  0  0  0  0
    3.7597   -0.7571    2.9223 H   0  0  0  0  0  0  0  0  0  0  0  0
    3.5069   -0.5666    0.1684 H   0  0  0  0  0  0  0  0  0  0  0  0
    2.0415   -0.8333    1.1334 H   0  0  0  0  0  0  0  0  0  0  0  0
    1.7693   -1.4224   -1.2915 H   0  0  0  0  0  0  0  0  0  0  0  0
    2.1944    0.2126   -1.7405 H   0  0  0  0  0  0  0  0  0  0  0  0
   -0.7805    1.7830    0.1169 H   0  0  0  0  0  0  0  0  0  0  0  0
   -0.0824    0.6401    1.2703 H   0  0  0  0  0  0  0  0  0  0  0  0
    1.1819    2.7607    1.1693 H   0  0  0  0  0  0  0  0  0  0  0  0
    1.5608    2.4785   -0.5343 H   0  0  0  0  0  0  0  0  0  0  0  0
   -0.1105    1.8142   -4.3901 H   0  0  0  0  0  0  0  0  0  0  0  0
   -0.4244    0.5950   -6.5229 H   0  0  0  0  0  0  0  0  0  0  0  0
   -0.9695   -3.0837   -4.3515 H   0  0  0  0  0  0  0  0  0  0  0  0
   -2.9324   -1.3967   -0.9225 H   0  0  0  0  0  0  0  0  0  0  0  0
   -2.4586    0.2883   -0.5877 H   0  0  0  0  0  0  0  0  0  0  0  0
   -4.6951    0.0630    0.2455 H   0  0  0  0  0  0  0  0  0  0  0  0
   -6.6119    0.6491    1.6606 H   0  0  0  0  0  0  0  0  0  0  0  0
   -4.5387   -0.8255    5.1335 H   0  0  0  0  0  0  0  0  0  0  0  0
   -2.5989   -1.4194    3.7316 H   0  0  0  0  0  0  0  0  0  0  0  0
  1  2  2  0
  2  3  1  0
  3  4  1  0
  4  5  2  0
  5  6  1  0
  6  7  1  0
  2  8  1  0
  8  9  1  0
  9 10  1  0
 10 11  1  0
 11 12  1  0
 12 13  1  0
 11 14  1  0
 14 15  1  0
 15 16  2  0
 16 17  1  0
 17 18  2  0
 18 19  1  0
 18 20  1  0
 20 21  2  0
 21 22  1  0
 22 23  2  0
 22 24  1  0
 24 25  1  0
 25 26  1  0
 26 27  1  0
 27 28  2  0
 28 29  1  0
 29 30  2  0
 30 31  1  0
 30 32  1  0
 32 33  2  0
 26 34  2  0
 34 35  1  0
  7  3  2  0
 13  8  1  0
 21 15  1  0
 35 24  1  0
 24 11  1  0
 33 27  1  0
  4 36  1  0
  5 37  1  0
  7 38  1  0
  9 39  1  0
  9 40  1  0
 10 41  1  0
 10 42  1  0
 12 43  1  0
 12 44  1  0
 13 45  1  0
 13 46  1  0
 16 47  1  0
 17 48  1  0
 20 49  1  0
 25 50  1  0
 25 51  1  0
 28 52  1  0
 29 53  1  0
 32 54  1  0
 33 55  1  0
M  END
$$$$
