
     RDKit          3D

 60 63  0  0  0  0  0  0  0  0999 V2000
   -2.5689   -3.6666    0.1090 C   0  0  0  0  0  0  0  0  0  0  0  0
   -2.8789   -2.2044    0.1710 C   0  0  0  0  0  0  0  0  0  0  0  0
   -2.8595   -1.5419    1.3835 C   0  0  0  0  0  0  0  0  0  0  0  0
   -3.1431   -0.1905    1.3503 C   0  0  0  0  0  0  0  0  0  0  0  0
   -3.1747    0.6140    2.6142 C   0  0  0  0  0  0  0  0  0  0  0  0
   -3.4358    0.4563    0.2057 N   0  0  0  0  0  0  0  0  0  0  0  0
   -3.4214   -0.2688   -0.9218 C   0  0  0  0  0  0  0  0  0  0  0  0
   -3.8401    0.5836   -2.4146 S   0  0  0  0  0  0  0  0  0  0  0  0
   -2.5311   -0.0425   -3.4901 C   0  0  0  0  0  0  0  0  0  0  0  0
   -1.1432    0.3176   -3.0720 C   0  0  0  0  0  0  0  0  0  0  0  0
   -0.2236   -0.5570   -2.6977 N   0  0  0  0  0  0  0  0  0  0  0  0
    0.9607    0.1042   -2.5281 N   0  0  0  0  0  0  0  0  0  0  0  0
    0.7501    1.3751   -2.7800 C   0  0  0  0  0  0  0  0  0  0  0  0
    1.9703    2.6009   -2.7675 S   0  0  0  0  0  0  0  0  0  0  0  0
    3.4816    1.6035   -2.6370 C   0  0  0  0  0  0  0  0  0  0  0  0
    3.8033    1.2451   -1.1919 C   0  0  0  0  0  0  0  0  0  0  0  0
    4.6698    1.8577   -0.5739 O   0  0  0  0  0  0  0  0  0  0  0  0
    3.0692    0.1747   -0.7143 N   0  0  0  0  0  0  0  0  0  0  0  0
    3.2338   -0.5220    0.4991 C   0  0  0  0  0  0  0  0  0  0  0  0
    4.3055   -0.3321    1.3642 C   0  0  0  0  0  0  0  0  0  0  0  0
    4.4237   -1.1124    2.5223 C   0  0  0  0  0  0  0  0  0  0  0  0
    3.4692   -2.0912    2.8378 C   0  0  0  0  0  0  0  0  0  0  0  0
    3.6349   -2.9018    4.0940 C   0  0  0  0  0  0  0  0  0  0  0  0
    2.3658   -2.2688    1.9833 C   0  0  0  0  0  0  0  0  0  0  0  0
    1.3091   -3.2999    2.2644 C   0  0  0  0  0  0  0  0  0  0  0  0
    2.2718   -1.4908    0.8135 C   0  0  0  0  0  0  0  0  0  0  0  0
   -0.5702    1.5772   -3.0933 N   0  0  0  0  0  0  0  0  0  0  0  0
   -1.2083    2.8324   -3.4574 C   0  0  0  0  0  0  0  0  0  0  0  0
   -1.7113    3.5674   -2.2681 C   0  0  0  0  0  0  0  0  0  0  0  0
   -2.9581    4.0271   -1.8954 C   0  0  0  0  0  0  0  0  0  0  0  0
   -2.7957    4.6476   -0.6310 C   0  0  0  0  0  0  0  0  0  0  0  0
   -1.4585    4.5520   -0.3263 C   0  0  0  0  0  0  0  0  0  0  0  0
   -0.7930    3.9117   -1.3177 O   0  0  0  0  0  0  0  0  0  0  0  0
   -3.1688   -1.5815   -0.9916 N   0  0  0  0  0  0  0  0  0  0  0  0
   -3.2914   -4.2368    0.7136 H   0  0  0  0  0  0  0  0  0  0  0  0
   -2.6225   -4.0264   -0.9238 H   0  0  0  0  0  0  0  0  0  0  0  0
   -1.5533   -3.8584    0.4832 H   0  0  0  0  0  0  0  0  0  0  0  0
   -2.6344   -2.0540    2.3143 H   0  0  0  0  0  0  0  0  0  0  0  0
   -3.1821    1.6898    2.3885 H   0  0  0  0  0  0  0  0  0  0  0  0
   -4.0783    0.3764    3.1843 H   0  0  0  0  0  0  0  0  0  0  0  0
   -2.2890    0.4059    3.2304 H   0  0  0  0  0  0  0  0  0  0  0  0
   -2.7125    0.3521   -4.4946 H   0  0  0  0  0  0  0  0  0  0  0  0
   -2.6218   -1.1314   -3.5777 H   0  0  0  0  0  0  0  0  0  0  0  0
    4.3141    2.1969   -3.0257 H   0  0  0  0  0  0  0  0  0  0  0  0
    3.4311    0.6980   -3.2530 H   0  0  0  0  0  0  0  0  0  0  0  0
    2.2732   -0.1143   -1.2874 H   0  0  0  0  0  0  0  0  0  0  0  0
    5.0797    0.4029    1.1674 H   0  0  0  0  0  0  0  0  0  0  0  0
    5.2873   -0.9516    3.1703 H   0  0  0  0  0  0  0  0  0  0  0  0
    2.8953   -2.5976    4.8425 H   0  0  0  0  0  0  0  0  0  0  0  0
    4.6324   -2.7661    4.5280 H   0  0  0  0  0  0  0  0  0  0  0  0
    3.5177   -3.9688    3.8816 H   0  0  0  0  0  0  0  0  0  0  0  0
    1.7077   -4.3060    2.0935 H   0  0  0  0  0  0  0  0  0  0  0  0
    0.4373   -3.1619    1.6126 H   0  0  0  0  0  0  0  0  0  0  0  0
    0.9496   -3.2159    3.2978 H   0  0  0  0  0  0  0  0  0  0  0  0
    1.4271   -1.6449    0.1382 H   0  0  0  0  0  0  0  0  0  0  0  0
   -2.0238    2.6104   -4.1538 H   0  0  0  0  0  0  0  0  0  0  0  0
   -0.4874    3.4421   -4.0106 H   0  0  0  0  0  0  0  0  0  0  0  0
   -3.8794    3.9101   -2.4515 H   0  0  0  0  0  0  0  0  0  0  0  0
   -3.5578    5.1049   -0.0181 H   0  0  0  0  0  0  0  0  0  0  0  0
   -0.8531    4.8689    0.5118 H   0  0  0  0  0  0  0  0  0  0  0  0
  1  2  1  0
  2  3  2  0
  3  4  1  0
  4  5  1  0
  4  6  2  0
  6  7  1  0
  7  8  1  0
  8  9  1  0
  9 10  1  0
 10 11  2  0
 11 12  1  0
 12 13  2  0
 13 14  1  0
 14 15  1  0
 15 16  1  0
 16 17  2  0
 16 18  1  0
 18 19  1  0
 19 20  2  0
 20 21  1  0
 21 22  2  0
 22 23  1  0
 22 24  1  0
 24 25  1  0
 24 26  2  0
 13 27  1  0
 27 28  1  0
 28 29  1  0
 29 30  2  0
 30 31  1  0
 31 32  2  0
 32 33  1  0
  7 34  2  0
 34  2  1  0
 27 10  1  0
 33 29  1  0
 26 19  1  0
  1 35  1  0
  1 36  1  0
  1 37  1  0
  3 38  1  0
  5 39  1  0
  5 40  1  0
  5 41  1  0
  9 42  1  0
  9 43  1  0
 15 44  1  0
 15 45  1  0
 18 46  1  0
 20 47  1  0
 21 48  1  0
 23 49  1  0
 23 50  1  0
 23 51  1  0
 25 52  1  0
 25 53  1  0
 25 54  1  0
 26 55  1  0
 28 56  1  0
 28 57  1  0
 30 58  1  0
 31 59  1  0
 32 60  1  0
M  END
$$$$
