
     RDKit          3D

 64 69  0  0  0  0  0  0  0  0999 V2000
   -1.9125    4.1704    3.6428 C   0  0  0  0  0  0  0  0  0  0  0  0
   -1.4780    2.8176    3.6146 O   0  0  0  0  0  0  0  0  0  0  0  0
   -1.9820    2.0286    2.6169 C   0  0  0  0  0  0  0  0  0  0  0  0
   -2.9254    2.4117    1.6627 C   0  0  0  0  0  0  0  0  0  0  0  0
   -3.3465    1.5034    0.6814 C   0  0  0  0  0  0  0  0  0  0  0  0
   -2.8356    0.1988    0.6447 C   0  0  0  0  0  0  0  0  0  0  0  0
   -3.2403   -0.7440   -0.4093 C   0  0  0  0  0  0  0  0  0  0  0  0
   -4.8863   -1.1957   -0.5189 S   0  0  0  0  0  0  0  0  0  0  0  0
   -4.6110   -2.2399   -1.8568 C   0  0  0  0  0  0  0  0  0  0  0  0
   -5.5880   -3.0014   -2.5361 C   0  0  0  0  0  0  0  0  0  0  0  0
   -5.1459   -3.7720   -3.5914 C   0  0  0  0  0  0  0  0  0  0  0  0
   -3.8317   -3.8074   -3.9709 C   0  0  0  0  0  0  0  0  0  0  0  0
   -2.8596   -3.0725   -3.3194 C   0  0  0  0  0  0  0  0  0  0  0  0
   -3.2549   -2.2576   -2.2217 C   0  0  0  0  0  0  0  0  0  0  0  0
   -2.4732   -1.3855   -1.3720 C   0  0  0  0  0  0  0  0  0  0  0  0
   -1.0350   -1.1583   -1.4721 C   0  0  0  0  0  0  0  0  0  0  0  0
   -0.1403   -2.1654   -1.0998 C   0  0  0  0  0  0  0  0  0  0  0  0
    1.2339   -1.9214   -1.1338 C   0  0  0  0  0  0  0  0  0  0  0  0
    1.7255   -0.6752   -1.5309 C   0  0  0  0  0  0  0  0  0  0  0  0
    3.0858   -0.5527   -1.4855 O   0  0  0  0  0  0  0  0  0  0  0  0
    3.6320    0.7584   -1.2899 C   0  0  0  0  0  0  0  0  0  0  0  0
    3.3410    1.3550    0.1093 C   0  0  0  0  0  0  0  0  0  0  0  0
    3.7598    0.5205    1.2539 N   0  0  0  0  0  0  0  0  0  0  0  0
    3.1837    0.9997    2.5212 C   0  0  0  0  0  0  0  0  0  0  0  0
    3.8293    2.2873    3.0440 C   0  0  0  0  0  0  0  0  0  0  0  0
    5.3440    2.1424    3.1568 C   0  0  0  0  0  0  0  0  0  0  0  0
    5.9446    1.6128    1.8563 C   0  0  0  0  0  0  0  0  0  0  0  0
    5.2136    0.3536    1.3774 C   0  0  0  0  0  0  0  0  0  0  0  0
    0.8348    0.3133   -1.9495 C   0  0  0  0  0  0  0  0  0  0  0  0
   -0.5425    0.0747   -1.9153 C   0  0  0  0  0  0  0  0  0  0  0  0
   -3.6190   -4.6282   -5.0350 O   0  0  0  0  0  0  0  0  0  0  0  0
   -4.9588   -5.0975   -5.2881 C   0  0  0  0  0  0  0  0  0  0  0  0
   -5.9336   -4.5678   -4.3662 O   0  0  0  0  0  0  0  0  0  0  0  0
   -1.8993   -0.1814    1.6138 C   0  0  0  0  0  0  0  0  0  0  0  0
   -1.4763    0.7276    2.5886 C   0  0  0  0  0  0  0  0  0  0  0  0
   -1.6460    4.6899    2.7162 H   0  0  0  0  0  0  0  0  0  0  0  0
   -1.3927    4.6717    4.4663 H   0  0  0  0  0  0  0  0  0  0  0  0
   -2.9888    4.2351    3.8386 H   0  0  0  0  0  0  0  0  0  0  0  0
   -3.3526    3.4088    1.6483 H   0  0  0  0  0  0  0  0  0  0  0  0
   -4.0709    1.8297   -0.0625 H   0  0  0  0  0  0  0  0  0  0  0  0
   -6.6324   -2.9789   -2.2463 H   0  0  0  0  0  0  0  0  0  0  0  0
   -1.8244   -3.1151   -3.6445 H   0  0  0  0  0  0  0  0  0  0  0  0
   -0.5027   -3.1320   -0.7574 H   0  0  0  0  0  0  0  0  0  0  0  0
    1.9286   -2.6966   -0.8196 H   0  0  0  0  0  0  0  0  0  0  0  0
    3.3025    1.4408   -2.0821 H   0  0  0  0  0  0  0  0  0  0  0  0
    4.7153    0.6687   -1.4339 H   0  0  0  0  0  0  0  0  0  0  0  0
    2.2569    1.5076    0.1825 H   0  0  0  0  0  0  0  0  0  0  0  0
    3.7951    2.3536    0.1583 H   0  0  0  0  0  0  0  0  0  0  0  0
    2.1000    1.1399    2.4222 H   0  0  0  0  0  0  0  0  0  0  0  0
    3.3034    0.2094    3.2753 H   0  0  0  0  0  0  0  0  0  0  0  0
    3.4110    2.5347    4.0278 H   0  0  0  0  0  0  0  0  0  0  0  0
    3.5881    3.1272    2.3803 H   0  0  0  0  0  0  0  0  0  0  0  0
    5.7982    3.1080    3.4133 H   0  0  0  0  0  0  0  0  0  0  0  0
    5.5826    1.4492    3.9746 H   0  0  0  0  0  0  0  0  0  0  0  0
    7.0060    1.3846    2.0116 H   0  0  0  0  0  0  0  0  0  0  0  0
    5.9024    2.3923    1.0851 H   0  0  0  0  0  0  0  0  0  0  0  0
    5.4038   -0.4564    2.0959 H   0  0  0  0  0  0  0  0  0  0  0  0
    5.6533    0.0025    0.4368 H   0  0  0  0  0  0  0  0  0  0  0  0
    1.1772    1.2790   -2.3038 H   0  0  0  0  0  0  0  0  0  0  0  0
   -1.2273    0.8610   -2.2240 H   0  0  0  0  0  0  0  0  0  0  0  0
   -4.9676   -6.1905   -5.2192 H   0  0  0  0  0  0  0  0  0  0  0  0
   -5.2463   -4.8071   -6.3050 H   0  0  0  0  0  0  0  0  0  0  0  0
   -1.4843   -1.1866    1.6157 H   0  0  0  0  0  0  0  0  0  0  0  0
   -0.7410    0.4174    3.3277 H   0  0  0  0  0  0  0  0  0  0  0  0
  1  2  1  0
  2  3  1  0
  3  4  2  0
  4  5  1  0
  5  6  2  0
  6  7  1  0
  7  8  1  0
  8  9  1  0
  9 10  2  0
 10 11  1  0
 11 12  2  0
 12 13  1  0
 13 14  2  0
 14 15  1  0
 15 16  1  0
 16 17  2  0
 17 18  1  0
 18 19  2  0
 19 20  1  0
 20 21  1  0
 21 22  1  0
 22 23  1  0
 23 24  1  0
 24 25  1  0
 25 26  1  0
 26 27  1  0
 27 28  1  0
 19 29  1  0
 29 30  2  0
 12 31  1  0
 31 32  1  0
 32 33  1  0
  6 34  1  0
 34 35  2  0
 35  3  1  0
 15  7  2  0
 30 16  1  0
 14  9  1  0
 28 23  1  0
 33 11  1  0
  1 36  1  0
  1 37  1  0
  1 38  1  0
  4 39  1  0
  5 40  1  0
 10 41  1  0
 13 42  1  0
 17 43  1  0
 18 44  1  0
 21 45  1  0
 21 46  1  0
 22 47  1  0
 22 48  1  0
 24 49  1  0
 24 50  1  0
 25 51  1  0
 25 52  1  0
 26 53  1  0
 26 54  1  0
 27 55  1  0
 27 56  1  0
 28 57  1  0
 28 58  1  0
 29 59  1  0
 30 60  1  0
 32 61  1  0
 32 62  1  0
 34 63  1  0
 35 64  1  0
M  END
$$$$
