
     RDKit          3D

 60 62  0  0  0  0  0  0  0  0999 V2000
   -4.5834    3.7929   -0.3611 C   0  0  0  0  0  0  0  0  0  0  0  0
   -4.6253    2.6796   -1.3957 C   0  0  0  0  0  0  0  0  0  0  0  0
   -3.6488    1.5781   -1.0753 C   0  0  0  0  0  0  0  0  0  0  0  0
   -2.3600    1.5918   -1.6141 C   0  0  0  0  0  0  0  0  0  0  0  0
   -1.4524    0.5753   -1.3018 C   0  0  0  0  0  0  0  0  0  0  0  0
   -1.8115   -0.4678   -0.4411 C   0  0  0  0  0  0  0  0  0  0  0  0
   -0.8305   -1.4374   -0.1657 N   0  0  0  0  0  0  0  0  0  0  0  0
   -0.9349   -2.5702    0.6291 C   0  0  0  0  0  0  0  0  0  0  0  0
   -1.9491   -2.9470    1.2052 O   0  0  0  0  0  0  0  0  0  0  0  0
    0.4305   -3.2796    0.7982 C   0  0  0  0  0  0  0  0  0  0  0  0
    1.2230   -3.1357   -0.4531 N   0  0  0  0  0  0  0  0  0  0  0  0
    2.8549   -2.7536   -0.3490 S   0  0  0  0  0  6  0  0  0  0  0  0
    3.3614   -3.2060    0.9252 O   0  0  0  0  0  0  0  0  0  0  0  0
    3.4411   -3.1617   -1.6046 O   0  0  0  0  0  0  0  0  0  0  0  0
    2.7685   -0.9795   -0.3377 C   0  0  0  0  0  0  0  0  0  0  0  0
    2.7030   -0.2891   -1.5597 C   0  0  0  0  0  0  0  0  0  0  0  0
    2.5554    1.1013   -1.5722 C   0  0  0  0  0  0  0  0  0  0  0  0
    2.4787    1.7725   -0.3626 C   0  0  0  0  0  0  0  0  0  0  0  0
    2.5775    1.0804    0.8464 C   0  0  0  0  0  0  0  0  0  0  0  0
    2.7295   -0.2982    0.8811 C   0  0  0  0  0  0  0  0  0  0  0  0
    2.4704    2.0055    2.0153 C   0  0  0  0  0  0  0  0  0  0  0  0
    2.3174    3.3711    1.3336 C   0  0  0  0  0  0  0  0  0  0  0  0
    2.2965    3.1457   -0.1214 N   0  0  0  0  0  0  0  0  0  0  0  0
    2.0941    4.1159   -1.0861 C   0  0  0  0  0  0  0  0  0  0  0  0
    1.9445    5.5251   -0.5659 C   0  0  0  0  0  0  0  0  0  0  0  0
    2.0188    3.9038   -2.2960 O   0  0  0  0  0  0  0  0  0  0  0  0
    0.3646   -4.7704    1.1999 C   0  0  0  0  0  0  0  0  0  0  0  0
   -0.5220   -5.6201    0.2850 C   0  0  0  0  0  0  0  0  0  0  0  0
   -0.0521   -4.9517    2.6627 C   0  0  0  0  0  0  0  0  0  0  0  0
   -3.0948   -0.4788    0.1017 C   0  0  0  0  0  0  0  0  0  0  0  0
   -4.0065    0.5368   -0.2125 C   0  0  0  0  0  0  0  0  0  0  0  0
   -5.2909    4.5831   -0.6289 H   0  0  0  0  0  0  0  0  0  0  0  0
   -3.5870    4.2404   -0.2957 H   0  0  0  0  0  0  0  0  0  0  0  0
   -4.8501    3.4212    0.6354 H   0  0  0  0  0  0  0  0  0  0  0  0
   -5.6384    2.2651   -1.4550 H   0  0  0  0  0  0  0  0  0  0  0  0
   -4.4070    3.0909   -2.3891 H   0  0  0  0  0  0  0  0  0  0  0  0
   -2.0496    2.3930   -2.2818 H   0  0  0  0  0  0  0  0  0  0  0  0
   -0.4600    0.6200   -1.7424 H   0  0  0  0  0  0  0  0  0  0  0  0
    0.0612   -1.3269   -0.6337 H   0  0  0  0  0  0  0  0  0  0  0  0
    0.9272   -2.7163    1.5992 H   0  0  0  0  0  0  0  0  0  0  0  0
    0.9968   -3.7475   -1.2387 H   0  0  0  0  0  0  0  0  0  0  0  0
    2.7541   -0.8266   -2.5043 H   0  0  0  0  0  0  0  0  0  0  0  0
    2.4992    1.6247   -2.5211 H   0  0  0  0  0  0  0  0  0  0  0  0
    2.7967   -0.8272    1.8272 H   0  0  0  0  0  0  0  0  0  0  0  0
    3.3700    1.9728    2.6374 H   0  0  0  0  0  0  0  0  0  0  0  0
    1.5920    1.7692    2.6244 H   0  0  0  0  0  0  0  0  0  0  0  0
    1.3901    3.8683    1.6383 H   0  0  0  0  0  0  0  0  0  0  0  0
    3.1561    4.0330    1.5764 H   0  0  0  0  0  0  0  0  0  0  0  0
    2.8156    5.8082    0.0287 H   0  0  0  0  0  0  0  0  0  0  0  0
    1.0317    5.6109    0.0274 H   0  0  0  0  0  0  0  0  0  0  0  0
    1.8737    6.2170   -1.4097 H   0  0  0  0  0  0  0  0  0  0  0  0
    1.3801   -5.1817    1.1197 H   0  0  0  0  0  0  0  0  0  0  0  0
   -0.2112   -5.5412   -0.7604 H   0  0  0  0  0  0  0  0  0  0  0  0
   -1.5757   -5.3341    0.3490 H   0  0  0  0  0  0  0  0  0  0  0  0
   -0.4543   -6.6768    0.5657 H   0  0  0  0  0  0  0  0  0  0  0  0
    0.0306   -6.0031    2.9571 H   0  0  0  0  0  0  0  0  0  0  0  0
    0.5973   -4.3719    3.3267 H   0  0  0  0  0  0  0  0  0  0  0  0
   -1.0854   -4.6418    2.8417 H   0  0  0  0  0  0  0  0  0  0  0  0
   -3.4216   -1.2582    0.7806 H   0  0  0  0  0  0  0  0  0  0  0  0
   -5.0002    0.5062    0.2278 H   0  0  0  0  0  0  0  0  0  0  0  0
  1  2  1  0
  2  3  1  0
  3  4  2  0
  4  5  1  0
  5  6  2  0
  6  7  1  0
  7  8  1  0
  8  9  2  0
  8 10  1  0
 10 11  1  0
 11 12  1  0
 12 13  2  0
 12 14  2  0
 12 15  1  0
 15 16  2  0
 16 17  1  0
 17 18  2  0
 18 19  1  0
 19 20  2  0
 19 21  1  0
 21 22  1  0
 22 23  1  0
 23 24  1  0
 24 25  1  0
 24 26  2  0
 10 27  1  0
 27 28  1  0
 27 29  1  0
  6 30  1  0
 30 31  2  0
 31  3  1  0
 20 15  1  0
 23 18  1  0
  1 32  1  0
  1 33  1  0
  1 34  1  0
  2 35  1  0
  2 36  1  0
  4 37  1  0
  5 38  1  0
  7 39  1  0
 10 40  1  0
 11 41  1  0
 16 42  1  0
 17 43  1  0
 20 44  1  0
 21 45  1  0
 21 46  1  0
 22 47  1  0
 22 48  1  0
 25 49  1  0
 25 50  1  0
 25 51  1  0
 27 52  1  0
 28 53  1  0
 28 54  1  0
 28 55  1  0
 29 56  1  0
 29 57  1  0
 29 58  1  0
 30 59  1  0
 31 60  1  0
M  END
$$$$
