
     RDKit          3D

 46 48  0  0  0  0  0  0  0  0999 V2000
   -1.9160   -1.9565    2.2023 C   0  0  0  0  0  0  0  0  0  0  0  0
   -1.9098   -1.7669    0.6968 C   0  0  0  0  0  0  0  0  0  0  0  0
   -2.5430   -0.4601    0.3440 N   0  0  0  0  0  4  0  0  0  0  0  0
   -1.7483    0.6389    0.1678 C   0  0  0  0  0  0  0  0  0  0  0  0
   -0.3027    0.5800    0.4209 C   0  0  0  0  0  0  0  0  0  0  0  0
    0.5981    0.6729   -0.5710 C   0  0  0  0  0  0  0  0  0  0  0  0
    2.0560    0.6457   -0.3684 C   0  0  0  0  0  0  0  0  0  0  0  0
    2.8641    1.3704   -1.2510 C   0  0  0  0  0  0  0  0  0  0  0  0
    4.2571    1.3506   -1.1285 C   0  0  0  0  0  0  0  0  0  0  0  0
    4.8667    0.5978   -0.1230 C   0  0  0  0  0  0  0  0  0  0  0  0
    6.2212    0.5173    0.0759 O   0  0  0  0  0  0  0  0  0  0  0  0
    7.0668    1.2313   -0.8150 C   0  0  0  0  0  0  0  0  0  0  0  0
    4.0650   -0.1402    0.7690 C   0  0  0  0  0  0  0  0  0  0  0  0
    4.7368   -0.8704    1.7177 O   0  0  0  0  0  0  0  0  0  0  0  0
    3.9919   -1.3880    2.8095 C   0  0  0  0  0  0  0  0  0  0  0  0
    2.6696   -0.1212    0.6329 C   0  0  0  0  0  0  0  0  0  0  0  0
   -2.2949    1.8596   -0.2290 C   0  0  0  0  0  0  0  0  0  0  0  0
   -3.6544    1.9729   -0.4482 C   0  0  0  0  0  0  0  0  0  0  0  0
   -4.4706    0.8658   -0.2555 C   0  0  0  0  0  0  0  0  0  0  0  0
   -5.8527    0.9824   -0.4648 C   0  0  0  0  0  0  0  0  0  0  0  0
   -6.6951   -0.1079   -0.2687 C   0  0  0  0  0  0  0  0  0  0  0  0
   -6.1657   -1.3232    0.1425 C   0  0  0  0  0  0  0  0  0  0  0  0
   -4.7887   -1.4549    0.3536 C   0  0  0  0  0  0  0  0  0  0  0  0
   -3.9053   -0.3741    0.1552 C   0  0  0  0  0  0  0  0  0  0  0  0
   -2.9328   -1.9534    2.6056 H   0  0  0  0  0  0  0  0  0  0  0  0
   -1.4504   -2.9116    2.4638 H   0  0  0  0  0  0  0  0  0  0  0  0
   -1.3616   -1.1593    2.7066 H   0  0  0  0  0  0  0  0  0  0  0  0
   -0.8908   -1.8007    0.3017 H   0  0  0  0  0  0  0  0  0  0  0  0
   -2.4373   -2.5708    0.1761 H   0  0  0  0  0  0  0  0  0  0  0  0
   -0.0037    0.4866    1.4613 H   0  0  0  0  0  0  0  0  0  0  0  0
    0.2805    0.8000   -1.6061 H   0  0  0  0  0  0  0  0  0  0  0  0
    2.4250    1.9676   -2.0481 H   0  0  0  0  0  0  0  0  0  0  0  0
    4.8384    1.9338   -1.8358 H   0  0  0  0  0  0  0  0  0  0  0  0
    8.1026    1.0452   -0.5148 H   0  0  0  0  0  0  0  0  0  0  0  0
    6.9489    0.8737   -1.8431 H   0  0  0  0  0  0  0  0  0  0  0  0
    6.8896    2.3097   -0.7476 H   0  0  0  0  0  0  0  0  0  0  0  0
    3.4193   -0.6014    3.3125 H   0  0  0  0  0  0  0  0  0  0  0  0
    4.7007   -1.7997    3.5344 H   0  0  0  0  0  0  0  0  0  0  0  0
    3.3385   -2.2036    2.4833 H   0  0  0  0  0  0  0  0  0  0  0  0
    2.0572   -0.7228    1.2933 H   0  0  0  0  0  0  0  0  0  0  0  0
   -1.6597    2.7349   -0.3628 H   0  0  0  0  0  0  0  0  0  0  0  0
   -4.0673    2.9326   -0.7589 H   0  0  0  0  0  0  0  0  0  0  0  0
   -6.2940    1.9276   -0.7822 H   0  0  0  0  0  0  0  0  0  0  0  0
   -7.7670   -0.0058   -0.4330 H   0  0  0  0  0  0  0  0  0  0  0  0
   -6.8287   -2.1729    0.3021 H   0  0  0  0  0  0  0  0  0  0  0  0
   -4.4537   -2.4320    0.6874 H   0  0  0  0  0  0  0  0  0  0  0  0
  1  2  1  0
  2  3  1  0
  3  4  2  0
  4  5  1  0
  5  6  2  3
  6  7  1  0
  7  8  2  0
  8  9  1  0
  9 10  2  0
 10 11  1  0
 11 12  1  0
 10 13  1  0
 13 14  1  0
 14 15  1  0
 13 16  2  0
  4 17  1  0
 17 18  2  0
 18 19  1  0
 19 20  2  0
 20 21  1  0
 21 22  2  0
 22 23  1  0
 23 24  2  0
 24  3  1  0
 16  7  1  0
 24 19  1  0
  1 25  1  0
  1 26  1  0
  1 27  1  0
  2 28  1  0
  2 29  1  0
  5 30  1  0
  6 31  1  0
  8 32  1  0
  9 33  1  0
 12 34  1  0
 12 35  1  0
 12 36  1  0
 15 37  1  0
 15 38  1  0
 15 39  1  0
 16 40  1  0
 17 41  1  0
 18 42  1  0
 20 43  1  0
 21 44  1  0
 22 45  1  0
 23 46  1  0
M  CHG  1   3   1
M  END
$$$$
