
     RDKit          3D

 33 35  0  0  0  0  0  0  0  0999 V2000
   -1.6236    2.6049    2.3191 C   0  0  0  0  0  0  0  0  0  0  0  0
   -2.8517    2.0904    1.8191 O   0  0  0  0  0  0  0  0  0  0  0  0
   -2.7505    1.2597    0.7087 C   0  0  0  0  0  0  0  0  0  0  0  0
   -3.9644    1.0808    0.0337 C   0  0  0  0  0  0  0  0  0  0  0  0
   -4.0463    0.2804   -1.1022 C   0  0  0  0  0  0  0  0  0  0  0  0
   -2.9169   -0.3784   -1.6032 C   0  0  0  0  0  0  0  0  0  0  0  0
   -2.9104   -1.1807   -2.7135 O   0  0  0  0  0  0  0  0  0  0  0  0
   -4.0394   -1.1052   -3.5750 C   0  0  0  0  0  0  0  0  0  0  0  0
   -1.7039   -0.2191   -0.8955 C   0  0  0  0  0  0  0  0  0  0  0  0
   -0.1565   -0.9124   -1.2380 S   0  0  0  0  0  0  0  0  0  0  0  0
    0.5029   -0.1462    0.1192 C   0  0  0  0  0  0  0  0  0  0  0  0
    1.8101   -0.2793    0.5008 N   0  0  0  0  0  0  0  0  0  0  0  0
    2.8064   -0.9985   -0.1196 C   0  0  0  0  0  0  0  0  0  0  0  0
    2.6760   -1.6293   -1.1638 O   0  0  0  0  0  0  0  0  0  0  0  0
    4.0992   -0.9575    0.5697 C   0  0  0  0  0  0  0  0  0  0  0  0
    5.2625   -1.6027    0.1782 C   0  0  0  0  0  0  0  0  0  0  0  0
    6.3473   -1.3795    1.0775 C   0  0  0  0  0  0  0  0  0  0  0  0
    5.9698   -0.5605    2.1092 C   0  0  0  0  0  0  0  0  0  0  0  0
    7.1466   -0.0257    3.5165 Br  0  0  0  0  0  0  0  0  0  0  0  0
    4.3552   -0.0628    2.0145 S   0  0  0  0  0  0  0  0  0  0  0  0
   -0.3174    0.5978    0.8167 N   0  0  0  0  0  0  0  0  0  0  0  0
   -1.5926    0.5785    0.2504 C   0  0  0  0  0  0  0  0  0  0  0  0
   -1.0894    1.8415    2.8914 H   0  0  0  0  0  0  0  0  0  0  0  0
   -0.9994    3.0249    1.5232 H   0  0  0  0  0  0  0  0  0  0  0  0
   -1.8649    3.4211    3.0072 H   0  0  0  0  0  0  0  0  0  0  0  0
   -4.8569    1.5830    0.4022 H   0  0  0  0  0  0  0  0  0  0  0  0
   -5.0171    0.1786   -1.5780 H   0  0  0  0  0  0  0  0  0  0  0  0
   -3.7906   -1.6333   -4.4996 H   0  0  0  0  0  0  0  0  0  0  0  0
   -4.9015   -1.6056   -3.1240 H   0  0  0  0  0  0  0  0  0  0  0  0
   -4.2784   -0.0703   -3.8396 H   0  0  0  0  0  0  0  0  0  0  0  0
    2.0359    0.2229    1.3475 H   0  0  0  0  0  0  0  0  0  0  0  0
    5.3204   -2.2189   -0.7130 H   0  0  0  0  0  0  0  0  0  0  0  0
    7.3394   -1.7988    0.9601 H   0  0  0  0  0  0  0  0  0  0  0  0
  1  2  1  0
  2  3  1  0
  3  4  2  0
  4  5  1  0
  5  6  2  0
  6  7  1  0
  7  8  1  0
  6  9  1  0
  9 10  1  0
 10 11  1  0
 11 12  1  0
 12 13  1  0
 13 14  2  0
 13 15  1  0
 15 16  2  0
 16 17  1  0
 17 18  2  0
 18 19  1  0
 18 20  1  0
 11 21  2  0
 21 22  1  0
 22  3  1  0
 22  9  2  0
 20 15  1  0
  1 23  1  0
  1 24  1  0
  1 25  1  0
  4 26  1  0
  5 27  1  0
  8 28  1  0
  8 29  1  0
  8 30  1  0
 12 31  1  0
 16 32  1  0
 17 33  1  0
M  END
$$$$
