
     RDKit          3D

 36 37  0  0  0  0  0  0  0  0999 V2000
   -2.5305    0.3962    2.3857 C   0  0  0  0  0  0  0  0  0  0  0  0
   -2.4296   -1.3252    1.8178 S   0  0  0  0  0  0  0  0  0  0  0  0
   -3.1956   -1.1398    0.2071 C   0  0  0  0  0  0  0  0  0  0  0  0
   -4.4736   -1.7088    0.0700 C   0  0  0  0  0  0  0  0  0  0  0  0
   -5.1881   -1.5963   -1.1245 C   0  0  0  0  0  0  0  0  0  0  0  0
   -4.6367   -0.9122   -2.2016 C   0  0  0  0  0  0  0  0  0  0  0  0
   -3.3646   -0.3526   -2.0874 C   0  0  0  0  0  0  0  0  0  0  0  0
   -2.6268   -0.4727   -0.8950 C   0  0  0  0  0  0  0  0  0  0  0  0
   -1.2648    0.1416   -0.9122 C   0  0  0  0  0  0  0  0  0  0  0  0
   -1.1216    1.1982   -1.5176 O   0  0  0  0  0  0  0  0  0  0  0  0
   -0.2813   -0.5774   -0.2636 N   0  0  0  0  0  0  0  0  0  0  0  0
    1.0843   -0.2547   -0.1300 C   0  0  0  0  0  0  0  0  0  0  0  0
    1.8709   -1.1234    0.6310 C   0  0  0  0  0  0  0  0  0  0  0  0
    3.2335   -0.8759    0.8144 C   0  0  0  0  0  0  0  0  0  0  0  0
    3.8412    0.2474    0.2391 C   0  0  0  0  0  0  0  0  0  0  0  0
    5.3102    0.4854    0.4551 C   0  0  0  0  0  0  0  0  0  0  0  0
    3.0580    1.1285   -0.5304 C   0  0  0  0  0  0  0  0  0  0  0  0
    3.6563    2.3503   -1.1740 C   0  0  0  0  0  0  0  0  0  0  0  0
    1.6854    0.8651   -0.7059 C   0  0  0  0  0  0  0  0  0  0  0  0
   -2.1527    0.4553    3.4099 H   0  0  0  0  0  0  0  0  0  0  0  0
   -3.5686    0.7396    2.3778 H   0  0  0  0  0  0  0  0  0  0  0  0
   -1.9262    1.0547    1.7572 H   0  0  0  0  0  0  0  0  0  0  0  0
   -4.9331   -2.2398    0.9024 H   0  0  0  0  0  0  0  0  0  0  0  0
   -6.1784   -2.0379   -1.2088 H   0  0  0  0  0  0  0  0  0  0  0  0
   -5.1921   -0.8148   -3.1314 H   0  0  0  0  0  0  0  0  0  0  0  0
   -2.9390    0.1768   -2.9393 H   0  0  0  0  0  0  0  0  0  0  0  0
   -0.5835   -1.4176    0.2182 H   0  0  0  0  0  0  0  0  0  0  0  0
    1.4367   -2.0050    1.0952 H   0  0  0  0  0  0  0  0  0  0  0  0
    3.8179   -1.5712    1.4130 H   0  0  0  0  0  0  0  0  0  0  0  0
    5.7575   -0.2982    1.0758 H   0  0  0  0  0  0  0  0  0  0  0  0
    5.4699    1.4405    0.9653 H   0  0  0  0  0  0  0  0  0  0  0  0
    5.8399    0.4889   -0.5027 H   0  0  0  0  0  0  0  0  0  0  0  0
    2.9063    2.9222   -1.7307 H   0  0  0  0  0  0  0  0  0  0  0  0
    4.0763    3.0141   -0.4117 H   0  0  0  0  0  0  0  0  0  0  0  0
    4.4409    2.0617   -1.8806 H   0  0  0  0  0  0  0  0  0  0  0  0
    1.1018    1.5568   -1.3060 H   0  0  0  0  0  0  0  0  0  0  0  0
  1  2  1  0
  2  3  1  0
  3  4  2  0
  4  5  1  0
  5  6  2  0
  6  7  1  0
  7  8  2  0
  8  9  1  0
  9 10  2  0
  9 11  1  0
 11 12  1  0
 12 13  2  0
 13 14  1  0
 14 15  2  0
 15 16  1  0
 15 17  1  0
 17 18  1  0
 17 19  2  0
  8  3  1  0
 19 12  1  0
  1 20  1  0
  1 21  1  0
  1 22  1  0
  4 23  1  0
  5 24  1  0
  6 25  1  0
  7 26  1  0
 11 27  1  0
 13 28  1  0
 14 29  1  0
 16 30  1  0
 16 31  1  0
 16 32  1  0
 18 33  1  0
 18 34  1  0
 18 35  1  0
 19 36  1  0
M  END
$$$$
