
     RDKit          3D

 60 62  0  0  0  0  0  0  0  0999 V2000
   -5.7225    0.3197   -0.0081 C   0  0  0  0  0  0  0  0  0  0  0  0
   -4.4291    1.0766   -0.0722 C   0  0  0  0  0  0  0  0  0  0  0  0
   -4.1494    1.8885   -1.1715 C   0  0  0  0  0  0  0  0  0  0  0  0
   -2.9308    2.5623   -1.2455 C   0  0  0  0  0  0  0  0  0  0  0  0
   -1.9757    2.4326   -0.2222 C   0  0  0  0  0  0  0  0  0  0  0  0
   -0.4458    3.3203   -0.4659 S   0  0  0  0  0  6  0  0  0  0  0  0
    0.4513    3.1080    0.6481 O   0  0  0  0  0  0  0  0  0  0  0  0
   -0.7986    4.6647   -0.8770 O   0  0  0  0  0  0  0  0  0  0  0  0
    0.2296    2.5893   -1.8326 N   0  0  0  0  0  0  0  0  0  0  0  0
    0.3094    1.1655   -1.9330 C   0  0  0  0  0  0  0  0  0  0  0  0
    1.0191    0.4703   -0.9483 C   0  0  0  0  0  0  0  0  0  0  0  0
    1.1360   -0.9202   -0.9914 C   0  0  0  0  0  0  0  0  0  0  0  0
    1.8942   -1.6956    0.0793 C   0  0  0  0  0  0  0  0  0  0  0  0
    3.0595   -0.9396    0.6812 C   0  0  0  0  0  0  0  0  0  0  0  0
    3.9093   -0.3596    0.0188 O   0  0  0  0  0  0  0  0  0  0  0  0
    3.0751   -1.0333    2.0417 O   0  0  0  0  0  0  0  0  0  0  0  0
    4.1006   -0.2775    2.7213 C   0  0  0  0  0  0  0  0  0  0  0  0
    5.3863   -1.0988    2.7811 C   0  0  0  0  0  0  0  0  0  0  0  0
    3.5702    0.0198    4.1171 C   0  0  0  0  0  0  0  0  0  0  0  0
    0.9584   -2.2730    1.1211 C   0  0  0  0  0  0  0  0  0  0  0  0
   -0.0830   -1.7066    1.4706 O   0  0  0  0  0  0  0  0  0  0  0  0
    1.3994   -3.6077    1.6882 C   0  0  0  0  0  0  0  0  0  0  0  0
    2.7548   -3.7634    1.6705 F   0  0  0  0  0  0  0  0  0  0  0  0
    0.8964   -4.6556    0.9781 F   0  0  0  0  0  0  0  0  0  0  0  0
    1.0145   -3.7930    2.9793 F   0  0  0  0  0  0  0  0  0  0  0  0
    0.4983   -1.6040   -2.0379 C   0  0  0  0  0  0  0  0  0  0  0  0
    0.6475   -2.9712   -2.0357 O   0  0  0  0  0  0  0  0  0  0  0  0
   -0.2469   -0.9405   -3.0453 C   0  0  0  0  0  0  0  0  0  0  0  0
   -0.9305   -1.6308   -4.0815 C   0  0  0  0  0  0  0  0  0  0  0  0
   -1.6325   -0.9539   -5.0800 C   0  0  0  0  0  0  0  0  0  0  0  0
   -1.6849    0.4295   -5.0589 C   0  0  0  0  0  0  0  0  0  0  0  0
   -1.0498    1.1306   -4.0314 C   0  0  0  0  0  0  0  0  0  0  0  0
   -0.3240    0.4759   -3.0049 C   0  0  0  0  0  0  0  0  0  0  0  0
   -2.2515    1.6480    0.9078 C   0  0  0  0  0  0  0  0  0  0  0  0
   -1.3172    1.4811    2.0632 C   0  0  0  0  0  0  0  0  0  0  0  0
   -3.4854    0.9702    0.9582 C   0  0  0  0  0  0  0  0  0  0  0  0
   -5.7688   -0.4097   -0.8237 H   0  0  0  0  0  0  0  0  0  0  0  0
   -6.5756    1.0031   -0.0931 H   0  0  0  0  0  0  0  0  0  0  0  0
   -5.8244   -0.2225    0.9351 H   0  0  0  0  0  0  0  0  0  0  0  0
   -4.8664    1.9903   -1.9833 H   0  0  0  0  0  0  0  0  0  0  0  0
   -2.7280    3.1913   -2.1090 H   0  0  0  0  0  0  0  0  0  0  0  0
    0.1083    3.1503   -2.6734 H   0  0  0  0  0  0  0  0  0  0  0  0
    1.5003    1.0313   -0.1496 H   0  0  0  0  0  0  0  0  0  0  0  0
    2.3747   -2.5510   -0.4174 H   0  0  0  0  0  0  0  0  0  0  0  0
    4.2796    0.6802    2.2100 H   0  0  0  0  0  0  0  0  0  0  0  0
    5.2121   -2.0838    3.2378 H   0  0  0  0  0  0  0  0  0  0  0  0
    5.7818   -1.3021    1.7813 H   0  0  0  0  0  0  0  0  0  0  0  0
    6.1593   -0.5762    3.3505 H   0  0  0  0  0  0  0  0  0  0  0  0
    3.3030   -0.9166    4.6360 H   0  0  0  0  0  0  0  0  0  0  0  0
    2.6555    0.6218    4.0533 H   0  0  0  0  0  0  0  0  0  0  0  0
    4.3091    0.5693    4.7188 H   0  0  0  0  0  0  0  0  0  0  0  0
    0.6253   -3.2752   -2.9605 H   0  0  0  0  0  0  0  0  0  0  0  0
   -0.9423   -2.7208   -4.1210 H   0  0  0  0  0  0  0  0  0  0  0  0
   -2.1354   -1.5122   -5.8702 H   0  0  0  0  0  0  0  0  0  0  0  0
   -2.2294    0.9704   -5.8283 H   0  0  0  0  0  0  0  0  0  0  0  0
   -1.1390    2.2102   -4.0520 H   0  0  0  0  0  0  0  0  0  0  0  0
   -0.4113    0.9412    1.7711 H   0  0  0  0  0  0  0  0  0  0  0  0
   -1.7823    0.8992    2.8653 H   0  0  0  0  0  0  0  0  0  0  0  0
   -1.0575    2.4513    2.4905 H   0  0  0  0  0  0  0  0  0  0  0  0
   -3.7012    0.3314    1.8129 H   0  0  0  0  0  0  0  0  0  0  0  0
  1  2  1  0
  2  3  2  0
  3  4  1  0
  4  5  2  0
  5  6  1  0
  6  7  2  0
  6  8  2  0
  6  9  1  0
  9 10  1  0
 10 11  2  0
 11 12  1  0
 12 13  1  0
 13 14  1  0
 14 15  2  0
 14 16  1  0
 16 17  1  0
 17 18  1  0
 17 19  1  0
 13 20  1  0
 20 21  2  0
 20 22  1  0
 22 23  1  0
 22 24  1  0
 22 25  1  0
 12 26  2  0
 26 27  1  0
 26 28  1  0
 28 29  2  0
 29 30  1  0
 30 31  2  0
 31 32  1  0
 32 33  2  0
  5 34  1  0
 34 35  1  0
 34 36  2  0
 36  2  1  0
 33 10  1  0
 33 28  1  0
  1 37  1  0
  1 38  1  0
  1 39  1  0
  3 40  1  0
  4 41  1  0
  9 42  1  0
 11 43  1  0
 13 44  1  0
 17 45  1  0
 18 46  1  0
 18 47  1  0
 18 48  1  0
 19 49  1  0
 19 50  1  0
 19 51  1  0
 27 52  1  0
 29 53  1  0
 30 54  1  0
 31 55  1  0
 32 56  1  0
 35 57  1  0
 35 58  1  0
 35 59  1  0
 36 60  1  0
M  END
$$$$
