
     RDKit          3D

 56 58  0  0  0  0  0  0  0  0999 V2000
    2.1729   -2.0177   -4.0553 C   0  0  0  0  0  0  0  0  0  0  0  0
    2.6097   -0.9143   -3.2748 O   0  0  0  0  0  0  0  0  0  0  0  0
    1.7683   -0.4575   -2.2896 C   0  0  0  0  0  0  0  0  0  0  0  0
    0.4615   -0.9209   -2.0879 C   0  0  0  0  0  0  0  0  0  0  0  0
   -0.3374   -0.3964   -1.0630 C   0  0  0  0  0  0  0  0  0  0  0  0
   -1.6907   -0.9351   -0.8739 C   0  0  0  0  0  0  0  0  0  0  0  0
   -2.7483   -0.1929   -0.5141 C   0  0  0  0  0  0  0  0  0  0  0  0
   -4.0786   -0.8402   -0.3608 C   0  0  0  0  0  0  0  0  0  0  0  0
   -4.2736   -2.0334   -0.5562 O   0  0  0  0  0  0  0  0  0  0  0  0
   -5.2003    0.0398    0.0201 C   0  0  0  0  0  0  0  0  0  0  0  0
   -5.2161    0.6890    1.2720 C   0  0  0  0  0  0  0  0  0  0  0  0
   -4.1254    0.5000    2.0804 O   0  0  0  0  0  0  0  0  0  0  0  0
   -4.2624    0.8431    3.4550 C   0  0  0  0  0  0  0  0  0  0  0  0
   -6.3156    1.4938    1.6167 C   0  0  0  0  0  0  0  0  0  0  0  0
   -7.3953    1.6395    0.7411 C   0  0  0  0  0  0  0  0  0  0  0  0
   -7.3592    0.9818   -0.4787 C   0  0  0  0  0  0  0  0  0  0  0  0
   -8.4185    1.1144   -1.3733 O   0  0  0  0  0  0  0  0  0  0  0  0
   -8.1018    0.3710   -2.5062 C   0  0  0  0  0  0  0  0  0  0  0  0
   -8.8472    0.3008   -3.4738 O   0  0  0  0  0  0  0  0  0  0  0  0
   -6.5436   -0.4551   -2.4642 S   0  0  0  0  0  0  0  0  0  0  0  0
   -6.2788    0.1876   -0.8486 C   0  0  0  0  0  0  0  0  0  0  0  0
    0.1980    0.5845   -0.2235 C   0  0  0  0  0  0  0  0  0  0  0  0
    1.4997    1.0571   -0.4186 C   0  0  0  0  0  0  0  0  0  0  0  0
    2.2924    0.5424   -1.4467 C   0  0  0  0  0  0  0  0  0  0  0  0
    3.5740    0.9445   -1.7209 O   0  0  0  0  0  0  0  0  0  0  0  0
    4.2934    1.7176   -0.7647 C   0  0  0  0  0  0  0  0  0  0  0  0
    4.8099    0.8734    0.4034 C   0  0  0  0  0  0  0  0  0  0  0  0
    5.7086   -0.2756   -0.0802 C   0  0  0  0  0  0  0  0  0  0  0  0
    6.2878   -1.1366    0.9629 N   0  0  0  0  0  0  0  0  0  0  0  0
    5.2773   -1.8940    1.6949 C   0  0  0  0  0  0  0  0  0  0  0  0
    7.1767   -0.4219    1.8716 C   0  0  0  0  0  0  0  0  0  0  0  0
    1.9667   -2.8907   -3.4274 H   0  0  0  0  0  0  0  0  0  0  0  0
    1.3023   -1.7507   -4.6628 H   0  0  0  0  0  0  0  0  0  0  0  0
    2.9847   -2.2855   -4.7387 H   0  0  0  0  0  0  0  0  0  0  0  0
    0.0385   -1.6874   -2.7293 H   0  0  0  0  0  0  0  0  0  0  0  0
   -1.8114   -2.0006   -1.0671 H   0  0  0  0  0  0  0  0  0  0  0  0
   -2.6800    0.8735   -0.3378 H   0  0  0  0  0  0  0  0  0  0  0  0
   -3.3718    0.4816    3.9781 H   0  0  0  0  0  0  0  0  0  0  0  0
   -4.3050    1.9295    3.5820 H   0  0  0  0  0  0  0  0  0  0  0  0
   -5.1351    0.3571    3.9036 H   0  0  0  0  0  0  0  0  0  0  0  0
   -6.3583    2.0248    2.5636 H   0  0  0  0  0  0  0  0  0  0  0  0
   -8.2463    2.2594    1.0109 H   0  0  0  0  0  0  0  0  0  0  0  0
   -0.3852    0.9883    0.6005 H   0  0  0  0  0  0  0  0  0  0  0  0
    1.8608    1.8264    0.2538 H   0  0  0  0  0  0  0  0  0  0  0  0
    3.7138    2.5811   -0.4208 H   0  0  0  0  0  0  0  0  0  0  0  0
    5.1540    2.1409   -1.2969 H   0  0  0  0  0  0  0  0  0  0  0  0
    5.3623    1.5332    1.0812 H   0  0  0  0  0  0  0  0  0  0  0  0
    3.9623    0.4647    0.9624 H   0  0  0  0  0  0  0  0  0  0  0  0
    5.1491   -0.9135   -0.7762 H   0  0  0  0  0  0  0  0  0  0  0  0
    6.5315    0.1420   -0.6749 H   0  0  0  0  0  0  0  0  0  0  0  0
    4.6324   -2.4503    1.0057 H   0  0  0  0  0  0  0  0  0  0  0  0
    5.7559   -2.6374    2.3425 H   0  0  0  0  0  0  0  0  0  0  0  0
    4.6460   -1.2573    2.3235 H   0  0  0  0  0  0  0  0  0  0  0  0
    7.9469    0.1225    1.3134 H   0  0  0  0  0  0  0  0  0  0  0  0
    7.7044   -1.1298    2.5215 H   0  0  0  0  0  0  0  0  0  0  0  0
    6.6442    0.2892    2.5123 H   0  0  0  0  0  0  0  0  0  0  0  0
  1  2  1  0
  2  3  1  0
  3  4  2  0
  4  5  1  0
  5  6  1  0
  6  7  2  0
  7  8  1  0
  8  9  2  0
  8 10  1  0
 10 11  2  0
 11 12  1  0
 12 13  1  0
 11 14  1  0
 14 15  2  0
 15 16  1  0
 16 17  1  0
 17 18  1  0
 18 19  2  0
 18 20  1  0
 20 21  1  0
  5 22  2  0
 22 23  1  0
 23 24  2  0
 24 25  1  0
 25 26  1  0
 26 27  1  0
 27 28  1  0
 28 29  1  0
 29 30  1  0
 29 31  1  0
 24  3  1  0
 21 10  1  0
 21 16  2  0
  1 32  1  0
  1 33  1  0
  1 34  1  0
  4 35  1  0
  6 36  1  0
  7 37  1  0
 13 38  1  0
 13 39  1  0
 13 40  1  0
 14 41  1  0
 15 42  1  0
 22 43  1  0
 23 44  1  0
 26 45  1  0
 26 46  1  0
 27 47  1  0
 27 48  1  0
 28 49  1  0
 28 50  1  0
 30 51  1  0
 30 52  1  0
 30 53  1  0
 31 54  1  0
 31 55  1  0
 31 56  1  0
M  END
$$$$
