
     RDKit          3D

 62 67  0  0  0  0  0  0  0  0999 V2000
   -2.9163   -1.2689    4.3360 C   0  0  0  0  0  0  0  0  0  0  0  0
   -3.0671   -0.9867    2.9518 O   0  0  0  0  0  0  0  0  0  0  0  0
   -2.9619   -2.0395    2.0771 C   0  0  0  0  0  0  0  0  0  0  0  0
   -2.5137   -3.3174    2.4323 C   0  0  0  0  0  0  0  0  0  0  0  0
   -2.4139   -4.3276    1.4710 C   0  0  0  0  0  0  0  0  0  0  0  0
   -2.7554   -4.0718    0.1463 C   0  0  0  0  0  0  0  0  0  0  0  0
   -3.2001   -2.8032   -0.2210 C   0  0  0  0  0  0  0  0  0  0  0  0
   -3.3104   -1.7804    0.7353 C   0  0  0  0  0  0  0  0  0  0  0  0
   -3.7774   -0.4574    0.2991 C   0  0  0  0  0  0  0  0  0  0  0  0
   -5.4301   -0.0755    0.5012 S   0  0  0  0  0  0  0  0  0  0  0  0
   -5.2489    1.4846   -0.1995 C   0  0  0  0  0  0  0  0  0  0  0  0
   -6.2697    2.4447   -0.3765 C   0  0  0  0  0  0  0  0  0  0  0  0
   -5.9010    3.6376   -0.9629 C   0  0  0  0  0  0  0  0  0  0  0  0
   -4.6161    3.8917   -1.3572 C   0  0  0  0  0  0  0  0  0  0  0  0
   -3.6025    2.9678   -1.1940 C   0  0  0  0  0  0  0  0  0  0  0  0
   -3.9220    1.7163   -0.5971 C   0  0  0  0  0  0  0  0  0  0  0  0
   -3.0802    0.5762   -0.3032 C   0  0  0  0  0  0  0  0  0  0  0  0
   -1.6549    0.4687   -0.5928 C   0  0  0  0  0  0  0  0  0  0  0  0
   -1.2166    0.3413   -1.9132 C   0  0  0  0  0  0  0  0  0  0  0  0
    0.1496    0.2427   -2.1875 C   0  0  0  0  0  0  0  0  0  0  0  0
    1.0891    0.2717   -1.1532 C   0  0  0  0  0  0  0  0  0  0  0  0
    2.3898    0.1631   -1.5620 O   0  0  0  0  0  0  0  0  0  0  0  0
    3.3925    0.1509   -0.5412 C   0  0  0  0  0  0  0  0  0  0  0  0
    4.7632    0.0097   -1.2246 C   0  0  0  0  0  0  0  0  0  0  0  0
    5.9070    0.0476   -0.2963 N   0  0  0  0  0  0  0  0  0  0  0  0
    7.1959    0.0892   -1.0242 C   0  0  0  0  0  0  0  0  0  0  0  0
    7.8878   -1.2793   -1.1245 C   0  0  0  0  0  0  0  0  0  0  0  0
    8.1801   -1.8594    0.1542 O   0  0  0  0  0  0  0  0  0  0  0  0
    7.2882   -1.4201    1.1876 C   0  0  0  0  0  0  0  0  0  0  0  0
    5.8862   -1.0877    0.6540 C   0  0  0  0  0  0  0  0  0  0  0  0
    0.6509    0.4056    0.1648 C   0  0  0  0  0  0  0  0  0  0  0  0
   -0.7167    0.5054    0.4438 C   0  0  0  0  0  0  0  0  0  0  0  0
   -4.4745    5.1273   -1.9091 O   0  0  0  0  0  0  0  0  0  0  0  0
   -5.8249    5.6236   -1.8125 C   0  0  0  0  0  0  0  0  0  0  0  0
   -6.7383    4.6808   -1.2152 O   0  0  0  0  0  0  0  0  0  0  0  0
   -3.1308   -0.3496    4.8891 H   0  0  0  0  0  0  0  0  0  0  0  0
   -3.6295   -2.0307    4.6680 H   0  0  0  0  0  0  0  0  0  0  0  0
   -1.8869   -1.5619    4.5660 H   0  0  0  0  0  0  0  0  0  0  0  0
   -2.2248   -3.5593    3.4496 H   0  0  0  0  0  0  0  0  0  0  0  0
   -2.0634   -5.3159    1.7584 H   0  0  0  0  0  0  0  0  0  0  0  0
   -2.6737   -4.8568   -0.6010 H   0  0  0  0  0  0  0  0  0  0  0  0
   -3.4619   -2.6097   -1.2590 H   0  0  0  0  0  0  0  0  0  0  0  0
   -7.2902    2.2543   -0.0659 H   0  0  0  0  0  0  0  0  0  0  0  0
   -2.5903    3.1972   -1.5108 H   0  0  0  0  0  0  0  0  0  0  0  0
   -1.9302    0.3135   -2.7328 H   0  0  0  0  0  0  0  0  0  0  0  0
    0.4845    0.1410   -3.2168 H   0  0  0  0  0  0  0  0  0  0  0  0
    3.3647    1.0914    0.0225 H   0  0  0  0  0  0  0  0  0  0  0  0
    3.2192   -0.6975    0.1308 H   0  0  0  0  0  0  0  0  0  0  0  0
    4.8499    0.8393   -1.9393 H   0  0  0  0  0  0  0  0  0  0  0  0
    4.7774   -0.9054   -1.8319 H   0  0  0  0  0  0  0  0  0  0  0  0
    7.8537    0.7666   -0.4648 H   0  0  0  0  0  0  0  0  0  0  0  0
    7.0849    0.5292   -2.0222 H   0  0  0  0  0  0  0  0  0  0  0  0
    7.2672   -1.9873   -1.6857 H   0  0  0  0  0  0  0  0  0  0  0  0
    8.8363   -1.1820   -1.6626 H   0  0  0  0  0  0  0  0  0  0  0  0
    7.7359   -0.5514    1.6847 H   0  0  0  0  0  0  0  0  0  0  0  0
    7.2275   -2.2227    1.9297 H   0  0  0  0  0  0  0  0  0  0  0  0
    5.4898   -1.9873    0.1650 H   0  0  0  0  0  0  0  0  0  0  0  0
    5.2293   -0.8401    1.4947 H   0  0  0  0  0  0  0  0  0  0  0  0
    1.3419    0.4375    1.0001 H   0  0  0  0  0  0  0  0  0  0  0  0
   -1.0457    0.6098    1.4759 H   0  0  0  0  0  0  0  0  0  0  0  0
   -6.1819    5.8681   -2.8195 H   0  0  0  0  0  0  0  0  0  0  0  0
   -5.8204    6.5386   -1.2090 H   0  0  0  0  0  0  0  0  0  0  0  0
  1  2  1  0
  2  3  1  0
  3  4  2  0
  4  5  1  0
  5  6  2  0
  6  7  1  0
  7  8  2  0
  8  9  1  0
  9 10  1  0
 10 11  1  0
 11 12  2  0
 12 13  1  0
 13 14  2  0
 14 15  1  0
 15 16  2  0
 16 17  1  0
 17 18  1  0
 18 19  2  0
 19 20  1  0
 20 21  2  0
 21 22  1  0
 22 23  1  0
 23 24  1  0
 24 25  1  0
 25 26  1  0
 26 27  1  0
 27 28  1  0
 28 29  1  0
 29 30  1  0
 21 31  1  0
 31 32  2  0
 14 33  1  0
 33 34  1  0
 34 35  1  0
  8  3  1  0
 17  9  2  0
 32 18  1  0
 16 11  1  0
 30 25  1  0
 35 13  1  0
  1 36  1  0
  1 37  1  0
  1 38  1  0
  4 39  1  0
  5 40  1  0
  6 41  1  0
  7 42  1  0
 12 43  1  0
 15 44  1  0
 19 45  1  0
 20 46  1  0
 23 47  1  0
 23 48  1  0
 24 49  1  0
 24 50  1  0
 26 51  1  0
 26 52  1  0
 27 53  1  0
 27 54  1  0
 29 55  1  0
 29 56  1  0
 30 57  1  0
 30 58  1  0
 31 59  1  0
 32 60  1  0
 34 61  1  0
 34 62  1  0
M  END
$$$$
