
     RDKit          3D

 33 34  0  0  0  0  0  0  0  0999 V2000
   -2.6189    0.2337    2.1843 C   0  0  0  0  0  0  0  0  0  0  0  0
   -1.4238    1.0423    1.6976 C   0  0  0  0  0  0  0  0  0  0  0  0
   -1.2740    0.9234    0.2362 N   0  0  0  0  0  0  0  0  0  0  0  0
   -2.1380    1.7922   -0.5725 C   0  0  0  0  0  0  0  0  0  0  0  0
   -2.5711    1.1010   -1.8579 C   0  0  0  0  0  0  0  0  0  0  0  0
    0.0210    0.5540   -0.2031 C   0  0  0  0  0  0  0  0  0  0  0  0
    0.7331    1.3993   -1.0791 C   0  0  0  0  0  0  0  0  0  0  0  0
    2.0018    1.0701   -1.5331 C   0  0  0  0  0  0  0  0  0  0  0  0
    2.5706   -0.1288   -1.1120 C   0  0  0  0  0  0  0  0  0  0  0  0
    3.8952   -0.4293   -1.6224 N   0  0  0  0  0  4  0  0  0  0  0  0
    4.0159   -1.4296   -2.3417 O   0  0  0  0  0  0  0  0  0  0  0  0
    4.8047    0.3534   -1.3166 O   0  0  0  0  0  1  0  0  0  0  0  0
    1.9156   -1.0212   -0.2319 C   0  0  0  0  0  0  0  0  0  0  0  0
    2.4750   -2.2411    0.2291 C   0  0  0  0  0  0  0  0  0  0  0  0
    1.7685   -3.0743    1.0825 C   0  0  0  0  0  0  0  0  0  0  0  0
    0.5141   -2.6692    1.4635 C   0  0  0  0  0  0  0  0  0  0  0  0
   -0.0472   -1.5124    1.0590 N   0  0  0  0  0  0  0  0  0  0  0  0
    0.6201   -0.6749    0.2267 C   0  0  0  0  0  0  0  0  0  0  0  0
   -3.5546    0.5998    1.7504 H   0  0  0  0  0  0  0  0  0  0  0  0
   -2.5236   -0.8232    1.9184 H   0  0  0  0  0  0  0  0  0  0  0  0
   -2.7042    0.3055    3.2732 H   0  0  0  0  0  0  0  0  0  0  0  0
   -0.5282    0.7267    2.2461 H   0  0  0  0  0  0  0  0  0  0  0  0
   -1.5690    2.0977    1.9616 H   0  0  0  0  0  0  0  0  0  0  0  0
   -1.6664    2.7588   -0.7787 H   0  0  0  0  0  0  0  0  0  0  0  0
   -3.0505    2.0287   -0.0115 H   0  0  0  0  0  0  0  0  0  0  0  0
   -3.0621    0.1463   -1.6408 H   0  0  0  0  0  0  0  0  0  0  0  0
   -3.2793    1.7316   -2.4046 H   0  0  0  0  0  0  0  0  0  0  0  0
   -1.7241    0.8988   -2.5201 H   0  0  0  0  0  0  0  0  0  0  0  0
    0.3135    2.3453   -1.4067 H   0  0  0  0  0  0  0  0  0  0  0  0
    2.5313    1.7443   -2.2025 H   0  0  0  0  0  0  0  0  0  0  0  0
    3.4683   -2.5629   -0.0787 H   0  0  0  0  0  0  0  0  0  0  0  0
    2.1854   -4.0117    1.4316 H   0  0  0  0  0  0  0  0  0  0  0  0
   -0.0993   -3.2742    2.1245 H   0  0  0  0  0  0  0  0  0  0  0  0
  1  2  1  0
  2  3  1  0
  3  4  1  0
  4  5  1  0
  3  6  1  0
  6  7  2  0
  7  8  1  0
  8  9  2  0
  9 10  1  0
 10 11  2  0
 10 12  1  0
  9 13  1  0
 13 14  2  0
 14 15  1  0
 15 16  2  0
 16 17  1  0
 17 18  2  0
 18  6  1  0
 18 13  1  0
  1 19  1  0
  1 20  1  0
  1 21  1  0
  2 22  1  0
  2 23  1  0
  4 24  1  0
  4 25  1  0
  5 26  1  0
  5 27  1  0
  5 28  1  0
  7 29  1  0
  8 30  1  0
 14 31  1  0
 15 32  1  0
 16 33  1  0
M  CHG  2  10   1  12  -1
M  END
$$$$
