
     RDKit          3D

 38 40  0  0  0  0  0  0  0  0999 V2000
   -0.0256    2.0131    2.7426 S   0  0  0  0  0  0  0  0  0  0  0  0
    0.1066    1.0192    1.3910 C   0  0  0  0  0  0  0  0  0  0  0  0
    1.3184    0.7307    0.7959 N   0  0  0  0  0  0  0  0  0  0  0  0
    2.6176    1.2406    1.2097 C   0  0  0  0  0  0  0  0  0  0  0  0
    3.7120    0.6107    0.3883 C   0  0  0  0  0  0  0  0  0  0  0  0
    4.2836    1.2990   -0.6908 C   0  0  0  0  0  0  0  0  0  0  0  0
    5.2790    0.6990   -1.4640 C   0  0  0  0  0  0  0  0  0  0  0  0
    5.7069   -0.5948   -1.1708 C   0  0  0  0  0  0  0  0  0  0  0  0
    5.1387   -1.2919   -0.1061 C   0  0  0  0  0  0  0  0  0  0  0  0
    4.1436   -0.6940    0.6681 C   0  0  0  0  0  0  0  0  0  0  0  0
   -0.9852    0.3860    0.7726 N   0  0  0  0  0  0  0  0  0  0  0  0
   -0.8222   -0.7181   -0.1899 C   0  0  0  0  0  0  0  0  0  0  0  0
   -1.9753   -1.7205   -0.1812 C   0  0  0  0  0  0  0  0  0  0  0  0
   -3.2705   -1.0019   -0.4212 C   0  0  0  0  0  0  0  0  0  0  0  0
   -4.3020   -1.5766   -1.1713 C   0  0  0  0  0  0  0  0  0  0  0  0
   -5.4961   -0.8827   -1.3617 C   0  0  0  0  0  0  0  0  0  0  0  0
   -5.6687    0.3784   -0.7943 C   0  0  0  0  0  0  0  0  0  0  0  0
   -4.6482    0.9473   -0.0313 C   0  0  0  0  0  0  0  0  0  0  0  0
   -3.4386    0.2650    0.1567 C   0  0  0  0  0  0  0  0  0  0  0  0
   -2.3625    0.8482    1.0424 C   0  0  0  0  0  0  0  0  0  0  0  0
    1.2683    0.4998   -0.1850 H   0  0  0  0  0  0  0  0  0  0  0  0
    2.7755    1.0264    2.2728 H   0  0  0  0  0  0  0  0  0  0  0  0
    2.6188    2.3299    1.0862 H   0  0  0  0  0  0  0  0  0  0  0  0
    3.9582    2.3080   -0.9349 H   0  0  0  0  0  0  0  0  0  0  0  0
    5.7214    1.2413   -2.2958 H   0  0  0  0  0  0  0  0  0  0  0  0
    6.4829   -1.0603   -1.7727 H   0  0  0  0  0  0  0  0  0  0  0  0
    5.4701   -2.3018    0.1213 H   0  0  0  0  0  0  0  0  0  0  0  0
    3.7014   -1.2495    1.4930 H   0  0  0  0  0  0  0  0  0  0  0  0
    0.1052   -1.2621    0.0196 H   0  0  0  0  0  0  0  0  0  0  0  0
   -0.7237   -0.2580   -1.1814 H   0  0  0  0  0  0  0  0  0  0  0  0
   -1.8013   -2.4745   -0.9573 H   0  0  0  0  0  0  0  0  0  0  0  0
   -2.0295   -2.2352    0.7855 H   0  0  0  0  0  0  0  0  0  0  0  0
   -4.1816   -2.5635   -1.6113 H   0  0  0  0  0  0  0  0  0  0  0  0
   -6.2954   -1.3278   -1.9485 H   0  0  0  0  0  0  0  0  0  0  0  0
   -6.6030    0.9152   -0.9376 H   0  0  0  0  0  0  0  0  0  0  0  0
   -4.8045    1.9238    0.4220 H   0  0  0  0  0  0  0  0  0  0  0  0
   -2.3712    1.9402    0.9415 H   0  0  0  0  0  0  0  0  0  0  0  0
   -2.6030    0.5911    2.0812 H   0  0  0  0  0  0  0  0  0  0  0  0
  1  2  2  0
  2  3  1  0
  3  4  1  0
  4  5  1  0
  5  6  2  0
  6  7  1  0
  7  8  2  0
  8  9  1  0
  9 10  2  0
  2 11  1  0
 11 12  1  0
 12 13  1  0
 13 14  1  0
 14 15  2  0
 15 16  1  0
 16 17  2  0
 17 18  1  0
 18 19  2  0
 19 20  1  0
 10  5  1  0
 20 11  1  0
 19 14  1  0
  3 21  1  0
  4 22  1  0
  4 23  1  0
  6 24  1  0
  7 25  1  0
  8 26  1  0
  9 27  1  0
 10 28  1  0
 12 29  1  0
 12 30  1  0
 13 31  1  0
 13 32  1  0
 15 33  1  0
 16 34  1  0
 17 35  1  0
 18 36  1  0
 20 37  1  0
 20 38  1  0
M  END
$$$$
