
     RDKit          3D

 43 45  0  0  0  0  0  0  0  0999 V2000
   -1.6342   -2.0781    3.3464 C   0  0  0  0  0  0  0  0  0  0  0  0
   -1.5396   -1.3563    2.0372 C   0  0  0  0  0  0  0  0  0  0  0  0
   -0.3381   -1.2687    1.3690 C   0  0  0  0  0  0  0  0  0  0  0  0
   -0.3339   -0.5916    0.1622 C   0  0  0  0  0  0  0  0  0  0  0  0
    0.8462   -0.4926   -0.6049 N   0  0  0  0  0  0  0  0  0  0  0  0
    2.0176   -0.3107    0.0680 N   0  0  0  0  0  0  0  0  0  0  0  0
    3.0676   -0.3575   -0.6918 C   0  0  0  0  0  0  0  0  0  0  0  0
    4.4259   -0.1367   -0.1455 C   0  0  0  0  0  0  0  0  0  0  0  0
    4.5548    0.4443    1.1229 C   0  0  0  0  0  0  0  0  0  0  0  0
    5.8208    0.7261    1.6481 C   0  0  0  0  0  0  0  0  0  0  0  0
    6.9742    0.4287    0.9168 C   0  0  0  0  0  0  0  0  0  0  0  0
    6.8677   -0.1604   -0.3429 C   0  0  0  0  0  0  0  0  0  0  0  0
    5.5937   -0.4397   -0.8604 C   0  0  0  0  0  0  0  0  0  0  0  0
    5.5304   -1.0635   -2.1667 N   0  0  0  0  0  4  0  0  0  0  0  0
    4.9305   -2.1433   -2.2490 O   0  0  0  0  0  0  0  0  0  0  0  0
    6.0912   -0.4719   -3.1008 O   0  0  0  0  0  1  0  0  0  0  0  0
   -1.4458   -0.0447   -0.3602 N   0  0  0  0  0  0  0  0  0  0  0  0
   -2.5861   -0.1614    0.3588 C   0  0  0  0  0  0  0  0  0  0  0  0
   -3.7958    0.4384   -0.1646 N   0  0  0  0  0  0  0  0  0  0  0  0
   -4.9699    0.3720    0.5379 N   0  0  0  0  0  0  0  0  0  0  0  0
   -5.8660    1.0249   -0.2033 C   0  0  0  0  0  0  0  0  0  0  0  0
   -7.2655    1.1557    0.2703 C   0  0  0  0  0  0  0  0  0  0  0  0
   -5.2999    1.5245   -1.3895 C   0  0  0  0  0  0  0  0  0  0  0  0
   -3.9766    1.1363   -1.3622 C   0  0  0  0  0  0  0  0  0  0  0  0
   -2.9086    1.3884   -2.3651 C   0  0  0  0  0  0  0  0  0  0  0  0
   -2.6654   -0.8077    1.5486 N   0  0  0  0  0  0  0  0  0  0  0  0
   -1.0167   -1.5775    4.0981 H   0  0  0  0  0  0  0  0  0  0  0  0
   -2.6670   -2.0967    3.7095 H   0  0  0  0  0  0  0  0  0  0  0  0
   -1.2962   -3.1132    3.2338 H   0  0  0  0  0  0  0  0  0  0  0  0
    0.5661   -1.7176    1.7606 H   0  0  0  0  0  0  0  0  0  0  0  0
    0.6485    0.1142   -1.4030 H   0  0  0  0  0  0  0  0  0  0  0  0
    2.9673   -0.5625   -1.7722 H   0  0  0  0  0  0  0  0  0  0  0  0
    3.6695    0.7016    1.7091 H   0  0  0  0  0  0  0  0  0  0  0  0
    5.9053    1.1888    2.6304 H   0  0  0  0  0  0  0  0  0  0  0  0
    7.9555    0.6523    1.3309 H   0  0  0  0  0  0  0  0  0  0  0  0
    7.7656   -0.3940   -0.9095 H   0  0  0  0  0  0  0  0  0  0  0  0
   -7.7667    0.1839    0.2568 H   0  0  0  0  0  0  0  0  0  0  0  0
   -7.8326    1.8429   -0.3642 H   0  0  0  0  0  0  0  0  0  0  0  0
   -7.2952    1.5458    1.2920 H   0  0  0  0  0  0  0  0  0  0  0  0
   -5.7909    2.0914   -2.1667 H   0  0  0  0  0  0  0  0  0  0  0  0
   -2.4437    0.4555   -2.7041 H   0  0  0  0  0  0  0  0  0  0  0  0
   -2.1401    2.0518   -1.9586 H   0  0  0  0  0  0  0  0  0  0  0  0
   -3.3239    1.8788   -3.2550 H   0  0  0  0  0  0  0  0  0  0  0  0
  1  2  1  0
  2  3  2  0
  3  4  1  0
  4  5  1  0
  5  6  1  0
  6  7  2  3
  7  8  1  0
  8  9  2  0
  9 10  1  0
 10 11  2  0
 11 12  1  0
 12 13  2  0
 13 14  1  0
 14 15  2  0
 14 16  1  0
  4 17  2  0
 17 18  1  0
 18 19  1  0
 19 20  1  0
 20 21  2  0
 21 22  1  0
 21 23  1  0
 23 24  2  0
 24 25  1  0
 18 26  2  0
 26  2  1  0
 13  8  1  0
 24 19  1  0
  1 27  1  0
  1 28  1  0
  1 29  1  0
  3 30  1  0
  5 31  1  0
  7 32  1  0
  9 33  1  0
 10 34  1  0
 11 35  1  0
 12 36  1  0
 22 37  1  0
 22 38  1  0
 22 39  1  0
 23 40  1  0
 25 41  1  0
 25 42  1  0
 25 43  1  0
M  CHG  2  14   1  16  -1
M  END
$$$$
