
     RDKit          3D

 57 62  0  0  0  0  0  0  0  0999 V2000
    6.1556   -1.4404    1.3387 C   0  0  0  0  0  0  0  0  0  0  0  0
    4.7777   -1.1066    1.4383 O   0  0  0  0  0  0  0  0  0  0  0  0
    3.9881   -1.3935    0.3569 C   0  0  0  0  0  0  0  0  0  0  0  0
    4.4230   -1.9976   -0.8389 C   0  0  0  0  0  0  0  0  0  0  0  0
    3.5269   -2.2521   -1.8850 C   0  0  0  0  0  0  0  0  0  0  0  0
    2.2111   -1.8860   -1.7016 C   0  0  0  0  0  0  0  0  0  0  0  0
    1.7604   -1.2779   -0.5283 C   0  0  0  0  0  0  0  0  0  0  0  0
    2.6434   -1.0341    0.5129 C   0  0  0  0  0  0  0  0  0  0  0  0
    0.2922   -1.0110   -0.6559 C   0  0  0  0  0  0  0  0  0  0  0  0
   -0.5467   -1.6210    0.4243 N   0  0  0  0  0  0  0  0  0  0  0  0
   -1.5572   -0.6140    0.8973 C   0  0  2  0  0  0  0  0  0  0  0  0
   -2.9871   -0.8860    0.3822 C   0  0  0  0  0  0  0  0  0  0  0  0
   -3.5539   -2.2204    0.8076 C   0  0  0  0  0  0  0  0  0  0  0  0
   -3.8813   -2.4677    2.1474 C   0  0  0  0  0  0  0  0  0  0  0  0
   -4.3958   -3.7071    2.5312 C   0  0  0  0  0  0  0  0  0  0  0  0
   -4.5894   -4.7084    1.5813 C   0  0  0  0  0  0  0  0  0  0  0  0
   -4.2699   -4.4716    0.2459 C   0  0  0  0  0  0  0  0  0  0  0  0
   -3.7553   -3.2336   -0.1406 C   0  0  0  0  0  0  0  0  0  0  0  0
   -1.0149    0.6588    0.3645 C   0  0  0  0  0  0  0  0  0  0  0  0
    0.0321    0.4283   -0.5243 C   0  0  0  0  0  0  0  0  0  0  0  0
    0.4240    1.6239   -1.0621 C   0  0  0  0  0  0  0  0  0  0  0  0
    1.2645    1.8317   -2.0751 O   0  0  0  0  0  0  0  0  0  0  0  0
   -0.2856    2.6356   -0.3826 N   0  0  0  0  0  0  0  0  0  0  0  0
   -0.0613    4.0436   -0.5084 C   0  0  0  0  0  0  0  0  0  0  0  0
   -1.1146    4.9539   -0.3595 C   0  0  0  0  0  0  0  0  0  0  0  0
   -0.8834    6.3259   -0.4918 C   0  0  0  0  0  0  0  0  0  0  0  0
    0.3992    6.7988   -0.7614 C   0  0  0  0  0  0  0  0  0  0  0  0
    1.4565    5.9017   -0.8934 C   0  0  0  0  0  0  0  0  0  0  0  0
    1.2307    4.5290   -0.7653 C   0  0  0  0  0  0  0  0  0  0  0  0
   -1.2328    2.0093    0.4520 C   0  0  0  0  0  0  0  0  0  0  0  0
   -2.0967    2.6879    1.2023 O   0  0  0  0  0  0  0  0  0  0  0  0
   -0.0400   -1.5941   -2.0584 C   0  0  0  0  0  0  0  0  0  0  0  0
   -1.1346   -1.6883   -2.5960 O   0  0  0  0  0  0  0  0  0  0  0  0
    1.1605   -2.0659   -2.5933 N   0  0  0  0  0  0  0  0  0  0  0  0
    6.6397   -1.1451    2.2746 H   0  0  0  0  0  0  0  0  0  0  0  0
    6.6383   -0.8876    0.5260 H   0  0  0  0  0  0  0  0  0  0  0  0
    6.2927   -2.5202    1.2197 H   0  0  0  0  0  0  0  0  0  0  0  0
    5.4599   -2.2845   -0.9815 H   0  0  0  0  0  0  0  0  0  0  0  0
    3.8649   -2.7224   -2.8010 H   0  0  0  0  0  0  0  0  0  0  0  0
    2.2979   -0.5705    1.4321 H   0  0  0  0  0  0  0  0  0  0  0  0
   -1.0302   -2.4313    0.0403 H   0  0  0  0  0  0  0  0  0  0  0  0
   -1.5384   -0.6067    1.9929 H   0  0  0  0  0  0  0  0  0  0  0  0
   -3.6634   -0.0985    0.7425 H   0  0  0  0  0  0  0  0  0  0  0  0
   -3.0175   -0.8061   -0.7130 H   0  0  0  0  0  0  0  0  0  0  0  0
   -3.7380   -1.6992    2.9030 H   0  0  0  0  0  0  0  0  0  0  0  0
   -4.6455   -3.8925    3.5726 H   0  0  0  0  0  0  0  0  0  0  0  0
   -4.9898   -5.6730    1.8815 H   0  0  0  0  0  0  0  0  0  0  0  0
   -4.4216   -5.2509   -0.4964 H   0  0  0  0  0  0  0  0  0  0  0  0
   -3.5101   -3.0649   -1.1885 H   0  0  0  0  0  0  0  0  0  0  0  0
    1.0751    2.7060   -2.4610 H   0  0  0  0  0  0  0  0  0  0  0  0
   -2.1318    4.6208   -0.1723 H   0  0  0  0  0  0  0  0  0  0  0  0
   -1.7089    7.0251   -0.3838 H   0  0  0  0  0  0  0  0  0  0  0  0
    0.5757    7.8670   -0.8575 H   0  0  0  0  0  0  0  0  0  0  0  0
    2.4618    6.2714   -1.0797 H   0  0  0  0  0  0  0  0  0  0  0  0
    2.0887    3.8611   -0.8152 H   0  0  0  0  0  0  0  0  0  0  0  0
   -2.5690    2.0499    1.7644 H   0  0  0  0  0  0  0  0  0  0  0  0
    1.2239   -2.4987   -3.5013 H   0  0  0  0  0  0  0  0  0  0  0  0
  1  2  1  0
  2  3  1  0
  3  4  2  0
  4  5  1  0
  5  6  2  0
  6  7  1  0
  7  8  2  0
  7  9  1  0
  9 10  1  0
 10 11  1  0
 11 12  1  0
 12 13  1  0
 13 14  2  0
 14 15  1  0
 15 16  2  0
 16 17  1  0
 17 18  2  0
 11 19  1  0
 19 20  1  0
 20 21  2  0
 21 22  1  0
 21 23  1  0
 23 24  1  0
 24 25  2  0
 25 26  1  0
 26 27  2  0
 27 28  1  0
 28 29  2  0
 23 30  1  0
 30 31  1  0
  9 32  1  0
 32 33  2  0
 32 34  1  0
  8  3  1  0
 20  9  1  0
 29 24  1  0
 34  6  1  0
 18 13  1  0
 30 19  2  0
  1 35  1  0
  1 36  1  0
  1 37  1  0
  4 38  1  0
  5 39  1  0
  8 40  1  0
 10 41  1  0
 11 42  1  1
 12 43  1  0
 12 44  1  0
 14 45  1  0
 15 46  1  0
 16 47  1  0
 17 48  1  0
 18 49  1  0
 22 50  1  0
 25 51  1  0
 26 52  1  0
 27 53  1  0
 28 54  1  0
 29 55  1  0
 31 56  1  0
 34 57  1  0
M  END
$$$$
