
     RDKit          3D

 38 38  0  0  0  0  0  0  0  0999 V2000
    4.4601    2.6207   -0.9900 C   0  0  0  0  0  0  0  0  0  0  0  0
    4.7996    1.1895   -1.3621 C   0  0  0  0  0  0  0  0  0  0  0  0
    3.7132    0.5979   -2.0914 O   0  0  0  0  0  0  0  0  0  0  0  0
    2.7365    0.0175   -1.3384 C   0  0  0  0  0  0  0  0  0  0  0  0
    2.7009    0.0118   -0.1164 O   0  0  0  0  0  0  0  0  0  0  0  0
    1.6719   -0.5382   -2.2346 C   0  0  0  0  0  0  0  0  0  0  0  0
    0.7601   -1.5220   -1.5496 C   0  0  0  0  0  0  0  0  0  0  0  0
    0.9329   -2.7336   -1.6886 O   0  0  0  0  0  0  0  0  0  0  0  0
   -0.3907   -1.0377   -0.7219 C   0  0  0  0  0  0  0  0  0  0  0  0
   -0.5473    0.3083   -0.3625 C   0  0  0  0  0  0  0  0  0  0  0  0
   -1.6432    0.7097    0.4064 C   0  0  0  0  0  0  0  0  0  0  0  0
   -1.8875    1.9978    0.8085 O   0  0  0  0  0  0  0  0  0  0  0  0
   -0.8954    2.9773    0.5352 C   0  0  0  0  0  0  0  0  0  0  0  0
   -2.5831   -0.2542    0.8110 C   0  0  0  0  0  0  0  0  0  0  0  0
   -3.6936    0.1478    1.5208 O   0  0  0  0  0  0  0  0  0  0  0  0
   -3.4334    0.0552    2.9206 C   0  0  0  0  0  0  0  0  0  0  0  0
   -2.4484   -1.6042    0.4482 C   0  0  0  0  0  0  0  0  0  0  0  0
   -3.4328   -2.4526    0.8838 O   0  0  0  0  0  0  0  0  0  0  0  0
   -3.3529   -3.8134    0.4808 C   0  0  0  0  0  0  0  0  0  0  0  0
   -1.3410   -1.9873   -0.3093 C   0  0  0  0  0  0  0  0  0  0  0  0
    5.3025    3.1000   -0.4834 H   0  0  0  0  0  0  0  0  0  0  0  0
    4.2086    3.2008   -1.8839 H   0  0  0  0  0  0  0  0  0  0  0  0
    3.5876    2.6592   -0.3301 H   0  0  0  0  0  0  0  0  0  0  0  0
    5.6725    1.1776   -2.0229 H   0  0  0  0  0  0  0  0  0  0  0  0
    5.0561    0.5945   -0.4781 H   0  0  0  0  0  0  0  0  0  0  0  0
    2.1530   -1.0704   -3.0645 H   0  0  0  0  0  0  0  0  0  0  0  0
    1.0887    0.2782   -2.6714 H   0  0  0  0  0  0  0  0  0  0  0  0
    0.1880    1.0398   -0.6709 H   0  0  0  0  0  0  0  0  0  0  0  0
   -1.2268    3.9217    0.9774 H   0  0  0  0  0  0  0  0  0  0  0  0
    0.0620    2.7119    0.9960 H   0  0  0  0  0  0  0  0  0  0  0  0
   -0.7860    3.1350   -0.5426 H   0  0  0  0  0  0  0  0  0  0  0  0
   -3.2318   -0.9781    3.2230 H   0  0  0  0  0  0  0  0  0  0  0  0
   -4.3297    0.3922    3.4500 H   0  0  0  0  0  0  0  0  0  0  0  0
   -2.6026    0.7052    3.2165 H   0  0  0  0  0  0  0  0  0  0  0  0
   -2.4594   -4.2940    0.8924 H   0  0  0  0  0  0  0  0  0  0  0  0
   -4.2262   -4.3335    0.8862 H   0  0  0  0  0  0  0  0  0  0  0  0
   -3.3873   -3.9062   -0.6097 H   0  0  0  0  0  0  0  0  0  0  0  0
   -1.1953   -3.0241   -0.5993 H   0  0  0  0  0  0  0  0  0  0  0  0
  1  2  1  0
  2  3  1  0
  3  4  1  0
  4  5  2  0
  4  6  1  0
  6  7  1  0
  7  8  2  0
  7  9  1  0
  9 10  2  0
 10 11  1  0
 11 12  1  0
 12 13  1  0
 11 14  2  0
 14 15  1  0
 15 16  1  0
 14 17  1  0
 17 18  1  0
 18 19  1  0
 17 20  2  0
 20  9  1  0
  1 21  1  0
  1 22  1  0
  1 23  1  0
  2 24  1  0
  2 25  1  0
  6 26  1  0
  6 27  1  0
 10 28  1  0
 13 29  1  0
 13 30  1  0
 13 31  1  0
 16 32  1  0
 16 33  1  0
 16 34  1  0
 19 35  1  0
 19 36  1  0
 19 37  1  0
 20 38  1  0
M  END
$$$$
