
     RDKit          3D

 71 73  0  0  0  0  0  0  0  0999 V2000
   -6.5056    2.2281    2.1903 C   0  0  0  0  0  0  0  0  0  0  0  0
   -6.6266    0.9155    1.6618 O   0  0  0  0  0  0  0  0  0  0  0  0
   -5.4860    0.2973    1.2110 C   0  0  0  0  0  0  0  0  0  0  0  0
   -4.2245    0.9044    1.1657 C   0  0  0  0  0  0  0  0  0  0  0  0
   -3.1199    0.1941    0.6876 C   0  0  0  0  0  0  0  0  0  0  0  0
   -1.7908    0.8008    0.6237 C   0  0  0  0  0  0  0  0  0  0  0  0
   -0.7347    0.1193    0.1417 C   0  0  0  0  0  0  0  0  0  0  0  0
    0.6500    0.6991    0.0742 C   0  0  0  0  0  0  0  0  0  0  0  0
    1.0033    1.1114   -1.3012 N   0  0  0  0  0  0  0  0  0  0  0  0
    0.3480    2.3426   -1.8028 C   0  0  0  0  0  0  0  0  0  0  0  0
    1.0728    3.6613   -1.4724 C   0  0  0  0  0  0  0  0  0  0  0  0
    0.8653    4.1530   -0.0536 C   0  0  0  0  0  0  0  0  0  0  0  0
   -0.3976    4.6660    0.2981 C   0  0  0  0  0  0  0  0  0  0  0  0
   -0.6529    5.1242    1.5896 C   0  0  0  0  0  0  0  0  0  0  0  0
    0.3515    5.0812    2.5492 C   0  0  0  0  0  0  0  0  0  0  0  0
    1.6116    4.5848    2.2163 C   0  0  0  0  0  0  0  0  0  0  0  0
    1.8852    4.1157    0.9208 C   0  0  0  0  0  0  0  0  0  0  0  0
    3.2670    3.6049    0.6125 C   0  0  0  0  0  0  0  0  0  0  0  0
    2.0210    0.4681   -2.0403 C   0  0  0  0  0  0  0  0  0  0  0  0
    2.7748    1.1229   -3.3966 S   0  0  0  0  0  0  0  0  0  0  0  0
    2.3659   -0.7719   -1.5336 N   0  0  0  0  0  0  0  0  0  0  0  0
    3.3859   -1.6663   -2.0749 C   0  0  0  0  0  0  0  0  0  0  0  0
    3.6386   -2.8394   -1.1300 C   0  0  0  0  0  0  0  0  0  0  0  0
    4.7084   -3.7767   -1.7046 C   0  0  0  0  0  0  0  0  0  0  0  0
    5.0645   -4.9501   -0.8932 N   0  0  0  0  0  0  0  0  0  0  0  0
    5.6790   -4.5914    0.3818 C   0  0  0  0  0  0  0  0  0  0  0  0
    3.9435   -5.8647   -0.6951 C   0  0  0  0  0  0  0  0  0  0  0  0
   -0.9029   -1.3057   -0.2675 C   0  0  0  0  0  0  0  0  0  0  0  0
    0.0491   -1.9908   -0.6329 O   0  0  0  0  0  0  0  0  0  0  0  0
   -2.1660   -1.8312   -0.2081 N   0  0  0  0  0  0  0  0  0  0  0  0
   -3.2817   -1.1246    0.2564 C   0  0  0  0  0  0  0  0  0  0  0  0
   -4.5314   -1.7425    0.2927 C   0  0  0  0  0  0  0  0  0  0  0  0
   -5.6410   -1.0349    0.7675 C   0  0  0  0  0  0  0  0  0  0  0  0
   -6.9122   -1.5488    0.8458 O   0  0  0  0  0  0  0  0  0  0  0  0
   -7.1234   -2.8730    0.3776 C   0  0  0  0  0  0  0  0  0  0  0  0
   -5.8324    2.2471    3.0537 H   0  0  0  0  0  0  0  0  0  0  0  0
   -7.4956    2.5430    2.5339 H   0  0  0  0  0  0  0  0  0  0  0  0
   -6.1816    2.9345    1.4192 H   0  0  0  0  0  0  0  0  0  0  0  0
   -4.0830    1.9281    1.4947 H   0  0  0  0  0  0  0  0  0  0  0  0
   -1.6822    1.8259    0.9646 H   0  0  0  0  0  0  0  0  0  0  0  0
    1.3808   -0.0014    0.4910 H   0  0  0  0  0  0  0  0  0  0  0  0
    0.7214    1.5777    0.7193 H   0  0  0  0  0  0  0  0  0  0  0  0
   -0.6862    2.3646   -1.4455 H   0  0  0  0  0  0  0  0  0  0  0  0
    0.2672    2.2608   -2.8927 H   0  0  0  0  0  0  0  0  0  0  0  0
    2.1377    3.5941   -1.7094 H   0  0  0  0  0  0  0  0  0  0  0  0
    0.6832    4.4417   -2.1410 H   0  0  0  0  0  0  0  0  0  0  0  0
   -1.1922    4.7196   -0.4439 H   0  0  0  0  0  0  0  0  0  0  0  0
   -1.6307    5.5248    1.8428 H   0  0  0  0  0  0  0  0  0  0  0  0
    0.1605    5.4443    3.5556 H   0  0  0  0  0  0  0  0  0  0  0  0
    2.3875    4.5708    2.9794 H   0  0  0  0  0  0  0  0  0  0  0  0
    3.2218    2.5956    0.1917 H   0  0  0  0  0  0  0  0  0  0  0  0
    3.7676    4.2756   -0.0929 H   0  0  0  0  0  0  0  0  0  0  0  0
    3.8857    3.5498    1.5148 H   0  0  0  0  0  0  0  0  0  0  0  0
    1.5597   -1.2785   -1.1664 H   0  0  0  0  0  0  0  0  0  0  0  0
    3.0342   -2.0246   -3.0489 H   0  0  0  0  0  0  0  0  0  0  0  0
    4.3108   -1.0995   -2.2249 H   0  0  0  0  0  0  0  0  0  0  0  0
    3.9488   -2.4496   -0.1538 H   0  0  0  0  0  0  0  0  0  0  0  0
    2.6985   -3.3809   -0.9734 H   0  0  0  0  0  0  0  0  0  0  0  0
    5.6235   -3.2010   -1.8979 H   0  0  0  0  0  0  0  0  0  0  0  0
    4.3808   -4.1291   -2.6917 H   0  0  0  0  0  0  0  0  0  0  0  0
    6.5346   -3.9244    0.2267 H   0  0  0  0  0  0  0  0  0  0  0  0
    6.0682   -5.4862    0.8808 H   0  0  0  0  0  0  0  0  0  0  0  0
    4.9774   -4.1027    1.0665 H   0  0  0  0  0  0  0  0  0  0  0  0
    3.4986   -6.1475   -1.6556 H   0  0  0  0  0  0  0  0  0  0  0  0
    4.2901   -6.7928   -0.2265 H   0  0  0  0  0  0  0  0  0  0  0  0
    3.1587   -5.4403   -0.0602 H   0  0  0  0  0  0  0  0  0  0  0  0
   -2.2565   -2.7941   -0.5022 H   0  0  0  0  0  0  0  0  0  0  0  0
   -4.6205   -2.7671   -0.0482 H   0  0  0  0  0  0  0  0  0  0  0  0
   -6.8823   -2.9594   -0.6870 H   0  0  0  0  0  0  0  0  0  0  0  0
   -8.1861   -3.1048    0.4974 H   0  0  0  0  0  0  0  0  0  0  0  0
   -6.5566   -3.5966    0.9724 H   0  0  0  0  0  0  0  0  0  0  0  0
  1  2  1  0
  2  3  1  0
  3  4  2  0
  4  5  1  0
  5  6  1  0
  6  7  2  0
  7  8  1  0
  8  9  1  0
  9 10  1  0
 10 11  1  0
 11 12  1  0
 12 13  2  0
 13 14  1  0
 14 15  2  0
 15 16  1  0
 16 17  2  0
 17 18  1  0
  9 19  1  0
 19 20  2  0
 19 21  1  0
 21 22  1  0
 22 23  1  0
 23 24  1  0
 24 25  1  0
 25 26  1  0
 25 27  1  0
  7 28  1  0
 28 29  2  0
 28 30  1  0
 30 31  1  0
 31 32  1  0
 32 33  2  0
 33 34  1  0
 34 35  1  0
 33  3  1  0
 31  5  2  0
 17 12  1  0
  1 36  1  0
  1 37  1  0
  1 38  1  0
  4 39  1  0
  6 40  1  0
  8 41  1  0
  8 42  1  0
 10 43  1  0
 10 44  1  0
 11 45  1  0
 11 46  1  0
 13 47  1  0
 14 48  1  0
 15 49  1  0
 16 50  1  0
 18 51  1  0
 18 52  1  0
 18 53  1  0
 21 54  1  0
 22 55  1  0
 22 56  1  0
 23 57  1  0
 23 58  1  0
 24 59  1  0
 24 60  1  0
 26 61  1  0
 26 62  1  0
 26 63  1  0
 27 64  1  0
 27 65  1  0
 27 66  1  0
 30 67  1  0
 32 68  1  0
 35 69  1  0
 35 70  1  0
 35 71  1  0
M  END
$$$$
