
     RDKit          3D

 53 56  0  0  0  0  0  0  0  0999 V2000
    7.0547    1.5012   -0.5197 C   0  0  0  0  0  0  0  0  0  0  0  0
    5.9398    0.7131   -0.1247 O   0  0  0  0  0  0  0  0  0  0  0  0
    5.1759    0.1717   -1.1244 C   0  0  0  0  0  0  0  0  0  0  0  0
    5.4082    0.3093   -2.4924 C   0  0  0  0  0  0  0  0  0  0  0  0
    4.5518   -0.3017   -3.4089 C   0  0  0  0  0  0  0  0  0  0  0  0
    3.4610   -1.0474   -2.9599 C   0  0  0  0  0  0  0  0  0  0  0  0
    3.2113   -1.1874   -1.5909 C   0  0  0  0  0  0  0  0  0  0  0  0
    2.0932   -1.9615   -1.2191 N   0  0  0  0  0  0  0  0  0  0  0  0
    1.5020   -2.0362    0.0269 C   0  0  0  0  0  0  0  0  0  0  0  0
    1.8488   -1.4140    1.0291 O   0  0  0  0  0  0  0  0  0  0  0  0
    0.3475   -3.0239    0.1204 C   0  0  0  0  0  0  0  0  0  0  0  0
   -0.8287   -2.9674   -1.2616 S   0  0  0  0  0  0  0  0  0  0  0  0
   -0.9769   -1.2638   -1.5598 C   0  0  0  0  0  0  0  0  0  0  0  0
   -0.5035   -0.7058   -2.6487 N   0  0  0  0  0  0  0  0  0  0  0  0
   -0.6001    0.6487   -2.4970 N   0  0  0  0  0  0  0  0  0  0  0  0
   -1.1484    0.9007   -1.3213 C   0  0  0  0  0  0  0  0  0  0  0  0
   -1.5479    2.2634   -0.8535 C   0  0  0  0  0  0  0  0  0  0  0  0
   -3.0393    2.4612   -0.8002 C   0  0  0  0  0  0  0  0  0  0  0  0
   -3.8510    2.5840    0.3119 C   0  0  0  0  0  0  0  0  0  0  0  0
   -5.2222    2.7609   -0.0320 C   0  0  0  0  0  0  0  0  0  0  0  0
   -5.4131    2.7831   -1.3948 C   0  0  0  0  0  0  0  0  0  0  0  0
   -3.9477    2.5896   -2.2509 S   0  0  0  0  0  0  0  0  0  0  0  0
   -1.3996   -0.2985   -0.6649 N   0  0  0  0  0  0  0  0  0  0  0  0
   -1.9557   -0.4844    0.6222 C   0  0  0  0  0  0  0  0  0  0  0  0
   -3.0048   -1.3918    0.8035 C   0  0  0  0  0  0  0  0  0  0  0  0
   -3.5498   -1.5736    2.0759 C   0  0  0  0  0  0  0  0  0  0  0  0
   -3.0397   -0.8738    3.1761 C   0  0  0  0  0  0  0  0  0  0  0  0
   -3.6476   -1.0514    4.5363 C   0  0  0  0  0  0  0  0  0  0  0  0
   -1.9887    0.0308    2.9833 C   0  0  0  0  0  0  0  0  0  0  0  0
   -1.4432    0.2249    1.7128 C   0  0  0  0  0  0  0  0  0  0  0  0
    4.0773   -0.5769   -0.6811 C   0  0  0  0  0  0  0  0  0  0  0  0
    6.7349    2.3817   -1.0864 H   0  0  0  0  0  0  0  0  0  0  0  0
    7.5530    1.8533    0.3887 H   0  0  0  0  0  0  0  0  0  0  0  0
    7.7791    0.9062   -1.0855 H   0  0  0  0  0  0  0  0  0  0  0  0
    6.2434    0.8834   -2.8779 H   0  0  0  0  0  0  0  0  0  0  0  0
    4.7283   -0.1906   -4.4755 H   0  0  0  0  0  0  0  0  0  0  0  0
    2.7996   -1.4976   -3.6958 H   0  0  0  0  0  0  0  0  0  0  0  0
    1.5597   -2.3580   -1.9882 H   0  0  0  0  0  0  0  0  0  0  0  0
    0.7685   -4.0327    0.1813 H   0  0  0  0  0  0  0  0  0  0  0  0
   -0.1967   -2.8380    1.0514 H   0  0  0  0  0  0  0  0  0  0  0  0
   -1.1182    3.0090   -1.5364 H   0  0  0  0  0  0  0  0  0  0  0  0
   -1.1023    2.4834    0.1217 H   0  0  0  0  0  0  0  0  0  0  0  0
   -3.4836    2.5427    1.3302 H   0  0  0  0  0  0  0  0  0  0  0  0
   -6.0270    2.8703    0.6842 H   0  0  0  0  0  0  0  0  0  0  0  0
   -6.3434    2.9059   -1.9325 H   0  0  0  0  0  0  0  0  0  0  0  0
   -3.4392   -1.9352   -0.0332 H   0  0  0  0  0  0  0  0  0  0  0  0
   -4.3803   -2.2648    2.2039 H   0  0  0  0  0  0  0  0  0  0  0  0
   -2.9022   -0.8899    5.3222 H   0  0  0  0  0  0  0  0  0  0  0  0
   -4.0352   -2.0683    4.6604 H   0  0  0  0  0  0  0  0  0  0  0  0
   -4.4679   -0.3402    4.6746 H   0  0  0  0  0  0  0  0  0  0  0  0
   -1.5764    0.5797    3.8282 H   0  0  0  0  0  0  0  0  0  0  0  0
   -0.5876    0.8890    1.6125 H   0  0  0  0  0  0  0  0  0  0  0  0
    3.9299   -0.6724    0.3902 H   0  0  0  0  0  0  0  0  0  0  0  0
  1  2  1  0
  2  3  1  0
  3  4  2  0
  4  5  1  0
  5  6  2  0
  6  7  1  0
  7  8  1  0
  8  9  1  0
  9 10  2  0
  9 11  1  0
 11 12  1  0
 12 13  1  0
 13 14  2  0
 14 15  1  0
 15 16  2  0
 16 17  1  0
 17 18  1  0
 18 19  2  0
 19 20  1  0
 20 21  2  0
 21 22  1  0
 16 23  1  0
 23 24  1  0
 24 25  2  0
 25 26  1  0
 26 27  2  0
 27 28  1  0
 27 29  1  0
 29 30  2  0
  7 31  2  0
 31  3  1  0
 23 13  1  0
 30 24  1  0
 22 18  1  0
  1 32  1  0
  1 33  1  0
  1 34  1  0
  4 35  1  0
  5 36  1  0
  6 37  1  0
  8 38  1  0
 11 39  1  0
 11 40  1  0
 17 41  1  0
 17 42  1  0
 19 43  1  0
 20 44  1  0
 21 45  1  0
 25 46  1  0
 26 47  1  0
 28 48  1  0
 28 49  1  0
 28 50  1  0
 29 51  1  0
 30 52  1  0
 31 53  1  0
M  END
$$$$
