
     RDKit          3D

 54 57  0  0  0  0  0  0  0  0999 V2000
    3.2149    2.7193    4.0319 C   0  0  0  0  0  0  0  0  0  0  0  0
    3.0871    2.0136    2.6913 C   0  0  0  0  0  0  0  0  0  0  0  0
    2.5939    0.5816    2.8320 C   0  0  0  0  0  0  0  0  0  0  0  0
    2.3596    0.0910    3.9366 O   0  0  0  0  0  0  0  0  0  0  0  0
    2.3994   -0.1323    1.6536 N   0  0  0  0  0  0  0  0  0  0  0  0
    2.9458    0.2726    0.3476 C   0  0  0  0  0  0  0  0  0  0  0  0
    2.0974   -0.2385   -0.8337 C   0  0  0  0  0  0  0  0  0  0  0  0
    1.8314   -1.6771   -0.6840 N   0  0  0  0  0  0  0  0  0  0  0  0
    1.3944   -2.3556   -1.8289 C   0  0  0  0  0  0  0  0  0  0  0  0
    2.3276   -3.2326   -2.4123 C   0  0  0  0  0  0  0  0  0  0  0  0
    2.0219   -3.9620   -3.5594 C   0  0  0  0  0  0  0  0  0  0  0  0
    0.7702   -3.8194   -4.1427 C   0  0  0  0  0  0  0  0  0  0  0  0
    0.3917   -4.7132   -5.5649 Cl  0  0  0  0  0  0  0  0  0  0  0  0
   -0.1781   -2.9596   -3.5885 C   0  0  0  0  0  0  0  0  0  0  0  0
    0.1154   -2.2255   -2.4311 C   0  0  0  0  0  0  0  0  0  0  0  0
   -0.8230   -1.3461   -1.8412 N   0  0  0  0  0  0  0  0  0  0  0  0
   -2.1402   -1.1317   -2.1961 C   0  0  0  0  0  0  0  0  0  0  0  0
   -2.7664   -1.6988   -3.0822 O   0  0  0  0  0  0  0  0  0  0  0  0
   -2.8575   -0.1273   -1.3594 C   0  0  0  0  0  0  0  0  0  0  0  0
   -4.2211   -0.3243   -1.1001 C   0  0  0  0  0  0  0  0  0  0  0  0
   -4.9241    0.5845   -0.3056 C   0  0  0  0  0  0  0  0  0  0  0  0
   -4.2677    1.6925    0.2255 C   0  0  0  0  0  0  0  0  0  0  0  0
   -2.9185    1.9159   -0.0694 C   0  0  0  0  0  0  0  0  0  0  0  0
   -2.2096    1.0067   -0.8535 C   0  0  0  0  0  0  0  0  0  0  0  0
   -2.2203    3.0068    0.3832 O   0  0  0  0  0  0  0  0  0  0  0  0
   -3.1031    4.0233    0.8765 C   0  0  0  0  0  0  0  0  0  0  0  0
   -4.1760    3.4183    1.7671 C   0  0  0  0  0  0  0  0  0  0  0  0
   -5.0113    2.5290    1.0171 O   0  0  0  0  0  0  0  0  0  0  0  0
    1.2321   -2.0850    0.5993 C   0  0  0  0  0  0  0  0  0  0  0  0
    2.0865   -1.5655    1.7697 C   0  0  0  0  0  0  0  0  0  0  0  0
    2.2511    2.7564    4.5508 H   0  0  0  0  0  0  0  0  0  0  0  0
    3.9272    2.2015    4.6829 H   0  0  0  0  0  0  0  0  0  0  0  0
    3.5660    3.7458    3.8897 H   0  0  0  0  0  0  0  0  0  0  0  0
    2.3804    2.5686    2.0652 H   0  0  0  0  0  0  0  0  0  0  0  0
    4.0686    2.0039    2.2055 H   0  0  0  0  0  0  0  0  0  0  0  0
    3.9599   -0.1418    0.2896 H   0  0  0  0  0  0  0  0  0  0  0  0
    3.0312    1.3594    0.2755 H   0  0  0  0  0  0  0  0  0  0  0  0
    1.1616    0.3288   -0.8613 H   0  0  0  0  0  0  0  0  0  0  0  0
    2.6374   -0.0390   -1.7673 H   0  0  0  0  0  0  0  0  0  0  0  0
    3.3100   -3.3457   -1.9582 H   0  0  0  0  0  0  0  0  0  0  0  0
    2.7612   -4.6324   -3.9881 H   0  0  0  0  0  0  0  0  0  0  0  0
   -1.1403   -2.8769   -4.0827 H   0  0  0  0  0  0  0  0  0  0  0  0
   -0.4890   -0.8893   -1.0078 H   0  0  0  0  0  0  0  0  0  0  0  0
   -4.7364   -1.1908   -1.5112 H   0  0  0  0  0  0  0  0  0  0  0  0
   -5.9780    0.4224   -0.0953 H   0  0  0  0  0  0  0  0  0  0  0  0
   -1.1721    1.2175   -1.0902 H   0  0  0  0  0  0  0  0  0  0  0  0
   -2.4995    4.7385    1.4439 H   0  0  0  0  0  0  0  0  0  0  0  0
   -3.5416    4.5491    0.0193 H   0  0  0  0  0  0  0  0  0  0  0  0
   -4.8149    4.2055    2.1791 H   0  0  0  0  0  0  0  0  0  0  0  0
   -3.7365    2.8612    2.6038 H   0  0  0  0  0  0  0  0  0  0  0  0
    0.2190   -1.6823    0.7026 H   0  0  0  0  0  0  0  0  0  0  0  0
    1.1672   -3.1777    0.6657 H   0  0  0  0  0  0  0  0  0  0  0  0
    1.5689   -1.7733    2.7119 H   0  0  0  0  0  0  0  0  0  0  0  0
    3.0463   -2.0961    1.7983 H   0  0  0  0  0  0  0  0  0  0  0  0
  1  2  1  0
  2  3  1  0
  3  4  2  0
  3  5  1  0
  5  6  1  0
  6  7  1  0
  7  8  1  0
  8  9  1  0
  9 10  2  0
 10 11  1  0
 11 12  2  0
 12 13  1  0
 12 14  1  0
 14 15  2  0
 15 16  1  0
 16 17  1  0
 17 18  2  0
 17 19  1  0
 19 20  2  0
 20 21  1  0
 21 22  2  0
 22 23  1  0
 23 24  2  0
 23 25  1  0
 25 26  1  0
 26 27  1  0
 27 28  1  0
  8 29  1  0
 29 30  1  0
 30  5  1  0
 15  9  1  0
 24 19  1  0
 28 22  1  0
  1 31  1  0
  1 32  1  0
  1 33  1  0
  2 34  1  0
  2 35  1  0
  6 36  1  0
  6 37  1  0
  7 38  1  0
  7 39  1  0
 10 40  1  0
 11 41  1  0
 14 42  1  0
 16 43  1  0
 20 44  1  0
 21 45  1  0
 24 46  1  0
 26 47  1  0
 26 48  1  0
 27 49  1  0
 27 50  1  0
 29 51  1  0
 29 52  1  0
 30 53  1  0
 30 54  1  0
M  END
$$$$
