
     RDKit          3D

 51 55  0  0  0  0  0  0  0  0999 V2000
    5.8622    0.3214   -0.7696 F   0  0  0  0  0  0  0  0  0  0  0  0
    5.4278    0.5846    0.4713 C   0  0  0  0  0  0  0  0  0  0  0  0
    6.1400    1.4889    1.2537 C   0  0  0  0  0  0  0  0  0  0  0  0
    5.6972    1.7853    2.5413 C   0  0  0  0  0  0  0  0  0  0  0  0
    4.5430    1.1767    3.0355 C   0  0  0  0  0  0  0  0  0  0  0  0
    3.8317    0.2697    2.2450 C   0  0  0  0  0  0  0  0  0  0  0  0
    4.2734   -0.0407    0.9516 C   0  0  0  0  0  0  0  0  0  0  0  0
    3.5039   -1.0047    0.0832 C   0  0  0  0  0  0  0  0  0  0  0  0
    2.5607   -0.2673   -0.8836 C   0  0  0  0  0  0  0  0  0  0  0  0
    1.7925   -1.1842   -1.7463 N   0  0  0  0  0  0  0  0  0  0  0  0
    1.0929   -0.4535   -2.8256 C   0  0  0  0  0  0  0  0  0  0  0  0
   -0.3086    0.0900   -2.4669 C   0  0  0  0  0  0  0  0  0  0  0  0
   -1.1950   -0.9395   -1.8763 N   0  0  0  0  0  0  0  0  0  0  0  0
   -2.1436   -0.5136   -0.9427 C   0  0  0  0  0  0  0  0  0  0  0  0
   -2.1599   -1.0721    0.2427 N   0  0  0  0  0  0  0  0  0  0  0  0
   -3.0664   -0.6423    1.2304 C   0  0  0  0  0  0  0  0  0  0  0  0
   -3.0314   -1.2667    2.4787 C   0  0  0  0  0  0  0  0  0  0  0  0
   -3.8990   -0.8696    3.4999 C   0  0  0  0  0  0  0  0  0  0  0  0
   -4.8135    0.1610    3.2801 C   0  0  0  0  0  0  0  0  0  0  0  0
   -4.8665    0.7986    2.0401 C   0  0  0  0  0  0  0  0  0  0  0  0
   -3.9918    0.3905    1.0286 C   0  0  0  0  0  0  0  0  0  0  0  0
   -3.9862    0.9671   -0.2515 N   0  0  0  0  0  0  0  0  0  0  0  0
   -4.7766    1.9700   -0.7612 C   0  0  0  0  0  0  0  0  0  0  0  0
   -4.4488    2.1438   -2.0880 C   0  0  0  0  0  0  0  0  0  0  0  0
   -3.4146    1.2266   -2.3868 C   0  0  0  0  0  0  0  0  0  0  0  0
   -3.1150    0.5333   -1.2271 C   0  0  0  0  0  0  0  0  0  0  0  0
   -0.5184   -2.2338   -1.6516 C   0  0  0  0  0  0  0  0  0  0  0  0
    0.8397   -2.0087   -0.9579 C   0  0  0  0  0  0  0  0  0  0  0  0
    7.0332    1.9567    0.8525 H   0  0  0  0  0  0  0  0  0  0  0  0
    6.2482    2.4904    3.1582 H   0  0  0  0  0  0  0  0  0  0  0  0
    4.1943    1.4094    4.0390 H   0  0  0  0  0  0  0  0  0  0  0  0
    2.9313   -0.1921    2.6449 H   0  0  0  0  0  0  0  0  0  0  0  0
    2.9457   -1.6933    0.7289 H   0  0  0  0  0  0  0  0  0  0  0  0
    4.2103   -1.6280   -0.4802 H   0  0  0  0  0  0  0  0  0  0  0  0
    1.8857    0.3962   -0.3264 H   0  0  0  0  0  0  0  0  0  0  0  0
    3.1782    0.3823   -1.5181 H   0  0  0  0  0  0  0  0  0  0  0  0
    1.7145    0.3623   -3.2154 H   0  0  0  0  0  0  0  0  0  0  0  0
    0.9855   -1.1486   -3.6692 H   0  0  0  0  0  0  0  0  0  0  0  0
   -0.1899    0.9261   -1.7660 H   0  0  0  0  0  0  0  0  0  0  0  0
   -0.7681    0.4792   -3.3807 H   0  0  0  0  0  0  0  0  0  0  0  0
   -2.3195   -2.0688    2.6534 H   0  0  0  0  0  0  0  0  0  0  0  0
   -3.8597   -1.3664    4.4658 H   0  0  0  0  0  0  0  0  0  0  0  0
   -5.4875    0.4660    4.0771 H   0  0  0  0  0  0  0  0  0  0  0  0
   -5.5884    1.5945    1.8916 H   0  0  0  0  0  0  0  0  0  0  0  0
   -5.5211    2.4706   -0.1599 H   0  0  0  0  0  0  0  0  0  0  0  0
   -4.9138    2.8458   -2.7680 H   0  0  0  0  0  0  0  0  0  0  0  0
   -2.9459    1.0856   -3.3505 H   0  0  0  0  0  0  0  0  0  0  0  0
   -0.3745   -2.7340   -2.6177 H   0  0  0  0  0  0  0  0  0  0  0  0
   -1.1387   -2.9168   -1.0594 H   0  0  0  0  0  0  0  0  0  0  0  0
    1.3082   -2.9806   -0.7662 H   0  0  0  0  0  0  0  0  0  0  0  0
    0.6425   -1.5476    0.0187 H   0  0  0  0  0  0  0  0  0  0  0  0
  1  2  1  0
  2  3  2  0
  3  4  1  0
  4  5  2  0
  5  6  1  0
  6  7  2  0
  7  8  1  0
  8  9  1  0
  9 10  1  0
 10 11  1  0
 11 12  1  0
 12 13  1  0
 13 14  1  0
 14 15  2  0
 15 16  1  0
 16 17  2  0
 17 18  1  0
 18 19  2  0
 19 20  1  0
 20 21  2  0
 21 22  1  0
 22 23  1  0
 23 24  2  0
 24 25  1  0
 25 26  2  0
 13 27  1  0
 27 28  1  0
  7  2  1  0
 28 10  1  0
 26 14  1  0
 21 16  1  0
 26 22  1  0
  3 29  1  0
  4 30  1  0
  5 31  1  0
  6 32  1  0
  8 33  1  0
  8 34  1  0
  9 35  1  0
  9 36  1  0
 11 37  1  0
 11 38  1  0
 12 39  1  0
 12 40  1  0
 17 41  1  0
 18 42  1  0
 19 43  1  0
 20 44  1  0
 23 45  1  0
 24 46  1  0
 25 47  1  0
 27 48  1  0
 27 49  1  0
 28 50  1  0
 28 51  1  0
M  END
$$$$
