
     RDKit          3D

 46 49  0  0  0  0  0  0  0  0999 V2000
    3.8939   -0.5828    2.3419 O   0  0  0  0  0  0  0  0  0  0  0  0
    3.3080    0.2525    1.6509 C   0  0  0  0  0  0  0  0  0  0  0  0
    2.6785    1.4835    2.2942 C   0  0  0  0  0  0  0  0  0  0  0  0
    0.9502    1.1607    2.7454 S   0  0  0  0  0  0  0  0  0  0  0  0
    0.1813    1.2321    1.2005 C   0  0  0  0  0  0  0  0  0  0  0  0
    0.7383    1.6621    0.0906 N   0  0  0  0  0  0  0  0  0  0  0  0
   -0.1875    1.5563   -0.9101 N   0  0  0  0  0  0  0  0  0  0  0  0
   -1.3048    1.0850   -0.3876 C   0  0  0  0  0  0  0  0  0  0  0  0
   -2.5829    0.8494   -1.1303 C   0  0  0  0  0  0  0  0  0  0  0  0
   -2.7783   -0.5928   -1.5072 C   0  0  0  0  0  0  0  0  0  0  0  0
   -1.9158   -1.4314   -2.1903 C   0  0  0  0  0  0  0  0  0  0  0  0
   -2.4495   -2.7427   -2.3553 C   0  0  0  0  0  0  0  0  0  0  0  0
   -3.7117   -2.8577   -1.8188 C   0  0  0  0  0  0  0  0  0  0  0  0
   -4.2426   -1.3993   -1.1165 S   0  0  0  0  0  0  0  0  0  0  0  0
   -1.1088    0.8584    0.9602 N   0  0  0  0  0  0  0  0  0  0  0  0
   -2.0712    0.3321    1.9069 C   0  0  0  0  0  0  0  0  0  0  0  0
   -2.9552    1.4013    2.4350 C   0  0  0  0  0  0  0  0  0  0  0  0
   -2.7955    2.7466    2.7097 C   0  0  0  0  0  0  0  0  0  0  0  0
   -4.0350    3.2032    3.2235 C   0  0  0  0  0  0  0  0  0  0  0  0
   -4.8718    2.1119    3.2294 C   0  0  0  0  0  0  0  0  0  0  0  0
   -4.2254    1.0151    2.7502 O   0  0  0  0  0  0  0  0  0  0  0  0
    3.1430    0.2110    0.2774 N   0  0  0  0  0  0  0  0  0  0  0  0
    3.6764   -0.7272   -0.6301 C   0  0  0  0  0  0  0  0  0  0  0  0
    3.2876   -0.6117   -1.9706 C   0  0  0  0  0  0  0  0  0  0  0  0
    3.8001   -1.4760   -2.9402 C   0  0  0  0  0  0  0  0  0  0  0  0
    4.7030   -2.4632   -2.5708 C   0  0  0  0  0  0  0  0  0  0  0  0
    5.4101   -3.6281   -3.8769 Br  0  0  0  0  0  0  0  0  0  0  0  0
    5.0931   -2.5961   -1.2408 C   0  0  0  0  0  0  0  0  0  0  0  0
    4.5794   -1.7283   -0.2729 C   0  0  0  0  0  0  0  0  0  0  0  0
    2.7691    2.3549    1.6393 H   0  0  0  0  0  0  0  0  0  0  0  0
    3.2440    1.7145    3.2059 H   0  0  0  0  0  0  0  0  0  0  0  0
   -3.4290    1.2239   -0.5413 H   0  0  0  0  0  0  0  0  0  0  0  0
   -2.5668    1.4482   -2.0465 H   0  0  0  0  0  0  0  0  0  0  0  0
   -0.9385   -1.1191   -2.5487 H   0  0  0  0  0  0  0  0  0  0  0  0
   -1.9353   -3.5588   -2.8503 H   0  0  0  0  0  0  0  0  0  0  0  0
   -4.3503   -3.7323   -1.8083 H   0  0  0  0  0  0  0  0  0  0  0  0
   -2.6535   -0.4401    1.3972 H   0  0  0  0  0  0  0  0  0  0  0  0
   -1.5425   -0.1684    2.7251 H   0  0  0  0  0  0  0  0  0  0  0  0
   -1.8954    3.3288    2.5640 H   0  0  0  0  0  0  0  0  0  0  0  0
   -4.2863    4.2033    3.5518 H   0  0  0  0  0  0  0  0  0  0  0  0
   -5.9019    1.9580    3.5252 H   0  0  0  0  0  0  0  0  0  0  0  0
    2.4900    0.8860   -0.1189 H   0  0  0  0  0  0  0  0  0  0  0  0
    2.5893    0.1592   -2.2714 H   0  0  0  0  0  0  0  0  0  0  0  0
    3.4921   -1.3641   -3.9775 H   0  0  0  0  0  0  0  0  0  0  0  0
    5.7969   -3.3645   -0.9437 H   0  0  0  0  0  0  0  0  0  0  0  0
    4.9109   -1.8537    0.7524 H   0  0  0  0  0  0  0  0  0  0  0  0
  1  2  2  0
  2  3  1  0
  3  4  1  0
  4  5  1  0
  5  6  2  0
  6  7  1  0
  7  8  2  0
  8  9  1  0
  9 10  1  0
 10 11  2  0
 11 12  1  0
 12 13  2  0
 13 14  1  0
  8 15  1  0
 15 16  1  0
 16 17  1  0
 17 18  2  0
 18 19  1  0
 19 20  2  0
 20 21  1  0
  2 22  1  0
 22 23  1  0
 23 24  2  0
 24 25  1  0
 25 26  2  0
 26 27  1  0
 26 28  1  0
 28 29  2  0
 15  5  1  0
 21 17  1  0
 29 23  1  0
 14 10  1  0
  3 30  1  0
  3 31  1  0
  9 32  1  0
  9 33  1  0
 11 34  1  0
 12 35  1  0
 13 36  1  0
 16 37  1  0
 16 38  1  0
 18 39  1  0
 19 40  1  0
 20 41  1  0
 22 42  1  0
 24 43  1  0
 25 44  1  0
 28 45  1  0
 29 46  1  0
M  END
$$$$
