
     RDKit          3D

 41 42  0  0  0  0  0  0  0  0999 V2000
   -4.7175   -0.2741    2.1675 C   0  0  0  0  0  0  0  0  0  0  0  0
   -4.3119    0.8143    1.1838 C   0  0  0  0  0  0  0  0  0  0  0  0
   -3.7970    0.2334   -0.0630 N   0  0  0  0  0  0  0  0  0  0  0  0
   -4.7904    0.0180   -1.1237 C   0  0  0  0  0  0  0  0  0  0  0  0
   -4.8722    1.2234   -2.0494 C   0  0  0  0  0  0  0  0  0  0  0  0
   -2.4549   -0.0908   -0.2304 C   0  0  0  0  0  0  0  0  0  0  0  0
   -1.5245   -0.0123    0.8201 C   0  0  0  0  0  0  0  0  0  0  0  0
   -0.1667   -0.3359    0.6581 C   0  0  0  0  0  0  0  0  0  0  0  0
    0.3236   -0.7464   -0.5796 C   0  0  0  0  0  0  0  0  0  0  0  0
    1.7261   -1.1205   -0.7946 C   0  0  0  0  0  0  0  0  0  0  0  0
    2.7639   -0.4722   -0.2436 C   0  0  0  0  0  0  0  0  0  0  0  0
    4.1512   -0.9132   -0.5544 C   0  0  0  0  0  0  0  0  0  0  0  0
    4.3874   -1.7380   -1.4311 O   0  0  0  0  0  0  0  0  0  0  0  0
    5.2685   -0.3044    0.2035 C   0  0  0  0  0  0  0  0  0  0  0  0
    5.1400    0.2369    1.4852 C   0  0  0  0  0  0  0  0  0  0  0  0
    6.2598    0.7812    2.1143 C   0  0  0  0  0  0  0  0  0  0  0  0
    7.4719    0.7599    1.4427 C   0  0  0  0  0  0  0  0  0  0  0  0
    7.6342    0.2339    0.2106 N   0  0  0  0  0  0  0  0  0  0  0  0
    6.5315   -0.2944   -0.3782 C   0  0  0  0  0  0  0  0  0  0  0  0
   -0.5777   -0.8521   -1.6360 C   0  0  0  0  0  0  0  0  0  0  0  0
   -1.9326   -0.5250   -1.4605 C   0  0  0  0  0  0  0  0  0  0  0  0
   -5.4908   -0.9214    1.7409 H   0  0  0  0  0  0  0  0  0  0  0  0
   -3.8699   -0.9087    2.4433 H   0  0  0  0  0  0  0  0  0  0  0  0
   -5.1175    0.1740    3.0825 H   0  0  0  0  0  0  0  0  0  0  0  0
   -3.5945    1.5067    1.6384 H   0  0  0  0  0  0  0  0  0  0  0  0
   -5.1943    1.4301    0.9670 H   0  0  0  0  0  0  0  0  0  0  0  0
   -5.7797   -0.1406   -0.6755 H   0  0  0  0  0  0  0  0  0  0  0  0
   -4.5914   -0.8991   -1.6894 H   0  0  0  0  0  0  0  0  0  0  0  0
   -5.1458    2.1272   -1.4949 H   0  0  0  0  0  0  0  0  0  0  0  0
   -5.6309    1.0564   -2.8205 H   0  0  0  0  0  0  0  0  0  0  0  0
   -3.9184    1.4177   -2.5489 H   0  0  0  0  0  0  0  0  0  0  0  0
   -1.8323    0.2898    1.8161 H   0  0  0  0  0  0  0  0  0  0  0  0
    0.4862   -0.2741    1.5243 H   0  0  0  0  0  0  0  0  0  0  0  0
    1.8955   -1.9608   -1.4666 H   0  0  0  0  0  0  0  0  0  0  0  0
    2.6201    0.3913    0.3919 H   0  0  0  0  0  0  0  0  0  0  0  0
    4.1953    0.2256    2.0191 H   0  0  0  0  0  0  0  0  0  0  0  0
    6.1910    1.2060    3.1101 H   0  0  0  0  0  0  0  0  0  0  0  0
    8.3711    1.1717    1.8930 H   0  0  0  0  0  0  0  0  0  0  0  0
    6.7022   -0.7177   -1.3658 H   0  0  0  0  0  0  0  0  0  0  0  0
   -0.2423   -1.1802   -2.6176 H   0  0  0  0  0  0  0  0  0  0  0  0
   -2.5661   -0.6156   -2.3372 H   0  0  0  0  0  0  0  0  0  0  0  0
  1  2  1  0
  2  3  1  0
  3  4  1  0
  4  5  1  0
  3  6  1  0
  6  7  2  0
  7  8  1  0
  8  9  2  0
  9 10  1  0
 10 11  2  3
 11 12  1  0
 12 13  2  0
 12 14  1  0
 14 15  2  0
 15 16  1  0
 16 17  2  0
 17 18  1  0
 18 19  2  0
  9 20  1  0
 20 21  2  0
 21  6  1  0
 19 14  1  0
  1 22  1  0
  1 23  1  0
  1 24  1  0
  2 25  1  0
  2 26  1  0
  4 27  1  0
  4 28  1  0
  5 29  1  0
  5 30  1  0
  5 31  1  0
  7 32  1  0
  8 33  1  0
 10 34  1  0
 11 35  1  0
 15 36  1  0
 16 37  1  0
 17 38  1  0
 19 39  1  0
 20 40  1  0
 21 41  1  0
M  END
$$$$
