
     RDKit          3D

 44 47  0  0  0  0  0  0  0  0999 V2000
   -5.4867   -2.8549   -1.0136 C   0  0  0  0  0  0  0  0  0  0  0  0
   -4.9597   -1.4866   -1.4108 C   0  0  0  0  0  0  0  0  0  0  0  0
   -4.6003   -0.7302   -0.2567 O   0  0  0  0  0  0  0  0  0  0  0  0
   -3.3256   -0.8060    0.2330 C   0  0  0  0  0  0  0  0  0  0  0  0
   -2.3486   -1.6985   -0.2173 C   0  0  0  0  0  0  0  0  0  0  0  0
   -1.0812   -1.7342    0.3794 C   0  0  0  0  0  0  0  0  0  0  0  0
   -0.7691   -0.8786    1.4386 C   0  0  0  0  0  0  0  0  0  0  0  0
    0.5368   -0.9235    2.1014 C   0  0  0  0  0  0  0  0  0  0  0  0
    1.7189   -0.6120    1.5484 C   0  0  0  0  0  0  0  0  0  0  0  0
    3.2184   -0.7135    2.4760 S   0  0  0  0  0  0  0  0  0  0  0  0
    4.0986   -0.1903    1.1031 C   0  0  0  0  0  0  0  0  0  0  0  0
    5.3542    0.0257    0.8377 N   0  0  0  0  0  0  0  0  0  0  0  0
    5.2881    0.4224   -0.4914 C   0  0  0  0  0  0  0  0  0  0  0  0
    6.5668    0.8014   -1.3079 C   0  0  0  0  0  0  0  0  0  0  0  0
    7.8599    0.7885   -0.8200 C   0  0  0  0  0  0  0  0  0  0  0  0
    8.7015    1.1929   -1.8854 C   0  0  0  0  0  0  0  0  0  0  0  0
    7.8729    1.4296   -2.9560 C   0  0  0  0  0  0  0  0  0  0  0  0
    6.5793    1.1951   -2.6179 O   0  0  0  0  0  0  0  0  0  0  0  0
    4.0485    0.4519   -1.0213 N   0  0  0  0  0  0  0  0  0  0  0  0
    3.3178    0.0522    0.0328 N   0  0  0  0  0  0  0  0  0  0  0  0
    1.9560   -0.1392    0.1423 C   0  0  0  0  0  0  0  0  0  0  0  0
    1.1783    0.0574   -0.7713 O   0  0  0  0  0  0  0  0  0  0  0  0
   -1.7452    0.0024    1.9068 C   0  0  0  0  0  0  0  0  0  0  0  0
   -3.0026    0.0560    1.2946 C   0  0  0  0  0  0  0  0  0  0  0  0
   -3.8814    0.9528    1.8527 O   0  0  0  0  0  0  0  0  0  0  0  0
   -4.3769    1.9051    0.9043 C   0  0  0  0  0  0  0  0  0  0  0  0
   -4.6945    3.1850    1.6596 C   0  0  0  0  0  0  0  0  0  0  0  0
   -6.3181   -2.7546   -0.3085 H   0  0  0  0  0  0  0  0  0  0  0  0
   -4.7182   -3.4511   -0.5131 H   0  0  0  0  0  0  0  0  0  0  0  0
   -5.8354   -3.4039   -1.8929 H   0  0  0  0  0  0  0  0  0  0  0  0
   -5.7704   -0.9344   -1.9006 H   0  0  0  0  0  0  0  0  0  0  0  0
   -4.1515   -1.5445   -2.1482 H   0  0  0  0  0  0  0  0  0  0  0  0
   -2.5374   -2.3984   -1.0243 H   0  0  0  0  0  0  0  0  0  0  0  0
   -0.3465   -2.4424    0.0025 H   0  0  0  0  0  0  0  0  0  0  0  0
    0.4871   -1.2287    3.1460 H   0  0  0  0  0  0  0  0  0  0  0  0
    8.1507    0.5182    0.1861 H   0  0  0  0  0  0  0  0  0  0  0  0
    9.7769    1.2998   -1.8743 H   0  0  0  0  0  0  0  0  0  0  0  0
    8.0364    1.7533   -3.9742 H   0  0  0  0  0  0  0  0  0  0  0  0
   -1.5401    0.6678    2.7420 H   0  0  0  0  0  0  0  0  0  0  0  0
   -5.2979    1.5272    0.4456 H   0  0  0  0  0  0  0  0  0  0  0  0
   -3.6382    2.1232    0.1209 H   0  0  0  0  0  0  0  0  0  0  0  0
   -5.0575    3.9602    0.9789 H   0  0  0  0  0  0  0  0  0  0  0  0
   -3.8056    3.5572    2.1815 H   0  0  0  0  0  0  0  0  0  0  0  0
   -5.4590    3.0003    2.4222 H   0  0  0  0  0  0  0  0  0  0  0  0
  1  2  1  0
  2  3  1  0
  3  4  1  0
  4  5  2  0
  5  6  1  0
  6  7  2  0
  7  8  1  0
  8  9  2  3
  9 10  1  0
 10 11  1  0
 11 12  2  0
 12 13  1  0
 13 14  1  0
 14 15  2  0
 15 16  1  0
 16 17  2  0
 17 18  1  0
 13 19  2  0
 19 20  1  0
 20 21  1  0
 21 22  2  0
  7 23  1  0
 23 24  2  0
 24 25  1  0
 25 26  1  0
 26 27  1  0
 24  4  1  0
 21  9  1  0
 20 11  1  0
 18 14  1  0
  1 28  1  0
  1 29  1  0
  1 30  1  0
  2 31  1  0
  2 32  1  0
  5 33  1  0
  6 34  1  0
  8 35  1  0
 15 36  1  0
 16 37  1  0
 17 38  1  0
 23 39  1  0
 26 40  1  0
 26 41  1  0
 27 42  1  0
 27 43  1  0
 27 44  1  0
M  END
$$$$
