
     RDKit          3D

 57 59  0  0  0  0  0  0  0  0999 V2000
   -8.5431    1.5480   -3.3384 C   0  0  0  0  0  0  0  0  0  0  0  0
   -8.5510    0.7071   -2.1913 O   0  0  0  0  0  0  0  0  0  0  0  0
   -7.3617    0.1351   -1.8335 C   0  0  0  0  0  0  0  0  0  0  0  0
   -7.4320   -0.6987   -0.7116 C   0  0  0  0  0  0  0  0  0  0  0  0
   -6.2934   -1.3483   -0.2311 C   0  0  0  0  0  0  0  0  0  0  0  0
   -5.0738   -1.1509   -0.8787 C   0  0  0  0  0  0  0  0  0  0  0  0
   -3.6102   -1.9635   -0.2931 S   0  0  0  0  0  6  0  0  0  0  0  0
   -2.8599   -2.4054   -1.4490 O   0  0  0  0  0  0  0  0  0  0  0  0
   -3.9811   -2.8889    0.7554 O   0  0  0  0  0  0  0  0  0  0  0  0
   -2.7560   -0.6954    0.4122 N   0  0  0  0  0  0  0  0  0  0  0  0
   -3.3481   -0.0232    1.5781 C   0  0  0  0  0  0  0  0  0  0  0  0
   -2.1345    0.6049    2.2225 C   0  0  0  0  0  0  0  0  0  0  0  0
   -1.1152   -0.3821    2.0593 O   0  0  0  0  0  0  0  0  0  0  0  0
   -1.3718   -1.0462    0.8043 C   0  0  0  0  0  0  0  0  0  0  0  0
   -0.3776   -0.5646   -0.2785 C   0  0  0  0  0  0  0  0  0  0  0  0
    1.0127   -0.7824    0.0779 N   0  0  0  0  0  0  0  0  0  0  0  0
    1.7389    0.1569    0.7752 C   0  0  0  0  0  0  0  0  0  0  0  0
    1.3984    1.3072    1.0161 O   0  0  0  0  0  0  0  0  0  0  0  0
    3.1115   -0.3623    1.2622 C   0  0  0  0  0  0  0  0  0  0  0  0
    3.4527   -1.5087    1.0076 O   0  0  0  0  0  0  0  0  0  0  0  0
    3.8285    0.5792    1.9589 N   0  0  0  0  0  0  0  0  0  0  0  0
    5.1974    0.3744    2.3657 C   0  0  0  0  0  0  0  0  0  0  0  0
    6.1645    0.9088    1.3398 C   0  0  0  0  0  0  0  0  0  0  0  0
    6.1923    2.2850    1.0523 C   0  0  0  0  0  0  0  0  0  0  0  0
    7.0823    2.8006    0.1073 C   0  0  0  0  0  0  0  0  0  0  0  0
    7.9649    1.9516   -0.5564 C   0  0  0  0  0  0  0  0  0  0  0  0
    7.9539    0.5852   -0.2807 C   0  0  0  0  0  0  0  0  0  0  0  0
    7.0476    0.0669    0.6488 C   0  0  0  0  0  0  0  0  0  0  0  0
    7.0673   -1.2703    0.9482 O   0  0  0  0  0  0  0  0  0  0  0  0
    6.6149   -2.0519   -0.1585 C   0  0  0  0  0  0  0  0  0  0  0  0
   -4.9907   -0.3300   -2.0069 C   0  0  0  0  0  0  0  0  0  0  0  0
   -6.1370    0.3152   -2.4810 C   0  0  0  0  0  0  0  0  0  0  0  0
   -8.2525    0.9904   -4.2351 H   0  0  0  0  0  0  0  0  0  0  0  0
   -7.8949    2.4172   -3.1852 H   0  0  0  0  0  0  0  0  0  0  0  0
   -9.5620    1.9159   -3.4905 H   0  0  0  0  0  0  0  0  0  0  0  0
   -8.3873   -0.8461   -0.2122 H   0  0  0  0  0  0  0  0  0  0  0  0
   -6.3710   -1.9994    0.6362 H   0  0  0  0  0  0  0  0  0  0  0  0
   -4.0892    0.7268    1.2928 H   0  0  0  0  0  0  0  0  0  0  0  0
   -3.7984   -0.7515    2.2608 H   0  0  0  0  0  0  0  0  0  0  0  0
   -1.8223    1.5174    1.7026 H   0  0  0  0  0  0  0  0  0  0  0  0
   -2.2800    0.8276    3.2825 H   0  0  0  0  0  0  0  0  0  0  0  0
   -1.2450   -2.1184    0.9891 H   0  0  0  0  0  0  0  0  0  0  0  0
   -0.5195    0.5074   -0.4617 H   0  0  0  0  0  0  0  0  0  0  0  0
   -0.5512   -1.0904   -1.2222 H   0  0  0  0  0  0  0  0  0  0  0  0
    1.4135   -1.7163    0.0363 H   0  0  0  0  0  0  0  0  0  0  0  0
    3.4211    1.5078    2.0028 H   0  0  0  0  0  0  0  0  0  0  0  0
    5.3430    0.9100    3.3105 H   0  0  0  0  0  0  0  0  0  0  0  0
    5.3554   -0.6891    2.5705 H   0  0  0  0  0  0  0  0  0  0  0  0
    5.5188    2.9662    1.5682 H   0  0  0  0  0  0  0  0  0  0  0  0
    7.0914    3.8670   -0.1040 H   0  0  0  0  0  0  0  0  0  0  0  0
    8.6675    2.3541   -1.2811 H   0  0  0  0  0  0  0  0  0  0  0  0
    8.6619   -0.0699   -0.7800 H   0  0  0  0  0  0  0  0  0  0  0  0
    5.7372   -1.6102   -0.6453 H   0  0  0  0  0  0  0  0  0  0  0  0
    6.3321   -3.0381    0.2217 H   0  0  0  0  0  0  0  0  0  0  0  0
    7.4226   -2.1882   -0.8849 H   0  0  0  0  0  0  0  0  0  0  0  0
   -4.0411   -0.1905   -2.5192 H   0  0  0  0  0  0  0  0  0  0  0  0
   -6.0411    0.9472   -3.3580 H   0  0  0  0  0  0  0  0  0  0  0  0
  1  2  1  0
  2  3  1  0
  3  4  2  0
  4  5  1  0
  5  6  2  0
  6  7  1  0
  7  8  2  0
  7  9  2  0
  7 10  1  0
 10 11  1  0
 11 12  1  0
 12 13  1  0
 13 14  1  0
 14 15  1  0
 15 16  1  0
 16 17  1  0
 17 18  2  0
 17 19  1  0
 19 20  2  0
 19 21  1  0
 21 22  1  0
 22 23  1  0
 23 24  2  0
 24 25  1  0
 25 26  2  0
 26 27  1  0
 27 28  2  0
 28 29  1  0
 29 30  1  0
  6 31  1  0
 31 32  2  0
 32  3  1  0
 14 10  1  0
 28 23  1  0
  1 33  1  0
  1 34  1  0
  1 35  1  0
  4 36  1  0
  5 37  1  0
 11 38  1  0
 11 39  1  0
 12 40  1  0
 12 41  1  0
 14 42  1  0
 15 43  1  0
 15 44  1  0
 16 45  1  0
 21 46  1  0
 22 47  1  0
 22 48  1  0
 24 49  1  0
 25 50  1  0
 26 51  1  0
 27 52  1  0
 30 53  1  0
 30 54  1  0
 30 55  1  0
 31 56  1  0
 32 57  1  0
M  END
$$$$
