
     RDKit          3D

 47 48  0  0  0  0  0  0  0  0999 V2000
    1.2571    1.3111    4.7590 C   0  0  0  0  0  0  0  0  0  0  0  0
    2.3514    1.8441    3.8549 C   0  0  0  0  0  0  0  0  0  0  0  0
    2.0102    1.5110    2.5030 O   0  0  0  0  0  0  0  0  0  0  0  0
    2.9110    1.9240    1.5721 C   0  0  0  0  0  0  0  0  0  0  0  0
    3.9405    2.5324    1.8267 O   0  0  0  0  0  0  0  0  0  0  0  0
    2.5087    1.5279    0.1920 C   0  0  0  0  0  0  0  0  0  0  0  0
    3.5250    1.6452   -0.7949 C   0  0  0  0  0  0  0  0  0  0  0  0
    4.3371    1.7329   -1.6206 N   0  0  0  0  0  0  0  0  0  0  0  0
    1.2612    1.0758   -0.0563 C   0  0  0  0  0  0  0  0  0  0  0  0
    0.6206    0.6278   -1.3020 C   0  0  0  0  0  0  0  0  0  0  0  0
   -0.4553   -0.2086   -1.2759 C   0  0  0  0  0  0  0  0  0  0  0  0
   -0.8966   -0.8091   -0.0771 N   0  0  0  0  0  0  0  0  0  0  0  0
   -2.2782   -0.7101    0.4282 C   0  0  0  0  0  0  0  0  0  0  0  0
   -2.3093   -1.0247    1.9320 C   0  0  0  0  0  0  0  0  0  0  0  0
   -1.8671   -2.3540    2.2494 O   0  0  0  0  0  0  0  0  0  0  0  0
   -0.9532   -2.8928    1.2817 C   0  0  0  0  0  0  0  0  0  0  0  0
   -0.0683   -1.8276    0.6172 C   0  0  0  0  0  0  0  0  0  0  0  0
   -1.1762   -0.6101   -2.6025 C   0  0  0  0  0  0  0  0  0  0  0  0
   -2.5742    0.0192   -2.7308 C   0  0  0  0  0  0  0  0  0  0  0  0
   -1.2934   -2.1380   -2.7278 C   0  0  0  0  0  0  0  0  0  0  0  0
   -0.4177   -0.2286   -3.7724 O   0  0  0  0  0  0  0  0  0  0  0  0
    0.0785    1.1002   -3.7138 C   0  0  0  0  0  0  0  0  0  0  0  0
    1.1180    1.1951   -2.6116 C   0  0  0  0  0  0  0  0  0  0  0  0
    1.4705    1.5395    5.8068 H   0  0  0  0  0  0  0  0  0  0  0  0
    1.1580    0.2264    4.6458 H   0  0  0  0  0  0  0  0  0  0  0  0
    0.2893    1.7481    4.4913 H   0  0  0  0  0  0  0  0  0  0  0  0
    2.4231    2.9323    3.9604 H   0  0  0  0  0  0  0  0  0  0  0  0
    3.3089    1.3818    4.1193 H   0  0  0  0  0  0  0  0  0  0  0  0
    0.5742    1.0131    0.7894 H   0  0  0  0  0  0  0  0  0  0  0  0
   -2.9149   -1.4262   -0.1013 H   0  0  0  0  0  0  0  0  0  0  0  0
   -2.6660    0.3009    0.2627 H   0  0  0  0  0  0  0  0  0  0  0  0
   -3.3271   -0.9167    2.3199 H   0  0  0  0  0  0  0  0  0  0  0  0
   -1.6711   -0.3233    2.4825 H   0  0  0  0  0  0  0  0  0  0  0  0
   -0.3308   -3.6325    1.7953 H   0  0  0  0  0  0  0  0  0  0  0  0
   -1.5416   -3.4288    0.5278 H   0  0  0  0  0  0  0  0  0  0  0  0
    0.6151   -2.3124   -0.0892 H   0  0  0  0  0  0  0  0  0  0  0  0
    0.5299   -1.3280    1.3873 H   0  0  0  0  0  0  0  0  0  0  0  0
   -3.3166   -0.4761   -2.1000 H   0  0  0  0  0  0  0  0  0  0  0  0
   -2.5643    1.0803   -2.4583 H   0  0  0  0  0  0  0  0  0  0  0  0
   -2.9306   -0.0366   -3.7662 H   0  0  0  0  0  0  0  0  0  0  0  0
   -1.7081   -2.4163   -3.7043 H   0  0  0  0  0  0  0  0  0  0  0  0
   -1.9315   -2.5774   -1.9556 H   0  0  0  0  0  0  0  0  0  0  0  0
   -0.3055   -2.6103   -2.6681 H   0  0  0  0  0  0  0  0  0  0  0  0
    0.5422    1.3286   -4.6791 H   0  0  0  0  0  0  0  0  0  0  0  0
   -0.7363    1.8183   -3.5718 H   0  0  0  0  0  0  0  0  0  0  0  0
    1.4008    2.2486   -2.5077 H   0  0  0  0  0  0  0  0  0  0  0  0
    2.0025    0.6235   -2.9175 H   0  0  0  0  0  0  0  0  0  0  0  0
  1  2  1  0
  2  3  1  0
  3  4  1  0
  4  5  2  0
  4  6  1  0
  6  7  1  0
  7  8  3  0
  6  9  2  3
  9 10  1  0
 10 11  2  0
 11 12  1  0
 12 13  1  0
 13 14  1  0
 14 15  1  0
 15 16  1  0
 16 17  1  0
 11 18  1  0
 18 19  1  0
 18 20  1  0
 18 21  1  0
 21 22  1  0
 22 23  1  0
 23 10  1  0
 17 12  1  0
  1 24  1  0
  1 25  1  0
  1 26  1  0
  2 27  1  0
  2 28  1  0
  9 29  1  0
 13 30  1  0
 13 31  1  0
 14 32  1  0
 14 33  1  0
 16 34  1  0
 16 35  1  0
 17 36  1  0
 17 37  1  0
 19 38  1  0
 19 39  1  0
 19 40  1  0
 20 41  1  0
 20 42  1  0
 20 43  1  0
 22 44  1  0
 22 45  1  0
 23 46  1  0
 23 47  1  0
M  END
$$$$
