
     RDKit          3D

 46 49  0  0  0  0  0  0  0  0999 V2000
    3.5672   -1.6053    0.6765 O   0  0  0  0  0  0  0  0  0  0  0  0
    2.7417   -1.2898    1.5311 C   0  0  0  0  0  0  0  0  0  0  0  0
    2.3499   -2.2679    2.6305 C   0  0  0  0  0  0  0  0  0  0  0  0
    0.9062   -3.2542    2.1349 S   0  0  0  0  0  0  0  0  0  0  0  0
   -0.3039   -2.0229    2.1320 C   0  0  0  0  0  0  0  0  0  0  0  0
   -0.3180   -0.9862    2.9359 N   0  0  0  0  0  0  0  0  0  0  0  0
   -1.3436   -0.1708    2.5439 N   0  0  0  0  0  0  0  0  0  0  0  0
   -1.9397   -0.7220    1.5013 C   0  0  0  0  0  0  0  0  0  0  0  0
   -3.1099   -0.1525    0.7653 C   0  0  0  0  0  0  0  0  0  0  0  0
   -2.7804    1.1315    0.0576 C   0  0  0  0  0  0  0  0  0  0  0  0
   -2.0065    1.3223   -1.0722 C   0  0  0  0  0  0  0  0  0  0  0  0
   -1.9541    2.6872   -1.4719 C   0  0  0  0  0  0  0  0  0  0  0  0
   -2.6822    3.4975   -0.6317 C   0  0  0  0  0  0  0  0  0  0  0  0
   -3.4163    2.6157    0.6347 S   0  0  0  0  0  0  0  0  0  0  0  0
   -1.3187   -1.9238    1.2232 N   0  0  0  0  0  0  0  0  0  0  0  0
   -1.6708   -2.8791    0.1912 C   0  0  0  0  0  0  0  0  0  0  0  0
   -1.1408   -2.4876   -1.1367 C   0  0  0  0  0  0  0  0  0  0  0  0
   -1.6840   -2.4967   -2.4068 C   0  0  0  0  0  0  0  0  0  0  0  0
   -0.6630   -2.0503   -3.2809 C   0  0  0  0  0  0  0  0  0  0  0  0
    0.4338   -1.7951   -2.4914 C   0  0  0  0  0  0  0  0  0  0  0  0
    0.1507   -2.0548   -1.1918 O   0  0  0  0  0  0  0  0  0  0  0  0
    2.0905   -0.0674    1.6233 N   0  0  0  0  0  0  0  0  0  0  0  0
    2.2613    1.0673    0.8023 C   0  0  0  0  0  0  0  0  0  0  0  0
    1.4160    2.1578    1.0394 C   0  0  0  0  0  0  0  0  0  0  0  0
    1.5537    3.3295    0.2938 C   0  0  0  0  0  0  0  0  0  0  0  0
    0.5433    4.6833    0.6289 Cl  0  0  0  0  0  0  0  0  0  0  0  0
    2.5138    3.4266   -0.7067 C   0  0  0  0  0  0  0  0  0  0  0  0
    3.3441    2.3367   -0.9519 C   0  0  0  0  0  0  0  0  0  0  0  0
    4.5379    2.4476   -2.1884 Cl  0  0  0  0  0  0  0  0  0  0  0  0
    3.2282    1.1640   -0.2011 C   0  0  0  0  0  0  0  0  0  0  0  0
    2.1657   -1.7412    3.5719 H   0  0  0  0  0  0  0  0  0  0  0  0
    3.1947   -2.9426    2.8023 H   0  0  0  0  0  0  0  0  0  0  0  0
   -3.5068   -0.8605    0.0294 H   0  0  0  0  0  0  0  0  0  0  0  0
   -3.9211   -0.0002    1.4883 H   0  0  0  0  0  0  0  0  0  0  0  0
   -1.4992    0.5216   -1.5926 H   0  0  0  0  0  0  0  0  0  0  0  0
   -1.4096    3.0550   -2.3315 H   0  0  0  0  0  0  0  0  0  0  0  0
   -2.8106    4.5704   -0.6934 H   0  0  0  0  0  0  0  0  0  0  0  0
   -1.3000   -3.8688    0.4709 H   0  0  0  0  0  0  0  0  0  0  0  0
   -2.7631   -2.9560    0.1719 H   0  0  0  0  0  0  0  0  0  0  0  0
   -2.6838   -2.8061   -2.6777 H   0  0  0  0  0  0  0  0  0  0  0  0
   -0.7150   -1.9398   -4.3555 H   0  0  0  0  0  0  0  0  0  0  0  0
    1.4408   -1.4543   -2.6930 H   0  0  0  0  0  0  0  0  0  0  0  0
    1.3194   -0.0159    2.2920 H   0  0  0  0  0  0  0  0  0  0  0  0
    0.6505    2.1087    1.8106 H   0  0  0  0  0  0  0  0  0  0  0  0
    2.6172    4.3394   -1.2859 H   0  0  0  0  0  0  0  0  0  0  0  0
    3.9147    0.3495   -0.4038 H   0  0  0  0  0  0  0  0  0  0  0  0
  1  2  2  0
  2  3  1  0
  3  4  1  0
  4  5  1  0
  5  6  2  0
  6  7  1  0
  7  8  2  0
  8  9  1  0
  9 10  1  0
 10 11  2  0
 11 12  1  0
 12 13  2  0
 13 14  1  0
  8 15  1  0
 15 16  1  0
 16 17  1  0
 17 18  2  0
 18 19  1  0
 19 20  2  0
 20 21  1  0
  2 22  1  0
 22 23  1  0
 23 24  2  0
 24 25  1  0
 25 26  1  0
 25 27  2  0
 27 28  1  0
 28 29  1  0
 28 30  2  0
 15  5  1  0
 21 17  1  0
 30 23  1  0
 14 10  1  0
  3 31  1  0
  3 32  1  0
  9 33  1  0
  9 34  1  0
 11 35  1  0
 12 36  1  0
 13 37  1  0
 16 38  1  0
 16 39  1  0
 18 40  1  0
 19 41  1  0
 20 42  1  0
 22 43  1  0
 24 44  1  0
 27 45  1  0
 30 46  1  0
M  END
$$$$
