
     RDKit          3D

 57 59  0  0  0  0  0  0  0  0999 V2000
    6.1120   -4.0421   -3.2187 C   0  0  0  0  0  0  0  0  0  0  0  0
    6.6438   -2.7976   -2.7824 O   0  0  0  0  0  0  0  0  0  0  0  0
    6.3046   -2.3908   -1.5214 C   0  0  0  0  0  0  0  0  0  0  0  0
    6.8409   -1.1584   -1.1414 C   0  0  0  0  0  0  0  0  0  0  0  0
    6.5739   -0.6210    0.1203 C   0  0  0  0  0  0  0  0  0  0  0  0
    5.7688   -1.3180    1.0286 C   0  0  0  0  0  0  0  0  0  0  0  0
    5.4514   -0.7375    2.3818 C   0  0  0  0  0  0  0  0  0  0  0  0
    4.2161    0.0002    2.3464 N   0  0  0  0  0  0  0  0  0  0  0  0
    3.0112   -0.5682    2.6837 C   0  0  0  0  0  0  0  0  0  0  0  0
    2.8408   -1.6723    3.1826 O   0  0  0  0  0  0  0  0  0  0  0  0
    1.7951    0.3271    2.3538 C   0  0  0  0  0  0  0  0  0  0  0  0
    1.9615    1.4129    1.8150 O   0  0  0  0  0  0  0  0  0  0  0  0
    0.5889   -0.2292    2.7199 N   0  0  0  0  0  0  0  0  0  0  0  0
   -0.6744    0.3372    2.2782 C   0  0  0  0  0  0  0  0  0  0  0  0
   -1.1470   -0.2148    0.9055 C   0  0  0  0  0  0  0  0  0  0  0  0
   -0.0896   -0.0481   -0.0631 O   0  0  0  0  0  0  0  0  0  0  0  0
   -0.5285    0.8900   -1.0523 C   0  0  0  0  0  0  0  0  0  0  0  0
   -1.7702    1.5491   -0.4915 C   0  0  0  0  0  0  0  0  0  0  0  0
   -2.3202    0.4686    0.3295 N   0  0  0  0  0  0  0  0  0  0  0  0
   -3.6065    0.7925    1.3508 S   0  0  0  0  0  6  0  0  0  0  0  0
   -3.2863    1.9913    2.0954 O   0  0  0  0  0  0  0  0  0  0  0  0
   -3.9519   -0.4383    2.0278 O   0  0  0  0  0  0  0  0  0  0  0  0
   -4.9134    1.1688    0.2133 C   0  0  0  0  0  0  0  0  0  0  0  0
   -5.4167    0.1528   -0.6009 C   0  0  0  0  0  0  0  0  0  0  0  0
   -6.4430    0.4445   -1.5003 C   0  0  0  0  0  0  0  0  0  0  0  0
   -6.9724    1.7371   -1.5861 C   0  0  0  0  0  0  0  0  0  0  0  0
   -7.9711    1.8816   -2.5089 O   0  0  0  0  0  0  0  0  0  0  0  0
   -8.5731    3.1657   -2.6132 C   0  0  0  0  0  0  0  0  0  0  0  0
   -6.4664    2.7439   -0.7598 C   0  0  0  0  0  0  0  0  0  0  0  0
   -5.4364    2.4619    0.1441 C   0  0  0  0  0  0  0  0  0  0  0  0
    5.2253   -2.5504    0.6403 C   0  0  0  0  0  0  0  0  0  0  0  0
    5.4930   -3.0850   -0.6248 C   0  0  0  0  0  0  0  0  0  0  0  0
    6.4751   -4.2234   -4.2354 H   0  0  0  0  0  0  0  0  0  0  0  0
    6.4649   -4.8653   -2.5887 H   0  0  0  0  0  0  0  0  0  0  0  0
    5.0182   -4.0120   -3.2563 H   0  0  0  0  0  0  0  0  0  0  0  0
    7.4705   -0.6097   -1.8378 H   0  0  0  0  0  0  0  0  0  0  0  0
    6.9991    0.3445    0.3845 H   0  0  0  0  0  0  0  0  0  0  0  0
    5.3996   -1.5328    3.1342 H   0  0  0  0  0  0  0  0  0  0  0  0
    6.2400   -0.0442    2.6942 H   0  0  0  0  0  0  0  0  0  0  0  0
    4.1649    0.8659    1.8173 H   0  0  0  0  0  0  0  0  0  0  0  0
    0.6273   -1.1827    3.0716 H   0  0  0  0  0  0  0  0  0  0  0  0
   -1.4051    0.1117    3.0603 H   0  0  0  0  0  0  0  0  0  0  0  0
   -0.5529    1.4248    2.2257 H   0  0  0  0  0  0  0  0  0  0  0  0
   -1.3419   -1.2899    0.9806 H   0  0  0  0  0  0  0  0  0  0  0  0
    0.2687    1.6049   -1.2728 H   0  0  0  0  0  0  0  0  0  0  0  0
   -0.7570    0.3272   -1.9639 H   0  0  0  0  0  0  0  0  0  0  0  0
   -1.4969    2.4099    0.1277 H   0  0  0  0  0  0  0  0  0  0  0  0
   -2.4474    1.8683   -1.2867 H   0  0  0  0  0  0  0  0  0  0  0  0
   -5.0184   -0.8573   -0.5398 H   0  0  0  0  0  0  0  0  0  0  0  0
   -6.8398   -0.3420   -2.1388 H   0  0  0  0  0  0  0  0  0  0  0  0
   -7.8458    3.9165   -2.9389 H   0  0  0  0  0  0  0  0  0  0  0  0
   -9.3554    3.1071   -3.3762 H   0  0  0  0  0  0  0  0  0  0  0  0
   -9.0482    3.4573   -1.6707 H   0  0  0  0  0  0  0  0  0  0  0  0
   -6.8534    3.7575   -0.7917 H   0  0  0  0  0  0  0  0  0  0  0  0
   -5.0557    3.2529    0.7868 H   0  0  0  0  0  0  0  0  0  0  0  0
    4.5808   -3.1008    1.3246 H   0  0  0  0  0  0  0  0  0  0  0  0
    5.0484   -4.0418   -0.8760 H   0  0  0  0  0  0  0  0  0  0  0  0
  1  2  1  0
  2  3  1  0
  3  4  2  0
  4  5  1  0
  5  6  2  0
  6  7  1  0
  7  8  1  0
  8  9  1  0
  9 10  2  0
  9 11  1  0
 11 12  2  0
 11 13  1  0
 13 14  1  0
 14 15  1  0
 15 16  1  0
 16 17  1  0
 17 18  1  0
 18 19  1  0
 19 20  1  0
 20 21  2  0
 20 22  2  0
 20 23  1  0
 23 24  2  0
 24 25  1  0
 25 26  2  0
 26 27  1  0
 27 28  1  0
 26 29  1  0
 29 30  2  0
  6 31  1  0
 31 32  2  0
 32  3  1  0
 19 15  1  0
 30 23  1  0
  1 33  1  0
  1 34  1  0
  1 35  1  0
  4 36  1  0
  5 37  1  0
  7 38  1  0
  7 39  1  0
  8 40  1  0
 13 41  1  0
 14 42  1  0
 14 43  1  0
 15 44  1  0
 17 45  1  0
 17 46  1  0
 18 47  1  0
 18 48  1  0
 24 49  1  0
 25 50  1  0
 28 51  1  0
 28 52  1  0
 28 53  1  0
 29 54  1  0
 30 55  1  0
 31 56  1  0
 32 57  1  0
M  END
$$$$
