
     RDKit          3D

 51 53  0  0  0  0  0  0  0  0999 V2000
    5.0721   -1.4909   -2.4399 C   0  0  0  0  0  0  0  0  0  0  0  0
    4.3920   -0.3803   -1.8660 O   0  0  0  0  0  0  0  0  0  0  0  0
    3.0721   -0.5487   -1.5384 C   0  0  0  0  0  0  0  0  0  0  0  0
    2.3887   -1.7686   -1.6028 C   0  0  0  0  0  0  0  0  0  0  0  0
    1.0463   -1.8531   -1.2192 C   0  0  0  0  0  0  0  0  0  0  0  0
    0.3790   -0.7161   -0.7643 C   0  0  0  0  0  0  0  0  0  0  0  0
   -1.0360   -0.8356   -0.3553 C   0  0  0  0  0  0  0  0  0  0  0  0
   -1.7160    0.1931    0.0413 N   0  0  0  0  0  0  0  0  0  0  0  0
   -3.0362    0.0070    0.3624 N   0  0  0  0  0  0  0  0  0  0  0  0
   -3.9225   -0.8469   -0.2822 C   0  0  0  0  0  0  0  0  0  0  0  0
   -3.6065   -1.6594   -1.1509 O   0  0  0  0  0  0  0  0  0  0  0  0
   -5.3685   -0.7526    0.1300 C   0  0  0  0  0  0  0  0  0  0  0  0
   -6.2233   -1.7501   -0.3806 C   0  0  0  0  0  0  0  0  0  0  0  0
   -7.5805   -1.7687   -0.0628 C   0  0  0  0  0  0  0  0  0  0  0  0
   -8.1044   -0.7886    0.7695 C   0  0  0  0  0  0  0  0  0  0  0  0
   -7.2753    0.2120    1.2824 C   0  0  0  0  0  0  0  0  0  0  0  0
   -5.9064    0.2452    0.9720 C   0  0  0  0  0  0  0  0  0  0  0  0
   -5.0544    1.2146    1.4392 O   0  0  0  0  0  0  0  0  0  0  0  0
   -5.5846    2.2168    2.3022 C   0  0  0  0  0  0  0  0  0  0  0  0
    1.0489    0.5066   -0.6982 C   0  0  0  0  0  0  0  0  0  0  0  0
    2.3960    0.6033   -1.0917 C   0  0  0  0  0  0  0  0  0  0  0  0
    3.0892    1.9443   -0.9853 C   0  0  0  0  0  0  0  0  0  0  0  0
    3.4350    2.2470    0.3761 O   0  0  0  0  0  0  0  0  0  0  0  0
    4.5667    1.5969    0.7929 C   0  0  0  0  0  0  0  0  0  0  0  0
    5.8250    1.8668    0.2535 C   0  0  0  0  0  0  0  0  0  0  0  0
    5.9651    2.7895   -0.7104 F   0  0  0  0  0  0  0  0  0  0  0  0
    6.9467    1.1875    0.7166 C   0  0  0  0  0  0  0  0  0  0  0  0
    8.1507    1.4418    0.1841 F   0  0  0  0  0  0  0  0  0  0  0  0
    6.8219    0.2499    1.7329 C   0  0  0  0  0  0  0  0  0  0  0  0
    7.9046   -0.4043    2.1773 F   0  0  0  0  0  0  0  0  0  0  0  0
    5.5781   -0.0036    2.2950 C   0  0  0  0  0  0  0  0  0  0  0  0
    5.4618   -0.9001    3.2852 F   0  0  0  0  0  0  0  0  0  0  0  0
    4.4550    0.6735    1.8328 C   0  0  0  0  0  0  0  0  0  0  0  0
    3.2591    0.4236    2.3866 F   0  0  0  0  0  0  0  0  0  0  0  0
    6.0875   -1.1675   -2.6874 H   0  0  0  0  0  0  0  0  0  0  0  0
    4.5896   -1.8134   -3.3679 H   0  0  0  0  0  0  0  0  0  0  0  0
    5.1526   -2.3154   -1.7244 H   0  0  0  0  0  0  0  0  0  0  0  0
    2.8720   -2.6788   -1.9423 H   0  0  0  0  0  0  0  0  0  0  0  0
    0.5333   -2.8104   -1.2771 H   0  0  0  0  0  0  0  0  0  0  0  0
   -1.4554   -1.8555   -0.3817 H   0  0  0  0  0  0  0  0  0  0  0  0
   -3.4433    0.7802    0.8855 H   0  0  0  0  0  0  0  0  0  0  0  0
   -5.8292   -2.5260   -1.0363 H   0  0  0  0  0  0  0  0  0  0  0  0
   -8.2229   -2.5470   -0.4673 H   0  0  0  0  0  0  0  0  0  0  0  0
   -9.1628   -0.7984    1.0198 H   0  0  0  0  0  0  0  0  0  0  0  0
   -7.7368    0.9572    1.9222 H   0  0  0  0  0  0  0  0  0  0  0  0
   -6.3431    2.8179    1.7887 H   0  0  0  0  0  0  0  0  0  0  0  0
   -5.9775    1.7767    3.2252 H   0  0  0  0  0  0  0  0  0  0  0  0
   -4.7626    2.8851    2.5798 H   0  0  0  0  0  0  0  0  0  0  0  0
    0.5268    1.3893   -0.3322 H   0  0  0  0  0  0  0  0  0  0  0  0
    3.9426    2.0301   -1.6676 H   0  0  0  0  0  0  0  0  0  0  0  0
    2.3900    2.7242   -1.3121 H   0  0  0  0  0  0  0  0  0  0  0  0
  1  2  1  0
  2  3  1  0
  3  4  2  0
  4  5  1  0
  5  6  2  0
  6  7  1  0
  7  8  2  3
  8  9  1  0
  9 10  1  0
 10 11  2  0
 10 12  1  0
 12 13  2  0
 13 14  1  0
 14 15  2  0
 15 16  1  0
 16 17  2  0
 17 18  1  0
 18 19  1  0
  6 20  1  0
 20 21  2  0
 21 22  1  0
 22 23  1  0
 23 24  1  0
 24 25  2  0
 25 26  1  0
 25 27  1  0
 27 28  1  0
 27 29  2  0
 29 30  1  0
 29 31  1  0
 31 32  1  0
 31 33  2  0
 33 34  1  0
 21  3  1  0
 33 24  1  0
 17 12  1  0
  1 35  1  0
  1 36  1  0
  1 37  1  0
  4 38  1  0
  5 39  1  0
  7 40  1  0
  9 41  1  0
 13 42  1  0
 14 43  1  0
 15 44  1  0
 16 45  1  0
 19 46  1  0
 19 47  1  0
 19 48  1  0
 20 49  1  0
 22 50  1  0
 22 51  1  0
M  END
$$$$
