
     RDKit          3D

 38 39  0  0  0  0  0  0  0  0999 V2000
    1.2036    2.2012    0.8326 C   0  0  0  0  0  0  0  0  0  0  0  0
    0.6249    0.8679    0.4148 C   0  0  0  0  0  0  0  0  0  0  0  0
    0.7975    0.4576   -1.0112 C   0  0  0  0  0  0  0  0  0  0  0  0
    1.9791    0.3094   -1.6286 C   0  0  0  0  0  0  0  0  0  0  0  0
    3.3068    0.4696   -1.0280 C   0  0  0  0  0  0  0  0  0  0  0  0
    4.2340    1.3265   -1.6318 C   0  0  0  0  0  0  0  0  0  0  0  0
    5.5117    1.4797   -1.0889 C   0  0  0  0  0  0  0  0  0  0  0  0
    5.8741    0.7697    0.0547 C   0  0  0  0  0  0  0  0  0  0  0  0
    4.9618   -0.0972    0.6536 C   0  0  0  0  0  0  0  0  0  0  0  0
    3.6843   -0.2515    0.1113 C   0  0  0  0  0  0  0  0  0  0  0  0
    0.0008    0.1843    1.3284 N   0  0  0  0  0  0  0  0  0  0  0  0
   -0.5503   -1.0082    0.9253 N   0  0  0  0  0  0  0  0  0  0  0  0
   -1.9275   -0.9994    0.5905 C   0  0  0  0  0  0  0  0  0  0  0  0
   -2.4648    0.0393   -0.0769 N   0  0  0  0  0  0  0  0  0  0  0  0
   -3.7784   -0.0163   -0.3673 C   0  0  0  0  0  0  0  0  0  0  0  0
   -4.3707    1.1515   -1.0957 C   0  0  0  0  0  0  0  0  0  0  0  0
   -4.5656   -1.0930   -0.0183 C   0  0  0  0  0  0  0  0  0  0  0  0
   -3.9364   -2.1221    0.6503 C   0  0  0  0  0  0  0  0  0  0  0  0
   -4.7101   -3.3359    1.0682 C   0  0  0  0  0  0  0  0  0  0  0  0
   -2.6238   -2.0895    0.9563 N   0  0  0  0  0  0  0  0  0  0  0  0
    1.5483    2.7791   -0.0287 H   0  0  0  0  0  0  0  0  0  0  0  0
    2.0396    2.0368    1.5181 H   0  0  0  0  0  0  0  0  0  0  0  0
    0.4331    2.7814    1.3498 H   0  0  0  0  0  0  0  0  0  0  0  0
   -0.1284    0.2583   -1.5404 H   0  0  0  0  0  0  0  0  0  0  0  0
    1.9844    0.0226   -2.6779 H   0  0  0  0  0  0  0  0  0  0  0  0
    3.9662    1.8875   -2.5239 H   0  0  0  0  0  0  0  0  0  0  0  0
    6.2240    2.1527   -1.5589 H   0  0  0  0  0  0  0  0  0  0  0  0
    6.8682    0.8891    0.4774 H   0  0  0  0  0  0  0  0  0  0  0  0
    5.2434   -0.6560    1.5423 H   0  0  0  0  0  0  0  0  0  0  0  0
    2.9864   -0.9390    0.5855 H   0  0  0  0  0  0  0  0  0  0  0  0
   -0.5171   -1.7402    1.6349 H   0  0  0  0  0  0  0  0  0  0  0  0
   -3.6101    1.9133   -1.2954 H   0  0  0  0  0  0  0  0  0  0  0  0
   -4.7879    0.8276   -2.0543 H   0  0  0  0  0  0  0  0  0  0  0  0
   -5.1624    1.6101   -0.4951 H   0  0  0  0  0  0  0  0  0  0  0  0
   -5.6209   -1.1283   -0.2564 H   0  0  0  0  0  0  0  0  0  0  0  0
   -5.5169   -3.0536    1.7517 H   0  0  0  0  0  0  0  0  0  0  0  0
   -4.0627   -4.0530    1.5833 H   0  0  0  0  0  0  0  0  0  0  0  0
   -5.1381   -3.8322    0.1916 H   0  0  0  0  0  0  0  0  0  0  0  0
  1  2  1  0
  2  3  1  0
  3  4  2  3
  4  5  1  0
  5  6  2  0
  6  7  1  0
  7  8  2  0
  8  9  1  0
  9 10  2  0
  2 11  2  3
 11 12  1  0
 12 13  1  0
 13 14  2  0
 14 15  1  0
 15 16  1  0
 15 17  2  0
 17 18  1  0
 18 19  1  0
 18 20  2  0
 10  5  1  0
 20 13  1  0
  1 21  1  0
  1 22  1  0
  1 23  1  0
  3 24  1  0
  4 25  1  0
  6 26  1  0
  7 27  1  0
  8 28  1  0
  9 29  1  0
 10 30  1  0
 12 31  1  0
 16 32  1  0
 16 33  1  0
 16 34  1  0
 17 35  1  0
 19 36  1  0
 19 37  1  0
 19 38  1  0
M  END
$$$$
