
     RDKit          3D

 55 58  0  0  0  0  0  0  0  0999 V2000
    4.2905   -2.2584   -1.6093 C   0  0  0  0  0  0  0  0  0  0  0  0
    4.1224   -2.3908   -0.1853 N   0  0  0  0  0  0  0  0  0  0  0  0
    5.1096   -2.6090    0.7499 C   0  0  0  0  0  0  0  0  0  0  0  0
    6.5705   -2.7283    0.4623 C   0  0  0  0  0  0  0  0  0  0  0  0
    7.1957   -1.4507   -0.0556 C   0  0  0  0  0  0  0  0  0  0  0  0
    7.9156   -1.4471   -1.2596 C   0  0  0  0  0  0  0  0  0  0  0  0
    8.4965   -0.2696   -1.7341 C   0  0  0  0  0  0  0  0  0  0  0  0
    8.3719    0.9131   -1.0081 C   0  0  0  0  0  0  0  0  0  0  0  0
    7.6720    0.9197    0.1965 C   0  0  0  0  0  0  0  0  0  0  0  0
    7.0907   -0.2558    0.6734 C   0  0  0  0  0  0  0  0  0  0  0  0
    4.5525   -2.6840    1.9442 N   0  0  0  0  0  0  0  0  0  0  0  0
    3.2014   -2.4896    1.8018 N   0  0  0  0  0  0  0  0  0  0  0  0
    2.9587   -2.3048    0.5266 C   0  0  0  0  0  0  0  0  0  0  0  0
    1.4183   -1.9632   -0.1745 S   0  0  0  0  0  0  0  0  0  0  0  0
    0.3350   -2.3814    1.2241 C   0  0  0  0  0  0  0  0  0  0  0  0
   -1.1031   -2.0537    0.8584 C   0  0  0  0  0  0  0  0  0  0  0  0
   -1.8841   -2.9366    0.5146 O   0  0  0  0  0  0  0  0  0  0  0  0
   -1.3850   -0.6990    0.9667 N   0  0  0  0  0  0  0  0  0  0  0  0
   -2.6124   -0.0530    0.7212 C   0  0  0  0  0  0  0  0  0  0  0  0
   -2.6460    1.3348    0.8576 C   0  0  0  0  0  0  0  0  0  0  0  0
   -3.8315    2.0500    0.6294 C   0  0  0  0  0  0  0  0  0  0  0  0
   -5.0251    1.4149    0.2592 C   0  0  0  0  0  0  0  0  0  0  0  0
   -6.1911    2.1229    0.0374 N   0  0  0  0  0  0  0  0  0  0  0  0
   -6.1859    3.5613   -0.2742 C   0  0  0  0  0  0  0  0  0  0  0  0
   -7.4060    3.9209   -1.1395 C   0  0  0  0  0  0  0  0  0  0  0  0
   -8.6671    3.6165   -0.5281 O   0  0  0  0  0  0  0  0  0  0  0  0
   -8.6063    2.4973    0.3675 C   0  0  0  0  0  0  0  0  0  0  0  0
   -7.5115    1.4729    0.0228 C   0  0  0  0  0  0  0  0  0  0  0  0
   -4.9653    0.0193    0.1344 C   0  0  0  0  0  0  0  0  0  0  0  0
   -3.7838   -0.7068    0.3588 C   0  0  0  0  0  0  0  0  0  0  0  0
    4.3589   -1.1949   -1.8507 H   0  0  0  0  0  0  0  0  0  0  0  0
    3.4423   -2.7149   -2.1249 H   0  0  0  0  0  0  0  0  0  0  0  0
    5.1963   -2.7783   -1.9271 H   0  0  0  0  0  0  0  0  0  0  0  0
    6.7269   -3.5487   -0.2487 H   0  0  0  0  0  0  0  0  0  0  0  0
    7.1006   -3.0182    1.3785 H   0  0  0  0  0  0  0  0  0  0  0  0
    8.0349   -2.3614   -1.8368 H   0  0  0  0  0  0  0  0  0  0  0  0
    9.0529   -0.2756   -2.6681 H   0  0  0  0  0  0  0  0  0  0  0  0
    8.8275    1.8287   -1.3764 H   0  0  0  0  0  0  0  0  0  0  0  0
    7.5821    1.8394    0.7691 H   0  0  0  0  0  0  0  0  0  0  0  0
    6.5529   -0.2351    1.6207 H   0  0  0  0  0  0  0  0  0  0  0  0
    0.6153   -1.8178    2.1207 H   0  0  0  0  0  0  0  0  0  0  0  0
    0.4073   -3.4495    1.4540 H   0  0  0  0  0  0  0  0  0  0  0  0
   -0.6083   -0.0962    1.2106 H   0  0  0  0  0  0  0  0  0  0  0  0
   -1.7579    1.8896    1.1477 H   0  0  0  0  0  0  0  0  0  0  0  0
   -3.8023    3.1264    0.7742 H   0  0  0  0  0  0  0  0  0  0  0  0
   -5.2860    3.8461   -0.8311 H   0  0  0  0  0  0  0  0  0  0  0  0
   -6.2145    4.1267    0.6644 H   0  0  0  0  0  0  0  0  0  0  0  0
   -7.3640    3.3845   -2.0951 H   0  0  0  0  0  0  0  0  0  0  0  0
   -7.4021    4.9915   -1.3676 H   0  0  0  0  0  0  0  0  0  0  0  0
   -8.4483    2.8932    1.3777 H   0  0  0  0  0  0  0  0  0  0  0  0
   -9.5890    2.0152    0.3572 H   0  0  0  0  0  0  0  0  0  0  0  0
   -7.6924    1.0543   -0.9740 H   0  0  0  0  0  0  0  0  0  0  0  0
   -7.5639    0.6652    0.7616 H   0  0  0  0  0  0  0  0  0  0  0  0
   -5.8419   -0.5478   -0.1672 H   0  0  0  0  0  0  0  0  0  0  0  0
   -3.8242   -1.7841    0.2351 H   0  0  0  0  0  0  0  0  0  0  0  0
  1  2  1  0
  2  3  1  0
  3  4  1  0
  4  5  1  0
  5  6  2  0
  6  7  1  0
  7  8  2  0
  8  9  1  0
  9 10  2  0
  3 11  2  0
 11 12  1  0
 12 13  2  0
 13 14  1  0
 14 15  1  0
 15 16  1  0
 16 17  2  0
 16 18  1  0
 18 19  1  0
 19 20  2  0
 20 21  1  0
 21 22  2  0
 22 23  1  0
 23 24  1  0
 24 25  1  0
 25 26  1  0
 26 27  1  0
 27 28  1  0
 22 29  1  0
 29 30  2  0
 13  2  1  0
 30 19  1  0
 10  5  1  0
 28 23  1  0
  1 31  1  0
  1 32  1  0
  1 33  1  0
  4 34  1  0
  4 35  1  0
  6 36  1  0
  7 37  1  0
  8 38  1  0
  9 39  1  0
 10 40  1  0
 15 41  1  0
 15 42  1  0
 18 43  1  0
 20 44  1  0
 21 45  1  0
 24 46  1  0
 24 47  1  0
 25 48  1  0
 25 49  1  0
 27 50  1  0
 27 51  1  0
 28 52  1  0
 28 53  1  0
 29 54  1  0
 30 55  1  0
M  END
$$$$
