
     RDKit          3D

 45 46  0  0  0  0  0  0  0  0999 V2000
    6.5918   -3.2495    0.7726 C   0  0  0  0  0  0  0  0  0  0  0  0
    5.8629   -2.3751   -0.0810 O   0  0  0  0  0  0  0  0  0  0  0  0
    4.9448   -1.5530    0.5125 C   0  0  0  0  0  0  0  0  0  0  0  0
    4.6461   -1.5063    1.8748 C   0  0  0  0  0  0  0  0  0  0  0  0
    3.6777   -0.6152    2.3490 C   0  0  0  0  0  0  0  0  0  0  0  0
    2.9925    0.2241    1.4618 C   0  0  0  0  0  0  0  0  0  0  0  0
    1.9958    1.1532    2.0352 C   0  0  0  0  0  0  0  0  0  0  0  0
    2.2944    1.8308    3.0161 O   0  0  0  0  0  0  0  0  0  0  0  0
    0.6186    1.2400    1.4816 C   0  0  0  0  0  0  0  0  0  0  0  0
    0.0204    0.2760    0.7653 C   0  0  0  0  0  0  0  0  0  0  0  0
   -1.3546    0.3863    0.2562 C   0  0  0  0  0  0  0  0  0  0  0  0
   -2.3999    0.8786    1.0529 C   0  0  0  0  0  0  0  0  0  0  0  0
   -3.7030    0.9497    0.5539 C   0  0  0  0  0  0  0  0  0  0  0  0
   -4.7862    1.4177    1.2525 O   0  0  0  0  0  0  0  0  0  0  0  0
   -4.5921    1.7475    2.6208 C   0  0  0  0  0  0  0  0  0  0  0  0
   -3.9485    0.5240   -0.7625 C   0  0  0  0  0  0  0  0  0  0  0  0
   -5.2370    0.5506   -1.2515 O   0  0  0  0  0  0  0  0  0  0  0  0
   -5.4831    1.8014   -1.8914 C   0  0  0  0  0  0  0  0  0  0  0  0
   -2.9223   -0.0058   -1.5627 C   0  0  0  0  0  0  0  0  0  0  0  0
   -3.2824   -0.4139   -2.8213 O   0  0  0  0  0  0  0  0  0  0  0  0
   -2.3077   -1.1054   -3.5890 C   0  0  0  0  0  0  0  0  0  0  0  0
   -1.6269   -0.0662   -1.0437 C   0  0  0  0  0  0  0  0  0  0  0  0
    3.3125    0.1956    0.1022 C   0  0  0  0  0  0  0  0  0  0  0  0
    2.7026    1.0511   -0.7716 O   0  0  0  0  0  0  0  0  0  0  0  0
    4.2774   -0.6962   -0.3701 C   0  0  0  0  0  0  0  0  0  0  0  0
    7.2813   -3.8268    0.1492 H   0  0  0  0  0  0  0  0  0  0  0  0
    5.9241   -3.9574    1.2746 H   0  0  0  0  0  0  0  0  0  0  0  0
    7.1894   -2.6863    1.4970 H   0  0  0  0  0  0  0  0  0  0  0  0
    5.1492   -2.1425    2.5959 H   0  0  0  0  0  0  0  0  0  0  0  0
    3.4592   -0.5733    3.4147 H   0  0  0  0  0  0  0  0  0  0  0  0
    0.1028    2.1556    1.7537 H   0  0  0  0  0  0  0  0  0  0  0  0
    0.5394   -0.6434    0.5086 H   0  0  0  0  0  0  0  0  0  0  0  0
   -2.1772    1.1934    2.0672 H   0  0  0  0  0  0  0  0  0  0  0  0
   -5.5603    2.0478    3.0329 H   0  0  0  0  0  0  0  0  0  0  0  0
   -3.9084    2.5960    2.7274 H   0  0  0  0  0  0  0  0  0  0  0  0
   -4.2418    0.8815    3.1922 H   0  0  0  0  0  0  0  0  0  0  0  0
   -6.5091    1.7863   -2.2712 H   0  0  0  0  0  0  0  0  0  0  0  0
   -5.3970    2.6356   -1.1865 H   0  0  0  0  0  0  0  0  0  0  0  0
   -4.8108    1.9543   -2.7428 H   0  0  0  0  0  0  0  0  0  0  0  0
   -2.7835   -1.4305   -4.5192 H   0  0  0  0  0  0  0  0  0  0  0  0
   -1.9510   -2.0000   -3.0676 H   0  0  0  0  0  0  0  0  0  0  0  0
   -1.4767   -0.4441   -3.8548 H   0  0  0  0  0  0  0  0  0  0  0  0
   -0.8052   -0.4515   -1.6390 H   0  0  0  0  0  0  0  0  0  0  0  0
    3.1504    1.0017   -1.6333 H   0  0  0  0  0  0  0  0  0  0  0  0
    4.5310   -0.7365   -1.4259 H   0  0  0  0  0  0  0  0  0  0  0  0
  1  2  1  0
  2  3  1  0
  3  4  2  0
  4  5  1  0
  5  6  2  0
  6  7  1  0
  7  8  2  0
  7  9  1  0
  9 10  2  0
 10 11  1  0
 11 12  2  0
 12 13  1  0
 13 14  1  0
 14 15  1  0
 13 16  2  0
 16 17  1  0
 17 18  1  0
 16 19  1  0
 19 20  1  0
 20 21  1  0
 19 22  2  0
  6 23  1  0
 23 24  1  0
 23 25  2  0
 25  3  1  0
 22 11  1  0
  1 26  1  0
  1 27  1  0
  1 28  1  0
  4 29  1  0
  5 30  1  0
  9 31  1  0
 10 32  1  0
 12 33  1  0
 15 34  1  0
 15 35  1  0
 15 36  1  0
 18 37  1  0
 18 38  1  0
 18 39  1  0
 21 40  1  0
 21 41  1  0
 21 42  1  0
 22 43  1  0
 24 44  1  0
 25 45  1  0
M  END
$$$$
