
     RDKit          3D

 48 51  0  0  0  0  0  0  0  0999 V2000
    6.4525    2.0763   -0.8319 C   0  0  0  0  0  0  0  0  0  0  0  0
    5.6626    0.8464   -0.6500 C   0  0  0  0  0  0  0  0  0  0  0  0
    4.3332    0.5289   -0.7743 C   0  0  0  0  0  0  0  0  0  0  0  0
    4.2570   -0.8567   -0.4537 C   0  0  0  0  0  0  0  0  0  0  0  0
    3.0851   -1.7435   -0.4199 C   0  0  0  0  0  0  0  0  0  0  0  0
    3.1632   -2.9622   -0.2844 O   0  0  0  0  0  0  0  0  0  0  0  0
    1.8626   -1.1082   -0.5424 N   0  0  0  0  0  0  0  0  0  0  0  0
    0.6192   -1.8463   -0.4501 C   0  0  0  0  0  0  0  0  0  0  0  0
    0.2632   -2.2314    1.0067 C   0  0  0  0  0  0  0  0  0  0  0  0
   -0.4197   -1.1052    1.8467 C   0  0  0  0  0  0  0  0  0  0  0  0
    0.5493    0.0635    2.1169 C   0  0  0  0  0  0  0  0  0  0  0  0
   -0.8228   -1.6983    3.2126 C   0  0  0  0  0  0  0  0  0  0  0  0
   -1.7043   -0.5794    1.1336 C   0  0  0  0  0  0  0  0  0  0  0  0
   -1.4956   -0.4263   -0.3373 C   0  0  0  0  0  0  0  0  0  0  0  0
   -0.4494   -0.9958   -1.0424 C   0  0  0  0  0  0  0  0  0  0  0  0
   -0.6266   -0.5619   -2.3594 C   0  0  0  0  0  0  0  0  0  0  0  0
   -1.6745    0.2465   -2.4858 N   0  0  0  0  0  0  0  0  0  0  0  0
   -2.2684    0.2766   -1.2558 N   0  0  0  0  0  0  0  0  0  0  0  0
   -3.5069    0.9795   -1.1098 C   0  0  0  0  0  0  0  0  0  0  0  0
   -3.9462    1.7975   -2.1713 C   0  0  0  0  0  0  0  0  0  0  0  0
   -5.1466    2.5071   -2.0807 C   0  0  0  0  0  0  0  0  0  0  0  0
   -5.9191    2.3962   -0.9350 C   0  0  0  0  0  0  0  0  0  0  0  0
   -7.0711    3.0726   -0.8437 F   0  0  0  0  0  0  0  0  0  0  0  0
   -5.5164    1.5834    0.1164 C   0  0  0  0  0  0  0  0  0  0  0  0
   -4.3137    0.8709    0.0304 C   0  0  0  0  0  0  0  0  0  0  0  0
    5.4818   -1.3263   -0.1591 N   0  0  0  0  0  0  0  0  0  0  0  0
    6.3507   -0.2623   -0.2798 O   0  0  0  0  0  0  0  0  0  0  0  0
    5.8099    2.9185   -1.1067 H   0  0  0  0  0  0  0  0  0  0  0  0
    7.1949    1.9414   -1.6244 H   0  0  0  0  0  0  0  0  0  0  0  0
    6.9770    2.3361    0.0927 H   0  0  0  0  0  0  0  0  0  0  0  0
    3.5414    1.2007   -1.0669 H   0  0  0  0  0  0  0  0  0  0  0  0
    1.8170   -0.1009   -0.5394 H   0  0  0  0  0  0  0  0  0  0  0  0
    0.7300   -2.7661   -1.0377 H   0  0  0  0  0  0  0  0  0  0  0  0
    1.1514   -2.6038    1.5325 H   0  0  0  0  0  0  0  0  0  0  0  0
   -0.4367   -3.0785    0.9577 H   0  0  0  0  0  0  0  0  0  0  0  0
    0.1266    0.7599    2.8508 H   0  0  0  0  0  0  0  0  0  0  0  0
    1.5022   -0.2990    2.5179 H   0  0  0  0  0  0  0  0  0  0  0  0
    0.7594    0.6485    1.2176 H   0  0  0  0  0  0  0  0  0  0  0  0
   -1.3315   -0.9524    3.8337 H   0  0  0  0  0  0  0  0  0  0  0  0
   -1.5035   -2.5485    3.0916 H   0  0  0  0  0  0  0  0  0  0  0  0
    0.0555   -2.0516    3.7644 H   0  0  0  0  0  0  0  0  0  0  0  0
   -1.9993    0.3730    1.5878 H   0  0  0  0  0  0  0  0  0  0  0  0
   -2.5170   -1.3009    1.2849 H   0  0  0  0  0  0  0  0  0  0  0  0
   -0.0210   -0.7773   -3.2310 H   0  0  0  0  0  0  0  0  0  0  0  0
   -3.3556    1.8997   -3.0810 H   0  0  0  0  0  0  0  0  0  0  0  0
   -5.4785    3.1399   -2.8976 H   0  0  0  0  0  0  0  0  0  0  0  0
   -6.1475    1.4991    0.9962 H   0  0  0  0  0  0  0  0  0  0  0  0
   -4.0740    0.2206    0.8604 H   0  0  0  0  0  0  0  0  0  0  0  0
  1  2  1  0
  2  3  2  0
  3  4  1  0
  4  5  1  0
  5  6  2  0
  5  7  1  0
  7  8  1  0
  8  9  1  0
  9 10  1  0
 10 11  1  0
 10 12  1  0
 10 13  1  0
 13 14  1  0
 14 15  2  0
 15 16  1  0
 16 17  2  0
 17 18  1  0
 18 19  1  0
 19 20  2  0
 20 21  1  0
 21 22  2  0
 22 23  1  0
 22 24  1  0
 24 25  2  0
  4 26  2  0
 26 27  1  0
 27  2  1  0
 15  8  1  0
 25 19  1  0
 18 14  1  0
  1 28  1  0
  1 29  1  0
  1 30  1  0
  3 31  1  0
  7 32  1  0
  8 33  1  0
  9 34  1  0
  9 35  1  0
 11 36  1  0
 11 37  1  0
 11 38  1  0
 12 39  1  0
 12 40  1  0
 12 41  1  0
 13 42  1  0
 13 43  1  0
 16 44  1  0
 20 45  1  0
 21 46  1  0
 24 47  1  0
 25 48  1  0
M  END
$$$$
