
     RDKit          3D

 37 39  0  0  0  0  0  0  0  0999 V2000
   -5.3150    3.1400    0.3369 C   0  0  0  0  0  0  0  0  0  0  0  0
   -5.6667    1.8439   -0.3766 C   0  0  0  0  0  0  0  0  0  0  0  0
   -4.4434    1.0552   -0.7062 C   0  0  0  0  0  0  0  0  0  0  0  0
   -3.6884    1.2503   -1.7673 N   0  0  0  0  0  0  0  0  0  0  0  0
   -2.6191    0.3777   -1.8056 N   0  0  0  0  0  0  0  0  0  0  0  0
   -2.6070   -0.4400   -0.7762 C   0  0  0  0  0  0  0  0  0  0  0  0
   -1.6356   -1.3916   -0.6115 N   0  0  0  0  0  0  0  0  0  0  0  0
   -1.4970   -2.2726    0.4361 C   0  0  0  0  0  0  0  0  0  0  0  0
   -2.2320   -2.3884    1.4115 O   0  0  0  0  0  0  0  0  0  0  0  0
   -0.2890   -3.2003    0.2595 C   0  0  0  0  0  0  0  0  0  0  0  0
    0.7607   -2.6577   -0.5316 O   0  0  0  0  0  0  0  0  0  0  0  0
    1.6110   -1.7605    0.0563 C   0  0  0  0  0  0  0  0  0  0  0  0
    1.5135   -1.2595    1.3527 C   0  0  0  0  0  0  0  0  0  0  0  0
    2.4484   -0.3269    1.8159 C   0  0  0  0  0  0  0  0  0  0  0  0
    3.4924    0.1204    0.9923 C   0  0  0  0  0  0  0  0  0  0  0  0
    4.4350    1.0579    1.4448 C   0  0  0  0  0  0  0  0  0  0  0  0
    5.4651    1.4926    0.6094 C   0  0  0  0  0  0  0  0  0  0  0  0
    5.5660    0.9959   -0.6869 C   0  0  0  0  0  0  0  0  0  0  0  0
    4.6370    0.0631   -1.1507 C   0  0  0  0  0  0  0  0  0  0  0  0
    3.5944   -0.3840   -0.3224 C   0  0  0  0  0  0  0  0  0  0  0  0
    2.6484   -1.3202   -0.7719 C   0  0  0  0  0  0  0  0  0  0  0  0
   -3.8974   -0.2157    0.3119 S   0  0  0  0  0  0  0  0  0  0  0  0
   -4.6583    3.7651   -0.2787 H   0  0  0  0  0  0  0  0  0  0  0  0
   -4.8024    2.9442    1.2845 H   0  0  0  0  0  0  0  0  0  0  0  0
   -6.2231    3.7122    0.5529 H   0  0  0  0  0  0  0  0  0  0  0  0
   -6.2026    2.0752   -1.3047 H   0  0  0  0  0  0  0  0  0  0  0  0
   -6.3546    1.2581    0.2452 H   0  0  0  0  0  0  0  0  0  0  0  0
   -0.9158   -1.3788   -1.3259 H   0  0  0  0  0  0  0  0  0  0  0  0
    0.0771   -3.5431    1.2344 H   0  0  0  0  0  0  0  0  0  0  0  0
   -0.6565   -4.0891   -0.2665 H   0  0  0  0  0  0  0  0  0  0  0  0
    0.7270   -1.5600    2.0376 H   0  0  0  0  0  0  0  0  0  0  0  0
    2.3520    0.0519    2.8318 H   0  0  0  0  0  0  0  0  0  0  0  0
    4.3722    1.4585    2.4543 H   0  0  0  0  0  0  0  0  0  0  0  0
    6.1873    2.2197    0.9713 H   0  0  0  0  0  0  0  0  0  0  0  0
    6.3667    1.3346   -1.3391 H   0  0  0  0  0  0  0  0  0  0  0  0
    4.7320   -0.3126   -2.1671 H   0  0  0  0  0  0  0  0  0  0  0  0
    2.7175   -1.7154   -1.7836 H   0  0  0  0  0  0  0  0  0  0  0  0
  1  2  1  0
  2  3  1  0
  3  4  2  0
  4  5  1  0
  5  6  2  0
  6  7  1  0
  7  8  1  0
  8  9  2  0
  8 10  1  0
 10 11  1  0
 11 12  1  0
 12 13  2  0
 13 14  1  0
 14 15  2  0
 15 16  1  0
 16 17  2  0
 17 18  1  0
 18 19  2  0
 19 20  1  0
 20 21  2  0
  6 22  1  0
 22  3  1  0
 21 12  1  0
 20 15  1  0
  1 23  1  0
  1 24  1  0
  1 25  1  0
  2 26  1  0
  2 27  1  0
  7 28  1  0
 10 29  1  0
 10 30  1  0
 13 31  1  0
 14 32  1  0
 16 33  1  0
 17 34  1  0
 18 35  1  0
 19 36  1  0
 21 37  1  0
M  END
$$$$
