
     RDKit          3D

 60 65  0  0  0  0  0  0  0  0999 V2000
    4.2282    1.6239   -3.4792 C   0  0  0  0  0  0  0  0  0  0  0  0
    4.8229    1.1993   -2.1891 C   0  0  0  0  0  0  0  0  0  0  0  0
    5.9041    1.8259   -1.7086 N   0  0  0  0  0  0  0  0  0  0  0  0
    6.2394    1.1590   -0.5476 O   0  0  0  0  0  0  0  0  0  0  0  0
    5.3632    0.1412   -0.3358 C   0  0  0  0  0  0  0  0  0  0  0  0
    5.6541   -0.7142    0.8322 C   0  0  0  0  0  0  0  0  0  0  0  0
    4.3979    0.1541   -1.3244 C   0  0  0  0  0  0  0  0  0  0  0  0
    3.2882   -0.7576   -1.5205 C   0  0  0  0  0  0  0  0  0  0  0  0
    3.0437   -1.1873   -2.6491 O   0  0  0  0  0  0  0  0  0  0  0  0
    2.5259   -1.1361   -0.4085 N   0  0  0  0  0  0  0  0  0  0  0  0
    1.5654   -2.2218   -0.5635 C   0  0  0  0  0  0  0  0  0  0  0  0
    0.1378   -1.6795   -0.6181 C   0  0  0  0  0  0  0  0  0  0  0  0
   -0.1870   -0.8288    0.6372 C   0  0  0  0  0  0  0  0  0  0  0  0
    0.8970    0.2767    0.7776 C   0  0  0  0  0  0  0  0  0  0  0  0
    2.3165   -0.2999    0.7737 C   0  0  0  0  0  0  0  0  0  0  0  0
    0.0001   -1.6505    1.8215 O   0  0  0  0  0  0  0  0  0  0  0  0
   -1.0167   -2.4808    2.1854 C   0  0  0  0  0  0  0  0  0  0  0  0
   -0.7007   -3.4560    3.1343 C   0  0  0  0  0  0  0  0  0  0  0  0
   -1.6773   -4.3600    3.5576 C   0  0  0  0  0  0  0  0  0  0  0  0
   -2.9626   -4.2814    3.0297 C   0  0  0  0  0  0  0  0  0  0  0  0
   -3.8974   -5.1488    3.4426 F   0  0  0  0  0  0  0  0  0  0  0  0
   -3.2935   -3.3122    2.0915 C   0  0  0  0  0  0  0  0  0  0  0  0
   -2.3126   -2.4040    1.6819 C   0  0  0  0  0  0  0  0  0  0  0  0
   -2.6315   -1.3468    0.7122 C   0  0  0  0  0  0  0  0  0  0  0  0
   -3.6669   -1.4183    0.0529 O   0  0  0  0  0  0  0  0  0  0  0  0
   -1.6150   -0.2159    0.5975 C   0  0  0  0  0  0  0  0  0  0  0  0
   -1.9218    0.6790   -0.5964 C   0  0  0  0  0  0  0  0  0  0  0  0
   -2.6800    1.7533    0.1080 C   0  0  0  0  0  0  0  0  0  0  0  0
   -3.4536    2.7867   -0.6211 C   0  0  0  0  0  0  0  0  0  0  0  0
   -4.1777    3.7335    0.1186 C   0  0  0  0  0  0  0  0  0  0  0  0
   -4.9241    4.7204   -0.5324 C   0  0  0  0  0  0  0  0  0  0  0  0
   -4.9460    4.7642   -1.9246 C   0  0  0  0  0  0  0  0  0  0  0  0
   -5.8693    5.9740   -2.7287 Cl  0  0  0  0  0  0  0  0  0  0  0  0
   -4.2252    3.8309   -2.6695 C   0  0  0  0  0  0  0  0  0  0  0  0
   -3.4772    2.8407   -2.0199 C   0  0  0  0  0  0  0  0  0  0  0  0
   -2.5851    1.7312    1.3988 N   0  0  0  0  0  0  0  0  0  0  0  0
   -1.7952    0.6201    1.7541 O   0  0  0  0  0  0  0  0  0  0  0  0
    3.1325    1.6007   -3.4330 H   0  0  0  0  0  0  0  0  0  0  0  0
    4.5541    0.9542   -4.2852 H   0  0  0  0  0  0  0  0  0  0  0  0
    4.5304    2.6453   -3.7400 H   0  0  0  0  0  0  0  0  0  0  0  0
    6.7357   -0.8409    0.9628 H   0  0  0  0  0  0  0  0  0  0  0  0
    5.2515   -0.2635    1.7454 H   0  0  0  0  0  0  0  0  0  0  0  0
    5.2142   -1.7122    0.7147 H   0  0  0  0  0  0  0  0  0  0  0  0
    1.6947   -2.9000    0.2879 H   0  0  0  0  0  0  0  0  0  0  0  0
    1.7764   -2.8060   -1.4648 H   0  0  0  0  0  0  0  0  0  0  0  0
   -0.5448   -2.5322   -0.7039 H   0  0  0  0  0  0  0  0  0  0  0  0
    0.0182   -1.0737   -1.5246 H   0  0  0  0  0  0  0  0  0  0  0  0
    0.8214    1.0000   -0.0412 H   0  0  0  0  0  0  0  0  0  0  0  0
    0.7626    0.8262    1.7171 H   0  0  0  0  0  0  0  0  0  0  0  0
    3.0165    0.5373    0.8090 H   0  0  0  0  0  0  0  0  0  0  0  0
    2.4935   -0.9221    1.6584 H   0  0  0  0  0  0  0  0  0  0  0  0
    0.3044   -3.5142    3.5451 H   0  0  0  0  0  0  0  0  0  0  0  0
   -1.4460   -5.1222    4.2960 H   0  0  0  0  0  0  0  0  0  0  0  0
   -4.3072   -3.2635    1.7029 H   0  0  0  0  0  0  0  0  0  0  0  0
   -2.5092    0.1937   -1.3794 H   0  0  0  0  0  0  0  0  0  0  0  0
   -1.0366    1.1318   -1.0496 H   0  0  0  0  0  0  0  0  0  0  0  0
   -4.1719    3.7077    1.2073 H   0  0  0  0  0  0  0  0  0  0  0  0
   -5.4851    5.4451    0.0530 H   0  0  0  0  0  0  0  0  0  0  0  0
   -4.2444    3.8665   -3.7565 H   0  0  0  0  0  0  0  0  0  0  0  0
   -2.9286    2.1277   -2.6285 H   0  0  0  0  0  0  0  0  0  0  0  0
  1  2  1  0
  2  3  2  0
  3  4  1  0
  4  5  1  0
  5  6  1  0
  5  7  2  0
  7  8  1  0
  8  9  2  0
  8 10  1  0
 10 11  1  0
 11 12  1  0
 12 13  1  0
 13 14  1  0
 14 15  1  0
 13 16  1  0
 16 17  1  0
 17 18  2  0
 18 19  1  0
 19 20  2  0
 20 21  1  0
 20 22  1  0
 22 23  2  0
 23 24  1  0
 24 25  2  0
 24 26  1  0
 26 27  1  0
 27 28  1  0
 28 29  1  0
 29 30  2  0
 30 31  1  0
 31 32  2  0
 32 33  1  0
 32 34  1  0
 34 35  2  0
 28 36  2  0
 36 37  1  0
  7  2  1  0
 15 10  1  0
 23 17  1  0
 37 26  1  0
 26 13  1  0
 35 29  1  0
  1 38  1  0
  1 39  1  0
  1 40  1  0
  6 41  1  0
  6 42  1  0
  6 43  1  0
 11 44  1  0
 11 45  1  0
 12 46  1  0
 12 47  1  0
 14 48  1  0
 14 49  1  0
 15 50  1  0
 15 51  1  0
 18 52  1  0
 19 53  1  0
 22 54  1  0
 27 55  1  0
 27 56  1  0
 30 57  1  0
 31 58  1  0
 34 59  1  0
 35 60  1  0
M  END
$$$$
