
     RDKit          3D

 58 62  0  0  0  0  0  0  0  0999 V2000
    7.3122   -0.1425    1.5552 C   0  0  0  0  0  0  0  0  0  0  0  0
    6.2888    0.8862    1.1594 C   0  0  0  0  0  0  0  0  0  0  0  0
    6.2923    2.1188    2.0217 C   0  0  0  0  0  0  0  0  0  0  0  0
    5.4424    0.7175    0.1277 C   0  0  0  0  0  0  0  0  0  0  0  0
    5.2570   -0.4544   -0.8529 C   0  0  0  0  0  0  0  0  0  0  0  0
    5.5485    0.3563   -2.1407 C   0  0  0  0  0  0  0  0  0  0  0  0
    4.9158    1.7630   -1.8514 C   0  0  0  0  0  0  0  0  0  0  0  0
    4.3238    1.6186   -0.4269 C   0  0  0  0  0  0  0  0  0  0  0  0
    3.2104    0.6233   -0.4907 C   0  0  0  0  0  0  0  0  0  0  0  0
    3.7755   -0.6367   -0.7487 C   0  0  0  0  0  0  0  0  0  0  0  0
    2.7855   -1.5727   -0.8165 C   0  0  0  0  0  0  0  0  0  0  0  0
    2.9212   -2.8771   -1.0501 O   0  0  0  0  0  0  0  0  0  0  0  0
    1.5610   -0.8864   -0.5921 N   0  0  0  0  0  0  0  0  0  0  0  0
    0.2430   -1.3851   -0.5587 C   0  0  0  0  0  0  0  0  0  0  0  0
   -0.7921   -0.5970   -0.3510 N   0  0  0  0  0  0  0  0  0  0  0  0
   -1.9557   -1.3531   -0.3560 C   0  0  0  0  0  0  0  0  0  0  0  0
   -3.2420   -0.7073   -0.1425 C   0  0  0  0  0  0  0  0  0  0  0  0
   -4.1643   -1.2023    0.7853 C   0  0  0  0  0  0  0  0  0  0  0  0
   -5.3910   -0.5582    0.9771 C   0  0  0  0  0  0  0  0  0  0  0  0
   -5.7161    0.5976    0.2521 C   0  0  0  0  0  0  0  0  0  0  0  0
   -7.0400    1.3161    0.4461 C   0  0  0  0  0  0  0  0  0  0  0  0
   -7.1807    1.8592    1.8702 C   0  0  0  0  0  0  0  0  0  0  0  0
   -8.2264    0.4189    0.0846 C   0  0  0  0  0  0  0  0  0  0  0  0
   -4.7801    1.0980   -0.6640 C   0  0  0  0  0  0  0  0  0  0  0  0
   -3.5537    0.4549   -0.8557 C   0  0  0  0  0  0  0  0  0  0  0  0
   -1.7779   -2.7049   -0.6129 C   0  0  0  0  0  0  0  0  0  0  0  0
   -2.7695   -3.8077   -0.7543 C   0  0  0  0  0  0  0  0  0  0  0  0
   -0.0977   -3.0317   -0.7869 S   0  0  0  0  0  0  0  0  0  0  0  0
    1.8597    0.4892   -0.3961 C   0  0  0  0  0  0  0  0  0  0  0  0
    0.9370    1.4256   -0.1663 O   0  0  0  0  0  0  0  0  0  0  0  0
    8.3171    0.2910    1.5146 H   0  0  0  0  0  0  0  0  0  0  0  0
    7.3111   -1.0222    0.9073 H   0  0  0  0  0  0  0  0  0  0  0  0
    7.1251   -0.4860    2.5780 H   0  0  0  0  0  0  0  0  0  0  0  0
    5.5537    2.8623    1.7129 H   0  0  0  0  0  0  0  0  0  0  0  0
    7.2751    2.6006    1.9857 H   0  0  0  0  0  0  0  0  0  0  0  0
    6.0762    1.8517    3.0614 H   0  0  0  0  0  0  0  0  0  0  0  0
    5.8577   -1.3497   -0.7068 H   0  0  0  0  0  0  0  0  0  0  0  0
    5.1016   -0.0995   -3.0315 H   0  0  0  0  0  0  0  0  0  0  0  0
    6.6269    0.4605   -2.3108 H   0  0  0  0  0  0  0  0  0  0  0  0
    5.6939    2.5353   -1.8834 H   0  0  0  0  0  0  0  0  0  0  0  0
    4.1529    2.0114   -2.5979 H   0  0  0  0  0  0  0  0  0  0  0  0
    4.1032    2.5476    0.0944 H   0  0  0  0  0  0  0  0  0  0  0  0
    2.0522   -3.3122   -1.0223 H   0  0  0  0  0  0  0  0  0  0  0  0
   -3.9349   -2.0812    1.3822 H   0  0  0  0  0  0  0  0  0  0  0  0
   -6.0875   -0.9646    1.7071 H   0  0  0  0  0  0  0  0  0  0  0  0
   -7.0716    2.1789   -0.2326 H   0  0  0  0  0  0  0  0  0  0  0  0
   -8.1016    2.4440    1.9698 H   0  0  0  0  0  0  0  0  0  0  0  0
   -7.2153    1.0556    2.6139 H   0  0  0  0  0  0  0  0  0  0  0  0
   -6.3391    2.5132    2.1246 H   0  0  0  0  0  0  0  0  0  0  0  0
   -8.3081   -0.4433    0.7553 H   0  0  0  0  0  0  0  0  0  0  0  0
   -8.1318    0.0381   -0.9384 H   0  0  0  0  0  0  0  0  0  0  0  0
   -9.1656    0.9790    0.1481 H   0  0  0  0  0  0  0  0  0  0  0  0
   -4.9945    1.9984   -1.2360 H   0  0  0  0  0  0  0  0  0  0  0  0
   -2.8424    0.8676   -1.5684 H   0  0  0  0  0  0  0  0  0  0  0  0
   -3.6837   -3.4526   -1.2408 H   0  0  0  0  0  0  0  0  0  0  0  0
   -2.3796   -4.6307   -1.3626 H   0  0  0  0  0  0  0  0  0  0  0  0
   -3.0336   -4.2087    0.2295 H   0  0  0  0  0  0  0  0  0  0  0  0
    0.0559    0.9898   -0.1376 H   0  0  0  0  0  0  0  0  0  0  0  0
  1  2  1  0
  2  3  1  0
  2  4  2  3
  4  5  1  0
  5  6  1  0
  6  7  1  0
  7  8  1  0
  8  9  1  0
  9 10  1  0
 10 11  2  0
 11 12  1  0
 11 13  1  0
 13 14  1  0
 14 15  2  0
 15 16  1  0
 16 17  1  0
 17 18  2  0
 18 19  1  0
 19 20  2  0
 20 21  1  0
 21 22  1  0
 21 23  1  0
 20 24  1  0
 24 25  2  0
 16 26  2  0
 26 27  1  0
 26 28  1  0
 13 29  1  0
 29 30  1  0
  8  4  1  0
 29  9  2  0
 10  5  1  0
 28 14  1  0
 25 17  1  0
  1 31  1  0
  1 32  1  0
  1 33  1  0
  3 34  1  0
  3 35  1  0
  3 36  1  0
  5 37  1  0
  6 38  1  0
  6 39  1  0
  7 40  1  0
  7 41  1  0
  8 42  1  0
 12 43  1  0
 18 44  1  0
 19 45  1  0
 21 46  1  0
 22 47  1  0
 22 48  1  0
 22 49  1  0
 23 50  1  0
 23 51  1  0
 23 52  1  0
 24 53  1  0
 25 54  1  0
 27 55  1  0
 27 56  1  0
 27 57  1  0
 30 58  1  0
M  END
$$$$
