
     RDKit          3D

 47 50  0  0  0  0  0  0  0  0999 V2000
   -7.4706   -2.1415   -2.3469 C   0  0  0  0  0  0  0  0  0  0  0  0
   -6.9535   -1.6470   -1.1085 O   0  0  0  0  0  0  0  0  0  0  0  0
   -5.6512   -1.2802   -1.1529 C   0  0  0  0  0  0  0  0  0  0  0  0
   -4.9151   -1.3546   -2.1252 O   0  0  0  0  0  0  0  0  0  0  0  0
   -5.2123   -0.7300    0.1593 C   0  0  0  0  0  0  0  0  0  0  0  0
   -5.9994   -0.8424    1.3107 C   0  0  0  0  0  0  0  0  0  0  0  0
   -5.5329   -0.3344    2.5209 C   0  0  0  0  0  0  0  0  0  0  0  0
   -4.2875    0.2951    2.5851 C   0  0  0  0  0  0  0  0  0  0  0  0
   -3.4908    0.4435    1.4329 C   0  0  0  0  0  0  0  0  0  0  0  0
   -2.2360    1.1094    1.5555 N   0  0  0  0  0  0  0  0  0  0  0  0
   -1.7159    1.3407    2.7954 N   0  0  0  0  0  0  0  0  0  0  0  0
   -0.5323    1.9030    2.6163 N   0  0  0  0  0  0  0  0  0  0  0  0
   -0.2878    2.1064    1.2946 N   0  0  0  0  0  0  0  0  0  0  0  0
   -1.3291    1.6404    0.6427 C   0  0  0  0  0  0  0  0  0  0  0  0
   -1.5471    1.8211   -1.0660 S   0  0  0  0  0  0  0  0  0  0  0  0
   -0.0933    2.8026   -1.5378 C   0  0  0  0  0  0  0  0  0  0  0  0
    1.1368    1.9212   -1.7048 C   0  0  0  0  0  0  0  0  0  0  0  0
    1.4348    1.4733   -2.8108 O   0  0  0  0  0  0  0  0  0  0  0  0
    1.8172    1.7236   -0.5220 N   0  0  0  0  0  0  0  0  0  0  0  0
    2.9827    1.0171   -0.4446 C   0  0  0  0  0  0  0  0  0  0  0  0
    3.7251    0.5206   -1.4024 N   0  0  0  0  0  0  0  0  0  0  0  0
    4.8236   -0.0976   -0.8425 C   0  0  0  0  0  0  0  0  0  0  0  0
    4.8800   -0.0580    0.5386 C   0  0  0  0  0  0  0  0  0  0  0  0
    3.5417    0.7901    1.1611 S   0  0  0  0  0  0  0  0  0  0  0  0
    5.9701   -0.6409    1.3705 C   0  0  0  0  0  0  0  0  0  0  0  0
    6.8203   -1.6159    0.5253 C   0  0  0  0  0  0  0  0  0  0  0  0
    7.1305   -1.0545   -0.8745 C   0  0  0  0  0  0  0  0  0  0  0  0
    5.8467   -0.7820   -1.6817 C   0  0  0  0  0  0  0  0  0  0  0  0
   -3.9580   -0.0896    0.2249 C   0  0  0  0  0  0  0  0  0  0  0  0
   -7.1348   -3.1752   -2.5045 H   0  0  0  0  0  0  0  0  0  0  0  0
   -8.5618   -2.1242   -2.2877 H   0  0  0  0  0  0  0  0  0  0  0  0
   -7.1684   -1.5084   -3.1889 H   0  0  0  0  0  0  0  0  0  0  0  0
   -6.9694   -1.3355    1.2823 H   0  0  0  0  0  0  0  0  0  0  0  0
   -6.1403   -0.4277    3.4202 H   0  0  0  0  0  0  0  0  0  0  0  0
   -3.9646    0.6806    3.5536 H   0  0  0  0  0  0  0  0  0  0  0  0
   -0.3005    3.2790   -2.5028 H   0  0  0  0  0  0  0  0  0  0  0  0
    0.1017    3.6115   -0.8254 H   0  0  0  0  0  0  0  0  0  0  0  0
    1.4069    2.0153    0.3626 H   0  0  0  0  0  0  0  0  0  0  0  0
    6.6106    0.1720    1.7437 H   0  0  0  0  0  0  0  0  0  0  0  0
    5.5647   -1.1723    2.2384 H   0  0  0  0  0  0  0  0  0  0  0  0
    7.7561   -1.8363    1.0529 H   0  0  0  0  0  0  0  0  0  0  0  0
    6.2817   -2.5707    0.4146 H   0  0  0  0  0  0  0  0  0  0  0  0
    7.7676   -1.7551   -1.4252 H   0  0  0  0  0  0  0  0  0  0  0  0
    7.7034   -0.1206   -0.7664 H   0  0  0  0  0  0  0  0  0  0  0  0
    6.0853   -0.1773   -2.5634 H   0  0  0  0  0  0  0  0  0  0  0  0
    5.4329   -1.7291   -2.0362 H   0  0  0  0  0  0  0  0  0  0  0  0
   -3.3676   -0.0655   -0.6855 H   0  0  0  0  0  0  0  0  0  0  0  0
  1  2  1  0
  2  3  1  0
  3  4  2  0
  3  5  1  0
  5  6  2  0
  6  7  1  0
  7  8  2  0
  8  9  1  0
  9 10  1  0
 10 11  1  0
 11 12  2  0
 12 13  1  0
 13 14  2  0
 14 15  1  0
 15 16  1  0
 16 17  1  0
 17 18  2  0
 17 19  1  0
 19 20  1  0
 20 21  2  0
 21 22  1  0
 22 23  2  0
 23 24  1  0
 23 25  1  0
 25 26  1  0
 26 27  1  0
 27 28  1  0
  9 29  2  0
 29  5  1  0
 14 10  1  0
 24 20  1  0
 28 22  1  0
  1 30  1  0
  1 31  1  0
  1 32  1  0
  6 33  1  0
  7 34  1  0
  8 35  1  0
 16 36  1  0
 16 37  1  0
 19 38  1  0
 25 39  1  0
 25 40  1  0
 26 41  1  0
 26 42  1  0
 27 43  1  0
 27 44  1  0
 28 45  1  0
 28 46  1  0
 29 47  1  0
M  END
$$$$
