
     RDKit          3D

 43 45  0  0  0  0  0  0  0  0999 V2000
   -1.8242   -2.0128   -1.5087 C   0  0  0  0  0  0  0  0  0  0  0  0
   -2.1260   -1.0588   -0.3371 C   0  0  0  0  0  0  0  0  0  0  0  0
   -2.1499   -1.9106    0.9482 C   0  0  0  0  0  0  0  0  0  0  0  0
   -3.4525   -0.2533   -0.4969 C   0  0  0  0  0  0  0  0  0  0  0  0
   -3.4072    0.7311    0.6993 C   0  0  0  0  0  0  0  0  0  0  0  0
   -1.9091    1.0997    0.8004 C   0  0  0  0  0  0  0  0  0  0  0  0
   -1.2616    0.2360   -0.3107 C   0  0  0  0  0  0  0  0  0  0  0  0
    0.2560    0.2144   -0.3730 C   0  0  0  0  0  0  0  0  0  0  0  0
    1.0969   -0.7182    0.8892 S   0  0  0  0  0  6  0  0  0  0  0  0
    1.0813   -2.1115    0.5007 O   0  0  0  0  0  0  0  0  0  0  0  0
    0.6246   -0.2905    2.1870 O   0  0  0  0  0  0  0  0  0  0  0  0
    2.6872   -0.1884    0.7378 N   0  0  0  0  0  0  0  0  0  0  0  0
    3.4563   -0.5508   -0.4840 C   0  0  0  0  0  0  0  0  0  0  0  0
    3.9307    0.7102   -1.2147 C   0  0  0  0  0  0  0  0  0  0  0  0
    4.7597    1.5658   -0.4163 O   0  0  0  0  0  0  0  0  0  0  0  0
    4.5113    1.4578    0.9926 C   0  0  0  0  0  0  0  0  0  0  0  0
    3.0507    1.1311    1.3199 C   0  0  0  0  0  0  0  0  0  0  0  0
   -1.7921    0.9145   -1.5860 C   0  0  0  0  0  0  0  0  0  0  0  0
   -1.1399    1.6349   -2.3277 O   0  0  0  0  0  0  0  0  0  0  0  0
   -3.2514    0.5755   -1.7806 C   0  0  0  0  0  0  0  0  0  0  0  0
   -1.7116   -1.5104   -2.4733 H   0  0  0  0  0  0  0  0  0  0  0  0
   -2.6267   -2.7512   -1.6164 H   0  0  0  0  0  0  0  0  0  0  0  0
   -0.8906   -2.5591   -1.3377 H   0  0  0  0  0  0  0  0  0  0  0  0
   -1.3081   -2.6061    0.9912 H   0  0  0  0  0  0  0  0  0  0  0  0
   -3.0603   -2.5211    0.9787 H   0  0  0  0  0  0  0  0  0  0  0  0
   -2.1199   -1.3259    1.8705 H   0  0  0  0  0  0  0  0  0  0  0  0
   -4.3651   -0.8544   -0.5198 H   0  0  0  0  0  0  0  0  0  0  0  0
   -3.7501    0.2516    1.6224 H   0  0  0  0  0  0  0  0  0  0  0  0
   -4.0320    1.6160    0.5385 H   0  0  0  0  0  0  0  0  0  0  0  0
   -1.5349    0.8718    1.8009 H   0  0  0  0  0  0  0  0  0  0  0  0
   -1.7635    2.1731    0.6298 H   0  0  0  0  0  0  0  0  0  0  0  0
    0.6237    1.2437   -0.3033 H   0  0  0  0  0  0  0  0  0  0  0  0
    0.5976   -0.1906   -1.3326 H   0  0  0  0  0  0  0  0  0  0  0  0
    4.3170   -1.1497   -0.1647 H   0  0  0  0  0  0  0  0  0  0  0  0
    2.8609   -1.1659   -1.1653 H   0  0  0  0  0  0  0  0  0  0  0  0
    4.5041    0.4366   -2.1061 H   0  0  0  0  0  0  0  0  0  0  0  0
    3.0712    1.3024   -1.5494 H   0  0  0  0  0  0  0  0  0  0  0  0
    4.7974    2.4104    1.4496 H   0  0  0  0  0  0  0  0  0  0  0  0
    5.1802    0.6874    1.3939 H   0  0  0  0  0  0  0  0  0  0  0  0
    2.4020    1.9097    0.9068 H   0  0  0  0  0  0  0  0  0  0  0  0
    2.9243    1.0958    2.4065 H   0  0  0  0  0  0  0  0  0  0  0  0
   -3.3891   -0.0173   -2.6872 H   0  0  0  0  0  0  0  0  0  0  0  0
   -3.8673    1.4772   -1.8067 H   0  0  0  0  0  0  0  0  0  0  0  0
  1  2  1  0
  2  3  1  0
  2  4  1  0
  4  5  1  0
  5  6  1  0
  6  7  1  0
  7  8  1  0
  8  9  1  0
  9 10  2  0
  9 11  2  0
  9 12  1  0
 12 13  1  0
 13 14  1  0
 14 15  1  0
 15 16  1  0
 16 17  1  0
  7 18  1  0
 18 19  2  0
 18 20  1  0
  7  2  1  0
 17 12  1  0
 20  4  1  0
  1 21  1  0
  1 22  1  0
  1 23  1  0
  3 24  1  0
  3 25  1  0
  3 26  1  0
  4 27  1  0
  5 28  1  0
  5 29  1  0
  6 30  1  0
  6 31  1  0
  8 32  1  0
  8 33  1  0
 13 34  1  0
 13 35  1  0
 14 36  1  0
 14 37  1  0
 16 38  1  0
 16 39  1  0
 17 40  1  0
 17 41  1  0
 20 42  1  0
 20 43  1  0
M  END
$$$$
