
     RDKit          3D

 34 35  0  0  0  0  0  0  0  0999 V2000
    5.3304    1.6069    1.0189 C   0  0  0  0  0  0  0  0  0  0  0  0
    4.7867    0.2193    1.3092 C   0  0  0  0  0  0  0  0  0  0  0  0
    3.3465    0.1475    1.1358 N   0  0  0  0  0  0  0  0  0  0  0  0
    2.5563    0.4806    2.1747 N   0  0  0  0  0  0  0  0  0  0  0  0
    1.3222    0.2886    1.7091 C   0  0  0  0  0  0  0  0  0  0  0  0
    1.3112   -0.1587    0.3717 C   0  0  0  0  0  0  0  0  0  0  0  0
    0.2003   -0.4767   -0.4657 C   0  0  0  0  0  0  0  0  0  0  0  0
   -1.0927   -0.3320   -0.1334 C   0  0  0  0  0  0  0  0  0  0  0  0
   -2.1494   -0.7179   -1.1084 C   0  0  0  0  0  0  0  0  0  0  0  0
   -1.8898   -1.3436   -2.1311 O   0  0  0  0  0  0  0  0  0  0  0  0
   -3.5573   -0.3571   -0.7908 C   0  0  0  0  0  0  0  0  0  0  0  0
   -4.5760   -1.1808   -1.2883 C   0  0  0  0  0  0  0  0  0  0  0  0
   -5.9139   -0.8845   -1.0227 C   0  0  0  0  0  0  0  0  0  0  0  0
   -6.2411    0.2412   -0.2685 C   0  0  0  0  0  0  0  0  0  0  0  0
   -5.2335    1.0761    0.2141 C   0  0  0  0  0  0  0  0  0  0  0  0
   -3.8927    0.7828   -0.0487 C   0  0  0  0  0  0  0  0  0  0  0  0
    2.6464   -0.2365    0.0143 C   0  0  0  0  0  0  0  0  0  0  0  0
    3.3145   -0.6368   -1.2524 C   0  0  0  0  0  0  0  0  0  0  0  0
    5.1127    1.9108   -0.0103 H   0  0  0  0  0  0  0  0  0  0  0  0
    4.8867    2.3526    1.6870 H   0  0  0  0  0  0  0  0  0  0  0  0
    6.4155    1.6265    1.1587 H   0  0  0  0  0  0  0  0  0  0  0  0
    5.0097   -0.0726    2.3419 H   0  0  0  0  0  0  0  0  0  0  0  0
    5.2492   -0.5246    0.6530 H   0  0  0  0  0  0  0  0  0  0  0  0
    0.4886    0.4822    2.3705 H   0  0  0  0  0  0  0  0  0  0  0  0
    0.4284   -0.8689   -1.4560 H   0  0  0  0  0  0  0  0  0  0  0  0
   -1.3979    0.0400    0.8348 H   0  0  0  0  0  0  0  0  0  0  0  0
   -4.3287   -2.0579   -1.8839 H   0  0  0  0  0  0  0  0  0  0  0  0
   -6.6993   -1.5298   -1.4085 H   0  0  0  0  0  0  0  0  0  0  0  0
   -7.2838    0.4736   -0.0651 H   0  0  0  0  0  0  0  0  0  0  0  0
   -5.4941    1.9623    0.7882 H   0  0  0  0  0  0  0  0  0  0  0  0
   -3.1321    1.4690    0.3124 H   0  0  0  0  0  0  0  0  0  0  0  0
    2.6140   -0.6606   -2.0919 H   0  0  0  0  0  0  0  0  0  0  0  0
    3.7533   -1.6345   -1.1506 H   0  0  0  0  0  0  0  0  0  0  0  0
    4.1094    0.0672   -1.5182 H   0  0  0  0  0  0  0  0  0  0  0  0
  1  2  1  0
  2  3  1  0
  3  4  1  0
  4  5  2  0
  5  6  1  0
  6  7  1  0
  7  8  2  3
  8  9  1  0
  9 10  2  0
  9 11  1  0
 11 12  2  0
 12 13  1  0
 13 14  2  0
 14 15  1  0
 15 16  2  0
  6 17  2  0
 17 18  1  0
 17  3  1  0
 16 11  1  0
  1 19  1  0
  1 20  1  0
  1 21  1  0
  2 22  1  0
  2 23  1  0
  5 24  1  0
  7 25  1  0
  8 26  1  0
 12 27  1  0
 13 28  1  0
 14 29  1  0
 15 30  1  0
 16 31  1  0
 18 32  1  0
 18 33  1  0
 18 34  1  0
M  END
$$$$
