
     RDKit          3D

 45 48  0  0  0  0  0  0  0  0999 V2000
    4.3660    2.2690   -0.3806 C   0  0  0  0  0  0  0  0  0  0  0  0
    3.6593    1.0430   -0.9394 C   0  0  0  0  0  0  0  0  0  0  0  0
    3.5879    0.0601    0.1028 O   0  0  0  0  0  0  0  0  0  0  0  0
    3.0001   -1.0917   -0.3632 C   0  0  0  0  0  0  0  0  0  0  0  0
    3.8467   -2.0331   -0.9646 C   0  0  0  0  0  0  0  0  0  0  0  0
    3.3322   -3.2345   -1.4441 C   0  0  0  0  0  0  0  0  0  0  0  0
    1.9754   -3.5022   -1.3102 C   0  0  0  0  0  0  0  0  0  0  0  0
    1.1363   -2.5699   -0.6897 C   0  0  0  0  0  0  0  0  0  0  0  0
    1.6248   -1.3425   -0.1891 C   0  0  0  0  0  0  0  0  0  0  0  0
    0.7034   -0.4024    0.4763 C   0  0  0  0  0  0  0  0  0  0  0  0
    1.1973    0.4053    1.4373 N   0  0  0  0  0  0  0  0  0  0  0  0
    0.3254    1.2513    2.0337 C   0  0  0  0  0  0  0  0  0  0  0  0
    0.8812    2.1517    3.0812 C   0  0  0  0  0  0  0  0  0  0  0  0
    2.2296    2.0412    3.2947 N   0  0  0  0  0  0  0  0  0  0  0  0
    0.1827    2.9396    3.7056 O   0  0  0  0  0  0  0  0  0  0  0  0
   -0.9923    1.2859    1.6910 C   0  0  0  0  0  0  0  0  0  0  0  0
   -2.0591    2.0431    2.1435 N   0  0  0  0  0  0  0  0  0  0  0  0
   -3.2063    1.6706    1.4316 C   0  0  0  0  0  0  0  0  0  0  0  0
   -4.2984    2.1787    1.6219 O   0  0  0  0  0  0  0  0  0  0  0  0
   -2.8050    0.6472    0.5148 N   0  0  0  0  0  0  0  0  0  0  0  0
   -3.6324   -0.0377   -0.4190 C   0  0  0  0  0  0  0  0  0  0  0  0
   -5.0059    0.2602   -0.5049 C   0  0  0  0  0  0  0  0  0  0  0  0
   -5.8505   -0.3978   -1.4092 C   0  0  0  0  0  0  0  0  0  0  0  0
   -5.3335   -1.3718   -2.2495 C   0  0  0  0  0  0  0  0  0  0  0  0
   -6.1363   -2.0044   -3.1176 F   0  0  0  0  0  0  0  0  0  0  0  0
   -3.9886   -1.6941   -2.1997 C   0  0  0  0  0  0  0  0  0  0  0  0
   -3.1483   -1.0311   -1.2935 C   0  0  0  0  0  0  0  0  0  0  0  0
   -1.4141    0.4281    0.7039 C   0  0  0  0  0  0  0  0  0  0  0  0
   -0.5932   -0.4263    0.0830 N   0  0  0  0  0  0  0  0  0  0  0  0
    5.3777    2.0104   -0.0414 H   0  0  0  0  0  0  0  0  0  0  0  0
    3.8279    2.6631    0.4886 H   0  0  0  0  0  0  0  0  0  0  0  0
    4.4375    3.0558   -1.1344 H   0  0  0  0  0  0  0  0  0  0  0  0
    4.2245    0.6557   -1.7970 H   0  0  0  0  0  0  0  0  0  0  0  0
    2.6490    1.3277   -1.2664 H   0  0  0  0  0  0  0  0  0  0  0  0
    4.9085   -1.8254   -1.0556 H   0  0  0  0  0  0  0  0  0  0  0  0
    3.9892   -3.9619   -1.9150 H   0  0  0  0  0  0  0  0  0  0  0  0
    1.5670   -4.4414   -1.6767 H   0  0  0  0  0  0  0  0  0  0  0  0
    0.0816   -2.8190   -0.5807 H   0  0  0  0  0  0  0  0  0  0  0  0
    2.6758    2.6065    4.0035 H   0  0  0  0  0  0  0  0  0  0  0  0
    2.7756    1.3671    2.7662 H   0  0  0  0  0  0  0  0  0  0  0  0
   -2.0220    2.7520    2.8660 H   0  0  0  0  0  0  0  0  0  0  0  0
   -5.4711    1.0126    0.1284 H   0  0  0  0  0  0  0  0  0  0  0  0
   -6.9065   -0.1496   -1.4559 H   0  0  0  0  0  0  0  0  0  0  0  0
   -3.5917   -2.4587   -2.8639 H   0  0  0  0  0  0  0  0  0  0  0  0
   -2.1073   -1.3302   -1.3126 H   0  0  0  0  0  0  0  0  0  0  0  0
  1  2  1  0
  2  3  1  0
  3  4  1  0
  4  5  2  0
  5  6  1  0
  6  7  2  0
  7  8  1  0
  8  9  2  0
  9 10  1  0
 10 11  2  0
 11 12  1  0
 12 13  1  0
 13 14  1  0
 13 15  2  0
 12 16  2  0
 16 17  1  0
 17 18  1  0
 18 19  2  0
 18 20  1  0
 20 21  1  0
 21 22  2  0
 22 23  1  0
 23 24  2  0
 24 25  1  0
 24 26  1  0
 26 27  2  0
 20 28  1  0
 28 29  2  0
  9  4  1  0
 29 10  1  0
 28 16  1  0
 27 21  1  0
  1 30  1  0
  1 31  1  0
  1 32  1  0
  2 33  1  0
  2 34  1  0
  5 35  1  0
  6 36  1  0
  7 37  1  0
  8 38  1  0
 14 39  1  0
 14 40  1  0
 17 41  1  0
 22 42  1  0
 23 43  1  0
 26 44  1  0
 27 45  1  0
M  END
$$$$
