
     RDKit          3D

 31 33  0  0  0  0  0  0  0  0999 V2000
   -3.2601    2.1291   -0.4047 C   0  0  0  0  0  0  0  0  0  0  0  0
   -3.1667    0.9431    0.5000 C   0  0  0  0  0  0  0  0  0  0  0  0
   -4.2382    0.5171    1.3524 C   0  0  0  0  0  0  0  0  0  0  0  0
   -3.9174   -0.5926    2.0965 C   0  0  0  0  0  0  0  0  0  0  0  0
   -2.3339   -1.1317    1.7842 S   0  0  0  0  0  0  0  0  0  0  0  0
   -2.0531    0.1174    0.6339 C   0  0  0  0  0  0  0  0  0  0  0  0
   -0.7190    0.2194   -0.0917 C   0  0  0  0  0  0  0  0  0  0  0  0
   -0.4308   -0.9763   -0.9855 C   0  0  0  0  0  0  0  0  0  0  0  0
    0.2524   -2.1546   -0.3359 C   0  0  0  0  0  0  0  0  0  0  0  0
   -0.3329   -3.2254   -0.1671 O   0  0  0  0  0  0  0  0  0  0  0  0
    1.5920   -2.0808   -0.0721 N   0  0  0  0  0  0  0  0  0  0  0  0
    2.4399   -0.9681   -0.2022 C   0  0  0  0  0  0  0  0  0  0  0  0
    3.7400   -1.2219   -0.6596 C   0  0  0  0  0  0  0  0  0  0  0  0
    4.6441   -0.1757   -0.8465 C   0  0  0  0  0  0  0  0  0  0  0  0
    4.2670    1.1291   -0.5461 C   0  0  0  0  0  0  0  0  0  0  0  0
    2.9936    1.3841   -0.0351 C   0  0  0  0  0  0  0  0  0  0  0  0
    2.0704    0.3433    0.1454 C   0  0  0  0  0  0  0  0  0  0  0  0
    0.5933    0.7342    1.0706 S   0  0  0  0  0  0  0  0  0  0  0  0
   -4.2365    2.6173   -0.3216 H   0  0  0  0  0  0  0  0  0  0  0  0
   -2.4923    2.8665   -0.1491 H   0  0  0  0  0  0  0  0  0  0  0  0
   -3.1231    1.8256   -1.4476 H   0  0  0  0  0  0  0  0  0  0  0  0
   -5.2025    1.0071    1.4172 H   0  0  0  0  0  0  0  0  0  0  0  0
   -4.5386   -1.1128    2.8124 H   0  0  0  0  0  0  0  0  0  0  0  0
   -0.8053    1.0730   -0.7765 H   0  0  0  0  0  0  0  0  0  0  0  0
    0.1941   -0.6643   -1.8339 H   0  0  0  0  0  0  0  0  0  0  0  0
   -1.3580   -1.3411   -1.4482 H   0  0  0  0  0  0  0  0  0  0  0  0
    2.0115   -2.9937    0.0595 H   0  0  0  0  0  0  0  0  0  0  0  0
    4.0532   -2.2339   -0.9058 H   0  0  0  0  0  0  0  0  0  0  0  0
    5.6439   -0.3808   -1.2217 H   0  0  0  0  0  0  0  0  0  0  0  0
    4.9733    1.9453   -0.6769 H   0  0  0  0  0  0  0  0  0  0  0  0
    2.7399    2.4019    0.2558 H   0  0  0  0  0  0  0  0  0  0  0  0
  1  2  1  0
  2  3  1  0
  3  4  2  0
  4  5  1  0
  5  6  1  0
  6  7  1  0
  7  8  1  0
  8  9  1  0
  9 10  2  0
  9 11  1  0
 11 12  1  0
 12 13  2  0
 13 14  1  0
 14 15  2  0
 15 16  1  0
 16 17  2  0
 17 18  1  0
  6  2  2  0
 18  7  1  0
 17 12  1  0
  1 19  1  0
  1 20  1  0
  1 21  1  0
  3 22  1  0
  4 23  1  0
  7 24  1  0
  8 25  1  0
  8 26  1  0
 11 27  1  0
 13 28  1  0
 14 29  1  0
 15 30  1  0
 16 31  1  0
M  END
$$$$
