
     RDKit          3D

 29 29  0  0  0  0  0  0  0  0999 V2000
   -6.2331   -2.1876   -0.3258 C   0  0  0  0  0  0  0  0  0  0  0  0
   -5.0971   -1.9969    0.0152 C   0  0  0  0  0  0  0  0  0  0  0  0
   -3.7077   -1.7635    0.4311 C   0  0  0  0  0  0  0  0  0  0  0  0
   -3.1853   -0.5927   -0.2612 N   0  0  0  0  0  0  0  0  0  0  0  0
   -1.8159   -0.2513    0.1236 C   0  0  0  0  0  0  0  0  0  0  0  0
   -0.7632   -1.1973   -0.4656 C   0  0  0  0  0  0  0  0  0  0  0  0
    0.6549   -0.7860   -0.0679 C   0  0  0  0  0  0  0  0  0  0  0  0
    0.9392    0.4919   -0.6314 O   0  0  0  0  0  0  0  0  0  0  0  0
    2.1574    1.0589   -0.3671 C   0  0  0  0  0  0  0  0  0  0  0  0
    3.1735    0.4467    0.3742 C   0  0  0  0  0  0  0  0  0  0  0  0
    4.3879    1.1079    0.5892 C   0  0  0  0  0  0  0  0  0  0  0  0
    4.5920    2.3818    0.0639 C   0  0  0  0  0  0  0  0  0  0  0  0
    6.0885    3.1857    0.3338 Cl  0  0  0  0  0  0  0  0  0  0  0  0
    3.5948    3.0059   -0.6770 C   0  0  0  0  0  0  0  0  0  0  0  0
    2.3830    2.3447   -0.8909 C   0  0  0  0  0  0  0  0  0  0  0  0
    1.1717    3.1611   -1.8187 Cl  0  0  0  0  0  0  0  0  0  0  0  0
   -7.2421   -2.3467   -0.6287 H   0  0  0  0  0  0  0  0  0  0  0  0
   -3.1155   -2.6558    0.2033 H   0  0  0  0  0  0  0  0  0  0  0  0
   -3.6786   -1.6075    1.5154 H   0  0  0  0  0  0  0  0  0  0  0  0
   -3.2430   -0.7389   -1.2680 H   0  0  0  0  0  0  0  0  0  0  0  0
   -1.7275   -0.2089    1.2160 H   0  0  0  0  0  0  0  0  0  0  0  0
   -1.6254    0.7664   -0.2364 H   0  0  0  0  0  0  0  0  0  0  0  0
   -0.9335   -2.2235   -0.1231 H   0  0  0  0  0  0  0  0  0  0  0  0
   -0.8476   -1.1909   -1.5595 H   0  0  0  0  0  0  0  0  0  0  0  0
    1.3569   -1.5293   -0.4639 H   0  0  0  0  0  0  0  0  0  0  0  0
    0.7323   -0.7492    1.0254 H   0  0  0  0  0  0  0  0  0  0  0  0
    3.0571   -0.5456    0.7981 H   0  0  0  0  0  0  0  0  0  0  0  0
    5.1702    0.6213    1.1672 H   0  0  0  0  0  0  0  0  0  0  0  0
    3.7562    3.9993   -1.0862 H   0  0  0  0  0  0  0  0  0  0  0  0
  1  2  3  0
  2  3  1  0
  3  4  1  0
  4  5  1  0
  5  6  1  0
  6  7  1  0
  7  8  1  0
  8  9  1  0
  9 10  2  0
 10 11  1  0
 11 12  2  0
 12 13  1  0
 12 14  1  0
 14 15  2  0
 15 16  1  0
 15  9  1  0
  1 17  1  0
  3 18  1  0
  3 19  1  0
  4 20  1  0
  5 21  1  0
  5 22  1  0
  6 23  1  0
  6 24  1  0
  7 25  1  0
  7 26  1  0
 10 27  1  0
 11 28  1  0
 14 29  1  0
M  END
$$$$
