
     RDKit          3D

 40 41  0  0  0  0  0  0  0  0999 V2000
    7.6675   -1.4493    0.3664 C   0  0  0  0  0  0  0  0  0  0  0  0
    7.1730   -0.2014   -0.1026 O   0  0  0  0  0  0  0  0  0  0  0  0
    5.8399    0.0431    0.0762 C   0  0  0  0  0  0  0  0  0  0  0  0
    4.9159   -0.8236    0.6582 C   0  0  0  0  0  0  0  0  0  0  0  0
    3.5722   -0.4447    0.7784 C   0  0  0  0  0  0  0  0  0  0  0  0
    3.1348    0.8004    0.3105 C   0  0  0  0  0  0  0  0  0  0  0  0
    1.7414    1.2402    0.4426 C   0  0  0  0  0  0  0  0  0  0  0  0
    0.6883    0.4527    0.1736 C   0  0  0  0  0  0  0  0  0  0  0  0
   -0.6949    0.9905    0.3195 C   0  0  0  0  0  0  0  0  0  0  0  0
   -0.8929    2.1204    0.7439 O   0  0  0  0  0  0  0  0  0  0  0  0
   -1.6522    0.0742   -0.0773 N   0  0  0  0  0  0  0  0  0  0  0  0
   -3.0326    0.2056   -0.0799 C   0  0  0  0  0  0  0  0  0  0  0  0
   -3.6439    1.3110    0.3606 C   0  0  0  0  0  0  0  0  0  0  0  0
   -5.1058    1.4277    0.3551 C   0  0  0  0  0  0  0  0  0  0  0  0
   -5.6251    2.4354    0.8287 O   0  0  0  0  0  0  0  0  0  0  0  0
   -5.7957    0.3716   -0.1891 N   0  0  0  0  0  0  0  0  0  0  0  0
   -7.2442    0.4411   -0.2281 C   0  0  0  0  0  0  0  0  0  0  0  0
   -5.2005   -0.8077   -0.6051 C   0  0  0  0  0  0  0  0  0  0  0  0
   -5.8758   -1.7626   -0.9977 O   0  0  0  0  0  0  0  0  0  0  0  0
   -3.8027   -0.8563   -0.5498 N   0  0  0  0  0  0  0  0  0  0  0  0
   -3.1800   -2.0935   -1.0120 C   0  0  0  0  0  0  0  0  0  0  0  0
    4.0695    1.6720   -0.2560 C   0  0  0  0  0  0  0  0  0  0  0  0
    5.4091    1.2912   -0.3773 C   0  0  0  0  0  0  0  0  0  0  0  0
    7.5371   -1.5440    1.4496 H   0  0  0  0  0  0  0  0  0  0  0  0
    8.7408   -1.4841    0.1562 H   0  0  0  0  0  0  0  0  0  0  0  0
    7.1972   -2.2843   -0.1634 H   0  0  0  0  0  0  0  0  0  0  0  0
    5.2061   -1.7982    1.0360 H   0  0  0  0  0  0  0  0  0  0  0  0
    2.8787   -1.1309    1.2581 H   0  0  0  0  0  0  0  0  0  0  0  0
    1.5963    2.2748    0.7510 H   0  0  0  0  0  0  0  0  0  0  0  0
    0.8188   -0.5678   -0.1613 H   0  0  0  0  0  0  0  0  0  0  0  0
   -1.2961   -0.8016   -0.4237 H   0  0  0  0  0  0  0  0  0  0  0  0
   -3.1364    2.1810    0.7538 H   0  0  0  0  0  0  0  0  0  0  0  0
   -7.6119    0.0431   -1.1794 H   0  0  0  0  0  0  0  0  0  0  0  0
   -7.6087    1.4653   -0.1113 H   0  0  0  0  0  0  0  0  0  0  0  0
   -7.6419   -0.1750    0.5847 H   0  0  0  0  0  0  0  0  0  0  0  0
   -2.5248   -1.8715   -1.8607 H   0  0  0  0  0  0  0  0  0  0  0  0
   -2.6032   -2.5347   -0.1925 H   0  0  0  0  0  0  0  0  0  0  0  0
   -3.9075   -2.8393   -1.3433 H   0  0  0  0  0  0  0  0  0  0  0  0
    3.7662    2.6529   -0.6156 H   0  0  0  0  0  0  0  0  0  0  0  0
    6.1239    1.9766   -0.8266 H   0  0  0  0  0  0  0  0  0  0  0  0
  1  2  1  0
  2  3  1  0
  3  4  2  0
  4  5  1  0
  5  6  2  0
  6  7  1  0
  7  8  2  3
  8  9  1  0
  9 10  2  0
  9 11  1  0
 11 12  1  0
 12 13  2  0
 13 14  1  0
 14 15  2  0
 14 16  1  0
 16 17  1  0
 16 18  1  0
 18 19  2  0
 18 20  1  0
 20 21  1  0
  6 22  1  0
 22 23  2  0
 23  3  1  0
 20 12  1  0
  1 24  1  0
  1 25  1  0
  1 26  1  0
  4 27  1  0
  5 28  1  0
  7 29  1  0
  8 30  1  0
 11 31  1  0
 13 32  1  0
 17 33  1  0
 17 34  1  0
 17 35  1  0
 21 36  1  0
 21 37  1  0
 21 38  1  0
 22 39  1  0
 23 40  1  0
M  END
$$$$
