
     RDKit          3D

 60 62  0  0  0  0  0  0  0  0999 V2000
   -3.0343    4.1708   -0.7635 C   0  0  0  0  0  0  0  0  0  0  0  0
   -3.8360    2.9088   -0.4845 C   0  0  0  0  0  0  0  0  0  0  0  0
   -2.9520    1.7069   -0.2757 C   0  0  0  0  0  0  0  0  0  0  0  0
   -2.4660    0.9813   -1.3711 C   0  0  0  0  0  0  0  0  0  0  0  0
   -1.6557   -0.1437   -1.1827 C   0  0  0  0  0  0  0  0  0  0  0  0
   -1.3137   -0.5581    0.1054 C   0  0  0  0  0  0  0  0  0  0  0  0
   -0.5023   -1.6731    0.3846 N   0  0  0  0  0  0  0  0  0  0  0  0
    0.1572   -2.4996   -0.5095 C   0  0  0  0  0  0  0  0  0  0  0  0
    0.1029   -2.4431   -1.7339 O   0  0  0  0  0  0  0  0  0  0  0  0
    0.9972   -3.5807    0.1974 C   0  0  0  0  0  0  0  0  0  0  0  0
    1.5237   -3.0565    1.4951 N   0  0  0  0  0  0  0  0  0  0  0  0
    3.0056   -2.2296    1.4742 S   0  0  0  0  0  6  0  0  0  0  0  0
    3.3851   -2.1069    2.8661 O   0  0  0  0  0  0  0  0  0  0  0  0
    3.8710   -2.8709    0.5123 O   0  0  0  0  0  0  0  0  0  0  0  0
    2.5617   -0.6177    0.8918 C   0  0  0  0  0  0  0  0  0  0  0  0
    2.6963   -0.3085   -0.4695 C   0  0  0  0  0  0  0  0  0  0  0  0
    2.2966    0.9462   -0.9532 C   0  0  0  0  0  0  0  0  0  0  0  0
    1.7821    1.8803   -0.0665 C   0  0  0  0  0  0  0  0  0  0  0  0
    1.6992    1.5681    1.2975 C   0  0  0  0  0  0  0  0  0  0  0  0
    2.0857    0.3316    1.7969 C   0  0  0  0  0  0  0  0  0  0  0  0
    1.1416    2.7029    2.0950 C   0  0  0  0  0  0  0  0  0  0  0  0
    0.8544    3.7413    1.0071 C   0  0  0  0  0  0  0  0  0  0  0  0
    1.2799    3.1787   -0.2815 N   0  0  0  0  0  0  0  0  0  0  0  0
    1.0860    3.9270   -1.4241 C   0  0  0  0  0  0  0  0  0  0  0  0
    1.4761    3.3667   -2.7616 C   0  0  0  0  0  0  0  0  0  0  0  0
    0.5901    5.0596   -1.3736 O   0  0  0  0  0  0  0  0  0  0  0  0
    0.2074   -4.8894    0.4561 C   0  0  0  0  0  0  0  0  0  0  0  0
   -0.1262   -5.6079   -0.8559 C   0  0  0  0  0  0  0  0  0  0  0  0
   -1.0699   -4.7107    1.2866 C   0  0  0  0  0  0  0  0  0  0  0  0
   -1.7901    0.1729    1.2018 C   0  0  0  0  0  0  0  0  0  0  0  0
   -2.5973    1.2991    1.0138 C   0  0  0  0  0  0  0  0  0  0  0  0
   -2.3948    4.0552   -1.6458 H   0  0  0  0  0  0  0  0  0  0  0  0
   -2.3931    4.4302    0.0879 H   0  0  0  0  0  0  0  0  0  0  0  0
   -3.7111    5.0141   -0.9427 H   0  0  0  0  0  0  0  0  0  0  0  0
   -4.5255    2.7127   -1.3179 H   0  0  0  0  0  0  0  0  0  0  0  0
   -4.4666    3.0629    0.4019 H   0  0  0  0  0  0  0  0  0  0  0  0
   -2.7216    1.2825   -2.3865 H   0  0  0  0  0  0  0  0  0  0  0  0
   -1.3133   -0.6768   -2.0660 H   0  0  0  0  0  0  0  0  0  0  0  0
   -0.2785   -1.8483    1.3626 H   0  0  0  0  0  0  0  0  0  0  0  0
    1.8419   -3.8182   -0.4622 H   0  0  0  0  0  0  0  0  0  0  0  0
    1.4956   -3.6859    2.3032 H   0  0  0  0  0  0  0  0  0  0  0  0
    3.0873   -1.0465   -1.1692 H   0  0  0  0  0  0  0  0  0  0  0  0
    2.4015    1.1264   -2.0130 H   0  0  0  0  0  0  0  0  0  0  0  0
    2.0019    0.1102    2.8558 H   0  0  0  0  0  0  0  0  0  0  0  0
    0.2207    2.4161    2.6147 H   0  0  0  0  0  0  0  0  0  0  0  0
    1.8753    3.0748    2.8198 H   0  0  0  0  0  0  0  0  0  0  0  0
   -0.2164    3.9802    0.9583 H   0  0  0  0  0  0  0  0  0  0  0  0
    1.3974    4.6790    1.1865 H   0  0  0  0  0  0  0  0  0  0  0  0
    2.5500    3.1740   -2.7932 H   0  0  0  0  0  0  0  0  0  0  0  0
    0.8943    2.4704   -2.9828 H   0  0  0  0  0  0  0  0  0  0  0  0
    1.2535    4.1039   -3.5407 H   0  0  0  0  0  0  0  0  0  0  0  0
    0.8684   -5.5610    1.0222 H   0  0  0  0  0  0  0  0  0  0  0  0
   -0.8750   -5.0611   -1.4391 H   0  0  0  0  0  0  0  0  0  0  0  0
    0.7705   -5.7261   -1.4732 H   0  0  0  0  0  0  0  0  0  0  0  0
   -0.5229   -6.6098   -0.6579 H   0  0  0  0  0  0  0  0  0  0  0  0
   -1.8234   -4.1211    0.7566 H   0  0  0  0  0  0  0  0  0  0  0  0
   -1.5150   -5.6887    1.5051 H   0  0  0  0  0  0  0  0  0  0  0  0
   -0.8629   -4.2224    2.2473 H   0  0  0  0  0  0  0  0  0  0  0  0
   -1.5407   -0.1222    2.2197 H   0  0  0  0  0  0  0  0  0  0  0  0
   -2.9540    1.8497    1.8828 H   0  0  0  0  0  0  0  0  0  0  0  0
  1  2  1  0
  2  3  1  0
  3  4  2  0
  4  5  1  0
  5  6  2  0
  6  7  1  0
  7  8  1  0
  8  9  2  0
  8 10  1  0
 10 11  1  0
 11 12  1  0
 12 13  2  0
 12 14  2  0
 12 15  1  0
 15 16  2  0
 16 17  1  0
 17 18  2  0
 18 19  1  0
 19 20  2  0
 19 21  1  0
 21 22  1  0
 22 23  1  0
 23 24  1  0
 24 25  1  0
 24 26  2  0
 10 27  1  0
 27 28  1  0
 27 29  1  0
  6 30  1  0
 30 31  2  0
 31  3  1  0
 20 15  1  0
 23 18  1  0
  1 32  1  0
  1 33  1  0
  1 34  1  0
  2 35  1  0
  2 36  1  0
  4 37  1  0
  5 38  1  0
  7 39  1  0
 10 40  1  0
 11 41  1  0
 16 42  1  0
 17 43  1  0
 20 44  1  0
 21 45  1  0
 21 46  1  0
 22 47  1  0
 22 48  1  0
 25 49  1  0
 25 50  1  0
 25 51  1  0
 27 52  1  0
 28 53  1  0
 28 54  1  0
 28 55  1  0
 29 56  1  0
 29 57  1  0
 29 58  1  0
 30 59  1  0
 31 60  1  0
M  END
$$$$
