
     RDKit          3D

 34 35  0  0  0  0  0  0  0  0999 V2000
    7.0728   -0.1677   -0.2896 C   0  0  0  0  0  0  0  0  0  0  0  0
    5.9916   -0.9546   -0.7728 O   0  0  0  0  0  0  0  0  0  0  0  0
    4.7444   -0.6440   -0.3063 C   0  0  0  0  0  0  0  0  0  0  0  0
    3.7187   -1.4564   -0.7960 C   0  0  0  0  0  0  0  0  0  0  0  0
    2.3949   -1.2476   -0.4001 C   0  0  0  0  0  0  0  0  0  0  0  0
    2.0791   -0.2134    0.4827 C   0  0  0  0  0  0  0  0  0  0  0  0
    0.7604    0.0049    0.9049 N   0  0  0  0  0  0  0  0  0  0  0  0
   -0.0369    0.5232    0.0266 C   0  0  0  0  0  0  0  0  0  0  0  0
   -1.4701    0.7999    0.3768 C   0  0  0  0  0  0  0  0  0  0  0  0
   -2.4391    0.1868   -0.6048 C   0  0  0  0  0  0  0  0  0  0  0  0
   -2.0702   -0.2656   -1.6873 O   0  0  0  0  0  0  0  0  0  0  0  0
   -3.8934    0.1569   -0.2597 C   0  0  0  0  0  0  0  0  0  0  0  0
   -4.4113    0.8093    0.8671 C   0  0  0  0  0  0  0  0  0  0  0  0
   -5.7824    0.7528    1.1429 C   0  0  0  0  0  0  0  0  0  0  0  0
   -6.6366    0.0492    0.2952 C   0  0  0  0  0  0  0  0  0  0  0  0
   -8.3201   -0.0149    0.6397 Cl  0  0  0  0  0  0  0  0  0  0  0  0
   -6.1336   -0.5995   -0.8295 C   0  0  0  0  0  0  0  0  0  0  0  0
   -4.7648   -0.5447   -1.1069 C   0  0  0  0  0  0  0  0  0  0  0  0
    3.1063    0.5879    0.9834 C   0  0  0  0  0  0  0  0  0  0  0  0
    4.4336    0.3797    0.5891 C   0  0  0  0  0  0  0  0  0  0  0  0
    7.9917   -0.5435   -0.7500 H   0  0  0  0  0  0  0  0  0  0  0  0
    7.1796   -0.2671    0.7957 H   0  0  0  0  0  0  0  0  0  0  0  0
    6.9590    0.8814   -0.5819 H   0  0  0  0  0  0  0  0  0  0  0  0
    3.9519   -2.2625   -1.4871 H   0  0  0  0  0  0  0  0  0  0  0  0
    1.6101   -1.8964   -0.7790 H   0  0  0  0  0  0  0  0  0  0  0  0
    0.2981    0.8076   -0.9888 H   0  0  0  0  0  0  0  0  0  0  0  0
   -1.6621    0.4126    1.3825 H   0  0  0  0  0  0  0  0  0  0  0  0
   -1.6052    1.8862    0.3620 H   0  0  0  0  0  0  0  0  0  0  0  0
   -3.7769    1.3724    1.5456 H   0  0  0  0  0  0  0  0  0  0  0  0
   -6.1776    1.2608    2.0196 H   0  0  0  0  0  0  0  0  0  0  0  0
   -6.7963   -1.1482   -1.4940 H   0  0  0  0  0  0  0  0  0  0  0  0
   -4.3815   -1.0552   -1.9895 H   0  0  0  0  0  0  0  0  0  0  0  0
    2.8704    1.3792    1.6896 H   0  0  0  0  0  0  0  0  0  0  0  0
    5.1954    1.0306    1.0038 H   0  0  0  0  0  0  0  0  0  0  0  0
  1  2  1  0
  2  3  1  0
  3  4  2  0
  4  5  1  0
  5  6  2  0
  6  7  1  0
  7  8  2  3
  8  9  1  0
  9 10  1  0
 10 11  2  0
 10 12  1  0
 12 13  2  0
 13 14  1  0
 14 15  2  0
 15 16  1  0
 15 17  1  0
 17 18  2  0
  6 19  1  0
 19 20  2  0
 20  3  1  0
 18 12  1  0
  1 21  1  0
  1 22  1  0
  1 23  1  0
  4 24  1  0
  5 25  1  0
  8 26  1  0
  9 27  1  0
  9 28  1  0
 13 29  1  0
 14 30  1  0
 17 31  1  0
 18 32  1  0
 19 33  1  0
 20 34  1  0
M  END
$$$$
