
     RDKit          3D

 51 55  0  0  0  0  0  0  0  0999 V2000
    0.8483    0.9182   -0.2595 O   0  0  0  0  0  0  0  0  0  0  0  0
    1.0109   -0.2931   -0.3828 C   0  0  0  0  0  0  0  0  0  0  0  0
   -0.1136   -1.2197   -0.8783 C   0  0  0  0  0  0  0  0  0  0  0  0
   -1.4431   -0.6686   -0.6213 N   0  0  0  0  0  0  0  0  0  0  0  0
   -1.9103   -0.7704    0.6860 C   0  0  0  0  0  0  0  0  0  0  0  0
   -1.3448   -1.4584    1.5389 O   0  0  0  0  0  0  0  0  0  0  0  0
   -3.1175    0.0545    1.0526 C   0  0  0  0  0  0  0  0  0  0  0  0
   -4.4042   -0.7019    0.7789 C   0  0  0  0  0  0  0  0  0  0  0  0
   -5.5906    0.1671    1.0604 C   0  0  0  0  0  0  0  0  0  0  0  0
   -6.1758    1.2422    0.4173 C   0  0  0  0  0  0  0  0  0  0  0  0
   -7.2701    1.6450    1.2198 C   0  0  0  0  0  0  0  0  0  0  0  0
   -7.2783    0.8029    2.3051 C   0  0  0  0  0  0  0  0  0  0  0  0
   -6.2643   -0.0949    2.2193 O   0  0  0  0  0  0  0  0  0  0  0  0
   -4.5329   -1.4370   -0.8991 S   0  0  0  0  0  0  0  0  0  0  0  0
   -3.5647   -0.2817   -1.8687 C   0  0  0  0  0  0  0  0  0  0  0  0
   -4.2290    0.3134   -2.9534 C   0  0  0  0  0  0  0  0  0  0  0  0
   -3.5405    1.1216   -3.8568 C   0  0  0  0  0  0  0  0  0  0  0  0
   -2.1757    1.3247   -3.6971 C   0  0  0  0  0  0  0  0  0  0  0  0
   -1.4992    0.7249   -2.6327 C   0  0  0  0  0  0  0  0  0  0  0  0
   -2.1773   -0.0735   -1.6952 C   0  0  0  0  0  0  0  0  0  0  0  0
    2.2013   -0.9792   -0.1794 N   0  0  0  0  0  0  0  0  0  0  0  0
    3.4337   -0.4541    0.2646 C   0  0  0  0  0  0  0  0  0  0  0  0
    3.6445    0.8908    0.5819 C   0  0  0  0  0  0  0  0  0  0  0  0
    4.8959    1.3279    1.0334 C   0  0  0  0  0  0  0  0  0  0  0  0
    5.9432    0.4230    1.1732 C   0  0  0  0  0  0  0  0  0  0  0  0
    5.7515   -0.9164    0.8285 C   0  0  0  0  0  0  0  0  0  0  0  0
    4.5002   -1.3554    0.3931 C   0  0  0  0  0  0  0  0  0  0  0  0
    6.7450   -1.8609    0.8959 O   0  0  0  0  0  0  0  0  0  0  0  0
    8.0357   -1.2528    1.0283 C   0  0  0  0  0  0  0  0  0  0  0  0
    8.0038   -0.1406    2.0639 C   0  0  0  0  0  0  0  0  0  0  0  0
    7.1307    0.9164    1.6460 O   0  0  0  0  0  0  0  0  0  0  0  0
   -0.0318   -2.1862   -0.3648 H   0  0  0  0  0  0  0  0  0  0  0  0
    0.0282   -1.4126   -1.9485 H   0  0  0  0  0  0  0  0  0  0  0  0
   -3.0442    0.2903    2.1234 H   0  0  0  0  0  0  0  0  0  0  0  0
   -3.0790    1.0317    0.5540 H   0  0  0  0  0  0  0  0  0  0  0  0
   -4.4447   -1.5648    1.4560 H   0  0  0  0  0  0  0  0  0  0  0  0
   -5.8511    1.6832   -0.5154 H   0  0  0  0  0  0  0  0  0  0  0  0
   -7.9641    2.4532    1.0348 H   0  0  0  0  0  0  0  0  0  0  0  0
   -7.9065    0.7146    3.1815 H   0  0  0  0  0  0  0  0  0  0  0  0
   -5.2910    0.1350   -3.1156 H   0  0  0  0  0  0  0  0  0  0  0  0
   -4.0655    1.5745   -4.6950 H   0  0  0  0  0  0  0  0  0  0  0  0
   -1.6309    1.9522   -4.3994 H   0  0  0  0  0  0  0  0  0  0  0  0
   -0.4378    0.9351   -2.5282 H   0  0  0  0  0  0  0  0  0  0  0  0
    2.1808   -1.9823   -0.3190 H   0  0  0  0  0  0  0  0  0  0  0  0
    2.8518    1.6296    0.5051 H   0  0  0  0  0  0  0  0  0  0  0  0
    5.0419    2.3740    1.2900 H   0  0  0  0  0  0  0  0  0  0  0  0
    4.3779   -2.4059    0.1443 H   0  0  0  0  0  0  0  0  0  0  0  0
    8.3471   -0.8777    0.0455 H   0  0  0  0  0  0  0  0  0  0  0  0
    8.7397   -2.0340    1.3334 H   0  0  0  0  0  0  0  0  0  0  0  0
    9.0036    0.2863    2.1906 H   0  0  0  0  0  0  0  0  0  0  0  0
    7.6630   -0.5102    3.0399 H   0  0  0  0  0  0  0  0  0  0  0  0
  1  2  2  0
  2  3  1  0
  3  4  1  0
  4  5  1  0
  5  6  2  0
  5  7  1  0
  7  8  1  0
  8  9  1  0
  9 10  2  0
 10 11  1  0
 11 12  2  0
 12 13  1  0
  8 14  1  0
 14 15  1  0
 15 16  2  0
 16 17  1  0
 17 18  2  0
 18 19  1  0
 19 20  2  0
  2 21  1  0
 21 22  1  0
 22 23  2  0
 23 24  1  0
 24 25  2  0
 25 26  1  0
 26 27  2  0
 26 28  1  0
 28 29  1  0
 29 30  1  0
 30 31  1  0
 20  4  1  0
 27 22  1  0
 13  9  1  0
 20 15  1  0
 31 25  1  0
  3 32  1  0
  3 33  1  0
  7 34  1  0
  7 35  1  0
  8 36  1  0
 10 37  1  0
 11 38  1  0
 12 39  1  0
 16 40  1  0
 17 41  1  0
 18 42  1  0
 19 43  1  0
 21 44  1  0
 23 45  1  0
 24 46  1  0
 27 47  1  0
 29 48  1  0
 29 49  1  0
 30 50  1  0
 30 51  1  0
M  END
$$$$
