
     RDKit          3D

 63 67  0  0  0  0  0  0  0  0999 V2000
    3.5401    5.2606   -4.7156 C   0  0  0  0  0  0  0  0  0  0  0  0
    3.5695    4.8786   -3.3467 O   0  0  0  0  0  0  0  0  0  0  0  0
    3.5705    3.5376   -3.0793 C   0  0  0  0  0  0  0  0  0  0  0  0
    3.5350    2.5120   -4.0235 C   0  0  0  0  0  0  0  0  0  0  0  0
    3.5414    1.1740   -3.6098 C   0  0  0  0  0  0  0  0  0  0  0  0
    3.5850    0.8441   -2.2484 C   0  0  0  0  0  0  0  0  0  0  0  0
    3.5807   -0.5583   -1.8140 C   0  0  0  0  0  0  0  0  0  0  0  0
    4.9103   -1.5464   -2.2454 S   0  0  0  0  0  0  0  0  0  0  0  0
    4.2703   -2.9208   -1.4409 C   0  0  0  0  0  0  0  0  0  0  0  0
    4.8540   -4.1985   -1.3608 C   0  0  0  0  0  0  0  0  0  0  0  0
    4.1799   -5.2054   -0.6655 C   0  0  0  0  0  0  0  0  0  0  0  0
    2.9515   -4.9648   -0.0623 C   0  0  0  0  0  0  0  0  0  0  0  0
    2.4071   -6.0453    0.5769 O   0  0  0  0  0  0  0  0  0  0  0  0
    1.1263   -5.8655    1.1681 C   0  0  0  0  0  0  0  0  0  0  0  0
    2.3829   -3.6905   -0.1452 C   0  0  0  0  0  0  0  0  0  0  0  0
    3.0440   -2.6375   -0.8392 C   0  0  0  0  0  0  0  0  0  0  0  0
    2.6568   -1.2583   -1.0526 C   0  0  0  0  0  0  0  0  0  0  0  0
    1.4373   -0.6334   -0.5500 C   0  0  0  0  0  0  0  0  0  0  0  0
    1.2808   -0.4132    0.8232 C   0  0  0  0  0  0  0  0  0  0  0  0
    0.1104    0.1734    1.3180 C   0  0  0  0  0  0  0  0  0  0  0  0
   -0.9132    0.5395    0.4437 C   0  0  0  0  0  0  0  0  0  0  0  0
   -2.1017    1.1173    0.7920 O   0  0  0  0  0  0  0  0  0  0  0  0
   -2.3454    1.3290    2.1843 C   0  0  0  0  0  0  0  0  0  0  0  0
   -3.7353    1.9712    2.3664 C   0  0  0  0  0  0  0  0  0  0  0  0
   -4.8587    1.0727    2.0475 N   0  0  0  0  0  0  0  0  0  0  0  0
   -5.0845    0.0181    3.0567 C   0  0  0  0  0  0  0  0  0  0  0  0
   -6.3015    0.2775    3.9607 C   0  0  0  0  0  0  0  0  0  0  0  0
   -7.5289    0.4218    3.2353 O   0  0  0  0  0  0  0  0  0  0  0  0
   -7.3431    0.9535    1.9164 C   0  0  0  0  0  0  0  0  0  0  0  0
   -6.0966    1.8423    1.8056 C   0  0  0  0  0  0  0  0  0  0  0  0
   -0.7543    0.3171   -0.9268 C   0  0  0  0  0  0  0  0  0  0  0  0
    0.4121   -0.2678   -1.4255 C   0  0  0  0  0  0  0  0  0  0  0  0
    3.6183    1.8781   -1.3066 C   0  0  0  0  0  0  0  0  0  0  0  0
    3.6111    3.2127   -1.7218 C   0  0  0  0  0  0  0  0  0  0  0  0
    3.5523    6.3539   -4.7578 H   0  0  0  0  0  0  0  0  0  0  0  0
    4.4261    4.8975   -5.2466 H   0  0  0  0  0  0  0  0  0  0  0  0
    2.6203    4.9188   -5.2011 H   0  0  0  0  0  0  0  0  0  0  0  0
    3.5005    2.7146   -5.0884 H   0  0  0  0  0  0  0  0  0  0  0  0
    3.5063    0.3892   -4.3624 H   0  0  0  0  0  0  0  0  0  0  0  0
    5.8112   -4.4029   -1.8319 H   0  0  0  0  0  0  0  0  0  0  0  0
    4.6248   -6.1961   -0.6003 H   0  0  0  0  0  0  0  0  0  0  0  0
    0.8278   -6.8188    1.6148 H   0  0  0  0  0  0  0  0  0  0  0  0
    1.1635   -5.1199    1.9690 H   0  0  0  0  0  0  0  0  0  0  0  0
    0.3767   -5.6015    0.4148 H   0  0  0  0  0  0  0  0  0  0  0  0
    1.4243   -3.4707    0.3118 H   0  0  0  0  0  0  0  0  0  0  0  0
    2.0712   -0.6921    1.5167 H   0  0  0  0  0  0  0  0  0  0  0  0
    0.0334    0.3305    2.3881 H   0  0  0  0  0  0  0  0  0  0  0  0
   -2.2785    0.3840    2.7333 H   0  0  0  0  0  0  0  0  0  0  0  0
   -1.5977    2.0279    2.5780 H   0  0  0  0  0  0  0  0  0  0  0  0
   -3.7764    2.8380    1.6945 H   0  0  0  0  0  0  0  0  0  0  0  0
   -3.8346    2.3465    3.3921 H   0  0  0  0  0  0  0  0  0  0  0  0
   -4.2020   -0.1552    3.6814 H   0  0  0  0  0  0  0  0  0  0  0  0
   -5.2609   -0.9138    2.5048 H   0  0  0  0  0  0  0  0  0  0  0  0
   -6.1507    1.1832    4.5608 H   0  0  0  0  0  0  0  0  0  0  0  0
   -6.4320   -0.5556    4.6600 H   0  0  0  0  0  0  0  0  0  0  0  0
   -7.2896    0.1148    1.2130 H   0  0  0  0  0  0  0  0  0  0  0  0
   -8.2401    1.5293    1.6675 H   0  0  0  0  0  0  0  0  0  0  0  0
   -6.0521    2.2875    0.8059 H   0  0  0  0  0  0  0  0  0  0  0  0
   -6.1867    2.6570    2.5362 H   0  0  0  0  0  0  0  0  0  0  0  0
   -1.5489    0.6013   -1.6126 H   0  0  0  0  0  0  0  0  0  0  0  0
    0.5102   -0.4336   -2.4955 H   0  0  0  0  0  0  0  0  0  0  0  0
    3.6525    1.6544   -0.2432 H   0  0  0  0  0  0  0  0  0  0  0  0
    3.6370    4.0062   -0.9789 H   0  0  0  0  0  0  0  0  0  0  0  0
  1  2  1  0
  2  3  1  0
  3  4  2  0
  4  5  1  0
  5  6  2  0
  6  7  1  0
  7  8  1  0
  8  9  1  0
  9 10  2  0
 10 11  1  0
 11 12  2  0
 12 13  1  0
 13 14  1  0
 12 15  1  0
 15 16  2  0
 16 17  1  0
 17 18  1  0
 18 19  2  0
 19 20  1  0
 20 21  2  0
 21 22  1  0
 22 23  1  0
 23 24  1  0
 24 25  1  0
 25 26  1  0
 26 27  1  0
 27 28  1  0
 28 29  1  0
 29 30  1  0
 21 31  1  0
 31 32  2  0
  6 33  1  0
 33 34  2  0
 34  3  1  0
 17  7  2  0
 32 18  1  0
 16  9  1  0
 30 25  1  0
  1 35  1  0
  1 36  1  0
  1 37  1  0
  4 38  1  0
  5 39  1  0
 10 40  1  0
 11 41  1  0
 14 42  1  0
 14 43  1  0
 14 44  1  0
 15 45  1  0
 19 46  1  0
 20 47  1  0
 23 48  1  0
 23 49  1  0
 24 50  1  0
 24 51  1  0
 26 52  1  0
 26 53  1  0
 27 54  1  0
 27 55  1  0
 29 56  1  0
 29 57  1  0
 30 58  1  0
 30 59  1  0
 31 60  1  0
 32 61  1  0
 33 62  1  0
 34 63  1  0
M  END
$$$$
