
     RDKit          3D

 44 46  0  0  0  0  0  0  0  0999 V2000
   -4.8740    1.4571   -2.9936 C   0  0  0  0  0  0  0  0  0  0  0  0
   -3.6309    1.8607   -2.1971 C   0  0  0  0  0  0  0  0  0  0  0  0
   -3.9907    2.8539   -1.0892 C   0  0  0  0  0  0  0  0  0  0  0  0
   -2.9040    0.6467   -1.6430 C   0  0  0  0  0  0  0  0  0  0  0  0
   -1.5917    0.3726   -2.0620 C   0  0  0  0  0  0  0  0  0  0  0  0
   -0.9013   -0.7356   -1.5686 C   0  0  0  0  0  0  0  0  0  0  0  0
   -1.5191   -1.5716   -0.6367 C   0  0  0  0  0  0  0  0  0  0  0  0
   -0.6470   -2.9846   -0.0005 S   0  0  0  0  0  6  0  0  0  0  0  0
   -1.6351   -3.9810    0.3585 O   0  0  0  0  0  0  0  0  0  0  0  0
    0.4341   -3.2966   -0.9103 O   0  0  0  0  0  0  0  0  0  0  0  0
   -0.0106   -2.4131    1.4572 N   0  0  0  0  0  0  0  0  0  0  0  0
    0.7830   -1.2320    1.4578 C   0  0  0  0  0  0  0  0  0  0  0  0
    0.2922   -0.0919    2.0971 C   0  0  0  0  0  0  0  0  0  0  0  0
    1.0329    1.0894    2.0771 C   0  0  0  0  0  0  0  0  0  0  0  0
    2.2604    1.1218    1.4221 C   0  0  0  0  0  0  0  0  0  0  0  0
    2.9332    2.3135    1.4301 O   0  0  0  0  0  0  0  0  0  0  0  0
    2.7687   -0.0176    0.7850 C   0  0  0  0  0  0  0  0  0  0  0  0
    4.3320    0.0247   -0.0721 S   0  0  0  0  0  0  0  0  0  0  0  0
    5.4464   -0.4378    1.1898 C   0  0  0  0  0  0  0  0  0  0  0  0
    5.0747   -1.0054    2.3791 N   0  0  0  0  0  0  0  0  0  0  0  0
    6.2182   -1.1802    2.9975 C   0  0  0  0  0  0  0  0  0  0  0  0
    7.2297   -0.7294    2.2117 N   0  0  0  0  0  0  0  0  0  0  0  0
    6.7621   -0.2392    1.0534 N   0  0  0  0  0  0  0  0  0  0  0  0
    2.0152   -1.1968    0.8022 C   0  0  0  0  0  0  0  0  0  0  0  0
   -2.8300   -1.3288   -0.2214 C   0  0  0  0  0  0  0  0  0  0  0  0
   -3.5152   -0.2198   -0.7214 C   0  0  0  0  0  0  0  0  0  0  0  0
   -5.3366    2.3357   -3.4561 H   0  0  0  0  0  0  0  0  0  0  0  0
   -5.6293    0.9789   -2.3605 H   0  0  0  0  0  0  0  0  0  0  0  0
   -4.6154    0.7543   -3.7935 H   0  0  0  0  0  0  0  0  0  0  0  0
   -2.9591    2.3829   -2.8913 H   0  0  0  0  0  0  0  0  0  0  0  0
   -4.4365    3.7595   -1.5144 H   0  0  0  0  0  0  0  0  0  0  0  0
   -3.0992    3.1516   -0.5260 H   0  0  0  0  0  0  0  0  0  0  0  0
   -4.7093    2.4323   -0.3780 H   0  0  0  0  0  0  0  0  0  0  0  0
   -1.0959    1.0220   -2.7813 H   0  0  0  0  0  0  0  0  0  0  0  0
    0.1127   -0.9332   -1.9096 H   0  0  0  0  0  0  0  0  0  0  0  0
   -0.6541   -2.5559    2.2335 H   0  0  0  0  0  0  0  0  0  0  0  0
   -0.6693   -0.1041    2.6020 H   0  0  0  0  0  0  0  0  0  0  0  0
    0.6551    1.9833    2.5655 H   0  0  0  0  0  0  0  0  0  0  0  0
    3.7710    2.1726    0.9513 H   0  0  0  0  0  0  0  0  0  0  0  0
    6.3682   -1.6118    3.9767 H   0  0  0  0  0  0  0  0  0  0  0  0
    8.2278   -0.7210    2.3908 H   0  0  0  0  0  0  0  0  0  0  0  0
    2.3971   -2.0925    0.3174 H   0  0  0  0  0  0  0  0  0  0  0  0
   -3.3249   -1.9942    0.4820 H   0  0  0  0  0  0  0  0  0  0  0  0
   -4.5356   -0.0394   -0.3893 H   0  0  0  0  0  0  0  0  0  0  0  0
  1  2  1  0
  2  3  1  0
  2  4  1  0
  4  5  2  0
  5  6  1  0
  6  7  2  0
  7  8  1  0
  8  9  2  0
  8 10  2  0
  8 11  1  0
 11 12  1  0
 12 13  2  0
 13 14  1  0
 14 15  2  0
 15 16  1  0
 15 17  1  0
 17 18  1  0
 18 19  1  0
 19 20  1  0
 20 21  2  0
 21 22  1  0
 22 23  1  0
 17 24  2  0
  7 25  1  0
 25 26  2  0
 26  4  1  0
 24 12  1  0
 23 19  2  0
  1 27  1  0
  1 28  1  0
  1 29  1  0
  2 30  1  0
  3 31  1  0
  3 32  1  0
  3 33  1  0
  5 34  1  0
  6 35  1  0
 11 36  1  0
 13 37  1  0
 14 38  1  0
 16 39  1  0
 21 40  1  0
 22 41  1  0
 24 42  1  0
 25 43  1  0
 26 44  1  0
M  END
$$$$
