
     RDKit          3D

 38 40  0  0  0  0  0  0  0  0999 V2000
   -2.4718   -1.6099    0.5353 C   0  0  0  0  0  0  0  0  0  0  0  0
   -1.5745   -0.4192    0.1841 C   0  0  0  0  0  0  0  0  0  0  0  0
   -1.8394    0.7720    1.1370 C   0  0  0  0  0  0  0  0  0  0  0  0
   -1.4515    2.0143    0.3298 C   0  0  0  0  0  0  0  0  0  0  0  0
   -1.0201    1.4693   -1.0390 C   0  0  0  0  0  0  0  0  0  0  0  0
    0.4732    1.1874   -0.9835 C   0  0  0  0  0  0  0  0  0  0  0  0
    1.2276    1.8829   -1.6657 O   0  0  0  0  0  0  0  0  0  0  0  0
    0.8582    0.1094   -0.1623 N   0  0  0  0  0  0  0  0  0  0  0  0
    2.2751   -0.1343    0.0257 C   0  0  0  0  0  0  0  0  0  0  0  0
    3.1798    0.9400    0.1218 C   0  0  0  0  0  0  0  0  0  0  0  0
    4.5505    0.7303    0.3110 C   0  0  0  0  0  0  0  0  0  0  0  0
    5.0489   -0.5637    0.4077 C   0  0  0  0  0  0  0  0  0  0  0  0
    4.1728   -1.6392    0.3134 C   0  0  0  0  0  0  0  0  0  0  0  0
    4.7877   -3.2447    0.4156 Cl  0  0  0  0  0  0  0  0  0  0  0  0
    2.8026   -1.4320    0.1261 C   0  0  0  0  0  0  0  0  0  0  0  0
   -0.0832   -0.7975    0.3743 C   0  0  0  0  0  0  0  0  0  0  0  0
    0.2014   -1.7929    1.0435 O   0  0  0  0  0  0  0  0  0  0  0  0
   -1.8118    0.1669   -1.2267 C   0  0  0  0  0  0  0  0  0  0  0  0
   -1.3109   -0.7164   -2.3849 C   0  0  0  0  0  0  0  0  0  0  0  0
   -3.2963    0.4835   -1.5303 C   0  0  0  0  0  0  0  0  0  0  0  0
   -2.2815   -2.4579   -0.1314 H   0  0  0  0  0  0  0  0  0  0  0  0
   -2.2919   -1.9537    1.5606 H   0  0  0  0  0  0  0  0  0  0  0  0
   -3.5347   -1.3573    0.4684 H   0  0  0  0  0  0  0  0  0  0  0  0
   -1.2524    0.7081    2.0608 H   0  0  0  0  0  0  0  0  0  0  0  0
   -2.8941    0.8341    1.4296 H   0  0  0  0  0  0  0  0  0  0  0  0
   -0.6589    2.5822    0.8296 H   0  0  0  0  0  0  0  0  0  0  0  0
   -2.3164    2.6795    0.2283 H   0  0  0  0  0  0  0  0  0  0  0  0
   -1.2105    2.1952   -1.8375 H   0  0  0  0  0  0  0  0  0  0  0  0
    2.8347    1.9711    0.0751 H   0  0  0  0  0  0  0  0  0  0  0  0
    5.2235    1.5812    0.3832 H   0  0  0  0  0  0  0  0  0  0  0  0
    6.1132   -0.7269    0.5521 H   0  0  0  0  0  0  0  0  0  0  0  0
    2.1686   -2.3086    0.0261 H   0  0  0  0  0  0  0  0  0  0  0  0
   -1.9140   -1.6274   -2.4693 H   0  0  0  0  0  0  0  0  0  0  0  0
   -0.2709   -1.0362   -2.2799 H   0  0  0  0  0  0  0  0  0  0  0  0
   -1.3863   -0.1795   -3.3376 H   0  0  0  0  0  0  0  0  0  0  0  0
   -3.8765   -0.4351   -1.6726 H   0  0  0  0  0  0  0  0  0  0  0  0
   -3.3829    1.0686   -2.4535 H   0  0  0  0  0  0  0  0  0  0  0  0
   -3.7871    1.0567   -0.7387 H   0  0  0  0  0  0  0  0  0  0  0  0
  1  2  1  0
  2  3  1  0
  3  4  1  0
  4  5  1  0
  5  6  1  0
  6  7  2  0
  6  8  1  0
  8  9  1  0
  9 10  2  0
 10 11  1  0
 11 12  2  0
 12 13  1  0
 13 14  1  0
 13 15  2  0
  8 16  1  0
 16 17  2  0
  5 18  1  0
 18 19  1  0
 18 20  1  0
 16  2  1  0
 18  2  1  0
 15  9  1  0
  1 21  1  0
  1 22  1  0
  1 23  1  0
  3 24  1  0
  3 25  1  0
  4 26  1  0
  4 27  1  0
  5 28  1  0
 10 29  1  0
 11 30  1  0
 12 31  1  0
 15 32  1  0
 19 33  1  0
 19 34  1  0
 19 35  1  0
 20 36  1  0
 20 37  1  0
 20 38  1  0
M  END
$$$$
