
     RDKit          3D

 70 76  0  0  0  0  0  0  0  0999 V2000
   -4.5608   -4.7744    1.0620 C   0  0  0  0  0  0  0  0  0  0  0  0
   -3.6612   -3.6291    1.4177 C   0  0  0  0  0  0  0  0  0  0  0  0
   -3.2791   -3.3770    2.7488 C   0  0  0  0  0  0  0  0  0  0  0  0
   -3.8144   -4.3922    4.0451 Cl  0  0  0  0  0  0  0  0  0  0  0  0
   -2.4548   -2.2857    3.0864 C   0  0  0  0  0  0  0  0  0  0  0  0
   -1.9885   -1.4108    2.1045 C   0  0  0  0  0  0  0  0  0  0  0  0
   -2.3537   -1.6485    0.7869 C   0  0  0  0  0  0  0  0  0  0  0  0
   -3.1841   -2.7343    0.4657 C   0  0  0  0  0  0  0  0  0  0  0  0
   -3.4459   -2.7358   -0.9025 N   0  0  0  0  0  0  0  0  0  0  0  0
   -2.8410   -1.6586   -1.5529 C   0  0  0  0  0  0  0  0  0  0  0  0
   -2.9437   -1.4341   -2.7502 O   0  0  0  0  0  0  0  0  0  0  0  0
   -2.0375   -0.8812   -0.4757 C   0  0  1  0  0  0  0  0  0  0  0  0
   -2.4904    0.5078   -0.2644 C   0  0  0  0  0  0  0  0  0  0  0  0
   -1.4523    1.4192   -0.4537 C   0  0  0  0  0  0  0  0  0  0  0  0
   -1.9404    2.6883   -0.2751 C   0  0  0  0  0  0  0  0  0  0  0  0
   -1.3202    3.8632   -0.3494 O   0  0  0  0  0  0  0  0  0  0  0  0
   -3.2945    2.5617    0.0975 N   0  0  0  0  0  0  0  0  0  0  0  0
   -4.1645    3.6139    0.5266 C   0  0  0  0  0  0  0  0  0  0  0  0
   -4.0221    4.9137    0.0266 C   0  0  0  0  0  0  0  0  0  0  0  0
   -4.8876    5.9278    0.4475 C   0  0  0  0  0  0  0  0  0  0  0  0
   -5.8896    5.6570    1.3769 C   0  0  0  0  0  0  0  0  0  0  0  0
   -6.0248    4.3712    1.8963 C   0  0  0  0  0  0  0  0  0  0  0  0
   -5.1672    3.3521    1.4747 C   0  0  0  0  0  0  0  0  0  0  0  0
   -3.6414    1.1995   -0.0027 C   0  0  0  0  0  0  0  0  0  0  0  0
   -4.8807    0.7209    0.0905 O   0  0  0  0  0  0  0  0  0  0  0  0
   -0.1974    0.7342   -0.8293 C   0  0  1  0  0  0  0  0  0  0  0  0
    0.9830    0.9833    0.1255 C   0  0  0  0  0  0  0  0  0  0  0  0
    2.1337    0.1311   -0.2072 N   0  0  0  0  0  0  0  0  0  0  0  0
    3.4122    0.6688   -0.1599 C   0  0  0  0  0  0  0  0  0  0  0  0
    3.6170    1.8293    0.1955 O   0  0  0  0  0  0  0  0  0  0  0  0
    4.5485   -0.2541   -0.5646 C   0  0  0  0  0  0  0  0  0  0  0  0
    5.8932    0.4717   -0.5821 C   0  0  0  0  0  0  0  0  0  0  0  0
    7.0172   -0.4653   -0.9525 C   0  0  0  0  0  0  0  0  0  0  0  0
    7.2807   -0.7632   -2.2967 C   0  0  0  0  0  0  0  0  0  0  0  0
    8.3043   -1.6487   -2.6376 C   0  0  0  0  0  0  0  0  0  0  0  0
    9.0719   -2.2460   -1.6390 C   0  0  0  0  0  0  0  0  0  0  0  0
    8.8163   -1.9582   -0.2992 C   0  0  0  0  0  0  0  0  0  0  0  0
    7.7924   -1.0736    0.0437 C   0  0  0  0  0  0  0  0  0  0  0  0
    1.8187   -1.2213   -0.6942 C   0  0  0  0  0  0  0  0  0  0  0  0
    0.3733   -1.6491   -0.3654 C   0  0  0  0  0  0  0  0  0  0  0  0
   -0.6107   -0.7097   -0.8963 N   0  0  0  0  0  0  0  0  0  0  0  0
   -5.5636   -4.6060    1.4667 H   0  0  0  0  0  0  0  0  0  0  0  0
   -4.6586   -4.9098   -0.0185 H   0  0  0  0  0  0  0  0  0  0  0  0
   -4.1616   -5.7140    1.4581 H   0  0  0  0  0  0  0  0  0  0  0  0
   -2.1831   -2.1117    4.1257 H   0  0  0  0  0  0  0  0  0  0  0  0
   -1.3686   -0.5605    2.3727 H   0  0  0  0  0  0  0  0  0  0  0  0
   -4.0450   -3.3786   -1.3966 H   0  0  0  0  0  0  0  0  0  0  0  0
   -0.3991    3.7114   -0.6249 H   0  0  0  0  0  0  0  0  0  0  0  0
   -3.2689    5.1590   -0.7167 H   0  0  0  0  0  0  0  0  0  0  0  0
   -4.7808    6.9315    0.0412 H   0  0  0  0  0  0  0  0  0  0  0  0
   -6.5570    6.4501    1.7045 H   0  0  0  0  0  0  0  0  0  0  0  0
   -6.7902    4.1639    2.6404 H   0  0  0  0  0  0  0  0  0  0  0  0
   -5.2678    2.3734    1.9397 H   0  0  0  0  0  0  0  0  0  0  0  0
   -5.5050    1.4403   -0.1193 H   0  0  0  0  0  0  0  0  0  0  0  0
    0.0927    1.0342   -1.8438 H   0  0  0  0  0  0  0  0  0  0  0  0
    0.7052    0.7487    1.1605 H   0  0  0  0  0  0  0  0  0  0  0  0
    1.2653    2.0410    0.1082 H   0  0  0  0  0  0  0  0  0  0  0  0
    4.3364   -0.6578   -1.5611 H   0  0  0  0  0  0  0  0  0  0  0  0
    4.5881   -1.0864    0.1475 H   0  0  0  0  0  0  0  0  0  0  0  0
    6.0983    0.9232    0.3968 H   0  0  0  0  0  0  0  0  0  0  0  0
    5.8683    1.3066   -1.2945 H   0  0  0  0  0  0  0  0  0  0  0  0
    6.6897   -0.3049   -3.0866 H   0  0  0  0  0  0  0  0  0  0  0  0
    8.5038   -1.8724   -3.6826 H   0  0  0  0  0  0  0  0  0  0  0  0
    9.8698   -2.9342   -1.9049 H   0  0  0  0  0  0  0  0  0  0  0  0
    9.4149   -2.4229    0.4803 H   0  0  0  0  0  0  0  0  0  0  0  0
    7.6046   -0.8594    1.0942 H   0  0  0  0  0  0  0  0  0  0  0  0
    2.5217   -1.9356   -0.2551 H   0  0  0  0  0  0  0  0  0  0  0  0
    1.9756   -1.2212   -1.7795 H   0  0  0  0  0  0  0  0  0  0  0  0
    0.1912   -2.6471   -0.7786 H   0  0  0  0  0  0  0  0  0  0  0  0
    0.3099   -1.7243    0.7248 H   0  0  0  0  0  0  0  0  0  0  0  0
  1  2  1  0
  2  3  2  0
  3  4  1  0
  3  5  1  0
  5  6  2  0
  6  7  1  0
  7  8  2  0
  8  9  1  0
  9 10  1  0
 10 11  2  0
 10 12  1  0
 12 13  1  0
 13 14  1  0
 14 15  2  0
 15 16  1  0
 15 17  1  0
 17 18  1  0
 18 19  2  0
 19 20  1  0
 20 21  2  0
 21 22  1  0
 22 23  2  0
 17 24  1  0
 24 25  1  0
 14 26  1  0
 26 27  1  0
 27 28  1  0
 28 29  1  0
 29 30  2  0
 29 31  1  0
 31 32  1  0
 32 33  1  0
 33 34  2  0
 34 35  1  0
 35 36  2  0
 36 37  1  0
 37 38  2  0
 28 39  1  0
 39 40  1  0
 40 41  1  0
  8  2  1  0
 12 41  1  6
 12  7  1  0
 24 13  2  0
 41 26  1  0
 23 18  1  0
 38 33  1  0
  1 42  1  0
  1 43  1  0
  1 44  1  0
  5 45  1  0
  6 46  1  0
  9 47  1  0
 16 48  1  0
 19 49  1  0
 20 50  1  0
 21 51  1  0
 22 52  1  0
 23 53  1  0
 25 54  1  0
 26 55  1  6
 27 56  1  0
 27 57  1  0
 31 58  1  0
 31 59  1  0
 32 60  1  0
 32 61  1  0
 34 62  1  0
 35 63  1  0
 36 64  1  0
 37 65  1  0
 38 66  1  0
 39 67  1  0
 39 68  1  0
 40 69  1  0
 40 70  1  0
M  END
$$$$
