
     RDKit          3D

 68 71  0  0  0  0  0  0  0  0999 V2000
    7.3886   -1.0397    6.6969 C   0  0  0  0  0  0  0  0  0  0  0  0
    6.5177   -1.4963    5.5994 C   0  0  0  0  0  0  0  0  0  0  0  0
    5.4391   -0.9594    4.9384 C   0  0  0  0  0  0  0  0  0  0  0  0
    5.0742   -1.9491    3.9993 C   0  0  0  0  0  0  0  0  0  0  0  0
    4.0603   -1.9451    3.0680 N   0  0  0  0  0  0  0  0  0  0  0  0
    3.1992   -0.8978    2.8261 C   0  0  0  0  0  0  0  0  0  0  0  0
    3.1896    0.1773    3.4166 O   0  0  0  0  0  0  0  0  0  0  0  0
    2.2246   -1.2257    1.7136 C   0  0  0  0  0  0  0  0  0  0  0  0
    1.3700   -0.0238    1.3182 C   0  0  0  0  0  0  0  0  0  0  0  0
    0.4902   -0.3582    0.1239 C   0  0  0  0  0  0  0  0  0  0  0  0
    0.3503   -1.5315   -0.2332 O   0  0  0  0  0  0  0  0  0  0  0  0
   -0.1655    0.6793   -0.5323 N   0  0  0  0  0  0  0  0  0  0  0  0
   -0.2715    2.0429    0.0143 C   0  0  0  0  0  0  0  0  0  0  0  0
    0.7888    2.9449   -0.5222 C   0  0  0  0  0  0  0  0  0  0  0  0
    2.1092    2.7926   -0.9046 C   0  0  0  0  0  0  0  0  0  0  0  0
    2.5656    4.0706   -1.3080 C   0  0  0  0  0  0  0  0  0  0  0  0
    1.4975    4.9220   -1.1616 C   0  0  0  0  0  0  0  0  0  0  0  0
    0.4208    4.2544   -0.6785 O   0  0  0  0  0  0  0  0  0  0  0  0
   -1.1543    0.2716   -1.5678 C   0  0  0  0  0  0  0  0  0  0  0  0
   -2.4366   -0.0896   -0.7749 C   0  0  0  0  0  0  0  0  0  0  0  0
   -3.0531    0.7111   -0.0693 O   0  0  0  0  0  0  0  0  0  0  0  0
   -2.7791   -1.4360   -0.8338 N   0  0  0  0  0  0  0  0  0  0  0  0
   -3.8378   -1.9716    0.0131 C   0  0  0  0  0  0  0  0  0  0  0  0
   -5.2331   -1.5911   -0.4854 C   0  0  0  0  0  0  0  0  0  0  0  0
   -5.5417   -2.5959   -1.5957 C   0  0  0  0  0  0  0  0  0  0  0  0
   -4.6475   -3.8079   -1.3376 C   0  0  0  0  0  0  0  0  0  0  0  0
   -3.8794   -3.4979   -0.0540 C   0  0  0  0  0  0  0  0  0  0  0  0
   -1.2400    1.2252   -2.7662 C   0  0  0  0  0  0  0  0  0  0  0  0
   -0.0034    1.4767   -3.4192 C   0  0  0  0  0  0  0  0  0  0  0  0
    0.1088    2.3258   -4.5191 C   0  0  0  0  0  0  0  0  0  0  0  0
   -1.0268    2.9370   -5.0227 C   0  0  0  0  0  0  0  0  0  0  0  0
   -2.2641    2.6757   -4.4350 C   0  0  0  0  0  0  0  0  0  0  0  0
   -2.3980    1.8098   -3.3251 C   0  0  0  0  0  0  0  0  0  0  0  0
   -3.7997    1.5939   -2.8209 C   0  0  0  0  0  0  0  0  0  0  0  0
    5.8763   -3.0187    4.0908 N   0  0  0  0  0  0  0  0  0  0  0  0
    6.7891   -2.7275    5.0870 O   0  0  0  0  0  0  0  0  0  0  0  0
    8.3978   -0.8380    6.3228 H   0  0  0  0  0  0  0  0  0  0  0  0
    7.4571   -1.8076    7.4739 H   0  0  0  0  0  0  0  0  0  0  0  0
    7.0022   -0.1241    7.1546 H   0  0  0  0  0  0  0  0  0  0  0  0
    4.9770    0.0014    5.1231 H   0  0  0  0  0  0  0  0  0  0  0  0
    3.9975   -2.7999    2.5316 H   0  0  0  0  0  0  0  0  0  0  0  0
    2.7986   -1.5764    0.8461 H   0  0  0  0  0  0  0  0  0  0  0  0
    1.5841   -2.0509    2.0491 H   0  0  0  0  0  0  0  0  0  0  0  0
    2.0223    0.8179    1.0797 H   0  0  0  0  0  0  0  0  0  0  0  0
    0.7260    0.2587    2.1588 H   0  0  0  0  0  0  0  0  0  0  0  0
   -1.2540    2.4582   -0.2277 H   0  0  0  0  0  0  0  0  0  0  0  0
   -0.2030    2.0156    1.1058 H   0  0  0  0  0  0  0  0  0  0  0  0
    2.6796    1.8728   -0.8958 H   0  0  0  0  0  0  0  0  0  0  0  0
    3.5504    4.3387   -1.6665 H   0  0  0  0  0  0  0  0  0  0  0  0
    1.3488    5.9779   -1.3427 H   0  0  0  0  0  0  0  0  0  0  0  0
   -0.8021   -0.6657   -2.0214 H   0  0  0  0  0  0  0  0  0  0  0  0
   -2.0046   -2.0632   -1.0426 H   0  0  0  0  0  0  0  0  0  0  0  0
   -3.6671   -1.6171    1.0338 H   0  0  0  0  0  0  0  0  0  0  0  0
   -5.3207   -0.5578   -0.8370 H   0  0  0  0  0  0  0  0  0  0  0  0
   -5.9549   -1.7237    0.3311 H   0  0  0  0  0  0  0  0  0  0  0  0
   -5.3185   -2.1652   -2.5774 H   0  0  0  0  0  0  0  0  0  0  0  0
   -6.6012   -2.8696   -1.5906 H   0  0  0  0  0  0  0  0  0  0  0  0
   -3.9518   -3.9441   -2.1755 H   0  0  0  0  0  0  0  0  0  0  0  0
   -5.2306   -4.7306   -1.2416 H   0  0  0  0  0  0  0  0  0  0  0  0
   -2.8889   -3.9631   -0.0525 H   0  0  0  0  0  0  0  0  0  0  0  0
   -4.4344   -3.8960    0.8045 H   0  0  0  0  0  0  0  0  0  0  0  0
    0.9054    1.0043   -3.0470 H   0  0  0  0  0  0  0  0  0  0  0  0
    1.0793    2.5072   -4.9728 H   0  0  0  0  0  0  0  0  0  0  0  0
   -0.9598    3.6068   -5.8750 H   0  0  0  0  0  0  0  0  0  0  0  0
   -3.1464    3.1553   -4.8611 H   0  0  0  0  0  0  0  0  0  0  0  0
   -3.9563    2.1255   -1.8782 H   0  0  0  0  0  0  0  0  0  0  0  0
   -4.5445    1.9765   -3.5308 H   0  0  0  0  0  0  0  0  0  0  0  0
   -4.0157    0.5282   -2.7172 H   0  0  0  0  0  0  0  0  0  0  0  0
  1  2  1  0
  2  3  2  0
  3  4  1  0
  4  5  1  0
  5  6  1  0
  6  7  2  0
  6  8  1  0
  8  9  1  0
  9 10  1  0
 10 11  2  0
 10 12  1  0
 12 13  1  0
 13 14  1  0
 14 15  2  0
 15 16  1  0
 16 17  2  0
 17 18  1  0
 12 19  1  0
 19 20  1  0
 20 21  2  0
 20 22  1  0
 22 23  1  0
 23 24  1  0
 24 25  1  0
 25 26  1  0
 26 27  1  0
 19 28  1  0
 28 29  2  0
 29 30  1  0
 30 31  2  0
 31 32  1  0
 32 33  2  0
 33 34  1  0
  4 35  2  0
 35 36  1  0
 36  2  1  0
 18 14  1  0
 27 23  1  0
 33 28  1  0
  1 37  1  0
  1 38  1  0
  1 39  1  0
  3 40  1  0
  5 41  1  0
  8 42  1  0
  8 43  1  0
  9 44  1  0
  9 45  1  0
 13 46  1  0
 13 47  1  0
 15 48  1  0
 16 49  1  0
 17 50  1  0
 19 51  1  0
 22 52  1  0
 23 53  1  0
 24 54  1  0
 24 55  1  0
 25 56  1  0
 25 57  1  0
 26 58  1  0
 26 59  1  0
 27 60  1  0
 27 61  1  0
 29 62  1  0
 30 63  1  0
 31 64  1  0
 32 65  1  0
 34 66  1  0
 34 67  1  0
 34 68  1  0
M  END
$$$$
