
     RDKit          3D

 31 32  0  0  0  0  0  0  0  0999 V2000
   -3.3963    1.9963   -0.7796 C   0  0  0  0  0  0  0  0  0  0  0  0
   -3.2249    0.7816    0.0939 C   0  0  0  0  0  0  0  0  0  0  0  0
   -4.2124    0.3275    0.6774 O   0  0  0  0  0  0  0  0  0  0  0  0
   -1.8939    0.1598    0.2328 C   0  0  0  0  0  0  0  0  0  0  0  0
   -1.6907   -1.0894    0.8130 C   0  0  0  0  0  0  0  0  0  0  0  0
   -2.6545   -2.0591    1.4035 C   0  0  0  0  0  0  0  0  0  0  0  0
   -0.3526   -1.3705    0.7711 N   0  0  0  0  0  0  0  0  0  0  0  0
    0.3367   -0.3453    0.1768 C   0  0  0  0  0  0  0  0  0  0  0  0
    1.7837   -0.4184   -0.0107 C   0  0  0  0  0  0  0  0  0  0  0  0
    2.3336   -0.3650   -1.2968 C   0  0  0  0  0  0  0  0  0  0  0  0
    3.7159   -0.4462   -1.4784 C   0  0  0  0  0  0  0  0  0  0  0  0
    4.5574   -0.5813   -0.3753 C   0  0  0  0  0  0  0  0  0  0  0  0
    4.0187   -0.6350    0.9094 C   0  0  0  0  0  0  0  0  0  0  0  0
    2.6362   -0.5551    1.0916 C   0  0  0  0  0  0  0  0  0  0  0  0
   -0.5860    0.6417   -0.1555 C   0  0  0  0  0  0  0  0  0  0  0  0
   -0.2462    1.9566   -0.7742 C   0  0  0  0  0  0  0  0  0  0  0  0
   -4.4643    2.1833   -0.9317 H   0  0  0  0  0  0  0  0  0  0  0  0
   -2.9489    1.8276   -1.7616 H   0  0  0  0  0  0  0  0  0  0  0  0
   -2.9636    2.8733   -0.2944 H   0  0  0  0  0  0  0  0  0  0  0  0
   -3.4301   -2.3205    0.6767 H   0  0  0  0  0  0  0  0  0  0  0  0
   -3.1328   -1.6305    2.2898 H   0  0  0  0  0  0  0  0  0  0  0  0
   -2.1572   -2.9864    1.7071 H   0  0  0  0  0  0  0  0  0  0  0  0
    0.0747   -2.2231    1.1082 H   0  0  0  0  0  0  0  0  0  0  0  0
    1.6861   -0.2670   -2.1648 H   0  0  0  0  0  0  0  0  0  0  0  0
    4.1344   -0.4052   -2.4805 H   0  0  0  0  0  0  0  0  0  0  0  0
    5.6334   -0.6427   -0.5167 H   0  0  0  0  0  0  0  0  0  0  0  0
    4.6746   -0.7347    1.7703 H   0  0  0  0  0  0  0  0  0  0  0  0
    2.2306   -0.5843    2.1000 H   0  0  0  0  0  0  0  0  0  0  0  0
   -0.5948    1.9945   -1.8103 H   0  0  0  0  0  0  0  0  0  0  0  0
   -0.6989    2.7771   -0.2105 H   0  0  0  0  0  0  0  0  0  0  0  0
    0.8325    2.1406   -0.7803 H   0  0  0  0  0  0  0  0  0  0  0  0
  1  2  1  0
  2  3  2  0
  2  4  1  0
  4  5  2  0
  5  6  1  0
  5  7  1  0
  7  8  1  0
  8  9  1  0
  9 10  2  0
 10 11  1  0
 11 12  2  0
 12 13  1  0
 13 14  2  0
  8 15  2  0
 15 16  1  0
 15  4  1  0
 14  9  1  0
  1 17  1  0
  1 18  1  0
  1 19  1  0
  6 20  1  0
  6 21  1  0
  6 22  1  0
  7 23  1  0
 10 24  1  0
 11 25  1  0
 12 26  1  0
 13 27  1  0
 14 28  1  0
 16 29  1  0
 16 30  1  0
 16 31  1  0
M  END
$$$$
