
     RDKit          3D

 35 36  0  0  0  0  0  0  0  0999 V2000
    2.0312    1.0910   -1.0093 C   0  0  0  0  0  0  0  0  0  0  0  0
    2.1863   -0.3056   -0.5813 N   0  0  0  0  0  0  0  0  0  0  0  0
    1.1551   -0.6852    0.4026 C   0  0  0  0  0  0  0  0  0  0  0  0
   -0.2493   -0.7813   -0.2026 C   0  0  0  0  0  0  0  0  0  0  0  0
   -1.2509   -1.3049    0.8256 C   0  0  0  0  0  0  0  0  0  0  0  0
   -2.5507   -1.4191    0.2474 O   0  0  0  0  0  0  0  0  0  0  0  0
   -3.4371   -0.3832    0.3678 C   0  0  0  0  0  0  0  0  0  0  0  0
   -3.1020    0.9070    0.7912 C   0  0  0  0  0  0  0  0  0  0  0  0
   -4.0811    1.9038    0.8689 C   0  0  0  0  0  0  0  0  0  0  0  0
   -5.3984    1.6175    0.5190 C   0  0  0  0  0  0  0  0  0  0  0  0
   -6.5944    2.8495    0.6181 Cl  0  0  0  0  0  0  0  0  0  0  0  0
   -5.7504    0.3439    0.0874 C   0  0  0  0  0  0  0  0  0  0  0  0
   -4.7714   -0.6499    0.0100 C   0  0  0  0  0  0  0  0  0  0  0  0
   -5.2599   -2.2192   -0.5324 Cl  0  0  0  0  0  0  0  0  0  0  0  0
    3.5265   -0.5194   -0.0009 C   0  0  0  0  0  0  0  0  0  0  0  0
    4.6042   -0.4071   -1.0356 C   0  0  0  0  0  0  0  0  0  0  0  0
    6.0533   -0.3386   -0.6279 C   0  0  0  0  0  0  0  0  0  0  0  0
    5.3291    0.8309   -1.0341 O   0  0  0  0  0  0  0  0  0  0  0  0
    2.7775    1.3614   -1.7634 H   0  0  0  0  0  0  0  0  0  0  0  0
    1.0637    1.2536   -1.4937 H   0  0  0  0  0  0  0  0  0  0  0  0
    2.1192    1.7906   -0.1702 H   0  0  0  0  0  0  0  0  0  0  0  0
    1.3989   -1.6762    0.8077 H   0  0  0  0  0  0  0  0  0  0  0  0
    1.1529    0.0114    1.2513 H   0  0  0  0  0  0  0  0  0  0  0  0
   -0.5875    0.1909   -0.5743 H   0  0  0  0  0  0  0  0  0  0  0  0
   -0.2449   -1.4510   -1.0721 H   0  0  0  0  0  0  0  0  0  0  0  0
   -1.2561   -0.7175    1.7512 H   0  0  0  0  0  0  0  0  0  0  0  0
   -0.9581   -2.3200    1.1196 H   0  0  0  0  0  0  0  0  0  0  0  0
   -2.0857    1.1791    1.0561 H   0  0  0  0  0  0  0  0  0  0  0  0
   -3.8061    2.9029    1.1989 H   0  0  0  0  0  0  0  0  0  0  0  0
   -6.7777    0.1232   -0.1886 H   0  0  0  0  0  0  0  0  0  0  0  0
    3.7065    0.1637    0.8398 H   0  0  0  0  0  0  0  0  0  0  0  0
    3.5892   -1.5399    0.3975 H   0  0  0  0  0  0  0  0  0  0  0  0
    4.3612   -0.8740   -1.9808 H   0  0  0  0  0  0  0  0  0  0  0  0
    6.3102   -0.4293    0.4197 H   0  0  0  0  0  0  0  0  0  0  0  0
    6.7969   -0.7263   -1.3128 H   0  0  0  0  0  0  0  0  0  0  0  0
  1  2  1  0
  2  3  1  0
  3  4  1  0
  4  5  1  0
  5  6  1  0
  6  7  1  0
  7  8  2  0
  8  9  1  0
  9 10  2  0
 10 11  1  0
 10 12  1  0
 12 13  2  0
 13 14  1  0
  2 15  1  0
 15 16  1  0
 16 17  1  0
 17 18  1  0
 13  7  1  0
 18 16  1  0
  1 19  1  0
  1 20  1  0
  1 21  1  0
  3 22  1  0
  3 23  1  0
  4 24  1  0
  4 25  1  0
  5 26  1  0
  5 27  1  0
  8 28  1  0
  9 29  1  0
 12 30  1  0
 15 31  1  0
 15 32  1  0
 16 33  1  0
 17 34  1  0
 17 35  1  0
M  END
$$$$
