
     RDKit          3D

 32 34  0  0  0  0  0  0  0  0999 V2000
   -4.4992    0.9834    2.0072 O   0  0  0  0  0  0  0  0  0  0  0  0
   -4.3590   -0.1341    1.5377 C   0  0  0  0  0  0  0  0  0  0  0  0
   -5.0846   -1.2286    1.9141 N   0  0  0  0  0  0  0  0  0  0  0  0
   -4.8134   -2.4152    1.3078 C   0  0  0  0  0  0  0  0  0  0  0  0
   -5.6025   -3.8274    1.6557 S   0  0  0  0  0  0  0  0  0  0  0  0
   -3.5335   -2.1985    0.1379 S   0  0  0  0  0  0  0  0  0  0  0  0
   -3.3817   -0.5147    0.4786 C   0  0  0  0  0  0  0  0  0  0  0  0
   -2.5451    0.4018   -0.0226 C   0  0  0  0  0  0  0  0  0  0  0  0
   -1.5475    0.1997   -1.0166 C   0  0  0  0  0  0  0  0  0  0  0  0
   -1.4160   -0.7196   -2.0504 C   0  0  0  0  0  0  0  0  0  0  0  0
   -0.2136   -0.4346   -2.7421 C   0  0  0  0  0  0  0  0  0  0  0  0
    0.3494    0.6519   -2.1164 C   0  0  0  0  0  0  0  0  0  0  0  0
    1.8312    1.4700   -2.5249 S   0  0  0  0  0  0  0  0  0  0  0  0
    2.2944    2.1992   -0.9275 C   0  0  0  0  0  0  0  0  0  0  0  0
    2.8870    1.1937    0.0297 C   0  0  0  0  0  0  0  0  0  0  0  0
    4.2122    0.7581   -0.1227 C   0  0  0  0  0  0  0  0  0  0  0  0
    4.7579   -0.1764    0.7591 C   0  0  0  0  0  0  0  0  0  0  0  0
    3.9859   -0.6872    1.8004 C   0  0  0  0  0  0  0  0  0  0  0  0
    2.6675   -0.2657    1.9606 C   0  0  0  0  0  0  0  0  0  0  0  0
    2.1202    0.6691    1.0802 C   0  0  0  0  0  0  0  0  0  0  0  0
   -0.4611    1.0458   -1.0966 O   0  0  0  0  0  0  0  0  0  0  0  0
   -5.7942   -1.1455    2.6263 H   0  0  0  0  0  0  0  0  0  0  0  0
   -2.5861    1.4133    0.3797 H   0  0  0  0  0  0  0  0  0  0  0  0
   -2.1108   -1.5087   -2.2999 H   0  0  0  0  0  0  0  0  0  0  0  0
    0.1923   -0.9580   -3.5964 H   0  0  0  0  0  0  0  0  0  0  0  0
    1.4381    2.7141   -0.4773 H   0  0  0  0  0  0  0  0  0  0  0  0
    3.0401    2.9797   -1.1200 H   0  0  0  0  0  0  0  0  0  0  0  0
    4.8259    1.1427   -0.9346 H   0  0  0  0  0  0  0  0  0  0  0  0
    5.7850   -0.5080    0.6308 H   0  0  0  0  0  0  0  0  0  0  0  0
    4.4107   -1.4162    2.4852 H   0  0  0  0  0  0  0  0  0  0  0  0
    2.0633   -0.6669    2.7699 H   0  0  0  0  0  0  0  0  0  0  0  0
    1.0874    0.9828    1.2158 H   0  0  0  0  0  0  0  0  0  0  0  0
  1  2  2  0
  2  3  1  0
  3  4  1  0
  4  5  2  0
  4  6  1  0
  6  7  1  0
  7  8  2  3
  8  9  1  0
  9 10  2  0
 10 11  1  0
 11 12  2  0
 12 13  1  0
 13 14  1  0
 14 15  1  0
 15 16  2  0
 16 17  1  0
 17 18  2  0
 18 19  1  0
 19 20  2  0
 12 21  1  0
  7  2  1  0
 21  9  1  0
 20 15  1  0
  3 22  1  0
  8 23  1  0
 10 24  1  0
 11 25  1  0
 14 26  1  0
 14 27  1  0
 16 28  1  0
 17 29  1  0
 18 30  1  0
 19 31  1  0
 20 32  1  0
M  END
$$$$
