
     RDKit          3D

 38 38  0  0  0  0  0  0  0  0999 V2000
    5.3954   -1.5131   -2.9856 C   0  0  0  0  0  0  0  0  0  0  0  0
    4.2891   -0.5258   -3.3088 C   0  0  0  0  0  0  0  0  0  0  0  0
    3.2401   -0.6253   -2.3344 O   0  0  0  0  0  0  0  0  0  0  0  0
    3.3857    0.1538   -1.2270 C   0  0  0  0  0  0  0  0  0  0  0  0
    4.3530    0.8613   -0.9754 O   0  0  0  0  0  0  0  0  0  0  0  0
    2.2115   -0.0108   -0.3089 C   0  0  0  0  0  0  0  0  0  0  0  0
    0.9663    0.6860   -0.7908 C   0  0  0  0  0  0  0  0  0  0  0  0
    0.9478    1.3734   -1.8095 O   0  0  0  0  0  0  0  0  0  0  0  0
   -0.2936    0.5426    0.0063 C   0  0  0  0  0  0  0  0  0  0  0  0
   -1.4587    1.1519   -0.4896 C   0  0  0  0  0  0  0  0  0  0  0  0
   -2.6648    1.0550    0.2061 C   0  0  0  0  0  0  0  0  0  0  0  0
   -3.8481    1.6179   -0.1957 O   0  0  0  0  0  0  0  0  0  0  0  0
   -3.8052    2.5150   -1.2981 C   0  0  0  0  0  0  0  0  0  0  0  0
   -2.6972    0.3201    1.4020 C   0  0  0  0  0  0  0  0  0  0  0  0
   -3.8671    0.2532    2.1268 O   0  0  0  0  0  0  0  0  0  0  0  0
   -4.6432   -0.8639    1.6957 C   0  0  0  0  0  0  0  0  0  0  0  0
   -1.5356   -0.2730    1.9254 C   0  0  0  0  0  0  0  0  0  0  0  0
   -1.6804   -0.9531    3.1071 O   0  0  0  0  0  0  0  0  0  0  0  0
   -0.4991   -1.2354    3.8461 C   0  0  0  0  0  0  0  0  0  0  0  0
   -0.3366   -0.1677    1.2148 C   0  0  0  0  0  0  0  0  0  0  0  0
    6.1791   -1.4819   -3.7480 H   0  0  0  0  0  0  0  0  0  0  0  0
    5.8451   -1.2939   -2.0118 H   0  0  0  0  0  0  0  0  0  0  0  0
    4.9959   -2.5312   -2.9311 H   0  0  0  0  0  0  0  0  0  0  0  0
    3.8482   -0.7725   -4.2808 H   0  0  0  0  0  0  0  0  0  0  0  0
    4.6732    0.4985   -3.3794 H   0  0  0  0  0  0  0  0  0  0  0  0
    2.4965    0.4031    0.6648 H   0  0  0  0  0  0  0  0  0  0  0  0
    2.0263   -1.0835   -0.1885 H   0  0  0  0  0  0  0  0  0  0  0  0
   -1.3990    1.6974   -1.4274 H   0  0  0  0  0  0  0  0  0  0  0  0
   -3.1105    3.3415   -1.1124 H   0  0  0  0  0  0  0  0  0  0  0  0
   -4.8054    2.9425   -1.4204 H   0  0  0  0  0  0  0  0  0  0  0  0
   -3.5544    1.9857   -2.2232 H   0  0  0  0  0  0  0  0  0  0  0  0
   -5.5513   -0.8951    2.3058 H   0  0  0  0  0  0  0  0  0  0  0  0
   -4.9451   -0.7623    0.6475 H   0  0  0  0  0  0  0  0  0  0  0  0
   -4.1037   -1.8057    1.8458 H   0  0  0  0  0  0  0  0  0  0  0  0
    0.0865   -2.0211    3.3578 H   0  0  0  0  0  0  0  0  0  0  0  0
   -0.8008   -1.6080    4.8296 H   0  0  0  0  0  0  0  0  0  0  0  0
    0.1025   -0.3331    4.0010 H   0  0  0  0  0  0  0  0  0  0  0  0
    0.5575   -0.6424    1.5994 H   0  0  0  0  0  0  0  0  0  0  0  0
  1  2  1  0
  2  3  1  0
  3  4  1  0
  4  5  2  0
  4  6  1  0
  6  7  1  0
  7  8  2  0
  7  9  1  0
  9 10  2  0
 10 11  1  0
 11 12  1  0
 12 13  1  0
 11 14  2  0
 14 15  1  0
 15 16  1  0
 14 17  1  0
 17 18  1  0
 18 19  1  0
 17 20  2  0
 20  9  1  0
  1 21  1  0
  1 22  1  0
  1 23  1  0
  2 24  1  0
  2 25  1  0
  6 26  1  0
  6 27  1  0
 10 28  1  0
 13 29  1  0
 13 30  1  0
 13 31  1  0
 16 32  1  0
 16 33  1  0
 16 34  1  0
 19 35  1  0
 19 36  1  0
 19 37  1  0
 20 38  1  0
M  END
$$$$
