
     RDKit          3D

 34 36  0  0  0  0  0  0  0  0999 V2000
   -0.1786   -2.2718    0.4806 O   0  0  0  0  0  0  0  0  0  0  0  0
    0.2889   -1.1558    0.2988 C   0  0  0  0  0  0  0  0  0  0  0  0
    1.7517   -0.9743    0.3855 C   0  0  0  0  0  0  0  0  0  0  0  0
    2.4765   -0.4850   -0.7068 C   0  0  0  0  0  0  0  0  0  0  0  0
    3.8618   -0.3388   -0.6055 C   0  0  0  0  0  0  0  0  0  0  0  0
    4.5125   -0.6951    0.5771 C   0  0  0  0  0  0  0  0  0  0  0  0
    6.2186   -0.5113    0.6987 Cl  0  0  0  0  0  0  0  0  0  0  0  0
    3.7929   -1.2061    1.6581 C   0  0  0  0  0  0  0  0  0  0  0  0
    2.4077   -1.3545    1.5608 C   0  0  0  0  0  0  0  0  0  0  0  0
   -0.4965   -0.0628    0.0385 N   0  0  0  0  0  0  0  0  0  0  0  0
   -0.1048    1.3536   -0.0003 C   0  0  0  0  0  0  0  0  0  0  0  0
   -0.3207    1.7935   -1.4272 C   0  0  0  0  0  0  0  0  0  0  0  0
   -1.6462    1.8497   -1.6434 C   0  0  0  0  0  0  0  0  0  0  0  0
   -2.3136    1.3694   -0.3640 C   0  0  0  0  0  0  0  0  0  0  0  0
   -1.3267    2.0366    0.6153 C   0  0  0  0  0  0  0  0  0  0  0  0
   -2.0061   -0.1612   -0.1391 C   0  0  0  0  0  0  0  0  0  0  0  0
   -2.7949   -0.6851    1.0632 C   0  0  0  0  0  0  0  0  0  0  0  0
   -2.7131   -2.0125    1.2624 F   0  0  0  0  0  0  0  0  0  0  0  0
   -2.3952   -0.0994    2.2200 F   0  0  0  0  0  0  0  0  0  0  0  0
   -4.1134   -0.3883    0.9360 F   0  0  0  0  0  0  0  0  0  0  0  0
   -2.4907   -1.0122   -1.3126 C   0  0  0  0  0  0  0  0  0  0  0  0
   -1.7967   -0.7600   -2.4512 F   0  0  0  0  0  0  0  0  0  0  0  0
   -2.4055   -2.3408   -1.1091 F   0  0  0  0  0  0  0  0  0  0  0  0
   -3.7901   -0.7409   -1.5965 F   0  0  0  0  0  0  0  0  0  0  0  0
    1.9740   -0.2387   -1.6386 H   0  0  0  0  0  0  0  0  0  0  0  0
    4.4290    0.0400   -1.4521 H   0  0  0  0  0  0  0  0  0  0  0  0
    4.3038   -1.4982    2.5721 H   0  0  0  0  0  0  0  0  0  0  0  0
    1.8438   -1.7695    2.3936 H   0  0  0  0  0  0  0  0  0  0  0  0
    0.8559    1.6058    0.4475 H   0  0  0  0  0  0  0  0  0  0  0  0
    0.4570    2.0169   -2.1419 H   0  0  0  0  0  0  0  0  0  0  0  0
   -2.1424    2.1028   -2.5695 H   0  0  0  0  0  0  0  0  0  0  0  0
   -3.3523    1.6850   -0.2525 H   0  0  0  0  0  0  0  0  0  0  0  0
   -1.3036    3.1323    0.5383 H   0  0  0  0  0  0  0  0  0  0  0  0
   -1.4831    1.7767    1.6640 H   0  0  0  0  0  0  0  0  0  0  0  0
  1  2  2  0
  2  3  1  0
  3  4  2  0
  4  5  1  0
  5  6  2  0
  6  7  1  0
  6  8  1  0
  8  9  2  0
  2 10  1  0
 10 11  1  0
 11 12  1  0
 12 13  2  0
 13 14  1  0
 14 15  1  0
 14 16  1  0
 16 17  1  0
 17 18  1  0
 17 19  1  0
 17 20  1  0
 16 21  1  0
 21 22  1  0
 21 23  1  0
 21 24  1  0
  9  3  1  0
 16 10  1  0
 15 11  1  0
  4 25  1  0
  5 26  1  0
  8 27  1  0
  9 28  1  0
 11 29  1  0
 12 30  1  0
 13 31  1  0
 14 32  1  0
 15 33  1  0
 15 34  1  0
M  END
$$$$
