
     RDKit          3D

 40 41  0  0  0  0  0  0  0  0999 V2000
    5.3258    2.5704    0.4221 C   0  0  0  0  0  0  0  0  0  0  0  0
    6.1660    1.1962    1.2477 S   0  0  0  0  0  0  0  0  0  0  0  0
    5.7156   -0.1558    0.1148 C   0  0  0  0  0  0  0  0  0  0  0  0
    4.2393   -0.4657    0.1066 C   0  0  0  0  0  0  0  0  0  0  0  0
    3.4598   -0.1859   -1.0248 C   0  0  0  0  0  0  0  0  0  0  0  0
    2.0925   -0.4725   -1.0319 C   0  0  0  0  0  0  0  0  0  0  0  0
    1.4833   -1.0349    0.0953 C   0  0  0  0  0  0  0  0  0  0  0  0
    0.0230   -1.3171    0.0418 C   0  0  0  0  0  0  0  0  0  0  0  0
   -0.5088   -1.5800   -1.0307 O   0  0  0  0  0  0  0  0  0  0  0  0
   -0.6572   -1.2309    1.2382 N   0  0  0  0  0  0  0  0  0  0  0  0
   -2.1000   -1.3936    1.3216 C   0  0  0  0  0  0  0  0  0  0  0  0
   -2.8188   -0.1374    1.8242 C   0  0  0  0  0  0  0  0  0  0  0  0
   -2.6114    1.3242    0.7437 S   0  0  0  0  0  0  0  0  0  0  0  0
   -3.7741    0.9073   -0.5398 C   0  0  0  0  0  0  0  0  0  0  0  0
   -5.1385    1.1612   -0.3650 C   0  0  0  0  0  0  0  0  0  0  0  0
   -6.0501    0.8394   -1.3742 C   0  0  0  0  0  0  0  0  0  0  0  0
   -5.5937    0.2674   -2.5605 C   0  0  0  0  0  0  0  0  0  0  0  0
   -6.8258   -0.1713   -3.9249 Br  0  0  0  0  0  0  0  0  0  0  0  0
   -4.2357    0.0190   -2.7478 C   0  0  0  0  0  0  0  0  0  0  0  0
   -3.3265    0.3448   -1.7382 C   0  0  0  0  0  0  0  0  0  0  0  0
    2.2570   -1.3356    1.2217 C   0  0  0  0  0  0  0  0  0  0  0  0
    3.6254   -1.0496    1.2257 C   0  0  0  0  0  0  0  0  0  0  0  0
    5.6318    2.6346   -0.6253 H   0  0  0  0  0  0  0  0  0  0  0  0
    5.6007    3.5047    0.9192 H   0  0  0  0  0  0  0  0  0  0  0  0
    4.2408    2.4574    0.4866 H   0  0  0  0  0  0  0  0  0  0  0  0
    6.2627   -1.0548    0.4213 H   0  0  0  0  0  0  0  0  0  0  0  0
    6.0735    0.0918   -0.8909 H   0  0  0  0  0  0  0  0  0  0  0  0
    3.9093    0.2568   -1.9114 H   0  0  0  0  0  0  0  0  0  0  0  0
    1.4998   -0.2521   -1.9179 H   0  0  0  0  0  0  0  0  0  0  0  0
   -0.1750   -0.8781    2.0535 H   0  0  0  0  0  0  0  0  0  0  0  0
   -2.2693   -2.2033    2.0401 H   0  0  0  0  0  0  0  0  0  0  0  0
   -2.5088   -1.7252    0.3620 H   0  0  0  0  0  0  0  0  0  0  0  0
   -2.4160    0.1391    2.8050 H   0  0  0  0  0  0  0  0  0  0  0  0
   -3.8852   -0.3442    1.9630 H   0  0  0  0  0  0  0  0  0  0  0  0
   -5.5016    1.6159    0.5535 H   0  0  0  0  0  0  0  0  0  0  0  0
   -7.1075    1.0416   -1.2265 H   0  0  0  0  0  0  0  0  0  0  0  0
   -3.8709   -0.4267   -3.6694 H   0  0  0  0  0  0  0  0  0  0  0  0
   -2.2679    0.1452   -1.8936 H   0  0  0  0  0  0  0  0  0  0  0  0
    1.8203   -1.8151    2.0926 H   0  0  0  0  0  0  0  0  0  0  0  0
    4.2163   -1.2872    2.1092 H   0  0  0  0  0  0  0  0  0  0  0  0
  1  2  1  0
  2  3  1  0
  3  4  1  0
  4  5  2  0
  5  6  1  0
  6  7  2  0
  7  8  1  0
  8  9  2  0
  8 10  1  0
 10 11  1  0
 11 12  1  0
 12 13  1  0
 13 14  1  0
 14 15  2  0
 15 16  1  0
 16 17  2  0
 17 18  1  0
 17 19  1  0
 19 20  2  0
  7 21  1  0
 21 22  2  0
 22  4  1  0
 20 14  1  0
  1 23  1  0
  1 24  1  0
  1 25  1  0
  3 26  1  0
  3 27  1  0
  5 28  1  0
  6 29  1  0
 10 30  1  0
 11 31  1  0
 11 32  1  0
 12 33  1  0
 12 34  1  0
 15 35  1  0
 16 36  1  0
 19 37  1  0
 20 38  1  0
 21 39  1  0
 22 40  1  0
M  END
$$$$
