
     RDKit          3D

 60 65  0  0  0  0  0  0  0  0999 V2000
   -1.2710    0.1098    5.1690 O   0  0  0  0  0  0  0  0  0  0  0  0
   -1.8202   -0.1145    4.0970 C   0  0  0  0  0  0  0  0  0  0  0  0
   -1.0956   -0.3822    2.9405 N   0  0  0  0  0  0  0  0  0  0  0  0
   -1.6689   -0.6231    1.6972 C   0  0  0  0  0  0  0  0  0  0  0  0
   -0.7211   -0.9018    0.5367 C   0  0  0  0  0  0  0  0  0  0  0  0
    0.2484    0.2592    0.2987 C   0  0  0  0  0  0  0  0  0  0  0  0
    1.4553   -0.2039   -0.5018 C   0  0  0  0  0  0  0  0  0  0  0  0
    2.2243   -1.2466    0.2303 N   0  0  0  0  0  0  0  0  0  0  0  0
    3.7357   -0.7586    0.8696 S   0  0  0  0  0  6  0  0  0  0  0  0
    4.3643   -1.9130    1.4721 O   0  0  0  0  0  0  0  0  0  0  0  0
    3.4855    0.4475    1.6311 O   0  0  0  0  0  0  0  0  0  0  0  0
    4.6665   -0.3423   -0.5787 C   0  0  0  0  0  0  0  0  0  0  0  0
    5.2164    0.9361   -0.7169 C   0  0  0  0  0  0  0  0  0  0  0  0
    5.9333    1.2516   -1.8720 C   0  0  0  0  0  0  0  0  0  0  0  0
    6.0928    0.2947   -2.8749 C   0  0  0  0  0  0  0  0  0  0  0  0
    5.5629   -0.9914   -2.7143 C   0  0  0  0  0  0  0  0  0  0  0  0
    4.8367   -1.3117   -1.5713 C   0  0  0  0  0  0  0  0  0  0  0  0
    5.7101   -1.9846   -3.6476 O   0  0  0  0  0  0  0  0  0  0  0  0
    6.7490   -1.6719   -4.5820 C   0  0  0  0  0  0  0  0  0  0  0  0
    6.6139   -0.2396   -5.0697 C   0  0  0  0  0  0  0  0  0  0  0  0
    6.7891    0.6849   -3.9895 O   0  0  0  0  0  0  0  0  0  0  0  0
    1.4387   -2.0832    1.1744 C   0  0  0  0  0  0  0  0  0  0  0  0
   -0.0013   -2.2467    0.7073 C   0  0  0  0  0  0  0  0  0  0  0  0
   -2.9555   -0.6454    1.4806 N   0  0  0  0  0  0  0  0  0  0  0  0
   -3.6857   -0.3922    2.5928 C   0  0  0  0  0  0  0  0  0  0  0  0
   -3.2382   -0.1348    3.8651 C   0  0  0  0  0  0  0  0  0  0  0  0
   -4.2850    0.0608    4.7116 N   0  0  0  0  0  0  0  0  0  0  0  0
   -5.4023   -0.0705    3.9962 N   0  0  0  0  0  0  0  0  0  0  0  0
   -5.0437   -0.3269    2.7125 N   0  0  0  0  0  0  0  0  0  0  0  0
   -6.0479   -0.5393    1.6905 C   0  0  0  0  0  0  0  0  0  0  0  0
   -6.3592    0.7300    0.9459 C   0  0  0  0  0  0  0  0  0  0  0  0
   -7.0620    1.7776    1.5590 C   0  0  0  0  0  0  0  0  0  0  0  0
   -7.3401    2.9517    0.8550 C   0  0  0  0  0  0  0  0  0  0  0  0
   -6.9210    3.0932   -0.4662 C   0  0  0  0  0  0  0  0  0  0  0  0
   -6.2223    2.0595   -1.0847 C   0  0  0  0  0  0  0  0  0  0  0  0
   -5.9473    0.8925   -0.3778 C   0  0  0  0  0  0  0  0  0  0  0  0
   -5.2798   -0.0909   -0.9962 F   0  0  0  0  0  0  0  0  0  0  0  0
   -0.0951   -0.3396    3.0666 H   0  0  0  0  0  0  0  0  0  0  0  0
   -1.3536   -0.9948   -0.3583 H   0  0  0  0  0  0  0  0  0  0  0  0
    0.5880    0.7049    1.2409 H   0  0  0  0  0  0  0  0  0  0  0  0
   -0.2724    1.0594   -0.2419 H   0  0  0  0  0  0  0  0  0  0  0  0
    2.0819    0.6607   -0.7414 H   0  0  0  0  0  0  0  0  0  0  0  0
    1.1411   -0.6278   -1.4630 H   0  0  0  0  0  0  0  0  0  0  0  0
    5.0923    1.6858    0.0618 H   0  0  0  0  0  0  0  0  0  0  0  0
    6.3614    2.2436   -1.9952 H   0  0  0  0  0  0  0  0  0  0  0  0
    4.4191   -2.3082   -1.4518 H   0  0  0  0  0  0  0  0  0  0  0  0
    7.7180   -1.8420   -4.0970 H   0  0  0  0  0  0  0  0  0  0  0  0
    6.6612   -2.3690   -5.4214 H   0  0  0  0  0  0  0  0  0  0  0  0
    5.6315   -0.0606   -5.5228 H   0  0  0  0  0  0  0  0  0  0  0  0
    7.3798   -0.0223   -5.8200 H   0  0  0  0  0  0  0  0  0  0  0  0
    1.9038   -3.0737    1.2302 H   0  0  0  0  0  0  0  0  0  0  0  0
    1.4598   -1.6443    2.1771 H   0  0  0  0  0  0  0  0  0  0  0  0
   -0.5437   -2.9016    1.3993 H   0  0  0  0  0  0  0  0  0  0  0  0
    0.0072   -2.7623   -0.2620 H   0  0  0  0  0  0  0  0  0  0  0  0
   -5.6831   -1.3283    1.0244 H   0  0  0  0  0  0  0  0  0  0  0  0
   -6.9521   -0.9256    2.1745 H   0  0  0  0  0  0  0  0  0  0  0  0
   -7.3903    1.6895    2.5935 H   0  0  0  0  0  0  0  0  0  0  0  0
   -7.8813    3.7592    1.3417 H   0  0  0  0  0  0  0  0  0  0  0  0
   -7.1375    4.0080   -1.0113 H   0  0  0  0  0  0  0  0  0  0  0  0
   -5.8906    2.1543   -2.1130 H   0  0  0  0  0  0  0  0  0  0  0  0
  1  2  2  0
  2  3  1  0
  3  4  1  0
  4  5  1  0
  5  6  1  0
  6  7  1  0
  7  8  1  0
  8  9  1  0
  9 10  2  0
  9 11  2  0
  9 12  1  0
 12 13  2  0
 13 14  1  0
 14 15  2  0
 15 16  1  0
 16 17  2  0
 16 18  1  0
 18 19  1  0
 19 20  1  0
 20 21  1  0
  8 22  1  0
 22 23  1  0
  4 24  2  0
 24 25  1  0
 25 26  2  0
 26 27  1  0
 27 28  2  0
 28 29  1  0
 29 30  1  0
 30 31  1  0
 31 32  2  0
 32 33  1  0
 33 34  2  0
 34 35  1  0
 35 36  2  0
 36 37  1  0
 26  2  1  0
 36 31  1  0
 23  5  1  0
 29 25  1  0
 17 12  1  0
 21 15  1  0
  3 38  1  0
  5 39  1  0
  6 40  1  0
  6 41  1  0
  7 42  1  0
  7 43  1  0
 13 44  1  0
 14 45  1  0
 17 46  1  0
 19 47  1  0
 19 48  1  0
 20 49  1  0
 20 50  1  0
 22 51  1  0
 22 52  1  0
 23 53  1  0
 23 54  1  0
 30 55  1  0
 30 56  1  0
 32 57  1  0
 33 58  1  0
 34 59  1  0
 35 60  1  0
M  END
$$$$
