
     RDKit          3D

 60 62  0  0  0  0  0  0  0  0999 V2000
   -4.0610   -1.2894   -4.3438 C   0  0  0  0  0  0  0  0  0  0  0  0
   -4.7881   -0.9377   -3.0542 C   0  0  0  0  0  0  0  0  0  0  0  0
   -3.8380   -0.6836   -1.9118 C   0  0  0  0  0  0  0  0  0  0  0  0
   -3.5352    0.6188   -1.5056 C   0  0  0  0  0  0  0  0  0  0  0  0
   -2.6598    0.8436   -0.4375 C   0  0  0  0  0  0  0  0  0  0  0  0
   -2.0661   -0.2285    0.2411 C   0  0  0  0  0  0  0  0  0  0  0  0
   -1.2210    0.0866    1.3265 N   0  0  0  0  0  0  0  0  0  0  0  0
   -0.5371   -0.7958    2.1440 C   0  0  0  0  0  0  0  0  0  0  0  0
   -0.4996   -2.0214    2.0270 O   0  0  0  0  0  0  0  0  0  0  0  0
    0.2436   -0.1039    3.2820 C   0  0  0  0  0  0  0  0  0  0  0  0
    1.3846   -0.9845    3.6143 N   0  0  0  0  0  0  0  0  0  0  0  0
    2.9431   -0.5087    3.2497 S   0  0  0  0  0  6  0  0  0  0  0  0
    3.1549    0.7604    3.9128 O   0  0  0  0  0  0  0  0  0  0  0  0
    3.8043   -1.6452    3.4748 O   0  0  0  0  0  0  0  0  0  0  0  0
    2.9087   -0.1978    1.5005 C   0  0  0  0  0  0  0  0  0  0  0  0
    2.4621   -1.2036    0.6253 C   0  0  0  0  0  0  0  0  0  0  0  0
    2.3947   -0.9570   -0.7514 C   0  0  0  0  0  0  0  0  0  0  0  0
    2.7979    0.2820   -1.2270 C   0  0  0  0  0  0  0  0  0  0  0  0
    3.2628    1.2672   -0.3519 C   0  0  0  0  0  0  0  0  0  0  0  0
    3.3199    1.0491    1.0174 C   0  0  0  0  0  0  0  0  0  0  0  0
    3.6732    2.5033   -1.0865 C   0  0  0  0  0  0  0  0  0  0  0  0
    3.3683    2.1301   -2.5427 C   0  0  0  0  0  0  0  0  0  0  0  0
    2.8329    0.7566   -2.5521 N   0  0  0  0  0  0  0  0  0  0  0  0
    2.4049    0.0641   -3.6724 C   0  0  0  0  0  0  0  0  0  0  0  0
    2.5915    0.7892   -4.9855 C   0  0  0  0  0  0  0  0  0  0  0  0
    1.8965   -1.0550   -3.6622 O   0  0  0  0  0  0  0  0  0  0  0  0
   -0.6021    0.1348    4.5536 C   0  0  0  0  0  0  0  0  0  0  0  0
   -1.6873    1.1943    4.3371 C   0  0  0  0  0  0  0  0  0  0  0  0
   -1.2326   -1.1429    5.1201 C   0  0  0  0  0  0  0  0  0  0  0  0
   -2.3526   -1.5274   -0.1774 C   0  0  0  0  0  0  0  0  0  0  0  0
   -3.2319   -1.7539   -1.2437 C   0  0  0  0  0  0  0  0  0  0  0  0
   -3.4136   -0.4646   -4.6646 H   0  0  0  0  0  0  0  0  0  0  0  0
   -4.7835   -1.4839   -5.1429 H   0  0  0  0  0  0  0  0  0  0  0  0
   -3.4368   -2.1810   -4.2281 H   0  0  0  0  0  0  0  0  0  0  0  0
   -5.4772   -1.7469   -2.7767 H   0  0  0  0  0  0  0  0  0  0  0  0
   -5.4163   -0.0529   -3.2201 H   0  0  0  0  0  0  0  0  0  0  0  0
   -3.9848    1.4705   -2.0120 H   0  0  0  0  0  0  0  0  0  0  0  0
   -2.4535    1.8712   -0.1488 H   0  0  0  0  0  0  0  0  0  0  0  0
   -1.1184    1.0755    1.5227 H   0  0  0  0  0  0  0  0  0  0  0  0
    0.6150    0.8620    2.9193 H   0  0  0  0  0  0  0  0  0  0  0  0
    1.2092   -1.9879    3.5010 H   0  0  0  0  0  0  0  0  0  0  0  0
    2.1566   -2.1766    1.0054 H   0  0  0  0  0  0  0  0  0  0  0  0
    2.0370   -1.7375   -1.4165 H   0  0  0  0  0  0  0  0  0  0  0  0
    3.6818    1.8231    1.6895 H   0  0  0  0  0  0  0  0  0  0  0  0
    3.0890    3.3731   -0.7701 H   0  0  0  0  0  0  0  0  0  0  0  0
    4.7390    2.7094   -0.9504 H   0  0  0  0  0  0  0  0  0  0  0  0
    2.6250    2.8065   -2.9792 H   0  0  0  0  0  0  0  0  0  0  0  0
    4.2715    2.1698   -3.1637 H   0  0  0  0  0  0  0  0  0  0  0  0
    3.6510    1.0046   -5.1518 H   0  0  0  0  0  0  0  0  0  0  0  0
    2.0075    1.7148   -4.9958 H   0  0  0  0  0  0  0  0  0  0  0  0
    2.2420    0.1530   -5.8055 H   0  0  0  0  0  0  0  0  0  0  0  0
    0.0758    0.5273    5.3247 H   0  0  0  0  0  0  0  0  0  0  0  0
   -2.4787    0.8372    3.6695 H   0  0  0  0  0  0  0  0  0  0  0  0
   -1.2621    2.1109    3.9117 H   0  0  0  0  0  0  0  0  0  0  0  0
   -2.1586    1.4591    5.2896 H   0  0  0  0  0  0  0  0  0  0  0  0
   -0.4708   -1.8916    5.3590 H   0  0  0  0  0  0  0  0  0  0  0  0
   -1.7753   -0.9221    6.0462 H   0  0  0  0  0  0  0  0  0  0  0  0
   -1.9462   -1.5907    4.4186 H   0  0  0  0  0  0  0  0  0  0  0  0
   -1.9160   -2.3967    0.3026 H   0  0  0  0  0  0  0  0  0  0  0  0
   -3.4402   -2.7794   -1.5450 H   0  0  0  0  0  0  0  0  0  0  0  0
  1  2  1  0
  2  3  1  0
  3  4  2  0
  4  5  1  0
  5  6  2  0
  6  7  1  0
  7  8  1  0
  8  9  2  0
  8 10  1  0
 10 11  1  0
 11 12  1  0
 12 13  2  0
 12 14  2  0
 12 15  1  0
 15 16  2  0
 16 17  1  0
 17 18  2  0
 18 19  1  0
 19 20  2  0
 19 21  1  0
 21 22  1  0
 22 23  1  0
 23 24  1  0
 24 25  1  0
 24 26  2  0
 10 27  1  0
 27 28  1  0
 27 29  1  0
  6 30  1  0
 30 31  2  0
 31  3  1  0
 20 15  1  0
 23 18  1  0
  1 32  1  0
  1 33  1  0
  1 34  1  0
  2 35  1  0
  2 36  1  0
  4 37  1  0
  5 38  1  0
  7 39  1  0
 10 40  1  0
 11 41  1  0
 16 42  1  0
 17 43  1  0
 20 44  1  0
 21 45  1  0
 21 46  1  0
 22 47  1  0
 22 48  1  0
 25 49  1  0
 25 50  1  0
 25 51  1  0
 27 52  1  0
 28 53  1  0
 28 54  1  0
 28 55  1  0
 29 56  1  0
 29 57  1  0
 29 58  1  0
 30 59  1  0
 31 60  1  0
M  END
$$$$
