
     RDKit          3D

 28 29  0  0  0  0  0  0  0  0999 V2000
    4.7561   -2.1264   -0.2398 O   0  0  0  0  0  0  0  0  0  0  0  0
    4.6364   -1.0251    0.3148 N   0  0  0  0  0  4  0  0  0  0  0  0
    5.4903   -0.5122    1.0518 O   0  0  0  0  0  1  0  0  0  0  0  0
    3.4107   -0.2779    0.0808 C   0  0  0  0  0  0  0  0  0  0  0  0
    3.2014    0.9673    0.6663 C   0  0  0  0  0  0  0  0  0  0  0  0
    2.0019    1.6312    0.4049 C   0  0  0  0  0  0  0  0  0  0  0  0
    1.0468    1.0462   -0.4295 C   0  0  0  0  0  0  0  0  0  0  0  0
   -0.1501    1.7439   -0.6377 N   0  0  0  0  0  0  0  0  0  0  0  0
   -1.1584    1.0760   -1.4535 C   0  0  0  0  0  0  0  0  0  0  0  0
   -2.0302    0.1717   -0.6129 C   0  0  0  0  0  0  0  0  0  0  0  0
   -1.9464   -1.2219   -0.7401 C   0  0  0  0  0  0  0  0  0  0  0  0
   -2.7571   -2.0555    0.0324 C   0  0  0  0  0  0  0  0  0  0  0  0
   -3.6574   -1.5053    0.9429 C   0  0  0  0  0  0  0  0  0  0  0  0
   -3.7441   -0.1218    1.0864 C   0  0  0  0  0  0  0  0  0  0  0  0
   -2.9335    0.7127    0.3149 C   0  0  0  0  0  0  0  0  0  0  0  0
    1.2591   -0.1589   -0.9994 N   0  0  0  0  0  0  0  0  0  0  0  0
    2.4255   -0.8019   -0.7364 C   0  0  0  0  0  0  0  0  0  0  0  0
    3.9377    1.4236    1.3226 H   0  0  0  0  0  0  0  0  0  0  0  0
    1.8032    2.5930    0.8688 H   0  0  0  0  0  0  0  0  0  0  0  0
    0.0638    2.6700   -0.9919 H   0  0  0  0  0  0  0  0  0  0  0  0
   -0.7293    0.5494   -2.3155 H   0  0  0  0  0  0  0  0  0  0  0  0
   -1.8096    1.8454   -1.8891 H   0  0  0  0  0  0  0  0  0  0  0  0
   -1.2356   -1.6634   -1.4355 H   0  0  0  0  0  0  0  0  0  0  0  0
   -2.6803   -3.1343   -0.0725 H   0  0  0  0  0  0  0  0  0  0  0  0
   -4.2854   -2.1550    1.5463 H   0  0  0  0  0  0  0  0  0  0  0  0
   -4.4384    0.3080    1.8033 H   0  0  0  0  0  0  0  0  0  0  0  0
   -2.9995    1.7904    0.4437 H   0  0  0  0  0  0  0  0  0  0  0  0
    2.5221   -1.7692   -1.2228 H   0  0  0  0  0  0  0  0  0  0  0  0
  1  2  2  0
  2  3  1  0
  2  4  1  0
  4  5  2  0
  5  6  1  0
  6  7  2  0
  7  8  1  0
  8  9  1  0
  9 10  1  0
 10 11  2  0
 11 12  1  0
 12 13  2  0
 13 14  1  0
 14 15  2  0
  7 16  1  0
 16 17  2  0
 17  4  1  0
 15 10  1  0
  5 18  1  0
  6 19  1  0
  8 20  1  0
  9 21  1  0
  9 22  1  0
 11 23  1  0
 12 24  1  0
 13 25  1  0
 14 26  1  0
 15 27  1  0
 17 28  1  0
M  CHG  2   2   1   3  -1
M  END
$$$$
