
     RDKit          3D

 53 55  0  0  0  0  0  0  0  0999 V2000
    8.0471    2.1141    3.5785 C   0  0  0  0  0  0  0  0  0  0  0  0
    7.2740    0.9421    3.8031 O   0  0  0  0  0  0  0  0  0  0  0  0
    6.6706    0.3822    2.7109 C   0  0  0  0  0  0  0  0  0  0  0  0
    6.7891    0.8208    1.3921 C   0  0  0  0  0  0  0  0  0  0  0  0
    6.1156    0.1513    0.3639 C   0  0  0  0  0  0  0  0  0  0  0  0
    5.3207   -0.9695    0.6402 C   0  0  0  0  0  0  0  0  0  0  0  0
    4.5734   -1.6735   -0.4609 C   0  0  0  0  0  0  0  0  0  0  0  0
    3.2775   -1.0804   -0.6580 N   0  0  0  0  0  0  0  0  0  0  0  0
    2.1422   -1.5763   -0.0641 C   0  0  0  0  0  0  0  0  0  0  0  0
    2.0414   -2.6277    0.5527 O   0  0  0  0  0  0  0  0  0  0  0  0
    0.9138   -0.6520   -0.2268 C   0  0  0  0  0  0  0  0  0  0  0  0
    1.0147    0.3942   -0.8531 O   0  0  0  0  0  0  0  0  0  0  0  0
   -0.2195   -1.1292    0.3911 N   0  0  0  0  0  0  0  0  0  0  0  0
   -1.5179   -0.4982    0.2225 C   0  0  0  0  0  0  0  0  0  0  0  0
   -2.3254   -1.0721   -0.9754 C   0  0  0  0  0  0  0  0  0  0  0  0
   -1.5622   -0.9782   -2.1927 O   0  0  0  0  0  0  0  0  0  0  0  0
   -1.8558    0.3119   -2.7356 C   0  0  0  0  0  0  0  0  0  0  0  0
   -3.3121    0.5563   -2.3925 C   0  0  0  0  0  0  0  0  0  0  0  0
   -3.5829   -0.3694   -1.2809 N   0  0  0  0  0  0  0  0  0  0  0  0
   -4.5368    0.1385   -0.0046 S   0  0  0  0  0  6  0  0  0  0  0  0
   -3.9957    1.3958    0.4661 O   0  0  0  0  0  0  0  0  0  0  0  0
   -4.7090   -0.9834    0.8925 O   0  0  0  0  0  0  0  0  0  0  0  0
   -6.0953    0.4494   -0.7907 C   0  0  0  0  0  0  0  0  0  0  0  0
   -6.8461   -0.6337   -1.2584 C   0  0  0  0  0  0  0  0  0  0  0  0
   -8.0754   -0.4004   -1.8733 C   0  0  0  0  0  0  0  0  0  0  0  0
   -8.5491    0.9054   -2.0134 C   0  0  0  0  0  0  0  0  0  0  0  0
   -7.7980    1.9828   -1.5381 C   0  0  0  0  0  0  0  0  0  0  0  0
   -6.5677    1.7581   -0.9204 C   0  0  0  0  0  0  0  0  0  0  0  0
    5.1971   -1.3981    1.9669 C   0  0  0  0  0  0  0  0  0  0  0  0
    5.8721   -0.7291    2.9903 C   0  0  0  0  0  0  0  0  0  0  0  0
    7.4305    2.9228    3.1726 H   0  0  0  0  0  0  0  0  0  0  0  0
    8.9036    1.9043    2.9286 H   0  0  0  0  0  0  0  0  0  0  0  0
    8.4372    2.4475    4.5448 H   0  0  0  0  0  0  0  0  0  0  0  0
    7.3969    1.6795    1.1272 H   0  0  0  0  0  0  0  0  0  0  0  0
    6.2170    0.5136   -0.6569 H   0  0  0  0  0  0  0  0  0  0  0  0
    4.4747   -2.7418   -0.2371 H   0  0  0  0  0  0  0  0  0  0  0  0
    5.1230   -1.5885   -1.4051 H   0  0  0  0  0  0  0  0  0  0  0  0
    3.2087   -0.1366   -1.0279 H   0  0  0  0  0  0  0  0  0  0  0  0
   -0.1471   -2.0529    0.8118 H   0  0  0  0  0  0  0  0  0  0  0  0
   -1.3568    0.5779    0.0956 H   0  0  0  0  0  0  0  0  0  0  0  0
   -2.0550   -0.6513    1.1630 H   0  0  0  0  0  0  0  0  0  0  0  0
   -2.5276   -2.1352   -0.8076 H   0  0  0  0  0  0  0  0  0  0  0  0
   -1.6695    0.3165   -3.8129 H   0  0  0  0  0  0  0  0  0  0  0  0
   -1.2036    1.0565   -2.2680 H   0  0  0  0  0  0  0  0  0  0  0  0
   -3.4836    1.6080   -2.1491 H   0  0  0  0  0  0  0  0  0  0  0  0
   -3.9573    0.2860   -3.2345 H   0  0  0  0  0  0  0  0  0  0  0  0
   -6.4804   -1.6519   -1.1417 H   0  0  0  0  0  0  0  0  0  0  0  0
   -8.6686   -1.2358   -2.2383 H   0  0  0  0  0  0  0  0  0  0  0  0
   -9.5111    1.0839   -2.4892 H   0  0  0  0  0  0  0  0  0  0  0  0
   -8.1775    2.9963   -1.6422 H   0  0  0  0  0  0  0  0  0  0  0  0
   -5.9949    2.6001   -0.5398 H   0  0  0  0  0  0  0  0  0  0  0  0
    4.5701   -2.2538    2.2123 H   0  0  0  0  0  0  0  0  0  0  0  0
    5.7710   -1.0766    4.0162 H   0  0  0  0  0  0  0  0  0  0  0  0
  1  2  1  0
  2  3  1  0
  3  4  2  0
  4  5  1  0
  5  6  2  0
  6  7  1  0
  7  8  1  0
  8  9  1  0
  9 10  2  0
  9 11  1  0
 11 12  2  0
 11 13  1  0
 13 14  1  0
 14 15  1  0
 15 16  1  0
 16 17  1  0
 17 18  1  0
 18 19  1  0
 19 20  1  0
 20 21  2  0
 20 22  2  0
 20 23  1  0
 23 24  2  0
 24 25  1  0
 25 26  2  0
 26 27  1  0
 27 28  2  0
  6 29  1  0
 29 30  2  0
 30  3  1  0
 19 15  1  0
 28 23  1  0
  1 31  1  0
  1 32  1  0
  1 33  1  0
  4 34  1  0
  5 35  1  0
  7 36  1  0
  7 37  1  0
  8 38  1  0
 13 39  1  0
 14 40  1  0
 14 41  1  0
 15 42  1  0
 17 43  1  0
 17 44  1  0
 18 45  1  0
 18 46  1  0
 24 47  1  0
 25 48  1  0
 26 49  1  0
 27 50  1  0
 28 51  1  0
 29 52  1  0
 30 53  1  0
M  END
$$$$
