
     RDKit          3D

 46 48  0  0  0  0  0  0  0  0999 V2000
    1.6478    2.0903    0.2837 C   0  0  0  0  0  0  0  0  0  0  0  0
    1.6659    0.5777    0.1949 C   0  0  0  0  0  0  0  0  0  0  0  0
    2.6801   -0.1249   -0.6491 C   0  0  0  0  0  0  0  0  0  0  0  0
    3.6596    0.4489   -1.3645 C   0  0  0  0  0  0  0  0  0  0  0  0
    4.6273   -0.2982   -2.1884 C   0  0  0  0  0  0  0  0  0  0  0  0
    5.0405   -1.6029   -1.8823 C   0  0  0  0  0  0  0  0  0  0  0  0
    5.9801   -2.2599   -2.6825 C   0  0  0  0  0  0  0  0  0  0  0  0
    6.5297   -1.6160   -3.7885 C   0  0  0  0  0  0  0  0  0  0  0  0
    6.1450   -0.3119   -4.0924 C   0  0  0  0  0  0  0  0  0  0  0  0
    5.2023    0.3437   -3.2956 C   0  0  0  0  0  0  0  0  0  0  0  0
    0.8180   -0.1916    0.8227 N   0  0  0  0  0  0  0  0  0  0  0  0
   -0.1732    0.3739    1.5665 N   0  0  0  0  0  0  0  0  0  0  0  0
   -1.0172   -0.4259    2.3149 C   0  0  0  0  0  0  0  0  0  0  0  0
   -0.9239   -1.6390    2.4594 O   0  0  0  0  0  0  0  0  0  0  0  0
   -2.0724    0.3052    3.0714 C   0  0  0  0  0  0  0  0  0  0  0  0
   -2.6486    1.6384    2.6786 C   0  0  0  0  0  0  0  0  0  0  0  0
   -3.5111    0.3920    2.5633 C   0  0  0  0  0  0  0  0  0  0  0  0
   -4.6074    0.1987    3.5866 C   0  0  0  0  0  0  0  0  0  0  0  0
   -3.8918   -0.0612    1.1572 C   0  0  0  0  0  0  0  0  0  0  0  0
   -4.4818    0.8286    0.2395 C   0  0  0  0  0  0  0  0  0  0  0  0
   -4.8560    0.4183   -1.0438 C   0  0  0  0  0  0  0  0  0  0  0  0
   -4.6517   -0.8992   -1.4392 C   0  0  0  0  0  0  0  0  0  0  0  0
   -4.0824   -1.8046   -0.5492 C   0  0  0  0  0  0  0  0  0  0  0  0
   -3.7154   -1.3886    0.7352 C   0  0  0  0  0  0  0  0  0  0  0  0
    0.7808    2.4735   -0.2643 H   0  0  0  0  0  0  0  0  0  0  0  0
    1.5769    2.3958    1.3323 H   0  0  0  0  0  0  0  0  0  0  0  0
    2.5452    2.5578   -0.1196 H   0  0  0  0  0  0  0  0  0  0  0  0
    2.5448   -1.2048   -0.6525 H   0  0  0  0  0  0  0  0  0  0  0  0
    3.7884    1.5250   -1.3916 H   0  0  0  0  0  0  0  0  0  0  0  0
    4.6465   -2.1267   -1.0140 H   0  0  0  0  0  0  0  0  0  0  0  0
    6.2843   -3.2753   -2.4377 H   0  0  0  0  0  0  0  0  0  0  0  0
    7.2607   -2.1282   -4.4087 H   0  0  0  0  0  0  0  0  0  0  0  0
    6.5773    0.1965   -4.9502 H   0  0  0  0  0  0  0  0  0  0  0  0
    4.9164    1.3621   -3.5562 H   0  0  0  0  0  0  0  0  0  0  0  0
   -0.3414    1.3658    1.5108 H   0  0  0  0  0  0  0  0  0  0  0  0
   -1.9483    0.1493    4.1423 H   0  0  0  0  0  0  0  0  0  0  0  0
   -2.3316    2.1223    1.7623 H   0  0  0  0  0  0  0  0  0  0  0  0
   -2.8738    2.3442    3.4720 H   0  0  0  0  0  0  0  0  0  0  0  0
   -5.5165    0.7278    3.2810 H   0  0  0  0  0  0  0  0  0  0  0  0
   -4.8450   -0.8650    3.6973 H   0  0  0  0  0  0  0  0  0  0  0  0
   -4.3175    0.5797    4.5719 H   0  0  0  0  0  0  0  0  0  0  0  0
   -4.6620    1.8601    0.5331 H   0  0  0  0  0  0  0  0  0  0  0  0
   -5.3097    1.1267   -1.7305 H   0  0  0  0  0  0  0  0  0  0  0  0
   -4.9399   -1.2233   -2.4357 H   0  0  0  0  0  0  0  0  0  0  0  0
   -3.9211   -2.8375   -0.8467 H   0  0  0  0  0  0  0  0  0  0  0  0
   -3.2778   -2.1177    1.4160 H   0  0  0  0  0  0  0  0  0  0  0  0
  1  2  1  0
  2  3  1  0
  3  4  2  3
  4  5  1  0
  5  6  2  0
  6  7  1  0
  7  8  2  0
  8  9  1  0
  9 10  2  0
  2 11  2  3
 11 12  1  0
 12 13  1  0
 13 14  2  0
 13 15  1  0
 15 16  1  0
 16 17  1  0
 17 18  1  0
 17 19  1  0
 19 20  2  0
 20 21  1  0
 21 22  2  0
 22 23  1  0
 23 24  2  0
 10  5  1  0
 17 15  1  0
 24 19  1  0
  1 25  1  0
  1 26  1  0
  1 27  1  0
  3 28  1  0
  4 29  1  0
  6 30  1  0
  7 31  1  0
  8 32  1  0
  9 33  1  0
 10 34  1  0
 12 35  1  0
 15 36  1  0
 16 37  1  0
 16 38  1  0
 18 39  1  0
 18 40  1  0
 18 41  1  0
 20 42  1  0
 21 43  1  0
 22 44  1  0
 23 45  1  0
 24 46  1  0
M  END
$$$$
