
     RDKit          3D

 37 39  0  0  0  0  0  0  0  0999 V2000
    5.9992    0.0736   -0.6834 C   0  0  0  0  0  0  0  0  0  0  0  0
    5.4564   -0.2719    0.5846 O   0  0  0  0  0  0  0  0  0  0  0  0
    4.0929   -0.3090    0.6975 C   0  0  0  0  0  0  0  0  0  0  0  0
    3.6345   -0.6791    1.9717 C   0  0  0  0  0  0  0  0  0  0  0  0
    2.2710   -0.7645    2.2481 C   0  0  0  0  0  0  0  0  0  0  0  0
    1.3791   -0.4709    1.2300 C   0  0  0  0  0  0  0  0  0  0  0  0
    1.8094   -0.0936   -0.0608 C   0  0  0  0  0  0  0  0  0  0  0  0
    3.1773   -0.0157   -0.3216 C   0  0  0  0  0  0  0  0  0  0  0  0
    0.7492    0.1729   -0.9592 N   0  0  0  0  0  0  0  0  0  0  0  0
    1.0561    0.3805   -2.3646 C   0  0  0  0  0  0  0  0  0  0  0  0
   -0.4971   -0.0618   -0.3735 C   0  0  0  0  0  0  0  0  0  0  0  0
   -1.6987    0.0519   -0.9708 C   0  0  0  0  0  0  0  0  0  0  0  0
   -2.9933   -0.2033   -0.3315 C   0  0  0  0  0  0  0  0  0  0  0  0
   -3.5648   -1.4780   -0.4256 C   0  0  0  0  0  0  0  0  0  0  0  0
   -4.7813   -1.7415    0.1894 C   0  0  0  0  0  0  0  0  0  0  0  0
   -5.4130   -0.7305    0.8955 C   0  0  0  0  0  0  0  0  0  0  0  0
   -4.8204    0.5238    0.9691 C   0  0  0  0  0  0  0  0  0  0  0  0
   -3.6395    0.7789    0.3562 N   0  0  0  0  0  4  0  0  0  0  0  0
   -3.0597    2.1325    0.4751 C   0  0  0  0  0  0  0  0  0  0  0  0
   -0.4013   -0.5333    1.3506 S   0  0  0  0  0  0  0  0  0  0  0  0
    5.7132    1.0909   -0.9700 H   0  0  0  0  0  0  0  0  0  0  0  0
    7.0899    0.0449   -0.5998 H   0  0  0  0  0  0  0  0  0  0  0  0
    5.7040   -0.6510   -1.4494 H   0  0  0  0  0  0  0  0  0  0  0  0
    4.3571   -0.9058    2.7538 H   0  0  0  0  0  0  0  0  0  0  0  0
    1.9283   -1.0583    3.2347 H   0  0  0  0  0  0  0  0  0  0  0  0
    3.5250    0.2720   -1.3048 H   0  0  0  0  0  0  0  0  0  0  0  0
    1.4601   -0.5344   -2.8117 H   0  0  0  0  0  0  0  0  0  0  0  0
    1.7809    1.1919   -2.4946 H   0  0  0  0  0  0  0  0  0  0  0  0
    0.1726    0.6679   -2.9421 H   0  0  0  0  0  0  0  0  0  0  0  0
   -1.7719    0.3339   -2.0158 H   0  0  0  0  0  0  0  0  0  0  0  0
   -3.0554   -2.2736   -0.9676 H   0  0  0  0  0  0  0  0  0  0  0  0
   -5.2272   -2.7332    0.1257 H   0  0  0  0  0  0  0  0  0  0  0  0
   -6.3623   -0.9199    1.3927 H   0  0  0  0  0  0  0  0  0  0  0  0
   -5.2891    1.3329    1.5228 H   0  0  0  0  0  0  0  0  0  0  0  0
   -2.2154    2.0829    1.1656 H   0  0  0  0  0  0  0  0  0  0  0  0
   -3.8124    2.8235    0.8638 H   0  0  0  0  0  0  0  0  0  0  0  0
   -2.7531    2.4744   -0.5166 H   0  0  0  0  0  0  0  0  0  0  0  0
  1  2  1  0
  2  3  1  0
  3  4  2  0
  4  5  1  0
  5  6  2  0
  6  7  1  0
  7  8  2  0
  7  9  1  0
  9 10  1  0
  9 11  1  0
 11 12  2  3
 12 13  1  0
 13 14  2  0
 14 15  1  0
 15 16  2  0
 16 17  1  0
 17 18  2  0
 18 19  1  0
 11 20  1  0
  8  3  1  0
 18 13  1  0
 20  6  1  0
  1 21  1  0
  1 22  1  0
  1 23  1  0
  4 24  1  0
  5 25  1  0
  8 26  1  0
 10 27  1  0
 10 28  1  0
 10 29  1  0
 12 30  1  0
 14 31  1  0
 15 32  1  0
 16 33  1  0
 17 34  1  0
 19 35  1  0
 19 36  1  0
 19 37  1  0
M  CHG  1  18   1
M  END
$$$$
