
     RDKit          3D

 44 46  0  0  0  0  0  0  0  0999 V2000
    5.2829    2.6935   -1.6186 C   0  0  0  0  0  0  0  0  0  0  0  0
    6.2494    1.8424   -1.0125 O   0  0  0  0  0  0  0  0  0  0  0  0
    5.8002    0.6285   -0.5591 C   0  0  0  0  0  0  0  0  0  0  0  0
    4.5036    0.1283   -0.6870 C   0  0  0  0  0  0  0  0  0  0  0  0
    4.1780   -1.1345   -0.1636 C   0  0  0  0  0  0  0  0  0  0  0  0
    2.8242   -1.6851   -0.2959 C   0  0  0  0  0  0  0  0  0  0  0  0
    1.7109   -1.1808    0.2531 C   0  0  0  0  0  0  0  0  0  0  0  0
    1.5554    0.2140    1.2579 S   0  0  0  0  0  0  0  0  0  0  0  0
   -0.1882    0.0250    1.4293 C   0  0  0  0  0  0  0  0  0  0  0  0
   -1.1413    1.0545    2.3271 S   0  0  0  0  0  0  0  0  0  0  0  0
   -0.5757   -1.0986    0.7321 N   0  0  0  0  0  0  0  0  0  0  0  0
   -2.0336   -1.4954    0.5579 N   0  0  0  0  0  0  0  0  0  0  0  0
   -2.7171   -0.8755   -0.8857 S   0  0  0  0  0  6  0  0  0  0  0  0
   -3.0350   -2.0188   -1.7119 O   0  0  0  0  0  0  0  0  0  0  0  0
   -1.8709    0.1991   -1.3623 O   0  0  0  0  0  0  0  0  0  0  0  0
   -4.2370   -0.1894   -0.2871 C   0  0  0  0  0  0  0  0  0  0  0  0
   -4.3266    1.1779   -0.0198 C   0  0  0  0  0  0  0  0  0  0  0  0
   -5.5342    1.7126    0.4323 C   0  0  0  0  0  0  0  0  0  0  0  0
   -6.6531    0.8886    0.6149 C   0  0  0  0  0  0  0  0  0  0  0  0
   -7.9585    1.4743    1.0681 C   0  0  0  0  0  0  0  0  0  0  0  0
   -6.5579   -0.4760    0.3104 C   0  0  0  0  0  0  0  0  0  0  0  0
   -5.3528   -1.0180   -0.1398 C   0  0  0  0  0  0  0  0  0  0  0  0
    0.3866   -1.8287    0.0591 C   0  0  0  0  0  0  0  0  0  0  0  0
    0.1900   -2.8564   -0.5743 O   0  0  0  0  0  0  0  0  0  0  0  0
    5.1650   -1.9032    0.4669 C   0  0  0  0  0  0  0  0  0  0  0  0
    6.4630   -1.4110    0.5930 C   0  0  0  0  0  0  0  0  0  0  0  0
    6.7654   -0.1556    0.0827 C   0  0  0  0  0  0  0  0  0  0  0  0
    8.0466    0.3053    0.2204 O   0  0  0  0  0  0  0  0  0  0  0  0
    4.8861    2.2469   -2.5361 H   0  0  0  0  0  0  0  0  0  0  0  0
    5.7849    3.6266   -1.8923 H   0  0  0  0  0  0  0  0  0  0  0  0
    4.4788    2.9414   -0.9177 H   0  0  0  0  0  0  0  0  0  0  0  0
    3.7312    0.6990   -1.1923 H   0  0  0  0  0  0  0  0  0  0  0  0
    2.7666   -2.5974   -0.8894 H   0  0  0  0  0  0  0  0  0  0  0  0
   -2.1260   -2.5179    0.5027 H   0  0  0  0  0  0  0  0  0  0  0  0
   -3.4698    1.8336   -0.1581 H   0  0  0  0  0  0  0  0  0  0  0  0
   -5.5979    2.7789    0.6409 H   0  0  0  0  0  0  0  0  0  0  0  0
   -8.5444    1.7967    0.2020 H   0  0  0  0  0  0  0  0  0  0  0  0
   -7.7933    2.3347    1.7251 H   0  0  0  0  0  0  0  0  0  0  0  0
   -8.5396    0.7399    1.6357 H   0  0  0  0  0  0  0  0  0  0  0  0
   -7.4257   -1.1236    0.4188 H   0  0  0  0  0  0  0  0  0  0  0  0
   -5.2980   -2.0774   -0.3791 H   0  0  0  0  0  0  0  0  0  0  0  0
    4.9320   -2.8873    0.8675 H   0  0  0  0  0  0  0  0  0  0  0  0
    7.2327   -1.9989    1.0839 H   0  0  0  0  0  0  0  0  0  0  0  0
    8.0431    1.1876   -0.1994 H   0  0  0  0  0  0  0  0  0  0  0  0
  1  2  1  0
  2  3  1  0
  3  4  2  0
  4  5  1  0
  5  6  1  0
  6  7  2  3
  7  8  1  0
  8  9  1  0
  9 10  2  0
  9 11  1  0
 11 12  1  0
 12 13  1  0
 13 14  2  0
 13 15  2  0
 13 16  1  0
 16 17  2  0
 17 18  1  0
 18 19  2  0
 19 20  1  0
 19 21  1  0
 21 22  2  0
 11 23  1  0
 23 24  2  0
  5 25  2  0
 25 26  1  0
 26 27  2  0
 27 28  1  0
 27  3  1  0
 23  7  1  0
 22 16  1  0
  1 29  1  0
  1 30  1  0
  1 31  1  0
  4 32  1  0
  6 33  1  0
 12 34  1  0
 17 35  1  0
 18 36  1  0
 20 37  1  0
 20 38  1  0
 20 39  1  0
 21 40  1  0
 22 41  1  0
 25 42  1  0
 26 43  1  0
 28 44  1  0
M  END
$$$$
