
     RDKit          3D

 62 65  0  0  0  0  0  0  0  0999 V2000
   -5.6104   -1.9312   -0.8724 C   0  0  0  0  0  0  0  0  0  0  0  0
   -5.8947   -0.5452   -1.3834 C   0  0  0  0  0  0  0  0  0  0  0  0
   -7.1348   -0.2869   -1.9916 C   0  0  0  0  0  0  0  0  0  0  0  0
   -7.4453    0.9851   -2.4749 C   0  0  0  0  0  0  0  0  0  0  0  0
   -6.5220    2.0183   -2.3558 C   0  0  0  0  0  0  0  0  0  0  0  0
   -5.2851    1.7782   -1.7571 C   0  0  0  0  0  0  0  0  0  0  0  0
   -4.9596    0.5015   -1.2754 C   0  0  0  0  0  0  0  0  0  0  0  0
   -3.3526    0.2734   -0.5219 S   0  0  0  0  0  0  0  0  0  0  0  0
   -2.3641    0.0932   -2.0474 C   0  0  0  0  0  0  0  0  0  0  0  0
   -0.8984   -0.1703   -1.7329 C   0  0  0  0  0  0  0  0  0  0  0  0
   -0.2775   -1.0522   -2.3219 O   0  0  0  0  0  0  0  0  0  0  0  0
   -0.3701    0.6946   -0.7999 N   0  0  0  0  0  0  0  0  0  0  0  0
    0.9499    0.7691   -0.3159 C   0  0  0  0  0  0  0  0  0  0  0  0
    2.0309    0.1317   -0.9231 C   0  0  0  0  0  0  0  0  0  0  0  0
    3.3017    0.2569   -0.3572 C   0  0  0  0  0  0  0  0  0  0  0  0
    4.6947   -0.5302   -1.1283 S   0  0  0  0  0  6  0  0  0  0  0  0
    5.8629    0.2710   -0.8241 O   0  0  0  0  0  0  0  0  0  0  0  0
    4.3524   -0.8515   -2.4967 O   0  0  0  0  0  0  0  0  0  0  0  0
    4.8314   -1.9964   -0.2590 N   0  0  0  0  0  0  0  0  0  0  0  0
    3.6949   -2.9578   -0.4567 C   0  0  0  0  0  0  0  0  0  0  0  0
    3.8993   -4.1854    0.4394 C   0  0  0  0  0  0  0  0  0  0  0  0
    5.1445   -4.8393    0.1555 O   0  0  0  0  0  0  0  0  0  0  0  0
    6.2410   -3.9383    0.3676 C   0  0  0  0  0  0  0  0  0  0  0  0
    6.1283   -2.7023   -0.5309 C   0  0  0  0  0  0  0  0  0  0  0  0
    3.5073    1.0388    0.7826 C   0  0  0  0  0  0  0  0  0  0  0  0
    2.4266    1.6931    1.3772 C   0  0  0  0  0  0  0  0  0  0  0  0
    1.1371    1.5713    0.8405 C   0  0  0  0  0  0  0  0  0  0  0  0
    0.0022    2.1786    1.4313 N   0  0  0  0  0  0  0  0  0  0  0  0
   -0.5484    1.3422    2.5302 C   0  0  0  0  0  0  0  0  0  0  0  0
   -1.5876    2.1522    3.3189 C   0  0  0  0  0  0  0  0  0  0  0  0
   -1.0327    3.3104    3.9653 O   0  0  0  0  0  0  0  0  0  0  0  0
    0.1397    3.8220    3.3131 C   0  0  0  0  0  0  0  0  0  0  0  0
    0.1399    3.6119    1.7907 C   0  0  0  0  0  0  0  0  0  0  0  0
   -5.4110   -1.9088    0.2038 H   0  0  0  0  0  0  0  0  0  0  0  0
   -4.7537   -2.3652   -1.3979 H   0  0  0  0  0  0  0  0  0  0  0  0
   -6.4635   -2.6001   -1.0303 H   0  0  0  0  0  0  0  0  0  0  0  0
   -7.8738   -1.0800   -2.0912 H   0  0  0  0  0  0  0  0  0  0  0  0
   -8.4110    1.1687   -2.9400 H   0  0  0  0  0  0  0  0  0  0  0  0
   -6.7649    3.0114   -2.7259 H   0  0  0  0  0  0  0  0  0  0  0  0
   -4.5788    2.6006   -1.6671 H   0  0  0  0  0  0  0  0  0  0  0  0
   -2.7526   -0.7510   -2.6263 H   0  0  0  0  0  0  0  0  0  0  0  0
   -2.4289    1.0018   -2.6548 H   0  0  0  0  0  0  0  0  0  0  0  0
   -1.0203    1.2722   -0.2677 H   0  0  0  0  0  0  0  0  0  0  0  0
    1.9041   -0.4517   -1.8299 H   0  0  0  0  0  0  0  0  0  0  0  0
    2.7453   -2.4898   -0.1872 H   0  0  0  0  0  0  0  0  0  0  0  0
    3.6614   -3.2714   -1.5064 H   0  0  0  0  0  0  0  0  0  0  0  0
    3.0975   -4.9097    0.2658 H   0  0  0  0  0  0  0  0  0  0  0  0
    3.8762   -3.9078    1.5001 H   0  0  0  0  0  0  0  0  0  0  0  0
    7.1639   -4.4811    0.1396 H   0  0  0  0  0  0  0  0  0  0  0  0
    6.2712   -3.6565    1.4270 H   0  0  0  0  0  0  0  0  0  0  0  0
    6.9712   -2.0369   -0.3203 H   0  0  0  0  0  0  0  0  0  0  0  0
    6.1598   -3.0045   -1.5842 H   0  0  0  0  0  0  0  0  0  0  0  0
    4.5030    1.1427    1.2094 H   0  0  0  0  0  0  0  0  0  0  0  0
    2.6039    2.2834    2.2708 H   0  0  0  0  0  0  0  0  0  0  0  0
   -1.0218    0.4460    2.1142 H   0  0  0  0  0  0  0  0  0  0  0  0
    0.2513    1.0261    3.2128 H   0  0  0  0  0  0  0  0  0  0  0  0
   -2.3921    2.4940    2.6570 H   0  0  0  0  0  0  0  0  0  0  0  0
   -2.0422    1.5301    4.0963 H   0  0  0  0  0  0  0  0  0  0  0  0
    0.1996    4.8906    3.5431 H   0  0  0  0  0  0  0  0  0  0  0  0
    1.0109    3.3422    3.7727 H   0  0  0  0  0  0  0  0  0  0  0  0
    1.0262    4.0724    1.3383 H   0  0  0  0  0  0  0  0  0  0  0  0
   -0.7325    4.1259    1.3682 H   0  0  0  0  0  0  0  0  0  0  0  0
  1  2  1  0
  2  3  2  0
  3  4  1  0
  4  5  2  0
  5  6  1  0
  6  7  2  0
  7  8  1  0
  8  9  1  0
  9 10  1  0
 10 11  2  0
 10 12  1  0
 12 13  1  0
 13 14  2  0
 14 15  1  0
 15 16  1  0
 16 17  2  0
 16 18  2  0
 16 19  1  0
 19 20  1  0
 20 21  1  0
 21 22  1  0
 22 23  1  0
 23 24  1  0
 15 25  2  0
 25 26  1  0
 26 27  2  0
 27 28  1  0
 28 29  1  0
 29 30  1  0
 30 31  1  0
 31 32  1  0
 32 33  1  0
  7  2  1  0
 27 13  1  0
 33 28  1  0
 24 19  1  0
  1 34  1  0
  1 35  1  0
  1 36  1  0
  3 37  1  0
  4 38  1  0
  5 39  1  0
  6 40  1  0
  9 41  1  0
  9 42  1  0
 12 43  1  0
 14 44  1  0
 20 45  1  0
 20 46  1  0
 21 47  1  0
 21 48  1  0
 23 49  1  0
 23 50  1  0
 24 51  1  0
 24 52  1  0
 25 53  1  0
 26 54  1  0
 29 55  1  0
 29 56  1  0
 30 57  1  0
 30 58  1  0
 32 59  1  0
 32 60  1  0
 33 61  1  0
 33 62  1  0
M  END
$$$$
