
     RDKit          3D

 36 38  0  0  0  0  0  0  0  0999 V2000
    4.0374    2.7320   -0.1207 C   0  0  0  0  0  0  0  0  0  0  0  0
    3.8683    1.2468    0.0179 C   0  0  0  0  0  0  0  0  0  0  0  0
    4.9789    0.4335    0.2562 C   0  0  0  0  0  0  0  0  0  0  0  0
    4.8488   -0.9502    0.4051 C   0  0  0  0  0  0  0  0  0  0  0  0
    3.5632   -1.4968    0.3262 C   0  0  0  0  0  0  0  0  0  0  0  0
    3.1597   -2.8090    0.4165 N   0  0  0  0  0  0  0  0  0  0  0  0
    1.8002   -2.8975    0.2741 C   0  0  0  0  0  0  0  0  0  0  0  0
    1.3057   -1.6206    0.1172 C   0  0  0  0  0  0  0  0  0  0  0  0
   -0.0889   -1.3548   -0.0402 C   0  0  0  0  0  0  0  0  0  0  0  0
   -0.7268   -0.2663    0.4218 C   0  0  0  0  0  0  0  0  0  0  0  0
   -2.1634   -0.0206    0.2556 C   0  0  0  0  0  0  0  0  0  0  0  0
   -3.1150   -1.0284    0.4046 C   0  0  0  0  0  0  0  0  0  0  0  0
   -4.4655   -0.7286    0.2640 C   0  0  0  0  0  0  0  0  0  0  0  0
   -4.8659    0.5323   -0.0128 N   0  0  0  0  0  4  0  0  0  0  0  0
   -6.3024    0.8272   -0.1486 C   0  0  0  0  0  0  0  0  0  0  0  0
   -3.9635    1.5305   -0.1385 C   0  0  0  0  0  0  0  0  0  0  0  0
   -2.6032    1.2763   -0.0037 C   0  0  0  0  0  0  0  0  0  0  0  0
    2.4193   -0.7214    0.1224 C   0  0  0  0  0  0  0  0  0  0  0  0
    2.5860    0.6731   -0.0399 C   0  0  0  0  0  0  0  0  0  0  0  0
    3.2660    3.1537   -0.7735 H   0  0  0  0  0  0  0  0  0  0  0  0
    3.9692    3.2090    0.8618 H   0  0  0  0  0  0  0  0  0  0  0  0
    5.0076    2.9752   -0.5665 H   0  0  0  0  0  0  0  0  0  0  0  0
    5.9726    0.8741    0.3200 H   0  0  0  0  0  0  0  0  0  0  0  0
    5.7222   -1.5726    0.5733 H   0  0  0  0  0  0  0  0  0  0  0  0
    3.7859   -3.5903    0.5573 H   0  0  0  0  0  0  0  0  0  0  0  0
    1.3108   -3.8615    0.3141 H   0  0  0  0  0  0  0  0  0  0  0  0
   -0.6526   -2.1262   -0.5607 H   0  0  0  0  0  0  0  0  0  0  0  0
   -0.1724    0.4995    0.9603 H   0  0  0  0  0  0  0  0  0  0  0  0
   -2.8175   -2.0477    0.6436 H   0  0  0  0  0  0  0  0  0  0  0  0
   -5.2326   -1.4894    0.3777 H   0  0  0  0  0  0  0  0  0  0  0  0
   -6.4330    1.6586   -0.8462 H   0  0  0  0  0  0  0  0  0  0  0  0
   -6.8141   -0.0561   -0.5395 H   0  0  0  0  0  0  0  0  0  0  0  0
   -6.6781    1.0882    0.8438 H   0  0  0  0  0  0  0  0  0  0  0  0
   -4.3391    2.5291   -0.3438 H   0  0  0  0  0  0  0  0  0  0  0  0
   -1.8919    2.0937   -0.1105 H   0  0  0  0  0  0  0  0  0  0  0  0
    1.7238    1.3050   -0.2246 H   0  0  0  0  0  0  0  0  0  0  0  0
  1  2  1  0
  2  3  2  0
  3  4  1  0
  4  5  2  0
  5  6  1  0
  6  7  1  0
  7  8  2  0
  8  9  1  0
  9 10  2  3
 10 11  1  0
 11 12  2  0
 12 13  1  0
 13 14  2  0
 14 15  1  0
 14 16  1  0
 16 17  2  0
  8 18  1  0
 18 19  2  0
 19  2  1  0
 18  5  1  0
 17 11  1  0
  1 20  1  0
  1 21  1  0
  1 22  1  0
  3 23  1  0
  4 24  1  0
  6 25  1  0
  7 26  1  0
  9 27  1  0
 10 28  1  0
 12 29  1  0
 13 30  1  0
 15 31  1  0
 15 32  1  0
 15 33  1  0
 16 34  1  0
 17 35  1  0
 19 36  1  0
M  CHG  1  14   1
M  END
$$$$
