
     RDKit          3D

 68 70  0  0  0  0  0  0  0  0999 V2000
   -4.6194    2.9933    5.4213 C   0  0  0  0  0  0  0  0  0  0  0  0
   -4.5162    1.6229    5.0507 O   0  0  0  0  0  0  0  0  0  0  0  0
   -3.9810    1.3634    3.8188 C   0  0  0  0  0  0  0  0  0  0  0  0
   -3.2455    2.2597    3.0458 C   0  0  0  0  0  0  0  0  0  0  0  0
   -2.7389    1.8632    1.8024 C   0  0  0  0  0  0  0  0  0  0  0  0
   -2.9634    0.5668    1.3040 C   0  0  0  0  0  0  0  0  0  0  0  0
   -2.3529    0.1753   -0.0442 C   0  0  0  0  0  0  0  0  0  0  0  0
   -3.1423   -0.8752   -0.8791 C   0  0  0  0  0  0  0  0  0  0  0  0
   -4.3565   -1.0434   -0.7738 O   0  0  0  0  0  0  0  0  0  0  0  0
   -2.3923   -1.4799   -1.8747 N   0  0  0  0  0  0  0  0  0  0  0  0
   -2.9106   -2.4420   -2.8567 C   0  0  0  0  0  0  0  0  0  0  0  0
   -4.0735   -1.8394   -3.6696 C   0  0  0  0  0  0  0  0  0  0  0  0
   -3.3712   -3.7344   -2.1644 C   0  0  0  0  0  0  0  0  0  0  0  0
   -1.7767   -2.7762   -3.8421 C   0  0  0  0  0  0  0  0  0  0  0  0
   -0.8967   -0.1173    0.0893 N   0  0  0  0  0  0  0  0  0  0  0  0
   -0.5130   -1.1727    1.0390 C   0  0  0  0  0  0  0  0  0  0  0  0
    0.3492   -2.2144    0.4181 C   0  0  0  0  0  0  0  0  0  0  0  0
    1.6520   -2.6242    0.6371 C   0  0  0  0  0  0  0  0  0  0  0  0
    1.8785   -3.7175   -0.2373 C   0  0  0  0  0  0  0  0  0  0  0  0
    0.6974   -3.9195   -0.9136 C   0  0  0  0  0  0  0  0  0  0  0  0
   -0.2291   -3.0009   -0.5364 O   0  0  0  0  0  0  0  0  0  0  0  0
   -0.0164    0.8480   -0.3967 C   0  0  0  0  0  0  0  0  0  0  0  0
   -0.4023    1.8003   -1.0790 O   0  0  0  0  0  0  0  0  0  0  0  0
    1.4620    0.6968   -0.0866 C   0  0  0  0  0  0  0  0  0  0  0  0
    2.2441    1.9458   -0.4802 C   0  0  0  0  0  0  0  0  0  0  0  0
    3.7254    1.7958   -0.1965 C   0  0  0  0  0  0  0  0  0  0  0  0
    4.1870    0.8276    0.3998 O   0  0  0  0  0  0  0  0  0  0  0  0
    4.4429    2.8649   -0.6816 N   0  0  0  0  0  0  0  0  0  0  0  0
    5.8123    3.0014   -0.6245 C   0  0  0  0  0  0  0  0  0  0  0  0
    6.7817    2.1453   -0.0582 C   0  0  0  0  0  0  0  0  0  0  0  0
    7.9800    2.7584   -0.3260 C   0  0  0  0  0  0  0  0  0  0  0  0
    9.3902    2.4219   -0.0553 C   0  0  0  0  0  0  0  0  0  0  0  0
    7.7467    3.9157   -0.9987 O   0  0  0  0  0  0  0  0  0  0  0  0
    6.3856    4.0709   -1.1855 N   0  0  0  0  0  0  0  0  0  0  0  0
   -3.6936   -0.3273    2.0992 C   0  0  0  0  0  0  0  0  0  0  0  0
   -4.1931    0.0685    3.3433 C   0  0  0  0  0  0  0  0  0  0  0  0
   -5.1699    3.5665    4.6679 H   0  0  0  0  0  0  0  0  0  0  0  0
   -3.6307    3.4266    5.6043 H   0  0  0  0  0  0  0  0  0  0  0  0
   -5.1841    3.0472    6.3567 H   0  0  0  0  0  0  0  0  0  0  0  0
   -3.0385    3.2702    3.3844 H   0  0  0  0  0  0  0  0  0  0  0  0
   -2.1618    2.5791    1.2174 H   0  0  0  0  0  0  0  0  0  0  0  0
   -2.4749    1.0675   -0.6755 H   0  0  0  0  0  0  0  0  0  0  0  0
   -1.3872   -1.4792   -1.7092 H   0  0  0  0  0  0  0  0  0  0  0  0
   -4.9743   -1.7075   -3.0632 H   0  0  0  0  0  0  0  0  0  0  0  0
   -3.8095   -0.8575   -4.0734 H   0  0  0  0  0  0  0  0  0  0  0  0
   -4.3465   -2.4859   -4.5101 H   0  0  0  0  0  0  0  0  0  0  0  0
   -3.7132   -4.4740   -2.8958 H   0  0  0  0  0  0  0  0  0  0  0  0
   -2.5590   -4.1861   -1.5831 H   0  0  0  0  0  0  0  0  0  0  0  0
   -4.2012   -3.5501   -1.4723 H   0  0  0  0  0  0  0  0  0  0  0  0
   -0.9217   -3.2243   -3.3260 H   0  0  0  0  0  0  0  0  0  0  0  0
   -1.4154   -1.8726   -4.3454 H   0  0  0  0  0  0  0  0  0  0  0  0
   -2.1097   -3.4776   -4.6132 H   0  0  0  0  0  0  0  0  0  0  0  0
   -0.0183   -0.7084    1.8991 H   0  0  0  0  0  0  0  0  0  0  0  0
   -1.4090   -1.6825    1.4097 H   0  0  0  0  0  0  0  0  0  0  0  0
    2.3533   -2.1901    1.3413 H   0  0  0  0  0  0  0  0  0  0  0  0
    2.7830   -4.3015   -0.3464 H   0  0  0  0  0  0  0  0  0  0  0  0
    0.3700   -4.6375   -1.6567 H   0  0  0  0  0  0  0  0  0  0  0  0
    1.8463   -0.1515   -0.6601 H   0  0  0  0  0  0  0  0  0  0  0  0
    1.6024    0.5086    0.9812 H   0  0  0  0  0  0  0  0  0  0  0  0
    2.1159    2.1480   -1.5507 H   0  0  0  0  0  0  0  0  0  0  0  0
    1.8725    2.8143    0.0765 H   0  0  0  0  0  0  0  0  0  0  0  0
    3.9778    3.6233   -1.1626 H   0  0  0  0  0  0  0  0  0  0  0  0
    6.6346    1.2004    0.4473 H   0  0  0  0  0  0  0  0  0  0  0  0
    9.5420    1.3380   -0.0904 H   0  0  0  0  0  0  0  0  0  0  0  0
    9.6851    2.7784    0.9372 H   0  0  0  0  0  0  0  0  0  0  0  0
   10.0535    2.8746   -0.7987 H   0  0  0  0  0  0  0  0  0  0  0  0
   -3.8961   -1.3416    1.7618 H   0  0  0  0  0  0  0  0  0  0  0  0
   -4.7659   -0.6368    3.9397 H   0  0  0  0  0  0  0  0  0  0  0  0
  1  2  1  0
  2  3  1  0
  3  4  2  0
  4  5  1  0
  5  6  2  0
  6  7  1  0
  7  8  1  0
  8  9  2  0
  8 10  1  0
 10 11  1  0
 11 12  1  0
 11 13  1  0
 11 14  1  0
  7 15  1  0
 15 16  1  0
 16 17  1  0
 17 18  2  0
 18 19  1  0
 19 20  2  0
 20 21  1  0
 15 22  1  0
 22 23  2  0
 22 24  1  0
 24 25  1  0
 25 26  1  0
 26 27  2  0
 26 28  1  0
 28 29  1  0
 29 30  1  0
 30 31  2  0
 31 32  1  0
 31 33  1  0
 33 34  1  0
  6 35  1  0
 35 36  2  0
 36  3  1  0
 21 17  1  0
 34 29  2  0
  1 37  1  0
  1 38  1  0
  1 39  1  0
  4 40  1  0
  5 41  1  0
  7 42  1  0
 10 43  1  0
 12 44  1  0
 12 45  1  0
 12 46  1  0
 13 47  1  0
 13 48  1  0
 13 49  1  0
 14 50  1  0
 14 51  1  0
 14 52  1  0
 16 53  1  0
 16 54  1  0
 18 55  1  0
 19 56  1  0
 20 57  1  0
 24 58  1  0
 24 59  1  0
 25 60  1  0
 25 61  1  0
 28 62  1  0
 30 63  1  0
 32 64  1  0
 32 65  1  0
 32 66  1  0
 35 67  1  0
 36 68  1  0
M  END
$$$$
