
     RDKit          3D

 38 40  0  0  0  0  0  0  0  0999 V2000
   -0.1644   -0.1836   -3.4246 C   0  0  0  0  0  0  0  0  0  0  0  0
   -0.6408   -0.7702   -2.1249 C   0  0  0  0  0  0  0  0  0  0  0  0
   -1.9420   -0.4825   -1.6855 C   0  0  0  0  0  0  0  0  0  0  0  0
   -2.4109   -0.9890   -0.4740 C   0  0  0  0  0  0  0  0  0  0  0  0
   -3.6812   -0.6255   -0.1184 O   0  0  0  0  0  0  0  0  0  0  0  0
   -1.6045   -1.8139    0.3165 C   0  0  0  0  0  0  0  0  0  0  0  0
   -2.1361   -2.4649    1.8916 S   0  0  0  0  0  0  0  0  0  0  0  0
   -2.3000   -0.9773    2.7846 C   0  0  0  0  0  0  0  0  0  0  0  0
   -1.2440   -0.2482    3.2582 N   0  0  0  0  0  0  0  0  0  0  0  0
   -1.8255    0.8111    3.7683 C   0  0  0  0  0  0  0  0  0  0  0  0
   -3.1721    0.7198    3.5937 N   0  0  0  0  0  0  0  0  0  0  0  0
   -3.5016   -0.4097    2.9429 N   0  0  0  0  0  0  0  0  0  0  0  0
   -0.3188   -2.1315   -0.1347 C   0  0  0  0  0  0  0  0  0  0  0  0
    0.1755   -1.5923   -1.3281 C   0  0  0  0  0  0  0  0  0  0  0  0
    1.5232   -1.8531   -1.7191 N   0  0  0  0  0  0  0  0  0  0  0  0
    2.8013   -1.4247   -0.7008 S   0  0  0  0  0  6  0  0  0  0  0  0
    3.9889   -1.4271   -1.5309 O   0  0  0  0  0  0  0  0  0  0  0  0
    2.7382   -2.2092    0.5134 O   0  0  0  0  0  0  0  0  0  0  0  0
    2.4459    0.2701   -0.2812 C   0  0  0  0  0  0  0  0  0  0  0  0
    1.7554    0.5618    0.9026 C   0  0  0  0  0  0  0  0  0  0  0  0
    1.4804    1.8911    1.2297 C   0  0  0  0  0  0  0  0  0  0  0  0
    1.9113    2.9162    0.3859 C   0  0  0  0  0  0  0  0  0  0  0  0
    1.5675    4.5532    0.7918 Cl  0  0  0  0  0  0  0  0  0  0  0  0
    2.6229    2.6262   -0.7817 C   0  0  0  0  0  0  0  0  0  0  0  0
    2.8980    1.2980   -1.1173 C   0  0  0  0  0  0  0  0  0  0  0  0
   -0.9250    0.4597   -3.8795 H   0  0  0  0  0  0  0  0  0  0  0  0
    0.7281    0.4278   -3.2622 H   0  0  0  0  0  0  0  0  0  0  0  0
    0.0647   -0.9797   -4.1406 H   0  0  0  0  0  0  0  0  0  0  0  0
   -2.5988    0.1533   -2.2754 H   0  0  0  0  0  0  0  0  0  0  0  0
   -3.8555   -0.9436    0.7923 H   0  0  0  0  0  0  0  0  0  0  0  0
   -1.3433    1.6442    4.2605 H   0  0  0  0  0  0  0  0  0  0  0  0
   -3.9014    1.3665    3.8757 H   0  0  0  0  0  0  0  0  0  0  0  0
    0.3079   -2.7915    0.4623 H   0  0  0  0  0  0  0  0  0  0  0  0
    1.7723   -1.7698   -2.7027 H   0  0  0  0  0  0  0  0  0  0  0  0
    1.4207   -0.2318    1.5705 H   0  0  0  0  0  0  0  0  0  0  0  0
    0.9328    2.1152    2.1428 H   0  0  0  0  0  0  0  0  0  0  0  0
    2.9689    3.4294   -1.4292 H   0  0  0  0  0  0  0  0  0  0  0  0
    3.4623    1.0757   -2.0219 H   0  0  0  0  0  0  0  0  0  0  0  0
  1  2  1  0
  2  3  2  0
  3  4  1  0
  4  5  1  0
  4  6  2  0
  6  7  1  0
  7  8  1  0
  8  9  1  0
  9 10  2  0
 10 11  1  0
 11 12  1  0
  6 13  1  0
 13 14  2  0
 14 15  1  0
 15 16  1  0
 16 17  2  0
 16 18  2  0
 16 19  1  0
 19 20  2  0
 20 21  1  0
 21 22  2  0
 22 23  1  0
 22 24  1  0
 24 25  2  0
 14  2  1  0
 25 19  1  0
 12  8  2  0
  1 26  1  0
  1 27  1  0
  1 28  1  0
  3 29  1  0
  5 30  1  0
 10 31  1  0
 11 32  1  0
 13 33  1  0
 15 34  1  0
 20 35  1  0
 21 36  1  0
 24 37  1  0
 25 38  1  0
M  END
$$$$
