
     RDKit          3D

 43 46  0  0  0  0  0  0  0  0999 V2000
    6.4101    2.0438    0.8464 C   0  0  0  0  0  0  0  0  0  0  0  0
    5.0405    1.5222    0.5210 C   0  0  0  0  0  0  0  0  0  0  0  0
    4.1734    2.2624   -0.2876 C   0  0  0  0  0  0  0  0  0  0  0  0
    2.8861    1.7927   -0.5653 C   0  0  0  0  0  0  0  0  0  0  0  0
    2.4484    0.5762   -0.0289 C   0  0  0  0  0  0  0  0  0  0  0  0
    1.0004    0.0569   -0.3464 C   0  0  0  0  0  0  0  0  0  0  0  0
    0.0286    0.7231   -1.0846 C   0  0  0  0  0  0  0  0  0  0  0  0
   -1.1358   -0.0477   -1.1065 N   0  0  0  0  0  4  0  0  0  0  0  0
   -2.3926    0.2861   -1.7713 C   0  0  0  0  0  0  0  0  0  0  0  0
   -3.4988    0.3632   -0.7482 C   0  0  0  0  0  0  0  0  0  0  0  0
   -4.6790   -0.3745   -0.9173 C   0  0  0  0  0  0  0  0  0  0  0  0
   -5.7041   -0.3011    0.0315 C   0  0  0  0  0  0  0  0  0  0  0  0
   -5.5691    0.5128    1.1597 C   0  0  0  0  0  0  0  0  0  0  0  0
   -6.8687    0.5409    2.2938 Cl  0  0  0  0  0  0  0  0  0  0  0  0
   -4.4037    1.2631    1.3333 C   0  0  0  0  0  0  0  0  0  0  0  0
   -4.1510    2.2884    2.6988 Cl  0  0  0  0  0  0  0  0  0  0  0  0
   -3.3795    1.1921    0.3804 C   0  0  0  0  0  0  0  0  0  0  0  0
   -0.8811   -1.1632   -0.4296 C   0  0  0  0  0  0  0  0  0  0  0  0
    0.3724   -1.1227    0.0114 N   0  0  0  0  0  0  0  0  0  0  0  0
    0.7280   -2.3270    0.7491 C   0  0  0  0  0  0  0  0  0  0  0  0
   -0.4365   -3.3047    0.4289 C   0  0  0  0  0  0  0  0  0  0  0  0
   -1.5929   -2.4067   -0.0534 C   0  0  0  0  0  0  0  0  0  0  0  0
    3.3041   -0.1556    0.7948 C   0  0  0  0  0  0  0  0  0  0  0  0
    4.5910    0.3180    1.0707 C   0  0  0  0  0  0  0  0  0  0  0  0
    6.8057    2.6439    0.0203 H   0  0  0  0  0  0  0  0  0  0  0  0
    7.1117    1.2200    1.0142 H   0  0  0  0  0  0  0  0  0  0  0  0
    6.3696    2.6639    1.7472 H   0  0  0  0  0  0  0  0  0  0  0  0
    4.4993    3.2129   -0.7079 H   0  0  0  0  0  0  0  0  0  0  0  0
    2.2568    2.4032   -1.2056 H   0  0  0  0  0  0  0  0  0  0  0  0
    0.0121    1.6733   -1.5913 H   0  0  0  0  0  0  0  0  0  0  0  0
   -2.2993    1.2456   -2.2911 H   0  0  0  0  0  0  0  0  0  0  0  0
   -2.5880   -0.4905   -2.5192 H   0  0  0  0  0  0  0  0  0  0  0  0
   -4.8236   -1.0123   -1.7890 H   0  0  0  0  0  0  0  0  0  0  0  0
   -6.6147   -0.8804   -0.1158 H   0  0  0  0  0  0  0  0  0  0  0  0
   -2.4811    1.7898    0.5265 H   0  0  0  0  0  0  0  0  0  0  0  0
    0.7626   -2.0895    1.8162 H   0  0  0  0  0  0  0  0  0  0  0  0
    1.6832   -2.7304    0.4059 H   0  0  0  0  0  0  0  0  0  0  0  0
   -0.7102   -3.9319    1.2815 H   0  0  0  0  0  0  0  0  0  0  0  0
   -0.1304   -3.9655   -0.3908 H   0  0  0  0  0  0  0  0  0  0  0  0
   -2.1135   -2.7988   -0.9277 H   0  0  0  0  0  0  0  0  0  0  0  0
   -2.2804   -2.1446    0.7534 H   0  0  0  0  0  0  0  0  0  0  0  0
    3.0053   -1.0881    1.2550 H   0  0  0  0  0  0  0  0  0  0  0  0
    5.2448   -0.2592    1.7232 H   0  0  0  0  0  0  0  0  0  0  0  0
  1  2  1  0
  2  3  2  0
  3  4  1  0
  4  5  2  0
  5  6  1  0
  6  7  2  0
  7  8  1  0
  8  9  1  0
  9 10  1  0
 10 11  2  0
 11 12  1  0
 12 13  2  0
 13 14  1  0
 13 15  1  0
 15 16  1  0
 15 17  2  0
  8 18  2  0
 18 19  1  0
 19 20  1  0
 20 21  1  0
 21 22  1  0
  5 23  1  0
 23 24  2  0
 24  2  1  0
 19  6  1  0
 17 10  1  0
 22 18  1  0
  1 25  1  0
  1 26  1  0
  1 27  1  0
  3 28  1  0
  4 29  1  0
  7 30  1  0
  9 31  1  0
  9 32  1  0
 11 33  1  0
 12 34  1  0
 17 35  1  0
 20 36  1  0
 20 37  1  0
 21 38  1  0
 21 39  1  0
 22 40  1  0
 22 41  1  0
 23 42  1  0
 24 43  1  0
M  CHG  1   8   1
M  END
$$$$
