
     RDKit          3D

 44 46  0  0  0  0  0  0  0  0999 V2000
   -4.2625    3.0483   -0.4979 C   0  0  0  0  0  0  0  0  0  0  0  0
   -4.8003    1.7261   -1.0508 C   0  0  0  0  0  0  0  0  0  0  0  0
   -5.3792    1.9164   -2.4549 C   0  0  0  0  0  0  0  0  0  0  0  0
   -3.7393    0.6385   -1.0270 C   0  0  0  0  0  0  0  0  0  0  0  0
   -2.5510    0.7549   -1.7673 C   0  0  0  0  0  0  0  0  0  0  0  0
   -1.5876   -0.2550   -1.7347 C   0  0  0  0  0  0  0  0  0  0  0  0
   -1.8055   -1.3875   -0.9484 C   0  0  0  0  0  0  0  0  0  0  0  0
   -0.5909   -2.6787   -0.9040 S   0  0  0  0  0  6  0  0  0  0  0  0
   -1.3000   -3.9371   -0.7953 O   0  0  0  0  0  0  0  0  0  0  0  0
    0.3737   -2.4584   -1.9595 O   0  0  0  0  0  0  0  0  0  0  0  0
    0.1551   -2.4372    0.5969 N   0  0  0  0  0  0  0  0  0  0  0  0
    1.1441   -1.4199    0.6907 C   0  0  0  0  0  0  0  0  0  0  0  0
    0.7615   -0.1175    1.0035 C   0  0  0  0  0  0  0  0  0  0  0  0
    1.7223    0.8902    1.0570 C   0  0  0  0  0  0  0  0  0  0  0  0
    3.0592    0.5912    0.7982 C   0  0  0  0  0  0  0  0  0  0  0  0
    3.9320    1.6418    0.8820 O   0  0  0  0  0  0  0  0  0  0  0  0
    3.4562   -0.7135    0.4687 C   0  0  0  0  0  0  0  0  0  0  0  0
    5.1310   -1.1566    0.0324 S   0  0  0  0  0  0  0  0  0  0  0  0
    5.9789   -0.8623    1.5223 C   0  0  0  0  0  0  0  0  0  0  0  0
    6.4570   -1.8525    2.3320 N   0  0  0  0  0  0  0  0  0  0  0  0
    7.0223   -1.1862    3.3107 C   0  0  0  0  0  0  0  0  0  0  0  0
    6.8873    0.1479    3.0899 N   0  0  0  0  0  0  0  0  0  0  0  0
    6.2199    0.3854    1.9463 N   0  0  0  0  0  0  0  0  0  0  0  0
    2.4792   -1.7177    0.4108 C   0  0  0  0  0  0  0  0  0  0  0  0
   -2.9857   -1.5302   -0.2164 C   0  0  0  0  0  0  0  0  0  0  0  0
   -3.9453   -0.5168   -0.2548 C   0  0  0  0  0  0  0  0  0  0  0  0
   -3.8580    2.9148    0.5116 H   0  0  0  0  0  0  0  0  0  0  0  0
   -5.0616    3.7955   -0.4427 H   0  0  0  0  0  0  0  0  0  0  0  0
   -3.4649    3.4610   -1.1251 H   0  0  0  0  0  0  0  0  0  0  0  0
   -5.6294    1.4189   -0.3994 H   0  0  0  0  0  0  0  0  0  0  0  0
   -4.6269    2.2815   -3.1626 H   0  0  0  0  0  0  0  0  0  0  0  0
   -5.7753    0.9727   -2.8461 H   0  0  0  0  0  0  0  0  0  0  0  0
   -6.1991    2.6426   -2.4378 H   0  0  0  0  0  0  0  0  0  0  0  0
   -2.3662    1.6347   -2.3805 H   0  0  0  0  0  0  0  0  0  0  0  0
   -0.6747   -0.1473   -2.3169 H   0  0  0  0  0  0  0  0  0  0  0  0
    0.3588   -3.3337    1.0379 H   0  0  0  0  0  0  0  0  0  0  0  0
   -0.2770    0.1220    1.2151 H   0  0  0  0  0  0  0  0  0  0  0  0
    1.4331    1.9086    1.3023 H   0  0  0  0  0  0  0  0  0  0  0  0
    4.8381    1.2783    0.9821 H   0  0  0  0  0  0  0  0  0  0  0  0
    7.5267   -1.6006    4.1722 H   0  0  0  0  0  0  0  0  0  0  0  0
    7.2122    0.9271    3.6525 H   0  0  0  0  0  0  0  0  0  0  0  0
    2.7565   -2.7302    0.1268 H   0  0  0  0  0  0  0  0  0  0  0  0
   -3.1638   -2.4212    0.3813 H   0  0  0  0  0  0  0  0  0  0  0  0
   -4.8609   -0.6378    0.3210 H   0  0  0  0  0  0  0  0  0  0  0  0
  1  2  1  0
  2  3  1  0
  2  4  1  0
  4  5  2  0
  5  6  1  0
  6  7  2  0
  7  8  1  0
  8  9  2  0
  8 10  2  0
  8 11  1  0
 11 12  1  0
 12 13  2  0
 13 14  1  0
 14 15  2  0
 15 16  1  0
 15 17  1  0
 17 18  1  0
 18 19  1  0
 19 20  1  0
 20 21  2  0
 21 22  1  0
 22 23  1  0
 17 24  2  0
  7 25  1  0
 25 26  2  0
 26  4  1  0
 24 12  1  0
 23 19  2  0
  1 27  1  0
  1 28  1  0
  1 29  1  0
  2 30  1  0
  3 31  1  0
  3 32  1  0
  3 33  1  0
  5 34  1  0
  6 35  1  0
 11 36  1  0
 13 37  1  0
 14 38  1  0
 16 39  1  0
 21 40  1  0
 22 41  1  0
 24 42  1  0
 25 43  1  0
 26 44  1  0
M  END
$$$$
