
     RDKit          3D

 40 41  0  0  0  0  0  0  0  0999 V2000
    4.0676   -0.8928   -5.9576 C   0  0  0  0  0  0  0  0  0  0  0  0
    5.0340   -0.2844   -4.9508 C   0  0  0  0  0  0  0  0  0  0  0  0
    4.3397    0.6526   -3.9642 C   0  0  0  0  0  0  0  0  0  0  0  0
    3.5098   -0.0685   -2.9091 C   0  0  0  0  0  0  0  0  0  0  0  0
    3.5212   -1.2869   -2.7859 O   0  0  0  0  0  0  0  0  0  0  0  0
    2.7925    0.8305   -2.1335 N   0  0  0  0  0  0  0  0  0  0  0  0
    1.9225    0.5392   -1.0631 C   0  0  0  0  0  0  0  0  0  0  0  0
    1.3071    1.6255   -0.4264 C   0  0  0  0  0  0  0  0  0  0  0  0
    0.4258    1.4278    0.6440 C   0  0  0  0  0  0  0  0  0  0  0  0
    0.1438    0.1318    1.0878 C   0  0  0  0  0  0  0  0  0  0  0  0
   -0.7837   -0.1392    2.2207 C   0  0  0  0  0  0  0  0  0  0  0  0
   -0.7381   -1.1990    2.8414 O   0  0  0  0  0  0  0  0  0  0  0  0
   -1.7122    0.8440    2.5113 N   0  0  0  0  0  0  0  0  0  0  0  0
   -2.7420    0.4881    3.4088 N   0  0  0  0  0  0  0  0  0  0  0  0
   -4.0258    0.9278    3.1127 C   0  0  0  0  0  0  0  0  0  0  0  0
   -4.1954    1.7665    2.2236 O   0  0  0  0  0  0  0  0  0  0  0  0
   -5.0882    0.3208    3.9033 C   0  0  0  0  0  0  0  0  0  0  0  0
   -5.0199   -0.5142    5.0067 C   0  0  0  0  0  0  0  0  0  0  0  0
   -6.3078   -0.8938    5.4899 C   0  0  0  0  0  0  0  0  0  0  0  0
   -7.3216   -0.3352    4.7470 C   0  0  0  0  0  0  0  0  0  0  0  0
   -6.7231    0.6417    3.4806 S   0  0  0  0  0  0  0  0  0  0  0  0
    0.7678   -0.9535    0.4643 C   0  0  0  0  0  0  0  0  0  0  0  0
    1.6475   -0.7503   -0.6066 C   0  0  0  0  0  0  0  0  0  0  0  0
    3.5572   -0.1122   -6.5309 H   0  0  0  0  0  0  0  0  0  0  0  0
    3.3085   -1.5084   -5.4663 H   0  0  0  0  0  0  0  0  0  0  0  0
    4.6110   -1.5289   -6.6635 H   0  0  0  0  0  0  0  0  0  0  0  0
    5.7921    0.2850   -5.5015 H   0  0  0  0  0  0  0  0  0  0  0  0
    5.5598   -1.0852   -4.4185 H   0  0  0  0  0  0  0  0  0  0  0  0
    5.1052    1.2292   -3.4305 H   0  0  0  0  0  0  0  0  0  0  0  0
    3.7004    1.3609   -4.5041 H   0  0  0  0  0  0  0  0  0  0  0  0
    2.9048    1.8105   -2.3606 H   0  0  0  0  0  0  0  0  0  0  0  0
    1.5085    2.6445   -0.7487 H   0  0  0  0  0  0  0  0  0  0  0  0
   -0.0071    2.2994    1.1270 H   0  0  0  0  0  0  0  0  0  0  0  0
   -1.9816    1.5372    1.8128 H   0  0  0  0  0  0  0  0  0  0  0  0
   -2.5900   -0.3917    3.8986 H   0  0  0  0  0  0  0  0  0  0  0  0
   -4.0962   -0.8436    5.4666 H   0  0  0  0  0  0  0  0  0  0  0  0
   -6.4801   -1.5414    6.3413 H   0  0  0  0  0  0  0  0  0  0  0  0
   -8.3879   -0.4497    4.8875 H   0  0  0  0  0  0  0  0  0  0  0  0
    0.5727   -1.9694    0.8041 H   0  0  0  0  0  0  0  0  0  0  0  0
    2.1015   -1.6273   -1.0584 H   0  0  0  0  0  0  0  0  0  0  0  0
  1  2  1  0
  2  3  1  0
  3  4  1  0
  4  5  2  0
  4  6  1  0
  6  7  1  0
  7  8  2  0
  8  9  1  0
  9 10  2  0
 10 11  1  0
 11 12  2  0
 11 13  1  0
 13 14  1  0
 14 15  1  0
 15 16  2  0
 15 17  1  0
 17 18  2  0
 18 19  1  0
 19 20  2  0
 20 21  1  0
 10 22  1  0
 22 23  2  0
 23  7  1  0
 21 17  1  0
  1 24  1  0
  1 25  1  0
  1 26  1  0
  2 27  1  0
  2 28  1  0
  3 29  1  0
  3 30  1  0
  6 31  1  0
  8 32  1  0
  9 33  1  0
 13 34  1  0
 14 35  1  0
 18 36  1  0
 19 37  1  0
 20 38  1  0
 22 39  1  0
 23 40  1  0
M  END
$$$$
