
     RDKit          3D

 50 53  0  0  0  0  0  0  0  0999 V2000
   -0.5693    2.4385    1.2226 C   0  0  0  0  0  0  0  0  0  0  0  0
   -1.7063    1.6515    1.6556 N   0  0  0  0  0  0  0  0  0  0  0  0
   -1.9648    1.3464    2.9691 C   0  0  0  0  0  0  0  0  0  0  0  0
   -3.1221    0.6041    3.0163 C   0  0  0  0  0  0  0  0  0  0  0  0
   -3.5740    0.4468    1.6884 C   0  0  0  0  0  0  0  0  0  0  0  0
   -2.6746    1.0855    0.8491 C   0  0  0  0  0  0  0  0  0  0  0  0
   -2.6860    1.1922   -0.6497 C   0  0  0  0  0  0  0  0  0  0  0  0
   -1.5209    0.5039   -1.2911 C   0  0  0  0  0  0  0  0  0  0  0  0
   -0.5012    1.1401   -1.8453 N   0  0  0  0  0  0  0  0  0  0  0  0
    0.4632    0.2295   -2.1318 N   0  0  0  0  0  0  0  0  0  0  0  0
    0.0409   -0.9522   -1.7410 C   0  0  0  0  0  0  0  0  0  0  0  0
    0.9353   -2.4219   -1.9770 S   0  0  0  0  0  0  0  0  0  0  0  0
    2.5456   -1.7812   -2.5285 C   0  0  0  0  0  0  0  0  0  0  0  0
    3.3299   -1.1961   -1.3627 C   0  0  0  0  0  0  0  0  0  0  0  0
    4.0833   -1.9018   -0.6980 O   0  0  0  0  0  0  0  0  0  0  0  0
    3.0841    0.1522   -1.1614 N   0  0  0  0  0  0  0  0  0  0  0  0
    3.6837    1.0068   -0.2173 C   0  0  0  0  0  0  0  0  0  0  0  0
    4.7792    0.6506    0.5717 C   0  0  0  0  0  0  0  0  0  0  0  0
    5.3315    1.5689    1.4732 C   0  0  0  0  0  0  0  0  0  0  0  0
    4.7932    2.8490    1.5881 C   0  0  0  0  0  0  0  0  0  0  0  0
    3.6998    3.2133    0.8029 C   0  0  0  0  0  0  0  0  0  0  0  0
    3.1509    2.2972   -0.0967 C   0  0  0  0  0  0  0  0  0  0  0  0
   -1.2462   -0.8591   -1.2367 N   0  0  0  0  0  0  0  0  0  0  0  0
   -2.0943   -1.8974   -0.7706 C   0  0  0  0  0  0  0  0  0  0  0  0
   -1.5962   -2.8805    0.0987 C   0  0  0  0  0  0  0  0  0  0  0  0
   -2.4359   -3.9052    0.5397 C   0  0  0  0  0  0  0  0  0  0  0  0
   -3.7613   -3.9415    0.1162 C   0  0  0  0  0  0  0  0  0  0  0  0
   -4.5631   -4.9268    0.5401 F   0  0  0  0  0  0  0  0  0  0  0  0
   -4.2640   -2.9725   -0.7425 C   0  0  0  0  0  0  0  0  0  0  0  0
   -3.4317   -1.9446   -1.1895 C   0  0  0  0  0  0  0  0  0  0  0  0
   -0.1345    2.9522    2.0813 H   0  0  0  0  0  0  0  0  0  0  0  0
    0.1684    1.7603    0.7893 H   0  0  0  0  0  0  0  0  0  0  0  0
   -0.9067    3.1780    0.4924 H   0  0  0  0  0  0  0  0  0  0  0  0
   -1.3077    1.6807    3.7638 H   0  0  0  0  0  0  0  0  0  0  0  0
   -3.5864    0.2173    3.9139 H   0  0  0  0  0  0  0  0  0  0  0  0
   -4.4610   -0.0895    1.3759 H   0  0  0  0  0  0  0  0  0  0  0  0
   -2.6667    2.2555   -0.9230 H   0  0  0  0  0  0  0  0  0  0  0  0
   -3.6311    0.8151   -1.0528 H   0  0  0  0  0  0  0  0  0  0  0  0
    2.4357   -1.0492   -3.3339 H   0  0  0  0  0  0  0  0  0  0  0  0
    3.1273   -2.6160   -2.9378 H   0  0  0  0  0  0  0  0  0  0  0  0
    2.2966    0.5455   -1.6732 H   0  0  0  0  0  0  0  0  0  0  0  0
    5.2381   -0.3302    0.5013 H   0  0  0  0  0  0  0  0  0  0  0  0
    6.1891    1.2810    2.0762 H   0  0  0  0  0  0  0  0  0  0  0  0
    5.2294    3.5594    2.2842 H   0  0  0  0  0  0  0  0  0  0  0  0
    3.2789    4.2117    0.8869 H   0  0  0  0  0  0  0  0  0  0  0  0
    2.3005    2.6038   -0.7035 H   0  0  0  0  0  0  0  0  0  0  0  0
   -0.5753   -2.8488    0.4830 H   0  0  0  0  0  0  0  0  0  0  0  0
   -2.0671   -4.6672    1.2186 H   0  0  0  0  0  0  0  0  0  0  0  0
   -5.2995   -3.0309   -1.0663 H   0  0  0  0  0  0  0  0  0  0  0  0
   -3.8368   -1.2247   -1.8961 H   0  0  0  0  0  0  0  0  0  0  0  0
  1  2  1  0
  2  3  1  0
  3  4  2  0
  4  5  1  0
  5  6  2  0
  6  7  1  0
  7  8  1  0
  8  9  2  0
  9 10  1  0
 10 11  2  0
 11 12  1  0
 12 13  1  0
 13 14  1  0
 14 15  2  0
 14 16  1  0
 16 17  1  0
 17 18  2  0
 18 19  1  0
 19 20  2  0
 20 21  1  0
 21 22  2  0
 11 23  1  0
 23 24  1  0
 24 25  2  0
 25 26  1  0
 26 27  2  0
 27 28  1  0
 27 29  1  0
 29 30  2  0
  6  2  1  0
 23  8  1  0
 30 24  1  0
 22 17  1  0
  1 31  1  0
  1 32  1  0
  1 33  1  0
  3 34  1  0
  4 35  1  0
  5 36  1  0
  7 37  1  0
  7 38  1  0
 13 39  1  0
 13 40  1  0
 16 41  1  0
 18 42  1  0
 19 43  1  0
 20 44  1  0
 21 45  1  0
 22 46  1  0
 25 47  1  0
 26 48  1  0
 29 49  1  0
 30 50  1  0
M  END
$$$$
