
     RDKit          3D

 61 64  0  0  0  0  0  0  0  0999 V2000
    6.8182    4.3688   -0.2910 C   0  0  0  0  0  0  0  0  0  0  0  0
    6.4648    3.2879    0.5599 O   0  0  0  0  0  0  0  0  0  0  0  0
    5.5180    2.4094    0.0960 C   0  0  0  0  0  0  0  0  0  0  0  0
    4.6189    2.7007   -0.9309 C   0  0  0  0  0  0  0  0  0  0  0  0
    3.6907    1.7398   -1.3462 C   0  0  0  0  0  0  0  0  0  0  0  0
    3.6481    0.4789   -0.7409 C   0  0  0  0  0  0  0  0  0  0  0  0
    2.7369   -0.4589   -1.2726 N   0  0  0  0  0  0  0  0  0  0  0  0
    2.5489   -1.7729   -0.8770 C   0  0  0  0  0  0  0  0  0  0  0  0
    3.0116   -2.3009    0.1316 O   0  0  0  0  0  0  0  0  0  0  0  0
    1.7094   -2.5770   -1.8576 C   0  0  0  0  0  0  0  0  0  0  0  0
    0.0400   -2.8381   -1.2104 S   0  0  0  0  0  0  0  0  0  0  0  0
   -0.6773   -1.2801   -1.4783 C   0  0  0  0  0  0  0  0  0  0  0  0
   -0.0835   -0.2937   -2.1133 N   0  0  0  0  0  0  0  0  0  0  0  0
   -0.9800    0.7325   -2.2226 N   0  0  0  0  0  0  0  0  0  0  0  0
   -2.1121    0.3587   -1.6545 C   0  0  0  0  0  0  0  0  0  0  0  0
   -3.2850    1.2592   -1.4246 C   0  0  0  0  0  0  0  0  0  0  0  0
   -3.6483    1.4077    0.0253 C   0  0  0  0  0  0  0  0  0  0  0  0
   -4.7753    0.9517    0.6924 C   0  0  0  0  0  0  0  0  0  0  0  0
   -4.6444    1.2784    2.0629 C   0  0  0  0  0  0  0  0  0  0  0  0
   -3.4538    1.9426    2.1966 C   0  0  0  0  0  0  0  0  0  0  0  0
   -2.8672    2.0525    0.9600 N   0  0  0  0  0  0  0  0  0  0  0  0
   -1.6280    2.7644    0.7188 C   0  0  0  0  0  0  0  0  0  0  0  0
   -1.9998   -0.9583   -1.2214 N   0  0  0  0  0  0  0  0  0  0  0  0
   -3.0218   -1.7950   -0.7022 C   0  0  0  0  0  0  0  0  0  0  0  0
   -4.2482   -1.8929   -1.3674 C   0  0  0  0  0  0  0  0  0  0  0  0
   -5.2435   -2.7366   -0.8657 C   0  0  0  0  0  0  0  0  0  0  0  0
   -5.0306   -3.4783    0.3034 C   0  0  0  0  0  0  0  0  0  0  0  0
   -6.0949   -4.4099    0.8055 C   0  0  0  0  0  0  0  0  0  0  0  0
   -3.7991   -3.3770    0.9589 C   0  0  0  0  0  0  0  0  0  0  0  0
   -2.7976   -2.5413    0.4594 C   0  0  0  0  0  0  0  0  0  0  0  0
    4.5301    0.1985    0.3046 C   0  0  0  0  0  0  0  0  0  0  0  0
    5.4549    1.1582    0.7402 C   0  0  0  0  0  0  0  0  0  0  0  0
    6.3648    0.9478    1.7475 O   0  0  0  0  0  0  0  0  0  0  0  0
    6.1772   -0.2012    2.5647 C   0  0  0  0  0  0  0  0  0  0  0  0
    7.0729    4.0274   -1.2997 H   0  0  0  0  0  0  0  0  0  0  0  0
    7.7081    4.8447    0.1298 H   0  0  0  0  0  0  0  0  0  0  0  0
    6.0214    5.1198   -0.3192 H   0  0  0  0  0  0  0  0  0  0  0  0
    4.6222    3.6619   -1.4362 H   0  0  0  0  0  0  0  0  0  0  0  0
    3.0131    1.9860   -2.1617 H   0  0  0  0  0  0  0  0  0  0  0  0
    2.1022   -0.1091   -1.9863 H   0  0  0  0  0  0  0  0  0  0  0  0
    1.6799   -2.1085   -2.8488 H   0  0  0  0  0  0  0  0  0  0  0  0
    2.1963   -3.5496   -1.9842 H   0  0  0  0  0  0  0  0  0  0  0  0
   -4.1488    0.8995   -1.9931 H   0  0  0  0  0  0  0  0  0  0  0  0
   -3.0567    2.2542   -1.8327 H   0  0  0  0  0  0  0  0  0  0  0  0
   -5.5958    0.4100    0.2412 H   0  0  0  0  0  0  0  0  0  0  0  0
   -5.3401    1.0474    2.8588 H   0  0  0  0  0  0  0  0  0  0  0  0
   -2.9834    2.3585    3.0782 H   0  0  0  0  0  0  0  0  0  0  0  0
   -1.7951    3.4856   -0.0845 H   0  0  0  0  0  0  0  0  0  0  0  0
   -1.3330    3.3022    1.6251 H   0  0  0  0  0  0  0  0  0  0  0  0
   -0.8498    2.0461    0.4478 H   0  0  0  0  0  0  0  0  0  0  0  0
   -4.4394   -1.3700   -2.2998 H   0  0  0  0  0  0  0  0  0  0  0  0
   -6.1880   -2.8238   -1.3995 H   0  0  0  0  0  0  0  0  0  0  0  0
   -7.0787   -3.9293    0.7534 H   0  0  0  0  0  0  0  0  0  0  0  0
   -5.9208   -4.6945    1.8506 H   0  0  0  0  0  0  0  0  0  0  0  0
   -6.1120   -5.3187    0.1961 H   0  0  0  0  0  0  0  0  0  0  0  0
   -3.6054   -3.9483    1.8653 H   0  0  0  0  0  0  0  0  0  0  0  0
   -1.8652   -2.4620    1.0115 H   0  0  0  0  0  0  0  0  0  0  0  0
    4.5029   -0.7720    0.7832 H   0  0  0  0  0  0  0  0  0  0  0  0
    6.8954   -0.1498    3.3894 H   0  0  0  0  0  0  0  0  0  0  0  0
    5.1719   -0.2170    3.0004 H   0  0  0  0  0  0  0  0  0  0  0  0
    6.3837   -1.1161    2.0002 H   0  0  0  0  0  0  0  0  0  0  0  0
  1  2  1  0
  2  3  1  0
  3  4  2  0
  4  5  1  0
  5  6  2  0
  6  7  1  0
  7  8  1  0
  8  9  2  0
  8 10  1  0
 10 11  1  0
 11 12  1  0
 12 13  2  0
 13 14  1  0
 14 15  2  0
 15 16  1  0
 16 17  1  0
 17 18  2  0
 18 19  1  0
 19 20  2  0
 20 21  1  0
 21 22  1  0
 15 23  1  0
 23 24  1  0
 24 25  2  0
 25 26  1  0
 26 27  2  0
 27 28  1  0
 27 29  1  0
 29 30  2  0
  6 31  1  0
 31 32  2  0
 32 33  1  0
 33 34  1  0
 32  3  1  0
 23 12  1  0
 30 24  1  0
 21 17  1  0
  1 35  1  0
  1 36  1  0
  1 37  1  0
  4 38  1  0
  5 39  1  0
  7 40  1  0
 10 41  1  0
 10 42  1  0
 16 43  1  0
 16 44  1  0
 18 45  1  0
 19 46  1  0
 20 47  1  0
 22 48  1  0
 22 49  1  0
 22 50  1  0
 25 51  1  0
 26 52  1  0
 28 53  1  0
 28 54  1  0
 28 55  1  0
 29 56  1  0
 30 57  1  0
 31 58  1  0
 34 59  1  0
 34 60  1  0
 34 61  1  0
M  END
$$$$
