
     RDKit          3D

 49 50  0  0  0  0  0  0  0  0999 V2000
    5.3461   -3.7257   -0.3078 C   0  0  0  0  0  0  0  0  0  0  0  0
    4.7610   -2.8027    0.7435 C   0  0  0  0  0  0  0  0  0  0  0  0
    3.7715   -1.9840    0.1122 O   0  0  0  0  0  0  0  0  0  0  0  0
    3.1587   -1.0900    0.9454 C   0  0  0  0  0  0  0  0  0  0  0  0
    3.4283   -1.0030    2.1393 O   0  0  0  0  0  0  0  0  0  0  0  0
    2.1635   -0.2507    0.2541 C   0  0  0  0  0  0  0  0  0  0  0  0
    1.7489   -0.3128   -1.1259 C   0  0  0  0  0  0  0  0  0  0  0  0
    2.2316   -1.2792   -2.1580 C   0  0  0  0  0  0  0  0  0  0  0  0
    0.8363    0.7112   -1.3385 C   0  0  0  0  0  0  0  0  0  0  0  0
    0.1782    1.1269   -2.6117 C   0  0  0  0  0  0  0  0  0  0  0  0
    0.5818    1.3145   -0.1209 N   0  0  0  0  0  0  0  0  0  0  0  0
   -0.3686    2.4139    0.1081 C   0  0  0  0  0  0  0  0  0  0  0  0
   -1.8088    2.0703   -0.2004 C   0  0  0  0  0  0  0  0  0  0  0  0
   -2.4837    2.7786   -1.2089 C   0  0  0  0  0  0  0  0  0  0  0  0
   -3.8153    2.4988   -1.5075 C   0  0  0  0  0  0  0  0  0  0  0  0
   -4.5068    1.5238   -0.7876 C   0  0  0  0  0  0  0  0  0  0  0  0
   -3.8743    0.8235    0.2436 C   0  0  0  0  0  0  0  0  0  0  0  0
   -4.4937   -0.1047    1.0392 O   0  0  0  0  0  0  0  0  0  0  0  0
   -5.8756   -0.3497    0.8162 C   0  0  0  0  0  0  0  0  0  0  0  0
   -2.5175    1.0906    0.5182 C   0  0  0  0  0  0  0  0  0  0  0  0
   -1.8635    0.4751    1.5588 O   0  0  0  0  0  0  0  0  0  0  0  0
   -1.6855   -0.9221    1.3178 C   0  0  0  0  0  0  0  0  0  0  0  0
    1.4404    0.7933    0.8355 C   0  0  0  0  0  0  0  0  0  0  0  0
    1.4821    1.3328    2.2315 C   0  0  0  0  0  0  0  0  0  0  0  0
    5.8020   -3.1461   -1.1174 H   0  0  0  0  0  0  0  0  0  0  0  0
    6.1049   -4.3822    0.1270 H   0  0  0  0  0  0  0  0  0  0  0  0
    4.5623   -4.3421   -0.7605 H   0  0  0  0  0  0  0  0  0  0  0  0
    5.5529   -2.1719    1.1622 H   0  0  0  0  0  0  0  0  0  0  0  0
    4.2989   -3.3969    1.5400 H   0  0  0  0  0  0  0  0  0  0  0  0
    3.2805   -1.0835   -2.4020 H   0  0  0  0  0  0  0  0  0  0  0  0
    1.6539   -1.2116   -3.0848 H   0  0  0  0  0  0  0  0  0  0  0  0
    2.1308   -2.3089   -1.8006 H   0  0  0  0  0  0  0  0  0  0  0  0
   -0.8027    0.6517   -2.7084 H   0  0  0  0  0  0  0  0  0  0  0  0
    0.0615    2.2131   -2.6702 H   0  0  0  0  0  0  0  0  0  0  0  0
    0.7791    0.8363   -3.4795 H   0  0  0  0  0  0  0  0  0  0  0  0
   -0.3032    2.7496    1.1466 H   0  0  0  0  0  0  0  0  0  0  0  0
   -0.0124    3.2480   -0.5092 H   0  0  0  0  0  0  0  0  0  0  0  0
   -1.9728    3.5563   -1.7734 H   0  0  0  0  0  0  0  0  0  0  0  0
   -4.3220    3.0511   -2.2958 H   0  0  0  0  0  0  0  0  0  0  0  0
   -5.5455    1.3496   -1.0458 H   0  0  0  0  0  0  0  0  0  0  0  0
   -6.2092   -1.0839    1.5552 H   0  0  0  0  0  0  0  0  0  0  0  0
   -6.0421   -0.7795   -0.1772 H   0  0  0  0  0  0  0  0  0  0  0  0
   -6.4683    0.5594    0.9595 H   0  0  0  0  0  0  0  0  0  0  0  0
   -1.5478   -1.1539    0.2549 H   0  0  0  0  0  0  0  0  0  0  0  0
   -2.5265   -1.4902    1.7258 H   0  0  0  0  0  0  0  0  0  0  0  0
   -0.7846   -1.2408    1.8510 H   0  0  0  0  0  0  0  0  0  0  0  0
    0.5251    1.1701    2.7369 H   0  0  0  0  0  0  0  0  0  0  0  0
    2.2542    0.8702    2.8476 H   0  0  0  0  0  0  0  0  0  0  0  0
    1.6957    2.4073    2.2183 H   0  0  0  0  0  0  0  0  0  0  0  0
  1  2  1  0
  2  3  1  0
  3  4  1  0
  4  5  2  0
  4  6  1  0
  6  7  1  0
  7  8  1  0
  7  9  2  0
  9 10  1  0
  9 11  1  0
 11 12  1  0
 12 13  1  0
 13 14  2  0
 14 15  1  0
 15 16  2  0
 16 17  1  0
 17 18  1  0
 18 19  1  0
 17 20  2  0
 20 21  1  0
 21 22  1  0
 11 23  1  0
 23 24  1  0
 23  6  2  0
 20 13  1  0
  1 25  1  0
  1 26  1  0
  1 27  1  0
  2 28  1  0
  2 29  1  0
  8 30  1  0
  8 31  1  0
  8 32  1  0
 10 33  1  0
 10 34  1  0
 10 35  1  0
 12 36  1  0
 12 37  1  0
 14 38  1  0
 15 39  1  0
 16 40  1  0
 19 41  1  0
 19 42  1  0
 19 43  1  0
 22 44  1  0
 22 45  1  0
 22 46  1  0
 24 47  1  0
 24 48  1  0
 24 49  1  0
M  END
$$$$
