
     RDKit          3D

 57 60  0  0  0  0  0  0  0  0999 V2000
   -1.2614    1.4310    4.6968 C   0  0  0  0  0  0  0  0  0  0  0  0
   -1.1023    0.4498    3.6686 O   0  0  0  0  0  0  0  0  0  0  0  0
   -0.1963    0.8613    2.7314 C   0  0  0  0  0  0  0  0  0  0  0  0
    1.1639    0.7968    3.0535 C   0  0  0  0  0  0  0  0  0  0  0  0
    2.1317    1.1310    2.1032 C   0  0  0  0  0  0  0  0  0  0  0  0
    1.7437    1.5105    0.8128 C   0  0  0  0  0  0  0  0  0  0  0  0
    2.7403    1.8781   -0.2314 C   0  0  0  0  0  0  0  0  0  0  0  0
    2.4285    2.6515   -1.1285 O   0  0  0  0  0  0  0  0  0  0  0  0
    3.9779    1.2795   -0.1320 N   0  0  0  0  0  0  0  0  0  0  0  0
    4.9781    1.4495   -1.1627 C   0  0  0  0  0  0  0  0  0  0  0  0
    4.9911    0.2622   -2.0920 C   0  0  0  0  0  0  0  0  0  0  0  0
    4.0534    0.1823   -3.1487 C   0  0  0  0  0  0  0  0  0  0  0  0
    4.0299   -0.9186   -4.0108 C   0  0  0  0  0  0  0  0  0  0  0  0
    4.9460   -1.9231   -3.7906 C   0  0  0  0  0  0  0  0  0  0  0  0
    5.8553   -1.8596   -2.7610 C   0  0  0  0  0  0  0  0  0  0  0  0
    5.9033   -0.7874   -1.8946 C   0  0  0  0  0  0  0  0  0  0  0  0
    6.6637   -2.9524   -2.7139 O   0  0  0  0  0  0  0  0  0  0  0  0
    6.1682   -3.7036   -3.8428 C   0  0  0  0  0  0  0  0  0  0  0  0
    5.0692   -3.0626   -4.5225 O   0  0  0  0  0  0  0  0  0  0  0  0
    0.3826    1.5725    0.4886 C   0  0  0  0  0  0  0  0  0  0  0  0
   -0.5884    1.2291    1.4422 C   0  0  0  0  0  0  0  0  0  0  0  0
   -2.3012    1.3692    0.9789 S   0  0  0  0  0  6  0  0  0  0  0  0
   -3.0968    1.6355    2.1575 O   0  0  0  0  0  0  0  0  0  0  0  0
   -2.3548    2.2881   -0.1417 O   0  0  0  0  0  0  0  0  0  0  0  0
   -2.6702   -0.1828    0.3877 N   0  0  0  0  0  0  0  0  0  0  0  0
   -2.6433   -1.2816    1.3720 C   0  0  0  0  0  0  0  0  0  0  0  0
   -3.8186   -0.2468   -0.5526 C   0  0  0  0  0  0  0  0  0  0  0  0
   -5.1965   -0.2745    0.0683 C   0  0  0  0  0  0  0  0  0  0  0  0
   -5.8693   -1.4908    0.2645 C   0  0  0  0  0  0  0  0  0  0  0  0
   -7.1396   -1.5156    0.8435 C   0  0  0  0  0  0  0  0  0  0  0  0
   -7.7522   -0.3264    1.2325 C   0  0  0  0  0  0  0  0  0  0  0  0
   -7.0963    0.8877    1.0416 C   0  0  0  0  0  0  0  0  0  0  0  0
   -5.8268    0.9144    0.4614 C   0  0  0  0  0  0  0  0  0  0  0  0
   -0.4208    1.3922    5.3970 H   0  0  0  0  0  0  0  0  0  0  0  0
   -1.3664    2.4422    4.2864 H   0  0  0  0  0  0  0  0  0  0  0  0
   -2.1745    1.1912    5.2494 H   0  0  0  0  0  0  0  0  0  0  0  0
    1.4741    0.4795    4.0464 H   0  0  0  0  0  0  0  0  0  0  0  0
    3.1786    1.1085    2.3928 H   0  0  0  0  0  0  0  0  0  0  0  0
    4.0891    0.4817    0.4767 H   0  0  0  0  0  0  0  0  0  0  0  0
    4.8091    2.3735   -1.7267 H   0  0  0  0  0  0  0  0  0  0  0  0
    5.9465    1.5495   -0.6603 H   0  0  0  0  0  0  0  0  0  0  0  0
    3.3338    0.9887   -3.2942 H   0  0  0  0  0  0  0  0  0  0  0  0
    3.3140   -0.9802   -4.8226 H   0  0  0  0  0  0  0  0  0  0  0  0
    6.6314   -0.7673   -1.0909 H   0  0  0  0  0  0  0  0  0  0  0  0
    5.8364   -4.6872   -3.4903 H   0  0  0  0  0  0  0  0  0  0  0  0
    6.9882   -3.8446   -4.5568 H   0  0  0  0  0  0  0  0  0  0  0  0
    0.0844    1.8850   -0.5120 H   0  0  0  0  0  0  0  0  0  0  0  0
   -3.3089   -1.0825    2.2166 H   0  0  0  0  0  0  0  0  0  0  0  0
   -1.6257   -1.4433    1.7347 H   0  0  0  0  0  0  0  0  0  0  0  0
   -2.9518   -2.2221    0.9032 H   0  0  0  0  0  0  0  0  0  0  0  0
   -3.7654    0.5723   -1.2797 H   0  0  0  0  0  0  0  0  0  0  0  0
   -3.6860   -1.1461   -1.1698 H   0  0  0  0  0  0  0  0  0  0  0  0
   -5.4082   -2.4292   -0.0344 H   0  0  0  0  0  0  0  0  0  0  0  0
   -7.6517   -2.4627    0.9922 H   0  0  0  0  0  0  0  0  0  0  0  0
   -8.7396   -0.3443    1.6861 H   0  0  0  0  0  0  0  0  0  0  0  0
   -7.5693    1.8172    1.3481 H   0  0  0  0  0  0  0  0  0  0  0  0
   -5.3301    1.8735    0.3242 H   0  0  0  0  0  0  0  0  0  0  0  0
  1  2  1  0
  2  3  1  0
  3  4  2  0
  4  5  1  0
  5  6  2  0
  6  7  1  0
  7  8  2  0
  7  9  1  0
  9 10  1  0
 10 11  1  0
 11 12  2  0
 12 13  1  0
 13 14  2  0
 14 15  1  0
 15 16  2  0
 15 17  1  0
 17 18  1  0
 18 19  1  0
  6 20  1  0
 20 21  2  0
 21 22  1  0
 22 23  2  0
 22 24  2  0
 22 25  1  0
 25 26  1  0
 25 27  1  0
 27 28  1  0
 28 29  2  0
 29 30  1  0
 30 31  2  0
 31 32  1  0
 32 33  2  0
 21  3  1  0
 33 28  1  0
 16 11  1  0
 19 14  1  0
  1 34  1  0
  1 35  1  0
  1 36  1  0
  4 37  1  0
  5 38  1  0
  9 39  1  0
 10 40  1  0
 10 41  1  0
 12 42  1  0
 13 43  1  0
 16 44  1  0
 18 45  1  0
 18 46  1  0
 20 47  1  0
 26 48  1  0
 26 49  1  0
 26 50  1  0
 27 51  1  0
 27 52  1  0
 29 53  1  0
 30 54  1  0
 31 55  1  0
 32 56  1  0
 33 57  1  0
M  END
$$$$
