
     RDKit          3D

 29 30  0  0  0  0  0  0  0  0999 V2000
    0.7221    1.3817   -0.5999 O   0  0  0  0  0  0  0  0  0  0  0  0
    1.2342    0.4129   -0.0374 C   0  0  0  0  0  0  0  0  0  0  0  0
    0.5525   -0.2996    1.1267 C   0  0  0  0  0  0  0  0  0  0  0  0
   -0.8203    0.0855    1.2356 O   0  0  0  0  0  0  0  0  0  0  0  0
   -1.6415   -0.5441    0.3484 C   0  0  0  0  0  0  0  0  0  0  0  0
   -1.3004   -1.4536   -0.3926 O   0  0  0  0  0  0  0  0  0  0  0  0
   -3.0242    0.0245    0.4385 C   0  0  0  0  0  0  0  0  0  0  0  0
   -3.2556    1.2911    0.9712 C   0  0  0  0  0  0  0  0  0  0  0  0
   -4.5644    1.7659    1.0139 C   0  0  0  0  0  0  0  0  0  0  0  0
   -5.5946    0.9708    0.5244 C   0  0  0  0  0  0  0  0  0  0  0  0
   -5.2755   -0.2737    0.0066 C   0  0  0  0  0  0  0  0  0  0  0  0
   -4.0197   -0.7647   -0.0478 N   0  0  0  0  0  0  0  0  0  0  0  0
    2.5751   -0.0679   -0.4870 C   0  0  0  0  0  0  0  0  0  0  0  0
    3.3212   -1.0052    0.2396 C   0  0  0  0  0  0  0  0  0  0  0  0
    4.5755   -1.4169   -0.2251 C   0  0  0  0  0  0  0  0  0  0  0  0
    5.0858   -0.8920   -1.4115 C   0  0  0  0  0  0  0  0  0  0  0  0
    6.7807   -1.4516   -2.0324 Br  0  0  0  0  0  0  0  0  0  0  0  0
    4.3557    0.0432   -2.1403 C   0  0  0  0  0  0  0  0  0  0  0  0
    3.1032    0.4551   -1.6773 C   0  0  0  0  0  0  0  0  0  0  0  0
    1.0461    0.0135    2.0523 H   0  0  0  0  0  0  0  0  0  0  0  0
    0.6394   -1.3878    1.0385 H   0  0  0  0  0  0  0  0  0  0  0  0
   -2.4405    1.9090    1.3331 H   0  0  0  0  0  0  0  0  0  0  0  0
   -4.7764    2.7516    1.4194 H   0  0  0  0  0  0  0  0  0  0  0  0
   -6.6231    1.3149    0.5405 H   0  0  0  0  0  0  0  0  0  0  0  0
   -6.0456   -0.9286   -0.3921 H   0  0  0  0  0  0  0  0  0  0  0  0
    2.9595   -1.4300    1.1712 H   0  0  0  0  0  0  0  0  0  0  0  0
    5.1460   -2.1464    0.3452 H   0  0  0  0  0  0  0  0  0  0  0  0
    4.7468    0.4570   -3.0664 H   0  0  0  0  0  0  0  0  0  0  0  0
    2.5378    1.1855   -2.2545 H   0  0  0  0  0  0  0  0  0  0  0  0
  1  2  2  0
  2  3  1  0
  3  4  1  0
  4  5  1  0
  5  6  2  0
  5  7  1  0
  7  8  2  0
  8  9  1  0
  9 10  2  0
 10 11  1  0
 11 12  2  0
  2 13  1  0
 13 14  2  0
 14 15  1  0
 15 16  2  0
 16 17  1  0
 16 18  1  0
 18 19  2  0
 12  7  1  0
 19 13  1  0
  3 20  1  0
  3 21  1  0
  8 22  1  0
  9 23  1  0
 10 24  1  0
 11 25  1  0
 14 26  1  0
 15 27  1  0
 18 28  1  0
 19 29  1  0
M  END
$$$$
