
     RDKit          3D

 43 46  0  0  0  0  0  0  0  0999 V2000
   -1.6393   -0.8726   -1.6328 O   0  0  0  0  0  0  0  0  0  0  0  0
   -1.8752   -0.1513   -0.6719 C   0  0  0  0  0  0  0  0  0  0  0  0
   -0.9604    0.3585    0.2322 N   0  0  0  0  0  0  0  0  0  0  0  0
    0.4430    0.2252    0.1950 C   0  0  0  0  0  0  0  0  0  0  0  0
    1.1445   -0.3815   -0.8451 C   0  0  0  0  0  0  0  0  0  0  0  0
    2.5450   -0.4687   -0.8122 C   0  0  0  0  0  0  0  0  0  0  0  0
    3.2656    0.0515    0.2611 C   0  0  0  0  0  0  0  0  0  0  0  0
    4.6682    0.0063    0.3741 N   0  0  0  0  0  0  0  0  0  0  0  0
    5.5882   -0.5330   -0.5104 C   0  0  0  0  0  0  0  0  0  0  0  0
    5.2968   -1.0734   -1.5732 O   0  0  0  0  0  0  0  0  0  0  0  0
    6.9847   -0.4133   -0.0840 C   0  0  0  0  0  0  0  0  0  0  0  0
    8.0971   -0.8634   -0.7743 C   0  0  0  0  0  0  0  0  0  0  0  0
    9.3178   -0.5945   -0.0913 C   0  0  0  0  0  0  0  0  0  0  0  0
    9.1041    0.0542    1.1032 C   0  0  0  0  0  0  0  0  0  0  0  0
    7.4430    0.3338    1.3923 S   0  0  0  0  0  0  0  0  0  0  0  0
    2.5623    0.6633    1.3039 C   0  0  0  0  0  0  0  0  0  0  0  0
    1.1654    0.7509    1.2706 C   0  0  0  0  0  0  0  0  0  0  0  0
   -3.2946    0.2015   -0.3875 C   0  0  0  0  0  0  0  0  0  0  0  0
   -3.6540    1.4629    0.0982 C   0  0  0  0  0  0  0  0  0  0  0  0
   -4.9967    1.7536    0.3531 C   0  0  0  0  0  0  0  0  0  0  0  0
   -5.9965    0.7954    0.1193 C   0  0  0  0  0  0  0  0  0  0  0  0
   -7.3492    1.0736    0.3726 C   0  0  0  0  0  0  0  0  0  0  0  0
   -8.3327    0.1136    0.1284 C   0  0  0  0  0  0  0  0  0  0  0  0
   -7.9774   -1.1349   -0.3736 C   0  0  0  0  0  0  0  0  0  0  0  0
   -6.6374   -1.4275   -0.6318 C   0  0  0  0  0  0  0  0  0  0  0  0
   -5.6357   -0.4743   -0.3897 C   0  0  0  0  0  0  0  0  0  0  0  0
   -4.2842   -0.7553   -0.6440 C   0  0  0  0  0  0  0  0  0  0  0  0
   -1.3353    0.8197    1.0502 H   0  0  0  0  0  0  0  0  0  0  0  0
    0.6361   -0.7992   -1.7091 H   0  0  0  0  0  0  0  0  0  0  0  0
    3.0339   -0.9538   -1.6514 H   0  0  0  0  0  0  0  0  0  0  0  0
    5.0674    0.4191    1.2077 H   0  0  0  0  0  0  0  0  0  0  0  0
    8.0274   -1.3661   -1.7332 H   0  0  0  0  0  0  0  0  0  0  0  0
   10.3006   -0.8640   -0.4589 H   0  0  0  0  0  0  0  0  0  0  0  0
    9.8452    0.3780    1.8216 H   0  0  0  0  0  0  0  0  0  0  0  0
    3.0874    1.0817    2.1588 H   0  0  0  0  0  0  0  0  0  0  0  0
    0.6566    1.2335    2.1006 H   0  0  0  0  0  0  0  0  0  0  0  0
   -2.9094    2.2388    0.2531 H   0  0  0  0  0  0  0  0  0  0  0  0
   -5.2614    2.7412    0.7259 H   0  0  0  0  0  0  0  0  0  0  0  0
   -7.6492    2.0443    0.7613 H   0  0  0  0  0  0  0  0  0  0  0  0
   -9.3765    0.3424    0.3276 H   0  0  0  0  0  0  0  0  0  0  0  0
   -8.7427   -1.8822   -0.5668 H   0  0  0  0  0  0  0  0  0  0  0  0
   -6.3799   -2.4083   -1.0267 H   0  0  0  0  0  0  0  0  0  0  0  0
   -3.9929   -1.7260   -1.0430 H   0  0  0  0  0  0  0  0  0  0  0  0
  1  2  2  0
  2  3  1  0
  3  4  1  0
  4  5  2  0
  5  6  1  0
  6  7  2  0
  7  8  1  0
  8  9  1  0
  9 10  2  0
  9 11  1  0
 11 12  2  0
 12 13  1  0
 13 14  2  0
 14 15  1  0
  7 16  1  0
 16 17  2  0
  2 18  1  0
 18 19  2  0
 19 20  1  0
 20 21  2  0
 21 22  1  0
 22 23  2  0
 23 24  1  0
 24 25  2  0
 25 26  1  0
 26 27  2  0
 17  4  1  0
 27 18  1  0
 15 11  1  0
 26 21  1  0
  3 28  1  0
  5 29  1  0
  6 30  1  0
  8 31  1  0
 12 32  1  0
 13 33  1  0
 14 34  1  0
 16 35  1  0
 17 36  1  0
 19 37  1  0
 20 38  1  0
 22 39  1  0
 23 40  1  0
 24 41  1  0
 25 42  1  0
 27 43  1  0
M  END
$$$$
