
     RDKit          3D

 32 33  0  0  0  0  0  0  0  0999 V2000
    3.9160   -1.6857   -0.1496 C   0  0  0  0  0  0  0  0  0  0  0  0
    4.2597   -0.2671   -0.5713 C   0  0  0  0  0  0  0  0  0  0  0  0
    3.1810    0.9530    0.2375 S   0  0  0  0  0  0  0  0  0  0  0  0
    1.6671    0.7020   -0.5701 C   0  0  0  0  0  0  0  0  0  0  0  0
    1.3623    0.4829   -1.8918 C   0  0  0  0  0  0  0  0  0  0  0  0
    0.0138    0.3271   -2.0630 N   0  0  0  0  0  0  0  0  0  0  0  0
   -0.5254    0.4751   -0.8670 C   0  0  0  0  0  0  0  0  0  0  0  0
   -1.9544    0.3856   -0.5845 C   0  0  0  0  0  0  0  0  0  0  0  0
   -2.7266    1.5463   -0.4540 C   0  0  0  0  0  0  0  0  0  0  0  0
   -4.0916    1.4553   -0.1759 C   0  0  0  0  0  0  0  0  0  0  0  0
   -4.6922    0.2046   -0.0346 C   0  0  0  0  0  0  0  0  0  0  0  0
   -3.9321   -0.9559   -0.1786 C   0  0  0  0  0  0  0  0  0  0  0  0
   -2.5672   -0.8660   -0.4576 C   0  0  0  0  0  0  0  0  0  0  0  0
    0.4568    0.7062    0.0832 N   0  0  0  0  0  0  0  0  0  0  0  0
    0.2263    0.8890    1.5060 C   0  0  0  0  0  0  0  0  0  0  0  0
    0.2987   -0.4171    2.2799 C   0  0  0  0  0  0  0  0  0  0  0  0
    3.9906   -1.8109    0.9360 H   0  0  0  0  0  0  0  0  0  0  0  0
    2.9074   -1.9727   -0.4638 H   0  0  0  0  0  0  0  0  0  0  0  0
    4.6161   -2.3897   -0.6117 H   0  0  0  0  0  0  0  0  0  0  0  0
    4.2094   -0.1625   -1.6592 H   0  0  0  0  0  0  0  0  0  0  0  0
    5.2895   -0.0439   -0.2739 H   0  0  0  0  0  0  0  0  0  0  0  0
    2.0386    0.4256   -2.7339 H   0  0  0  0  0  0  0  0  0  0  0  0
   -2.2683    2.5247   -0.5802 H   0  0  0  0  0  0  0  0  0  0  0  0
   -4.6875    2.3594   -0.0801 H   0  0  0  0  0  0  0  0  0  0  0  0
   -5.7565    0.1340    0.1752 H   0  0  0  0  0  0  0  0  0  0  0  0
   -4.4032   -1.9308   -0.0836 H   0  0  0  0  0  0  0  0  0  0  0  0
   -1.9825   -1.7744   -0.5847 H   0  0  0  0  0  0  0  0  0  0  0  0
    0.9595    1.6068    1.8874 H   0  0  0  0  0  0  0  0  0  0  0  0
   -0.7536    1.3559    1.6439 H   0  0  0  0  0  0  0  0  0  0  0  0
    1.2797   -0.8911    2.1733 H   0  0  0  0  0  0  0  0  0  0  0  0
    0.1226   -0.2358    3.3447 H   0  0  0  0  0  0  0  0  0  0  0  0
   -0.4540   -1.1298    1.9278 H   0  0  0  0  0  0  0  0  0  0  0  0
  1  2  1  0
  2  3  1  0
  3  4  1  0
  4  5  2  0
  5  6  1  0
  6  7  2  0
  7  8  1  0
  8  9  2  0
  9 10  1  0
 10 11  2  0
 11 12  1  0
 12 13  2  0
  7 14  1  0
 14 15  1  0
 15 16  1  0
 14  4  1  0
 13  8  1  0
  1 17  1  0
  1 18  1  0
  1 19  1  0
  2 20  1  0
  2 21  1  0
  5 22  1  0
  9 23  1  0
 10 24  1  0
 11 25  1  0
 12 26  1  0
 13 27  1  0
 15 28  1  0
 15 29  1  0
 16 30  1  0
 16 31  1  0
 16 32  1  0
M  END
$$$$
