
     RDKit          3D

 42 44  0  0  0  0  0  0  0  0999 V2000
   -5.1168    1.4568    0.4630 C   0  0  0  0  0  0  0  0  0  0  0  0
   -4.1118    1.0614   -0.5790 C   0  0  0  0  0  0  0  0  0  0  0  0
   -4.4881    0.9697   -1.9196 C   0  0  0  0  0  0  0  0  0  0  0  0
   -3.5641    0.6301   -2.9133 C   0  0  0  0  0  0  0  0  0  0  0  0
   -2.2328    0.3923   -2.5340 C   0  0  0  0  0  0  0  0  0  0  0  0
   -1.8164    0.4990   -1.2068 C   0  0  0  0  0  0  0  0  0  0  0  0
   -2.7727    0.8382   -0.2215 C   0  0  0  0  0  0  0  0  0  0  0  0
   -0.4177    0.2103   -1.1788 C   0  0  0  0  0  0  0  0  0  0  0  0
    0.3952    0.2162   -0.0015 C   0  0  0  0  0  0  0  0  0  0  0  0
    1.3534   -0.6821    0.2824 C   0  0  0  0  0  0  0  0  0  0  0  0
    2.1545   -0.6678    1.5104 C   0  0  0  0  0  0  0  0  0  0  0  0
    1.5963   -0.4009    2.7597 C   0  0  0  0  0  0  0  0  0  0  0  0
    2.3990   -0.4301    3.8945 C   0  0  0  0  0  0  0  0  0  0  0  0
    3.7160   -0.7183    3.7991 N   0  0  0  0  0  4  0  0  0  0  0  0
    4.5441   -0.7517    5.0165 C   0  0  0  0  0  0  0  0  0  0  0  0
    4.2747   -1.0035    2.6019 C   0  0  0  0  0  0  0  0  0  0  0  0
    3.5090   -0.9879    1.4414 C   0  0  0  0  0  0  0  0  0  0  0  0
    0.0022   -0.0219   -2.4792 C   0  0  0  0  0  0  0  0  0  0  0  0
    1.3608   -0.2753   -3.0403 C   0  0  0  0  0  0  0  0  0  0  0  0
   -1.1247    0.0375   -3.2793 N   0  0  0  0  0  0  0  0  0  0  0  0
   -1.1502   -0.2107   -4.7076 C   0  0  0  0  0  0  0  0  0  0  0  0
   -6.1176    1.1017    0.1956 H   0  0  0  0  0  0  0  0  0  0  0  0
   -4.8659    1.0175    1.4342 H   0  0  0  0  0  0  0  0  0  0  0  0
   -5.1423    2.5462    0.5634 H   0  0  0  0  0  0  0  0  0  0  0  0
   -5.5196    1.1622   -2.2102 H   0  0  0  0  0  0  0  0  0  0  0  0
   -3.8835    0.5613   -3.9484 H   0  0  0  0  0  0  0  0  0  0  0  0
   -2.4678    0.9257    0.8167 H   0  0  0  0  0  0  0  0  0  0  0  0
    0.1670    1.0051    0.7115 H   0  0  0  0  0  0  0  0  0  0  0  0
    1.5701   -1.4813   -0.4240 H   0  0  0  0  0  0  0  0  0  0  0  0
    0.5350   -0.1825    2.8629 H   0  0  0  0  0  0  0  0  0  0  0  0
    1.9951   -0.2308    4.8832 H   0  0  0  0  0  0  0  0  0  0  0  0
    4.5013   -1.7688    5.4135 H   0  0  0  0  0  0  0  0  0  0  0  0
    4.1475   -0.0338    5.7391 H   0  0  0  0  0  0  0  0  0  0  0  0
    5.5702   -0.4762    4.7597 H   0  0  0  0  0  0  0  0  0  0  0  0
    5.3336   -1.2457    2.5827 H   0  0  0  0  0  0  0  0  0  0  0  0
    3.9775   -1.2185    0.4861 H   0  0  0  0  0  0  0  0  0  0  0  0
    1.5231   -1.3499   -3.1695 H   0  0  0  0  0  0  0  0  0  0  0  0
    1.4913    0.2167   -4.0095 H   0  0  0  0  0  0  0  0  0  0  0  0
    2.1439    0.1154   -2.3835 H   0  0  0  0  0  0  0  0  0  0  0  0
   -2.1355   -0.5799   -5.0006 H   0  0  0  0  0  0  0  0  0  0  0  0
   -0.4093   -0.9742   -4.9564 H   0  0  0  0  0  0  0  0  0  0  0  0
   -0.9241    0.7285   -5.2181 H   0  0  0  0  0  0  0  0  0  0  0  0
  1  2  1  0
  2  3  2  0
  3  4  1  0
  4  5  2  0
  5  6  1  0
  6  7  2  0
  6  8  1  0
  8  9  1  0
  9 10  2  3
 10 11  1  0
 11 12  2  0
 12 13  1  0
 13 14  2  0
 14 15  1  0
 14 16  1  0
 16 17  2  0
  8 18  2  0
 18 19  1  0
 18 20  1  0
 20 21  1  0
  7  2  1  0
 17 11  1  0
 20  5  1  0
  1 22  1  0
  1 23  1  0
  1 24  1  0
  3 25  1  0
  4 26  1  0
  7 27  1  0
  9 28  1  0
 10 29  1  0
 12 30  1  0
 13 31  1  0
 15 32  1  0
 15 33  1  0
 15 34  1  0
 16 35  1  0
 17 36  1  0
 19 37  1  0
 19 38  1  0
 19 39  1  0
 21 40  1  0
 21 41  1  0
 21 42  1  0
M  CHG  1  14   1
M  END
$$$$
