
     RDKit          3D

 46 48  0  0  0  0  0  0  0  0999 V2000
    0.9092    0.3803   -1.7542 C   0  0  0  0  0  0  0  0  0  0  0  0
    1.7820    0.7982   -0.5878 C   0  0  0  0  0  0  0  0  0  0  0  0
    3.2565    0.5599   -0.6685 C   0  0  0  0  0  0  0  0  0  0  0  0
    3.8493   -0.1949   -1.6053 C   0  0  0  0  0  0  0  0  0  0  0  0
    5.2995   -0.4315   -1.6540 C   0  0  0  0  0  0  0  0  0  0  0  0
    5.7667   -1.6971   -2.0320 C   0  0  0  0  0  0  0  0  0  0  0  0
    7.1375   -1.9533   -2.1184 C   0  0  0  0  0  0  0  0  0  0  0  0
    8.0549   -0.9429   -1.8388 C   0  0  0  0  0  0  0  0  0  0  0  0
    7.6028    0.3243   -1.4771 C   0  0  0  0  0  0  0  0  0  0  0  0
    6.2319    0.5807   -1.3898 C   0  0  0  0  0  0  0  0  0  0  0  0
    1.3554    1.3952    0.4945 N   0  0  0  0  0  0  0  0  0  0  0  0
    0.0078    1.5362    0.6939 N   0  0  0  0  0  0  0  0  0  0  0  0
   -0.8122    0.4278    0.8711 C   0  0  0  0  0  0  0  0  0  0  0  0
   -0.5339   -0.7377    0.6218 O   0  0  0  0  0  0  0  0  0  0  0  0
   -2.1310    0.7551    1.4744 C   0  0  0  0  0  0  0  0  0  0  0  0
   -2.9746    1.9080    0.9971 C   0  0  0  0  0  0  0  0  0  0  0  0
   -3.4272    0.4903    0.7020 C   0  0  0  0  0  0  0  0  0  0  0  0
   -3.3564    0.0267   -0.7357 C   0  0  0  0  0  0  0  0  0  0  0  0
   -4.5974   -0.0888    1.4866 C   0  0  0  0  0  0  0  0  0  0  0  0
   -5.8351    0.5728    1.5596 C   0  0  0  0  0  0  0  0  0  0  0  0
   -6.9085    0.0336    2.2735 C   0  0  0  0  0  0  0  0  0  0  0  0
   -6.7669   -1.1871    2.9270 C   0  0  0  0  0  0  0  0  0  0  0  0
   -5.5551   -1.8686    2.8629 C   0  0  0  0  0  0  0  0  0  0  0  0
   -4.4855   -1.3246    2.1476 C   0  0  0  0  0  0  0  0  0  0  0  0
    0.7138   -0.6939   -1.7025 H   0  0  0  0  0  0  0  0  0  0  0  0
    1.4081    0.6073   -2.7010 H   0  0  0  0  0  0  0  0  0  0  0  0
   -0.0379    0.9244   -1.7646 H   0  0  0  0  0  0  0  0  0  0  0  0
    3.8268    1.0246    0.1307 H   0  0  0  0  0  0  0  0  0  0  0  0
    3.2732   -0.7081   -2.3695 H   0  0  0  0  0  0  0  0  0  0  0  0
    5.0669   -2.5002   -2.2525 H   0  0  0  0  0  0  0  0  0  0  0  0
    7.4874   -2.9419   -2.4038 H   0  0  0  0  0  0  0  0  0  0  0  0
    9.1213   -1.1418   -1.9061 H   0  0  0  0  0  0  0  0  0  0  0  0
    8.3167    1.1164   -1.2664 H   0  0  0  0  0  0  0  0  0  0  0  0
    5.9039    1.5823   -1.1228 H   0  0  0  0  0  0  0  0  0  0  0  0
   -0.2257    2.3308    1.2815 H   0  0  0  0  0  0  0  0  0  0  0  0
   -2.1529    0.5480    2.5411 H   0  0  0  0  0  0  0  0  0  0  0  0
   -3.5067    2.4810    1.7493 H   0  0  0  0  0  0  0  0  0  0  0  0
   -2.6249    2.5125    0.1671 H   0  0  0  0  0  0  0  0  0  0  0  0
   -3.1670   -1.0509   -0.7828 H   0  0  0  0  0  0  0  0  0  0  0  0
   -2.5639    0.5334   -1.2963 H   0  0  0  0  0  0  0  0  0  0  0  0
   -4.3011    0.2322   -1.2509 H   0  0  0  0  0  0  0  0  0  0  0  0
   -5.9662    1.5237    1.0479 H   0  0  0  0  0  0  0  0  0  0  0  0
   -7.8547    0.5665    2.3151 H   0  0  0  0  0  0  0  0  0  0  0  0
   -7.6007   -1.6093    3.4813 H   0  0  0  0  0  0  0  0  0  0  0  0
   -5.4397   -2.8254    3.3650 H   0  0  0  0  0  0  0  0  0  0  0  0
   -3.5466   -1.8742    2.0991 H   0  0  0  0  0  0  0  0  0  0  0  0
  1  2  1  0
  2  3  1  0
  3  4  2  3
  4  5  1  0
  5  6  2  0
  6  7  1  0
  7  8  2  0
  8  9  1  0
  9 10  2  0
  2 11  2  3
 11 12  1  0
 12 13  1  0
 13 14  2  0
 13 15  1  0
 15 16  1  0
 16 17  1  0
 17 18  1  0
 17 19  1  0
 19 20  2  0
 20 21  1  0
 21 22  2  0
 22 23  1  0
 23 24  2  0
 10  5  1  0
 17 15  1  0
 24 19  1  0
  1 25  1  0
  1 26  1  0
  1 27  1  0
  3 28  1  0
  4 29  1  0
  6 30  1  0
  7 31  1  0
  8 32  1  0
  9 33  1  0
 10 34  1  0
 12 35  1  0
 15 36  1  0
 16 37  1  0
 16 38  1  0
 18 39  1  0
 18 40  1  0
 18 41  1  0
 20 42  1  0
 21 43  1  0
 22 44  1  0
 23 45  1  0
 24 46  1  0
M  END
$$$$
