
     RDKit          3D

 64 67  0  0  0  0  0  0  0  0999 V2000
    7.0573    0.1168   -6.2779 C   0  0  0  0  0  0  0  0  0  0  0  0
    6.4645    0.6574   -5.0427 C   0  0  0  0  0  0  0  0  0  0  0  0
    5.3574    0.3434   -4.2946 C   0  0  0  0  0  0  0  0  0  0  0  0
    5.3761    1.2664   -3.2265 C   0  0  0  0  0  0  0  0  0  0  0  0
    4.4980    1.4109   -2.1756 N   0  0  0  0  0  0  0  0  0  0  0  0
    3.3862    0.6313   -1.9571 C   0  0  0  0  0  0  0  0  0  0  0  0
    3.0131   -0.3035   -2.6575 O   0  0  0  0  0  0  0  0  0  0  0  0
    2.6338    1.0551   -0.7124 C   0  0  0  0  0  0  0  0  0  0  0  0
    1.4125    0.1700   -0.4662 C   0  0  0  0  0  0  0  0  0  0  0  0
    0.6940    0.5485    0.8193 C   0  0  0  0  0  0  0  0  0  0  0  0
    1.0163    1.5887    1.3983 O   0  0  0  0  0  0  0  0  0  0  0  0
   -0.3387   -0.2995    1.2629 N   0  0  0  0  0  0  0  0  0  0  0  0
   -0.8796   -0.1455    2.6055 C   0  0  0  0  0  0  0  0  0  0  0  0
   -0.1114    0.3894    3.6478 C   0  0  0  0  0  0  0  0  0  0  0  0
   -0.6393    0.5337    4.9329 C   0  0  0  0  0  0  0  0  0  0  0  0
   -1.9402    0.1307    5.1589 C   0  0  0  0  0  0  0  0  0  0  0  0
   -2.7237   -0.3986    4.2020 N   0  0  0  0  0  0  0  0  0  0  0  0
   -2.1749   -0.5319    2.9660 C   0  0  0  0  0  0  0  0  0  0  0  0
   -0.9954   -1.2691    0.3239 C   0  0  0  0  0  0  0  0  0  0  0  0
   -2.2606   -0.6645   -0.3587 C   0  0  0  0  0  0  0  0  0  0  0  0
   -3.0257   -1.3223   -1.0616 O   0  0  0  0  0  0  0  0  0  0  0  0
   -2.4188    0.7040   -0.2049 N   0  0  0  0  0  0  0  0  0  0  0  0
   -3.5942    1.3977   -0.7092 C   0  0  0  0  0  0  0  0  0  0  0  0
   -3.3698    2.9049   -0.7623 C   0  0  0  0  0  0  0  0  0  0  0  0
   -3.6257    3.3865    0.6633 C   0  0  0  0  0  0  0  0  0  0  0  0
   -4.5397    2.3445    1.3062 C   0  0  0  0  0  0  0  0  0  0  0  0
   -4.7789    1.2728    0.2456 C   0  0  0  0  0  0  0  0  0  0  0  0
   -1.0946   -2.6851    0.9042 C   0  0  0  0  0  0  0  0  0  0  0  0
    0.0860   -3.3116    1.3538 C   0  0  0  0  0  0  0  0  0  0  0  0
    0.0621   -4.5990    1.8935 C   0  0  0  0  0  0  0  0  0  0  0  0
   -1.1412   -5.2892    1.9902 C   0  0  0  0  0  0  0  0  0  0  0  0
   -2.3174   -4.6938    1.5442 C   0  0  0  0  0  0  0  0  0  0  0  0
   -2.2952   -3.4051    1.0028 C   0  0  0  0  0  0  0  0  0  0  0  0
    6.4302    2.0843   -3.3205 N   0  0  0  0  0  0  0  0  0  0  0  0
    7.1133    1.6985   -4.4595 O   0  0  0  0  0  0  0  0  0  0  0  0
    7.8412   -0.6081   -6.0389 H   0  0  0  0  0  0  0  0  0  0  0  0
    6.2988   -0.3862   -6.8860 H   0  0  0  0  0  0  0  0  0  0  0  0
    7.4984    0.9151   -6.8826 H   0  0  0  0  0  0  0  0  0  0  0  0
    4.6418   -0.4389   -4.4978 H   0  0  0  0  0  0  0  0  0  0  0  0
    4.7379    2.1620   -1.5423 H   0  0  0  0  0  0  0  0  0  0  0  0
    2.3262    2.1010   -0.8321 H   0  0  0  0  0  0  0  0  0  0  0  0
    3.3190    0.9973    0.1424 H   0  0  0  0  0  0  0  0  0  0  0  0
    1.7368   -0.8747   -0.3956 H   0  0  0  0  0  0  0  0  0  0  0  0
    0.7175    0.2815   -1.3065 H   0  0  0  0  0  0  0  0  0  0  0  0
    0.9240    0.6839    3.5006 H   0  0  0  0  0  0  0  0  0  0  0  0
   -0.0397    0.9480    5.7362 H   0  0  0  0  0  0  0  0  0  0  0  0
   -2.3964    0.2215    6.1402 H   0  0  0  0  0  0  0  0  0  0  0  0
   -2.8798   -0.9497    2.2570 H   0  0  0  0  0  0  0  0  0  0  0  0
   -0.3428   -1.4133   -0.5430 H   0  0  0  0  0  0  0  0  0  0  0  0
   -1.8799    1.1621    0.5229 H   0  0  0  0  0  0  0  0  0  0  0  0
   -3.8369    0.9937   -1.6974 H   0  0  0  0  0  0  0  0  0  0  0  0
   -4.1054    3.3639   -1.4343 H   0  0  0  0  0  0  0  0  0  0  0  0
   -2.3718    3.1828   -1.1147 H   0  0  0  0  0  0  0  0  0  0  0  0
   -4.0770    4.3838    0.6714 H   0  0  0  0  0  0  0  0  0  0  0  0
   -2.6841    3.4493    1.2202 H   0  0  0  0  0  0  0  0  0  0  0  0
   -5.4829    2.7853    1.6424 H   0  0  0  0  0  0  0  0  0  0  0  0
   -4.0500    1.9122    2.1851 H   0  0  0  0  0  0  0  0  0  0  0  0
   -5.7081    1.5008   -0.2911 H   0  0  0  0  0  0  0  0  0  0  0  0
   -4.8837    0.2777    0.6889 H   0  0  0  0  0  0  0  0  0  0  0  0
    1.0417   -2.7951    1.2919 H   0  0  0  0  0  0  0  0  0  0  0  0
    0.9830   -5.0621    2.2387 H   0  0  0  0  0  0  0  0  0  0  0  0
   -1.1639   -6.2910    2.4102 H   0  0  0  0  0  0  0  0  0  0  0  0
   -3.2589   -5.2332    1.6152 H   0  0  0  0  0  0  0  0  0  0  0  0
   -3.2408   -2.9867    0.6652 H   0  0  0  0  0  0  0  0  0  0  0  0
  1  2  1  0
  2  3  2  0
  3  4  1  0
  4  5  1  0
  5  6  1  0
  6  7  2  0
  6  8  1  0
  8  9  1  0
  9 10  1  0
 10 11  2  0
 10 12  1  0
 12 13  1  0
 13 14  2  0
 14 15  1  0
 15 16  2  0
 16 17  1  0
 17 18  2  0
 12 19  1  0
 19 20  1  0
 20 21  2  0
 20 22  1  0
 22 23  1  0
 23 24  1  0
 24 25  1  0
 25 26  1  0
 26 27  1  0
 19 28  1  0
 28 29  2  0
 29 30  1  0
 30 31  2  0
 31 32  1  0
 32 33  2  0
  4 34  2  0
 34 35  1  0
 35  2  1  0
 18 13  1  0
 27 23  1  0
 33 28  1  0
  1 36  1  0
  1 37  1  0
  1 38  1  0
  3 39  1  0
  5 40  1  0
  8 41  1  0
  8 42  1  0
  9 43  1  0
  9 44  1  0
 14 45  1  0
 15 46  1  0
 16 47  1  0
 18 48  1  0
 19 49  1  0
 22 50  1  0
 23 51  1  0
 24 52  1  0
 24 53  1  0
 25 54  1  0
 25 55  1  0
 26 56  1  0
 26 57  1  0
 27 58  1  0
 27 59  1  0
 29 60  1  0
 30 61  1  0
 31 62  1  0
 32 63  1  0
 33 64  1  0
M  END
$$$$
