
     RDKit          3D

 53 55  0  0  0  0  0  0  0  0999 V2000
    9.0778   -1.1990    2.1587 C   0  0  0  0  0  0  0  0  0  0  0  0
    7.7820   -1.7744    2.0411 O   0  0  0  0  0  0  0  0  0  0  0  0
    6.8410   -1.0498    1.3625 C   0  0  0  0  0  0  0  0  0  0  0  0
    7.0402    0.1963    0.7622 C   0  0  0  0  0  0  0  0  0  0  0  0
    5.9882    0.8326    0.0946 C   0  0  0  0  0  0  0  0  0  0  0  0
    4.7355    0.2177    0.0356 C   0  0  0  0  0  0  0  0  0  0  0  0
    3.3893    1.0086   -0.8054 S   0  0  0  0  0  6  0  0  0  0  0  0
    3.8394    2.2954   -1.2936 O   0  0  0  0  0  0  0  0  0  0  0  0
    2.7926    0.0344   -1.6911 O   0  0  0  0  0  0  0  0  0  0  0  0
    2.3015    1.3086    0.4508 N   0  0  0  0  0  0  0  0  0  0  0  0
    2.7086    2.2898    1.4779 C   0  0  0  0  0  0  0  0  0  0  0  0
    1.7217    3.4213    1.3021 C   0  0  0  0  0  0  0  0  0  0  0  0
    0.5247    2.7560    0.8954 O   0  0  0  0  0  0  0  0  0  0  0  0
    0.9642    1.7319   -0.0230 C   0  0  0  0  0  0  0  0  0  0  0  0
   -0.0359    0.5661    0.0198 C   0  0  0  0  0  0  0  0  0  0  0  0
   -1.3865    0.9828   -0.3170 N   0  0  0  0  0  0  0  0  0  0  0  0
   -2.3693    0.0710   -0.6207 C   0  0  0  0  0  0  0  0  0  0  0  0
   -2.2081   -1.1230   -0.8276 O   0  0  0  0  0  0  0  0  0  0  0  0
   -3.7892    0.6816   -0.6698 C   0  0  0  0  0  0  0  0  0  0  0  0
   -3.9554    1.8724   -0.4481 O   0  0  0  0  0  0  0  0  0  0  0  0
   -4.7703   -0.2304   -0.9764 N   0  0  0  0  0  0  0  0  0  0  0  0
   -6.1166    0.1851   -1.2698 C   0  0  0  0  0  0  0  0  0  0  0  0
   -7.0786   -0.9679   -1.1664 C   0  0  0  0  0  0  0  0  0  0  0  0
   -7.7633   -1.1729    0.0457 C   0  0  0  0  0  0  0  0  0  0  0  0
   -8.6520   -2.2392    0.1964 C   0  0  0  0  0  0  0  0  0  0  0  0
   -8.8656   -3.1224   -0.8582 C   0  0  0  0  0  0  0  0  0  0  0  0
   -8.1865   -2.9413   -2.0628 C   0  0  0  0  0  0  0  0  0  0  0  0
   -7.2954   -1.8741   -2.2163 C   0  0  0  0  0  0  0  0  0  0  0  0
   -6.4719   -1.7306   -3.7282 Cl  0  0  0  0  0  0  0  0  0  0  0  0
    4.5265   -1.0307    0.6242 C   0  0  0  0  0  0  0  0  0  0  0  0
    5.5824   -1.6567    1.2883 C   0  0  0  0  0  0  0  0  0  0  0  0
    9.5383   -1.0561    1.1758 H   0  0  0  0  0  0  0  0  0  0  0  0
    9.7046   -1.8990    2.7201 H   0  0  0  0  0  0  0  0  0  0  0  0
    9.0415   -0.2596    2.7208 H   0  0  0  0  0  0  0  0  0  0  0  0
    8.0028    0.6970    0.7910 H   0  0  0  0  0  0  0  0  0  0  0  0
    6.1579    1.7990   -0.3759 H   0  0  0  0  0  0  0  0  0  0  0  0
    3.7422    2.6336    1.3988 H   0  0  0  0  0  0  0  0  0  0  0  0
    2.5828    1.8125    2.4557 H   0  0  0  0  0  0  0  0  0  0  0  0
    1.5495    3.9833    2.2232 H   0  0  0  0  0  0  0  0  0  0  0  0
    2.0283    4.1127    0.5094 H   0  0  0  0  0  0  0  0  0  0  0  0
    0.9947    2.1856   -1.0210 H   0  0  0  0  0  0  0  0  0  0  0  0
   -0.0877    0.1488    1.0327 H   0  0  0  0  0  0  0  0  0  0  0  0
    0.2673   -0.2426   -0.6534 H   0  0  0  0  0  0  0  0  0  0  0  0
   -1.7100    1.8909    0.0129 H   0  0  0  0  0  0  0  0  0  0  0  0
   -4.4476   -1.1473   -1.2760 H   0  0  0  0  0  0  0  0  0  0  0  0
   -6.4028    0.9855   -0.5765 H   0  0  0  0  0  0  0  0  0  0  0  0
   -6.1323    0.6376   -2.2668 H   0  0  0  0  0  0  0  0  0  0  0  0
   -7.6021   -0.4979    0.8853 H   0  0  0  0  0  0  0  0  0  0  0  0
   -9.1745   -2.3810    1.1398 H   0  0  0  0  0  0  0  0  0  0  0  0
   -9.5552   -3.9546   -0.7420 H   0  0  0  0  0  0  0  0  0  0  0  0
   -8.3521   -3.6403   -2.8791 H   0  0  0  0  0  0  0  0  0  0  0  0
    3.5553   -1.5171    0.5682 H   0  0  0  0  0  0  0  0  0  0  0  0
    5.4275   -2.6303    1.7483 H   0  0  0  0  0  0  0  0  0  0  0  0
  1  2  1  0
  2  3  1  0
  3  4  2  0
  4  5  1  0
  5  6  2  0
  6  7  1  0
  7  8  2  0
  7  9  2  0
  7 10  1  0
 10 11  1  0
 11 12  1  0
 12 13  1  0
 13 14  1  0
 14 15  1  0
 15 16  1  0
 16 17  1  0
 17 18  2  0
 17 19  1  0
 19 20  2  0
 19 21  1  0
 21 22  1  0
 22 23  1  0
 23 24  2  0
 24 25  1  0
 25 26  2  0
 26 27  1  0
 27 28  2  0
 28 29  1  0
  6 30  1  0
 30 31  2  0
 31  3  1  0
 14 10  1  0
 28 23  1  0
  1 32  1  0
  1 33  1  0
  1 34  1  0
  4 35  1  0
  5 36  1  0
 11 37  1  0
 11 38  1  0
 12 39  1  0
 12 40  1  0
 14 41  1  0
 15 42  1  0
 15 43  1  0
 16 44  1  0
 21 45  1  0
 22 46  1  0
 22 47  1  0
 24 48  1  0
 25 49  1  0
 26 50  1  0
 27 51  1  0
 30 52  1  0
 31 53  1  0
M  END
$$$$
