
     RDKit          3D

 59 62  0  0  0  0  0  0  0  0999 V2000
   -7.0853   -3.5157   -1.5470 C   0  0  0  0  0  0  0  0  0  0  0  0
   -7.1471   -2.2521   -0.7068 C   0  0  0  0  0  0  0  0  0  0  0  0
   -5.9488   -1.4387   -0.8458 N   0  0  0  0  0  0  0  0  0  0  0  0
   -5.7843   -0.4422   -1.7892 C   0  0  0  0  0  0  0  0  0  0  0  0
   -6.6341    0.0192   -2.8092 C   0  0  0  0  0  0  0  0  0  0  0  0
   -6.1872    1.0690   -3.6184 C   0  0  0  0  0  0  0  0  0  0  0  0
   -4.9339    1.6386   -3.4230 C   0  0  0  0  0  0  0  0  0  0  0  0
   -4.0916    1.1672   -2.4104 C   0  0  0  0  0  0  0  0  0  0  0  0
   -4.5202    0.1112   -1.5778 C   0  0  0  0  0  0  0  0  0  0  0  0
   -3.9199   -0.5835   -0.4808 C   0  0  0  0  0  0  0  0  0  0  0  0
   -2.6727   -0.4662    0.1778 C   0  0  0  0  0  0  0  0  0  0  0  0
   -2.3615   -1.3034    1.2534 C   0  0  0  0  0  0  0  0  0  0  0  0
   -1.1541   -1.2294    1.9820 N   0  0  0  0  0  0  0  0  0  0  0  0
   -0.0574   -0.4190    1.7204 C   0  0  0  0  0  0  0  0  0  0  0  0
    0.0790    0.3224    0.7510 O   0  0  0  0  0  0  0  0  0  0  0  0
    1.0282   -0.5171    2.8145 C   0  0  0  0  0  0  0  0  0  0  0  0
    0.5807    0.2696    4.0408 C   0  0  0  0  0  0  0  0  0  0  0  0
    2.2727    0.0400    2.3806 O   0  0  0  0  0  0  0  0  0  0  0  0
    2.9509   -0.7357    1.4998 C   0  0  0  0  0  0  0  0  0  0  0  0
    2.6556   -1.8781    1.1864 O   0  0  0  0  0  0  0  0  0  0  0  0
    4.1350   -0.0133    0.9625 C   0  0  0  0  0  0  0  0  0  0  0  0
    4.9690   -0.6817    0.0594 C   0  0  0  0  0  0  0  0  0  0  0  0
    6.0865   -0.0366   -0.4818 C   0  0  0  0  0  0  0  0  0  0  0  0
    6.3888    1.2867   -0.1336 C   0  0  0  0  0  0  0  0  0  0  0  0
    7.5246    1.8668   -0.7392 N   0  0  0  0  0  0  0  0  0  0  0  0
    7.9959    3.1620   -0.5764 C   0  0  0  0  0  0  0  0  0  0  0  0
    7.5017    4.0254    0.1430 O   0  0  0  0  0  0  0  0  0  0  0  0
    9.2233    3.4666   -1.4075 C   0  0  0  0  0  0  0  0  0  0  0  0
   10.3771    3.7106   -0.5416 C   0  0  0  0  0  0  0  0  0  0  0  0
   11.3253    3.8845    0.1043 N   0  0  0  0  0  0  0  0  0  0  0  0
    5.5583    1.9487    0.7722 C   0  0  0  0  0  0  0  0  0  0  0  0
    4.4376    1.3057    1.3162 C   0  0  0  0  0  0  0  0  0  0  0  0
   -3.2935   -2.2605    1.6646 C   0  0  0  0  0  0  0  0  0  0  0  0
   -4.5332   -2.4029    1.0276 C   0  0  0  0  0  0  0  0  0  0  0  0
   -4.8286   -1.5459   -0.0425 C   0  0  0  0  0  0  0  0  0  0  0  0
   -6.9681   -3.2795   -2.6102 H   0  0  0  0  0  0  0  0  0  0  0  0
   -6.2408   -4.1469   -1.2503 H   0  0  0  0  0  0  0  0  0  0  0  0
   -8.0052   -4.0965   -1.4259 H   0  0  0  0  0  0  0  0  0  0  0  0
   -8.0096   -1.6406   -0.9907 H   0  0  0  0  0  0  0  0  0  0  0  0
   -7.2725   -2.4978    0.3526 H   0  0  0  0  0  0  0  0  0  0  0  0
   -7.6131   -0.4170   -2.9758 H   0  0  0  0  0  0  0  0  0  0  0  0
   -6.8298    1.4440   -4.4115 H   0  0  0  0  0  0  0  0  0  0  0  0
   -4.6020    2.4551   -4.0601 H   0  0  0  0  0  0  0  0  0  0  0  0
   -3.1107    1.6130   -2.2666 H   0  0  0  0  0  0  0  0  0  0  0  0
   -1.9849    0.2932   -0.1741 H   0  0  0  0  0  0  0  0  0  0  0  0
   -1.0675   -1.8781    2.7538 H   0  0  0  0  0  0  0  0  0  0  0  0
    1.1685   -1.5663    3.1055 H   0  0  0  0  0  0  0  0  0  0  0  0
   -0.3627   -0.1099    4.4466 H   0  0  0  0  0  0  0  0  0  0  0  0
    1.3431    0.2218    4.8260 H   0  0  0  0  0  0  0  0  0  0  0  0
    0.4435    1.3298    3.7956 H   0  0  0  0  0  0  0  0  0  0  0  0
    4.7477   -1.7069   -0.2333 H   0  0  0  0  0  0  0  0  0  0  0  0
    6.7067   -0.5872   -1.1851 H   0  0  0  0  0  0  0  0  0  0  0  0
    8.0334    1.2567   -1.3677 H   0  0  0  0  0  0  0  0  0  0  0  0
    9.4408    2.6458   -2.0991 H   0  0  0  0  0  0  0  0  0  0  0  0
    9.0015    4.3478   -2.0215 H   0  0  0  0  0  0  0  0  0  0  0  0
    5.7447    2.9726    1.0807 H   0  0  0  0  0  0  0  0  0  0  0  0
    3.8088    1.8572    2.0121 H   0  0  0  0  0  0  0  0  0  0  0  0
   -3.0730   -2.9251    2.4966 H   0  0  0  0  0  0  0  0  0  0  0  0
   -5.2360   -3.1579    1.3642 H   0  0  0  0  0  0  0  0  0  0  0  0
  1  2  1  0
  2  3  1  0
  3  4  1  0
  4  5  2  0
  5  6  1  0
  6  7  2  0
  7  8  1  0
  8  9  2  0
  9 10  1  0
 10 11  2  0
 11 12  1  0
 12 13  1  0
 13 14  1  0
 14 15  2  0
 14 16  1  0
 16 17  1  0
 16 18  1  0
 18 19  1  0
 19 20  2  0
 19 21  1  0
 21 22  2  0
 22 23  1  0
 23 24  2  0
 24 25  1  0
 25 26  1  0
 26 27  2  0
 26 28  1  0
 28 29  1  0
 29 30  3  0
 24 31  1  0
 31 32  2  0
 12 33  2  0
 33 34  1  0
 34 35  2  0
 35  3  1  0
  9  4  1  0
 35 10  1  0
 32 21  1  0
  1 36  1  0
  1 37  1  0
  1 38  1  0
  2 39  1  0
  2 40  1  0
  5 41  1  0
  6 42  1  0
  7 43  1  0
  8 44  1  0
 11 45  1  0
 13 46  1  0
 16 47  1  0
 17 48  1  0
 17 49  1  0
 17 50  1  0
 22 51  1  0
 23 52  1  0
 25 53  1  0
 28 54  1  0
 28 55  1  0
 31 56  1  0
 32 57  1  0
 33 58  1  0
 34 59  1  0
M  END
$$$$
