
     RDKit          3D

 41 43  0  0  0  0  0  0  0  0999 V2000
   -3.1897    1.9386    1.7134 C   0  0  0  0  0  0  0  0  0  0  0  0
   -2.4091    1.5831    0.5558 N   0  0  0  0  0  0  0  0  0  0  0  0
   -1.2396    2.1572    0.1389 C   0  0  0  0  0  0  0  0  0  0  0  0
   -0.3754    3.3569    1.0352 S   0  0  0  0  0  0  0  0  0  0  0  0
    0.9964    3.7172   -0.1053 C   0  0  0  0  0  0  0  0  0  0  0  0
    1.9926    2.5795   -0.2834 C   0  0  0  0  0  0  0  0  0  0  0  0
    2.6936    2.5154   -1.2951 O   0  0  0  0  0  0  0  0  0  0  0  0
    2.1053    1.7184    0.8037 N   0  0  0  0  0  0  0  0  0  0  0  0
    3.0398    0.7214    0.9239 N   0  0  0  0  0  0  0  0  0  0  0  0
    3.3341    0.0439   -0.1434 C   0  0  0  0  0  0  0  0  0  0  0  0
    4.3413   -0.9958   -0.1413 C   0  0  0  0  0  0  0  0  0  0  0  0
    4.7326   -1.7787   -1.2124 C   0  0  0  0  0  0  0  0  0  0  0  0
    5.7595   -2.7068   -0.8605 C   0  0  0  0  0  0  0  0  0  0  0  0
    6.1071   -2.5906    0.4680 C   0  0  0  0  0  0  0  0  0  0  0  0
    7.1039   -3.3626    1.1640 N   0  0  0  0  0  4  0  0  0  0  0  0
    7.6996   -4.2179    0.4940 O   0  0  0  0  0  0  0  0  0  0  0  0
    7.2997   -3.1307    2.3638 O   0  0  0  0  0  1  0  0  0  0  0  0
    5.2172   -1.3928    1.2773 S   0  0  0  0  0  0  0  0  0  0  0  0
   -0.8797    1.6483   -1.0126 N   0  0  0  0  0  0  0  0  0  0  0  0
   -1.8132    0.7037   -1.3570 N   0  0  0  0  0  0  0  0  0  0  0  0
   -2.7164    0.6308   -0.3946 C   0  0  0  0  0  0  0  0  0  0  0  0
   -3.8551   -0.2839   -0.3800 C   0  0  0  0  0  0  0  0  0  0  0  0
   -4.6538   -0.4058   -1.5262 C   0  0  0  0  0  0  0  0  0  0  0  0
   -5.7460   -1.2781   -1.5441 C   0  0  0  0  0  0  0  0  0  0  0  0
   -6.0372   -2.0433   -0.4177 C   0  0  0  0  0  0  0  0  0  0  0  0
   -7.3813   -3.1161   -0.4357 Cl  0  0  0  0  0  0  0  0  0  0  0  0
   -5.2414   -1.9493    0.7224 C   0  0  0  0  0  0  0  0  0  0  0  0
   -4.1493   -1.0759    0.7393 C   0  0  0  0  0  0  0  0  0  0  0  0
   -2.7882    1.4013    2.5759 H   0  0  0  0  0  0  0  0  0  0  0  0
   -4.2373    1.6746    1.5539 H   0  0  0  0  0  0  0  0  0  0  0  0
   -3.1373    3.0174    1.8772 H   0  0  0  0  0  0  0  0  0  0  0  0
    1.5470    4.5781    0.2869 H   0  0  0  0  0  0  0  0  0  0  0  0
    0.5899    3.9904   -1.0846 H   0  0  0  0  0  0  0  0  0  0  0  0
    1.7212    2.0342    1.6899 H   0  0  0  0  0  0  0  0  0  0  0  0
    2.8100    0.1972   -1.1038 H   0  0  0  0  0  0  0  0  0  0  0  0
    4.3064   -1.6880   -2.2058 H   0  0  0  0  0  0  0  0  0  0  0  0
    6.2127   -3.4127   -1.5478 H   0  0  0  0  0  0  0  0  0  0  0  0
   -4.4238    0.1796   -2.4156 H   0  0  0  0  0  0  0  0  0  0  0  0
   -6.3564   -1.3582   -2.4399 H   0  0  0  0  0  0  0  0  0  0  0  0
   -5.4584   -2.5603    1.5949 H   0  0  0  0  0  0  0  0  0  0  0  0
   -3.5217   -1.0398    1.6266 H   0  0  0  0  0  0  0  0  0  0  0  0
  1  2  1  0
  2  3  1  0
  3  4  1  0
  4  5  1  0
  5  6  1  0
  6  7  2  0
  6  8  1  0
  8  9  1  0
  9 10  2  3
 10 11  1  0
 11 12  2  0
 12 13  1  0
 13 14  2  0
 14 15  1  0
 15 16  2  0
 15 17  1  0
 14 18  1  0
  3 19  2  0
 19 20  1  0
 20 21  2  0
 21 22  1  0
 22 23  2  0
 23 24  1  0
 24 25  2  0
 25 26  1  0
 25 27  1  0
 27 28  2  0
 21  2  1  0
 28 22  1  0
 18 11  1  0
  1 29  1  0
  1 30  1  0
  1 31  1  0
  5 32  1  0
  5 33  1  0
  8 34  1  0
 10 35  1  0
 12 36  1  0
 13 37  1  0
 23 38  1  0
 24 39  1  0
 27 40  1  0
 28 41  1  0
M  CHG  2  15   1  17  -1
M  END
$$$$
