
     RDKit          3D

 54 57  0  0  0  0  0  0  0  0999 V2000
   -6.2637    3.6745   -0.1850 C   0  0  0  0  0  0  0  0  0  0  0  0
   -5.0891    3.4870   -0.9691 O   0  0  0  0  0  0  0  0  0  0  0  0
   -4.0698    2.7821   -0.3938 C   0  0  0  0  0  0  0  0  0  0  0  0
   -4.1196    2.1214    0.8339 C   0  0  0  0  0  0  0  0  0  0  0  0
   -3.0003    1.4293    1.3112 C   0  0  0  0  0  0  0  0  0  0  0  0
   -1.8237    1.3878    0.5532 C   0  0  0  0  0  0  0  0  0  0  0  0
   -0.6997    0.6645    1.0245 N   0  0  0  0  0  0  0  0  0  0  0  0
   -0.6728   -0.6265    1.5466 C   0  0  0  0  0  0  0  0  0  0  0  0
   -1.8057   -1.6003    1.5506 C   0  0  0  0  0  0  0  0  0  0  0  0
   -2.1694   -2.0722    0.1762 C   0  0  0  0  0  0  0  0  0  0  0  0
   -3.2817   -1.7553   -0.5808 C   0  0  0  0  0  0  0  0  0  0  0  0
   -3.1840   -2.4425   -1.8092 C   0  0  0  0  0  0  0  0  0  0  0  0
   -2.0221   -3.1722   -1.7759 C   0  0  0  0  0  0  0  0  0  0  0  0
   -1.4083   -2.9452   -0.5710 N   0  0  0  0  0  0  0  0  0  0  0  0
   -0.1457   -3.5453   -0.1950 C   0  0  0  0  0  0  0  0  0  0  0  0
    0.5574   -0.9261    1.9239 N   0  0  0  0  0  0  0  0  0  0  0  0
    1.3605    0.1293    1.6312 N   0  0  0  0  0  0  0  0  0  0  0  0
    0.6242    1.0661    1.0797 C   0  0  0  0  0  0  0  0  0  0  0  0
    1.2266    2.6346    0.6471 S   0  0  0  0  0  0  0  0  0  0  0  0
    2.8895    2.6025    1.3764 C   0  0  0  0  0  0  0  0  0  0  0  0
    3.8978    1.9557    0.4411 C   0  0  0  0  0  0  0  0  0  0  0  0
    4.6799    2.6493   -0.2026 O   0  0  0  0  0  0  0  0  0  0  0  0
    3.8404    0.5734    0.4387 N   0  0  0  0  0  0  0  0  0  0  0  0
    4.6548   -0.3283   -0.2682 C   0  0  0  0  0  0  0  0  0  0  0  0
    5.7537    0.0521   -1.0419 C   0  0  0  0  0  0  0  0  0  0  0  0
    6.5289   -0.9131   -1.6993 C   0  0  0  0  0  0  0  0  0  0  0  0
    6.2009   -2.2625   -1.5964 C   0  0  0  0  0  0  0  0  0  0  0  0
    5.0999   -2.6353   -0.8333 C   0  0  0  0  0  0  0  0  0  0  0  0
    4.7635   -3.9293   -0.7494 F   0  0  0  0  0  0  0  0  0  0  0  0
    4.3306   -1.6864   -0.1684 C   0  0  0  0  0  0  0  0  0  0  0  0
   -1.7702    2.0511   -0.6756 C   0  0  0  0  0  0  0  0  0  0  0  0
   -2.8935    2.7400   -1.1424 C   0  0  0  0  0  0  0  0  0  0  0  0
   -6.9521    4.3013   -0.7588 H   0  0  0  0  0  0  0  0  0  0  0  0
   -6.7656    2.7197    0.0051 H   0  0  0  0  0  0  0  0  0  0  0  0
   -6.0384    4.1966    0.7507 H   0  0  0  0  0  0  0  0  0  0  0  0
   -5.0194    2.1233    1.4428 H   0  0  0  0  0  0  0  0  0  0  0  0
   -3.0640    0.9631    2.2908 H   0  0  0  0  0  0  0  0  0  0  0  0
   -2.6851   -1.1821    2.0478 H   0  0  0  0  0  0  0  0  0  0  0  0
   -1.5281   -2.4663    2.1643 H   0  0  0  0  0  0  0  0  0  0  0  0
   -4.0808   -1.0887   -0.2816 H   0  0  0  0  0  0  0  0  0  0  0  0
   -3.8862   -2.4122   -2.6278 H   0  0  0  0  0  0  0  0  0  0  0  0
   -1.5912   -3.8343   -2.5127 H   0  0  0  0  0  0  0  0  0  0  0  0
   -0.1282   -3.7264    0.8795 H   0  0  0  0  0  0  0  0  0  0  0  0
   -0.0349   -4.4985   -0.7178 H   0  0  0  0  0  0  0  0  0  0  0  0
    0.6505   -2.8605   -0.4887 H   0  0  0  0  0  0  0  0  0  0  0  0
    2.9020    2.1108    2.3524 H   0  0  0  0  0  0  0  0  0  0  0  0
    3.2063    3.6400    1.5436 H   0  0  0  0  0  0  0  0  0  0  0  0
    3.0796    0.1547    0.9741 H   0  0  0  0  0  0  0  0  0  0  0  0
    6.0390    1.0952   -1.1521 H   0  0  0  0  0  0  0  0  0  0  0  0
    7.3844   -0.6013   -2.2896 H   0  0  0  0  0  0  0  0  0  0  0  0
    6.7941   -3.0188   -2.0976 H   0  0  0  0  0  0  0  0  0  0  0  0
    3.4799   -2.0241    0.4178 H   0  0  0  0  0  0  0  0  0  0  0  0
   -0.8947    2.0085   -1.3126 H   0  0  0  0  0  0  0  0  0  0  0  0
   -2.8562    3.2397   -2.1066 H   0  0  0  0  0  0  0  0  0  0  0  0
  1  2  1  0
  2  3  1  0
  3  4  2  0
  4  5  1  0
  5  6  2  0
  6  7  1  0
  7  8  1  0
  8  9  1  0
  9 10  1  0
 10 11  2  0
 11 12  1  0
 12 13  2  0
 13 14  1  0
 14 15  1  0
  8 16  2  0
 16 17  1  0
 17 18  2  0
 18 19  1  0
 19 20  1  0
 20 21  1  0
 21 22  2  0
 21 23  1  0
 23 24  1  0
 24 25  2  0
 25 26  1  0
 26 27  2  0
 27 28  1  0
 28 29  1  0
 28 30  2  0
  6 31  1  0
 31 32  2  0
 32  3  1  0
 18  7  1  0
 30 24  1  0
 14 10  1  0
  1 33  1  0
  1 34  1  0
  1 35  1  0
  4 36  1  0
  5 37  1  0
  9 38  1  0
  9 39  1  0
 11 40  1  0
 12 41  1  0
 13 42  1  0
 15 43  1  0
 15 44  1  0
 15 45  1  0
 20 46  1  0
 20 47  1  0
 23 48  1  0
 25 49  1  0
 26 50  1  0
 27 51  1  0
 30 52  1  0
 31 53  1  0
 32 54  1  0
M  END
$$$$
