
     RDKit          3D

 46 49  0  0  0  0  0  0  0  0999 V2000
    2.1787   -0.2970    1.1819 O   0  0  0  0  0  0  0  0  0  0  0  0
    2.1506   -1.3181    0.5049 C   0  0  0  0  0  0  0  0  0  0  0  0
    0.9105   -2.1827    0.3201 C   0  0  0  0  0  0  0  0  0  0  0  0
   -0.3172   -1.4429    0.6661 N   0  0  0  0  0  4  0  0  0  0  0  0
   -1.2431   -0.9002   -0.2236 C   0  0  0  0  0  0  0  0  0  0  0  0
   -2.2165   -0.2178    0.4982 C   0  0  0  0  0  0  0  0  0  0  0  0
   -3.4717    0.5235   -0.0942 C   0  0  0  0  0  0  0  0  0  0  0  0
   -4.4221    1.1046    0.7464 C   0  0  0  0  0  0  0  0  0  0  0  0
   -5.5349    1.7594    0.2049 C   0  0  0  0  0  0  0  0  0  0  0  0
   -5.7086    1.8372   -1.1789 C   0  0  0  0  0  0  0  0  0  0  0  0
   -7.1038    2.6590   -1.7725 Cl  0  0  0  0  0  0  0  0  0  0  0  0
   -4.7618    1.2529   -2.0233 C   0  0  0  0  0  0  0  0  0  0  0  0
   -4.8994    1.2992   -3.7443 Cl  0  0  0  0  0  0  0  0  0  0  0  0
   -3.6473    0.5965   -1.4819 C   0  0  0  0  0  0  0  0  0  0  0  0
   -1.7987   -0.3612    1.8093 N   0  0  0  0  0  0  0  0  0  0  0  0
   -0.6828   -1.0818    1.8920 C   0  0  0  0  0  0  0  0  0  0  0  0
   -0.2042   -1.2616    3.2824 C   0  0  0  0  0  0  0  0  0  0  0  0
   -1.0340   -0.2105    4.0446 C   0  0  0  0  0  0  0  0  0  0  0  0
   -2.2420    0.0990    3.1188 C   0  0  0  0  0  0  0  0  0  0  0  0
    3.1987   -1.8604   -0.1682 O   0  0  0  0  0  0  0  0  0  0  0  0
    4.3920   -1.0619   -0.2101 C   0  0  0  0  0  0  0  0  0  0  0  0
    4.3251   -0.1547   -1.4098 C   0  0  0  0  0  0  0  0  0  0  0  0
    4.0244    1.2062   -1.2591 C   0  0  0  0  0  0  0  0  0  0  0  0
    3.9386    2.0390   -2.3758 C   0  0  0  0  0  0  0  0  0  0  0  0
    4.1465    1.5193   -3.6519 C   0  0  0  0  0  0  0  0  0  0  0  0
    4.4391    0.1666   -3.8141 C   0  0  0  0  0  0  0  0  0  0  0  0
    4.5255   -0.6683   -2.6992 C   0  0  0  0  0  0  0  0  0  0  0  0
    0.8372   -2.5006   -0.7248 H   0  0  0  0  0  0  0  0  0  0  0  0
    0.9808   -3.0600    0.9699 H   0  0  0  0  0  0  0  0  0  0  0  0
   -1.0924   -1.0766   -1.2754 H   0  0  0  0  0  0  0  0  0  0  0  0
   -4.3425    1.0598    1.8257 H   0  0  0  0  0  0  0  0  0  0  0  0
   -6.2707    2.2079    0.8710 H   0  0  0  0  0  0  0  0  0  0  0  0
   -2.9295    0.1575   -2.1694 H   0  0  0  0  0  0  0  0  0  0  0  0
    0.8693   -1.0833    3.3308 H   0  0  0  0  0  0  0  0  0  0  0  0
   -0.4604   -2.2841    3.5680 H   0  0  0  0  0  0  0  0  0  0  0  0
   -1.3372   -0.5458    5.0401 H   0  0  0  0  0  0  0  0  0  0  0  0
   -0.4357    0.7006    4.1636 H   0  0  0  0  0  0  0  0  0  0  0  0
   -2.4608    1.1690    3.1051 H   0  0  0  0  0  0  0  0  0  0  0  0
   -3.1237   -0.4773    3.4138 H   0  0  0  0  0  0  0  0  0  0  0  0
    4.5471   -0.5066    0.7228 H   0  0  0  0  0  0  0  0  0  0  0  0
    5.2445   -1.7436   -0.3083 H   0  0  0  0  0  0  0  0  0  0  0  0
    3.8594    1.6295   -0.2699 H   0  0  0  0  0  0  0  0  0  0  0  0
    3.7175    3.0964   -2.2511 H   0  0  0  0  0  0  0  0  0  0  0  0
    4.0887    2.1709   -4.5207 H   0  0  0  0  0  0  0  0  0  0  0  0
    4.6081   -0.2353   -4.8105 H   0  0  0  0  0  0  0  0  0  0  0  0
    4.7586   -1.7214   -2.8435 H   0  0  0  0  0  0  0  0  0  0  0  0
  1  2  2  0
  2  3  1  0
  3  4  1  0
  4  5  1  0
  5  6  2  0
  6  7  1  0
  7  8  2  0
  8  9  1  0
  9 10  2  0
 10 11  1  0
 10 12  1  0
 12 13  1  0
 12 14  2  0
  6 15  1  0
 15 16  1  0
 16 17  1  0
 17 18  1  0
 18 19  1  0
  2 20  1  0
 20 21  1  0
 21 22  1  0
 22 23  2  0
 23 24  1  0
 24 25  2  0
 25 26  1  0
 26 27  2  0
 16  4  2  0
 27 22  1  0
 14  7  1  0
 19 15  1  0
  3 28  1  0
  3 29  1  0
  5 30  1  0
  8 31  1  0
  9 32  1  0
 14 33  1  0
 17 34  1  0
 17 35  1  0
 18 36  1  0
 18 37  1  0
 19 38  1  0
 19 39  1  0
 21 40  1  0
 21 41  1  0
 23 42  1  0
 24 43  1  0
 25 44  1  0
 26 45  1  0
 27 46  1  0
M  CHG  1   4   1
M  END
$$$$
