
     RDKit          3D

 52 56  0  0  0  0  0  0  0  0999 V2000
    1.5590   -1.3783   -0.3717 O   0  0  0  0  0  0  0  0  0  0  0  0
    1.9927   -0.5636   -1.1850 C   0  0  0  0  0  0  0  0  0  0  0  0
    1.6034   -0.5880   -2.6607 C   0  0  0  0  0  0  0  0  0  0  0  0
   -0.0035   -1.3623   -2.9509 S   0  0  0  0  0  0  0  0  0  0  0  0
   -1.0670   -0.2002   -2.2205 C   0  0  0  0  0  0  0  0  0  0  0  0
   -0.7368    1.0472   -1.9667 N   0  0  0  0  0  0  0  0  0  0  0  0
   -1.8670    1.7054   -1.5681 N   0  0  0  0  0  0  0  0  0  0  0  0
   -2.8757    0.8558   -1.5881 C   0  0  0  0  0  0  0  0  0  0  0  0
   -4.2604    1.1954   -1.1358 C   0  0  0  0  0  0  0  0  0  0  0  0
   -4.6893    0.4791    0.1163 C   0  0  0  0  0  0  0  0  0  0  0  0
   -4.0580    0.4283    1.3480 C   0  0  0  0  0  0  0  0  0  0  0  0
   -4.7793   -0.3595    2.2945 C   0  0  0  0  0  0  0  0  0  0  0  0
   -5.9427   -0.8691    1.7629 C   0  0  0  0  0  0  0  0  0  0  0  0
   -6.1679   -0.3978    0.1360 S   0  0  0  0  0  0  0  0  0  0  0  0
   -2.4159   -0.3962   -1.9900 N   0  0  0  0  0  0  0  0  0  0  0  0
   -3.1530   -1.6037   -2.1079 C   0  0  0  0  0  0  0  0  0  0  0  0
   -2.6490   -2.7839   -1.5412 C   0  0  0  0  0  0  0  0  0  0  0  0
   -3.3737   -3.9715   -1.6308 C   0  0  0  0  0  0  0  0  0  0  0  0
   -4.5983   -3.9899   -2.2901 C   0  0  0  0  0  0  0  0  0  0  0  0
   -5.0998   -2.8206   -2.8631 C   0  0  0  0  0  0  0  0  0  0  0  0
   -4.3807   -1.6262   -2.7760 C   0  0  0  0  0  0  0  0  0  0  0  0
    2.9358    0.4279   -0.9250 N   0  0  0  0  0  0  0  0  0  0  0  0
    3.6015    0.6930    0.2929 C   0  0  0  0  0  0  0  0  0  0  0  0
    3.3855   -0.0158    1.4808 C   0  0  0  0  0  0  0  0  0  0  0  0
    4.1056    0.3039    2.6440 C   0  0  0  0  0  0  0  0  0  0  0  0
    5.0520    1.3264    2.6222 C   0  0  0  0  0  0  0  0  0  0  0  0
    5.2684    2.0430    1.4412 C   0  0  0  0  0  0  0  0  0  0  0  0
    4.5533    1.7262    0.2800 C   0  0  0  0  0  0  0  0  0  0  0  0
    6.1957    3.0482    1.3283 O   0  0  0  0  0  0  0  0  0  0  0  0
    6.6205    3.5139    2.6160 C   0  0  0  0  0  0  0  0  0  0  0  0
    6.9150    2.3488    3.5478 C   0  0  0  0  0  0  0  0  0  0  0  0
    5.7318    1.5751    3.7897 O   0  0  0  0  0  0  0  0  0  0  0  0
    1.6075    0.4236   -3.0852 H   0  0  0  0  0  0  0  0  0  0  0  0
    2.3682   -1.1752   -3.1862 H   0  0  0  0  0  0  0  0  0  0  0  0
   -4.9706    1.0426   -1.9559 H   0  0  0  0  0  0  0  0  0  0  0  0
   -4.2951    2.2729   -0.9260 H   0  0  0  0  0  0  0  0  0  0  0  0
   -3.1133    0.9239    1.5537 H   0  0  0  0  0  0  0  0  0  0  0  0
   -4.4622   -0.5431    3.3160 H   0  0  0  0  0  0  0  0  0  0  0  0
   -6.6738   -1.4924    2.2509 H   0  0  0  0  0  0  0  0  0  0  0  0
   -1.7191   -2.7961   -0.9857 H   0  0  0  0  0  0  0  0  0  0  0  0
   -2.9851   -4.8829   -1.1773 H   0  0  0  0  0  0  0  0  0  0  0  0
   -5.1632   -4.9175   -2.3596 H   0  0  0  0  0  0  0  0  0  0  0  0
   -6.0531   -2.8410   -3.3813 H   0  0  0  0  0  0  0  0  0  0  0  0
   -4.7835   -0.7435   -3.2660 H   0  0  0  0  0  0  0  0  0  0  0  0
    3.1806    1.0424   -1.6971 H   0  0  0  0  0  0  0  0  0  0  0  0
    2.6588   -0.8224    1.5415 H   0  0  0  0  0  0  0  0  0  0  0  0
    3.9315   -0.2648    3.5620 H   0  0  0  0  0  0  0  0  0  0  0  0
    4.7539    2.2950   -0.6246 H   0  0  0  0  0  0  0  0  0  0  0  0
    7.5215    4.1154    2.4668 H   0  0  0  0  0  0  0  0  0  0  0  0
    5.8363    4.1687    3.0217 H   0  0  0  0  0  0  0  0  0  0  0  0
    7.2728    2.7229    4.5129 H   0  0  0  0  0  0  0  0  0  0  0  0
    7.6857    1.6805    3.1343 H   0  0  0  0  0  0  0  0  0  0  0  0
  1  2  2  0
  2  3  1  0
  3  4  1  0
  4  5  1  0
  5  6  2  0
  6  7  1  0
  7  8  2  0
  8  9  1  0
  9 10  1  0
 10 11  2  0
 11 12  1  0
 12 13  2  0
 13 14  1  0
  8 15  1  0
 15 16  1  0
 16 17  2  0
 17 18  1  0
 18 19  2  0
 19 20  1  0
 20 21  2  0
  2 22  1  0
 22 23  1  0
 23 24  2  0
 24 25  1  0
 25 26  2  0
 26 27  1  0
 27 28  2  0
 27 29  1  0
 29 30  1  0
 30 31  1  0
 31 32  1  0
 15  5  1  0
 21 16  1  0
 28 23  1  0
 14 10  1  0
 32 26  1  0
  3 33  1  0
  3 34  1  0
  9 35  1  0
  9 36  1  0
 11 37  1  0
 12 38  1  0
 13 39  1  0
 17 40  1  0
 18 41  1  0
 19 42  1  0
 20 43  1  0
 21 44  1  0
 22 45  1  0
 24 46  1  0
 25 47  1  0
 28 48  1  0
 30 49  1  0
 30 50  1  0
 31 51  1  0
 31 52  1  0
M  END
$$$$
