
     RDKit          3D

 34 36  0  0  0  0  0  0  0  0999 V2000
    4.7964    1.8643   -0.4955 C   0  0  0  0  0  0  0  0  0  0  0  0
    4.5542    0.5748    0.1154 N   0  0  0  0  0  0  0  0  0  0  0  0
    5.6126   -0.2188    0.3867 N   0  0  0  0  0  0  0  0  0  0  0  0
    5.0608   -1.2984    0.9385 C   0  0  0  0  0  0  0  0  0  0  0  0
    3.6606   -1.2058    1.0039 C   0  0  0  0  0  0  0  0  0  0  0  0
    2.6609   -2.3923    1.6881 Cl  0  0  0  0  0  0  0  0  0  0  0  0
    3.3346    0.0163    0.4419 C   0  0  0  0  0  0  0  0  0  0  0  0
    2.0620    0.6816    0.2290 C   0  0  0  0  0  0  0  0  0  0  0  0
    2.0142    1.8975    0.0783 O   0  0  0  0  0  0  0  0  0  0  0  0
    0.9782   -0.1732    0.1628 N   0  0  0  0  0  0  0  0  0  0  0  0
   -0.3633    0.1619    0.0177 C   0  0  0  0  0  0  0  0  0  0  0  0
   -0.8879    1.7894    0.1422 S   0  0  0  0  0  0  0  0  0  0  0  0
   -2.4743    1.3280   -0.0537 C   0  0  0  0  0  0  0  0  0  0  0  0
   -2.6509   -0.0173   -0.2222 C   0  0  0  0  0  0  0  0  0  0  0  0
   -1.4165   -0.7361   -0.2035 C   0  0  0  0  0  0  0  0  0  0  0  0
   -1.1889   -2.1702   -0.3684 C   0  0  0  0  0  0  0  0  0  0  0  0
   -2.2457   -2.9214   -0.7934 N   0  0  0  0  0  0  0  0  0  0  0  0
   -0.0977   -2.7018   -0.1809 O   0  0  0  0  0  0  0  0  0  0  0  0
   -4.0989   -0.3310   -0.3630 C   0  0  0  0  0  0  0  0  0  0  0  0
   -4.7834    0.9919    0.1008 C   0  0  0  0  0  0  0  0  0  0  0  0
   -3.7248    2.1209   -0.0604 C   0  0  0  0  0  0  0  0  0  0  0  0
    4.1901    1.9440   -1.4009 H   0  0  0  0  0  0  0  0  0  0  0  0
    4.5396    2.6419    0.2275 H   0  0  0  0  0  0  0  0  0  0  0  0
    5.8540    1.9457   -0.7617 H   0  0  0  0  0  0  0  0  0  0  0  0
    5.7013   -2.1035    1.2745 H   0  0  0  0  0  0  0  0  0  0  0  0
    1.1613   -1.1766    0.1759 H   0  0  0  0  0  0  0  0  0  0  0  0
   -3.0559   -2.5011   -1.2190 H   0  0  0  0  0  0  0  0  0  0  0  0
   -2.0368   -3.8822   -1.0298 H   0  0  0  0  0  0  0  0  0  0  0  0
   -4.3455   -0.5377   -1.4098 H   0  0  0  0  0  0  0  0  0  0  0  0
   -4.4149   -1.1716    0.2607 H   0  0  0  0  0  0  0  0  0  0  0  0
   -5.7041    1.2006   -0.4526 H   0  0  0  0  0  0  0  0  0  0  0  0
   -5.0503    0.9013    1.1622 H   0  0  0  0  0  0  0  0  0  0  0  0
   -3.8538    2.6359   -1.0179 H   0  0  0  0  0  0  0  0  0  0  0  0
   -3.7871    2.8434    0.7578 H   0  0  0  0  0  0  0  0  0  0  0  0
  1  2  1  0
  2  3  1  0
  3  4  2  0
  4  5  1  0
  5  6  1  0
  5  7  2  0
  7  8  1  0
  8  9  2  0
  8 10  1  0
 10 11  1  0
 11 12  1  0
 12 13  1  0
 13 14  2  0
 14 15  1  0
 15 16  1  0
 16 17  1  0
 16 18  2  0
 14 19  1  0
 19 20  1  0
 20 21  1  0
  7  2  1  0
 15 11  2  0
 21 13  1  0
  1 22  1  0
  1 23  1  0
  1 24  1  0
  4 25  1  0
 10 26  1  0
 17 27  1  0
 17 28  1  0
 19 29  1  0
 19 30  1  0
 20 31  1  0
 20 32  1  0
 21 33  1  0
 21 34  1  0
M  END
$$$$
