
     RDKit          3D

 42 44  0  0  0  0  0  0  0  0999 V2000
    6.7346    0.4895    1.6477 C   0  0  0  0  0  0  0  0  0  0  0  0
    5.3953    0.9059    1.8829 O   0  0  0  0  0  0  0  0  0  0  0  0
    4.4551    0.5141    0.9703 C   0  0  0  0  0  0  0  0  0  0  0  0
    4.6809   -0.2939   -0.1449 C   0  0  0  0  0  0  0  0  0  0  0  0
    3.6338   -0.6257   -1.0139 C   0  0  0  0  0  0  0  0  0  0  0  0
    4.0020   -1.4153   -2.0702 O   0  0  0  0  0  0  0  0  0  0  0  0
    2.9696   -1.8383   -2.9535 C   0  0  0  0  0  0  0  0  0  0  0  0
    2.3481   -0.1472   -0.7625 C   0  0  0  0  0  0  0  0  0  0  0  0
    2.1089    0.6477    0.3680 C   0  0  0  0  0  0  0  0  0  0  0  0
    0.7483    1.1759    0.6821 C   0  0  0  0  0  0  0  0  0  0  0  0
    0.6707    2.2728    1.2208 O   0  0  0  0  0  0  0  0  0  0  0  0
   -0.2840    0.3232    0.3454 N   0  0  0  0  0  0  0  0  0  0  0  0
   -1.6481    0.5536    0.4565 C   0  0  0  0  0  0  0  0  0  0  0  0
   -2.2595    2.0572    0.9995 S   0  0  0  0  0  0  0  0  0  0  0  0
   -3.8250    1.5225    0.8090 C   0  0  0  0  0  0  0  0  0  0  0  0
   -3.9285    0.2386    0.3490 C   0  0  0  0  0  0  0  0  0  0  0  0
   -2.6537   -0.3679    0.1392 C   0  0  0  0  0  0  0  0  0  0  0  0
   -2.3419   -1.7106   -0.3460 C   0  0  0  0  0  0  0  0  0  0  0  0
   -3.3664   -2.6116   -0.3641 N   0  0  0  0  0  0  0  0  0  0  0  0
   -1.2130   -2.0532   -0.6928 O   0  0  0  0  0  0  0  0  0  0  0  0
   -5.3590   -0.1348    0.1827 C   0  0  0  0  0  0  0  0  0  0  0  0
   -6.0856    1.2425    0.2796 C   0  0  0  0  0  0  0  0  0  0  0  0
   -5.1203    2.2041    1.0323 C   0  0  0  0  0  0  0  0  0  0  0  0
    3.1663    0.9851    1.2205 C   0  0  0  0  0  0  0  0  0  0  0  0
    6.8204   -0.6014    1.6860 H   0  0  0  0  0  0  0  0  0  0  0  0
    7.3577    0.9005    2.4479 H   0  0  0  0  0  0  0  0  0  0  0  0
    7.1102    0.8835    0.6975 H   0  0  0  0  0  0  0  0  0  0  0  0
    5.6685   -0.6827   -0.3723 H   0  0  0  0  0  0  0  0  0  0  0  0
    3.4223   -2.4864   -3.7101 H   0  0  0  0  0  0  0  0  0  0  0  0
    2.5217   -0.9841   -3.4716 H   0  0  0  0  0  0  0  0  0  0  0  0
    2.2105   -2.4237   -2.4240 H   0  0  0  0  0  0  0  0  0  0  0  0
    1.5339   -0.3615   -1.4459 H   0  0  0  0  0  0  0  0  0  0  0  0
   -0.0525   -0.6082    0.0052 H   0  0  0  0  0  0  0  0  0  0  0  0
   -4.2101   -2.4541    0.1644 H   0  0  0  0  0  0  0  0  0  0  0  0
   -3.1118   -3.5694   -0.5639 H   0  0  0  0  0  0  0  0  0  0  0  0
   -5.5641   -0.6173   -0.7769 H   0  0  0  0  0  0  0  0  0  0  0  0
   -5.6804   -0.7906    0.9987 H   0  0  0  0  0  0  0  0  0  0  0  0
   -7.0619    1.1647    0.7679 H   0  0  0  0  0  0  0  0  0  0  0  0
   -6.2544    1.6278   -0.7349 H   0  0  0  0  0  0  0  0  0  0  0  0
   -5.1596    3.2134    0.6141 H   0  0  0  0  0  0  0  0  0  0  0  0
   -5.3640    2.2368    2.0991 H   0  0  0  0  0  0  0  0  0  0  0  0
    2.9851    1.6185    2.0873 H   0  0  0  0  0  0  0  0  0  0  0  0
  1  2  1  0
  2  3  1  0
  3  4  2  0
  4  5  1  0
  5  6  1  0
  6  7  1  0
  5  8  2  0
  8  9  1  0
  9 10  1  0
 10 11  2  0
 10 12  1  0
 12 13  1  0
 13 14  1  0
 14 15  1  0
 15 16  2  0
 16 17  1  0
 17 18  1  0
 18 19  1  0
 18 20  2  0
 16 21  1  0
 21 22  1  0
 22 23  1  0
  9 24  2  0
 24  3  1  0
 17 13  2  0
 23 15  1  0
  1 25  1  0
  1 26  1  0
  1 27  1  0
  4 28  1  0
  7 29  1  0
  7 30  1  0
  7 31  1  0
  8 32  1  0
 12 33  1  0
 19 34  1  0
 19 35  1  0
 21 36  1  0
 21 37  1  0
 22 38  1  0
 22 39  1  0
 23 40  1  0
 23 41  1  0
 24 42  1  0
M  END
$$$$
