
     RDKit          3D

 59 62  0  0  0  0  0  0  0  0999 V2000
    5.0021    1.3337    5.7554 C   0  0  0  0  0  0  0  0  0  0  0  0
    5.6908    1.0260    4.5499 O   0  0  0  0  0  0  0  0  0  0  0  0
    4.9748    1.1323    3.3892 C   0  0  0  0  0  0  0  0  0  0  0  0
    3.7173    1.7174    3.2542 C   0  0  0  0  0  0  0  0  0  0  0  0
    3.0960    1.7628    1.9996 C   0  0  0  0  0  0  0  0  0  0  0  0
    3.7258    1.2298    0.8656 C   0  0  0  0  0  0  0  0  0  0  0  0
    3.0097    1.3160   -0.4451 C   0  0  0  0  0  0  0  0  0  0  0  0
    1.8632    1.7702   -0.4866 O   0  0  0  0  0  0  0  0  0  0  0  0
    3.6886    0.8589   -1.7172 C   0  0  0  0  0  0  0  0  0  0  0  0
    3.5188   -0.9122   -2.0591 S   0  0  0  0  0  0  0  0  0  0  0  0
    2.1630   -1.3633   -1.0909 C   0  0  0  0  0  0  0  0  0  0  0  0
    2.2543   -1.9101    0.0975 N   0  0  0  0  0  0  0  0  0  0  0  0
    0.9790   -2.0816    0.5755 N   0  0  0  0  0  0  0  0  0  0  0  0
    0.1355   -1.6380   -0.3378 C   0  0  0  0  0  0  0  0  0  0  0  0
   -1.3539   -1.5951   -0.2223 C   0  0  0  0  0  0  0  0  0  0  0  0
   -1.8700   -0.2333   -0.0733 N   0  0  0  0  0  0  0  0  0  0  0  0
   -3.2432   -0.0389    0.1467 C   0  0  0  0  0  0  0  0  0  0  0  0
   -4.2100   -0.9372   -0.3298 C   0  0  0  0  0  0  0  0  0  0  0  0
   -5.5790   -0.7033   -0.1607 C   0  0  0  0  0  0  0  0  0  0  0  0
   -6.0250    0.4505    0.4801 C   0  0  0  0  0  0  0  0  0  0  0  0
   -7.4908    0.7218    0.6359 C   0  0  0  0  0  0  0  0  0  0  0  0
   -5.0796    1.3868    0.9067 C   0  0  0  0  0  0  0  0  0  0  0  0
   -3.6992    1.1648    0.7311 C   0  0  0  0  0  0  0  0  0  0  0  0
   -2.7411    2.2339    1.1905 C   0  0  0  0  0  0  0  0  0  0  0  0
    0.8496   -1.1860   -1.4264 N   0  0  0  0  0  0  0  0  0  0  0  0
    0.2995   -0.6195   -2.6413 C   0  0  0  0  0  0  0  0  0  0  0  0
   -0.0473   -1.6995   -3.6002 C   0  0  0  0  0  0  0  0  0  0  0  0
    0.6979   -2.5866   -4.3516 C   0  0  0  0  0  0  0  0  0  0  0  0
   -0.2296   -3.3891   -5.0587 C   0  0  0  0  0  0  0  0  0  0  0  0
   -1.4787   -2.9365   -4.7038 C   0  0  0  0  0  0  0  0  0  0  0  0
   -1.3778   -1.9089   -3.8237 O   0  0  0  0  0  0  0  0  0  0  0  0
    4.9870    0.6428    1.0044 C   0  0  0  0  0  0  0  0  0  0  0  0
    5.6049    0.6024    2.2599 C   0  0  0  0  0  0  0  0  0  0  0  0
    5.6669    1.0947    6.5917 H   0  0  0  0  0  0  0  0  0  0  0  0
    4.0987    0.7253    5.8637 H   0  0  0  0  0  0  0  0  0  0  0  0
    4.7695    2.4013    5.8099 H   0  0  0  0  0  0  0  0  0  0  0  0
    3.1928    2.1506    4.0998 H   0  0  0  0  0  0  0  0  0  0  0  0
    2.1095    2.2166    1.9169 H   0  0  0  0  0  0  0  0  0  0  0  0
    4.7437    1.1468   -1.7213 H   0  0  0  0  0  0  0  0  0  0  0  0
    3.2327    1.4095   -2.5482 H   0  0  0  0  0  0  0  0  0  0  0  0
   -1.6482   -2.1938    0.6492 H   0  0  0  0  0  0  0  0  0  0  0  0
   -1.7778   -2.0779   -1.1089 H   0  0  0  0  0  0  0  0  0  0  0  0
   -1.3135    0.2782    0.6085 H   0  0  0  0  0  0  0  0  0  0  0  0
   -3.9242   -1.8426   -0.8571 H   0  0  0  0  0  0  0  0  0  0  0  0
   -6.2903   -1.4288   -0.5459 H   0  0  0  0  0  0  0  0  0  0  0  0
   -8.0584   -0.2127    0.6905 H   0  0  0  0  0  0  0  0  0  0  0  0
   -7.6896    1.2753    1.5590 H   0  0  0  0  0  0  0  0  0  0  0  0
   -7.8560    1.3060   -0.2141 H   0  0  0  0  0  0  0  0  0  0  0  0
   -5.4201    2.3097    1.3733 H   0  0  0  0  0  0  0  0  0  0  0  0
   -3.2695    3.1236    1.5522 H   0  0  0  0  0  0  0  0  0  0  0  0
   -2.0994    2.5525    0.3633 H   0  0  0  0  0  0  0  0  0  0  0  0
   -2.1240    1.8605    2.0138 H   0  0  0  0  0  0  0  0  0  0  0  0
   -0.5750   -0.0164   -2.3820 H   0  0  0  0  0  0  0  0  0  0  0  0
    1.0281    0.0652   -3.0831 H   0  0  0  0  0  0  0  0  0  0  0  0
    1.7772   -2.6585   -4.3759 H   0  0  0  0  0  0  0  0  0  0  0  0
   -0.0158   -4.1999   -5.7406 H   0  0  0  0  0  0  0  0  0  0  0  0
   -2.4850   -3.2259   -4.9719 H   0  0  0  0  0  0  0  0  0  0  0  0
    5.5112    0.1908    0.1695 H   0  0  0  0  0  0  0  0  0  0  0  0
    6.5842    0.1387    2.3621 H   0  0  0  0  0  0  0  0  0  0  0  0
  1  2  1  0
  2  3  1  0
  3  4  2  0
  4  5  1  0
  5  6  2  0
  6  7  1  0
  7  8  2  0
  7  9  1  0
  9 10  1  0
 10 11  1  0
 11 12  2  0
 12 13  1  0
 13 14  2  0
 14 15  1  0
 15 16  1  0
 16 17  1  0
 17 18  2  0
 18 19  1  0
 19 20  2  0
 20 21  1  0
 20 22  1  0
 22 23  2  0
 23 24  1  0
 14 25  1  0
 25 26  1  0
 26 27  1  0
 27 28  2  0
 28 29  1  0
 29 30  2  0
 30 31  1  0
  6 32  1  0
 32 33  2  0
 33  3  1  0
 25 11  1  0
 31 27  1  0
 23 17  1  0
  1 34  1  0
  1 35  1  0
  1 36  1  0
  4 37  1  0
  5 38  1  0
  9 39  1  0
  9 40  1  0
 15 41  1  0
 15 42  1  0
 16 43  1  0
 18 44  1  0
 19 45  1  0
 21 46  1  0
 21 47  1  0
 21 48  1  0
 22 49  1  0
 24 50  1  0
 24 51  1  0
 24 52  1  0
 26 53  1  0
 26 54  1  0
 28 55  1  0
 29 56  1  0
 30 57  1  0
 32 58  1  0
 33 59  1  0
M  END
$$$$
