
     RDKit          3D

 30 32  0  0  0  0  0  0  0  0999 V2000
   -0.0362    1.2169    1.8794 C   0  0  0  0  0  0  0  0  0  0  0  0
   -0.5550    0.3636    0.8286 N   0  0  0  0  0  0  0  0  0  0  0  0
    0.2108   -0.3199   -0.0971 C   0  0  0  0  0  0  0  0  0  0  0  0
    1.6683   -0.2384   -0.1866 C   0  0  0  0  0  0  0  0  0  0  0  0
    2.4427   -1.3282    0.2311 C   0  0  0  0  0  0  0  0  0  0  0  0
    3.8378   -1.2641    0.1851 C   0  0  0  0  0  0  0  0  0  0  0  0
    4.4701   -0.1112   -0.2801 C   0  0  0  0  0  0  0  0  0  0  0  0
    3.7097    0.9766   -0.7078 C   0  0  0  0  0  0  0  0  0  0  0  0
    2.3193    0.9070   -0.6688 C   0  0  0  0  0  0  0  0  0  0  0  0
    1.6359    2.0009   -1.1286 O   0  0  0  0  0  0  0  0  0  0  0  0
   -0.6615   -1.0577   -0.8751 C   0  0  0  0  0  0  0  0  0  0  0  0
   -1.9865   -0.7799   -0.4504 C   0  0  0  0  0  0  0  0  0  0  0  0
   -3.2559   -1.2135   -0.8808 C   0  0  0  0  0  0  0  0  0  0  0  0
   -4.4019   -0.7284   -0.2431 C   0  0  0  0  0  0  0  0  0  0  0  0
   -4.2958    0.1765    0.8084 C   0  0  0  0  0  0  0  0  0  0  0  0
   -3.0464    0.6190    1.2542 C   0  0  0  0  0  0  0  0  0  0  0  0
   -1.8998    0.1242    0.6102 C   0  0  0  0  0  0  0  0  0  0  0  0
   -0.6980    1.1673    2.7474 H   0  0  0  0  0  0  0  0  0  0  0  0
    0.0125    2.2379    1.4930 H   0  0  0  0  0  0  0  0  0  0  0  0
    0.9548    0.8717    2.1825 H   0  0  0  0  0  0  0  0  0  0  0  0
    1.9619   -2.2300    0.6037 H   0  0  0  0  0  0  0  0  0  0  0  0
    4.4306   -2.1138    0.5146 H   0  0  0  0  0  0  0  0  0  0  0  0
    5.5553   -0.0610   -0.3150 H   0  0  0  0  0  0  0  0  0  0  0  0
    4.1975    1.8729   -1.0802 H   0  0  0  0  0  0  0  0  0  0  0  0
    0.7081    1.7336   -1.2596 H   0  0  0  0  0  0  0  0  0  0  0  0
   -0.3739   -1.7144   -1.6863 H   0  0  0  0  0  0  0  0  0  0  0  0
   -3.3460   -1.9170   -1.7033 H   0  0  0  0  0  0  0  0  0  0  0  0
   -5.3824   -1.0611   -0.5745 H   0  0  0  0  0  0  0  0  0  0  0  0
   -5.1972    0.5453    1.2926 H   0  0  0  0  0  0  0  0  0  0  0  0
   -2.9790    1.3251    2.0754 H   0  0  0  0  0  0  0  0  0  0  0  0
  1  2  1  0
  2  3  1  0
  3  4  1  0
  4  5  2  0
  5  6  1  0
  6  7  2  0
  7  8  1  0
  8  9  2  0
  9 10  1  0
  3 11  2  0
 11 12  1  0
 12 13  2  0
 13 14  1  0
 14 15  2  0
 15 16  1  0
 16 17  2  0
 17  2  1  0
  9  4  1  0
 17 12  1  0
  1 18  1  0
  1 19  1  0
  1 20  1  0
  5 21  1  0
  6 22  1  0
  7 23  1  0
  8 24  1  0
 10 25  1  0
 11 26  1  0
 13 27  1  0
 14 28  1  0
 15 29  1  0
 16 30  1  0
M  END
$$$$
