
     RDKit          3D

 57 60  0  0  0  0  0  0  0  0999 V2000
   -3.4108   -3.9972    0.5523 C   0  0  0  0  0  0  0  0  0  0  0  0
   -3.5516   -2.6684   -0.1983 C   0  0  0  0  0  0  0  0  0  0  0  0
   -4.9647   -2.5515   -0.7703 C   0  0  0  0  0  0  0  0  0  0  0  0
   -3.2532   -1.4860    0.7285 C   0  0  0  0  0  0  0  0  0  0  0  0
   -3.2707   -1.6346    1.9526 O   0  0  0  0  0  0  0  0  0  0  0  0
   -2.9819   -0.2514    0.1598 N   0  0  0  0  0  0  0  0  0  0  0  0
   -2.9340    0.0667   -1.2774 C   0  0  0  0  0  0  0  0  0  0  0  0
   -1.6915    0.9081   -1.6367 C   0  0  0  0  0  0  0  0  0  0  0  0
   -1.5938    2.0704   -0.7409 N   0  0  0  0  0  0  0  0  0  0  0  0
   -0.7515    3.1092   -1.1597 C   0  0  0  0  0  0  0  0  0  0  0  0
   -1.3959    4.2767   -1.6102 C   0  0  0  0  0  0  0  0  0  0  0  0
   -0.6745    5.3811   -2.0594 C   0  0  0  0  0  0  0  0  0  0  0  0
    0.7126    5.3356   -2.0673 C   0  0  0  0  0  0  0  0  0  0  0  0
    1.3777    4.1892   -1.6260 C   0  0  0  0  0  0  0  0  0  0  0  0
    0.6661    3.0723   -1.1676 C   0  0  0  0  0  0  0  0  0  0  0  0
    1.3175    1.9004   -0.7167 N   0  0  0  0  0  0  0  0  0  0  0  0
    2.6698    1.6812   -0.5505 C   0  0  0  0  0  0  0  0  0  0  0  0
    3.5807    2.4748   -0.7481 O   0  0  0  0  0  0  0  0  0  0  0  0
    3.0182    0.3300   -0.0293 C   0  0  0  0  0  0  0  0  0  0  0  0
    2.3337   -0.8197   -0.4495 C   0  0  0  0  0  0  0  0  0  0  0  0
    2.6862   -2.0690    0.0672 C   0  0  0  0  0  0  0  0  0  0  0  0
    3.7242   -2.1706    0.9918 C   0  0  0  0  0  0  0  0  0  0  0  0
    4.4006   -1.0229    1.4192 C   0  0  0  0  0  0  0  0  0  0  0  0
    4.0646    0.2229    0.8945 C   0  0  0  0  0  0  0  0  0  0  0  0
    5.4096   -1.0489    2.3475 O   0  0  0  0  0  0  0  0  0  0  0  0
    5.4351   -2.2918    3.0581 C   0  0  0  0  0  0  0  0  0  0  0  0
    5.2982   -3.4616    2.0978 C   0  0  0  0  0  0  0  0  0  0  0  0
    4.0255   -3.4308    1.4401 O   0  0  0  0  0  0  0  0  0  0  0  0
   -1.6270    1.7782    0.7040 C   0  0  0  0  0  0  0  0  0  0  0  0
   -2.8664    0.9260    1.0372 C   0  0  0  0  0  0  0  0  0  0  0  0
   -3.5670   -4.8436   -0.1246 H   0  0  0  0  0  0  0  0  0  0  0  0
   -2.4089   -4.0936    0.9872 H   0  0  0  0  0  0  0  0  0  0  0  0
   -4.1374   -4.0791    1.3695 H   0  0  0  0  0  0  0  0  0  0  0  0
   -2.8116   -2.6847   -1.0056 H   0  0  0  0  0  0  0  0  0  0  0  0
   -5.1066   -1.6250   -1.3353 H   0  0  0  0  0  0  0  0  0  0  0  0
   -5.1815   -3.3883   -1.4427 H   0  0  0  0  0  0  0  0  0  0  0  0
   -5.7140   -2.5567    0.0304 H   0  0  0  0  0  0  0  0  0  0  0  0
   -2.9422   -0.8311   -1.8963 H   0  0  0  0  0  0  0  0  0  0  0  0
   -3.8454    0.6331   -1.5045 H   0  0  0  0  0  0  0  0  0  0  0  0
   -1.7744    1.2296   -2.6821 H   0  0  0  0  0  0  0  0  0  0  0  0
   -0.8015    0.2757   -1.5491 H   0  0  0  0  0  0  0  0  0  0  0  0
   -2.4826    4.3204   -1.6069 H   0  0  0  0  0  0  0  0  0  0  0  0
   -1.1955    6.2713   -2.4001 H   0  0  0  0  0  0  0  0  0  0  0  0
    1.2864    6.1908   -2.4157 H   0  0  0  0  0  0  0  0  0  0  0  0
    2.4626    4.2000   -1.6557 H   0  0  0  0  0  0  0  0  0  0  0  0
    0.6887    1.1783   -0.4041 H   0  0  0  0  0  0  0  0  0  0  0  0
    1.5507   -0.7632   -1.2002 H   0  0  0  0  0  0  0  0  0  0  0  0
    2.1672   -2.9653   -0.2625 H   0  0  0  0  0  0  0  0  0  0  0  0
    4.6056    1.1095    1.2164 H   0  0  0  0  0  0  0  0  0  0  0  0
    6.3892   -2.3493    3.5912 H   0  0  0  0  0  0  0  0  0  0  0  0
    4.6279   -2.2851    3.8010 H   0  0  0  0  0  0  0  0  0  0  0  0
    6.0853   -3.4484    1.3339 H   0  0  0  0  0  0  0  0  0  0  0  0
    5.3671   -4.4083    2.6423 H   0  0  0  0  0  0  0  0  0  0  0  0
   -0.7324    1.2285    1.0144 H   0  0  0  0  0  0  0  0  0  0  0  0
   -1.6690    2.7077    1.2841 H   0  0  0  0  0  0  0  0  0  0  0  0
   -3.7771    1.5185    0.8858 H   0  0  0  0  0  0  0  0  0  0  0  0
   -2.8363    0.6400    2.0930 H   0  0  0  0  0  0  0  0  0  0  0  0
  1  2  1  0
  2  3  1  0
  2  4  1  0
  4  5  2  0
  4  6  1  0
  6  7  1  0
  7  8  1  0
  8  9  1  0
  9 10  1  0
 10 11  2  0
 11 12  1  0
 12 13  2  0
 13 14  1  0
 14 15  2  0
 15 16  1  0
 16 17  1  0
 17 18  2  0
 17 19  1  0
 19 20  2  0
 20 21  1  0
 21 22  2  0
 22 23  1  0
 23 24  2  0
 23 25  1  0
 25 26  1  0
 26 27  1  0
 27 28  1  0
  9 29  1  0
 29 30  1  0
 30  6  1  0
 15 10  1  0
 24 19  1  0
 28 22  1  0
  1 31  1  0
  1 32  1  0
  1 33  1  0
  2 34  1  0
  3 35  1  0
  3 36  1  0
  3 37  1  0
  7 38  1  0
  7 39  1  0
  8 40  1  0
  8 41  1  0
 11 42  1  0
 12 43  1  0
 13 44  1  0
 14 45  1  0
 16 46  1  0
 20 47  1  0
 21 48  1  0
 24 49  1  0
 26 50  1  0
 26 51  1  0
 27 52  1  0
 27 53  1  0
 29 54  1  0
 29 55  1  0
 30 56  1  0
 30 57  1  0
M  END
$$$$
