
     RDKit          3D

 56 58  0  0  0  0  0  0  0  0999 V2000
    4.8557    4.7997   -2.1863 C   0  0  0  0  0  0  0  0  0  0  0  0
    4.8527    4.0484   -3.3960 O   0  0  0  0  0  0  0  0  0  0  0  0
    4.2638    2.8139   -3.3545 C   0  0  0  0  0  0  0  0  0  0  0  0
    4.3453    2.0920   -4.5463 C   0  0  0  0  0  0  0  0  0  0  0  0
    3.7905    0.8141   -4.6501 C   0  0  0  0  0  0  0  0  0  0  0  0
    3.1413    0.2484   -3.5533 C   0  0  0  0  0  0  0  0  0  0  0  0
    2.5578   -0.9987   -3.5386 O   0  0  0  0  0  0  0  0  0  0  0  0
    2.6907   -1.7856   -4.7154 C   0  0  0  0  0  0  0  0  0  0  0  0
    3.0470    0.9753   -2.3464 C   0  0  0  0  0  0  0  0  0  0  0  0
    2.3698    0.3421   -1.2801 N   0  0  0  0  0  0  0  0  0  0  0  0
    2.1022    0.8305   -0.0145 C   0  0  0  0  0  0  0  0  0  0  0  0
    2.4026    1.9421    0.4150 O   0  0  0  0  0  0  0  0  0  0  0  0
    1.3524   -0.1686    0.8512 C   0  0  0  0  0  0  0  0  0  0  0  0
   -0.4249   -0.0397    0.5026 S   0  0  0  0  0  0  0  0  0  0  0  0
   -1.0274   -1.2318    1.6365 C   0  0  0  0  0  0  0  0  0  0  0  0
   -0.3326   -2.3129    1.7731 N   0  0  0  0  0  0  0  0  0  0  0  0
   -0.8036   -3.3026    2.6399 C   0  0  0  0  0  0  0  0  0  0  0  0
   -0.0362   -4.4536    2.8342 C   0  0  0  0  0  0  0  0  0  0  0  0
   -0.4854   -5.4737    3.6786 C   0  0  0  0  0  0  0  0  0  0  0  0
   -1.7090   -5.3492    4.3359 C   0  0  0  0  0  0  0  0  0  0  0  0
   -2.4822   -4.2043    4.1490 C   0  0  0  0  0  0  0  0  0  0  0  0
   -2.0212   -3.1893    3.3026 C   0  0  0  0  0  0  0  0  0  0  0  0
   -2.8077   -1.9657    3.0790 C   0  0  0  0  0  0  0  0  0  0  0  0
   -3.9317   -1.8811    3.5650 O   0  0  0  0  0  0  0  0  0  0  0  0
   -2.2206   -0.9774    2.2917 N   0  0  0  0  0  0  0  0  0  0  0  0
   -2.9919    0.2651    2.1367 C   0  0  0  0  0  0  0  0  0  0  0  0
   -4.0181    0.1697    0.9966 C   0  0  0  0  0  0  0  0  0  0  0  0
   -4.4204    1.4661    0.4790 N   0  0  0  0  0  0  0  0  0  0  0  0
   -5.1673    2.3459    1.2253 C   0  0  0  0  0  0  0  0  0  0  0  0
   -5.5148    3.6269    0.5156 C   0  0  0  0  0  0  0  0  0  0  0  0
   -5.5235    2.1231    2.3774 O   0  0  0  0  0  0  0  0  0  0  0  0
    3.6128    2.2514   -2.2545 C   0  0  0  0  0  0  0  0  0  0  0  0
    5.3802    5.7406   -2.3787 H   0  0  0  0  0  0  0  0  0  0  0  0
    3.8360    5.0460   -1.8719 H   0  0  0  0  0  0  0  0  0  0  0  0
    5.3987    4.2719   -1.3957 H   0  0  0  0  0  0  0  0  0  0  0  0
    4.8502    2.5301   -5.4035 H   0  0  0  0  0  0  0  0  0  0  0  0
    3.8830    0.2967   -5.5984 H   0  0  0  0  0  0  0  0  0  0  0  0
    3.7432   -1.9875   -4.9385 H   0  0  0  0  0  0  0  0  0  0  0  0
    2.1992   -2.7466   -4.5302 H   0  0  0  0  0  0  0  0  0  0  0  0
    2.1875   -1.3133   -5.5652 H   0  0  0  0  0  0  0  0  0  0  0  0
    2.0064   -0.5761   -1.5242 H   0  0  0  0  0  0  0  0  0  0  0  0
    1.7241   -1.1771    0.6424 H   0  0  0  0  0  0  0  0  0  0  0  0
    1.5518    0.0574    1.9035 H   0  0  0  0  0  0  0  0  0  0  0  0
    0.9163   -4.5580    2.3203 H   0  0  0  0  0  0  0  0  0  0  0  0
    0.1202   -6.3655    3.8193 H   0  0  0  0  0  0  0  0  0  0  0  0
   -2.0607   -6.1424    4.9920 H   0  0  0  0  0  0  0  0  0  0  0  0
   -3.4378   -4.1035    4.6593 H   0  0  0  0  0  0  0  0  0  0  0  0
   -2.3132    1.1090    1.9774 H   0  0  0  0  0  0  0  0  0  0  0  0
   -3.5106    0.4826    3.0790 H   0  0  0  0  0  0  0  0  0  0  0  0
   -4.9150   -0.3601    1.3399 H   0  0  0  0  0  0  0  0  0  0  0  0
   -3.6121   -0.3885    0.1463 H   0  0  0  0  0  0  0  0  0  0  0  0
   -4.1431    1.7162   -0.4613 H   0  0  0  0  0  0  0  0  0  0  0  0
   -5.0697    3.6746   -0.4816 H   0  0  0  0  0  0  0  0  0  0  0  0
   -5.1422    4.4712    1.1020 H   0  0  0  0  0  0  0  0  0  0  0  0
   -6.6009    3.6956    0.4173 H   0  0  0  0  0  0  0  0  0  0  0  0
    3.5423    2.8059   -1.3281 H   0  0  0  0  0  0  0  0  0  0  0  0
  1  2  1  0
  2  3  1  0
  3  4  2  0
  4  5  1  0
  5  6  2  0
  6  7  1  0
  7  8  1  0
  6  9  1  0
  9 10  1  0
 10 11  1  0
 11 12  2  0
 11 13  1  0
 13 14  1  0
 14 15  1  0
 15 16  2  0
 16 17  1  0
 17 18  2  0
 18 19  1  0
 19 20  2  0
 20 21  1  0
 21 22  2  0
 22 23  1  0
 23 24  2  0
 23 25  1  0
 25 26  1  0
 26 27  1  0
 27 28  1  0
 28 29  1  0
 29 30  1  0
 29 31  2  0
  9 32  2  0
 32  3  1  0
 25 15  1  0
 22 17  1  0
  1 33  1  0
  1 34  1  0
  1 35  1  0
  4 36  1  0
  5 37  1  0
  8 38  1  0
  8 39  1  0
  8 40  1  0
 10 41  1  0
 13 42  1  0
 13 43  1  0
 18 44  1  0
 19 45  1  0
 20 46  1  0
 21 47  1  0
 26 48  1  0
 26 49  1  0
 27 50  1  0
 27 51  1  0
 28 52  1  0
 30 53  1  0
 30 54  1  0
 30 55  1  0
 32 56  1  0
M  END
$$$$
