
     RDKit          3D

 43 43  0  0  0  0  0  0  0  0999 V2000
   -4.4004    1.2678    2.7629 C   0  0  0  0  0  0  0  0  0  0  0  0
   -3.6270    1.0333    1.4984 C   0  0  0  0  0  0  0  0  0  0  0  0
   -2.7568    2.4184    0.9436 Cl  0  0  0  0  0  0  0  0  0  0  0  0
   -3.5954   -0.1438    0.8483 C   0  0  0  0  0  0  0  0  0  0  0  0
   -2.8984   -0.4550   -0.4412 C   0  0  0  0  0  0  0  0  0  0  0  0
   -1.6596   -1.3568   -0.3175 N   0  0  0  0  0  4  0  0  0  0  0  0
   -1.9990   -2.6749    0.3619 C   0  0  0  0  0  0  0  0  0  0  0  0
   -1.1498   -1.6701   -1.7279 C   0  0  0  0  0  0  0  0  0  0  0  0
   -0.5274   -0.6476    0.5106 C   0  0  0  0  0  0  0  0  0  0  0  0
    0.0201    0.6675   -0.0360 C   0  0  0  0  0  0  0  0  0  0  0  0
   -0.1612    1.0771   -1.1741 O   0  0  0  0  0  0  0  0  0  0  0  0
    0.7526    1.2838    0.9291 O   0  0  0  0  0  0  0  0  0  0  0  0
    1.5039    2.4453    0.5205 C   0  0  0  0  0  0  0  0  0  0  0  0
    2.9972    2.1325    0.6216 C   0  0  0  0  0  0  0  0  0  0  0  0
    3.4086    0.9883   -0.2765 C   0  0  0  0  0  0  0  0  0  0  0  0
    3.4852    1.1615   -1.6680 C   0  0  0  0  0  0  0  0  0  0  0  0
    3.8589    0.1009   -2.4958 C   0  0  0  0  0  0  0  0  0  0  0  0
    4.1507   -1.1427   -1.9414 C   0  0  0  0  0  0  0  0  0  0  0  0
    4.0744   -1.3266   -0.5571 C   0  0  0  0  0  0  0  0  0  0  0  0
    3.7069   -0.2664    0.2718 C   0  0  0  0  0  0  0  0  0  0  0  0
   -5.0271    2.1614    2.6681 H   0  0  0  0  0  0  0  0  0  0  0  0
   -5.0715    0.4326    2.9931 H   0  0  0  0  0  0  0  0  0  0  0  0
   -3.7144    1.4086    3.6079 H   0  0  0  0  0  0  0  0  0  0  0  0
   -4.1790   -0.9632    1.2717 H   0  0  0  0  0  0  0  0  0  0  0  0
   -3.6046   -0.9890   -1.0910 H   0  0  0  0  0  0  0  0  0  0  0  0
   -2.6000    0.4444   -0.9878 H   0  0  0  0  0  0  0  0  0  0  0  0
   -2.8622   -3.1143   -0.1388 H   0  0  0  0  0  0  0  0  0  0  0  0
   -2.2179   -2.4885    1.4115 H   0  0  0  0  0  0  0  0  0  0  0  0
   -1.1379   -3.3381    0.2750 H   0  0  0  0  0  0  0  0  0  0  0  0
   -1.0638   -0.7511   -2.3070 H   0  0  0  0  0  0  0  0  0  0  0  0
   -0.1840   -2.1750   -1.6435 H   0  0  0  0  0  0  0  0  0  0  0  0
   -1.8784   -2.3304   -2.2120 H   0  0  0  0  0  0  0  0  0  0  0  0
   -0.9396   -0.4797    1.5105 H   0  0  0  0  0  0  0  0  0  0  0  0
    0.2993   -1.3641    0.5765 H   0  0  0  0  0  0  0  0  0  0  0  0
    1.2505    3.2545    1.2156 H   0  0  0  0  0  0  0  0  0  0  0  0
    1.2357    2.7893   -0.4849 H   0  0  0  0  0  0  0  0  0  0  0  0
    3.5832    3.0238    0.3674 H   0  0  0  0  0  0  0  0  0  0  0  0
    3.2447    1.8799    1.6600 H   0  0  0  0  0  0  0  0  0  0  0  0
    3.2718    2.1276   -2.1181 H   0  0  0  0  0  0  0  0  0  0  0  0
    3.9404    0.2499   -3.5747 H   0  0  0  0  0  0  0  0  0  0  0  0
    4.4625   -1.9605   -2.5872 H   0  0  0  0  0  0  0  0  0  0  0  0
    4.3289   -2.2901   -0.1228 H   0  0  0  0  0  0  0  0  0  0  0  0
    3.6799   -0.4205    1.3497 H   0  0  0  0  0  0  0  0  0  0  0  0
  1  2  1  0
  2  3  1  0
  2  4  2  3
  4  5  1  0
  5  6  1  0
  6  7  1  0
  6  8  1  0
  6  9  1  0
  9 10  1  0
 10 11  2  0
 10 12  1  0
 12 13  1  0
 13 14  1  0
 14 15  1  0
 15 16  2  0
 16 17  1  0
 17 18  2  0
 18 19  1  0
 19 20  2  0
 20 15  1  0
  1 21  1  0
  1 22  1  0
  1 23  1  0
  4 24  1  0
  5 25  1  0
  5 26  1  0
  7 27  1  0
  7 28  1  0
  7 29  1  0
  8 30  1  0
  8 31  1  0
  8 32  1  0
  9 33  1  0
  9 34  1  0
 13 35  1  0
 13 36  1  0
 14 37  1  0
 14 38  1  0
 16 39  1  0
 17 40  1  0
 18 41  1  0
 19 42  1  0
 20 43  1  0
M  CHG  1   6   1
M  END
$$$$
