
     RDKit          3D

 57 60  0  0  0  0  0  0  0  0999 V2000
   -0.3360   -2.7707    4.0606 C   0  0  0  0  0  0  0  0  0  0  0  0
   -1.1767   -2.0716    3.1440 O   0  0  0  0  0  0  0  0  0  0  0  0
   -0.5011   -1.4331    2.1424 C   0  0  0  0  0  0  0  0  0  0  0  0
    0.4511   -2.1141    1.3724 C   0  0  0  0  0  0  0  0  0  0  0  0
    1.0825   -1.4812    0.2969 C   0  0  0  0  0  0  0  0  0  0  0  0
    0.7575   -0.1598   -0.0259 C   0  0  0  0  0  0  0  0  0  0  0  0
    1.3914    0.5443   -1.1722 C   0  0  0  0  0  0  0  0  0  0  0  0
    0.7771    1.4151   -1.7751 O   0  0  0  0  0  0  0  0  0  0  0  0
    2.6845    0.1774   -1.4726 N   0  0  0  0  0  0  0  0  0  0  0  0
    3.4260    0.9052   -2.4761 C   0  0  0  0  0  0  0  0  0  0  0  0
    4.7219    0.2053   -2.7906 C   0  0  0  0  0  0  0  0  0  0  0  0
    4.7237   -0.9363   -3.6267 C   0  0  0  0  0  0  0  0  0  0  0  0
    5.9113   -1.6147   -3.9174 C   0  0  0  0  0  0  0  0  0  0  0  0
    7.0749   -1.1356   -3.3580 C   0  0  0  0  0  0  0  0  0  0  0  0
    7.0832   -0.0318   -2.5383 C   0  0  0  0  0  0  0  0  0  0  0  0
    5.9285    0.6573   -2.2318 C   0  0  0  0  0  0  0  0  0  0  0  0
    8.3305    0.2716   -2.0895 O   0  0  0  0  0  0  0  0  0  0  0  0
    9.1091   -0.7559   -2.7376 C   0  0  0  0  0  0  0  0  0  0  0  0
    8.3155   -1.6645   -3.5292 O   0  0  0  0  0  0  0  0  0  0  0  0
   -0.2147    0.5150    0.7185 C   0  0  0  0  0  0  0  0  0  0  0  0
   -0.8463   -0.1225    1.7983 C   0  0  0  0  0  0  0  0  0  0  0  0
   -2.0063    0.8310    2.7514 S   0  0  0  0  0  6  0  0  0  0  0  0
   -2.1104    0.3004    4.0943 O   0  0  0  0  0  0  0  0  0  0  0  0
   -1.6536    2.2252    2.5628 O   0  0  0  0  0  0  0  0  0  0  0  0
   -3.4958    0.5655    1.9523 N   0  0  0  0  0  0  0  0  0  0  0  0
   -3.9706   -0.8399    1.9789 C   0  0  0  0  0  0  0  0  0  0  0  0
   -4.5511    1.5137    2.4138 C   0  0  0  0  0  0  0  0  0  0  0  0
   -5.6822    1.6766    1.4183 C   0  0  0  0  0  0  0  0  0  0  0  0
   -7.0182    1.5858    1.8341 C   0  0  0  0  0  0  0  0  0  0  0  0
   -8.0578    1.7569    0.9176 C   0  0  0  0  0  0  0  0  0  0  0  0
   -7.7729    2.0264   -0.4197 C   0  0  0  0  0  0  0  0  0  0  0  0
   -6.4491    2.1292   -0.8427 C   0  0  0  0  0  0  0  0  0  0  0  0
   -5.4086    1.9598    0.0717 C   0  0  0  0  0  0  0  0  0  0  0  0
    0.5913   -2.2234    4.2744 H   0  0  0  0  0  0  0  0  0  0  0  0
   -0.1124   -3.7735    3.6793 H   0  0  0  0  0  0  0  0  0  0  0  0
   -0.8876   -2.8806    4.9990 H   0  0  0  0  0  0  0  0  0  0  0  0
    0.6890   -3.1547    1.5774 H   0  0  0  0  0  0  0  0  0  0  0  0
    1.7941   -2.0443   -0.3019 H   0  0  0  0  0  0  0  0  0  0  0  0
    3.2192   -0.3378   -0.7870 H   0  0  0  0  0  0  0  0  0  0  0  0
    2.8159    1.0073   -3.3815 H   0  0  0  0  0  0  0  0  0  0  0  0
    3.6081    1.9176   -2.0968 H   0  0  0  0  0  0  0  0  0  0  0  0
    3.7884   -1.2947   -4.0541 H   0  0  0  0  0  0  0  0  0  0  0  0
    5.9182   -2.4866   -4.5616 H   0  0  0  0  0  0  0  0  0  0  0  0
    5.9658    1.5250   -1.5807 H   0  0  0  0  0  0  0  0  0  0  0  0
    9.6381   -1.3314   -1.9694 H   0  0  0  0  0  0  0  0  0  0  0  0
    9.8487   -0.2766   -3.3898 H   0  0  0  0  0  0  0  0  0  0  0  0
   -0.4754    1.5403    0.4564 H   0  0  0  0  0  0  0  0  0  0  0  0
   -3.3046   -1.4775    1.3928 H   0  0  0  0  0  0  0  0  0  0  0  0
   -4.0430   -1.2170    3.0038 H   0  0  0  0  0  0  0  0  0  0  0  0
   -4.9605   -0.9279    1.5197 H   0  0  0  0  0  0  0  0  0  0  0  0
   -4.9405    1.1704    3.3807 H   0  0  0  0  0  0  0  0  0  0  0  0
   -4.1346    2.5150    2.5707 H   0  0  0  0  0  0  0  0  0  0  0  0
   -7.2596    1.3831    2.8749 H   0  0  0  0  0  0  0  0  0  0  0  0
   -9.0908    1.6839    1.2476 H   0  0  0  0  0  0  0  0  0  0  0  0
   -8.5827    2.1615   -1.1322 H   0  0  0  0  0  0  0  0  0  0  0  0
   -6.2248    2.3445   -1.8838 H   0  0  0  0  0  0  0  0  0  0  0  0
   -4.3775    2.0471   -0.2672 H   0  0  0  0  0  0  0  0  0  0  0  0
  1  2  1  0
  2  3  1  0
  3  4  2  0
  4  5  1  0
  5  6  2  0
  6  7  1  0
  7  8  2  0
  7  9  1  0
  9 10  1  0
 10 11  1  0
 11 12  2  0
 12 13  1  0
 13 14  2  0
 14 15  1  0
 15 16  2  0
 15 17  1  0
 17 18  1  0
 18 19  1  0
  6 20  1  0
 20 21  2  0
 21 22  1  0
 22 23  2  0
 22 24  2  0
 22 25  1  0
 25 26  1  0
 25 27  1  0
 27 28  1  0
 28 29  2  0
 29 30  1  0
 30 31  2  0
 31 32  1  0
 32 33  2  0
 21  3  1  0
 33 28  1  0
 16 11  1  0
 19 14  1  0
  1 34  1  0
  1 35  1  0
  1 36  1  0
  4 37  1  0
  5 38  1  0
  9 39  1  0
 10 40  1  0
 10 41  1  0
 12 42  1  0
 13 43  1  0
 16 44  1  0
 18 45  1  0
 18 46  1  0
 20 47  1  0
 26 48  1  0
 26 49  1  0
 26 50  1  0
 27 51  1  0
 27 52  1  0
 29 53  1  0
 30 54  1  0
 31 55  1  0
 32 56  1  0
 33 57  1  0
M  END
$$$$
