
     RDKit          3D

 69 75  0  0  0  0  0  0  0  0999 V2000
   -3.9143    5.2890    1.7877 C   0  0  0  0  0  0  0  0  0  0  0  0
   -3.5474    4.2795    0.7421 C   0  0  0  0  0  0  0  0  0  0  0  0
   -4.0243    4.3805   -0.5794 C   0  0  0  0  0  0  0  0  0  0  0  0
   -5.0604    5.6817   -1.0605 Cl  0  0  0  0  0  0  0  0  0  0  0  0
   -3.6766    3.4368   -1.5667 C   0  0  0  0  0  0  0  0  0  0  0  0
   -2.8432    2.3602   -1.2640 C   0  0  0  0  0  0  0  0  0  0  0  0
   -2.3742    2.2466    0.0344 C   0  0  0  0  0  0  0  0  0  0  0  0
   -2.7179    3.1969    1.0087 C   0  0  0  0  0  0  0  0  0  0  0  0
   -2.0962    2.8754    2.2160 N   0  0  0  0  0  0  0  0  0  0  0  0
   -1.3282    1.7132    2.1121 C   0  0  0  0  0  0  0  0  0  0  0  0
   -0.6595    1.2364    3.0178 O   0  0  0  0  0  0  0  0  0  0  0  0
   -1.4759    1.2170    0.6537 C   0  0  1  0  0  0  0  0  0  0  0  0
   -2.1007   -0.1252    0.5436 C   0  0  0  0  0  0  0  0  0  0  0  0
   -1.1306   -1.0905    0.2247 C   0  0  0  0  0  0  0  0  0  0  0  0
   -1.7342   -2.3174    0.1519 C   0  0  0  0  0  0  0  0  0  0  0  0
   -1.2204   -3.5118   -0.1282 O   0  0  0  0  0  0  0  0  0  0  0  0
   -3.1127   -2.1117    0.3739 N   0  0  0  0  0  0  0  0  0  0  0  0
   -4.1499   -3.0913    0.2514 C   0  0  0  0  0  0  0  0  0  0  0  0
   -5.4287   -2.7085   -0.1844 C   0  0  0  0  0  0  0  0  0  0  0  0
   -6.4477   -3.6567   -0.3036 C   0  0  0  0  0  0  0  0  0  0  0  0
   -6.1987   -4.9917    0.0052 C   0  0  0  0  0  0  0  0  0  0  0  0
   -4.9286   -5.3821    0.4244 C   0  0  0  0  0  0  0  0  0  0  0  0
   -3.9044   -4.4384    0.5426 C   0  0  0  0  0  0  0  0  0  0  0  0
   -3.3002   -0.7567    0.7240 C   0  0  0  0  0  0  0  0  0  0  0  0
   -4.4359   -0.2420    1.1941 O   0  0  0  0  0  0  0  0  0  0  0  0
    0.1996   -0.4489    0.1510 C   0  0  1  0  0  0  0  0  0  0  0  0
    1.1656   -0.8505   -0.9553 C   0  0  0  0  0  0  0  0  0  0  0  0
    2.3458    0.0396   -0.9690 N   0  0  0  0  0  0  0  0  0  0  0  0
    3.4728   -0.4610   -1.6079 C   0  0  0  0  0  0  0  0  0  0  0  0
    3.5177   -1.5943   -2.0795 O   0  0  0  0  0  0  0  0  0  0  0  0
    4.5287    0.4085   -1.6725 N   0  0  0  0  0  0  0  0  0  0  0  0
    5.7868    0.0044   -2.2645 C   0  0  0  0  0  0  0  0  0  0  0  0
    6.7665   -0.4428   -1.2087 C   0  0  0  0  0  0  0  0  0  0  0  0
    7.7325    0.4412   -0.7065 C   0  0  0  0  0  0  0  0  0  0  0  0
    8.6217    0.0271    0.2872 C   0  0  0  0  0  0  0  0  0  0  0  0
    8.5501   -1.2698    0.7927 C   0  0  0  0  0  0  0  0  0  0  0  0
    7.5887   -2.1540    0.3072 C   0  0  0  0  0  0  0  0  0  0  0  0
    6.6997   -1.7425   -0.6867 C   0  0  0  0  0  0  0  0  0  0  0  0
    2.0463    1.4893   -0.8900 C   0  0  0  0  0  0  0  0  0  0  0  0
    0.9357    1.8561    0.1313 C   0  0  0  0  0  0  0  0  0  0  0  0
   -0.2022    0.9766   -0.0654 N   0  0  0  0  0  0  0  0  0  0  0  0
   -5.0015    5.3323    1.9107 H   0  0  0  0  0  0  0  0  0  0  0  0
   -3.4927    5.0498    2.7677 H   0  0  0  0  0  0  0  0  0  0  0  0
   -3.5399    6.2788    1.5068 H   0  0  0  0  0  0  0  0  0  0  0  0
   -4.0615    3.5413   -2.5789 H   0  0  0  0  0  0  0  0  0  0  0  0
   -2.5753    1.6285   -2.0204 H   0  0  0  0  0  0  0  0  0  0  0  0
   -2.1737    3.3872    3.0809 H   0  0  0  0  0  0  0  0  0  0  0  0
   -0.2671   -3.4072   -0.2911 H   0  0  0  0  0  0  0  0  0  0  0  0
   -5.6423   -1.6860   -0.4897 H   0  0  0  0  0  0  0  0  0  0  0  0
   -7.4319   -3.3553   -0.6538 H   0  0  0  0  0  0  0  0  0  0  0  0
   -6.9901   -5.7304   -0.0914 H   0  0  0  0  0  0  0  0  0  0  0  0
   -4.7314   -6.4247    0.6613 H   0  0  0  0  0  0  0  0  0  0  0  0
   -2.9340   -4.7770    0.8949 H   0  0  0  0  0  0  0  0  0  0  0  0
   -4.9822   -0.9679    1.5472 H   0  0  0  0  0  0  0  0  0  0  0  0
    0.6911   -0.5570    1.1291 H   0  0  0  0  0  0  0  0  0  0  0  0
    0.6955   -0.7942   -1.9459 H   0  0  0  0  0  0  0  0  0  0  0  0
    1.4878   -1.8881   -0.8096 H   0  0  0  0  0  0  0  0  0  0  0  0
    4.6209    1.0104   -0.8706 H   0  0  0  0  0  0  0  0  0  0  0  0
    6.1820    0.8770   -2.7967 H   0  0  0  0  0  0  0  0  0  0  0  0
    5.6375   -0.7855   -3.0091 H   0  0  0  0  0  0  0  0  0  0  0  0
    7.8014    1.4573   -1.0882 H   0  0  0  0  0  0  0  0  0  0  0  0
    9.3712    0.7163    0.6674 H   0  0  0  0  0  0  0  0  0  0  0  0
    9.2422   -1.5917    1.5664 H   0  0  0  0  0  0  0  0  0  0  0  0
    7.5280   -3.1646    0.7026 H   0  0  0  0  0  0  0  0  0  0  0  0
    5.9470   -2.4393   -1.0536 H   0  0  0  0  0  0  0  0  0  0  0  0
    2.9470    2.0575   -0.6439 H   0  0  0  0  0  0  0  0  0  0  0  0
    1.7365    1.7953   -1.8976 H   0  0  0  0  0  0  0  0  0  0  0  0
    0.6528    2.9031   -0.0237 H   0  0  0  0  0  0  0  0  0  0  0  0
    1.3373    1.7661    1.1478 H   0  0  0  0  0  0  0  0  0  0  0  0
  1  2  1  0
  2  3  2  0
  3  4  1  0
  3  5  1  0
  5  6  2  0
  6  7  1  0
  7  8  2  0
  8  9  1  0
  9 10  1  0
 10 11  2  0
 10 12  1  0
 12 13  1  0
 13 14  1  0
 14 15  2  0
 15 16  1  0
 15 17  1  0
 17 18  1  0
 18 19  2  0
 19 20  1  0
 20 21  2  0
 21 22  1  0
 22 23  2  0
 17 24  1  0
 24 25  1  0
 14 26  1  0
 26 27  1  0
 27 28  1  0
 28 29  1  0
 29 30  2  0
 29 31  1  0
 31 32  1  0
 32 33  1  0
 33 34  2  0
 34 35  1  0
 35 36  2  0
 36 37  1  0
 37 38  2  0
 28 39  1  0
 39 40  1  0
 40 41  1  0
  8  2  1  0
 12 41  1  6
 12  7  1  0
 24 13  2  0
 41 26  1  0
 23 18  1  0
 38 33  1  0
  1 42  1  0
  1 43  1  0
  1 44  1  0
  5 45  1  0
  6 46  1  0
  9 47  1  0
 16 48  1  0
 19 49  1  0
 20 50  1  0
 21 51  1  0
 22 52  1  0
 23 53  1  0
 25 54  1  0
 26 55  1  1
 27 56  1  0
 27 57  1  0
 31 58  1  0
 32 59  1  0
 32 60  1  0
 34 61  1  0
 35 62  1  0
 36 63  1  0
 37 64  1  0
 38 65  1  0
 39 66  1  0
 39 67  1  0
 40 68  1  0
 40 69  1  0
M  END
$$$$
