
     RDKit          3D

 37 39  0  0  0  0  0  0  0  0999 V2000
    2.7963    2.6275    1.6729 C   0  0  0  0  0  0  0  0  0  0  0  0
    2.1451    1.8135    0.7019 O   0  0  0  0  0  0  0  0  0  0  0  0
    1.6651    0.6089    1.1464 C   0  0  0  0  0  0  0  0  0  0  0  0
    1.4805    0.2482    2.4794 C   0  0  0  0  0  0  0  0  0  0  0  0
    0.9693   -1.0100    2.8237 C   0  0  0  0  0  0  0  0  0  0  0  0
    0.6234   -1.8833    1.7867 C   0  0  0  0  0  0  0  0  0  0  0  0
    0.1286   -3.1673    1.8394 N   0  0  0  0  0  0  0  0  0  0  0  0
   -0.0806   -3.6456    0.5726 C   0  0  0  0  0  0  0  0  0  0  0  0
    0.2802   -2.6598   -0.3193 C   0  0  0  0  0  0  0  0  0  0  0  0
    0.1685   -2.8262   -1.7339 C   0  0  0  0  0  0  0  0  0  0  0  0
   -0.3526   -1.9743   -2.6359 C   0  0  0  0  0  0  0  0  0  0  0  0
   -0.9487   -0.6647   -2.3545 C   0  0  0  0  0  0  0  0  0  0  0  0
   -1.9562   -0.5078   -1.4040 C   0  0  0  0  0  0  0  0  0  0  0  0
   -2.4273    0.7644   -1.1082 C   0  0  0  0  0  0  0  0  0  0  0  0
   -1.9397    1.8454   -1.7550 N   0  0  0  0  0  4  0  0  0  0  0  0
   -2.4134    3.1923   -1.4008 C   0  0  0  0  0  0  0  0  0  0  0  0
   -0.9902    1.7107   -2.7082 C   0  0  0  0  0  0  0  0  0  0  0  0
   -0.4859    0.4583   -3.0355 C   0  0  0  0  0  0  0  0  0  0  0  0
    0.7671   -1.5494    0.4390 C   0  0  0  0  0  0  0  0  0  0  0  0
    1.3229   -0.2894    0.1276 C   0  0  0  0  0  0  0  0  0  0  0  0
    2.0755    3.0228    2.3959 H   0  0  0  0  0  0  0  0  0  0  0  0
    3.6032    2.0834    2.1751 H   0  0  0  0  0  0  0  0  0  0  0  0
    3.2420    3.4780    1.1486 H   0  0  0  0  0  0  0  0  0  0  0  0
    1.7331    0.9239    3.2914 H   0  0  0  0  0  0  0  0  0  0  0  0
    0.8514   -1.2935    3.8658 H   0  0  0  0  0  0  0  0  0  0  0  0
   -0.0441   -3.6827    2.6929 H   0  0  0  0  0  0  0  0  0  0  0  0
   -0.4744   -4.6429    0.4225 H   0  0  0  0  0  0  0  0  0  0  0  0
    0.5303   -3.7808   -2.1179 H   0  0  0  0  0  0  0  0  0  0  0  0
   -0.3409   -2.2665   -3.6852 H   0  0  0  0  0  0  0  0  0  0  0  0
   -2.3488   -1.3666   -0.8632 H   0  0  0  0  0  0  0  0  0  0  0  0
   -3.1839    0.9253   -0.3461 H   0  0  0  0  0  0  0  0  0  0  0  0
   -2.6172    3.7403   -2.3246 H   0  0  0  0  0  0  0  0  0  0  0  0
   -3.3297    3.1217   -0.8099 H   0  0  0  0  0  0  0  0  0  0  0  0
   -1.6226    3.6772   -0.8235 H   0  0  0  0  0  0  0  0  0  0  0  0
   -0.6301    2.6148   -3.1908 H   0  0  0  0  0  0  0  0  0  0  0  0
    0.2965    0.3711   -3.7868 H   0  0  0  0  0  0  0  0  0  0  0  0
    1.5072   -0.0172   -0.9056 H   0  0  0  0  0  0  0  0  0  0  0  0
  1  2  1  0
  2  3  1  0
  3  4  2  0
  4  5  1  0
  5  6  2  0
  6  7  1  0
  7  8  1  0
  8  9  2  0
  9 10  1  0
 10 11  2  3
 11 12  1  0
 12 13  2  0
 13 14  1  0
 14 15  2  0
 15 16  1  0
 15 17  1  0
 17 18  2  0
  9 19  1  0
 19 20  2  0
 20  3  1  0
 19  6  1  0
 18 12  1  0
  1 21  1  0
  1 22  1  0
  1 23  1  0
  4 24  1  0
  5 25  1  0
  7 26  1  0
  8 27  1  0
 10 28  1  0
 11 29  1  0
 13 30  1  0
 14 31  1  0
 16 32  1  0
 16 33  1  0
 16 34  1  0
 17 35  1  0
 18 36  1  0
 20 37  1  0
M  CHG  1  15   1
M  END
$$$$
