
     RDKit          3D

 39 41  0  0  0  0  0  0  0  0999 V2000
   -0.8791   -0.1619    4.3806 C   0  0  0  0  0  0  0  0  0  0  0  0
   -1.6623    0.7215    3.5881 O   0  0  0  0  0  0  0  0  0  0  0  0
   -1.8856    0.3512    2.2904 C   0  0  0  0  0  0  0  0  0  0  0  0
   -1.3344   -0.7605    1.6496 C   0  0  0  0  0  0  0  0  0  0  0  0
   -1.6466   -1.0268    0.3132 C   0  0  0  0  0  0  0  0  0  0  0  0
   -2.4980   -0.1667   -0.3861 C   0  0  0  0  0  0  0  0  0  0  0  0
   -2.8942   -0.5005   -2.0878 S   0  0  0  0  0  6  0  0  0  0  0  0
   -4.2597   -0.0709   -2.3078 O   0  0  0  0  0  0  0  0  0  0  0  0
   -2.4789   -1.8520   -2.3945 O   0  0  0  0  0  0  0  0  0  0  0  0
   -1.9237    0.5893   -2.9337 N   0  0  0  0  0  0  0  0  0  0  0  0
   -0.5339    0.7185   -2.6497 C   0  0  0  0  0  0  0  0  0  0  0  0
   -0.0085    2.0063   -2.5292 C   0  0  0  0  0  0  0  0  0  0  0  0
    1.3431    2.1863   -2.2361 C   0  0  0  0  0  0  0  0  0  0  0  0
    2.1685    1.0790   -2.0599 C   0  0  0  0  0  0  0  0  0  0  0  0
    3.4730    1.3480   -1.7478 O   0  0  0  0  0  0  0  0  0  0  0  0
    1.6642   -0.2205   -2.2038 C   0  0  0  0  0  0  0  0  0  0  0  0
    2.6652   -1.6882   -2.0223 S   0  0  0  0  0  0  0  0  0  0  0  0
    3.1033   -1.5803   -0.3414 C   0  0  0  0  0  0  0  0  0  0  0  0
    2.4459   -2.2290    0.6656 N   0  0  0  0  0  0  0  0  0  0  0  0
    3.1006   -1.8462    1.7366 C   0  0  0  0  0  0  0  0  0  0  0  0
    4.0988   -0.9948    1.3808 N   0  0  0  0  0  0  0  0  0  0  0  0
    4.1165   -0.7974    0.0510 N   0  0  0  0  0  0  0  0  0  0  0  0
    0.3107   -0.3870   -2.5305 C   0  0  0  0  0  0  0  0  0  0  0  0
   -3.0657    0.9394    0.2480 C   0  0  0  0  0  0  0  0  0  0  0  0
   -2.7501    1.1954    1.5839 C   0  0  0  0  0  0  0  0  0  0  0  0
   -0.8341    0.2491    5.3938 H   0  0  0  0  0  0  0  0  0  0  0  0
    0.1464   -0.2256    4.0018 H   0  0  0  0  0  0  0  0  0  0  0  0
   -1.3403   -1.1531    4.4436 H   0  0  0  0  0  0  0  0  0  0  0  0
   -0.6574   -1.4412    2.1559 H   0  0  0  0  0  0  0  0  0  0  0  0
   -1.2134   -1.9005   -0.1705 H   0  0  0  0  0  0  0  0  0  0  0  0
   -2.4408    1.4232   -3.2068 H   0  0  0  0  0  0  0  0  0  0  0  0
   -0.6405    2.8819   -2.6472 H   0  0  0  0  0  0  0  0  0  0  0  0
    1.7524    3.1877   -2.1326 H   0  0  0  0  0  0  0  0  0  0  0  0
    3.8845    0.5279   -1.4016 H   0  0  0  0  0  0  0  0  0  0  0  0
    2.9059   -2.1418    2.7576 H   0  0  0  0  0  0  0  0  0  0  0  0
    4.7808   -0.5244    1.9665 H   0  0  0  0  0  0  0  0  0  0  0  0
   -0.0771   -1.3908   -2.6865 H   0  0  0  0  0  0  0  0  0  0  0  0
   -3.7494    1.5984   -0.2810 H   0  0  0  0  0  0  0  0  0  0  0  0
   -3.1862    2.0569    2.0850 H   0  0  0  0  0  0  0  0  0  0  0  0
  1  2  1  0
  2  3  1  0
  3  4  2  0
  4  5  1  0
  5  6  2  0
  6  7  1  0
  7  8  2  0
  7  9  2  0
  7 10  1  0
 10 11  1  0
 11 12  2  0
 12 13  1  0
 13 14  2  0
 14 15  1  0
 14 16  1  0
 16 17  1  0
 17 18  1  0
 18 19  1  0
 19 20  2  0
 20 21  1  0
 21 22  1  0
 16 23  2  0
  6 24  1  0
 24 25  2  0
 25  3  1  0
 23 11  1  0
 22 18  2  0
  1 26  1  0
  1 27  1  0
  1 28  1  0
  4 29  1  0
  5 30  1  0
 10 31  1  0
 12 32  1  0
 13 33  1  0
 15 34  1  0
 20 35  1  0
 21 36  1  0
 23 37  1  0
 24 38  1  0
 25 39  1  0
M  END
$$$$
