
     RDKit          3D

 65 69  0  0  0  0  0  0  0  0999 V2000
   -3.2096   -5.2011    2.9315 C   0  0  0  0  0  0  0  0  0  0  0  0
   -3.2658   -3.8178    2.6084 O   0  0  0  0  0  0  0  0  0  0  0  0
   -3.7127   -3.4912    1.3573 C   0  0  0  0  0  0  0  0  0  0  0  0
   -4.1425   -4.3892    0.3801 C   0  0  0  0  0  0  0  0  0  0  0  0
   -4.5776   -3.9190   -0.8615 C   0  0  0  0  0  0  0  0  0  0  0  0
   -4.5851   -2.5500   -1.1311 C   0  0  0  0  0  0  0  0  0  0  0  0
   -4.1587   -1.6356   -0.1599 C   0  0  0  0  0  0  0  0  0  0  0  0
   -4.1494   -0.1935   -0.4373 C   0  0  0  0  0  0  0  0  0  0  0  0
   -5.6451    0.5875   -0.7258 S   0  0  0  0  0  0  0  0  0  0  0  0
   -4.9099    2.1260   -0.9206 C   0  0  0  0  0  0  0  0  0  0  0  0
   -5.5600    3.3433   -1.2006 C   0  0  0  0  0  0  0  0  0  0  0  0
   -4.8003    4.5112   -1.3334 C   0  0  0  0  0  0  0  0  0  0  0  0
   -3.4198    4.4761   -1.1939 C   0  0  0  0  0  0  0  0  0  0  0  0
   -2.5722    5.5445   -1.3034 O   0  0  0  0  0  0  0  0  0  0  0  0
   -3.1607    6.8100   -1.5755 C   0  0  0  0  0  0  0  0  0  0  0  0
   -2.7863    3.2588   -0.9158 C   0  0  0  0  0  0  0  0  0  0  0  0
   -3.5253    2.0551   -0.7681 C   0  0  0  0  0  0  0  0  0  0  0  0
   -3.0921    0.7034   -0.4831 C   0  0  0  0  0  0  0  0  0  0  0  0
   -1.7117    0.2808   -0.2646 C   0  0  0  0  0  0  0  0  0  0  0  0
   -1.0689   -0.5545   -1.1848 C   0  0  0  0  0  0  0  0  0  0  0  0
    0.2553   -0.9558   -0.9730 C   0  0  0  0  0  0  0  0  0  0  0  0
    0.9478   -0.5202    0.1571 C   0  0  0  0  0  0  0  0  0  0  0  0
    2.2364   -0.8371    0.4845 O   0  0  0  0  0  0  0  0  0  0  0  0
    2.9659   -1.6454   -0.4401 C   0  0  0  0  0  0  0  0  0  0  0  0
    4.3961   -1.8730    0.0900 C   0  0  0  0  0  0  0  0  0  0  0  0
    5.2328   -0.6621    0.1849 N   0  0  0  0  0  0  0  0  0  0  0  0
    5.4074    0.0154   -1.1086 C   0  0  0  0  0  0  0  0  0  0  0  0
    6.6858    0.8600   -1.2068 C   0  0  0  0  0  0  0  0  0  0  0  0
    7.0565    1.4631    0.1392 C   0  0  0  0  0  0  0  0  0  0  0  0
    7.2177    0.3747    1.2022 C   0  0  0  0  0  0  0  0  0  0  0  0
    6.5103   -0.9368    0.8408 C   0  0  0  0  0  0  0  0  0  0  0  0
    0.3050    0.3172    1.0723 C   0  0  0  0  0  0  0  0  0  0  0  0
   -1.0167    0.7192    0.8659 C   0  0  0  0  0  0  0  0  0  0  0  0
   -3.7233   -2.1202    1.0813 C   0  0  0  0  0  0  0  0  0  0  0  0
   -4.2077   -5.6513    2.9129 H   0  0  0  0  0  0  0  0  0  0  0  0
   -2.5220   -5.7347    2.2670 H   0  0  0  0  0  0  0  0  0  0  0  0
   -2.8233   -5.2909    3.9514 H   0  0  0  0  0  0  0  0  0  0  0  0
   -4.1529   -5.4601    0.5520 H   0  0  0  0  0  0  0  0  0  0  0  0
   -4.9115   -4.6216   -1.6208 H   0  0  0  0  0  0  0  0  0  0  0  0
   -4.9212   -2.2016   -2.1051 H   0  0  0  0  0  0  0  0  0  0  0  0
   -6.6402    3.3778   -1.3134 H   0  0  0  0  0  0  0  0  0  0  0  0
   -5.3295    5.4336   -1.5492 H   0  0  0  0  0  0  0  0  0  0  0  0
   -3.6716    6.8075   -2.5440 H   0  0  0  0  0  0  0  0  0  0  0  0
   -3.8392    7.1113   -0.7705 H   0  0  0  0  0  0  0  0  0  0  0  0
   -2.3555    7.5492   -1.6260 H   0  0  0  0  0  0  0  0  0  0  0  0
   -1.7033    3.2391   -0.8128 H   0  0  0  0  0  0  0  0  0  0  0  0
   -1.5938   -0.9005   -2.0721 H   0  0  0  0  0  0  0  0  0  0  0  0
    0.7115   -1.6089   -1.7085 H   0  0  0  0  0  0  0  0  0  0  0  0
    2.9940   -1.1747   -1.4295 H   0  0  0  0  0  0  0  0  0  0  0  0
    2.4796   -2.6253   -0.5247 H   0  0  0  0  0  0  0  0  0  0  0  0
    4.3017   -2.3039    1.0950 H   0  0  0  0  0  0  0  0  0  0  0  0
    4.8926   -2.6201   -0.5422 H   0  0  0  0  0  0  0  0  0  0  0  0
    4.5433    0.6713   -1.2684 H   0  0  0  0  0  0  0  0  0  0  0  0
    5.4237   -0.7038   -1.9377 H   0  0  0  0  0  0  0  0  0  0  0  0
    6.5497    1.6519   -1.9519 H   0  0  0  0  0  0  0  0  0  0  0  0
    7.5142    0.2318   -1.5588 H   0  0  0  0  0  0  0  0  0  0  0  0
    6.2680    2.1599    0.4507 H   0  0  0  0  0  0  0  0  0  0  0  0
    7.9785    2.0495    0.0587 H   0  0  0  0  0  0  0  0  0  0  0  0
    8.2833    0.1659    1.3560 H   0  0  0  0  0  0  0  0  0  0  0  0
    6.8360    0.7569    2.1571 H   0  0  0  0  0  0  0  0  0  0  0  0
    7.1528   -1.5515    0.1967 H   0  0  0  0  0  0  0  0  0  0  0  0
    6.3615   -1.5023    1.7690 H   0  0  0  0  0  0  0  0  0  0  0  0
    0.8407    0.6593    1.9546 H   0  0  0  0  0  0  0  0  0  0  0  0
   -1.4963    1.3689    1.5940 H   0  0  0  0  0  0  0  0  0  0  0  0
   -3.3869   -1.4267    1.8492 H   0  0  0  0  0  0  0  0  0  0  0  0
  1  2  1  0
  2  3  1  0
  3  4  2  0
  4  5  1  0
  5  6  2  0
  6  7  1  0
  7  8  1  0
  8  9  1  0
  9 10  1  0
 10 11  2  0
 11 12  1  0
 12 13  2  0
 13 14  1  0
 14 15  1  0
 13 16  1  0
 16 17  2  0
 17 18  1  0
 18 19  1  0
 19 20  2  0
 20 21  1  0
 21 22  2  0
 22 23  1  0
 23 24  1  0
 24 25  1  0
 25 26  1  0
 26 27  1  0
 27 28  1  0
 28 29  1  0
 29 30  1  0
 30 31  1  0
 22 32  1  0
 32 33  2  0
  7 34  2  0
 34  3  1  0
 18  8  2  0
 33 19  1  0
 17 10  1  0
 31 26  1  0
  1 35  1  0
  1 36  1  0
  1 37  1  0
  4 38  1  0
  5 39  1  0
  6 40  1  0
 11 41  1  0
 12 42  1  0
 15 43  1  0
 15 44  1  0
 15 45  1  0
 16 46  1  0
 20 47  1  0
 21 48  1  0
 24 49  1  0
 24 50  1  0
 25 51  1  0
 25 52  1  0
 27 53  1  0
 27 54  1  0
 28 55  1  0
 28 56  1  0
 29 57  1  0
 29 58  1  0
 30 59  1  0
 30 60  1  0
 31 61  1  0
 31 62  1  0
 32 63  1  0
 33 64  1  0
 34 65  1  0
M  END
$$$$
