
     RDKit          3D

 70 75  0  0  0  0  0  0  0  0999 V2000
   -4.6353   -3.5162    2.5816 C   0  0  0  0  0  0  0  0  0  0  0  0
   -3.7029   -2.8243    1.6220 C   0  0  0  0  0  0  0  0  0  0  0  0
   -2.9306   -1.7380    2.0988 C   0  0  0  0  0  0  0  0  0  0  0  0
   -2.0440   -1.0514    1.2673 C   0  0  0  0  0  0  0  0  0  0  0  0
   -1.9243   -1.4649   -0.0499 C   0  0  0  0  0  0  0  0  0  0  0  0
   -2.7046   -2.5260   -0.5280 C   0  0  0  0  0  0  0  0  0  0  0  0
   -3.6140   -3.2169    0.2669 C   0  0  0  0  0  0  0  0  0  0  0  0
   -4.4144   -4.3610   -0.2846 C   0  0  0  0  0  0  0  0  0  0  0  0
   -2.4321   -2.7427   -1.8761 N   0  0  0  0  0  0  0  0  0  0  0  0
   -1.4963   -1.8321   -2.3709 C   0  0  0  0  0  0  0  0  0  0  0  0
   -1.1180   -1.7999   -3.5335 O   0  0  0  0  0  0  0  0  0  0  0  0
   -1.0610   -0.9452   -1.1738 C   0  0  1  0  0  0  0  0  0  0  0  0
   -1.3698    0.4904   -1.3333 C   0  0  0  0  0  0  0  0  0  0  0  0
   -0.2256    1.2704   -1.1738 C   0  0  0  0  0  0  0  0  0  0  0  0
   -0.5651    2.5899   -1.2872 C   0  0  0  0  0  0  0  0  0  0  0  0
    0.2068    3.6541   -1.0810 O   0  0  0  0  0  0  0  0  0  0  0  0
   -1.9364    2.6326   -1.6016 N   0  0  0  0  0  0  0  0  0  0  0  0
   -2.7043    3.8093   -1.8394 C   0  0  0  0  0  0  0  0  0  0  0  0
   -2.1535    4.8726   -2.5665 C   0  0  0  0  0  0  0  0  0  0  0  0
   -2.9096    6.0231   -2.7964 C   0  0  0  0  0  0  0  0  0  0  0  0
   -4.2100    6.1166   -2.3016 C   0  0  0  0  0  0  0  0  0  0  0  0
   -4.7612    5.0592   -1.5790 C   0  0  0  0  0  0  0  0  0  0  0  0
   -4.0132    3.9036   -1.3480 C   0  0  0  0  0  0  0  0  0  0  0  0
   -2.4220    1.3123   -1.6381 C   0  0  0  0  0  0  0  0  0  0  0  0
   -3.6618    0.9683   -1.9823 O   0  0  0  0  0  0  0  0  0  0  0  0
    0.9729    0.4470   -0.9254 C   0  0  1  0  0  0  0  0  0  0  0  0
    1.7053    0.7430    0.3943 C   0  0  0  0  0  0  0  0  0  0  0  0
    2.7503   -0.2513    0.6623 N   0  0  0  0  0  0  0  0  0  0  0  0
    3.9518    0.1421    1.2139 C   0  0  0  0  0  0  0  0  0  0  0  0
    4.1843    1.2813    1.5962 O   0  0  0  0  0  0  0  0  0  0  0  0
    4.8389   -0.8845    1.2699 O   0  0  0  0  0  0  0  0  0  0  0  0
    6.1847   -0.6857    1.7726 C   0  0  0  0  0  0  0  0  0  0  0  0
    6.9631    0.3069    0.9018 C   0  0  0  0  0  0  0  0  0  0  0  0
    6.8497   -2.0661    1.6544 C   0  0  0  0  0  0  0  0  0  0  0  0
    6.1763   -0.2730    3.2481 C   0  0  0  0  0  0  0  0  0  0  0  0
    2.5029   -1.6185    0.1930 C   0  0  0  0  0  0  0  0  0  0  0  0
    1.0075   -1.8918   -0.0567 C   0  0  0  0  0  0  0  0  0  0  0  0
    0.4294   -0.9534   -1.0149 N   0  0  0  0  0  0  0  0  0  0  0  0
   -4.4543   -3.2007    3.6152 H   0  0  0  0  0  0  0  0  0  0  0  0
   -5.6748   -3.2775    2.3342 H   0  0  0  0  0  0  0  0  0  0  0  0
   -4.4876   -4.6003    2.5463 H   0  0  0  0  0  0  0  0  0  0  0  0
   -3.0216   -1.4205    3.1364 H   0  0  0  0  0  0  0  0  0  0  0  0
   -1.4641   -0.2167    1.6485 H   0  0  0  0  0  0  0  0  0  0  0  0
   -4.6306   -4.2240   -1.3487 H   0  0  0  0  0  0  0  0  0  0  0  0
   -5.3861   -4.4488    0.2100 H   0  0  0  0  0  0  0  0  0  0  0  0
   -3.8649   -5.2985   -0.1537 H   0  0  0  0  0  0  0  0  0  0  0  0
   -2.8766   -3.4237   -2.4702 H   0  0  0  0  0  0  0  0  0  0  0  0
   -0.3545    4.4300   -0.9064 H   0  0  0  0  0  0  0  0  0  0  0  0
   -1.1586    4.8062   -3.0041 H   0  0  0  0  0  0  0  0  0  0  0  0
   -2.4890    6.8446   -3.3717 H   0  0  0  0  0  0  0  0  0  0  0  0
   -4.7949    7.0155   -2.4819 H   0  0  0  0  0  0  0  0  0  0  0  0
   -5.7724    5.1393   -1.1863 H   0  0  0  0  0  0  0  0  0  0  0  0
   -4.4520    3.1095   -0.7462 H   0  0  0  0  0  0  0  0  0  0  0  0
   -4.0350    1.6689   -2.5462 H   0  0  0  0  0  0  0  0  0  0  0  0
    1.6778    0.5696   -1.7573 H   0  0  0  0  0  0  0  0  0  0  0  0
    2.1328    1.7511    0.3777 H   0  0  0  0  0  0  0  0  0  0  0  0
    1.0108    0.7054    1.2423 H   0  0  0  0  0  0  0  0  0  0  0  0
    8.0246    0.3273    1.1718 H   0  0  0  0  0  0  0  0  0  0  0  0
    6.8783    0.0433   -0.1586 H   0  0  0  0  0  0  0  0  0  0  0  0
    6.5803    1.3271    1.0024 H   0  0  0  0  0  0  0  0  0  0  0  0
    6.2999   -2.8143    2.2385 H   0  0  0  0  0  0  0  0  0  0  0  0
    7.8881   -2.0493    2.0025 H   0  0  0  0  0  0  0  0  0  0  0  0
    6.8385   -2.4160    0.6153 H   0  0  0  0  0  0  0  0  0  0  0  0
    5.7773    0.7360    3.3886 H   0  0  0  0  0  0  0  0  0  0  0  0
    5.5431   -0.9465    3.8365 H   0  0  0  0  0  0  0  0  0  0  0  0
    7.1870   -0.2861    3.6713 H   0  0  0  0  0  0  0  0  0  0  0  0
    2.8902   -2.3280    0.9331 H   0  0  0  0  0  0  0  0  0  0  0  0
    3.0771   -1.7558   -0.7315 H   0  0  0  0  0  0  0  0  0  0  0  0
    0.5122   -1.8308    0.9171 H   0  0  0  0  0  0  0  0  0  0  0  0
    0.8855   -2.9158   -0.4259 H   0  0  0  0  0  0  0  0  0  0  0  0
  1  2  1  0
  2  3  2  0
  3  4  1  0
  4  5  2  0
  5  6  1  0
  6  7  2  0
  7  8  1  0
  6  9  1  0
  9 10  1  0
 10 11  2  0
 10 12  1  0
 12 13  1  0
 13 14  1  0
 14 15  2  0
 15 16  1  0
 15 17  1  0
 17 18  1  0
 18 19  2  0
 19 20  1  0
 20 21  2  0
 21 22  1  0
 22 23  2  0
 17 24  1  0
 24 25  1  0
 14 26  1  0
 26 27  1  0
 27 28  1  0
 28 29  1  0
 29 30  2  0
 29 31  1  0
 31 32  1  0
 32 33  1  0
 32 34  1  0
 32 35  1  0
 28 36  1  0
 36 37  1  0
 37 38  1  0
  7  2  1  0
 12 38  1  1
 12  5  1  0
 24 13  2  0
 38 26  1  0
 23 18  1  0
  1 39  1  0
  1 40  1  0
  1 41  1  0
  3 42  1  0
  4 43  1  0
  8 44  1  0
  8 45  1  0
  8 46  1  0
  9 47  1  0
 16 48  1  0
 19 49  1  0
 20 50  1  0
 21 51  1  0
 22 52  1  0
 23 53  1  0
 25 54  1  0
 26 55  1  6
 27 56  1  0
 27 57  1  0
 33 58  1  0
 33 59  1  0
 33 60  1  0
 34 61  1  0
 34 62  1  0
 34 63  1  0
 35 64  1  0
 35 65  1  0
 35 66  1  0
 36 67  1  0
 36 68  1  0
 37 69  1  0
 37 70  1  0
M  END
$$$$
