
     RDKit          3D

 61 66  0  0  0  0  0  0  0  0999 V2000
    7.3767    2.4920   -1.0039 C   0  0  0  0  0  0  0  0  0  0  0  0
    7.9957    1.4308   -0.3464 C   0  0  0  0  0  0  0  0  0  0  0  0
    7.3082    0.2312   -0.1523 C   0  0  0  0  0  0  0  0  0  0  0  0
    5.9946    0.0805   -0.6180 C   0  0  0  0  0  0  0  0  0  0  0  0
    5.2489   -1.2161   -0.4029 C   0  0  0  0  0  0  0  0  0  0  0  0
    4.3026   -1.1926    0.8132 C   0  0  0  0  0  0  0  0  0  0  0  0
    3.0882   -0.3725    0.6383 N   0  0  0  0  0  0  0  0  0  0  0  0
    2.1201   -1.0007   -0.2908 C   0  0  0  0  0  0  0  0  0  0  0  0
    0.8048   -0.1977   -0.4280 C   0  0  0  0  0  0  0  0  0  0  0  0
    0.1761    0.0173    0.9031 N   0  0  0  0  0  0  0  0  0  0  0  0
   -1.1056    0.5093    0.8609 C   0  0  0  0  0  0  0  0  0  0  0  0
   -1.5578    1.7971    1.0848 C   0  0  0  0  0  0  0  0  0  0  0  0
   -2.9301    1.8441    0.7586 C   0  0  0  0  0  0  0  0  0  0  0  0
   -3.3038    0.5788    0.3490 C   0  0  0  0  0  0  0  0  0  0  0  0
   -4.5581    0.0470   -0.1390 C   0  0  0  0  0  0  0  0  0  0  0  0
   -5.6896    0.9501   -0.4765 C   0  0  0  0  0  0  0  0  0  0  0  0
   -5.4960    2.0939   -1.2594 C   0  0  0  0  0  0  0  0  0  0  0  0
   -6.5820    2.9128   -1.5746 C   0  0  0  0  0  0  0  0  0  0  0  0
   -7.8599    2.5847   -1.1201 C   0  0  0  0  0  0  0  0  0  0  0  0
   -8.0584    1.4334   -0.3574 C   0  0  0  0  0  0  0  0  0  0  0  0
   -6.9759    0.6117   -0.0404 C   0  0  0  0  0  0  0  0  0  0  0  0
   -4.7231   -1.2339   -0.2918 N   0  0  0  0  0  0  0  0  0  0  0  0
   -3.6609   -2.1067    0.0153 C   0  0  0  0  0  0  0  0  0  0  0  0
   -3.8934   -3.4796   -0.1089 C   0  0  0  0  0  0  0  0  0  0  0  0
   -2.8964   -4.4049    0.2036 C   0  0  0  0  0  0  0  0  0  0  0  0
   -1.6560   -3.9619    0.6568 C   0  0  0  0  0  0  0  0  0  0  0  0
   -1.4037   -2.5944    0.7845 C   0  0  0  0  0  0  0  0  0  0  0  0
   -2.3952   -1.6696    0.4426 C   0  0  0  0  0  0  0  0  0  0  0  0
   -2.2241   -0.2667    0.5501 N   0  0  0  0  0  0  0  0  0  0  0  0
    1.1267    0.6747    1.8294 C   0  0  0  0  0  0  0  0  0  0  0  0
    2.4247   -0.1556    1.9460 C   0  0  0  0  0  0  0  0  0  0  0  0
    5.3817    1.1560   -1.2742 C   0  0  0  0  0  0  0  0  0  0  0  0
    6.0696    2.3552   -1.4664 C   0  0  0  0  0  0  0  0  0  0  0  0
    7.9114    3.4262   -1.1529 H   0  0  0  0  0  0  0  0  0  0  0  0
    9.0141    1.5375    0.0172 H   0  0  0  0  0  0  0  0  0  0  0  0
    7.8059   -0.5853    0.3653 H   0  0  0  0  0  0  0  0  0  0  0  0
    4.7215   -1.4919   -1.3231 H   0  0  0  0  0  0  0  0  0  0  0  0
    5.9822   -2.0189   -0.2478 H   0  0  0  0  0  0  0  0  0  0  0  0
    4.8751   -0.8131    1.6703 H   0  0  0  0  0  0  0  0  0  0  0  0
    4.0208   -2.2243    1.0620 H   0  0  0  0  0  0  0  0  0  0  0  0
    2.5579   -1.0831   -1.2909 H   0  0  0  0  0  0  0  0  0  0  0  0
    1.8795   -2.0173    0.0473 H   0  0  0  0  0  0  0  0  0  0  0  0
    0.1291   -0.7495   -1.0922 H   0  0  0  0  0  0  0  0  0  0  0  0
    1.0111    0.7720   -0.9004 H   0  0  0  0  0  0  0  0  0  0  0  0
   -0.9467    2.6361    1.3883 H   0  0  0  0  0  0  0  0  0  0  0  0
   -3.5643    2.7202    0.7973 H   0  0  0  0  0  0  0  0  0  0  0  0
   -4.5108    2.3436   -1.6437 H   0  0  0  0  0  0  0  0  0  0  0  0
   -6.4339    3.8016   -2.1831 H   0  0  0  0  0  0  0  0  0  0  0  0
   -8.7051    3.2215   -1.3700 H   0  0  0  0  0  0  0  0  0  0  0  0
   -9.0562    1.1719   -0.0148 H   0  0  0  0  0  0  0  0  0  0  0  0
   -7.1342   -0.2908    0.5457 H   0  0  0  0  0  0  0  0  0  0  0  0
   -4.8667   -3.8252   -0.4473 H   0  0  0  0  0  0  0  0  0  0  0  0
   -3.0950   -5.4688    0.1058 H   0  0  0  0  0  0  0  0  0  0  0  0
   -0.8858   -4.6816    0.9223 H   0  0  0  0  0  0  0  0  0  0  0  0
   -0.4428   -2.2832    1.1774 H   0  0  0  0  0  0  0  0  0  0  0  0
    0.6785    0.7601    2.8270 H   0  0  0  0  0  0  0  0  0  0  0  0
    1.3679    1.6862    1.4770 H   0  0  0  0  0  0  0  0  0  0  0  0
    3.1076    0.3793    2.6169 H   0  0  0  0  0  0  0  0  0  0  0  0
    2.1899   -1.1211    2.4143 H   0  0  0  0  0  0  0  0  0  0  0  0
    4.3581    1.0666   -1.6302 H   0  0  0  0  0  0  0  0  0  0  0  0
    5.5822    3.1833   -1.9737 H   0  0  0  0  0  0  0  0  0  0  0  0
  1  2  2  0
  2  3  1  0
  3  4  2  0
  4  5  1  0
  5  6  1  0
  6  7  1  0
  7  8  1  0
  8  9  1  0
  9 10  1  0
 10 11  1  0
 11 12  2  0
 12 13  1  0
 13 14  2  0
 14 15  1  0
 15 16  1  0
 16 17  2  0
 17 18  1  0
 18 19  2  0
 19 20  1  0
 20 21  2  0
 15 22  2  0
 22 23  1  0
 23 24  2  0
 24 25  1  0
 25 26  2  0
 26 27  1  0
 27 28  2  0
 28 29  1  0
 10 30  1  0
 30 31  1  0
  4 32  1  0
 32 33  2  0
 33  1  1  0
 31  7  1  0
 29 11  1  0
 29 14  1  0
 21 16  1  0
 28 23  1  0
  1 34  1  0
  2 35  1  0
  3 36  1  0
  5 37  1  0
  5 38  1  0
  6 39  1  0
  6 40  1  0
  8 41  1  0
  8 42  1  0
  9 43  1  0
  9 44  1  0
 12 45  1  0
 13 46  1  0
 17 47  1  0
 18 48  1  0
 19 49  1  0
 20 50  1  0
 21 51  1  0
 24 52  1  0
 25 53  1  0
 26 54  1  0
 27 55  1  0
 30 56  1  0
 30 57  1  0
 31 58  1  0
 31 59  1  0
 32 60  1  0
 33 61  1  0
M  END
$$$$
