
     RDKit          3D

 50 51  0  0  0  0  0  0  0  0999 V2000
   -6.3778   -2.8316    1.0239 C   0  0  0  0  0  0  0  0  0  0  0  0
   -5.6477   -1.7401    0.4836 O   0  0  0  0  0  0  0  0  0  0  0  0
   -4.2900   -1.7165    0.6823 C   0  0  0  0  0  0  0  0  0  0  0  0
   -3.5788   -2.6886    1.3932 C   0  0  0  0  0  0  0  0  0  0  0  0
   -2.1949   -2.5778    1.5448 C   0  0  0  0  0  0  0  0  0  0  0  0
   -1.5148   -1.4883    1.0031 C   0  0  0  0  0  0  0  0  0  0  0  0
   -0.0873   -1.4492    1.1707 N   0  0  0  0  0  0  0  0  0  0  0  0
    0.7129   -1.8379   -0.0221 C   0  0  0  0  0  0  0  0  0  0  0  0
    1.0051   -0.7195   -1.0160 C   0  0  0  0  0  0  0  0  0  0  0  0
    0.2384   -0.5055   -1.9524 O   0  0  0  0  0  0  0  0  0  0  0  0
    2.1738   -0.0226   -0.7406 N   0  0  0  0  0  0  0  0  0  0  0  0
    2.7868    0.9849   -1.5289 C   0  0  0  0  0  0  0  0  0  0  0  0
    2.3698    1.2422   -2.8462 C   0  0  0  0  0  0  0  0  0  0  0  0
    2.9967    2.2069   -3.6399 C   0  0  0  0  0  0  0  0  0  0  0  0
    4.0713    2.9228   -3.1362 C   0  0  0  0  0  0  0  0  0  0  0  0
    4.5005    2.6671   -1.8289 C   0  0  0  0  0  0  0  0  0  0  0  0
    5.6637    3.4129   -1.3776 N   0  0  0  0  0  4  0  0  0  0  0  0
    5.5540    4.6444   -1.3137 O   0  0  0  0  0  0  0  0  0  0  0  0
    6.6844    2.7626   -1.1144 O   0  0  0  0  0  1  0  0  0  0  0  0
    3.8687    1.7221   -0.9890 C   0  0  0  0  0  0  0  0  0  0  0  0
    4.3106    1.5147    0.4384 C   0  0  0  0  0  0  0  0  0  0  0  0
    0.5527   -0.1790    2.0955 S   0  0  0  0  0  6  0  0  0  0  0  0
   -0.0649   -0.5505    3.7251 C   0  0  0  0  0  0  0  0  0  0  0  0
    1.9919   -0.3749    2.1087 O   0  0  0  0  0  0  0  0  0  0  0  0
    0.0027    1.0808    1.6504 O   0  0  0  0  0  0  0  0  0  0  0  0
   -2.2122   -0.5238    0.2741 C   0  0  0  0  0  0  0  0  0  0  0  0
   -3.5986   -0.6279    0.1112 C   0  0  0  0  0  0  0  0  0  0  0  0
   -4.3653    0.2781   -0.5808 O   0  0  0  0  0  0  0  0  0  0  0  0
   -3.6861    1.3191   -1.2716 C   0  0  0  0  0  0  0  0  0  0  0  0
   -7.4319   -2.6893    0.7666 H   0  0  0  0  0  0  0  0  0  0  0  0
   -6.3028   -2.8549    2.1160 H   0  0  0  0  0  0  0  0  0  0  0  0
   -6.0537   -3.7804    0.5839 H   0  0  0  0  0  0  0  0  0  0  0  0
   -4.0718   -3.5471    1.8366 H   0  0  0  0  0  0  0  0  0  0  0  0
   -1.6540   -3.3471    2.0896 H   0  0  0  0  0  0  0  0  0  0  0  0
    1.6565   -2.2854    0.3144 H   0  0  0  0  0  0  0  0  0  0  0  0
    0.2030   -2.6420   -0.5689 H   0  0  0  0  0  0  0  0  0  0  0  0
    2.5717   -0.1828    0.1840 H   0  0  0  0  0  0  0  0  0  0  0  0
    1.5517    0.6914   -3.3017 H   0  0  0  0  0  0  0  0  0  0  0  0
    2.6454    2.3827   -4.6542 H   0  0  0  0  0  0  0  0  0  0  0  0
    4.5691    3.6640   -3.7576 H   0  0  0  0  0  0  0  0  0  0  0  0
    5.0423    2.2505    0.7807 H   0  0  0  0  0  0  0  0  0  0  0  0
    4.7536    0.5209    0.5563 H   0  0  0  0  0  0  0  0  0  0  0  0
    3.4549    1.6221    1.1122 H   0  0  0  0  0  0  0  0  0  0  0  0
   -1.1509   -0.4463    3.7333 H   0  0  0  0  0  0  0  0  0  0  0  0
    0.2389   -1.5632    3.9964 H   0  0  0  0  0  0  0  0  0  0  0  0
    0.3776    0.1665    4.4203 H   0  0  0  0  0  0  0  0  0  0  0  0
   -1.6624    0.3032   -0.1625 H   0  0  0  0  0  0  0  0  0  0  0  0
   -4.4360    1.9061   -1.8105 H   0  0  0  0  0  0  0  0  0  0  0  0
   -3.1801    1.9911   -0.5707 H   0  0  0  0  0  0  0  0  0  0  0  0
   -2.9867    0.9150   -2.0111 H   0  0  0  0  0  0  0  0  0  0  0  0
  1  2  1  0
  2  3  1  0
  3  4  2  0
  4  5  1  0
  5  6  2  0
  6  7  1  0
  7  8  1  0
  8  9  1  0
  9 10  2  0
  9 11  1  0
 11 12  1  0
 12 13  2  0
 13 14  1  0
 14 15  2  0
 15 16  1  0
 16 17  1  0
 17 18  2  0
 17 19  1  0
 16 20  2  0
 20 21  1  0
  7 22  1  0
 22 23  1  0
 22 24  2  0
 22 25  2  0
  6 26  1  0
 26 27  2  0
 27 28  1  0
 28 29  1  0
 27  3  1  0
 20 12  1  0
  1 30  1  0
  1 31  1  0
  1 32  1  0
  4 33  1  0
  5 34  1  0
  8 35  1  0
  8 36  1  0
 11 37  1  0
 13 38  1  0
 14 39  1  0
 15 40  1  0
 21 41  1  0
 21 42  1  0
 21 43  1  0
 23 44  1  0
 23 45  1  0
 23 46  1  0
 26 47  1  0
 29 48  1  0
 29 49  1  0
 29 50  1  0
M  CHG  2  17   1  19  -1
M  END
$$$$
