
     RDKit          3D

 42 44  0  0  0  0  0  0  0  0999 V2000
   -6.1971    0.8818   -2.0395 C   0  0  0  0  0  0  0  0  0  0  0  0
   -6.0437    0.2194   -0.7916 O   0  0  0  0  0  0  0  0  0  0  0  0
   -4.7984    0.2216   -0.2258 C   0  0  0  0  0  0  0  0  0  0  0  0
   -4.7051   -0.4880    0.9697 C   0  0  0  0  0  0  0  0  0  0  0  0
   -3.4909   -0.5681    1.6440 C   0  0  0  0  0  0  0  0  0  0  0  0
   -3.5021   -1.2663    2.8247 O   0  0  0  0  0  0  0  0  0  0  0  0
   -2.3365    0.0389    1.1233 C   0  0  0  0  0  0  0  0  0  0  0  0
   -1.0672   -0.1386    1.8768 C   0  0  0  0  0  0  0  0  0  0  0  0
   -1.1126   -0.2190    3.1043 O   0  0  0  0  0  0  0  0  0  0  0  0
    0.2007   -0.3291    1.1247 C   0  0  0  0  0  0  0  0  0  0  0  0
    1.3709   -0.3471    1.7822 C   0  0  0  0  0  0  0  0  0  0  0  0
    2.6844   -0.5394    1.1768 C   0  0  0  0  0  0  0  0  0  0  0  0
    2.9559   -0.0771   -0.0710 C   0  0  0  0  0  0  0  0  0  0  0  0
    4.3597   -0.1733   -0.5738 C   0  0  2  0  0  0  0  0  0  0  0  0
    4.5651   -0.2608   -1.9772 O   0  0  0  0  0  0  0  0  0  0  0  0
    5.8996   -0.8274   -2.0314 C   0  0  0  0  0  0  0  0  0  0  0  0
    6.2631   -1.3839   -0.7427 O   0  0  0  0  0  0  0  0  0  0  0  0
    4.9945   -1.4721   -0.1120 C   0  0  1  0  0  0  0  0  0  0  0  0
    4.9445   -1.5346    1.3762 C   0  0  0  0  0  0  0  0  0  0  0  0
    3.8159   -1.0873    1.9664 C   0  0  0  0  0  0  0  0  0  0  0  0
   -2.4346    0.7996   -0.0580 C   0  0  0  0  0  0  0  0  0  0  0  0
   -1.3055    1.4551   -0.4788 O   0  0  0  0  0  0  0  0  0  0  0  0
   -1.4311    2.4044   -1.5314 C   0  0  0  0  0  0  0  0  0  0  0  0
   -3.6669    0.8699   -0.7314 C   0  0  0  0  0  0  0  0  0  0  0  0
   -5.5563    0.4341   -2.8059 H   0  0  0  0  0  0  0  0  0  0  0  0
   -7.2362    0.7569   -2.3590 H   0  0  0  0  0  0  0  0  0  0  0  0
   -6.0055    1.9549   -1.9412 H   0  0  0  0  0  0  0  0  0  0  0  0
   -5.5836   -0.9778    1.3824 H   0  0  0  0  0  0  0  0  0  0  0  0
   -2.6744   -1.0515    3.3117 H   0  0  0  0  0  0  0  0  0  0  0  0
    0.1409   -0.4737    0.0537 H   0  0  0  0  0  0  0  0  0  0  0  0
    1.3716   -0.2343    2.8667 H   0  0  0  0  0  0  0  0  0  0  0  0
    2.2269    0.4297   -0.6917 H   0  0  0  0  0  0  0  0  0  0  0  0
    4.9143    0.7139   -0.2312 H   0  0  0  0  0  0  0  0  0  0  0  0
    6.6175   -0.0449   -2.2959 H   0  0  0  0  0  0  0  0  0  0  0  0
    5.9186   -1.6179   -2.7882 H   0  0  0  0  0  0  0  0  0  0  0  0
    4.4947   -2.3618   -0.5244 H   0  0  0  0  0  0  0  0  0  0  0  0
    5.7605   -1.9738    1.9361 H   0  0  0  0  0  0  0  0  0  0  0  0
    3.6989   -1.1480    3.0453 H   0  0  0  0  0  0  0  0  0  0  0  0
   -0.4618    2.8975   -1.6526 H   0  0  0  0  0  0  0  0  0  0  0  0
   -2.1690    3.1755   -1.2856 H   0  0  0  0  0  0  0  0  0  0  0  0
   -1.6725    1.9086   -2.4772 H   0  0  0  0  0  0  0  0  0  0  0  0
   -3.7474    1.4339   -1.6518 H   0  0  0  0  0  0  0  0  0  0  0  0
  1  2  1  0
  2  3  1  0
  3  4  2  0
  4  5  1  0
  5  6  1  0
  5  7  2  0
  7  8  1  0
  8  9  2  0
  8 10  1  0
 10 11  2  0
 11 12  1  0
 12 13  2  0
 13 14  1  0
 14 15  1  0
 15 16  1  0
 16 17  1  0
 17 18  1  0
 18 19  1  0
 19 20  2  0
  7 21  1  0
 21 22  1  0
 22 23  1  0
 21 24  2  0
 24  3  1  0
 20 12  1  0
 18 14  1  0
  1 25  1  0
  1 26  1  0
  1 27  1  0
  4 28  1  0
  6 29  1  0
 10 30  1  0
 11 31  1  0
 13 32  1  0
 14 33  1  1
 16 34  1  0
 16 35  1  0
 18 36  1  6
 19 37  1  0
 20 38  1  0
 23 39  1  0
 23 40  1  0
 23 41  1  0
 24 42  1  0
M  END
$$$$
