
     RDKit          3D

 38 39  0  0  0  0  0  0  0  0999 V2000
    1.2644    0.9904    1.8210 O   0  0  0  0  0  0  0  0  0  0  0  0
    0.3046    0.7053    1.1173 C   0  0  0  0  0  0  0  0  0  0  0  0
   -1.0490    0.5953    1.7072 C   0  0  0  0  0  0  0  0  0  0  0  0
   -2.1432    1.0345    1.0666 C   0  0  0  0  0  0  0  0  0  0  0  0
   -3.4993    0.8922    1.6182 C   0  0  0  0  0  0  0  0  0  0  0  0
   -3.7667    1.3883    2.9052 C   0  0  0  0  0  0  0  0  0  0  0  0
   -5.0510    1.3123    3.4555 C   0  0  0  0  0  0  0  0  0  0  0  0
   -6.0976    0.7482    2.7286 C   0  0  0  0  0  0  0  0  0  0  0  0
   -5.8646    0.2569    1.4459 C   0  0  0  0  0  0  0  0  0  0  0  0
   -4.5722    0.3302    0.8996 C   0  0  0  0  0  0  0  0  0  0  0  0
   -4.3832   -0.2079   -0.4453 N   0  0  0  0  0  4  0  0  0  0  0  0
   -5.2570    0.0521   -1.2845 O   0  0  0  0  0  0  0  0  0  0  0  0
   -3.3747   -0.8953   -0.6629 O   0  0  0  0  0  1  0  0  0  0  0  0
    0.3741    0.3886   -0.2155 N   0  0  0  0  0  0  0  0  0  0  0  0
    1.6436    0.3400   -0.9146 C   0  0  0  0  0  0  0  0  0  0  0  0
    2.4085   -0.9556   -0.6342 C   0  0  0  0  0  0  0  0  0  0  0  0
    3.7138   -1.0089   -1.3894 C   0  0  0  0  0  0  0  0  0  0  0  0
    3.7894   -1.6408   -2.6398 C   0  0  0  0  0  0  0  0  0  0  0  0
    4.9959   -1.6705   -3.3407 C   0  0  0  0  0  0  0  0  0  0  0  0
    6.1221   -1.0667   -2.7943 C   0  0  0  0  0  0  0  0  0  0  0  0
    7.2788   -1.0958   -3.4695 F   0  0  0  0  0  0  0  0  0  0  0  0
    6.0659   -0.4318   -1.5597 C   0  0  0  0  0  0  0  0  0  0  0  0
    4.8612   -0.4007   -0.8567 C   0  0  0  0  0  0  0  0  0  0  0  0
   -1.0753    0.1705    2.7044 H   0  0  0  0  0  0  0  0  0  0  0  0
   -2.0701    1.4904    0.0815 H   0  0  0  0  0  0  0  0  0  0  0  0
   -2.9771    1.8546    3.4938 H   0  0  0  0  0  0  0  0  0  0  0  0
   -5.2340    1.7034    4.4546 H   0  0  0  0  0  0  0  0  0  0  0  0
   -7.0946    0.6964    3.1609 H   0  0  0  0  0  0  0  0  0  0  0  0
   -6.6877   -0.1789    0.8826 H   0  0  0  0  0  0  0  0  0  0  0  0
   -0.4361   -0.0217   -0.6655 H   0  0  0  0  0  0  0  0  0  0  0  0
    2.2388    1.2110   -0.6157 H   0  0  0  0  0  0  0  0  0  0  0  0
    1.4236    0.4373   -1.9836 H   0  0  0  0  0  0  0  0  0  0  0  0
    1.7893   -1.8211   -0.9036 H   0  0  0  0  0  0  0  0  0  0  0  0
    2.6071   -1.0626    0.4398 H   0  0  0  0  0  0  0  0  0  0  0  0
    2.9113   -2.1142   -3.0733 H   0  0  0  0  0  0  0  0  0  0  0  0
    5.0647   -2.1593   -4.3070 H   0  0  0  0  0  0  0  0  0  0  0  0
    6.9574    0.0343   -1.1531 H   0  0  0  0  0  0  0  0  0  0  0  0
    4.8193    0.0994    0.1096 H   0  0  0  0  0  0  0  0  0  0  0  0
  1  2  2  0
  2  3  1  0
  3  4  2  3
  4  5  1  0
  5  6  2  0
  6  7  1  0
  7  8  2  0
  8  9  1  0
  9 10  2  0
 10 11  1  0
 11 12  2  0
 11 13  1  0
  2 14  1  0
 14 15  1  0
 15 16  1  0
 16 17  1  0
 17 18  2  0
 18 19  1  0
 19 20  2  0
 20 21  1  0
 20 22  1  0
 22 23  2  0
 10  5  1  0
 23 17  1  0
  3 24  1  0
  4 25  1  0
  6 26  1  0
  7 27  1  0
  8 28  1  0
  9 29  1  0
 14 30  1  0
 15 31  1  0
 15 32  1  0
 16 33  1  0
 16 34  1  0
 18 35  1  0
 19 36  1  0
 22 37  1  0
 23 38  1  0
M  CHG  2  11   1  13  -1
M  END
$$$$
