
     RDKit          3D

 57 59  0  0  0  0  0  0  0  0999 V2000
   11.4803   -0.1265   -2.7429 C   0  0  0  0  0  0  0  0  0  0  0  0
   10.5668    0.7566   -2.1036 O   0  0  0  0  0  0  0  0  0  0  0  0
    9.3096    0.2775   -1.8682 C   0  0  0  0  0  0  0  0  0  0  0  0
    8.8301   -0.9832   -2.2174 C   0  0  0  0  0  0  0  0  0  0  0  0
    7.5119   -1.3402   -1.9112 C   0  0  0  0  0  0  0  0  0  0  0  0
    6.6561   -0.4481   -1.2603 C   0  0  0  0  0  0  0  0  0  0  0  0
    5.4001   -0.9363   -1.0345 O   0  0  0  0  0  0  0  0  0  0  0  0
    4.4156   -0.0788   -0.4456 C   0  0  0  0  0  0  0  0  0  0  0  0
    3.7431    0.7758   -1.5202 C   0  0  0  0  0  0  0  0  0  0  0  0
    2.5750    1.9846   -0.8226 S   0  0  0  0  0  0  0  0  0  0  0  0
    1.1937    0.9918   -0.5145 C   0  0  0  0  0  0  0  0  0  0  0  0
    1.1218   -0.3121   -0.6349 N   0  0  0  0  0  0  0  0  0  0  0  0
   -0.1589   -0.6908   -0.3204 N   0  0  0  0  0  0  0  0  0  0  0  0
   -0.8445    0.3901   -0.0017 C   0  0  0  0  0  0  0  0  0  0  0  0
   -2.2897    0.4558    0.3645 C   0  0  0  0  0  0  0  0  0  0  0  0
   -2.9207   -0.9342    0.5033 C   0  0  0  0  0  0  0  0  0  0  0  0
   -4.3707   -0.8885    0.6306 N   0  0  0  0  0  0  0  0  0  0  0  0
   -4.9803   -0.3916    1.7655 C   0  0  0  0  0  0  0  0  0  0  0  0
   -4.3679    0.1265    2.6922 O   0  0  0  0  0  0  0  0  0  0  0  0
   -6.4606   -0.5387    1.8333 C   0  0  0  0  0  0  0  0  0  0  0  0
   -7.0684   -0.6146    3.0927 C   0  0  0  0  0  0  0  0  0  0  0  0
   -8.4574   -0.7495    3.2031 C   0  0  0  0  0  0  0  0  0  0  0  0
   -9.2491   -0.7996    2.0548 C   0  0  0  0  0  0  0  0  0  0  0  0
  -10.6102   -0.9261    2.0207 O   0  0  0  0  0  0  0  0  0  0  0  0
  -11.2737   -1.0871    3.2699 C   0  0  0  0  0  0  0  0  0  0  0  0
   -8.6418   -0.7048    0.7983 C   0  0  0  0  0  0  0  0  0  0  0  0
   -7.2551   -0.5719    0.6818 C   0  0  0  0  0  0  0  0  0  0  0  0
   -0.0124    1.4828   -0.0973 N   0  0  0  0  0  0  0  0  0  0  0  0
   -0.3514    2.8601    0.1511 C   0  0  0  0  0  0  0  0  0  0  0  0
    7.1353    0.8137   -0.9131 C   0  0  0  0  0  0  0  0  0  0  0  0
    8.4560    1.1699   -1.2169 C   0  0  0  0  0  0  0  0  0  0  0  0
   11.1349   -0.3891   -3.7511 H   0  0  0  0  0  0  0  0  0  0  0  0
   11.6542   -1.0230   -2.1360 H   0  0  0  0  0  0  0  0  0  0  0  0
   12.4385    0.3975   -2.8441 H   0  0  0  0  0  0  0  0  0  0  0  0
    9.4476   -1.7144   -2.7264 H   0  0  0  0  0  0  0  0  0  0  0  0
    7.1467   -2.3285   -2.1859 H   0  0  0  0  0  0  0  0  0  0  0  0
    3.6766   -0.7466    0.0128 H   0  0  0  0  0  0  0  0  0  0  0  0
    4.8357    0.5096    0.3779 H   0  0  0  0  0  0  0  0  0  0  0  0
    3.2498    0.1409   -2.2655 H   0  0  0  0  0  0  0  0  0  0  0  0
    4.4994    1.3426   -2.0749 H   0  0  0  0  0  0  0  0  0  0  0  0
   -2.4023    1.0083    1.3045 H   0  0  0  0  0  0  0  0  0  0  0  0
   -2.8243    1.0213   -0.4099 H   0  0  0  0  0  0  0  0  0  0  0  0
   -2.5139   -1.4577    1.3776 H   0  0  0  0  0  0  0  0  0  0  0  0
   -2.7130   -1.5439   -0.3826 H   0  0  0  0  0  0  0  0  0  0  0  0
   -4.8964   -1.5303    0.0521 H   0  0  0  0  0  0  0  0  0  0  0  0
   -6.4605   -0.5715    3.9951 H   0  0  0  0  0  0  0  0  0  0  0  0
   -8.8857   -0.8066    4.1990 H   0  0  0  0  0  0  0  0  0  0  0  0
  -12.3437   -1.2092    3.0674 H   0  0  0  0  0  0  0  0  0  0  0  0
  -11.1524   -0.1973    3.8979 H   0  0  0  0  0  0  0  0  0  0  0  0
  -10.9279   -1.9891    3.7888 H   0  0  0  0  0  0  0  0  0  0  0  0
   -9.2586   -0.7267   -0.0981 H   0  0  0  0  0  0  0  0  0  0  0  0
   -6.8208   -0.4686   -0.3085 H   0  0  0  0  0  0  0  0  0  0  0  0
   -0.3560    3.3919   -0.8044 H   0  0  0  0  0  0  0  0  0  0  0  0
   -1.3410    2.9307    0.6101 H   0  0  0  0  0  0  0  0  0  0  0  0
    0.3876    3.2914    0.8334 H   0  0  0  0  0  0  0  0  0  0  0  0
    6.5197    1.5491   -0.4053 H   0  0  0  0  0  0  0  0  0  0  0  0
    8.8234    2.1562   -0.9397 H   0  0  0  0  0  0  0  0  0  0  0  0
  1  2  1  0
  2  3  1  0
  3  4  2  0
  4  5  1  0
  5  6  2  0
  6  7  1  0
  7  8  1  0
  8  9  1  0
  9 10  1  0
 10 11  1  0
 11 12  2  0
 12 13  1  0
 13 14  2  0
 14 15  1  0
 15 16  1  0
 16 17  1  0
 17 18  1  0
 18 19  2  0
 18 20  1  0
 20 21  2  0
 21 22  1  0
 22 23  2  0
 23 24  1  0
 24 25  1  0
 23 26  1  0
 26 27  2  0
 14 28  1  0
 28 29  1  0
  6 30  1  0
 30 31  2  0
 31  3  1  0
 28 11  1  0
 27 20  1  0
  1 32  1  0
  1 33  1  0
  1 34  1  0
  4 35  1  0
  5 36  1  0
  8 37  1  0
  8 38  1  0
  9 39  1  0
  9 40  1  0
 15 41  1  0
 15 42  1  0
 16 43  1  0
 16 44  1  0
 17 45  1  0
 21 46  1  0
 22 47  1  0
 25 48  1  0
 25 49  1  0
 25 50  1  0
 26 51  1  0
 27 52  1  0
 29 53  1  0
 29 54  1  0
 29 55  1  0
 30 56  1  0
 31 57  1  0
M  END
$$$$
