
     RDKit          3D

 35 36  0  0  0  0  0  0  0  0999 V2000
   -5.5914   -2.0612   -1.3737 C   0  0  0  0  0  0  0  0  0  0  0  0
   -4.4268   -1.2462   -0.8961 C   0  0  0  0  0  0  0  0  0  0  0  0
   -4.1266   -0.0189   -1.4915 C   0  0  0  0  0  0  0  0  0  0  0  0
   -3.0211    0.7316   -1.0704 C   0  0  0  0  0  0  0  0  0  0  0  0
   -2.1832    0.2686   -0.0522 C   0  0  0  0  0  0  0  0  0  0  0  0
   -1.0535    0.9911    0.4042 N   0  0  0  0  0  0  0  0  0  0  0  0
   -0.5984    2.2244   -0.0298 C   0  0  0  0  0  0  0  0  0  0  0  0
   -1.1177    2.9316   -0.8896 O   0  0  0  0  0  0  0  0  0  0  0  0
    0.6674    2.6941    0.6953 C   0  0  0  0  0  0  0  0  0  0  0  0
    1.8499    2.0179    0.2669 O   0  0  0  0  0  0  0  0  0  0  0  0
    2.0657    0.8220    0.8560 C   0  0  0  0  0  0  0  0  0  0  0  0
    1.3796    0.3090    1.7235 O   0  0  0  0  0  0  0  0  0  0  0  0
    3.3167    0.2404    0.3514 C   0  0  0  0  0  0  0  0  0  0  0  0
    4.3134   -0.0469    1.2937 C   0  0  0  0  0  0  0  0  0  0  0  0
    5.5184   -0.6006    0.8691 C   0  0  0  0  0  0  0  0  0  0  0  0
    6.7516   -0.9435    2.0170 Cl  0  0  0  0  0  0  0  0  0  0  0  0
    5.7325   -0.8793   -0.4803 C   0  0  0  0  0  0  0  0  0  0  0  0
    4.7281   -0.6114   -1.4150 C   0  0  0  0  0  0  0  0  0  0  0  0
    3.5131   -0.0556   -1.0021 C   0  0  0  0  0  0  0  0  0  0  0  0
    2.2913    0.1849   -2.1970 Cl  0  0  0  0  0  0  0  0  0  0  0  0
   -2.4828   -0.9752    0.5333 C   0  0  0  0  0  0  0  0  0  0  0  0
   -1.4163   -1.7085    1.9278 Br  0  0  0  0  0  0  0  0  0  0  0  0
   -3.5881   -1.7264    0.1132 C   0  0  0  0  0  0  0  0  0  0  0  0
   -6.3943   -1.4155   -1.7450 H   0  0  0  0  0  0  0  0  0  0  0  0
   -6.0087   -2.6611   -0.5581 H   0  0  0  0  0  0  0  0  0  0  0  0
   -5.2745   -2.7304   -2.1794 H   0  0  0  0  0  0  0  0  0  0  0  0
   -4.7508    0.3711   -2.2935 H   0  0  0  0  0  0  0  0  0  0  0  0
   -2.8436    1.6776   -1.5720 H   0  0  0  0  0  0  0  0  0  0  0  0
   -0.5029    0.5237    1.1277 H   0  0  0  0  0  0  0  0  0  0  0  0
    0.5280    2.6220    1.7811 H   0  0  0  0  0  0  0  0  0  0  0  0
    0.8057    3.7584    0.4744 H   0  0  0  0  0  0  0  0  0  0  0  0
    4.1471    0.1629    2.3482 H   0  0  0  0  0  0  0  0  0  0  0  0
    6.6736   -1.3134   -0.8105 H   0  0  0  0  0  0  0  0  0  0  0  0
    4.8971   -0.8482   -2.4635 H   0  0  0  0  0  0  0  0  0  0  0  0
   -3.7984   -2.6888    0.5747 H   0  0  0  0  0  0  0  0  0  0  0  0
  1  2  1  0
  2  3  2  0
  3  4  1  0
  4  5  2  0
  5  6  1  0
  6  7  1  0
  7  8  2  0
  7  9  1  0
  9 10  1  0
 10 11  1  0
 11 12  2  0
 11 13  1  0
 13 14  2  0
 14 15  1  0
 15 16  1  0
 15 17  2  0
 17 18  1  0
 18 19  2  0
 19 20  1  0
  5 21  1  0
 21 22  1  0
 21 23  2  0
 23  2  1  0
 19 13  1  0
  1 24  1  0
  1 25  1  0
  1 26  1  0
  3 27  1  0
  4 28  1  0
  6 29  1  0
  9 30  1  0
  9 31  1  0
 14 32  1  0
 17 33  1  0
 18 34  1  0
 23 35  1  0
M  END
$$$$
