
     RDKit          3D

 57 61  0  0  0  0  0  0  0  0999 V2000
   -6.6291    3.6751   -2.6217 C   0  0  0  0  0  0  0  0  0  0  0  0
   -6.1327    2.6135   -1.6855 C   0  0  0  0  0  0  0  0  0  0  0  0
   -6.7665    1.3677   -1.6260 C   0  0  0  0  0  0  0  0  0  0  0  0
   -6.3223    0.3880   -0.7352 C   0  0  0  0  0  0  0  0  0  0  0  0
   -5.2446    0.6427    0.1238 C   0  0  0  0  0  0  0  0  0  0  0  0
   -4.7555   -0.4200    1.0752 C   0  0  0  0  0  0  0  0  0  0  0  0
   -3.8671   -1.3540    0.4171 N   0  0  0  0  0  0  0  0  0  0  0  0
   -4.3295   -2.5379   -0.0574 N   0  0  0  0  0  0  0  0  0  0  0  0
   -3.2978   -3.1901   -0.5942 N   0  0  0  0  0  0  0  0  0  0  0  0
   -2.1949   -2.4100   -0.4272 C   0  0  0  0  0  0  0  0  0  0  0  0
   -0.8252   -2.6199   -0.8120 C   0  0  0  0  0  0  0  0  0  0  0  0
   -0.3942   -3.6038   -1.4008 O   0  0  0  0  0  0  0  0  0  0  0  0
   -0.0131   -1.5571   -0.4342 N   0  0  0  0  0  0  0  0  0  0  0  0
   -0.4615   -0.4221    0.2303 C   0  0  0  0  0  0  0  0  0  0  0  0
    0.5822    0.6413    0.5661 C   0  0  0  0  0  0  0  0  0  0  0  0
    1.3839    1.0750   -0.6711 C   0  0  0  0  0  0  0  0  0  0  0  0
    2.8196    0.5518   -0.6698 C   0  0  0  0  0  0  0  0  0  0  0  0
    2.8192   -0.8238   -0.1270 N   0  0  0  0  0  0  0  0  0  0  0  0
    4.0674   -1.8703   -0.6626 S   0  0  0  0  0  6  0  0  0  0  0  0
    4.1997   -1.7219   -2.0940 O   0  0  0  0  0  0  0  0  0  0  0  0
    3.7768   -3.1645   -0.0798 O   0  0  0  0  0  0  0  0  0  0  0  0
    5.5343   -1.2640    0.1095 C   0  0  0  0  0  0  0  0  0  0  0  0
    6.0947   -1.9615    1.1875 C   0  0  0  0  0  0  0  0  0  0  0  0
    7.2773   -1.5020    1.7707 C   0  0  0  0  0  0  0  0  0  0  0  0
    7.9040   -0.3591    1.2727 C   0  0  0  0  0  0  0  0  0  0  0  0
    7.3501    0.3229    0.1890 C   0  0  0  0  0  0  0  0  0  0  0  0
    6.1703   -0.1364   -0.3926 C   0  0  0  0  0  0  0  0  0  0  0  0
    5.6625    0.5560   -1.4197 F   0  0  0  0  0  0  0  0  0  0  0  0
    2.4965   -0.8927    1.3233 C   0  0  0  0  0  0  0  0  0  0  0  0
    1.4857    0.1868    1.7163 C   0  0  0  0  0  0  0  0  0  0  0  0
   -1.7007   -0.2290    0.5936 N   0  0  0  0  0  0  0  0  0  0  0  0
   -2.5187   -1.2476    0.2298 C   0  0  0  0  0  0  0  0  0  0  0  0
   -4.6145    1.8934    0.0662 C   0  0  0  0  0  0  0  0  0  0  0  0
   -5.0606    2.8723   -0.8247 C   0  0  0  0  0  0  0  0  0  0  0  0
   -5.8067    4.3173   -2.9541 H   0  0  0  0  0  0  0  0  0  0  0  0
   -7.0752    3.2301   -3.5173 H   0  0  0  0  0  0  0  0  0  0  0  0
   -7.3813    4.2929   -2.1217 H   0  0  0  0  0  0  0  0  0  0  0  0
   -7.6076    1.1472   -2.2800 H   0  0  0  0  0  0  0  0  0  0  0  0
   -6.8198   -0.5806   -0.7225 H   0  0  0  0  0  0  0  0  0  0  0  0
   -5.5982   -0.9824    1.4945 H   0  0  0  0  0  0  0  0  0  0  0  0
   -4.2160    0.0219    1.9208 H   0  0  0  0  0  0  0  0  0  0  0  0
    0.9653   -1.6521   -0.6877 H   0  0  0  0  0  0  0  0  0  0  0  0
    0.0155    1.5169    0.9132 H   0  0  0  0  0  0  0  0  0  0  0  0
    1.4213    2.1708   -0.7185 H   0  0  0  0  0  0  0  0  0  0  0  0
    0.8773    0.7554   -1.5907 H   0  0  0  0  0  0  0  0  0  0  0  0
    3.1958    0.5831   -1.6963 H   0  0  0  0  0  0  0  0  0  0  0  0
    3.4592    1.1957   -0.0553 H   0  0  0  0  0  0  0  0  0  0  0  0
    5.6262   -2.8658    1.5724 H   0  0  0  0  0  0  0  0  0  0  0  0
    7.7173   -2.0425    2.6065 H   0  0  0  0  0  0  0  0  0  0  0  0
    8.8291   -0.0057    1.7230 H   0  0  0  0  0  0  0  0  0  0  0  0
    7.8352    1.2088   -0.2110 H   0  0  0  0  0  0  0  0  0  0  0  0
    3.3968   -0.7777    1.9344 H   0  0  0  0  0  0  0  0  0  0  0  0
    2.0668   -1.8777    1.5376 H   0  0  0  0  0  0  0  0  0  0  0  0
    0.8895   -0.1674    2.5661 H   0  0  0  0  0  0  0  0  0  0  0  0
    2.0399    1.0626    2.0800 H   0  0  0  0  0  0  0  0  0  0  0  0
   -3.7658    2.1126    0.7113 H   0  0  0  0  0  0  0  0  0  0  0  0
   -4.5603    3.8379   -0.8475 H   0  0  0  0  0  0  0  0  0  0  0  0
  1  2  1  0
  2  3  2  0
  3  4  1  0
  4  5  2  0
  5  6  1  0
  6  7  1  0
  7  8  1  0
  8  9  2  0
  9 10  1  0
 10 11  1  0
 11 12  2  0
 11 13  1  0
 13 14  1  0
 14 15  1  0
 15 16  1  0
 16 17  1  0
 17 18  1  0
 18 19  1  0
 19 20  2  0
 19 21  2  0
 19 22  1  0
 22 23  2  0
 23 24  1  0
 24 25  2  0
 25 26  1  0
 26 27  2  0
 27 28  1  0
 18 29  1  0
 29 30  1  0
 14 31  2  0
 31 32  1  0
  5 33  1  0
 33 34  2  0
 34  2  1  0
 32  7  1  0
 32 10  2  0
 30 15  1  0
 27 22  1  0
  1 35  1  0
  1 36  1  0
  1 37  1  0
  3 38  1  0
  4 39  1  0
  6 40  1  0
  6 41  1  0
 13 42  1  0
 15 43  1  0
 16 44  1  0
 16 45  1  0
 17 46  1  0
 17 47  1  0
 23 48  1  0
 24 49  1  0
 25 50  1  0
 26 51  1  0
 29 52  1  0
 29 53  1  0
 30 54  1  0
 30 55  1  0
 33 56  1  0
 34 57  1  0
M  END
$$$$
