
     RDKit          3D

 40 42  0  0  0  0  0  0  0  0999 V2000
   -5.2925   -1.1463    0.4203 C   0  0  0  0  0  0  0  0  0  0  0  0
   -3.9286   -0.5711    0.1748 C   0  0  0  0  0  0  0  0  0  0  0  0
   -3.4495   -0.4142   -1.1270 C   0  0  0  0  0  0  0  0  0  0  0  0
   -2.1899    0.1595   -1.3898 C   0  0  0  0  0  0  0  0  0  0  0  0
   -1.7953    0.2878   -2.8363 C   0  0  0  0  0  0  0  0  0  0  0  0
   -1.3928    0.5827   -0.2983 C   0  0  0  0  0  0  0  0  0  0  0  0
    0.2497    1.3016   -0.5499 S   0  0  0  0  0  6  0  0  0  0  0  0
    0.3011    2.5183    0.2355 O   0  0  0  0  0  0  0  0  0  0  0  0
    0.5632    1.3468   -1.9633 O   0  0  0  0  0  0  0  0  0  0  0  0
    1.2579    0.1133    0.1466 N   0  0  0  0  0  0  0  0  0  0  0  0
    1.1710   -1.2583   -0.4584 C   0  0  0  0  0  0  0  0  0  0  0  0
    2.5354   -1.9211   -0.2121 C   0  0  0  0  0  0  0  0  0  0  0  0
    3.4143   -0.7422    0.0462 C   0  0  0  0  0  0  0  0  0  0  0  0
    4.7966   -0.7267    0.1555 C   0  0  0  0  0  0  0  0  0  0  0  0
    5.4200    0.4775    0.4849 C   0  0  0  0  0  0  0  0  0  0  0  0
    4.6584    1.6314    0.7215 C   0  0  0  0  0  0  0  0  0  0  0  0
    3.2641    1.5990    0.6192 C   0  0  0  0  0  0  0  0  0  0  0  0
    2.6577    0.4126    0.2457 C   0  0  0  0  0  0  0  0  0  0  0  0
   -1.8792    0.4499    1.0298 C   0  0  0  0  0  0  0  0  0  0  0  0
   -1.1347    0.9288    2.2507 C   0  0  0  0  0  0  0  0  0  0  0  0
   -3.1484   -0.1199    1.2393 C   0  0  0  0  0  0  0  0  0  0  0  0
   -5.3316   -1.6608    1.3862 H   0  0  0  0  0  0  0  0  0  0  0  0
   -6.0418   -0.3488    0.4133 H   0  0  0  0  0  0  0  0  0  0  0  0
   -5.5505   -1.8819   -0.3489 H   0  0  0  0  0  0  0  0  0  0  0  0
   -4.0768   -0.7390   -1.9572 H   0  0  0  0  0  0  0  0  0  0  0  0
   -2.5862   -0.0754   -3.5029 H   0  0  0  0  0  0  0  0  0  0  0  0
   -0.9095   -0.3170   -3.0504 H   0  0  0  0  0  0  0  0  0  0  0  0
   -1.6305    1.3368   -3.0994 H   0  0  0  0  0  0  0  0  0  0  0  0
    0.3648   -1.8373    0.0018 H   0  0  0  0  0  0  0  0  0  0  0  0
    0.9897   -1.1976   -1.5377 H   0  0  0  0  0  0  0  0  0  0  0  0
    2.8578   -2.5059   -1.0782 H   0  0  0  0  0  0  0  0  0  0  0  0
    2.5012   -2.5627    0.6748 H   0  0  0  0  0  0  0  0  0  0  0  0
    5.3828   -1.6270    0.0019 H   0  0  0  0  0  0  0  0  0  0  0  0
    6.5030    0.5201    0.5759 H   0  0  0  0  0  0  0  0  0  0  0  0
    5.1551    2.5587    0.9976 H   0  0  0  0  0  0  0  0  0  0  0  0
    2.6907    2.4938    0.8343 H   0  0  0  0  0  0  0  0  0  0  0  0
   -1.1287    2.0218    2.2892 H   0  0  0  0  0  0  0  0  0  0  0  0
   -1.6160    0.5784    3.1712 H   0  0  0  0  0  0  0  0  0  0  0  0
   -0.1138    0.5433    2.2809 H   0  0  0  0  0  0  0  0  0  0  0  0
   -3.5383   -0.2090    2.2529 H   0  0  0  0  0  0  0  0  0  0  0  0
  1  2  1  0
  2  3  2  0
  3  4  1  0
  4  5  1  0
  4  6  2  0
  6  7  1  0
  7  8  2  0
  7  9  2  0
  7 10  1  0
 10 11  1  0
 11 12  1  0
 12 13  1  0
 13 14  2  0
 14 15  1  0
 15 16  2  0
 16 17  1  0
 17 18  2  0
  6 19  1  0
 19 20  1  0
 19 21  2  0
 21  2  1  0
 18 10  1  0
 18 13  1  0
  1 22  1  0
  1 23  1  0
  1 24  1  0
  3 25  1  0
  5 26  1  0
  5 27  1  0
  5 28  1  0
 11 29  1  0
 11 30  1  0
 12 31  1  0
 12 32  1  0
 14 33  1  0
 15 34  1  0
 16 35  1  0
 17 36  1  0
 20 37  1  0
 20 38  1  0
 20 39  1  0
 21 40  1  0
M  END
$$$$
