
     RDKit          3D

 27 27  0  0  0  0  0  0  0  0999 V2000
   -5.3123    0.4752    1.6566 C   0  0  0  0  0  0  0  0  0  0  0  0
   -5.4340   -0.1057    0.4537 C   0  0  0  0  0  0  0  0  0  0  0  0
   -4.3593   -0.3800   -0.5547 C   0  0  0  0  0  0  0  0  0  0  0  0
   -3.0532   -0.2896    0.0348 N   0  0  0  0  0  0  0  0  0  0  0  0
   -1.9281   -0.0925   -0.7300 C   0  0  0  0  0  0  0  0  0  0  0  0
   -1.8980    0.1759   -1.9239 O   0  0  0  0  0  0  0  0  0  0  0  0
   -0.6096   -0.2533    0.0490 C   0  0  0  0  0  0  0  0  0  0  0  0
   -0.6395   -0.6039    1.2208 O   0  0  0  0  0  0  0  0  0  0  0  0
    0.4886    0.0342   -0.7387 N   0  0  0  0  0  0  0  0  0  0  0  0
    1.7524   -0.0564   -0.2340 N   0  0  0  0  0  0  0  0  0  0  0  0
    2.7055    0.2291   -1.0638 C   0  0  0  0  0  0  0  0  0  0  0  0
    4.0788    0.1715   -0.6555 C   0  0  0  0  0  0  0  0  0  0  0  0
    4.6795   -0.1521    0.5453 C   0  0  0  0  0  0  0  0  0  0  0  0
    6.0754   -0.0311    0.3451 C   0  0  0  0  0  0  0  0  0  0  0  0
    6.2411    0.3582   -0.9629 C   0  0  0  0  0  0  0  0  0  0  0  0
    5.0371    0.4840   -1.5789 O   0  0  0  0  0  0  0  0  0  0  0  0
   -4.3624    0.8388    2.0356 H   0  0  0  0  0  0  0  0  0  0  0  0
   -6.1822    0.6182    2.2911 H   0  0  0  0  0  0  0  0  0  0  0  0
   -6.4305   -0.4185    0.1445 H   0  0  0  0  0  0  0  0  0  0  0  0
   -4.4437    0.3107   -1.4000 H   0  0  0  0  0  0  0  0  0  0  0  0
   -4.4678   -1.4002   -0.9382 H   0  0  0  0  0  0  0  0  0  0  0  0
   -2.8929   -0.6692    0.9644 H   0  0  0  0  0  0  0  0  0  0  0  0
    0.3212    0.3006   -1.7081 H   0  0  0  0  0  0  0  0  0  0  0  0
    2.5054    0.5256   -2.1087 H   0  0  0  0  0  0  0  0  0  0  0  0
    4.1606   -0.4395    1.4504 H   0  0  0  0  0  0  0  0  0  0  0  0
    6.8627   -0.2058    1.0650 H   0  0  0  0  0  0  0  0  0  0  0  0
    7.1051    0.5758   -1.5757 H   0  0  0  0  0  0  0  0  0  0  0  0
  1  2  2  0
  2  3  1  0
  3  4  1  0
  4  5  1  0
  5  6  2  0
  5  7  1  0
  7  8  2  0
  7  9  1  0
  9 10  1  0
 10 11  2  3
 11 12  1  0
 12 13  2  0
 13 14  1  0
 14 15  2  0
 15 16  1  0
 16 12  1  0
  1 17  1  0
  1 18  1  0
  2 19  1  0
  3 20  1  0
  3 21  1  0
  4 22  1  0
  9 23  1  0
 11 24  1  0
 13 25  1  0
 14 26  1  0
 15 27  1  0
M  END
$$$$
