
     RDKit          3D

 58 61  0  0  0  0  0  0  0  0999 V2000
   -2.0416    5.1287    3.0706 C   0  0  0  0  0  0  0  0  0  0  0  0
   -1.8563    3.7211    2.9991 O   0  0  0  0  0  0  0  0  0  0  0  0
   -2.6934    3.0270    2.1690 C   0  0  0  0  0  0  0  0  0  0  0  0
   -3.7287    3.5703    1.4080 C   0  0  0  0  0  0  0  0  0  0  0  0
   -4.5128    2.7438    0.5994 C   0  0  0  0  0  0  0  0  0  0  0  0
   -4.2657    1.3714    0.5486 C   0  0  0  0  0  0  0  0  0  0  0  0
   -3.2316    0.8105    1.3083 C   0  0  0  0  0  0  0  0  0  0  0  0
   -2.9543   -0.6306    1.2527 C   0  0  0  0  0  0  0  0  0  0  0  0
   -4.1545   -1.7110    1.8207 S   0  0  0  0  0  0  0  0  0  0  0  0
   -3.1911   -3.0951    1.5023 C   0  0  0  0  0  0  0  0  0  0  0  0
   -3.5426   -4.4394    1.7306 C   0  0  0  0  0  0  0  0  0  0  0  0
   -2.6313   -5.4506    1.4054 C   0  0  0  0  0  0  0  0  0  0  0  0
   -1.3934   -5.1383    0.8610 C   0  0  0  0  0  0  0  0  0  0  0  0
   -0.4236   -6.0335    0.5005 O   0  0  0  0  0  0  0  0  0  0  0  0
   -0.7062   -7.4110    0.7113 C   0  0  0  0  0  0  0  0  0  0  0  0
   -1.0569   -3.7974    0.6394 C   0  0  0  0  0  0  0  0  0  0  0  0
   -1.9536   -2.7447    0.9628 C   0  0  0  0  0  0  0  0  0  0  0  0
   -1.8227   -1.3096    0.8251 C   0  0  0  0  0  0  0  0  0  0  0  0
   -0.6552   -0.6085    0.2986 C   0  0  0  0  0  0  0  0  0  0  0  0
   -0.7251    0.0747   -0.9204 C   0  0  0  0  0  0  0  0  0  0  0  0
    0.3969    0.7437   -1.4231 C   0  0  0  0  0  0  0  0  0  0  0  0
    1.5980    0.7299   -0.7134 C   0  0  0  0  0  0  0  0  0  0  0  0
    2.7622    1.3409   -1.0871 O   0  0  0  0  0  0  0  0  0  0  0  0
    2.7707    2.0196   -2.3437 C   0  0  0  0  0  0  0  0  0  0  0  0
    4.1633    2.6336   -2.5913 C   0  0  0  0  0  0  0  0  0  0  0  0
    5.2763    1.6689   -2.7188 N   0  0  0  0  0  0  0  0  0  0  0  0
    5.1316    0.8009   -3.8862 C   0  0  0  0  0  0  0  0  0  0  0  0
    6.5547    2.3801   -2.7765 C   0  0  0  0  0  0  0  0  0  0  0  0
    1.6663    0.0433    0.5016 C   0  0  0  0  0  0  0  0  0  0  0  0
    0.5490   -0.6249    1.0078 C   0  0  0  0  0  0  0  0  0  0  0  0
   -2.4513    1.6507    2.1143 C   0  0  0  0  0  0  0  0  0  0  0  0
   -3.0296    5.3766    3.4723 H   0  0  0  0  0  0  0  0  0  0  0  0
   -1.2922    5.5300    3.7596 H   0  0  0  0  0  0  0  0  0  0  0  0
   -1.8817    5.5986    2.0945 H   0  0  0  0  0  0  0  0  0  0  0  0
   -3.9529    4.6315    1.4219 H   0  0  0  0  0  0  0  0  0  0  0  0
   -5.3186    3.1704    0.0075 H   0  0  0  0  0  0  0  0  0  0  0  0
   -4.8819    0.7434   -0.0908 H   0  0  0  0  0  0  0  0  0  0  0  0
   -4.5110   -4.6913    2.1543 H   0  0  0  0  0  0  0  0  0  0  0  0
   -2.9307   -6.4767    1.5929 H   0  0  0  0  0  0  0  0  0  0  0  0
   -1.5664   -7.7331    0.1151 H   0  0  0  0  0  0  0  0  0  0  0  0
   -0.8587   -7.6246    1.7744 H   0  0  0  0  0  0  0  0  0  0  0  0
    0.1634   -7.9854    0.3779 H   0  0  0  0  0  0  0  0  0  0  0  0
   -0.0862   -3.5614    0.2079 H   0  0  0  0  0  0  0  0  0  0  0  0
   -1.6530    0.0927   -1.4871 H   0  0  0  0  0  0  0  0  0  0  0  0
    0.2957    1.2650   -2.3684 H   0  0  0  0  0  0  0  0  0  0  0  0
    2.4997    1.3375   -3.1568 H   0  0  0  0  0  0  0  0  0  0  0  0
    2.0443    2.8416   -2.3142 H   0  0  0  0  0  0  0  0  0  0  0  0
    4.1136    3.2700   -3.4843 H   0  0  0  0  0  0  0  0  0  0  0  0
    4.3777    3.2874   -1.7357 H   0  0  0  0  0  0  0  0  0  0  0  0
    4.2527    0.1555   -3.7945 H   0  0  0  0  0  0  0  0  0  0  0  0
    5.0512    1.3722   -4.8179 H   0  0  0  0  0  0  0  0  0  0  0  0
    5.9907    0.1254   -3.9731 H   0  0  0  0  0  0  0  0  0  0  0  0
    7.3896    1.6713   -2.8130 H   0  0  0  0  0  0  0  0  0  0  0  0
    6.6217    3.0382   -3.6504 H   0  0  0  0  0  0  0  0  0  0  0  0
    6.7014    2.9859   -1.8753 H   0  0  0  0  0  0  0  0  0  0  0  0
    2.6004    0.0294    1.0582 H   0  0  0  0  0  0  0  0  0  0  0  0
    0.6263   -1.1498    1.9568 H   0  0  0  0  0  0  0  0  0  0  0  0
   -1.6424    1.2350    2.7115 H   0  0  0  0  0  0  0  0  0  0  0  0
  1  2  1  0
  2  3  1  0
  3  4  2  0
  4  5  1  0
  5  6  2  0
  6  7  1  0
  7  8  1  0
  8  9  1  0
  9 10  1  0
 10 11  2  0
 11 12  1  0
 12 13  2  0
 13 14  1  0
 14 15  1  0
 13 16  1  0
 16 17  2  0
 17 18  1  0
 18 19  1  0
 19 20  2  0
 20 21  1  0
 21 22  2  0
 22 23  1  0
 23 24  1  0
 24 25  1  0
 25 26  1  0
 26 27  1  0
 26 28  1  0
 22 29  1  0
 29 30  2  0
  7 31  2  0
 31  3  1  0
 18  8  2  0
 30 19  1  0
 17 10  1  0
  1 32  1  0
  1 33  1  0
  1 34  1  0
  4 35  1  0
  5 36  1  0
  6 37  1  0
 11 38  1  0
 12 39  1  0
 15 40  1  0
 15 41  1  0
 15 42  1  0
 16 43  1  0
 20 44  1  0
 21 45  1  0
 24 46  1  0
 24 47  1  0
 25 48  1  0
 25 49  1  0
 27 50  1  0
 27 51  1  0
 27 52  1  0
 28 53  1  0
 28 54  1  0
 28 55  1  0
 29 56  1  0
 30 57  1  0
 31 58  1  0
M  END
$$$$
