
     RDKit          3D

 31 33  0  0  0  0  0  0  0  0999 V2000
   -1.0337   -2.8282   -4.5826 C   0  0  0  0  0  0  0  0  0  0  0  0
   -1.5919   -2.7706   -3.2522 N   0  0  0  0  0  0  0  0  0  0  0  0
   -2.6290   -3.5074   -2.7699 C   0  0  0  0  0  0  0  0  0  0  0  0
   -2.7915   -3.1033   -1.4698 C   0  0  0  0  0  0  0  0  0  0  0  0
   -4.0715   -3.7573   -0.2724 Br  0  0  0  0  0  0  0  0  0  0  0  0
   -1.8106   -2.1125   -1.2334 C   0  0  0  0  0  0  0  0  0  0  0  0
   -1.5264   -1.3350   -0.0092 C   0  0  0  0  0  0  0  0  0  0  0  0
   -2.1694   -1.4815    1.0217 O   0  0  0  0  0  0  0  0  0  0  0  0
   -0.4694   -0.4651   -0.2209 N   0  0  0  0  0  0  0  0  0  0  0  0
    0.0989    0.4284    0.6693 C   0  0  0  0  0  0  0  0  0  0  0  0
   -0.4901    0.5780    2.2788 S   0  0  0  0  0  0  0  0  0  0  0  0
    0.6435    1.7518    2.6240 C   0  0  0  0  0  0  0  0  0  0  0  0
    1.4669    2.0545    1.5770 C   0  0  0  0  0  0  0  0  0  0  0  0
    1.1631    1.2917    0.4267 C   0  0  0  0  0  0  0  0  0  0  0  0
    1.8512    1.3881   -0.8236 C   0  0  0  0  0  0  0  0  0  0  0  0
    2.4030    1.4585   -1.8423 N   0  0  0  0  0  0  0  0  0  0  0  0
    2.4447    3.1063    1.9538 C   0  0  0  0  0  0  0  0  0  0  0  0
    2.3072    3.1444    3.5092 C   0  0  0  0  0  0  0  0  0  0  0  0
    0.9175    2.5257    3.8564 C   0  0  0  0  0  0  0  0  0  0  0  0
   -1.0693   -1.9143   -2.3523 N   0  0  0  0  0  0  0  0  0  0  0  0
   -1.1339   -1.8410   -5.0404 H   0  0  0  0  0  0  0  0  0  0  0  0
   -1.5760   -3.5709   -5.1728 H   0  0  0  0  0  0  0  0  0  0  0  0
    0.0189   -3.1108   -4.5017 H   0  0  0  0  0  0  0  0  0  0  0  0
   -3.1515   -4.2373   -3.3721 H   0  0  0  0  0  0  0  0  0  0  0  0
   -0.0886   -0.5204   -1.1654 H   0  0  0  0  0  0  0  0  0  0  0  0
    3.4677    2.8632    1.6537 H   0  0  0  0  0  0  0  0  0  0  0  0
    2.1566    4.0698    1.5207 H   0  0  0  0  0  0  0  0  0  0  0  0
    2.4250    4.1551    3.9121 H   0  0  0  0  0  0  0  0  0  0  0  0
    3.0953    2.5202    3.9511 H   0  0  0  0  0  0  0  0  0  0  0  0
    0.1705    3.3137    3.9960 H   0  0  0  0  0  0  0  0  0  0  0  0
    0.9730    1.9062    4.7555 H   0  0  0  0  0  0  0  0  0  0  0  0
  1  2  1  0
  2  3  1  0
  3  4  2  0
  4  5  1  0
  4  6  1  0
  6  7  1  0
  7  8  2  0
  7  9  1  0
  9 10  1  0
 10 11  1  0
 11 12  1  0
 12 13  2  0
 13 14  1  0
 14 15  1  0
 15 16  3  0
 13 17  1  0
 17 18  1  0
 18 19  1  0
  6 20  2  0
 20  2  1  0
 14 10  2  0
 19 12  1  0
  1 21  1  0
  1 22  1  0
  1 23  1  0
  3 24  1  0
  9 25  1  0
 17 26  1  0
 17 27  1  0
 18 28  1  0
 18 29  1  0
 19 30  1  0
 19 31  1  0
M  END
$$$$
