
     RDKit          3D

 45 44  0  0  0  0  0  0  0  0999 V2000
    4.8879   -4.8626   -0.0135 C   0  0  0  0  0  0  0  0  0  0  0  0
    4.5861   -3.9266    1.1465 C   0  0  0  0  0  0  0  0  0  0  0  0
    3.3947   -3.0027    0.8901 C   0  0  0  0  0  0  0  0  0  0  0  0
    3.6356   -2.0058   -0.2421 C   0  0  0  0  0  0  0  0  0  0  0  0
    2.5181   -1.1031   -0.3970 N   0  0  0  0  0  0  0  0  0  0  0  0
    2.3755    0.0293    0.3439 C   0  0  0  0  0  0  0  0  0  0  0  0
    3.1769    0.4500    1.1630 O   0  0  0  0  0  0  0  0  0  0  0  0
    1.1948    0.6152    0.0304 O   0  0  0  0  0  0  0  0  0  0  0  0
    0.9403    1.8348    0.7464 C   0  0  0  0  0  0  0  0  0  0  0  0
   -0.3754    2.4724    0.2691 C   0  0  0  0  0  0  0  0  0  0  0  0
   -0.2962    3.0874   -1.1428 C   0  0  0  0  0  0  0  0  0  0  0  0
   -0.0251    2.1106   -2.2787 C   0  0  0  0  0  0  0  0  0  0  0  0
   -1.4752    1.5235    0.3752 N   0  0  0  0  0  0  0  0  0  0  0  0
   -2.7751    1.8997    0.5074 C   0  0  0  0  0  0  0  0  0  0  0  0
   -3.1661    3.0427    0.6833 O   0  0  0  0  0  0  0  0  0  0  0  0
   -3.5613    0.8021    0.3984 O   0  0  0  0  0  0  0  0  0  0  0  0
   -4.9787    1.0281    0.5077 C   0  0  0  0  0  0  0  0  0  0  0  0
   -5.6078   -0.2811    0.9688 C   0  0  0  0  0  0  0  0  0  0  0  0
   -5.5354    1.4449   -0.8492 C   0  0  0  0  0  0  0  0  0  0  0  0
    5.2229   -4.3115   -0.8971 H   0  0  0  0  0  0  0  0  0  0  0  0
    4.0049   -5.4496   -0.2849 H   0  0  0  0  0  0  0  0  0  0  0  0
    5.6855   -5.5593    0.2640 H   0  0  0  0  0  0  0  0  0  0  0  0
    5.4774   -3.3310    1.3761 H   0  0  0  0  0  0  0  0  0  0  0  0
    4.3717   -4.5316    2.0356 H   0  0  0  0  0  0  0  0  0  0  0  0
    3.1777   -2.4553    1.8162 H   0  0  0  0  0  0  0  0  0  0  0  0
    2.5009   -3.6006    0.6719 H   0  0  0  0  0  0  0  0  0  0  0  0
    4.5406   -1.4197   -0.0473 H   0  0  0  0  0  0  0  0  0  0  0  0
    3.7577   -2.5204   -1.1998 H   0  0  0  0  0  0  0  0  0  0  0  0
    1.7373   -1.3541   -0.9860 H   0  0  0  0  0  0  0  0  0  0  0  0
    0.8568    1.5954    1.8139 H   0  0  0  0  0  0  0  0  0  0  0  0
    1.7693    2.5375    0.5996 H   0  0  0  0  0  0  0  0  0  0  0  0
   -0.5995    3.3005    0.9546 H   0  0  0  0  0  0  0  0  0  0  0  0
    0.4824    3.8601   -1.1533 H   0  0  0  0  0  0  0  0  0  0  0  0
   -1.2416    3.6011   -1.3590 H   0  0  0  0  0  0  0  0  0  0  0  0
   -0.1175    2.6264   -3.2404 H   0  0  0  0  0  0  0  0  0  0  0  0
   -0.7366    1.2797   -2.2767 H   0  0  0  0  0  0  0  0  0  0  0  0
    0.9894    1.7065   -2.2271 H   0  0  0  0  0  0  0  0  0  0  0  0
   -1.3219    0.5612    0.1059 H   0  0  0  0  0  0  0  0  0  0  0  0
   -5.1892    1.7975    1.2607 H   0  0  0  0  0  0  0  0  0  0  0  0
   -6.6927   -0.1860    1.0750 H   0  0  0  0  0  0  0  0  0  0  0  0
   -5.1882   -0.5854    1.9339 H   0  0  0  0  0  0  0  0  0  0  0  0
   -5.3928   -1.0915    0.2633 H   0  0  0  0  0  0  0  0  0  0  0  0
   -5.2996    0.6978   -1.6151 H   0  0  0  0  0  0  0  0  0  0  0  0
   -5.0877    2.3867   -1.1826 H   0  0  0  0  0  0  0  0  0  0  0  0
   -6.6211    1.5758   -0.8085 H   0  0  0  0  0  0  0  0  0  0  0  0
  1  2  1  0
  2  3  1  0
  3  4  1  0
  4  5  1  0
  5  6  1  0
  6  7  2  0
  6  8  1  0
  8  9  1  0
  9 10  1  0
 10 11  1  0
 11 12  1  0
 10 13  1  0
 13 14  1  0
 14 15  2  0
 14 16  1  0
 16 17  1  0
 17 18  1  0
 17 19  1  0
  1 20  1  0
  1 21  1  0
  1 22  1  0
  2 23  1  0
  2 24  1  0
  3 25  1  0
  3 26  1  0
  4 27  1  0
  4 28  1  0
  5 29  1  0
  9 30  1  0
  9 31  1  0
 10 32  1  0
 11 33  1  0
 11 34  1  0
 12 35  1  0
 12 36  1  0
 12 37  1  0
 13 38  1  0
 17 39  1  0
 18 40  1  0
 18 41  1  0
 18 42  1  0
 19 43  1  0
 19 44  1  0
 19 45  1  0
M  END
$$$$
