
     RDKit          3D

 43 45  0  0  0  0  0  0  0  0999 V2000
   -4.2066    0.5227   -3.8984 C   0  0  0  0  0  0  0  0  0  0  0  0
   -3.9143   -0.6384   -3.1299 O   0  0  0  0  0  0  0  0  0  0  0  0
   -3.3818   -0.4434   -1.8871 C   0  0  0  0  0  0  0  0  0  0  0  0
   -3.2124   -1.6035   -1.1347 C   0  0  0  0  0  0  0  0  0  0  0  0
   -2.6843   -1.5503    0.1596 C   0  0  0  0  0  0  0  0  0  0  0  0
   -2.3041   -0.3299    0.7267 C   0  0  0  0  0  0  0  0  0  0  0  0
   -1.7813   -0.2103    1.9796 O   0  0  0  0  0  0  0  0  0  0  0  0
   -1.4769   -1.3953    2.7038 C   0  0  0  0  0  0  0  0  0  0  0  0
   -2.4601    0.8339   -0.0389 C   0  0  0  0  0  0  0  0  0  0  0  0
   -2.0095    2.4456    0.5833 S   0  0  0  0  0  6  0  0  0  0  0  0
   -2.6751    3.4224   -0.2602 O   0  0  0  0  0  0  0  0  0  0  0  0
   -2.1782    2.5017    2.0180 O   0  0  0  0  0  0  0  0  0  0  0  0
   -0.3697    2.5842    0.1821 N   0  0  0  0  0  0  0  0  0  0  0  0
    0.5556    1.6324    0.6884 C   0  0  0  0  0  0  0  0  0  0  0  0
    0.8712    1.6105    2.0446 C   0  0  0  0  0  0  0  0  0  0  0  0
    1.7451    0.6427    2.5367 C   0  0  0  0  0  0  0  0  0  0  0  0
    2.2999   -0.2985    1.6712 C   0  0  0  0  0  0  0  0  0  0  0  0
    3.1407   -1.2126    2.2444 O   0  0  0  0  0  0  0  0  0  0  0  0
    1.9873   -0.2929    0.3039 C   0  0  0  0  0  0  0  0  0  0  0  0
    2.5618   -1.5244   -0.8564 S   0  0  0  0  0  0  0  0  0  0  0  0
    4.2785   -1.2491   -0.8582 C   0  0  0  0  0  0  0  0  0  0  0  0
    5.0429   -1.3942    0.2715 N   0  0  0  0  0  0  0  0  0  0  0  0
    6.2529   -1.1200   -0.1591 C   0  0  0  0  0  0  0  0  0  0  0  0
    6.2093   -0.8349   -1.4879 N   0  0  0  0  0  0  0  0  0  0  0  0
    4.9553   -0.9171   -1.9599 N   0  0  0  0  0  0  0  0  0  0  0  0
    1.1070    0.6866   -0.1792 C   0  0  0  0  0  0  0  0  0  0  0  0
   -3.0056    0.7778   -1.3372 C   0  0  0  0  0  0  0  0  0  0  0  0
   -4.9243    1.1690   -3.3823 H   0  0  0  0  0  0  0  0  0  0  0  0
   -3.2911    1.0686   -4.1487 H   0  0  0  0  0  0  0  0  0  0  0  0
   -4.6666    0.1960   -4.8360 H   0  0  0  0  0  0  0  0  0  0  0  0
   -3.5028   -2.5640   -1.5559 H   0  0  0  0  0  0  0  0  0  0  0  0
   -2.5886   -2.4876    0.6989 H   0  0  0  0  0  0  0  0  0  0  0  0
   -1.0088   -1.0992    3.6473 H   0  0  0  0  0  0  0  0  0  0  0  0
   -0.7620   -2.0205    2.1588 H   0  0  0  0  0  0  0  0  0  0  0  0
   -2.3881   -1.9520    2.9452 H   0  0  0  0  0  0  0  0  0  0  0  0
   -0.2414    2.9169   -0.7712 H   0  0  0  0  0  0  0  0  0  0  0  0
    0.4318    2.3346    2.7265 H   0  0  0  0  0  0  0  0  0  0  0  0
    1.9888    0.6187    3.5953 H   0  0  0  0  0  0  0  0  0  0  0  0
    3.7689   -1.5195    1.5566 H   0  0  0  0  0  0  0  0  0  0  0  0
    7.1649   -1.1139    0.4213 H   0  0  0  0  0  0  0  0  0  0  0  0
    6.9650   -0.5874   -2.1176 H   0  0  0  0  0  0  0  0  0  0  0  0
    0.8341    0.6959   -1.2315 H   0  0  0  0  0  0  0  0  0  0  0  0
   -3.1273    1.6987   -1.8991 H   0  0  0  0  0  0  0  0  0  0  0  0
  1  2  1  0
  2  3  1  0
  3  4  2  0
  4  5  1  0
  5  6  2  0
  6  7  1  0
  7  8  1  0
  6  9  1  0
  9 10  1  0
 10 11  2  0
 10 12  2  0
 10 13  1  0
 13 14  1  0
 14 15  2  0
 15 16  1  0
 16 17  2  0
 17 18  1  0
 17 19  1  0
 19 20  1  0
 20 21  1  0
 21 22  1  0
 22 23  2  0
 23 24  1  0
 24 25  1  0
 19 26  2  0
  9 27  2  0
 27  3  1  0
 26 14  1  0
 25 21  2  0
  1 28  1  0
  1 29  1  0
  1 30  1  0
  4 31  1  0
  5 32  1  0
  8 33  1  0
  8 34  1  0
  8 35  1  0
 13 36  1  0
 15 37  1  0
 16 38  1  0
 18 39  1  0
 23 40  1  0
 24 41  1  0
 26 42  1  0
 27 43  1  0
M  END
$$$$
