
     RDKit          3D

 56 59  0  0  0  0  0  0  0  0999 V2000
    6.3256   -0.6779    4.2433 C   0  0  0  0  0  0  0  0  0  0  0  0
    4.9757   -0.8859    3.8487 O   0  0  0  0  0  0  0  0  0  0  0  0
    4.7403   -1.0768    2.5152 C   0  0  0  0  0  0  0  0  0  0  0  0
    5.6975   -1.0378    1.4986 C   0  0  0  0  0  0  0  0  0  0  0  0
    5.3193   -1.2447    0.1673 C   0  0  0  0  0  0  0  0  0  0  0  0
    3.9768   -1.4753   -0.1460 C   0  0  0  0  0  0  0  0  0  0  0  0
    3.5014   -1.7765   -1.8343 S   0  0  0  0  0  6  0  0  0  0  0  0
    2.2999   -2.5806   -1.8145 O   0  0  0  0  0  0  0  0  0  0  0  0
    4.6825   -2.2278   -2.5410 O   0  0  0  0  0  0  0  0  0  0  0  0
    3.1053   -0.2654   -2.4419 N   0  0  0  0  0  0  0  0  0  0  0  0
    4.1591    0.7221   -2.6619 C   0  0  0  0  0  0  0  0  0  0  0  0
    3.3426    1.9543   -2.9747 C   0  0  0  0  0  0  0  0  0  0  0  0
    2.2134    1.8638   -2.0979 O   0  0  0  0  0  0  0  0  0  0  0  0
    1.9567    0.4539   -1.8726 C   0  0  0  0  0  0  0  0  0  0  0  0
    0.6334    0.0705   -2.5681 C   0  0  0  0  0  0  0  0  0  0  0  0
   -0.5226    0.7561   -2.0142 N   0  0  0  0  0  0  0  0  0  0  0  0
   -0.9720    0.5029   -0.7401 C   0  0  0  0  0  0  0  0  0  0  0  0
   -0.5258   -0.3476    0.0186 O   0  0  0  0  0  0  0  0  0  0  0  0
   -2.1277    1.4241   -0.2873 C   0  0  0  0  0  0  0  0  0  0  0  0
   -2.5141    2.3271   -1.0160 O   0  0  0  0  0  0  0  0  0  0  0  0
   -2.6254    1.1034    0.9527 N   0  0  0  0  0  0  0  0  0  0  0  0
   -3.8118    1.7165    1.4889 C   0  0  0  0  0  0  0  0  0  0  0  0
   -5.0244    0.8654    1.2118 C   0  0  0  0  0  0  0  0  0  0  0  0
   -5.4335   -0.1209    2.1395 C   0  0  0  0  0  0  0  0  0  0  0  0
   -6.5396   -0.9371    1.8813 C   0  0  0  0  0  0  0  0  0  0  0  0
   -7.2089   -0.7521    0.6916 C   0  0  0  0  0  0  0  0  0  0  0  0
   -6.8147    0.1973   -0.2209 C   0  0  0  0  0  0  0  0  0  0  0  0
   -5.7295    1.0170    0.0055 C   0  0  0  0  0  0  0  0  0  0  0  0
   -7.6029    0.2104   -1.3285 O   0  0  0  0  0  0  0  0  0  0  0  0
   -8.5380   -0.8401   -1.0084 C   0  0  0  0  0  0  0  0  0  0  0  0
   -8.2956   -1.4545    0.2744 O   0  0  0  0  0  0  0  0  0  0  0  0
    3.0183   -1.5475    0.8672 C   0  0  0  0  0  0  0  0  0  0  0  0
    3.4043   -1.3351    2.1917 C   0  0  0  0  0  0  0  0  0  0  0  0
    6.9504   -1.5397    3.9869 H   0  0  0  0  0  0  0  0  0  0  0  0
    6.7255    0.2439    3.8082 H   0  0  0  0  0  0  0  0  0  0  0  0
    6.3421   -0.5670    5.3318 H   0  0  0  0  0  0  0  0  0  0  0  0
    6.7465   -0.8556    1.7086 H   0  0  0  0  0  0  0  0  0  0  0  0
    6.0774   -1.2313   -0.6131 H   0  0  0  0  0  0  0  0  0  0  0  0
    4.7384    0.8808   -1.7477 H   0  0  0  0  0  0  0  0  0  0  0  0
    4.8236    0.4545   -3.4858 H   0  0  0  0  0  0  0  0  0  0  0  0
    3.8857    2.8859   -2.7963 H   0  0  0  0  0  0  0  0  0  0  0  0
    2.9755    1.9455   -4.0074 H   0  0  0  0  0  0  0  0  0  0  0  0
    1.8901    0.3340   -0.7901 H   0  0  0  0  0  0  0  0  0  0  0  0
    0.4450   -1.0040   -2.4882 H   0  0  0  0  0  0  0  0  0  0  0  0
    0.6690    0.3337   -3.6311 H   0  0  0  0  0  0  0  0  0  0  0  0
   -0.8925    1.5855   -2.4717 H   0  0  0  0  0  0  0  0  0  0  0  0
   -2.2626    0.2549    1.3776 H   0  0  0  0  0  0  0  0  0  0  0  0
   -3.6659    1.8311    2.5687 H   0  0  0  0  0  0  0  0  0  0  0  0
   -3.9458    2.7208    1.0704 H   0  0  0  0  0  0  0  0  0  0  0  0
   -4.8850   -0.2567    3.0694 H   0  0  0  0  0  0  0  0  0  0  0  0
   -6.8585   -1.6944    2.5884 H   0  0  0  0  0  0  0  0  0  0  0  0
   -5.4297    1.7519   -0.7363 H   0  0  0  0  0  0  0  0  0  0  0  0
   -8.4769   -1.6118   -1.7841 H   0  0  0  0  0  0  0  0  0  0  0  0
   -9.5508   -0.4209   -1.0092 H   0  0  0  0  0  0  0  0  0  0  0  0
    1.9751   -1.7642    0.6412 H   0  0  0  0  0  0  0  0  0  0  0  0
    2.6576   -1.3791    2.9818 H   0  0  0  0  0  0  0  0  0  0  0  0
  1  2  1  0
  2  3  1  0
  3  4  2  0
  4  5  1  0
  5  6  2  0
  6  7  1  0
  7  8  2  0
  7  9  2  0
  7 10  1  0
 10 11  1  0
 11 12  1  0
 12 13  1  0
 13 14  1  0
 14 15  1  0
 15 16  1  0
 16 17  1  0
 17 18  2  0
 17 19  1  0
 19 20  2  0
 19 21  1  0
 21 22  1  0
 22 23  1  0
 23 24  2  0
 24 25  1  0
 25 26  2  0
 26 27  1  0
 27 28  2  0
 27 29  1  0
 29 30  1  0
 30 31  1  0
  6 32  1  0
 32 33  2  0
 33  3  1  0
 14 10  1  0
 28 23  1  0
 31 26  1  0
  1 34  1  0
  1 35  1  0
  1 36  1  0
  4 37  1  0
  5 38  1  0
 11 39  1  0
 11 40  1  0
 12 41  1  0
 12 42  1  0
 14 43  1  0
 15 44  1  0
 15 45  1  0
 16 46  1  0
 21 47  1  0
 22 48  1  0
 22 49  1  0
 24 50  1  0
 25 51  1  0
 28 52  1  0
 30 53  1  0
 30 54  1  0
 32 55  1  0
 33 56  1  0
M  END
$$$$
