
     RDKit          3D

 43 45  0  0  0  0  0  0  0  0999 V2000
   -1.1523    5.2294   -0.6902 C   0  0  0  0  0  0  0  0  0  0  0  0
   -2.1150    4.1251   -0.3680 C   0  0  0  0  0  0  0  0  0  0  0  0
   -2.6005    3.9398    0.7394 O   0  0  0  0  0  0  0  0  0  0  0  0
   -2.3474    3.3893   -1.5238 O   0  0  0  0  0  0  0  0  0  0  0  0
   -3.1965    2.2961   -1.3121 C   0  0  0  0  0  0  0  0  0  0  0  0
   -4.5770    2.5115   -1.3446 C   0  0  0  0  0  0  0  0  0  0  0  0
   -5.4412    1.4333   -1.1694 C   0  0  0  0  0  0  0  0  0  0  0  0
   -4.9247    0.1513   -0.9813 C   0  0  0  0  0  0  0  0  0  0  0  0
   -3.5414   -0.0583   -0.9697 C   0  0  0  0  0  0  0  0  0  0  0  0
   -2.6537    1.0144   -1.1323 C   0  0  0  0  0  0  0  0  0  0  0  0
   -1.1996    0.7950   -1.1764 C   0  0  0  0  0  0  0  0  0  0  0  0
   -0.5452    0.0361   -0.2820 C   0  0  0  0  0  0  0  0  0  0  0  0
    0.8970   -0.2332   -0.2821 C   0  0  0  0  0  0  0  0  0  0  0  0
    1.8369    0.6415   -0.8075 C   0  0  0  0  0  0  0  0  0  0  0  0
    3.1831    0.2961   -0.7366 C   0  0  0  0  0  0  0  0  0  0  0  0
    3.5646   -0.9066   -0.1326 C   0  0  0  0  0  0  0  0  0  0  0  0
    4.9174   -1.2922   -0.0532 C   0  0  0  0  0  0  0  0  0  0  0  0
    5.2812   -2.4985    0.5458 C   0  0  0  0  0  0  0  0  0  0  0  0
    4.2988   -3.3234    1.0775 C   0  0  0  0  0  0  0  0  0  0  0  0
    2.9628   -2.9180    1.0105 C   0  0  0  0  0  0  0  0  0  0  0  0
    1.9946   -3.7849    1.5380 O   0  0  0  0  0  0  0  0  0  0  0  0
    1.5665   -3.3721    2.7922 C   0  0  0  0  0  0  0  0  0  0  0  0
    0.3769   -4.1944    3.1896 C   0  0  0  0  0  0  0  0  0  0  0  0
    2.0810   -2.5195    3.5049 O   0  0  0  0  0  0  0  0  0  0  0  0
    2.5516   -1.7292    0.3984 C   0  0  0  0  0  0  0  0  0  0  0  0
    1.2426   -1.3941    0.3191 N   0  0  0  0  0  0  0  0  0  0  0  0
   -1.5892    5.8957   -1.4380 H   0  0  0  0  0  0  0  0  0  0  0  0
   -0.2116    4.8066   -1.0521 H   0  0  0  0  0  0  0  0  0  0  0  0
   -0.9476    5.8071    0.2157 H   0  0  0  0  0  0  0  0  0  0  0  0
   -4.9757    3.5101   -1.4941 H   0  0  0  0  0  0  0  0  0  0  0  0
   -6.5166    1.5904   -1.1800 H   0  0  0  0  0  0  0  0  0  0  0  0
   -5.5994   -0.6911   -0.8491 H   0  0  0  0  0  0  0  0  0  0  0  0
   -3.1656   -1.0715   -0.8440 H   0  0  0  0  0  0  0  0  0  0  0  0
   -0.6818    1.2940   -1.9901 H   0  0  0  0  0  0  0  0  0  0  0  0
   -1.0831   -0.4612    0.5221 H   0  0  0  0  0  0  0  0  0  0  0  0
    1.5465    1.5831   -1.2586 H   0  0  0  0  0  0  0  0  0  0  0  0
    3.9280    0.9714   -1.1495 H   0  0  0  0  0  0  0  0  0  0  0  0
    5.6964   -0.6520   -0.4622 H   0  0  0  0  0  0  0  0  0  0  0  0
    6.3273   -2.7888    0.5993 H   0  0  0  0  0  0  0  0  0  0  0  0
    4.5645   -4.2641    1.5496 H   0  0  0  0  0  0  0  0  0  0  0  0
   -0.3992   -4.1190    2.4235 H   0  0  0  0  0  0  0  0  0  0  0  0
    0.6775   -5.2350    3.3327 H   0  0  0  0  0  0  0  0  0  0  0  0
   -0.0310   -3.8101    4.1289 H   0  0  0  0  0  0  0  0  0  0  0  0
  1  2  1  0
  2  3  2  0
  2  4  1  0
  4  5  1  0
  5  6  2  0
  6  7  1  0
  7  8  2  0
  8  9  1  0
  9 10  2  0
 10 11  1  0
 11 12  2  0
 12 13  1  0
 13 14  2  0
 14 15  1  0
 15 16  2  0
 16 17  1  0
 17 18  2  0
 18 19  1  0
 19 20  2  0
 20 21  1  0
 21 22  1  0
 22 23  1  0
 22 24  2  0
 20 25  1  0
 25 26  2  0
 10  5  1  0
 26 13  1  0
 25 16  1  0
  1 27  1  0
  1 28  1  0
  1 29  1  0
  6 30  1  0
  7 31  1  0
  8 32  1  0
  9 33  1  0
 11 34  1  0
 12 35  1  0
 14 36  1  0
 15 37  1  0
 17 38  1  0
 18 39  1  0
 19 40  1  0
 23 41  1  0
 23 42  1  0
 23 43  1  0
M  END
$$$$
