
     RDKit          3D

 51 55  0  0  0  0  0  0  0  0999 V2000
   -3.6639   -2.3780   -0.3852 C   0  0  0  0  0  0  0  0  0  0  0  0
   -2.8890   -1.3576    0.4116 C   0  0  0  0  0  0  0  0  0  0  0  0
   -1.5492   -1.2448    0.0696 N   0  0  0  0  0  0  0  0  0  0  0  0
   -0.7194   -0.3737    0.6828 C   0  0  0  0  0  0  0  0  0  0  0  0
    0.6118   -0.0529    0.5268 C   0  0  0  0  0  0  0  0  0  0  0  0
    1.5112   -0.6396   -0.4484 C   0  0  0  0  0  0  0  0  0  0  0  0
    1.1553   -1.5388   -1.2062 O   0  0  0  0  0  0  0  0  0  0  0  0
    2.7819   -0.1145   -0.4744 N   0  0  0  0  0  0  0  0  0  0  0  0
    3.7414   -0.5661   -1.4526 C   0  0  0  0  0  0  0  0  0  0  0  0
    5.0845    0.0691   -1.2116 C   0  0  0  0  0  0  0  0  0  0  0  0
    5.4398    1.2628   -1.8818 C   0  0  0  0  0  0  0  0  0  0  0  0
    6.6712    1.8819   -1.6442 C   0  0  0  0  0  0  0  0  0  0  0  0
    7.5192    1.2932   -0.7320 C   0  0  0  0  0  0  0  0  0  0  0  0
    7.1795    0.1386   -0.0683 C   0  0  0  0  0  0  0  0  0  0  0  0
    5.9732   -0.4946   -0.2809 C   0  0  0  0  0  0  0  0  0  0  0  0
    8.1505   -0.2712    0.7907 O   0  0  0  0  0  0  0  0  0  0  0  0
    9.1446    0.7545    0.5856 C   0  0  0  0  0  0  0  0  0  0  0  0
    8.7475    1.7545   -0.3757 O   0  0  0  0  0  0  0  0  0  0  0  0
    0.8230    0.9269    1.5266 C   0  0  0  0  0  0  0  0  0  0  0  0
   -0.2702    1.2090    2.2417 N   0  0  0  0  0  0  0  0  0  0  0  0
   -1.2249    0.4027    1.7005 N   0  0  0  0  0  0  0  0  0  0  0  0
   -2.5548    0.3610    2.1510 C   0  0  0  0  0  0  0  0  0  0  0  0
   -2.9240    1.0431    3.0992 O   0  0  0  0  0  0  0  0  0  0  0  0
   -3.4402   -0.5971    1.3919 C   0  0  0  0  0  0  0  0  0  0  0  0
   -4.8854   -0.6064    1.8262 C   0  0  0  0  0  0  0  0  0  0  0  0
   -5.8602   -0.0741    0.7982 C   0  0  0  0  0  0  0  0  0  0  0  0
   -6.9998   -0.8172    0.4508 C   0  0  0  0  0  0  0  0  0  0  0  0
   -7.9160   -0.3221   -0.4816 C   0  0  0  0  0  0  0  0  0  0  0  0
   -7.7130    0.9250   -1.0708 C   0  0  0  0  0  0  0  0  0  0  0  0
   -6.5951    1.6797   -0.7235 C   0  0  0  0  0  0  0  0  0  0  0  0
   -5.6853    1.1814    0.2056 C   0  0  0  0  0  0  0  0  0  0  0  0
   -4.6230    1.9347    0.5220 F   0  0  0  0  0  0  0  0  0  0  0  0
   -3.8394   -2.0075   -1.4004 H   0  0  0  0  0  0  0  0  0  0  0  0
   -3.0967   -3.3131   -0.4552 H   0  0  0  0  0  0  0  0  0  0  0  0
   -4.6280   -2.6332    0.0597 H   0  0  0  0  0  0  0  0  0  0  0  0
   -1.2034   -1.8334   -0.6938 H   0  0  0  0  0  0  0  0  0  0  0  0
    3.0136    0.7008    0.0733 H   0  0  0  0  0  0  0  0  0  0  0  0
    3.3639   -0.3136   -2.4507 H   0  0  0  0  0  0  0  0  0  0  0  0
    3.8154   -1.6593   -1.4073 H   0  0  0  0  0  0  0  0  0  0  0  0
    4.7523    1.7132   -2.5959 H   0  0  0  0  0  0  0  0  0  0  0  0
    6.9514    2.7950   -2.1576 H   0  0  0  0  0  0  0  0  0  0  0  0
    5.7270   -1.4020    0.2614 H   0  0  0  0  0  0  0  0  0  0  0  0
   10.0700    0.2812    0.2375 H   0  0  0  0  0  0  0  0  0  0  0  0
    9.3412    1.2484    1.5441 H   0  0  0  0  0  0  0  0  0  0  0  0
    1.7352    1.4535    1.7760 H   0  0  0  0  0  0  0  0  0  0  0  0
   -5.0400   -0.0328    2.7480 H   0  0  0  0  0  0  0  0  0  0  0  0
   -5.1525   -1.6365    2.0978 H   0  0  0  0  0  0  0  0  0  0  0  0
   -7.1846   -1.7884    0.9053 H   0  0  0  0  0  0  0  0  0  0  0  0
   -8.7932   -0.9090   -0.7446 H   0  0  0  0  0  0  0  0  0  0  0  0
   -8.4276    1.3108   -1.7933 H   0  0  0  0  0  0  0  0  0  0  0  0
   -6.4258    2.6564   -1.1658 H   0  0  0  0  0  0  0  0  0  0  0  0
  1  2  1  0
  2  3  1  0
  3  4  1  0
  4  5  2  0
  5  6  1  0
  6  7  2  0
  6  8  1  0
  8  9  1  0
  9 10  1  0
 10 11  2  0
 11 12  1  0
 12 13  2  0
 13 14  1  0
 14 15  2  0
 14 16  1  0
 16 17  1  0
 17 18  1  0
  5 19  1  0
 19 20  2  0
 20 21  1  0
 21 22  1  0
 22 23  2  0
 22 24  1  0
 24 25  1  0
 25 26  1  0
 26 27  2  0
 27 28  1  0
 28 29  2  0
 29 30  1  0
 30 31  2  0
 31 32  1  0
 24  2  2  0
 31 26  1  0
 21  4  1  0
 15 10  1  0
 18 13  1  0
  1 33  1  0
  1 34  1  0
  1 35  1  0
  3 36  1  0
  8 37  1  0
  9 38  1  0
  9 39  1  0
 11 40  1  0
 12 41  1  0
 15 42  1  0
 17 43  1  0
 17 44  1  0
 19 45  1  0
 25 46  1  0
 25 47  1  0
 27 48  1  0
 28 49  1  0
 29 50  1  0
 30 51  1  0
M  END
$$$$
