
     RDKit          3D

 37 39  0  0  0  0  0  0  0  0999 V2000
   -7.7687    3.0735    0.8778 C   0  0  0  0  0  0  0  0  0  0  0  0
   -6.7194    2.3535    1.5118 O   0  0  0  0  0  0  0  0  0  0  0  0
   -5.6144    2.0752    0.7575 C   0  0  0  0  0  0  0  0  0  0  0  0
   -5.4172    2.4313   -0.5750 C   0  0  0  0  0  0  0  0  0  0  0  0
   -4.2290    2.0811   -1.2354 C   0  0  0  0  0  0  0  0  0  0  0  0
   -3.2144    1.3684   -0.5771 C   0  0  0  0  0  0  0  0  0  0  0  0
   -1.9490    0.9728   -1.2143 C   0  0  0  0  0  0  0  0  0  0  0  0
   -0.9859    0.2854   -0.6317 N   0  0  0  0  0  0  0  0  0  0  0  0
    0.0548    0.0986   -1.5146 C   0  0  0  0  0  0  0  0  0  0  0  0
    1.1893   -0.5870   -1.1659 N   0  0  0  0  0  0  0  0  0  0  0  0
    1.4535   -1.1086    0.0812 C   0  0  0  0  0  0  0  0  0  0  0  0
    0.7341   -1.0425    1.0738 O   0  0  0  0  0  0  0  0  0  0  0  0
    2.7882   -1.8292    0.1391 C   0  0  0  0  0  0  0  0  0  0  0  0
    4.1283   -0.6086    0.2484 S   0  0  0  0  0  0  0  0  0  0  0  0
    5.5086   -1.6767    0.3007 C   0  0  0  0  0  0  0  0  0  0  0  0
    5.4282   -2.9558    0.0067 N   0  0  0  0  0  0  0  0  0  0  0  0
    6.6495   -3.5915    0.1105 N   0  0  0  0  0  0  0  0  0  0  0  0
    7.6067   -2.7650    0.4768 C   0  0  0  0  0  0  0  0  0  0  0  0
    9.0276   -3.1432    0.6781 C   0  0  0  0  0  0  0  0  0  0  0  0
    7.0837   -1.1455    0.7157 S   0  0  0  0  0  0  0  0  0  0  0  0
   -0.0477    0.5905   -2.7495 N   0  0  0  0  0  0  0  0  0  0  0  0
   -1.5268    1.3535   -2.8380 S   0  0  0  0  0  0  0  0  0  0  0  0
   -3.4305    1.0179    0.7651 C   0  0  0  0  0  0  0  0  0  0  0  0
   -4.6146    1.3672    1.4226 C   0  0  0  0  0  0  0  0  0  0  0  0
   -7.4314    4.0662    0.5617 H   0  0  0  0  0  0  0  0  0  0  0  0
   -8.1818    2.5090    0.0353 H   0  0  0  0  0  0  0  0  0  0  0  0
   -8.5696    3.2118    1.6104 H   0  0  0  0  0  0  0  0  0  0  0  0
   -6.1664    2.9823   -1.1342 H   0  0  0  0  0  0  0  0  0  0  0  0
   -4.1266    2.3826   -2.2747 H   0  0  0  0  0  0  0  0  0  0  0  0
    1.8754   -0.6370   -1.9038 H   0  0  0  0  0  0  0  0  0  0  0  0
    2.7961   -2.4833    1.0174 H   0  0  0  0  0  0  0  0  0  0  0  0
    2.8998   -2.4522   -0.7549 H   0  0  0  0  0  0  0  0  0  0  0  0
    9.1713   -4.2107    0.4829 H   0  0  0  0  0  0  0  0  0  0  0  0
    9.6792   -2.5860   -0.0023 H   0  0  0  0  0  0  0  0  0  0  0  0
    9.3418   -2.9441    1.7076 H   0  0  0  0  0  0  0  0  0  0  0  0
   -2.6690    0.4641    1.3156 H   0  0  0  0  0  0  0  0  0  0  0  0
   -4.7536    1.0820    2.4628 H   0  0  0  0  0  0  0  0  0  0  0  0
  1  2  1  0
  2  3  1  0
  3  4  2  0
  4  5  1  0
  5  6  2  0
  6  7  1  0
  7  8  2  0
  8  9  1  0
  9 10  1  0
 10 11  1  0
 11 12  2  0
 11 13  1  0
 13 14  1  0
 14 15  1  0
 15 16  2  0
 16 17  1  0
 17 18  2  0
 18 19  1  0
 18 20  1  0
  9 21  2  0
 21 22  1  0
  6 23  1  0
 23 24  2  0
 24  3  1  0
 22  7  1  0
 20 15  1  0
  1 25  1  0
  1 26  1  0
  1 27  1  0
  4 28  1  0
  5 29  1  0
 10 30  1  0
 13 31  1  0
 13 32  1  0
 19 33  1  0
 19 34  1  0
 19 35  1  0
 23 36  1  0
 24 37  1  0
M  END
$$$$
