
     RDKit          3D

 59 64  0  0  0  0  0  0  0  0999 V2000
    3.3662   -2.4997    0.9849 C   0  0  0  0  0  0  0  0  0  0  0  0
    2.6196   -1.9264   -0.0814 O   0  0  0  0  0  0  0  0  0  0  0  0
    3.2318   -0.9133   -0.7899 C   0  0  0  0  0  0  0  0  0  0  0  0
    4.6047   -0.6225   -0.7168 C   0  0  0  0  0  0  0  0  0  0  0  0
    5.1188    0.4292   -1.5006 C   0  0  0  0  0  0  0  0  0  0  0  0
    4.2440    1.1401   -2.3125 C   0  0  0  0  0  0  0  0  0  0  0  0
    2.8796    0.8763   -2.4196 C   0  0  0  0  0  0  0  0  0  0  0  0
    2.3782   -0.1785   -1.6471 C   0  0  0  0  0  0  0  0  0  0  0  0
    1.0215   -0.5756   -1.6755 N   0  0  0  0  0  0  0  0  0  0  0  0
   -0.0146   -0.0548   -2.4187 C   0  0  0  0  0  0  0  0  0  0  0  0
    0.0815    0.8678   -3.2274 O   0  0  0  0  0  0  0  0  0  0  0  0
   -1.3373   -0.8008   -2.3020 C   0  0  0  0  0  0  0  0  0  0  0  0
   -1.6076   -1.6818   -0.7350 S   0  0  0  0  0  0  0  0  0  0  0  0
   -2.0311   -0.3509    0.2807 C   0  0  0  0  0  0  0  0  0  0  0  0
   -1.3333    0.7485    0.4104 N   0  0  0  0  0  0  0  0  0  0  0  0
   -2.0103    1.5667    1.2790 N   0  0  0  0  0  0  0  0  0  0  0  0
   -3.1112    0.9493    1.6652 C   0  0  0  0  0  0  0  0  0  0  0  0
   -4.1444    1.5331    2.5739 C   0  0  0  0  0  0  0  0  0  0  0  0
   -4.3289    0.8110    3.8824 C   0  0  0  0  0  0  0  0  0  0  0  0
   -5.5194    0.3997    4.4555 C   0  0  0  0  0  0  0  0  0  0  0  0
   -5.3246   -0.2549    5.7058 C   0  0  0  0  0  0  0  0  0  0  0  0
   -3.9943   -0.3117    6.0552 C   0  0  0  0  0  0  0  0  0  0  0  0
   -2.9920    0.4330    4.8879 S   0  0  0  0  0  0  0  0  0  0  0  0
   -3.1607   -0.2855    1.0502 N   0  0  0  0  0  0  0  0  0  0  0  0
   -4.1833   -1.3018    1.1928 C   0  0  0  0  0  0  0  0  0  0  0  0
   -5.2158   -1.1683    0.1365 C   0  0  0  0  0  0  0  0  0  0  0  0
   -5.4816   -1.8606   -1.0267 C   0  0  0  0  0  0  0  0  0  0  0  0
   -6.6172   -1.2445   -1.6074 C   0  0  0  0  0  0  0  0  0  0  0  0
   -6.9765   -0.2244   -0.7600 C   0  0  0  0  0  0  0  0  0  0  0  0
   -6.1369   -0.1756    0.3054 O   0  0  0  0  0  0  0  0  0  0  0  0
    4.9077    2.1199   -2.9887 O   0  0  0  0  0  0  0  0  0  0  0  0
    6.2171    2.0366   -2.6269 C   0  0  0  0  0  0  0  0  0  0  0  0
    7.2363    2.8594   -3.1014 C   0  0  0  0  0  0  0  0  0  0  0  0
    8.5235    2.6051   -2.6141 C   0  0  0  0  0  0  0  0  0  0  0  0
    8.7583    1.5783   -1.6949 C   0  0  0  0  0  0  0  0  0  0  0  0
    7.7103    0.7698   -1.2307 C   0  0  0  0  0  0  0  0  0  0  0  0
    6.4069    1.0062   -1.7108 C   0  0  0  0  0  0  0  0  0  0  0  0
    2.7026   -3.1769    1.5304 H   0  0  0  0  0  0  0  0  0  0  0  0
    4.2025   -3.0901    0.5954 H   0  0  0  0  0  0  0  0  0  0  0  0
    3.7116   -1.7338    1.6873 H   0  0  0  0  0  0  0  0  0  0  0  0
    5.2851   -1.1825   -0.0885 H   0  0  0  0  0  0  0  0  0  0  0  0
    2.2687    1.4782   -3.0784 H   0  0  0  0  0  0  0  0  0  0  0  0
    0.7938   -1.3185   -1.0181 H   0  0  0  0  0  0  0  0  0  0  0  0
   -1.3641   -1.5414   -3.1093 H   0  0  0  0  0  0  0  0  0  0  0  0
   -2.1580   -0.0940   -2.4663 H   0  0  0  0  0  0  0  0  0  0  0  0
   -3.8767    2.5761    2.7925 H   0  0  0  0  0  0  0  0  0  0  0  0
   -5.1010    1.5760    2.0375 H   0  0  0  0  0  0  0  0  0  0  0  0
   -6.4894    0.5601    3.9973 H   0  0  0  0  0  0  0  0  0  0  0  0
   -6.1204   -0.6577    6.3211 H   0  0  0  0  0  0  0  0  0  0  0  0
   -3.5603   -0.7457    6.9462 H   0  0  0  0  0  0  0  0  0  0  0  0
   -4.6361   -1.2200    2.1801 H   0  0  0  0  0  0  0  0  0  0  0  0
   -3.7051   -2.2844    1.1585 H   0  0  0  0  0  0  0  0  0  0  0  0
   -4.9241   -2.7040   -1.4123 H   0  0  0  0  0  0  0  0  0  0  0  0
   -7.1152   -1.5096   -2.5290 H   0  0  0  0  0  0  0  0  0  0  0  0
   -7.7634    0.5195   -0.7739 H   0  0  0  0  0  0  0  0  0  0  0  0
    7.0343    3.6530   -3.8130 H   0  0  0  0  0  0  0  0  0  0  0  0
    9.3539    3.2192   -2.9562 H   0  0  0  0  0  0  0  0  0  0  0  0
    9.7708    1.4027   -1.3341 H   0  0  0  0  0  0  0  0  0  0  0  0
    7.9055   -0.0247   -0.5163 H   0  0  0  0  0  0  0  0  0  0  0  0
  1  2  1  0
  2  3  1  0
  3  4  2  0
  4  5  1  0
  5  6  2  0
  6  7  1  0
  7  8  2  0
  8  9  1  0
  9 10  1  0
 10 11  2  0
 10 12  1  0
 12 13  1  0
 13 14  1  0
 14 15  2  0
 15 16  1  0
 16 17  2  0
 17 18  1  0
 18 19  1  0
 19 20  2  0
 20 21  1  0
 21 22  2  0
 22 23  1  0
 17 24  1  0
 24 25  1  0
 25 26  1  0
 26 27  2  0
 27 28  1  0
 28 29  2  0
 29 30  1  0
  6 31  1  0
 31 32  1  0
 32 33  2  0
 33 34  1  0
 34 35  2  0
 35 36  1  0
 36 37  2  0
  8  3  1  0
 24 14  1  0
 30 26  1  0
 37 32  1  0
 37  5  1  0
 23 19  1  0
  1 38  1  0
  1 39  1  0
  1 40  1  0
  4 41  1  0
  7 42  1  0
  9 43  1  0
 12 44  1  0
 12 45  1  0
 18 46  1  0
 18 47  1  0
 20 48  1  0
 21 49  1  0
 22 50  1  0
 25 51  1  0
 25 52  1  0
 27 53  1  0
 28 54  1  0
 29 55  1  0
 33 56  1  0
 34 57  1  0
 35 58  1  0
 36 59  1  0
M  END
$$$$
