
     RDKit          3D

 54 56  0  0  0  0  0  0  0  0999 V2000
    9.8485   -0.9703    1.0360 C   0  0  0  0  0  0  0  0  0  0  0  0
    9.5093    0.2342    0.3584 O   0  0  0  0  0  0  0  0  0  0  0  0
    8.2137    0.6598    0.4700 C   0  0  0  0  0  0  0  0  0  0  0  0
    7.2217    0.0755    1.2588 C   0  0  0  0  0  0  0  0  0  0  0  0
    5.9300    0.6162    1.2791 C   0  0  0  0  0  0  0  0  0  0  0  0
    5.6132    1.7460    0.5107 C   0  0  0  0  0  0  0  0  0  0  0  0
    4.2146    2.3120    0.5197 C   0  0  0  0  0  0  0  0  0  0  0  0
    3.4266    2.0119   -0.7650 C   0  0  0  0  0  0  0  0  0  0  0  0
    3.1586    0.5239   -1.0248 C   0  0  0  0  0  0  0  0  0  0  0  0
    2.2377   -0.0666   -0.0239 C   0  0  0  0  0  0  0  0  0  0  0  0
    2.4950   -0.5579    1.1683 N   0  0  0  0  0  0  0  0  0  0  0  0
    1.2802   -0.9472    1.6942 N   0  0  0  0  0  0  0  0  0  0  0  0
    0.3686   -0.6871    0.7813 C   0  0  0  0  0  0  0  0  0  0  0  0
   -1.3258   -0.9974    0.9872 S   0  0  0  0  0  0  0  0  0  0  0  0
   -1.8424   -1.0750   -0.7466 C   0  0  0  0  0  0  0  0  0  0  0  0
   -3.3118   -1.4532   -0.8322 C   0  0  0  0  0  0  0  0  0  0  0  0
   -3.6500   -2.5517   -1.2644 O   0  0  0  0  0  0  0  0  0  0  0  0
   -4.1555   -0.4366   -0.4144 N   0  0  0  0  0  0  0  0  0  0  0  0
   -5.5704   -0.4219   -0.3897 C   0  0  0  0  0  0  0  0  0  0  0  0
   -6.3553   -1.4857   -0.8419 C   0  0  0  0  0  0  0  0  0  0  0  0
   -7.7635   -1.4320   -0.7968 C   0  0  0  0  0  0  0  0  0  0  0  0
   -8.5527   -2.6164   -1.2903 C   0  0  0  0  0  0  0  0  0  0  0  0
   -8.4019   -0.2733   -0.3134 C   0  0  0  0  0  0  0  0  0  0  0  0
   -9.9015   -0.1681   -0.2407 C   0  0  0  0  0  0  0  0  0  0  0  0
   -7.6181    0.7923    0.1497 C   0  0  0  0  0  0  0  0  0  0  0  0
   -6.2222    0.7179    0.1095 C   0  0  0  0  0  0  0  0  0  0  0  0
   -5.2408    2.2176    0.7509 Br  0  0  0  0  0  0  0  0  0  0  0  0
    0.9079   -0.1162   -0.3447 O   0  0  0  0  0  0  0  0  0  0  0  0
    6.6137    2.3308   -0.2743 C   0  0  0  0  0  0  0  0  0  0  0  0
    7.9025    1.7906   -0.2914 C   0  0  0  0  0  0  0  0  0  0  0  0
    9.7558   -0.8521    2.1212 H   0  0  0  0  0  0  0  0  0  0  0  0
   10.8963   -1.1947    0.8137 H   0  0  0  0  0  0  0  0  0  0  0  0
    9.2451   -1.8107    0.6761 H   0  0  0  0  0  0  0  0  0  0  0  0
    7.4164   -0.7996    1.8745 H   0  0  0  0  0  0  0  0  0  0  0  0
    5.1705    0.1429    1.9017 H   0  0  0  0  0  0  0  0  0  0  0  0
    4.2869    3.4018    0.6439 H   0  0  0  0  0  0  0  0  0  0  0  0
    3.6668    1.9567    1.4018 H   0  0  0  0  0  0  0  0  0  0  0  0
    2.4706    2.5511   -0.7151 H   0  0  0  0  0  0  0  0  0  0  0  0
    3.9687    2.4210   -1.6294 H   0  0  0  0  0  0  0  0  0  0  0  0
    4.0932   -0.0470   -1.0492 H   0  0  0  0  0  0  0  0  0  0  0  0
    2.7132    0.4209   -2.0233 H   0  0  0  0  0  0  0  0  0  0  0  0
   -1.6915   -0.1113   -1.2424 H   0  0  0  0  0  0  0  0  0  0  0  0
   -1.2569   -1.8304   -1.2799 H   0  0  0  0  0  0  0  0  0  0  0  0
   -3.7193    0.3929   -0.0250 H   0  0  0  0  0  0  0  0  0  0  0  0
   -5.8933   -2.3876   -1.2354 H   0  0  0  0  0  0  0  0  0  0  0  0
   -9.2860   -2.9285   -0.5394 H   0  0  0  0  0  0  0  0  0  0  0  0
   -7.9053   -3.4787   -1.4864 H   0  0  0  0  0  0  0  0  0  0  0  0
   -9.0677   -2.3646   -2.2230 H   0  0  0  0  0  0  0  0  0  0  0  0
  -10.2212    0.8663   -0.0744 H   0  0  0  0  0  0  0  0  0  0  0  0
  -10.2806   -0.7796    0.5831 H   0  0  0  0  0  0  0  0  0  0  0  0
  -10.3618   -0.4947   -1.1788 H   0  0  0  0  0  0  0  0  0  0  0  0
   -8.1022    1.6869    0.5389 H   0  0  0  0  0  0  0  0  0  0  0  0
    6.4000    3.2123   -0.8765 H   0  0  0  0  0  0  0  0  0  0  0  0
    8.6723    2.2545   -0.9058 H   0  0  0  0  0  0  0  0  0  0  0  0
  1  2  1  0
  2  3  1  0
  3  4  2  0
  4  5  1  0
  5  6  2  0
  6  7  1  0
  7  8  1  0
  8  9  1  0
  9 10  1  0
 10 11  2  0
 11 12  1  0
 12 13  2  0
 13 14  1  0
 14 15  1  0
 15 16  1  0
 16 17  2  0
 16 18  1  0
 18 19  1  0
 19 20  2  0
 20 21  1  0
 21 22  1  0
 21 23  2  0
 23 24  1  0
 23 25  1  0
 25 26  2  0
 26 27  1  0
 13 28  1  0
  6 29  1  0
 29 30  2  0
 30  3  1  0
 28 10  1  0
 26 19  1  0
  1 31  1  0
  1 32  1  0
  1 33  1  0
  4 34  1  0
  5 35  1  0
  7 36  1  0
  7 37  1  0
  8 38  1  0
  8 39  1  0
  9 40  1  0
  9 41  1  0
 15 42  1  0
 15 43  1  0
 18 44  1  0
 20 45  1  0
 22 46  1  0
 22 47  1  0
 22 48  1  0
 24 49  1  0
 24 50  1  0
 24 51  1  0
 25 52  1  0
 29 53  1  0
 30 54  1  0
M  END
$$$$
