
     RDKit          3D

 56 58  0  0  0  0  0  0  0  0999 V2000
    1.6101   -2.2135   -3.9769 C   0  0  0  0  0  0  0  0  0  0  0  0
    2.1924   -0.9296   -3.7924 O   0  0  0  0  0  0  0  0  0  0  0  0
    2.7679   -0.6866   -2.5755 C   0  0  0  0  0  0  0  0  0  0  0  0
    2.7929   -1.5610   -1.4905 C   0  0  0  0  0  0  0  0  0  0  0  0
    3.4009   -1.1773   -0.2915 C   0  0  0  0  0  0  0  0  0  0  0  0
    3.9953    0.0839   -0.1595 C   0  0  0  0  0  0  0  0  0  0  0  0
    4.5845    0.5145    1.1585 C   0  0  0  0  0  0  0  0  0  0  0  0
    3.5805    1.1224    1.9933 N   0  0  0  0  0  0  0  0  0  0  0  0
    2.8423    0.3851    2.8906 C   0  0  0  0  0  0  0  0  0  0  0  0
    3.0717   -0.7595    3.2550 O   0  0  0  0  0  0  0  0  0  0  0  0
    1.5814    1.1246    3.3992 C   0  0  0  0  0  0  0  0  0  0  0  0
    1.5104    2.3433    3.3275 O   0  0  0  0  0  0  0  0  0  0  0  0
    0.5909    0.2761    3.8503 N   0  0  0  0  0  0  0  0  0  0  0  0
   -0.7727    0.7388    4.0266 C   0  0  0  0  0  0  0  0  0  0  0  0
   -1.6586    0.6486    2.7598 C   0  0  0  0  0  0  0  0  0  0  0  0
   -2.9225    1.2839    3.0361 O   0  0  0  0  0  0  0  0  0  0  0  0
   -3.2561    2.0629    1.8818 C   0  0  0  0  0  0  0  0  0  0  0  0
   -1.9234    2.5084    1.3238 C   0  0  0  0  0  0  0  0  0  0  0  0
   -1.0616    1.3715    1.6310 N   0  0  0  0  0  0  0  0  0  0  0  0
   -0.3289    0.5018    0.4047 S   0  0  0  0  0  6  0  0  0  0  0  0
    0.3452    1.4506   -0.4539 O   0  0  0  0  0  0  0  0  0  0  0  0
    0.3775   -0.6055    1.0143 O   0  0  0  0  0  0  0  0  0  0  0  0
   -1.6889   -0.1849   -0.5163 C   0  0  0  0  0  0  0  0  0  0  0  0
   -2.2042    0.5140   -1.6116 C   0  0  0  0  0  0  0  0  0  0  0  0
   -3.2617   -0.0304   -2.3429 C   0  0  0  0  0  0  0  0  0  0  0  0
   -3.8004   -1.2753   -1.9907 C   0  0  0  0  0  0  0  0  0  0  0  0
   -4.9144   -1.8744   -2.7999 C   0  0  0  0  0  0  0  0  0  0  0  0
   -3.2420   -1.9881   -0.9208 C   0  0  0  0  0  0  0  0  0  0  0  0
   -2.1862   -1.4480   -0.1847 C   0  0  0  0  0  0  0  0  0  0  0  0
    3.9671    0.9569   -1.2525 C   0  0  0  0  0  0  0  0  0  0  0  0
    3.3607    0.5699   -2.4496 C   0  0  0  0  0  0  0  0  0  0  0  0
    1.2106   -2.2556   -4.9936 H   0  0  0  0  0  0  0  0  0  0  0  0
    0.7758   -2.3735   -3.2853 H   0  0  0  0  0  0  0  0  0  0  0  0
    2.3606   -3.0044   -3.8812 H   0  0  0  0  0  0  0  0  0  0  0  0
    2.3312   -2.5408   -1.5312 H   0  0  0  0  0  0  0  0  0  0  0  0
    3.3798   -1.8606    0.5564 H   0  0  0  0  0  0  0  0  0  0  0  0
    5.3734    1.2570    0.9970 H   0  0  0  0  0  0  0  0  0  0  0  0
    5.0397   -0.3402    1.6712 H   0  0  0  0  0  0  0  0  0  0  0  0
    3.1585    1.9947    1.6916 H   0  0  0  0  0  0  0  0  0  0  0  0
    0.7731   -0.7112    3.6830 H   0  0  0  0  0  0  0  0  0  0  0  0
   -1.2218    0.1373    4.8245 H   0  0  0  0  0  0  0  0  0  0  0  0
   -0.7524    1.7739    4.3891 H   0  0  0  0  0  0  0  0  0  0  0  0
   -1.8618   -0.3986    2.5190 H   0  0  0  0  0  0  0  0  0  0  0  0
   -3.9002    2.8989    2.1649 H   0  0  0  0  0  0  0  0  0  0  0  0
   -3.7978    1.4199    1.1791 H   0  0  0  0  0  0  0  0  0  0  0  0
   -1.9796    2.7696    0.2665 H   0  0  0  0  0  0  0  0  0  0  0  0
   -1.5435    3.3786    1.8694 H   0  0  0  0  0  0  0  0  0  0  0  0
   -1.7843    1.4729   -1.9089 H   0  0  0  0  0  0  0  0  0  0  0  0
   -3.6605    0.5208   -3.1929 H   0  0  0  0  0  0  0  0  0  0  0  0
   -5.5396   -1.0934   -3.2443 H   0  0  0  0  0  0  0  0  0  0  0  0
   -4.5024   -2.4959   -3.6004 H   0  0  0  0  0  0  0  0  0  0  0  0
   -5.5645   -2.4896   -2.1705 H   0  0  0  0  0  0  0  0  0  0  0  0
   -3.6248   -2.9732   -0.6593 H   0  0  0  0  0  0  0  0  0  0  0  0
   -1.7547   -2.0223    0.6316 H   0  0  0  0  0  0  0  0  0  0  0  0
    4.4001    1.9507   -1.1768 H   0  0  0  0  0  0  0  0  0  0  0  0
    3.3349    1.2621   -3.2868 H   0  0  0  0  0  0  0  0  0  0  0  0
  1  2  1  0
  2  3  1  0
  3  4  2  0
  4  5  1  0
  5  6  2  0
  6  7  1  0
  7  8  1  0
  8  9  1  0
  9 10  2  0
  9 11  1  0
 11 12  2  0
 11 13  1  0
 13 14  1  0
 14 15  1  0
 15 16  1  0
 16 17  1  0
 17 18  1  0
 18 19  1  0
 19 20  1  0
 20 21  2  0
 20 22  2  0
 20 23  1  0
 23 24  2  0
 24 25  1  0
 25 26  2  0
 26 27  1  0
 26 28  1  0
 28 29  2  0
  6 30  1  0
 30 31  2  0
 31  3  1  0
 19 15  1  0
 29 23  1  0
  1 32  1  0
  1 33  1  0
  1 34  1  0
  4 35  1  0
  5 36  1  0
  7 37  1  0
  7 38  1  0
  8 39  1  0
 13 40  1  0
 14 41  1  0
 14 42  1  0
 15 43  1  0
 17 44  1  0
 17 45  1  0
 18 46  1  0
 18 47  1  0
 24 48  1  0
 25 49  1  0
 27 50  1  0
 27 51  1  0
 27 52  1  0
 28 53  1  0
 29 54  1  0
 30 55  1  0
 31 56  1  0
M  END
$$$$
