
     RDKit          3D

 47 49  0  0  0  0  0  0  0  0999 V2000
   -2.5582   -1.1186    2.7827 O   0  0  0  0  0  0  0  0  0  0  0  0
   -3.0225   -1.6153    1.7608 C   0  0  0  0  0  0  0  0  0  0  0  0
   -4.4670   -2.1299    1.7257 C   0  0  0  0  0  0  0  0  0  0  0  0
   -5.0417   -2.1935    0.4246 O   0  0  0  0  0  0  0  0  0  0  0  0
   -5.5592   -1.0425   -0.1041 C   0  0  0  0  0  0  0  0  0  0  0  0
   -5.4362    0.2404    0.4328 C   0  0  0  0  0  0  0  0  0  0  0  0
   -6.0050    1.3354   -0.2279 C   0  0  0  0  0  0  0  0  0  0  0  0
   -6.6931    1.1475   -1.4249 C   0  0  0  0  0  0  0  0  0  0  0  0
   -7.4588    2.6297   -2.3121 Br  0  0  0  0  0  0  0  0  0  0  0  0
   -6.8168   -0.1268   -1.9706 C   0  0  0  0  0  0  0  0  0  0  0  0
   -6.2474   -1.2176   -1.3093 C   0  0  0  0  0  0  0  0  0  0  0  0
   -2.3612   -1.8105    0.5611 N   0  0  0  0  0  0  0  0  0  0  0  0
   -1.0257   -1.5017    0.2467 C   0  0  0  0  0  0  0  0  0  0  0  0
   -0.1012   -1.0104    1.1710 C   0  0  0  0  0  0  0  0  0  0  0  0
    1.2162   -0.7316    0.7830 C   0  0  0  0  0  0  0  0  0  0  0  0
    1.6186   -0.9336   -0.5417 C   0  0  0  0  0  0  0  0  0  0  0  0
    3.0115   -0.6577   -1.0004 C   0  0  0  0  0  0  0  0  0  0  0  0
    3.4698   -1.3486   -1.9024 O   0  0  0  0  0  0  0  0  0  0  0  0
    3.6374    0.3976   -0.3674 N   0  0  0  0  0  0  0  0  0  0  0  0
    4.9574    0.8800   -0.5466 C   0  0  0  0  0  0  0  0  0  0  0  0
    5.8723    0.2298   -1.3867 C   0  0  0  0  0  0  0  0  0  0  0  0
    7.1737    0.7141   -1.5554 C   0  0  0  0  0  0  0  0  0  0  0  0
    7.5871    1.8577   -0.8848 C   0  0  0  0  0  0  0  0  0  0  0  0
    6.6968    2.5185   -0.0418 C   0  0  0  0  0  0  0  0  0  0  0  0
    5.3838    2.0418    0.1380 C   0  0  0  0  0  0  0  0  0  0  0  0
    4.5353    2.8493    1.0602 C   0  0  0  0  0  0  0  0  0  0  0  0
    4.8640    3.8955    1.5913 O   0  0  0  0  0  0  0  0  0  0  0  0
    3.3128    2.3314    1.2990 O   0  0  0  0  0  0  0  0  0  0  0  0
    0.7002   -1.4433   -1.4653 C   0  0  0  0  0  0  0  0  0  0  0  0
   -0.6131   -1.7214   -1.0730 C   0  0  0  0  0  0  0  0  0  0  0  0
   -5.0937   -1.5530    2.4154 H   0  0  0  0  0  0  0  0  0  0  0  0
   -4.4386   -3.1565    2.1099 H   0  0  0  0  0  0  0  0  0  0  0  0
   -4.9027    0.4366    1.3578 H   0  0  0  0  0  0  0  0  0  0  0  0
   -5.9030    2.3297    0.2005 H   0  0  0  0  0  0  0  0  0  0  0  0
   -7.3503   -0.2840   -2.9040 H   0  0  0  0  0  0  0  0  0  0  0  0
   -6.3471   -2.2131   -1.7366 H   0  0  0  0  0  0  0  0  0  0  0  0
   -2.9381   -2.1711   -0.1936 H   0  0  0  0  0  0  0  0  0  0  0  0
   -0.3679   -0.8478    2.2110 H   0  0  0  0  0  0  0  0  0  0  0  0
    1.9162   -0.3860    1.5393 H   0  0  0  0  0  0  0  0  0  0  0  0
    3.0766    0.9584    0.2724 H   0  0  0  0  0  0  0  0  0  0  0  0
    5.6042   -0.6705   -1.9321 H   0  0  0  0  0  0  0  0  0  0  0  0
    7.8581    0.1924   -2.2197 H   0  0  0  0  0  0  0  0  0  0  0  0
    8.5979    2.2352   -1.0180 H   0  0  0  0  0  0  0  0  0  0  0  0
    7.0320    3.4160    0.4764 H   0  0  0  0  0  0  0  0  0  0  0  0
    2.9256    2.9854    1.9238 H   0  0  0  0  0  0  0  0  0  0  0  0
    1.0045   -1.6246   -2.4946 H   0  0  0  0  0  0  0  0  0  0  0  0
   -1.3034   -2.1129   -1.8166 H   0  0  0  0  0  0  0  0  0  0  0  0
  1  2  2  0
  2  3  1  0
  3  4  1  0
  4  5  1  0
  5  6  2  0
  6  7  1  0
  7  8  2  0
  8  9  1  0
  8 10  1  0
 10 11  2  0
  2 12  1  0
 12 13  1  0
 13 14  2  0
 14 15  1  0
 15 16  2  0
 16 17  1  0
 17 18  2  0
 17 19  1  0
 19 20  1  0
 20 21  2  0
 21 22  1  0
 22 23  2  0
 23 24  1  0
 24 25  2  0
 25 26  1  0
 26 27  2  0
 26 28  1  0
 16 29  1  0
 29 30  2  0
 11  5  1  0
 30 13  1  0
 25 20  1  0
  3 31  1  0
  3 32  1  0
  6 33  1  0
  7 34  1  0
 10 35  1  0
 11 36  1  0
 12 37  1  0
 14 38  1  0
 15 39  1  0
 19 40  1  0
 21 41  1  0
 22 42  1  0
 23 43  1  0
 24 44  1  0
 28 45  1  0
 29 46  1  0
 30 47  1  0
M  END
$$$$
