
     RDKit          3D

 30 31  0  0  0  0  0  0  0  0999 V2000
    4.8838   -2.3151   -2.3178 C   0  0  0  0  0  0  0  0  0  0  0  0
    3.4929   -2.5302   -2.5221 O   0  0  0  0  0  0  0  0  0  0  0  0
    2.6368   -1.8958   -1.6655 C   0  0  0  0  0  0  0  0  0  0  0  0
    2.9981   -1.0228   -0.6399 C   0  0  0  0  0  0  0  0  0  0  0  0
    2.0140   -0.4375    0.1669 C   0  0  0  0  0  0  0  0  0  0  0  0
    0.6562   -0.7159   -0.0429 C   0  0  0  0  0  0  0  0  0  0  0  0
   -0.3772   -0.0923    0.8138 C   0  0  0  0  0  0  0  0  0  0  0  0
   -0.3378   -0.3714    2.2180 C   0  0  0  0  0  0  0  0  0  0  0  0
   -0.2264   -0.6334    3.3445 N   0  0  0  0  0  0  0  0  0  0  0  0
   -1.2681    0.7311    0.2217 C   0  0  0  0  0  0  0  0  0  0  0  0
   -2.3806    1.4735    0.8350 C   0  0  0  0  0  0  0  0  0  0  0  0
   -3.1210    2.3770    0.0764 C   0  0  0  0  0  0  0  0  0  0  0  0
   -4.1748    3.0616    0.6793 C   0  0  0  0  0  0  0  0  0  0  0  0
   -4.4620    2.8258    2.0171 C   0  0  0  0  0  0  0  0  0  0  0  0
   -3.6797    1.9100    2.6967 C   0  0  0  0  0  0  0  0  0  0  0  0
   -2.6549    1.2343    2.1323 N   0  0  0  0  0  0  0  0  0  0  0  0
    0.3005   -1.5976   -1.0721 C   0  0  0  0  0  0  0  0  0  0  0  0
    1.2855   -2.1784   -1.8757 C   0  0  0  0  0  0  0  0  0  0  0  0
    5.1966   -2.6627   -1.3276 H   0  0  0  0  0  0  0  0  0  0  0  0
    5.4262   -2.9040   -3.0639 H   0  0  0  0  0  0  0  0  0  0  0  0
    5.1461   -1.2629   -2.4694 H   0  0  0  0  0  0  0  0  0  0  0  0
    4.0349   -0.7749   -0.4377 H   0  0  0  0  0  0  0  0  0  0  0  0
    2.3229    0.2402    0.9613 H   0  0  0  0  0  0  0  0  0  0  0  0
   -1.1794    0.8980   -0.8504 H   0  0  0  0  0  0  0  0  0  0  0  0
   -2.8912    2.5579   -0.9685 H   0  0  0  0  0  0  0  0  0  0  0  0
   -4.7652    3.7727    0.1084 H   0  0  0  0  0  0  0  0  0  0  0  0
   -5.2736    3.3411    2.5182 H   0  0  0  0  0  0  0  0  0  0  0  0
   -3.8578    1.6852    3.7447 H   0  0  0  0  0  0  0  0  0  0  0  0
   -0.7423   -1.8500   -1.2525 H   0  0  0  0  0  0  0  0  0  0  0  0
    0.9974   -2.8636   -2.6698 H   0  0  0  0  0  0  0  0  0  0  0  0
  1  2  1  0
  2  3  1  0
  3  4  2  0
  4  5  1  0
  5  6  2  0
  6  7  1  0
  7  8  1  0
  8  9  3  0
  7 10  2  3
 10 11  1  0
 11 12  2  0
 12 13  1  0
 13 14  2  0
 14 15  1  0
 15 16  2  0
  6 17  1  0
 17 18  2  0
 18  3  1  0
 16 11  1  0
  1 19  1  0
  1 20  1  0
  1 21  1  0
  4 22  1  0
  5 23  1  0
 10 24  1  0
 12 25  1  0
 13 26  1  0
 14 27  1  0
 15 28  1  0
 17 29  1  0
 18 30  1  0
M  END
$$$$
