
     RDKit          3D

 58 61  0  0  0  0  0  0  0  0999 V2000
   -2.6825    5.0293    3.8332 C   0  0  0  0  0  0  0  0  0  0  0  0
   -2.7051    3.6103    3.7476 O   0  0  0  0  0  0  0  0  0  0  0  0
   -2.5729    3.0638    2.5001 C   0  0  0  0  0  0  0  0  0  0  0  0
   -2.4319    3.7711    1.3062 C   0  0  0  0  0  0  0  0  0  0  0  0
   -2.3010    3.0850    0.0965 C   0  0  0  0  0  0  0  0  0  0  0  0
   -2.3116    1.6900    0.0750 C   0  0  0  0  0  0  0  0  0  0  0  0
   -2.4531    0.9651    1.2639 C   0  0  0  0  0  0  0  0  0  0  0  0
   -2.4412   -0.5037    1.2434 C   0  0  0  0  0  0  0  0  0  0  0  0
   -3.8464   -1.3343    1.7589 S   0  0  0  0  0  0  0  0  0  0  0  0
   -3.1594   -2.8769    1.4546 C   0  0  0  0  0  0  0  0  0  0  0  0
   -3.7716   -4.1287    1.6579 C   0  0  0  0  0  0  0  0  0  0  0  0
   -3.0601   -5.2962    1.3593 C   0  0  0  0  0  0  0  0  0  0  0  0
   -1.7629   -5.2277    0.8706 C   0  0  0  0  0  0  0  0  0  0  0  0
   -0.9679   -6.2927    0.5450 O   0  0  0  0  0  0  0  0  0  0  0  0
   -1.5100   -7.5902    0.7562 C   0  0  0  0  0  0  0  0  0  0  0  0
   -1.1666   -3.9765    0.6729 C   0  0  0  0  0  0  0  0  0  0  0  0
   -1.8604   -2.7704    0.9581 C   0  0  0  0  0  0  0  0  0  0  0  0
   -1.4525   -1.3865    0.8324 C   0  0  0  0  0  0  0  0  0  0  0  0
   -0.1597   -0.9217    0.3356 C   0  0  0  0  0  0  0  0  0  0  0  0
    0.2041   -1.1593   -0.9945 C   0  0  0  0  0  0  0  0  0  0  0  0
    1.4395   -0.7172   -1.4838 C   0  0  0  0  0  0  0  0  0  0  0  0
    2.3222   -0.0348   -0.6476 C   0  0  0  0  0  0  0  0  0  0  0  0
    3.5521    0.4531   -0.9850 O   0  0  0  0  0  0  0  0  0  0  0  0
    4.0365    0.2707   -2.3159 C   0  0  0  0  0  0  0  0  0  0  0  0
    3.5368    1.3616   -3.2865 C   0  0  0  0  0  0  0  0  0  0  0  0
    3.8896    2.7516   -2.9278 N   0  0  0  0  0  0  0  0  0  0  0  0
    5.3333    2.9817   -2.9361 C   0  0  0  0  0  0  0  0  0  0  0  0
    3.2255    3.6908   -3.8333 C   0  0  0  0  0  0  0  0  0  0  0  0
    1.9566    0.1981    0.6815 C   0  0  0  0  0  0  0  0  0  0  0  0
    0.7265   -0.2432    1.1755 C   0  0  0  0  0  0  0  0  0  0  0  0
   -2.5829    1.6654    2.4720 C   0  0  0  0  0  0  0  0  0  0  0  0
   -1.7260    5.4311    3.4827 H   0  0  0  0  0  0  0  0  0  0  0  0
   -3.5221    5.4712    3.2865 H   0  0  0  0  0  0  0  0  0  0  0  0
   -2.7916    5.3023    4.8873 H   0  0  0  0  0  0  0  0  0  0  0  0
   -2.4164    4.8554    1.2809 H   0  0  0  0  0  0  0  0  0  0  0  0
   -2.1856    3.6385   -0.8319 H   0  0  0  0  0  0  0  0  0  0  0  0
   -2.2053    1.1723   -0.8755 H   0  0  0  0  0  0  0  0  0  0  0  0
   -4.7855   -4.1895    2.0442 H   0  0  0  0  0  0  0  0  0  0  0  0
   -3.5589   -6.2454    1.5260 H   0  0  0  0  0  0  0  0  0  0  0  0
   -1.7404   -7.7551    1.8140 H   0  0  0  0  0  0  0  0  0  0  0  0
   -0.7505   -8.3215    0.4632 H   0  0  0  0  0  0  0  0  0  0  0  0
   -2.3915   -7.7561    0.1282 H   0  0  0  0  0  0  0  0  0  0  0  0
   -0.1466   -3.9323    0.2972 H   0  0  0  0  0  0  0  0  0  0  0  0
   -0.4743   -1.6857   -1.6624 H   0  0  0  0  0  0  0  0  0  0  0  0
    1.6707   -0.9211   -2.5226 H   0  0  0  0  0  0  0  0  0  0  0  0
    3.8034   -0.7308   -2.6960 H   0  0  0  0  0  0  0  0  0  0  0  0
    5.1301    0.2961   -2.2589 H   0  0  0  0  0  0  0  0  0  0  0  0
    3.9086    1.1281   -4.2927 H   0  0  0  0  0  0  0  0  0  0  0  0
    2.4432    1.2936   -3.3265 H   0  0  0  0  0  0  0  0  0  0  0  0
    5.5580    4.0294   -2.7045 H   0  0  0  0  0  0  0  0  0  0  0  0
    5.8339    2.3914   -2.1626 H   0  0  0  0  0  0  0  0  0  0  0  0
    5.7836    2.7426   -3.9062 H   0  0  0  0  0  0  0  0  0  0  0  0
    2.1374    3.5697   -3.7863 H   0  0  0  0  0  0  0  0  0  0  0  0
    3.4353    4.7252   -3.5388 H   0  0  0  0  0  0  0  0  0  0  0  0
    3.5440    3.5564   -4.8734 H   0  0  0  0  0  0  0  0  0  0  0  0
    2.6377    0.7329    1.3393 H   0  0  0  0  0  0  0  0  0  0  0  0
    0.4694   -0.0487    2.2139 H   0  0  0  0  0  0  0  0  0  0  0  0
   -2.6839    1.1223    3.4092 H   0  0  0  0  0  0  0  0  0  0  0  0
  1  2  1  0
  2  3  1  0
  3  4  2  0
  4  5  1  0
  5  6  2  0
  6  7  1  0
  7  8  1  0
  8  9  1  0
  9 10  1  0
 10 11  2  0
 11 12  1  0
 12 13  2  0
 13 14  1  0
 14 15  1  0
 13 16  1  0
 16 17  2  0
 17 18  1  0
 18 19  1  0
 19 20  2  0
 20 21  1  0
 21 22  2  0
 22 23  1  0
 23 24  1  0
 24 25  1  0
 25 26  1  0
 26 27  1  0
 26 28  1  0
 22 29  1  0
 29 30  2  0
  7 31  2  0
 31  3  1  0
 18  8  2  0
 30 19  1  0
 17 10  1  0
  1 32  1  0
  1 33  1  0
  1 34  1  0
  4 35  1  0
  5 36  1  0
  6 37  1  0
 11 38  1  0
 12 39  1  0
 15 40  1  0
 15 41  1  0
 15 42  1  0
 16 43  1  0
 20 44  1  0
 21 45  1  0
 24 46  1  0
 24 47  1  0
 25 48  1  0
 25 49  1  0
 27 50  1  0
 27 51  1  0
 27 52  1  0
 28 53  1  0
 28 54  1  0
 28 55  1  0
 29 56  1  0
 30 57  1  0
 31 58  1  0
M  END
$$$$
