
     RDKit          3D

 61 66  0  0  0  0  0  0  0  0999 V2000
   -9.5330   -0.7304    1.2327 F   0  0  0  0  0  0  0  0  0  0  0  0
   -8.4172   -0.7720    0.4914 C   0  0  0  0  0  0  0  0  0  0  0  0
   -8.2794   -1.7533   -0.4825 C   0  0  0  0  0  0  0  0  0  0  0  0
   -7.1172   -1.7970   -1.2498 C   0  0  0  0  0  0  0  0  0  0  0  0
   -6.1048   -0.8567   -1.0373 C   0  0  0  0  0  0  0  0  0  0  0  0
   -6.2432    0.1376   -0.0570 C   0  0  0  0  0  0  0  0  0  0  0  0
   -5.1453    1.1487    0.1801 C   0  0  0  0  0  0  0  0  0  0  0  0
   -3.9951    0.6181    1.0598 C   0  0  0  0  0  0  0  0  0  0  0  0
   -3.0891   -0.3327    0.3875 N   0  0  0  0  0  0  0  0  0  0  0  0
   -2.3290    0.3126   -0.7119 C   0  0  0  0  0  0  0  0  0  0  0  0
   -0.9934   -0.3869   -1.0474 C   0  0  0  0  0  0  0  0  0  0  0  0
   -0.0738   -0.4101    0.1167 N   0  0  0  0  0  0  0  0  0  0  0  0
    1.0665    0.3393    0.0151 C   0  0  0  0  0  0  0  0  0  0  0  0
    1.1833    1.7125   -0.0833 C   0  0  0  0  0  0  0  0  0  0  0  0
    2.5548    2.0318   -0.1306 C   0  0  0  0  0  0  0  0  0  0  0  0
    3.2619    0.8449   -0.0932 C   0  0  0  0  0  0  0  0  0  0  0  0
    4.6828    0.5689   -0.1101 C   0  0  0  0  0  0  0  0  0  0  0  0
    5.6671    1.6677   -0.2777 C   0  0  0  0  0  0  0  0  0  0  0  0
    6.7417    1.7549    0.6148 C   0  0  0  0  0  0  0  0  0  0  0  0
    7.6881    2.7694    0.4658 C   0  0  0  0  0  0  0  0  0  0  0  0
    7.5695    3.6856   -0.5806 C   0  0  0  0  0  0  0  0  0  0  0  0
    6.5107    3.5858   -1.4850 C   0  0  0  0  0  0  0  0  0  0  0  0
    5.5608    2.5735   -1.3393 C   0  0  0  0  0  0  0  0  0  0  0  0
    5.1301   -0.6429    0.0323 N   0  0  0  0  0  0  0  0  0  0  0  0
    4.2126   -1.7053    0.1482 C   0  0  0  0  0  0  0  0  0  0  0  0
    4.7355   -2.9969    0.2676 C   0  0  0  0  0  0  0  0  0  0  0  0
    3.8921   -4.1038    0.3649 C   0  0  0  0  0  0  0  0  0  0  0  0
    2.5111   -3.9259    0.3403 C   0  0  0  0  0  0  0  0  0  0  0  0
    1.9693   -2.6434    0.2233 C   0  0  0  0  0  0  0  0  0  0  0  0
    2.8164   -1.5346    0.1317 C   0  0  0  0  0  0  0  0  0  0  0  0
    2.3532   -0.1982    0.0214 N   0  0  0  0  0  0  0  0  0  0  0  0
   -0.7620   -0.3507    1.4305 C   0  0  0  0  0  0  0  0  0  0  0  0
   -2.1683   -0.9825    1.3518 C   0  0  0  0  0  0  0  0  0  0  0  0
   -7.4151    0.1685    0.7118 C   0  0  0  0  0  0  0  0  0  0  0  0
   -9.0735   -2.4769   -0.6339 H   0  0  0  0  0  0  0  0  0  0  0  0
   -6.9939   -2.5642   -2.0100 H   0  0  0  0  0  0  0  0  0  0  0  0
   -5.1976   -0.9110   -1.6359 H   0  0  0  0  0  0  0  0  0  0  0  0
   -5.5798    2.0246    0.6806 H   0  0  0  0  0  0  0  0  0  0  0  0
   -4.7797    1.5266   -0.7820 H   0  0  0  0  0  0  0  0  0  0  0  0
   -4.4450    0.1338    1.9367 H   0  0  0  0  0  0  0  0  0  0  0  0
   -3.4173    1.4717    1.4385 H   0  0  0  0  0  0  0  0  0  0  0  0
   -2.9508    0.3201   -1.6139 H   0  0  0  0  0  0  0  0  0  0  0  0
   -2.1059    1.3584   -0.4613 H   0  0  0  0  0  0  0  0  0  0  0  0
   -0.5305    0.1038   -1.9132 H   0  0  0  0  0  0  0  0  0  0  0  0
   -1.1887   -1.4241   -1.3476 H   0  0  0  0  0  0  0  0  0  0  0  0
    0.3580    2.4115   -0.0968 H   0  0  0  0  0  0  0  0  0  0  0  0
    2.9746    3.0279   -0.1823 H   0  0  0  0  0  0  0  0  0  0  0  0
    6.8410    1.0338    1.4232 H   0  0  0  0  0  0  0  0  0  0  0  0
    8.5211    2.8404    1.1612 H   0  0  0  0  0  0  0  0  0  0  0  0
    8.3110    4.4723   -0.6983 H   0  0  0  0  0  0  0  0  0  0  0  0
    6.4321    4.2905   -2.3094 H   0  0  0  0  0  0  0  0  0  0  0  0
    4.7559    2.4855   -2.0648 H   0  0  0  0  0  0  0  0  0  0  0  0
    5.8138   -3.1348    0.2786 H   0  0  0  0  0  0  0  0  0  0  0  0
    4.3141   -5.1011    0.4543 H   0  0  0  0  0  0  0  0  0  0  0  0
    1.8511   -4.7871    0.4095 H   0  0  0  0  0  0  0  0  0  0  0  0
    0.8906   -2.5490    0.1995 H   0  0  0  0  0  0  0  0  0  0  0  0
   -0.1640   -0.8971    2.1698 H   0  0  0  0  0  0  0  0  0  0  0  0
   -0.8519    0.6873    1.7774 H   0  0  0  0  0  0  0  0  0  0  0  0
   -2.6071   -1.0281    2.3560 H   0  0  0  0  0  0  0  0  0  0  0  0
   -2.0576   -2.0278    1.0337 H   0  0  0  0  0  0  0  0  0  0  0  0
   -7.5616    0.9167    1.4851 H   0  0  0  0  0  0  0  0  0  0  0  0
  1  2  1  0
  2  3  2  0
  3  4  1  0
  4  5  2  0
  5  6  1  0
  6  7  1  0
  7  8  1  0
  8  9  1  0
  9 10  1  0
 10 11  1  0
 11 12  1  0
 12 13  1  0
 13 14  2  0
 14 15  1  0
 15 16  2  0
 16 17  1  0
 17 18  1  0
 18 19  2  0
 19 20  1  0
 20 21  2  0
 21 22  1  0
 22 23  2  0
 17 24  2  0
 24 25  1  0
 25 26  2  0
 26 27  1  0
 27 28  2  0
 28 29  1  0
 29 30  2  0
 30 31  1  0
 12 32  1  0
 32 33  1  0
  6 34  2  0
 34  2  1  0
 33  9  1  0
 31 13  1  0
 31 16  1  0
 23 18  1  0
 30 25  1  0
  3 35  1  0
  4 36  1  0
  5 37  1  0
  7 38  1  0
  7 39  1  0
  8 40  1  0
  8 41  1  0
 10 42  1  0
 10 43  1  0
 11 44  1  0
 11 45  1  0
 14 46  1  0
 15 47  1  0
 19 48  1  0
 20 49  1  0
 21 50  1  0
 22 51  1  0
 23 52  1  0
 26 53  1  0
 27 54  1  0
 28 55  1  0
 29 56  1  0
 32 57  1  0
 32 58  1  0
 33 59  1  0
 33 60  1  0
 34 61  1  0
M  END
$$$$
