
     RDKit          3D

 33 35  0  0  0  0  0  0  0  0999 V2000
    3.2897    1.7317   -0.1375 O   0  0  0  0  0  0  0  0  0  0  0  0
    3.8105    0.4726   -0.0014 C   0  0  0  0  0  0  0  0  0  0  0  0
    5.1604    0.2535   -0.2853 C   0  0  0  0  0  0  0  0  0  0  0  0
    5.7042   -1.0211   -0.1255 C   0  0  0  0  0  0  0  0  0  0  0  0
    4.9026   -2.0704    0.3197 C   0  0  0  0  0  0  0  0  0  0  0  0
    3.5527   -1.8482    0.6026 C   0  0  0  0  0  0  0  0  0  0  0  0
    2.9873   -0.5762    0.4361 C   0  0  0  0  0  0  0  0  0  0  0  0
    1.5643   -0.4059    0.7632 C   0  0  0  0  0  0  0  0  0  0  0  0
    0.6738    0.0734   -0.1203 C   0  0  0  0  0  0  0  0  0  0  0  0
   -0.7582    0.2476    0.1366 C   0  0  0  0  0  0  0  0  0  0  0  0
   -1.2624    0.5996    1.3828 C   0  0  0  0  0  0  0  0  0  0  0  0
   -2.6366    0.7727    1.5267 C   0  0  0  0  0  0  0  0  0  0  0  0
   -3.4770    0.5998    0.4221 C   0  0  0  0  0  0  0  0  0  0  0  0
   -4.8736    0.7603    0.5068 C   0  0  0  0  0  0  0  0  0  0  0  0
   -5.6764    0.5818   -0.6214 C   0  0  0  0  0  0  0  0  0  0  0  0
   -5.0924    0.2436   -1.8376 C   0  0  0  0  0  0  0  0  0  0  0  0
   -3.7112    0.0888   -1.9070 C   0  0  0  0  0  0  0  0  0  0  0  0
   -3.1573   -0.2463   -3.1200 O   0  0  0  0  0  0  0  0  0  0  0  0
   -2.8781    0.2580   -0.8047 C   0  0  0  0  0  0  0  0  0  0  0  0
   -1.5467    0.0910   -0.9528 N   0  0  0  0  0  0  0  0  0  0  0  0
    3.9838    2.3268   -0.4621 H   0  0  0  0  0  0  0  0  0  0  0  0
    5.8012    1.0608   -0.6259 H   0  0  0  0  0  0  0  0  0  0  0  0
    6.7543   -1.1964   -0.3456 H   0  0  0  0  0  0  0  0  0  0  0  0
    5.3260   -3.0637    0.4457 H   0  0  0  0  0  0  0  0  0  0  0  0
    2.9403   -2.6800    0.9440 H   0  0  0  0  0  0  0  0  0  0  0  0
    1.2710   -0.7289    1.7572 H   0  0  0  0  0  0  0  0  0  0  0  0
    0.9872    0.3441   -1.1256 H   0  0  0  0  0  0  0  0  0  0  0  0
   -0.6062    0.7538    2.2326 H   0  0  0  0  0  0  0  0  0  0  0  0
   -3.0416    1.0470    2.4971 H   0  0  0  0  0  0  0  0  0  0  0  0
   -5.3413    1.0255    1.4524 H   0  0  0  0  0  0  0  0  0  0  0  0
   -6.7540    0.7066   -0.5513 H   0  0  0  0  0  0  0  0  0  0  0  0
   -5.7007    0.1008   -2.7257 H   0  0  0  0  0  0  0  0  0  0  0  0
   -2.1958   -0.3026   -2.9304 H   0  0  0  0  0  0  0  0  0  0  0  0
  1  2  1  0
  2  3  2  0
  3  4  1  0
  4  5  2  0
  5  6  1  0
  6  7  2  0
  7  8  1  0
  8  9  2  0
  9 10  1  0
 10 11  2  0
 11 12  1  0
 12 13  2  0
 13 14  1  0
 14 15  2  0
 15 16  1  0
 16 17  2  0
 17 18  1  0
 17 19  1  0
 19 20  2  0
  7  2  1  0
 20 10  1  0
 19 13  1  0
  1 21  1  0
  3 22  1  0
  4 23  1  0
  5 24  1  0
  6 25  1  0
  8 26  1  0
  9 27  1  0
 11 28  1  0
 12 29  1  0
 14 30  1  0
 15 31  1  0
 16 32  1  0
 18 33  1  0
M  END
$$$$
