
     RDKit          3D

 39 40  0  0  0  0  0  0  0  0999 V2000
   -0.6350    2.2589    4.1962 C   0  0  0  0  0  0  0  0  0  0  0  0
   -1.1632    1.6249    2.9382 C   0  0  0  0  0  0  0  0  0  0  0  0
   -2.3301    1.7606    2.5878 O   0  0  0  0  0  0  0  0  0  0  0  0
   -0.2121    0.9372    2.2367 N   0  0  0  0  0  0  0  0  0  0  0  0
   -0.4965   -0.2360    1.7514 C   0  0  0  0  0  0  0  0  0  0  0  0
   -1.7534   -1.0609    1.9236 C   0  0  0  0  0  0  0  0  0  0  0  0
   -2.4291   -1.3590    0.6067 C   0  0  0  0  0  0  0  0  0  0  0  0
   -3.1915   -0.3746   -0.0356 C   0  0  0  0  0  0  0  0  0  0  0  0
   -3.7883   -0.6368   -1.2693 C   0  0  0  0  0  0  0  0  0  0  0  0
   -3.6273   -1.8825   -1.8730 C   0  0  0  0  0  0  0  0  0  0  0  0
   -2.8694   -2.8678   -1.2438 C   0  0  0  0  0  0  0  0  0  0  0  0
   -2.2719   -2.6090   -0.0095 C   0  0  0  0  0  0  0  0  0  0  0  0
    0.5821   -0.9183    0.9337 C   0  0  0  0  0  0  0  0  0  0  0  0
    1.1954   -1.8781    1.3632 O   0  0  0  0  0  0  0  0  0  0  0  0
    0.6673   -0.3230   -0.2664 O   0  0  0  0  0  0  0  0  0  0  0  0
    1.6091   -0.8882   -1.1798 C   0  0  0  0  0  0  0  0  0  0  0  0
    2.5510    0.1992   -1.6244 C   0  0  0  0  0  0  0  0  0  0  0  0
    2.1448    1.1446   -2.5772 C   0  0  0  0  0  0  0  0  0  0  0  0
    3.0121    2.1607   -2.9804 C   0  0  0  0  0  0  0  0  0  0  0  0
    4.2891    2.2468   -2.4299 C   0  0  0  0  0  0  0  0  0  0  0  0
    4.6983    1.3207   -1.4716 C   0  0  0  0  0  0  0  0  0  0  0  0
    3.8324    0.3035   -1.0670 C   0  0  0  0  0  0  0  0  0  0  0  0
   -1.4173    2.8659    4.6596 H   0  0  0  0  0  0  0  0  0  0  0  0
   -0.3283    1.4793    4.8980 H   0  0  0  0  0  0  0  0  0  0  0  0
    0.2147    2.9043    3.9585 H   0  0  0  0  0  0  0  0  0  0  0  0
   -1.4627   -2.0004    2.4117 H   0  0  0  0  0  0  0  0  0  0  0  0
   -2.4697   -0.6002    2.6078 H   0  0  0  0  0  0  0  0  0  0  0  0
   -3.3258    0.6052    0.4210 H   0  0  0  0  0  0  0  0  0  0  0  0
   -4.3794    0.1336   -1.7588 H   0  0  0  0  0  0  0  0  0  0  0  0
   -4.0940   -2.0848   -2.8333 H   0  0  0  0  0  0  0  0  0  0  0  0
   -2.7440   -3.8397   -1.7147 H   0  0  0  0  0  0  0  0  0  0  0  0
   -1.6808   -3.3903    0.4647 H   0  0  0  0  0  0  0  0  0  0  0  0
    1.0536   -1.2716   -2.0438 H   0  0  0  0  0  0  0  0  0  0  0  0
    2.1685   -1.7350   -0.7649 H   0  0  0  0  0  0  0  0  0  0  0  0
    1.1452    1.0960   -3.0044 H   0  0  0  0  0  0  0  0  0  0  0  0
    2.6888    2.8886   -3.7197 H   0  0  0  0  0  0  0  0  0  0  0  0
    4.9632    3.0396   -2.7438 H   0  0  0  0  0  0  0  0  0  0  0  0
    5.6911    1.3926   -1.0360 H   0  0  0  0  0  0  0  0  0  0  0  0
    4.1632   -0.4059   -0.3113 H   0  0  0  0  0  0  0  0  0  0  0  0
  1  2  1  0
  2  3  2  0
  2  4  1  0
  4  5  2  3
  5  6  1  0
  6  7  1  0
  7  8  2  0
  8  9  1  0
  9 10  2  0
 10 11  1  0
 11 12  2  0
  5 13  1  0
 13 14  2  0
 13 15  1  0
 15 16  1  0
 16 17  1  0
 17 18  2  0
 18 19  1  0
 19 20  2  0
 20 21  1  0
 21 22  2  0
 12  7  1  0
 22 17  1  0
  1 23  1  0
  1 24  1  0
  1 25  1  0
  6 26  1  0
  6 27  1  0
  8 28  1  0
  9 29  1  0
 10 30  1  0
 11 31  1  0
 12 32  1  0
 16 33  1  0
 16 34  1  0
 18 35  1  0
 19 36  1  0
 20 37  1  0
 21 38  1  0
 22 39  1  0
M  END
$$$$
