
     RDKit          3D

 47 50  0  0  0  0  0  0  0  0999 V2000
   -2.3806    2.8918   -1.3885 C   0  0  0  0  0  0  0  0  0  0  0  0
   -3.1719    1.5984   -1.1881 C   0  0  0  0  0  0  0  0  0  0  0  0
   -3.5838    1.4133    0.2671 C   0  0  0  0  0  0  0  0  0  0  0  0
   -2.4594    0.8951    1.1362 C   0  0  0  0  0  0  0  0  0  0  0  0
   -1.7229    1.6812    1.7402 O   0  0  0  0  0  0  0  0  0  0  0  0
   -2.3112   -0.4843    1.2438 N   0  0  0  0  0  0  0  0  0  0  0  0
   -1.3525   -0.9882    2.2382 C   0  0  0  0  0  0  0  0  0  0  0  0
    0.0782   -1.0625    1.6873 C   0  0  0  0  0  0  0  0  0  0  0  0
    0.6637   -2.1407    1.6210 O   0  0  0  0  0  0  0  0  0  0  0  0
    0.6023    0.1795    1.3734 N   0  0  0  0  0  0  0  0  0  0  0  0
    1.8795    0.4824    0.8653 C   0  0  0  0  0  0  0  0  0  0  0  0
    2.1668    1.8379    0.6480 C   0  0  0  0  0  0  0  0  0  0  0  0
    3.4086    2.2340    0.1435 C   0  0  0  0  0  0  0  0  0  0  0  0
    4.3711    1.2747   -0.1525 C   0  0  0  0  0  0  0  0  0  0  0  0
    4.1021   -0.0767    0.0836 C   0  0  0  0  0  0  0  0  0  0  0  0
    2.8554   -0.4736    0.5757 C   0  0  0  0  0  0  0  0  0  0  0  0
    5.0162   -1.0741   -0.1539 O   0  0  0  0  0  0  0  0  0  0  0  0
    6.3364   -0.5458   -0.3137 C   0  0  0  0  0  0  0  0  0  0  0  0
    6.3211    0.6604   -1.2380 C   0  0  0  0  0  0  0  0  0  0  0  0
    5.5601    1.7292   -0.6625 O   0  0  0  0  0  0  0  0  0  0  0  0
   -2.8909   -1.4189    0.3240 C   0  0  0  0  0  0  0  0  0  0  0  0
   -3.4090   -2.6293    0.8177 C   0  0  0  0  0  0  0  0  0  0  0  0
   -4.0015   -3.5638   -0.0354 C   0  0  0  0  0  0  0  0  0  0  0  0
   -4.0806   -3.3104   -1.3997 C   0  0  0  0  0  0  0  0  0  0  0  0
   -3.5548   -2.1268   -1.9141 C   0  0  0  0  0  0  0  0  0  0  0  0
   -2.9654   -1.1750   -1.0668 C   0  0  0  0  0  0  0  0  0  0  0  0
   -2.1829    0.2203   -1.8714 S   0  0  0  0  0  0  0  0  0  0  0  0
   -2.9686    3.7527   -1.0470 H   0  0  0  0  0  0  0  0  0  0  0  0
   -2.1514    3.0596   -2.4471 H   0  0  0  0  0  0  0  0  0  0  0  0
   -1.4390    2.8916   -0.8297 H   0  0  0  0  0  0  0  0  0  0  0  0
   -4.0848    1.6700   -1.7919 H   0  0  0  0  0  0  0  0  0  0  0  0
   -3.9330    2.3623    0.6948 H   0  0  0  0  0  0  0  0  0  0  0  0
   -4.4483    0.7428    0.3471 H   0  0  0  0  0  0  0  0  0  0  0  0
   -1.6340   -1.9763    2.6104 H   0  0  0  0  0  0  0  0  0  0  0  0
   -1.3450   -0.3235    3.1111 H   0  0  0  0  0  0  0  0  0  0  0  0
   -0.0196    0.9754    1.5253 H   0  0  0  0  0  0  0  0  0  0  0  0
    1.4253    2.6032    0.8674 H   0  0  0  0  0  0  0  0  0  0  0  0
    3.6177    3.2864   -0.0261 H   0  0  0  0  0  0  0  0  0  0  0  0
    2.6814   -1.5334    0.7286 H   0  0  0  0  0  0  0  0  0  0  0  0
    6.7320   -0.2883    0.6768 H   0  0  0  0  0  0  0  0  0  0  0  0
    6.9625   -1.3387   -0.7357 H   0  0  0  0  0  0  0  0  0  0  0  0
    5.8899    0.4119   -2.2162 H   0  0  0  0  0  0  0  0  0  0  0  0
    7.3395    1.0275   -1.3978 H   0  0  0  0  0  0  0  0  0  0  0  0
   -3.3984   -2.8565    1.8803 H   0  0  0  0  0  0  0  0  0  0  0  0
   -4.3972   -4.4927    0.3698 H   0  0  0  0  0  0  0  0  0  0  0  0
   -4.5323   -4.0406   -2.0663 H   0  0  0  0  0  0  0  0  0  0  0  0
   -3.5911   -1.9613   -2.9887 H   0  0  0  0  0  0  0  0  0  0  0  0
  1  2  1  0
  2  3  1  0
  3  4  1  0
  4  5  2  0
  4  6  1  0
  6  7  1  0
  7  8  1  0
  8  9  2  0
  8 10  1  0
 10 11  1  0
 11 12  2  0
 12 13  1  0
 13 14  2  0
 14 15  1  0
 15 16  2  0
 15 17  1  0
 17 18  1  0
 18 19  1  0
 19 20  1  0
  6 21  1  0
 21 22  2  0
 22 23  1  0
 23 24  2  0
 24 25  1  0
 25 26  2  0
 26 27  1  0
 27  2  1  0
 16 11  1  0
 26 21  1  0
 20 14  1  0
  1 28  1  0
  1 29  1  0
  1 30  1  0
  2 31  1  0
  3 32  1  0
  3 33  1  0
  7 34  1  0
  7 35  1  0
 10 36  1  0
 12 37  1  0
 13 38  1  0
 16 39  1  0
 18 40  1  0
 18 41  1  0
 19 42  1  0
 19 43  1  0
 22 44  1  0
 23 45  1  0
 24 46  1  0
 25 47  1  0
M  END
$$$$
