
     RDKit          3D

 54 58  0  0  0  0  0  0  0  0999 V2000
    6.2287    1.0695   -2.9749 F   0  0  0  0  0  0  0  0  0  0  0  0
    6.2736    1.1434   -1.6149 C   0  0  0  0  0  0  0  0  0  0  0  0
    5.4216    2.1492   -1.2671 F   0  0  0  0  0  0  0  0  0  0  0  0
    7.5213    1.6051   -1.3146 F   0  0  0  0  0  0  0  0  0  0  0  0
    5.9358   -0.1737   -0.9506 C   0  0  0  0  0  0  0  0  0  0  0  0
    6.9531   -0.8721   -0.2700 C   0  0  0  0  0  0  0  0  0  0  0  0
    6.6958   -2.0909    0.3561 C   0  0  0  0  0  0  0  0  0  0  0  0
    5.4182   -2.6336    0.3122 C   0  0  0  0  0  0  0  0  0  0  0  0
    4.3989   -1.9621   -0.3615 C   0  0  0  0  0  0  0  0  0  0  0  0
    4.6378   -0.7347   -1.0044 C   0  0  0  0  0  0  0  0  0  0  0  0
    3.4820   -0.0538   -1.7153 C   0  0  0  0  0  0  0  0  0  0  0  0
    2.5878    0.7869   -0.7797 C   0  0  0  0  0  0  0  0  0  0  0  0
    1.6882    0.0005    0.0867 N   0  0  0  0  0  0  0  0  0  0  0  0
    1.0617    0.8485    1.1288 C   0  0  0  0  0  0  0  0  0  0  0  0
   -0.4006    1.2541    0.8529 C   0  0  0  0  0  0  0  0  0  0  0  0
   -1.2591    0.0674    0.6984 N   0  0  0  0  0  0  0  0  0  0  0  0
   -2.6408    0.2261    0.6621 C   0  0  0  0  0  0  0  0  0  0  0  0
   -3.1134    1.4317    0.4549 N   0  0  0  0  0  0  0  0  0  0  0  0
   -4.4991    1.6615    0.3671 C   0  0  0  0  0  0  0  0  0  0  0  0
   -4.9415    2.9646    0.1304 C   0  0  0  0  0  0  0  0  0  0  0  0
   -6.3058    3.2473    0.0231 C   0  0  0  0  0  0  0  0  0  0  0  0
   -7.2446    2.2230    0.1509 C   0  0  0  0  0  0  0  0  0  0  0  0
   -6.8247    0.9135    0.3869 C   0  0  0  0  0  0  0  0  0  0  0  0
   -5.4562    0.6467    0.4919 C   0  0  0  0  0  0  0  0  0  0  0  0
   -4.9476   -0.6375    0.7452 N   0  0  0  0  0  0  0  0  0  0  0  0
   -5.6238   -1.8184    0.9415 C   0  0  0  0  0  0  0  0  0  0  0  0
   -4.7023   -2.7981    1.2368 C   0  0  0  0  0  0  0  0  0  0  0  0
   -3.4244   -2.1933    1.2008 C   0  0  0  0  0  0  0  0  0  0  0  0
   -3.5910   -0.8634    0.8526 C   0  0  0  0  0  0  0  0  0  0  0  0
   -0.5944   -1.1102    0.1250 C   0  0  0  0  0  0  0  0  0  0  0  0
    0.6550   -0.7169   -0.6950 C   0  0  0  0  0  0  0  0  0  0  0  0
    7.9613   -0.4626   -0.2222 H   0  0  0  0  0  0  0  0  0  0  0  0
    7.4919   -2.6137    0.8805 H   0  0  0  0  0  0  0  0  0  0  0  0
    5.2103   -3.5794    0.8061 H   0  0  0  0  0  0  0  0  0  0  0  0
    3.4028   -2.4004   -0.3741 H   0  0  0  0  0  0  0  0  0  0  0  0
    3.8701    0.6012   -2.5036 H   0  0  0  0  0  0  0  0  0  0  0  0
    2.8972   -0.8059   -2.2585 H   0  0  0  0  0  0  0  0  0  0  0  0
    1.9969    1.4858   -1.3869 H   0  0  0  0  0  0  0  0  0  0  0  0
    3.2478    1.4001   -0.1522 H   0  0  0  0  0  0  0  0  0  0  0  0
    1.6570    1.7475    1.3301 H   0  0  0  0  0  0  0  0  0  0  0  0
    1.0838    0.2688    2.0612 H   0  0  0  0  0  0  0  0  0  0  0  0
   -0.4503    1.8754   -0.0502 H   0  0  0  0  0  0  0  0  0  0  0  0
   -0.7565    1.8566    1.6974 H   0  0  0  0  0  0  0  0  0  0  0  0
   -4.2123    3.7642    0.0293 H   0  0  0  0  0  0  0  0  0  0  0  0
   -6.6331    4.2673   -0.1595 H   0  0  0  0  0  0  0  0  0  0  0  0
   -8.3054    2.4472    0.0682 H   0  0  0  0  0  0  0  0  0  0  0  0
   -7.5732    0.1349    0.4865 H   0  0  0  0  0  0  0  0  0  0  0  0
   -6.7005   -1.8761    0.8789 H   0  0  0  0  0  0  0  0  0  0  0  0
   -4.9286   -3.8318    1.4645 H   0  0  0  0  0  0  0  0  0  0  0  0
   -2.4851   -2.6841    1.4128 H   0  0  0  0  0  0  0  0  0  0  0  0
   -0.3057   -1.7905    0.9347 H   0  0  0  0  0  0  0  0  0  0  0  0
   -1.2703   -1.6512   -0.5469 H   0  0  0  0  0  0  0  0  0  0  0  0
    0.3198   -0.1021   -1.5416 H   0  0  0  0  0  0  0  0  0  0  0  0
    1.0916   -1.6314   -1.1108 H   0  0  0  0  0  0  0  0  0  0  0  0
  1  2  1  0
  2  3  1  0
  2  4  1  0
  2  5  1  0
  5  6  2  0
  6  7  1  0
  7  8  2  0
  8  9  1  0
  9 10  2  0
 10 11  1  0
 11 12  1  0
 12 13  1  0
 13 14  1  0
 14 15  1  0
 15 16  1  0
 16 17  1  0
 17 18  2  0
 18 19  1  0
 19 20  2  0
 20 21  1  0
 21 22  2  0
 22 23  1  0
 23 24  2  0
 24 25  1  0
 25 26  1  0
 26 27  2  0
 27 28  1  0
 28 29  2  0
 16 30  1  0
 30 31  1  0
 10  5  1  0
 31 13  1  0
 29 17  1  0
 24 19  1  0
 29 25  1  0
  6 32  1  0
  7 33  1  0
  8 34  1  0
  9 35  1  0
 11 36  1  0
 11 37  1  0
 12 38  1  0
 12 39  1  0
 14 40  1  0
 14 41  1  0
 15 42  1  0
 15 43  1  0
 20 44  1  0
 21 45  1  0
 22 46  1  0
 23 47  1  0
 26 48  1  0
 27 49  1  0
 28 50  1  0
 30 51  1  0
 30 52  1  0
 31 53  1  0
 31 54  1  0
M  END
$$$$
