
     RDKit          3D

 36 37  0  0  0  0  0  0  0  0999 V2000
    1.2472   -1.3145    1.4706 O   0  0  0  0  0  0  0  0  0  0  0  0
    0.5453   -0.3134    1.6116 C   0  0  0  0  0  0  0  0  0  0  0  0
   -0.7859   -0.3284    2.3655 C   0  0  0  0  0  0  0  0  0  0  0  0
   -1.9136   -0.5165    1.5099 O   0  0  0  0  0  0  0  0  0  0  0  0
   -2.2882    0.5746    0.7999 C   0  0  0  0  0  0  0  0  0  0  0  0
   -1.7262    1.6596    0.8255 O   0  0  0  0  0  0  0  0  0  0  0  0
   -3.4833    0.2812   -0.0365 C   0  0  0  0  0  0  0  0  0  0  0  0
   -4.0756   -0.9892   -0.0819 C   0  0  0  0  0  0  0  0  0  0  0  0
   -5.1974   -1.2132   -0.8863 C   0  0  0  0  0  0  0  0  0  0  0  0
   -5.7269   -0.1700   -1.6447 C   0  0  0  0  0  0  0  0  0  0  0  0
   -7.2431   -0.4759   -2.7306 Br  0  0  0  0  0  0  0  0  0  0  0  0
   -5.1462    1.0965   -1.6085 C   0  0  0  0  0  0  0  0  0  0  0  0
   -4.0249    1.3218   -0.8051 C   0  0  0  0  0  0  0  0  0  0  0  0
    0.9094    0.9178    1.1046 N   0  0  0  0  0  0  0  0  0  0  0  0
    2.0400    1.0285    0.2011 C   0  0  0  0  0  0  0  0  0  0  0  0
    3.3889    0.7502    0.8820 C   0  0  0  0  0  0  0  0  0  0  0  0
    4.2886    0.0149    0.0170 N   0  0  0  0  0  0  0  0  0  0  0  0
    4.4307   -1.3525   -0.0026 C   0  0  0  0  0  0  0  0  0  0  0  0
    3.7032   -2.1706    0.8092 O   0  0  0  0  0  0  0  0  0  0  0  0
    5.3349   -1.8020   -0.8778 C   0  0  0  0  0  0  0  0  0  0  0  0
    6.0560   -0.5032   -1.7751 S   0  0  0  0  0  0  0  0  0  0  0  0
    5.0716    0.6890   -0.9108 C   0  0  0  0  0  0  0  0  0  0  0  0
    5.0989    1.8883   -1.1347 O   0  0  0  0  0  0  0  0  0  0  0  0
   -0.7615   -1.1656    3.0715 H   0  0  0  0  0  0  0  0  0  0  0  0
   -0.8952    0.5826    2.9667 H   0  0  0  0  0  0  0  0  0  0  0  0
   -3.6762   -1.8165    0.5004 H   0  0  0  0  0  0  0  0  0  0  0  0
   -5.6481   -2.2025   -0.9143 H   0  0  0  0  0  0  0  0  0  0  0  0
   -5.5560    1.9123   -2.1991 H   0  0  0  0  0  0  0  0  0  0  0  0
   -3.5775    2.3142   -0.7828 H   0  0  0  0  0  0  0  0  0  0  0  0
    0.1483    1.5917    0.9884 H   0  0  0  0  0  0  0  0  0  0  0  0
    2.0312    2.0430   -0.2118 H   0  0  0  0  0  0  0  0  0  0  0  0
    1.8601    0.3326   -0.6272 H   0  0  0  0  0  0  0  0  0  0  0  0
    3.2889    0.2162    1.8331 H   0  0  0  0  0  0  0  0  0  0  0  0
    3.8555    1.7117    1.1323 H   0  0  0  0  0  0  0  0  0  0  0  0
    2.8411   -1.7508    1.0183 H   0  0  0  0  0  0  0  0  0  0  0  0
    5.5861   -2.8416   -1.0319 H   0  0  0  0  0  0  0  0  0  0  0  0
  1  2  2  0
  2  3  1  0
  3  4  1  0
  4  5  1  0
  5  6  2  0
  5  7  1  0
  7  8  2  0
  8  9  1  0
  9 10  2  0
 10 11  1  0
 10 12  1  0
 12 13  2  0
  2 14  1  0
 14 15  1  0
 15 16  1  0
 16 17  1  0
 17 18  1  0
 18 19  1  0
 18 20  2  0
 20 21  1  0
 21 22  1  0
 22 23  2  0
 13  7  1  0
 22 17  1  0
  3 24  1  0
  3 25  1  0
  8 26  1  0
  9 27  1  0
 12 28  1  0
 13 29  1  0
 14 30  1  0
 15 31  1  0
 15 32  1  0
 16 33  1  0
 16 34  1  0
 19 35  1  0
 20 36  1  0
M  END
$$$$
