
     RDKit          3D

 71 73  0  0  0  0  0  0  0  0999 V2000
   -5.0051   -4.4658    1.9676 C   0  0  0  0  0  0  0  0  0  0  0  0
   -5.6030   -3.1728    1.9828 O   0  0  0  0  0  0  0  0  0  0  0  0
   -5.0307   -2.2584    1.1301 C   0  0  0  0  0  0  0  0  0  0  0  0
   -3.6456   -2.1590    0.9497 C   0  0  0  0  0  0  0  0  0  0  0  0
   -3.1214   -1.1758    0.1087 C   0  0  0  0  0  0  0  0  0  0  0  0
   -1.6793   -1.0307   -0.0890 C   0  0  0  0  0  0  0  0  0  0  0  0
   -1.1786   -0.0660   -0.8836 C   0  0  0  0  0  0  0  0  0  0  0  0
    0.2947    0.1436   -1.1082 C   0  0  0  0  0  0  0  0  0  0  0  0
    0.9508    0.5291    0.1593 N   0  0  0  0  0  0  0  0  0  0  0  0
    0.7811    1.9586    0.5151 C   0  0  0  0  0  0  0  0  0  0  0  0
    1.9975    2.7875    0.0894 C   0  0  0  0  0  0  0  0  0  0  0  0
    1.8221    4.2539    0.4133 C   0  0  0  0  0  0  0  0  0  0  0  0
    2.1978    4.7035    1.6926 C   0  0  0  0  0  0  0  0  0  0  0  0
    2.0553    6.0420    2.0518 C   0  0  0  0  0  0  0  0  0  0  0  0
    1.5323    6.9509    1.1390 C   0  0  0  0  0  0  0  0  0  0  0  0
    1.1444    6.5189   -0.1298 C   0  0  0  0  0  0  0  0  0  0  0  0
    1.2725    5.1721   -0.5050 C   0  0  0  0  0  0  0  0  0  0  0  0
    0.8317    4.7573   -1.8833 C   0  0  0  0  0  0  0  0  0  0  0  0
    1.5981   -0.3772    1.0207 C   0  0  0  0  0  0  0  0  0  0  0  0
    1.9557   -0.0533    2.6333 S   0  0  0  0  0  0  0  0  0  0  0  0
    1.8978   -1.5892    0.4321 N   0  0  0  0  0  0  0  0  0  0  0  0
    2.4924   -2.7694    1.0557 C   0  0  0  0  0  0  0  0  0  0  0  0
    4.0179   -2.7157    1.1712 C   0  0  0  0  0  0  0  0  0  0  0  0
    4.7491   -2.3626   -0.1324 C   0  0  0  0  0  0  0  0  0  0  0  0
    4.3497   -3.1776   -1.2917 N   0  0  0  0  0  0  0  0  0  0  0  0
    4.8902   -2.5956   -2.5236 C   0  0  0  0  0  0  0  0  0  0  0  0
    4.8092   -4.5629   -1.1622 C   0  0  0  0  0  0  0  0  0  0  0  0
   -2.1086    0.8504   -1.6098 C   0  0  0  0  0  0  0  0  0  0  0  0
   -1.6967    1.7247   -2.3690 O   0  0  0  0  0  0  0  0  0  0  0  0
   -3.4502    0.6835   -1.3911 N   0  0  0  0  0  0  0  0  0  0  0  0
   -3.9873   -0.2944   -0.5456 C   0  0  0  0  0  0  0  0  0  0  0  0
   -5.3690   -0.3764   -0.3630 C   0  0  0  0  0  0  0  0  0  0  0  0
   -5.8983   -1.3508    0.4888 C   0  0  0  0  0  0  0  0  0  0  0  0
   -7.2374   -1.5199    0.7380 O   0  0  0  0  0  0  0  0  0  0  0  0
   -8.1175   -0.4971    0.2954 C   0  0  0  0  0  0  0  0  0  0  0  0
   -4.9064   -4.8483    0.9467 H   0  0  0  0  0  0  0  0  0  0  0  0
   -4.0393   -4.4640    2.4840 H   0  0  0  0  0  0  0  0  0  0  0  0
   -5.6650   -5.1412    2.5170 H   0  0  0  0  0  0  0  0  0  0  0  0
   -2.9664   -2.8178    1.4810 H   0  0  0  0  0  0  0  0  0  0  0  0
   -1.0203   -1.7099    0.4441 H   0  0  0  0  0  0  0  0  0  0  0  0
    0.7051   -0.7769   -1.5288 H   0  0  0  0  0  0  0  0  0  0  0  0
    0.5141    0.9229   -1.8466 H   0  0  0  0  0  0  0  0  0  0  0  0
    0.5993    2.0662    1.5900 H   0  0  0  0  0  0  0  0  0  0  0  0
   -0.1273    2.3402    0.0349 H   0  0  0  0  0  0  0  0  0  0  0  0
    2.9046    2.4147    0.5828 H   0  0  0  0  0  0  0  0  0  0  0  0
    2.1913    2.6546   -0.9816 H   0  0  0  0  0  0  0  0  0  0  0  0
    2.6127    4.0051    2.4179 H   0  0  0  0  0  0  0  0  0  0  0  0
    2.3591    6.3740    3.0401 H   0  0  0  0  0  0  0  0  0  0  0  0
    1.4264    7.9971    1.4131 H   0  0  0  0  0  0  0  0  0  0  0  0
    0.7384    7.2474   -0.8318 H   0  0  0  0  0  0  0  0  0  0  0  0
    0.1233    3.9262   -1.8238 H   0  0  0  0  0  0  0  0  0  0  0  0
    0.3224    5.5724   -2.4054 H   0  0  0  0  0  0  0  0  0  0  0  0
    1.6958    4.4571   -2.4857 H   0  0  0  0  0  0  0  0  0  0  0  0
    2.0964   -1.5567   -0.5573 H   0  0  0  0  0  0  0  0  0  0  0  0
    2.0443   -2.9246    2.0420 H   0  0  0  0  0  0  0  0  0  0  0  0
    2.1939   -3.6220    0.4356 H   0  0  0  0  0  0  0  0  0  0  0  0
    4.3750   -3.6799    1.5540 H   0  0  0  0  0  0  0  0  0  0  0  0
    4.3074   -1.9734    1.9246 H   0  0  0  0  0  0  0  0  0  0  0  0
    5.8313   -2.4348    0.0355 H   0  0  0  0  0  0  0  0  0  0  0  0
    4.5450   -1.3060   -0.3460 H   0  0  0  0  0  0  0  0  0  0  0  0
    5.9846   -2.5197   -2.5091 H   0  0  0  0  0  0  0  0  0  0  0  0
    4.6012   -3.1982   -3.3927 H   0  0  0  0  0  0  0  0  0  0  0  0
    4.4721   -1.5944   -2.6900 H   0  0  0  0  0  0  0  0  0  0  0  0
    4.5133   -5.1482   -2.0404 H   0  0  0  0  0  0  0  0  0  0  0  0
    4.3446   -5.0538   -0.3013 H   0  0  0  0  0  0  0  0  0  0  0  0
    5.8970   -4.6321   -1.0552 H   0  0  0  0  0  0  0  0  0  0  0  0
   -4.0562    1.3268   -1.8812 H   0  0  0  0  0  0  0  0  0  0  0  0
   -6.0112    0.3192   -0.8888 H   0  0  0  0  0  0  0  0  0  0  0  0
   -9.1190   -0.7359    0.6668 H   0  0  0  0  0  0  0  0  0  0  0  0
   -7.8330    0.4778    0.7059 H   0  0  0  0  0  0  0  0  0  0  0  0
   -8.1661   -0.4688   -0.7976 H   0  0  0  0  0  0  0  0  0  0  0  0
  1  2  1  0
  2  3  1  0
  3  4  2  0
  4  5  1  0
  5  6  1  0
  6  7  2  0
  7  8  1  0
  8  9  1  0
  9 10  1  0
 10 11  1  0
 11 12  1  0
 12 13  2  0
 13 14  1  0
 14 15  2  0
 15 16  1  0
 16 17  2  0
 17 18  1  0
  9 19  1  0
 19 20  2  0
 19 21  1  0
 21 22  1  0
 22 23  1  0
 23 24  1  0
 24 25  1  0
 25 26  1  0
 25 27  1  0
  7 28  1  0
 28 29  2  0
 28 30  1  0
 30 31  1  0
 31 32  1  0
 32 33  2  0
 33 34  1  0
 34 35  1  0
 33  3  1  0
 31  5  2  0
 17 12  1  0
  1 36  1  0
  1 37  1  0
  1 38  1  0
  4 39  1  0
  6 40  1  0
  8 41  1  0
  8 42  1  0
 10 43  1  0
 10 44  1  0
 11 45  1  0
 11 46  1  0
 13 47  1  0
 14 48  1  0
 15 49  1  0
 16 50  1  0
 18 51  1  0
 18 52  1  0
 18 53  1  0
 21 54  1  0
 22 55  1  0
 22 56  1  0
 23 57  1  0
 23 58  1  0
 24 59  1  0
 24 60  1  0
 26 61  1  0
 26 62  1  0
 26 63  1  0
 27 64  1  0
 27 65  1  0
 27 66  1  0
 30 67  1  0
 32 68  1  0
 35 69  1  0
 35 70  1  0
 35 71  1  0
M  END
$$$$
