
     RDKit          3D

 37 39  0  0  0  0  0  0  0  0999 V2000
    5.9986    0.1813   -0.6685 C   0  0  0  0  0  0  0  0  0  0  0  0
    5.4586   -0.0968    0.6172 O   0  0  0  0  0  0  0  0  0  0  0  0
    4.0955   -0.1017    0.7407 C   0  0  0  0  0  0  0  0  0  0  0  0
    3.6403   -0.3622    2.0429 C   0  0  0  0  0  0  0  0  0  0  0  0
    2.2776   -0.4004    2.3336 C   0  0  0  0  0  0  0  0  0  0  0  0
    1.3833   -0.1769    1.2999 C   0  0  0  0  0  0  0  0  0  0  0  0
    1.8104    0.0853   -0.0202 C   0  0  0  0  0  0  0  0  0  0  0  0
    3.1775    0.1229   -0.2935 C   0  0  0  0  0  0  0  0  0  0  0  0
    0.7480    0.2790   -0.9345 N   0  0  0  0  0  0  0  0  0  0  0  0
    1.0538    0.7458   -2.2765 C   0  0  0  0  0  0  0  0  0  0  0  0
   -0.4960    0.2275   -0.3012 C   0  0  0  0  0  0  0  0  0  0  0  0
   -1.6983    0.4175   -0.8773 C   0  0  0  0  0  0  0  0  0  0  0  0
   -2.9905    0.3596   -0.1867 C   0  0  0  0  0  0  0  0  0  0  0  0
   -3.5472    1.5376    0.3258 C   0  0  0  0  0  0  0  0  0  0  0  0
   -4.7612    1.4975    0.9983 C   0  0  0  0  0  0  0  0  0  0  0  0
   -5.4050    0.2808    1.1558 C   0  0  0  0  0  0  0  0  0  0  0  0
   -4.8270   -0.8698    0.6344 C   0  0  0  0  0  0  0  0  0  0  0  0
   -3.6485   -0.8228   -0.0322 N   0  0  0  0  0  4  0  0  0  0  0  0
   -3.0844   -2.0823   -0.5595 C   0  0  0  0  0  0  0  0  0  0  0  0
   -0.3964   -0.1585    1.4439 S   0  0  0  0  0  0  0  0  0  0  0  0
    5.7007   -0.5827   -1.3940 H   0  0  0  0  0  0  0  0  0  0  0  0
    5.7127    1.1822   -1.0081 H   0  0  0  0  0  0  0  0  0  0  0  0
    7.0894    0.1558   -0.5861 H   0  0  0  0  0  0  0  0  0  0  0  0
    4.3647   -0.5333    2.8373 H   0  0  0  0  0  0  0  0  0  0  0  0
    1.9374   -0.5959    3.3451 H   0  0  0  0  0  0  0  0  0  0  0  0
    3.5227    0.3221   -1.2993 H   0  0  0  0  0  0  0  0  0  0  0  0
    1.4689    1.7593   -2.2484 H   0  0  0  0  0  0  0  0  0  0  0  0
    1.7691    0.0803   -2.7724 H   0  0  0  0  0  0  0  0  0  0  0  0
    0.1675    0.7698   -2.9173 H   0  0  0  0  0  0  0  0  0  0  0  0
   -1.7739    0.6550   -1.9332 H   0  0  0  0  0  0  0  0  0  0  0  0
   -3.0282    2.4885    0.2140 H   0  0  0  0  0  0  0  0  0  0  0  0
   -5.1956    2.4095    1.4055 H   0  0  0  0  0  0  0  0  0  0  0  0
   -6.3525    0.2270    1.6883 H   0  0  0  0  0  0  0  0  0  0  0  0
   -5.3055   -1.8387    0.7502 H   0  0  0  0  0  0  0  0  0  0  0  0
   -2.2400   -2.3686    0.0708 H   0  0  0  0  0  0  0  0  0  0  0  0
   -2.7812   -1.9268   -1.5979 H   0  0  0  0  0  0  0  0  0  0  0  0
   -3.8453   -2.8670   -0.5334 H   0  0  0  0  0  0  0  0  0  0  0  0
  1  2  1  0
  2  3  1  0
  3  4  2  0
  4  5  1  0
  5  6  2  0
  6  7  1  0
  7  8  2  0
  7  9  1  0
  9 10  1  0
  9 11  1  0
 11 12  2  3
 12 13  1  0
 13 14  2  0
 14 15  1  0
 15 16  2  0
 16 17  1  0
 17 18  2  0
 18 19  1  0
 11 20  1  0
  8  3  1  0
 18 13  1  0
 20  6  1  0
  1 21  1  0
  1 22  1  0
  1 23  1  0
  4 24  1  0
  5 25  1  0
  8 26  1  0
 10 27  1  0
 10 28  1  0
 10 29  1  0
 12 30  1  0
 14 31  1  0
 15 32  1  0
 16 33  1  0
 17 34  1  0
 19 35  1  0
 19 36  1  0
 19 37  1  0
M  CHG  1  18   1
M  END
$$$$
