
     RDKit          3D

 37 39  0  0  0  0  0  0  0  0999 V2000
    5.8086   -0.2067   -0.5287 O   0  0  0  0  0  0  0  0  0  0  0  0
    5.8336   -0.1866    0.8953 C   0  0  0  0  0  0  0  0  0  0  0  0
    5.0370    1.0117    1.4081 C   0  0  0  0  0  0  0  0  0  0  0  0
    3.5959    0.8298    1.0874 N   0  0  0  0  0  4  0  0  0  0  0  0
    3.1425    1.1532   -0.1465 C   0  0  0  0  0  0  0  0  0  0  0  0
    1.7999    0.9989   -0.4719 C   0  0  0  0  0  0  0  0  0  0  0  0
    0.9109    0.4948    0.4753 C   0  0  0  0  0  0  0  0  0  0  0  0
   -0.5073    0.3648    0.1234 C   0  0  0  0  0  0  0  0  0  0  0  0
   -1.2921   -0.6550    0.5099 C   0  0  0  0  0  0  0  0  0  0  0  0
   -2.6763   -0.7976    0.1867 C   0  0  0  0  0  0  0  0  0  0  0  0
   -3.5794   -1.3802    1.0496 C   0  0  0  0  0  0  0  0  0  0  0  0
   -4.8130   -1.3479    0.4550 N   0  0  0  0  0  0  0  0  0  0  0  0
   -4.7244   -0.7798   -0.7950 C   0  0  0  0  0  0  0  0  0  0  0  0
   -5.7249   -0.5600   -1.7500 C   0  0  0  0  0  0  0  0  0  0  0  0
   -5.3499    0.0233   -2.9624 C   0  0  0  0  0  0  0  0  0  0  0  0
   -4.0245    0.3662   -3.2105 C   0  0  0  0  0  0  0  0  0  0  0  0
   -3.0365    0.1410   -2.2440 C   0  0  0  0  0  0  0  0  0  0  0  0
   -3.3861   -0.4325   -1.0012 C   0  0  0  0  0  0  0  0  0  0  0  0
    1.3978    0.1829    1.7437 C   0  0  0  0  0  0  0  0  0  0  0  0
    2.7485    0.3542    2.0269 C   0  0  0  0  0  0  0  0  0  0  0  0
    6.3994   -0.9274   -0.8259 H   0  0  0  0  0  0  0  0  0  0  0  0
    5.4146   -1.1281    1.2633 H   0  0  0  0  0  0  0  0  0  0  0  0
    6.8760   -0.1060    1.2180 H   0  0  0  0  0  0  0  0  0  0  0  0
    5.3549    1.9458    0.9314 H   0  0  0  0  0  0  0  0  0  0  0  0
    5.1349    1.1197    2.4930 H   0  0  0  0  0  0  0  0  0  0  0  0
    3.8651    1.5276   -0.8671 H   0  0  0  0  0  0  0  0  0  0  0  0
    1.4593    1.2626   -1.4717 H   0  0  0  0  0  0  0  0  0  0  0  0
   -0.9193    1.1641   -0.4893 H   0  0  0  0  0  0  0  0  0  0  0  0
   -0.8787   -1.4413    1.1379 H   0  0  0  0  0  0  0  0  0  0  0  0
   -3.4637   -1.8015    2.0393 H   0  0  0  0  0  0  0  0  0  0  0  0
   -5.6689   -1.6995    0.8626 H   0  0  0  0  0  0  0  0  0  0  0  0
   -6.7583   -0.8361   -1.5648 H   0  0  0  0  0  0  0  0  0  0  0  0
   -6.1046    0.2036   -3.7250 H   0  0  0  0  0  0  0  0  0  0  0  0
   -3.7531    0.8081   -4.1662 H   0  0  0  0  0  0  0  0  0  0  0  0
   -2.0073    0.3996   -2.4672 H   0  0  0  0  0  0  0  0  0  0  0  0
    0.7324   -0.1830    2.5232 H   0  0  0  0  0  0  0  0  0  0  0  0
    3.1569    0.1171    3.0050 H   0  0  0  0  0  0  0  0  0  0  0  0
  1  2  1  0
  2  3  1  0
  3  4  1  0
  4  5  2  0
  5  6  1  0
  6  7  2  0
  7  8  1  0
  8  9  2  3
  9 10  1  0
 10 11  2  0
 11 12  1  0
 12 13  1  0
 13 14  2  0
 14 15  1  0
 15 16  2  0
 16 17  1  0
 17 18  2  0
  7 19  1  0
 19 20  2  0
 20  4  1  0
 18 10  1  0
 18 13  1  0
  1 21  1  0
  2 22  1  0
  2 23  1  0
  3 24  1  0
  3 25  1  0
  5 26  1  0
  6 27  1  0
  8 28  1  0
  9 29  1  0
 11 30  1  0
 12 31  1  0
 14 32  1  0
 15 33  1  0
 16 34  1  0
 17 35  1  0
 19 36  1  0
 20 37  1  0
M  CHG  1   4   1
M  END
$$$$
