
     RDKit          3D

 50 52  0  0  0  0  0  0  0  0999 V2000
    4.5032   -2.8911    2.9383 C   0  0  0  0  0  0  0  0  0  0  0  0
    5.0746   -2.5341    1.6451 N   0  0  0  0  0  0  0  0  0  0  0  0
    5.7860   -1.0234    1.4718 S   0  0  0  0  0  6  0  0  0  0  0  0
    6.5798   -1.0827    0.2641 O   0  0  0  0  0  0  0  0  0  0  0  0
    6.3570   -0.6381    2.7433 O   0  0  0  0  0  0  0  0  0  0  0  0
    4.3825    0.0120    1.1362 C   0  0  0  0  0  0  0  0  0  0  0  0
    3.8697    0.8341    2.1430 C   0  0  0  0  0  0  0  0  0  0  0  0
    2.7753    1.6555    1.8669 C   0  0  0  0  0  0  0  0  0  0  0  0
    2.2091    1.6718    0.5843 C   0  0  0  0  0  0  0  0  0  0  0  0
    1.0365    2.5540    0.3494 C   0  0  0  0  0  0  0  0  0  0  0  0
    0.2632    2.8156    1.2659 O   0  0  0  0  0  0  0  0  0  0  0  0
    0.8663    3.0411   -0.9261 N   0  0  0  0  0  0  0  0  0  0  0  0
   -0.1876    3.9957   -1.2405 C   0  0  0  0  0  0  0  0  0  0  0  0
   -1.5377    3.3026   -1.4445 C   0  0  0  0  0  0  0  0  0  0  0  0
   -2.1284    3.3112   -2.5226 O   0  0  0  0  0  0  0  0  0  0  0  0
   -2.0362    2.6890   -0.3170 N   0  0  0  0  0  0  0  0  0  0  0  0
   -3.2640    1.9200   -0.3120 C   0  0  0  0  0  0  0  0  0  0  0  0
   -3.0468    0.4191   -0.5422 C   0  0  0  0  0  0  0  0  0  0  0  0
   -2.6556    0.0997   -1.9847 C   0  0  0  0  0  0  0  0  0  0  0  0
   -2.3993   -1.3041   -2.1440 O   0  0  0  0  0  0  0  0  0  0  0  0
   -3.3736   -2.0633   -1.5514 C   0  0  0  0  0  0  0  0  0  0  0  0
   -3.4224   -3.4096   -1.9075 C   0  0  0  0  0  0  0  0  0  0  0  0
   -4.4036   -4.2390   -1.3615 C   0  0  0  0  0  0  0  0  0  0  0  0
   -5.3308   -3.7219   -0.4566 C   0  0  0  0  0  0  0  0  0  0  0  0
   -5.2728   -2.3762   -0.0890 C   0  0  0  0  0  0  0  0  0  0  0  0
   -4.2864   -1.5510   -0.6261 C   0  0  0  0  0  0  0  0  0  0  0  0
   -4.2795   -0.2469   -0.2065 O   0  0  0  0  0  0  0  0  0  0  0  0
    2.7303    0.8444   -0.4205 C   0  0  0  0  0  0  0  0  0  0  0  0
    3.8236    0.0176   -0.1461 C   0  0  0  0  0  0  0  0  0  0  0  0
    3.8523   -2.1022    3.3192 H   0  0  0  0  0  0  0  0  0  0  0  0
    3.9005   -3.7972    2.8234 H   0  0  0  0  0  0  0  0  0  0  0  0
    5.2966   -3.1034    3.6592 H   0  0  0  0  0  0  0  0  0  0  0  0
    5.5576   -3.2569    1.1131 H   0  0  0  0  0  0  0  0  0  0  0  0
    4.3094    0.8396    3.1384 H   0  0  0  0  0  0  0  0  0  0  0  0
    2.3669    2.2884    2.6533 H   0  0  0  0  0  0  0  0  0  0  0  0
    1.5856    2.9023   -1.6221 H   0  0  0  0  0  0  0  0  0  0  0  0
    0.0923    4.5083   -2.1654 H   0  0  0  0  0  0  0  0  0  0  0  0
   -0.2762    4.7346   -0.4381 H   0  0  0  0  0  0  0  0  0  0  0  0
   -1.4507    2.6959    0.5221 H   0  0  0  0  0  0  0  0  0  0  0  0
   -3.9605    2.3242   -1.0560 H   0  0  0  0  0  0  0  0  0  0  0  0
   -3.7279    2.0789    0.6692 H   0  0  0  0  0  0  0  0  0  0  0  0
   -2.2755    0.0526    0.1494 H   0  0  0  0  0  0  0  0  0  0  0  0
   -3.4412    0.3914   -2.6934 H   0  0  0  0  0  0  0  0  0  0  0  0
   -1.7334    0.6147   -2.2665 H   0  0  0  0  0  0  0  0  0  0  0  0
   -2.7040   -3.8089   -2.6179 H   0  0  0  0  0  0  0  0  0  0  0  0
   -4.4484   -5.2867   -1.6466 H   0  0  0  0  0  0  0  0  0  0  0  0
   -6.0979   -4.3663   -0.0352 H   0  0  0  0  0  0  0  0  0  0  0  0
   -5.9898   -1.9741    0.6203 H   0  0  0  0  0  0  0  0  0  0  0  0
    2.2829    0.8086   -1.4099 H   0  0  0  0  0  0  0  0  0  0  0  0
    4.2290   -0.6241   -0.9260 H   0  0  0  0  0  0  0  0  0  0  0  0
  1  2  1  0
  2  3  1  0
  3  4  2  0
  3  5  2  0
  3  6  1  0
  6  7  2  0
  7  8  1  0
  8  9  2  0
  9 10  1  0
 10 11  2  0
 10 12  1  0
 12 13  1  0
 13 14  1  0
 14 15  2  0
 14 16  1  0
 16 17  1  0
 17 18  1  0
 18 19  1  0
 19 20  1  0
 20 21  1  0
 21 22  2  0
 22 23  1  0
 23 24  2  0
 24 25  1  0
 25 26  2  0
 26 27  1  0
  9 28  1  0
 28 29  2  0
 29  6  1  0
 27 18  1  0
 26 21  1  0
  1 30  1  0
  1 31  1  0
  1 32  1  0
  2 33  1  0
  7 34  1  0
  8 35  1  0
 12 36  1  0
 13 37  1  0
 13 38  1  0
 16 39  1  0
 17 40  1  0
 17 41  1  0
 18 42  1  0
 19 43  1  0
 19 44  1  0
 22 45  1  0
 23 46  1  0
 24 47  1  0
 25 48  1  0
 28 49  1  0
 29 50  1  0
M  END
$$$$
