
     RDKit          3D

 54 58  0  0  0  0  0  0  0  0999 V2000
    2.7135    1.4603    0.6647 O   0  0  0  0  0  0  0  0  0  0  0  0
    2.7616    0.7114   -0.3068 C   0  0  0  0  0  0  0  0  0  0  0  0
    2.4552    1.1784   -1.7196 C   0  0  0  0  0  0  0  0  0  0  0  0
    0.7796    0.6396   -2.1916 S   0  0  0  0  0  0  0  0  0  0  0  0
   -0.1098    1.5297   -0.9609 C   0  0  0  0  0  0  0  0  0  0  0  0
   -0.1034    2.8186   -1.1095 N   0  0  0  0  0  0  0  0  0  0  0  0
   -0.8083    3.5243   -0.1300 C   0  0  0  0  0  0  0  0  0  0  0  0
   -1.4751    2.8971    0.8763 C   0  0  0  0  0  0  0  0  0  0  0  0
   -2.2535    3.9845    1.9101 S   0  0  0  0  0  0  0  0  0  0  0  0
   -1.6914    5.3455    0.9987 C   0  0  0  0  0  0  0  0  0  0  0  0
   -1.9505    6.7050    1.2583 C   0  0  0  0  0  0  0  0  0  0  0  0
   -1.4014    7.6704    0.4095 C   0  0  0  0  0  0  0  0  0  0  0  0
   -0.6115    7.2973   -0.6701 C   0  0  0  0  0  0  0  0  0  0  0  0
   -0.3604    5.9476   -0.9284 C   0  0  0  0  0  0  0  0  0  0  0  0
   -0.9042    4.9453   -0.0899 C   0  0  0  0  0  0  0  0  0  0  0  0
   -1.5031    1.4727    1.0203 C   0  0  0  0  0  0  0  0  0  0  0  0
   -2.1372    0.8799    1.8923 O   0  0  0  0  0  0  0  0  0  0  0  0
   -0.7479    0.8054    0.0450 N   0  0  0  0  0  0  0  0  0  0  0  0
   -0.7342   -0.6600    0.1423 C   0  0  0  0  0  0  0  0  0  0  0  0
   -1.9490   -1.2887   -0.5456 C   0  0  0  0  0  0  0  0  0  0  0  0
   -1.8707   -2.7949   -0.5439 C   0  0  0  0  0  0  0  0  0  0  0  0
   -2.3452   -3.5263    0.5500 C   0  0  0  0  0  0  0  0  0  0  0  0
   -2.2641   -4.9203    0.5603 C   0  0  0  0  0  0  0  0  0  0  0  0
   -1.7075   -5.5935   -0.5222 C   0  0  0  0  0  0  0  0  0  0  0  0
   -1.2285   -4.8727   -1.6175 C   0  0  0  0  0  0  0  0  0  0  0  0
   -1.3044   -3.4795   -1.6259 C   0  0  0  0  0  0  0  0  0  0  0  0
    3.0464   -0.6281   -0.2070 N   0  0  0  0  0  0  0  0  0  0  0  0
    3.2610   -1.2821    1.0618 C   0  0  0  0  0  0  0  0  0  0  0  0
    2.7001   -2.6564    0.9935 C   0  0  0  0  0  0  0  0  0  0  0  0
    2.0807   -3.4671    1.9215 C   0  0  0  0  0  0  0  0  0  0  0  0
    1.7635   -4.6710    1.2542 C   0  0  0  0  0  0  0  0  0  0  0  0
    2.2135   -4.5256   -0.0352 C   0  0  0  0  0  0  0  0  0  0  0  0
    2.7779   -3.3062   -0.2084 O   0  0  0  0  0  0  0  0  0  0  0  0
    3.1820    0.7426   -2.4143 H   0  0  0  0  0  0  0  0  0  0  0  0
    2.5543    2.2676   -1.7763 H   0  0  0  0  0  0  0  0  0  0  0  0
   -2.5665    7.0003    2.1031 H   0  0  0  0  0  0  0  0  0  0  0  0
   -1.5921    8.7219    0.6032 H   0  0  0  0  0  0  0  0  0  0  0  0
   -0.1839    8.0549   -1.3151 H   0  0  0  0  0  0  0  0  0  0  0  0
    0.2571    5.6581   -1.7746 H   0  0  0  0  0  0  0  0  0  0  0  0
    0.1892   -1.0672   -0.2725 H   0  0  0  0  0  0  0  0  0  0  0  0
   -0.7233   -0.9431    1.2012 H   0  0  0  0  0  0  0  0  0  0  0  0
   -2.0399   -0.9263   -1.5752 H   0  0  0  0  0  0  0  0  0  0  0  0
   -2.8739   -0.9746   -0.0450 H   0  0  0  0  0  0  0  0  0  0  0  0
   -2.7881   -3.0143    1.3980 H   0  0  0  0  0  0  0  0  0  0  0  0
   -2.6435   -5.4794    1.4087 H   0  0  0  0  0  0  0  0  0  0  0  0
   -1.6521   -6.6777   -0.5176 H   0  0  0  0  0  0  0  0  0  0  0  0
   -0.7972   -5.3963   -2.4661 H   0  0  0  0  0  0  0  0  0  0  0  0
   -0.9220   -2.9328   -2.4854 H   0  0  0  0  0  0  0  0  0  0  0  0
    3.0301   -1.2170   -1.0328 H   0  0  0  0  0  0  0  0  0  0  0  0
    4.3388   -1.3236    1.2373 H   0  0  0  0  0  0  0  0  0  0  0  0
    2.7948   -0.7123    1.8702 H   0  0  0  0  0  0  0  0  0  0  0  0
    1.8793   -3.2162    2.9541 H   0  0  0  0  0  0  0  0  0  0  0  0
    1.2638   -5.5413    1.6609 H   0  0  0  0  0  0  0  0  0  0  0  0
    2.2014   -5.1639   -0.9080 H   0  0  0  0  0  0  0  0  0  0  0  0
  1  2  2  0
  2  3  1  0
  3  4  1  0
  4  5  1  0
  5  6  2  0
  6  7  1  0
  7  8  2  0
  8  9  1  0
  9 10  1  0
 10 11  2  0
 11 12  1  0
 12 13  2  0
 13 14  1  0
 14 15  2  0
  8 16  1  0
 16 17  2  0
 16 18  1  0
 18 19  1  0
 19 20  1  0
 20 21  1  0
 21 22  2  0
 22 23  1  0
 23 24  2  0
 24 25  1  0
 25 26  2  0
  2 27  1  0
 27 28  1  0
 28 29  1  0
 29 30  2  0
 30 31  1  0
 31 32  2  0
 32 33  1  0
 18  5  1  0
 26 21  1  0
 33 29  1  0
 15  7  1  0
 15 10  1  0
  3 34  1  0
  3 35  1  0
 11 36  1  0
 12 37  1  0
 13 38  1  0
 14 39  1  0
 19 40  1  0
 19 41  1  0
 20 42  1  0
 20 43  1  0
 22 44  1  0
 23 45  1  0
 24 46  1  0
 25 47  1  0
 26 48  1  0
 27 49  1  0
 28 50  1  0
 28 51  1  0
 30 52  1  0
 31 53  1  0
 32 54  1  0
M  END
$$$$
