
     RDKit          3D

 40 41  0  0  0  0  0  0  0  0999 V2000
   -5.6640   -2.8635   -1.6788 C   0  0  0  0  0  0  0  0  0  0  0  0
   -4.6443   -2.3091   -2.6577 C   0  0  0  0  0  0  0  0  0  0  0  0
   -3.4366   -2.0617   -1.9383 O   0  0  0  0  0  0  0  0  0  0  0  0
   -2.3948   -1.6183   -2.7246 C   0  0  0  0  0  0  0  0  0  0  0  0
   -2.6547   -1.3002   -4.0195 N   0  0  0  0  0  0  0  0  0  0  0  0
   -1.6316   -0.8164   -4.7570 C   0  0  0  0  0  0  0  0  0  0  0  0
   -0.3521   -0.6243   -4.2653 C   0  0  0  0  0  0  0  0  0  0  0  0
   -0.1036   -0.9517   -2.9357 C   0  0  0  0  0  0  0  0  0  0  0  0
   -1.1416   -1.4589   -2.1430 C   0  0  0  0  0  0  0  0  0  0  0  0
   -0.9001   -1.8381   -0.7369 C   0  0  0  0  0  0  0  0  0  0  0  0
   -1.3794   -2.8044   -0.1708 O   0  0  0  0  0  0  0  0  0  0  0  0
   -0.0513   -0.9351   -0.1843 O   0  0  0  0  0  0  0  0  0  0  0  0
    0.2451   -1.1956    1.1896 C   0  0  0  0  0  0  0  0  0  0  0  0
    1.2178   -0.1412    1.6536 C   0  0  0  0  0  0  0  0  0  0  0  0
    0.7603    1.1355    2.0096 C   0  0  0  0  0  0  0  0  0  0  0  0
    1.6588    2.1248    2.4208 C   0  0  0  0  0  0  0  0  0  0  0  0
    3.0313    1.8513    2.4744 C   0  0  0  0  0  0  0  0  0  0  0  0
    4.0334    2.8657    2.9016 C   0  0  0  0  0  0  0  0  0  0  0  0
    5.2353    2.6527    2.9374 O   0  0  0  0  0  0  0  0  0  0  0  0
    3.4246    4.0308    3.2369 O   0  0  0  0  0  0  0  0  0  0  0  0
    4.3258    5.0543    3.6613 C   0  0  0  0  0  0  0  0  0  0  0  0
    3.4921    0.5797    2.1091 C   0  0  0  0  0  0  0  0  0  0  0  0
    2.5925   -0.4079    1.6984 C   0  0  0  0  0  0  0  0  0  0  0  0
   -5.8419   -2.1538   -0.8641 H   0  0  0  0  0  0  0  0  0  0  0  0
   -6.6134   -3.0710   -2.1804 H   0  0  0  0  0  0  0  0  0  0  0  0
   -5.2960   -3.7880   -1.2215 H   0  0  0  0  0  0  0  0  0  0  0  0
   -5.0311   -1.3768   -3.0861 H   0  0  0  0  0  0  0  0  0  0  0  0
   -4.4750   -3.0456   -3.4525 H   0  0  0  0  0  0  0  0  0  0  0  0
   -1.8771   -0.5769   -5.7882 H   0  0  0  0  0  0  0  0  0  0  0  0
    0.4332   -0.2310   -4.9018 H   0  0  0  0  0  0  0  0  0  0  0  0
    0.8942   -0.8165   -2.5257 H   0  0  0  0  0  0  0  0  0  0  0  0
    0.6865   -2.1938    1.3009 H   0  0  0  0  0  0  0  0  0  0  0  0
   -0.6703   -1.1466    1.7922 H   0  0  0  0  0  0  0  0  0  0  0  0
   -0.3024    1.3674    1.9638 H   0  0  0  0  0  0  0  0  0  0  0  0
    1.2723    3.1041    2.6921 H   0  0  0  0  0  0  0  0  0  0  0  0
    3.7377    5.9428    3.9068 H   0  0  0  0  0  0  0  0  0  0  0  0
    4.8686    4.7396    4.5582 H   0  0  0  0  0  0  0  0  0  0  0  0
    5.0214    5.3109    2.8561 H   0  0  0  0  0  0  0  0  0  0  0  0
    4.5565    0.3528    2.1405 H   0  0  0  0  0  0  0  0  0  0  0  0
    2.9740   -1.3862    1.4124 H   0  0  0  0  0  0  0  0  0  0  0  0
  1  2  1  0
  2  3  1  0
  3  4  1  0
  4  5  2  0
  5  6  1  0
  6  7  2  0
  7  8  1  0
  8  9  2  0
  9 10  1  0
 10 11  2  0
 10 12  1  0
 12 13  1  0
 13 14  1  0
 14 15  2  0
 15 16  1  0
 16 17  2  0
 17 18  1  0
 18 19  2  0
 18 20  1  0
 20 21  1  0
 17 22  1  0
 22 23  2  0
  9  4  1  0
 23 14  1  0
  1 24  1  0
  1 25  1  0
  1 26  1  0
  2 27  1  0
  2 28  1  0
  6 29  1  0
  7 30  1  0
  8 31  1  0
 13 32  1  0
 13 33  1  0
 15 34  1  0
 16 35  1  0
 21 36  1  0
 21 37  1  0
 21 38  1  0
 22 39  1  0
 23 40  1  0
M  END
$$$$
