
     RDKit          3D

 27 27  0  0  0  0  0  0  0  0999 V2000
   -2.0022   -0.9179   -0.4818 C   0  0  0  0  0  0  0  0  0  0  0  0
   -1.2122    0.3719   -0.7475 C   0  0  0  0  0  0  0  0  0  0  0  0
   -0.2303    0.1381   -1.8982 C   0  0  0  0  0  0  0  0  0  0  0  0
   -2.2008    1.4795   -1.1567 C   0  0  0  0  0  0  0  0  0  0  0  0
   -0.3570    0.9316    0.7601 S   0  0  0  0  0  6  0  0  0  0  0  0
    0.4728    2.0847    0.4799 O   0  0  0  0  0  0  0  0  0  0  0  0
   -1.3111    0.9631    1.8532 O   0  0  0  0  0  0  0  0  0  0  0  0
    0.7484   -0.3265    1.2417 C   0  0  0  0  0  0  0  0  0  0  0  0
    0.3157   -1.4611    2.0068 C   0  0  0  0  0  0  0  0  0  0  0  0
    1.3588   -2.2869    2.3556 C   0  0  0  0  0  0  0  0  0  0  0  0
    2.8563   -1.6861    1.8022 S   0  0  0  0  0  0  0  0  0  0  0  0
    2.1205   -0.3238    1.0562 C   0  0  0  0  0  0  0  0  0  0  0  0
    2.9875    0.6086    0.3862 C   0  0  0  0  0  0  0  0  0  0  0  0
    4.0463    1.0763    0.7774 O   0  0  0  0  0  0  0  0  0  0  0  0
    2.5466    0.8799   -0.8594 O   0  0  0  0  0  0  0  0  0  0  0  0
   -2.6852   -0.8062    0.3670 H   0  0  0  0  0  0  0  0  0  0  0  0
   -1.3388   -1.7613   -0.2682 H   0  0  0  0  0  0  0  0  0  0  0  0
   -2.6038   -1.1965   -1.3548 H   0  0  0  0  0  0  0  0  0  0  0  0
    0.4955   -0.6444   -1.6563 H   0  0  0  0  0  0  0  0  0  0  0  0
   -0.7572   -0.1781   -2.8061 H   0  0  0  0  0  0  0  0  0  0  0  0
    0.3193    1.0521   -2.1449 H   0  0  0  0  0  0  0  0  0  0  0  0
   -1.6804    2.4233   -1.3548 H   0  0  0  0  0  0  0  0  0  0  0  0
   -2.7522    1.2058   -2.0632 H   0  0  0  0  0  0  0  0  0  0  0  0
   -2.9340    1.6706   -0.3650 H   0  0  0  0  0  0  0  0  0  0  0  0
   -0.7095   -1.6459    2.3095 H   0  0  0  0  0  0  0  0  0  0  0  0
    1.3173   -3.2011    2.9330 H   0  0  0  0  0  0  0  0  0  0  0  0
    3.1895    1.5505   -1.1717 H   0  0  0  0  0  0  0  0  0  0  0  0
  1  2  1  0
  2  3  1  0
  2  4  1  0
  2  5  1  0
  5  6  2  0
  5  7  2  0
  5  8  1  0
  8  9  1  0
  9 10  2  0
 10 11  1  0
 11 12  1  0
 12 13  1  0
 13 14  2  0
 13 15  1  0
 12  8  2  0
  1 16  1  0
  1 17  1  0
  1 18  1  0
  3 19  1  0
  3 20  1  0
  3 21  1  0
  4 22  1  0
  4 23  1  0
  4 24  1  0
  9 25  1  0
 10 26  1  0
 15 27  1  0
M  END
$$$$
