
     RDKit          3D

 44 46  0  0  0  0  0  0  0  0999 V2000
   -4.0089    3.1076   -1.6697 C   0  0  0  0  0  0  0  0  0  0  0  0
   -4.5539    1.6951   -1.8998 C   0  0  0  0  0  0  0  0  0  0  0  0
   -5.9483    1.5427   -1.2876 C   0  0  0  0  0  0  0  0  0  0  0  0
   -3.6012    0.6318   -1.3794 C   0  0  0  0  0  0  0  0  0  0  0  0
   -3.2325    0.5742   -0.0248 C   0  0  0  0  0  0  0  0  0  0  0  0
   -2.3586   -0.4124    0.4363 C   0  0  0  0  0  0  0  0  0  0  0  0
   -1.8406   -1.3460   -0.4630 C   0  0  0  0  0  0  0  0  0  0  0  0
   -0.7329   -2.6065    0.1107 S   0  0  0  0  0  6  0  0  0  0  0  0
   -0.7225   -2.6047    1.5578 O   0  0  0  0  0  0  0  0  0  0  0  0
   -1.0335   -3.8146   -0.6298 O   0  0  0  0  0  0  0  0  0  0  0  0
    0.7667   -2.0709   -0.4625 N   0  0  0  0  0  0  0  0  0  0  0  0
    1.4463   -1.0715    0.2869 C   0  0  0  0  0  0  0  0  0  0  0  0
    1.1827    0.2755    0.0377 C   0  0  0  0  0  0  0  0  0  0  0  0
    1.8205    1.2581    0.7937 C   0  0  0  0  0  0  0  0  0  0  0  0
    2.7123    0.8853    1.7955 C   0  0  0  0  0  0  0  0  0  0  0  0
    3.3042    1.8963    2.5037 O   0  0  0  0  0  0  0  0  0  0  0  0
    2.9797   -0.4652    2.0583 C   0  0  0  0  0  0  0  0  0  0  0  0
    4.1079   -0.9449    3.3541 S   0  0  0  0  0  0  0  0  0  0  0  0
    5.6163   -1.0113    2.4790 C   0  0  0  0  0  0  0  0  0  0  0  0
    5.7288   -1.4172    1.1751 N   0  0  0  0  0  0  0  0  0  0  0  0
    7.0150   -1.3054    0.9402 C   0  0  0  0  0  0  0  0  0  0  0  0
    7.6425   -0.8542    2.0586 N   0  0  0  0  0  0  0  0  0  0  0  0
    6.7685   -0.6551    3.0578 N   0  0  0  0  0  0  0  0  0  0  0  0
    2.3300   -1.4459    1.3007 C   0  0  0  0  0  0  0  0  0  0  0  0
   -2.2068   -1.3171   -1.8101 C   0  0  0  0  0  0  0  0  0  0  0  0
   -3.0816   -0.3281   -2.2637 C   0  0  0  0  0  0  0  0  0  0  0  0
   -3.0117    3.2195   -2.1103 H   0  0  0  0  0  0  0  0  0  0  0  0
   -3.9327    3.3507   -0.6044 H   0  0  0  0  0  0  0  0  0  0  0  0
   -4.6651    3.8526   -2.1329 H   0  0  0  0  0  0  0  0  0  0  0  0
   -4.6605    1.5664   -2.9853 H   0  0  0  0  0  0  0  0  0  0  0  0
   -6.3471    0.5377   -1.4660 H   0  0  0  0  0  0  0  0  0  0  0  0
   -5.9408    1.7114   -0.2054 H   0  0  0  0  0  0  0  0  0  0  0  0
   -6.6439    2.2627   -1.7317 H   0  0  0  0  0  0  0  0  0  0  0  0
   -3.6266    1.2978    0.6859 H   0  0  0  0  0  0  0  0  0  0  0  0
   -2.0858   -0.4408    1.4892 H   0  0  0  0  0  0  0  0  0  0  0  0
    1.3199   -2.8574   -0.8018 H   0  0  0  0  0  0  0  0  0  0  0  0
    0.4934    0.5706   -0.7490 H   0  0  0  0  0  0  0  0  0  0  0  0
    1.6230    2.3100    0.6048 H   0  0  0  0  0  0  0  0  0  0  0  0
    3.8885    1.4811    3.1657 H   0  0  0  0  0  0  0  0  0  0  0  0
    7.5289   -1.5270    0.0156 H   0  0  0  0  0  0  0  0  0  0  0  0
    8.6271   -0.6625    2.2108 H   0  0  0  0  0  0  0  0  0  0  0  0
    2.5111   -2.4980    1.5037 H   0  0  0  0  0  0  0  0  0  0  0  0
   -1.8180   -2.0564   -2.5066 H   0  0  0  0  0  0  0  0  0  0  0  0
   -3.3596   -0.3144   -3.3159 H   0  0  0  0  0  0  0  0  0  0  0  0
  1  2  1  0
  2  3  1  0
  2  4  1  0
  4  5  2  0
  5  6  1  0
  6  7  2  0
  7  8  1  0
  8  9  2  0
  8 10  2  0
  8 11  1  0
 11 12  1  0
 12 13  2  0
 13 14  1  0
 14 15  2  0
 15 16  1  0
 15 17  1  0
 17 18  1  0
 18 19  1  0
 19 20  1  0
 20 21  2  0
 21 22  1  0
 22 23  1  0
 17 24  2  0
  7 25  1  0
 25 26  2  0
 26  4  1  0
 24 12  1  0
 23 19  2  0
  1 27  1  0
  1 28  1  0
  1 29  1  0
  2 30  1  0
  3 31  1  0
  3 32  1  0
  3 33  1  0
  5 34  1  0
  6 35  1  0
 11 36  1  0
 13 37  1  0
 14 38  1  0
 16 39  1  0
 21 40  1  0
 22 41  1  0
 24 42  1  0
 25 43  1  0
 26 44  1  0
M  END
$$$$
