
     RDKit          3D

 50 51  0  0  0  0  0  0  0  0999 V2000
   -5.7585   -3.6887   -0.4263 C   0  0  0  0  0  0  0  0  0  0  0  0
   -5.6245   -2.6102    0.4882 O   0  0  0  0  0  0  0  0  0  0  0  0
   -4.4012   -1.9938    0.5738 C   0  0  0  0  0  0  0  0  0  0  0  0
   -3.2930   -2.3236   -0.2124 C   0  0  0  0  0  0  0  0  0  0  0  0
   -2.0850   -1.6386   -0.0549 C   0  0  0  0  0  0  0  0  0  0  0  0
   -1.9717   -0.6263    0.8974 C   0  0  0  0  0  0  0  0  0  0  0  0
   -0.7420    0.0899    1.0623 N   0  0  0  0  0  0  0  0  0  0  0  0
    0.5024   -0.6583    1.3308 C   0  0  0  0  0  0  0  0  0  0  0  0
    1.4486   -0.7717    0.1446 C   0  0  0  0  0  0  0  0  0  0  0  0
    1.2746   -1.6350   -0.7123 O   0  0  0  0  0  0  0  0  0  0  0  0
    2.4415    0.1968    0.1312 N   0  0  0  0  0  0  0  0  0  0  0  0
    3.5549    0.2840   -0.7420 C   0  0  0  0  0  0  0  0  0  0  0  0
    3.9050   -0.7806   -1.5903 C   0  0  0  0  0  0  0  0  0  0  0  0
    5.0165   -0.7114   -2.4351 C   0  0  0  0  0  0  0  0  0  0  0  0
    5.8133    0.4226   -2.4350 C   0  0  0  0  0  0  0  0  0  0  0  0
    5.4830    1.4801   -1.5803 C   0  0  0  0  0  0  0  0  0  0  0  0
    6.3858    2.6178   -1.5915 N   0  0  0  0  0  4  0  0  0  0  0  0
    6.4312    3.2889   -2.6306 O   0  0  0  0  0  0  0  0  0  0  0  0
    7.0558    2.8155   -0.5692 O   0  0  0  0  0  1  0  0  0  0  0  0
    4.3541    1.4530   -0.7306 C   0  0  0  0  0  0  0  0  0  0  0  0
    3.9943    2.6293    0.1427 C   0  0  0  0  0  0  0  0  0  0  0  0
   -0.6449    1.6827    0.5216 S   0  0  0  0  0  6  0  0  0  0  0  0
   -0.6897    1.5125   -1.2545 C   0  0  0  0  0  0  0  0  0  0  0  0
    0.6706    2.1711    0.8942 O   0  0  0  0  0  0  0  0  0  0  0  0
   -1.8329    2.4033    0.9261 O   0  0  0  0  0  0  0  0  0  0  0  0
   -3.0764   -0.2850    1.6802 C   0  0  0  0  0  0  0  0  0  0  0  0
   -4.2944   -0.9560    1.5208 C   0  0  0  0  0  0  0  0  0  0  0  0
   -5.4233   -0.6856    2.2554 O   0  0  0  0  0  0  0  0  0  0  0  0
   -5.4473    0.5374    2.9806 C   0  0  0  0  0  0  0  0  0  0  0  0
   -5.0753   -4.5070   -0.1760 H   0  0  0  0  0  0  0  0  0  0  0  0
   -5.6114   -3.3508   -1.4576 H   0  0  0  0  0  0  0  0  0  0  0  0
   -6.7802   -4.0718   -0.3452 H   0  0  0  0  0  0  0  0  0  0  0  0
   -3.3357   -3.1078   -0.9609 H   0  0  0  0  0  0  0  0  0  0  0  0
   -1.2451   -1.9131   -0.6868 H   0  0  0  0  0  0  0  0  0  0  0  0
    0.2783   -1.6772    1.6708 H   0  0  0  0  0  0  0  0  0  0  0  0
    1.0200   -0.1894    2.1767 H   0  0  0  0  0  0  0  0  0  0  0  0
    2.2648    1.0026    0.7335 H   0  0  0  0  0  0  0  0  0  0  0  0
    3.3321   -1.7037   -1.6105 H   0  0  0  0  0  0  0  0  0  0  0  0
    5.2574   -1.5521   -3.0818 H   0  0  0  0  0  0  0  0  0  0  0  0
    6.6837    0.4753   -3.0851 H   0  0  0  0  0  0  0  0  0  0  0  0
    2.9866    2.9779   -0.1027 H   0  0  0  0  0  0  0  0  0  0  0  0
    4.0416    2.3457    1.1989 H   0  0  0  0  0  0  0  0  0  0  0  0
    4.6488    3.4936    0.0084 H   0  0  0  0  0  0  0  0  0  0  0  0
    0.1384    0.8913   -1.5924 H   0  0  0  0  0  0  0  0  0  0  0  0
   -0.5892    2.5129   -1.6820 H   0  0  0  0  0  0  0  0  0  0  0  0
   -1.6495    1.0867   -1.5505 H   0  0  0  0  0  0  0  0  0  0  0  0
   -2.9636    0.5034    2.4170 H   0  0  0  0  0  0  0  0  0  0  0  0
   -5.2344    1.3931    2.3309 H   0  0  0  0  0  0  0  0  0  0  0  0
   -6.4575    0.6677    3.3815 H   0  0  0  0  0  0  0  0  0  0  0  0
   -4.7568    0.5024    3.8290 H   0  0  0  0  0  0  0  0  0  0  0  0
  1  2  1  0
  2  3  1  0
  3  4  2  0
  4  5  1  0
  5  6  2  0
  6  7  1  0
  7  8  1  0
  8  9  1  0
  9 10  2  0
  9 11  1  0
 11 12  1  0
 12 13  2  0
 13 14  1  0
 14 15  2  0
 15 16  1  0
 16 17  1  0
 17 18  2  0
 17 19  1  0
 16 20  2  0
 20 21  1  0
  7 22  1  0
 22 23  1  0
 22 24  2  0
 22 25  2  0
  6 26  1  0
 26 27  2  0
 27 28  1  0
 28 29  1  0
 27  3  1  0
 20 12  1  0
  1 30  1  0
  1 31  1  0
  1 32  1  0
  4 33  1  0
  5 34  1  0
  8 35  1  0
  8 36  1  0
 11 37  1  0
 13 38  1  0
 14 39  1  0
 15 40  1  0
 21 41  1  0
 21 42  1  0
 21 43  1  0
 23 44  1  0
 23 45  1  0
 23 46  1  0
 26 47  1  0
 29 48  1  0
 29 49  1  0
 29 50  1  0
M  CHG  2  17   1  19  -1
M  END
$$$$
