
     RDKit          3D

 23 23  0  0  0  0  0  0  0  0999 V2000
   -2.0218    0.6366   -1.2980 C   0  0  0  0  0  0  0  0  0  0  0  0
   -1.5165   -0.1062   -0.0855 C   0  0  0  0  0  0  0  0  0  0  0  0
   -0.0667   -0.0966    0.1542 C   0  0  0  0  0  0  0  0  0  0  0  0
    0.8644    0.4701   -0.6313 C   0  0  0  0  0  0  0  0  0  0  0  0
    2.2573    0.4373   -0.3339 C   0  0  0  0  0  0  0  0  0  0  0  0
    2.9701   -0.1162    0.7265 C   0  0  0  0  0  0  0  0  0  0  0  0
    4.3457    0.1473    0.5198 C   0  0  0  0  0  0  0  0  0  0  0  0
    4.4177    0.8489   -0.6543 C   0  0  0  0  0  0  0  0  0  0  0  0
    3.1803    1.0283   -1.1728 O   0  0  0  0  0  0  0  0  0  0  0  0
   -2.2977   -0.7678    0.7936 C   0  0  0  0  0  0  0  0  0  0  0  0
   -3.7624   -0.9288    0.7393 C   0  0  0  0  0  0  0  0  0  0  0  0
   -4.5389   -0.6079   -0.1360 O   0  0  0  0  0  0  0  0  0  0  0  0
   -4.1857   -1.5341    1.8636 O   0  0  0  0  0  0  0  0  0  0  0  0
   -3.1080    0.6841   -1.3725 H   0  0  0  0  0  0  0  0  0  0  0  0
   -1.6567    0.1620   -2.2155 H   0  0  0  0  0  0  0  0  0  0  0  0
   -1.6782    1.6773   -1.2806 H   0  0  0  0  0  0  0  0  0  0  0  0
    0.2555   -0.6090    1.0596 H   0  0  0  0  0  0  0  0  0  0  0  0
    0.5955    0.9862   -1.5473 H   0  0  0  0  0  0  0  0  0  0  0  0
    2.5448   -0.6536    1.5623 H   0  0  0  0  0  0  0  0  0  0  0  0
    5.1767   -0.1389    1.1485 H   0  0  0  0  0  0  0  0  0  0  0  0
    5.2306    1.2715   -1.2279 H   0  0  0  0  0  0  0  0  0  0  0  0
   -1.8505   -1.2647    1.6508 H   0  0  0  0  0  0  0  0  0  0  0  0
   -5.1555   -1.5991    1.7375 H   0  0  0  0  0  0  0  0  0  0  0  0
  1  2  1  0
  2  3  1  0
  3  4  2  3
  4  5  1  0
  5  6  2  0
  6  7  1  0
  7  8  2  0
  8  9  1  0
  2 10  2  3
 10 11  1  0
 11 12  2  0
 11 13  1  0
  9  5  1  0
  1 14  1  0
  1 15  1  0
  1 16  1  0
  3 17  1  0
  4 18  1  0
  6 19  1  0
  7 20  1  0
  8 21  1  0
 10 22  1  0
 13 23  1  0
M  END
$$$$
