
     RDKit          3D

 57 60  0  0  0  0  0  0  0  0999 V2000
    2.3380    0.6405    2.2641 C   0  0  0  0  0  0  0  0  0  0  0  0
    2.4442    0.6350    0.7749 C   0  0  0  0  0  0  0  0  0  0  0  0
    1.5388    1.1629   -0.1249 C   0  0  0  0  0  0  0  0  0  0  0  0
    2.0839    1.0359   -1.4171 C   0  0  0  0  0  0  0  0  0  0  0  0
    1.5151    1.4549   -2.6582 C   0  0  0  0  0  0  0  0  0  0  0  0
    0.2350    1.3460   -3.0527 C   0  0  0  0  0  0  0  0  0  0  0  0
   -0.8406    0.7101   -2.2840 C   0  0  0  0  0  0  0  0  0  0  0  0
   -0.8332   -0.6804   -2.1645 C   0  0  0  0  0  0  0  0  0  0  0  0
   -1.8368   -1.3211   -1.4616 C   0  0  0  0  0  0  0  0  0  0  0  0
   -2.8540   -0.5712   -0.8807 C   0  0  0  0  0  0  0  0  0  0  0  0
   -3.8835   -1.2127   -0.1616 C   0  0  0  0  0  0  0  0  0  0  0  0
   -4.9417   -0.5166    0.4455 C   0  0  0  0  0  0  0  0  0  0  0  0
   -5.9378   -1.1643    1.1703 N   0  0  0  0  0  0  0  0  0  0  0  0
   -7.1337   -0.4348    1.5969 C   0  0  0  0  0  0  0  0  0  0  0  0
   -6.0835   -2.6192    1.0875 C   0  0  0  0  0  0  0  0  0  0  0  0
   -4.9068    0.8768    0.3079 C   0  0  0  0  0  0  0  0  0  0  0  0
   -3.8929    1.5409   -0.4024 C   0  0  0  0  0  0  0  0  0  0  0  0
   -2.8462    0.8360   -1.0125 C   0  0  0  0  0  0  0  0  0  0  0  0
   -1.8353    1.4482   -1.7136 N   0  0  0  0  0  4  0  0  0  0  0  0
   -1.8193    2.9269   -1.8133 C   0  0  0  0  0  0  0  0  0  0  0  0
    3.3215    0.4260   -1.2947 C   0  0  0  0  0  0  0  0  0  0  0  0
    4.2527   -0.0167   -2.3812 C   0  0  0  0  0  0  0  0  0  0  0  0
    3.5561    0.1866    0.0633 N   0  0  0  0  0  0  0  0  0  0  0  0
    4.7283   -0.3991    0.6248 C   0  0  0  0  0  0  0  0  0  0  0  0
    4.6190   -1.3932    1.6048 C   0  0  0  0  0  0  0  0  0  0  0  0
    5.7704   -1.9630    2.1527 C   0  0  0  0  0  0  0  0  0  0  0  0
    7.0297   -1.5417    1.7290 C   0  0  0  0  0  0  0  0  0  0  0  0
    7.1424   -0.5500    0.7561 C   0  0  0  0  0  0  0  0  0  0  0  0
    5.9954    0.0219    0.2016 C   0  0  0  0  0  0  0  0  0  0  0  0
    2.0110   -0.3358    2.6332 H   0  0  0  0  0  0  0  0  0  0  0  0
    1.5949    1.3773    2.5898 H   0  0  0  0  0  0  0  0  0  0  0  0
    3.2858    0.9119    2.7387 H   0  0  0  0  0  0  0  0  0  0  0  0
    0.6043    1.6245    0.1609 H   0  0  0  0  0  0  0  0  0  0  0  0
    2.2150    1.8921   -3.3724 H   0  0  0  0  0  0  0  0  0  0  0  0
   -0.0471    1.7073   -4.0395 H   0  0  0  0  0  0  0  0  0  0  0  0
   -0.0349   -1.2702   -2.6137 H   0  0  0  0  0  0  0  0  0  0  0  0
   -1.8137   -2.4068   -1.3707 H   0  0  0  0  0  0  0  0  0  0  0  0
   -3.8408   -2.2970   -0.0771 H   0  0  0  0  0  0  0  0  0  0  0  0
   -6.8715    0.3926    2.2645 H   0  0  0  0  0  0  0  0  0  0  0  0
   -7.6854   -0.0496    0.7324 H   0  0  0  0  0  0  0  0  0  0  0  0
   -7.8167   -1.0763    2.1650 H   0  0  0  0  0  0  0  0  0  0  0  0
   -5.1843   -3.1258    1.4545 H   0  0  0  0  0  0  0  0  0  0  0  0
   -6.2884   -2.9331    0.0582 H   0  0  0  0  0  0  0  0  0  0  0  0
   -6.9089   -2.9785    1.7122 H   0  0  0  0  0  0  0  0  0  0  0  0
   -5.6789    1.4965    0.7599 H   0  0  0  0  0  0  0  0  0  0  0  0
   -3.9693    2.6232   -0.4452 H   0  0  0  0  0  0  0  0  0  0  0  0
   -2.7341    3.2384   -2.3254 H   0  0  0  0  0  0  0  0  0  0  0  0
   -1.7659    3.3319   -0.7987 H   0  0  0  0  0  0  0  0  0  0  0  0
   -0.9660    3.3018   -2.3764 H   0  0  0  0  0  0  0  0  0  0  0  0
    5.0052    0.7528   -2.5783 H   0  0  0  0  0  0  0  0  0  0  0  0
    4.7521   -0.9585   -2.1345 H   0  0  0  0  0  0  0  0  0  0  0  0
    3.7075   -0.1929   -3.3146 H   0  0  0  0  0  0  0  0  0  0  0  0
    3.6525   -1.7694    1.9263 H   0  0  0  0  0  0  0  0  0  0  0  0
    5.6866   -2.7423    2.9065 H   0  0  0  0  0  0  0  0  0  0  0  0
    7.9248   -1.9852    2.1590 H   0  0  0  0  0  0  0  0  0  0  0  0
    8.1264   -0.2146    0.4363 H   0  0  0  0  0  0  0  0  0  0  0  0
    6.1143    0.8212   -0.5242 H   0  0  0  0  0  0  0  0  0  0  0  0
  1  2  1  0
  2  3  2  0
  3  4  1  0
  4  5  1  0
  5  6  2  3
  6  7  1  0
  7  8  2  0
  8  9  1  0
  9 10  2  0
 10 11  1  0
 11 12  2  0
 12 13  1  0
 13 14  1  0
 13 15  1  0
 12 16  1  0
 16 17  2  0
 17 18  1  0
 18 19  2  0
 19 20  1  0
  4 21  2  0
 21 22  1  0
 21 23  1  0
 23 24  1  0
 24 25  2  0
 25 26  1  0
 26 27  2  0
 27 28  1  0
 28 29  2  0
 23  2  1  0
 29 24  1  0
 19  7  1  0
 18 10  1  0
  1 30  1  0
  1 31  1  0
  1 32  1  0
  3 33  1  0
  5 34  1  0
  6 35  1  0
  8 36  1  0
  9 37  1  0
 11 38  1  0
 14 39  1  0
 14 40  1  0
 14 41  1  0
 15 42  1  0
 15 43  1  0
 15 44  1  0
 16 45  1  0
 17 46  1  0
 20 47  1  0
 20 48  1  0
 20 49  1  0
 22 50  1  0
 22 51  1  0
 22 52  1  0
 25 53  1  0
 26 54  1  0
 27 55  1  0
 28 56  1  0
 29 57  1  0
M  CHG  1  19   1
M  END
$$$$
