
     RDKit          3D

 43 45  0  0  0  0  0  0  0  0999 V2000
   -4.5592    0.8337   -2.0598 C   0  0  0  0  0  0  0  0  0  0  0  0
   -5.1006    0.9118   -0.8357 C   0  0  0  0  0  0  0  0  0  0  0  0
   -4.4873    0.5083    0.4791 C   0  0  0  0  0  0  0  0  0  0  0  0
   -3.1155   -0.0004    0.4078 N   0  0  0  0  0  0  0  0  0  0  0  0
   -1.9672    0.7587    0.5582 C   0  0  0  0  0  0  0  0  0  0  0  0
   -2.0084    2.2382    0.7469 C   0  0  0  0  0  0  0  0  0  0  0  0
   -0.8921   -0.1110    0.4765 C   0  0  0  0  0  0  0  0  0  0  0  0
    0.4725    0.3024    0.5900 C   0  0  0  0  0  0  0  0  0  0  0  0
    1.4713   -0.1423   -0.1912 C   0  0  0  0  0  0  0  0  0  0  0  0
    2.8684    0.2887   -0.0771 C   0  0  0  0  0  0  0  0  0  0  0  0
    3.8830   -0.6422   -0.2937 C   0  0  0  0  0  0  0  0  0  0  0  0
    5.2133   -0.2456   -0.2157 C   0  0  0  0  0  0  0  0  0  0  0  0
    5.5335    1.0400    0.0510 N   0  0  0  0  0  4  0  0  0  0  0  0
    6.9495    1.4351    0.1391 C   0  0  0  0  0  0  0  0  0  0  0  0
    4.5677    1.9631    0.2552 C   0  0  0  0  0  0  0  0  0  0  0  0
    3.2244    1.6100    0.1887 C   0  0  0  0  0  0  0  0  0  0  0  0
   -1.3981   -1.4336    0.2866 C   0  0  0  0  0  0  0  0  0  0  0  0
   -0.8108   -2.7146    0.1718 C   0  0  0  0  0  0  0  0  0  0  0  0
   -1.6172   -3.8401   -0.0254 C   0  0  0  0  0  0  0  0  0  0  0  0
   -2.9979   -3.7105   -0.1055 C   0  0  0  0  0  0  0  0  0  0  0  0
   -3.6079   -2.4603    0.0214 C   0  0  0  0  0  0  0  0  0  0  0  0
   -2.7905   -1.3347    0.2278 C   0  0  0  0  0  0  0  0  0  0  0  0
   -5.1172    1.1579   -2.9337 H   0  0  0  0  0  0  0  0  0  0  0  0
   -3.5607    0.4424   -2.2314 H   0  0  0  0  0  0  0  0  0  0  0  0
   -6.1111    1.3103   -0.7569 H   0  0  0  0  0  0  0  0  0  0  0  0
   -4.4877    1.3641    1.1626 H   0  0  0  0  0  0  0  0  0  0  0  0
   -5.1024   -0.2641    0.9536 H   0  0  0  0  0  0  0  0  0  0  0  0
   -2.6668    2.7110    0.0115 H   0  0  0  0  0  0  0  0  0  0  0  0
   -1.0182    2.6881    0.6275 H   0  0  0  0  0  0  0  0  0  0  0  0
   -2.3691    2.4833    1.7509 H   0  0  0  0  0  0  0  0  0  0  0  0
    0.6750    1.0410    1.3617 H   0  0  0  0  0  0  0  0  0  0  0  0
    1.2581   -0.8737   -0.9696 H   0  0  0  0  0  0  0  0  0  0  0  0
    3.6458   -1.6819   -0.5134 H   0  0  0  0  0  0  0  0  0  0  0  0
    6.0274   -0.9494   -0.3654 H   0  0  0  0  0  0  0  0  0  0  0  0
    7.0507    2.4780   -0.1721 H   0  0  0  0  0  0  0  0  0  0  0  0
    7.5409    0.8007   -0.5262 H   0  0  0  0  0  0  0  0  0  0  0  0
    7.2607    1.3065    1.1787 H   0  0  0  0  0  0  0  0  0  0  0  0
    4.8787    2.9821    0.4675 H   0  0  0  0  0  0  0  0  0  0  0  0
    2.4649    2.3756    0.3351 H   0  0  0  0  0  0  0  0  0  0  0  0
    0.2646   -2.8366    0.2432 H   0  0  0  0  0  0  0  0  0  0  0  0
   -1.1615   -4.8230   -0.1149 H   0  0  0  0  0  0  0  0  0  0  0  0
   -3.6148   -4.5925   -0.2630 H   0  0  0  0  0  0  0  0  0  0  0  0
   -4.6884   -2.3748   -0.0415 H   0  0  0  0  0  0  0  0  0  0  0  0
  1  2  2  0
  2  3  1  0
  3  4  1  0
  4  5  1  0
  5  6  1  0
  5  7  2  0
  7  8  1  0
  8  9  2  3
  9 10  1  0
 10 11  2  0
 11 12  1  0
 12 13  2  0
 13 14  1  0
 13 15  1  0
 15 16  2  0
  7 17  1  0
 17 18  2  0
 18 19  1  0
 19 20  2  0
 20 21  1  0
 21 22  2  0
 22  4  1  0
 16 10  1  0
 22 17  1  0
  1 23  1  0
  1 24  1  0
  2 25  1  0
  3 26  1  0
  3 27  1  0
  6 28  1  0
  6 29  1  0
  6 30  1  0
  8 31  1  0
  9 32  1  0
 11 33  1  0
 12 34  1  0
 14 35  1  0
 14 36  1  0
 14 37  1  0
 15 38  1  0
 16 39  1  0
 18 40  1  0
 19 41  1  0
 20 42  1  0
 21 43  1  0
M  CHG  1  13   1
M  END
$$$$
