
     RDKit          3D

 49 52  0  0  0  0  0  0  0  0999 V2000
   -2.1859    5.0619   -2.3150 C   0  0  0  0  0  0  0  0  0  0  0  0
   -1.9749    3.6242   -1.9410 C   0  0  0  0  0  0  0  0  0  0  0  0
   -0.7326    3.0146   -2.1473 C   0  0  0  0  0  0  0  0  0  0  0  0
   -0.5389    1.6674   -1.8297 C   0  0  0  0  0  0  0  0  0  0  0  0
   -1.5964    0.9108   -1.3129 C   0  0  0  0  0  0  0  0  0  0  0  0
   -1.4134   -0.4627   -1.0065 N   0  0  0  0  0  0  0  0  0  0  0  0
   -2.2571   -1.5233   -1.3279 C   0  0  0  0  0  0  0  0  0  0  0  0
   -3.4821   -1.4532   -2.1850 C   0  0  0  0  0  0  0  0  0  0  0  0
   -4.7688   -1.4779   -1.4034 C   0  0  0  0  0  0  0  0  0  0  0  0
   -5.0795   -2.1757   -0.2504 C   0  0  0  0  0  0  0  0  0  0  0  0
   -6.4180   -1.9482    0.1815 C   0  0  0  0  0  0  0  0  0  0  0  0
   -7.0958   -1.1022   -0.6652 C   0  0  0  0  0  0  0  0  0  0  0  0
   -6.1216   -0.5840   -1.9697 S   0  0  0  0  0  0  0  0  0  0  0  0
   -1.7330   -2.6522   -0.8837 N   0  0  0  0  0  0  0  0  0  0  0  0
   -0.5486   -2.3673   -0.2716 N   0  0  0  0  0  0  0  0  0  0  0  0
   -0.3571   -1.0713   -0.3470 C   0  0  0  0  0  0  0  0  0  0  0  0
    0.9680   -0.2505    0.4164 S   0  0  0  0  0  0  0  0  0  0  0  0
    1.4501   -1.5018    1.6433 C   0  0  0  0  0  0  0  0  0  0  0  0
    2.6957   -1.0327    2.3758 C   0  0  0  0  0  0  0  0  0  0  0  0
    2.6196   -0.4931    3.4753 O   0  0  0  0  0  0  0  0  0  0  0  0
    3.8629   -1.2907    1.6694 N   0  0  0  0  0  0  0  0  0  0  0  0
    5.1867   -1.0131    2.0664 C   0  0  0  0  0  0  0  0  0  0  0  0
    6.2059   -1.3464    1.1589 C   0  0  0  0  0  0  0  0  0  0  0  0
    7.5480   -1.1101    1.4717 C   0  0  0  0  0  0  0  0  0  0  0  0
    7.8732   -0.5404    2.6950 C   0  0  0  0  0  0  0  0  0  0  0  0
    9.1594   -0.3145    2.9944 F   0  0  0  0  0  0  0  0  0  0  0  0
    6.8723   -0.2081    3.5983 C   0  0  0  0  0  0  0  0  0  0  0  0
    7.1913    0.3384    4.7796 F   0  0  0  0  0  0  0  0  0  0  0  0
    5.5320   -0.4407    3.2930 C   0  0  0  0  0  0  0  0  0  0  0  0
   -2.8421    1.5137   -1.1103 C   0  0  0  0  0  0  0  0  0  0  0  0
   -3.0294    2.8611   -1.4297 C   0  0  0  0  0  0  0  0  0  0  0  0
   -1.2726    5.6447   -2.1558 H   0  0  0  0  0  0  0  0  0  0  0  0
   -2.4741    5.1356   -3.3677 H   0  0  0  0  0  0  0  0  0  0  0  0
   -2.9705    5.5159   -1.7015 H   0  0  0  0  0  0  0  0  0  0  0  0
    0.0945    3.5868   -2.5636 H   0  0  0  0  0  0  0  0  0  0  0  0
    0.4341    1.2280   -2.0359 H   0  0  0  0  0  0  0  0  0  0  0  0
   -3.4805   -2.3296   -2.8477 H   0  0  0  0  0  0  0  0  0  0  0  0
   -3.4365   -0.5846   -2.8516 H   0  0  0  0  0  0  0  0  0  0  0  0
   -4.3772   -2.8235    0.2638 H   0  0  0  0  0  0  0  0  0  0  0  0
   -6.8628   -2.3937    1.0628 H   0  0  0  0  0  0  0  0  0  0  0  0
   -8.1211   -0.7675   -0.5853 H   0  0  0  0  0  0  0  0  0  0  0  0
    0.6461   -1.6513    2.3719 H   0  0  0  0  0  0  0  0  0  0  0  0
    1.6584   -2.4638    1.1618 H   0  0  0  0  0  0  0  0  0  0  0  0
    3.7475   -1.6959    0.7477 H   0  0  0  0  0  0  0  0  0  0  0  0
    5.9705   -1.7941    0.1960 H   0  0  0  0  0  0  0  0  0  0  0  0
    8.3364   -1.3652    0.7712 H   0  0  0  0  0  0  0  0  0  0  0  0
    4.7945   -0.1641    4.0374 H   0  0  0  0  0  0  0  0  0  0  0  0
   -3.6721    0.9758   -0.6612 H   0  0  0  0  0  0  0  0  0  0  0  0
   -4.0047    3.3147   -1.2651 H   0  0  0  0  0  0  0  0  0  0  0  0
  1  2  1  0
  2  3  2  0
  3  4  1  0
  4  5  2  0
  5  6  1  0
  6  7  1  0
  7  8  1  0
  8  9  1  0
  9 10  2  0
 10 11  1  0
 11 12  2  0
 12 13  1  0
  7 14  2  0
 14 15  1  0
 15 16  2  0
 16 17  1  0
 17 18  1  0
 18 19  1  0
 19 20  2  0
 19 21  1  0
 21 22  1  0
 22 23  2  0
 23 24  1  0
 24 25  2  0
 25 26  1  0
 25 27  1  0
 27 28  1  0
 27 29  2  0
  5 30  1  0
 30 31  2  0
 31  2  1  0
 16  6  1  0
 29 22  1  0
 13  9  1  0
  1 32  1  0
  1 33  1  0
  1 34  1  0
  3 35  1  0
  4 36  1  0
  8 37  1  0
  8 38  1  0
 10 39  1  0
 11 40  1  0
 12 41  1  0
 18 42  1  0
 18 43  1  0
 21 44  1  0
 23 45  1  0
 24 46  1  0
 29 47  1  0
 30 48  1  0
 31 49  1  0
M  END
$$$$
