
     RDKit          3D

 28 28  0  0  0  0  0  0  0  0999 V2000
   -3.0456   -0.3205    0.6736 C   0  0  0  0  0  0  0  0  0  0  0  0
   -1.8390   -0.2122   -0.2688 C   0  0  0  0  0  0  0  0  0  0  0  0
   -2.3590    0.0672   -1.6909 C   0  0  0  0  0  0  0  0  0  0  0  0
   -1.0560   -1.5303   -0.2814 C   0  0  0  0  0  0  0  0  0  0  0  0
   -0.9031    0.9375    0.1746 C   0  0  0  0  0  0  0  0  0  0  0  0
   -0.5010    1.7682   -0.6450 O   0  0  0  0  0  0  0  0  0  0  0  0
   -0.5400    1.0124    1.6558 C   0  0  0  0  0  0  0  0  0  0  0  0
    0.9325    2.0197    1.9864 S   0  0  0  0  0  0  0  0  0  0  0  0
    2.1557    1.0744    1.1147 C   0  0  0  0  0  0  0  0  0  0  0  0
    3.2914    1.7157    0.7920 N   0  0  0  0  0  0  0  0  0  0  0  0
    4.2261    0.9946    0.1483 C   0  0  0  0  0  0  0  0  0  0  0  0
    4.0755   -0.3342   -0.1642 C   0  0  0  0  0  0  0  0  0  0  0  0
    2.8876   -0.9017    0.2287 C   0  0  0  0  0  0  0  0  0  0  0  0
    1.9154   -0.2281    0.8725 N   0  0  0  0  0  0  0  0  0  0  0  0
   -3.7649   -1.0647    0.3135 H   0  0  0  0  0  0  0  0  0  0  0  0
   -2.7474   -0.6209    1.6839 H   0  0  0  0  0  0  0  0  0  0  0  0
   -3.5670    0.6398    0.7575 H   0  0  0  0  0  0  0  0  0  0  0  0
   -2.9035    1.0177   -1.7331 H   0  0  0  0  0  0  0  0  0  0  0  0
   -1.5361    0.1282   -2.4126 H   0  0  0  0  0  0  0  0  0  0  0  0
   -3.0381   -0.7234   -2.0296 H   0  0  0  0  0  0  0  0  0  0  0  0
   -0.7049   -1.8053    0.7185 H   0  0  0  0  0  0  0  0  0  0  0  0
   -0.1748   -1.4583   -0.9287 H   0  0  0  0  0  0  0  0  0  0  0  0
   -1.6758   -2.3556   -0.6498 H   0  0  0  0  0  0  0  0  0  0  0  0
   -1.3824    1.4728    2.1811 H   0  0  0  0  0  0  0  0  0  0  0  0
   -0.3902    0.0122    2.0688 H   0  0  0  0  0  0  0  0  0  0  0  0
    5.1290    1.5376   -0.1155 H   0  0  0  0  0  0  0  0  0  0  0  0
    4.8406   -0.8944   -0.6827 H   0  0  0  0  0  0  0  0  0  0  0  0
    2.6751   -1.9483    0.0309 H   0  0  0  0  0  0  0  0  0  0  0  0
  1  2  1  0
  2  3  1  0
  2  4  1  0
  2  5  1  0
  5  6  2  0
  5  7  1  0
  7  8  1  0
  8  9  1  0
  9 10  2  0
 10 11  1  0
 11 12  2  0
 12 13  1  0
 13 14  2  0
 14  9  1  0
  1 15  1  0
  1 16  1  0
  1 17  1  0
  3 18  1  0
  3 19  1  0
  3 20  1  0
  4 21  1  0
  4 22  1  0
  4 23  1  0
  7 24  1  0
  7 25  1  0
 11 26  1  0
 12 27  1  0
 13 28  1  0
M  END
$$$$
