
     RDKit          3D

 44 46  0  0  0  0  0  0  0  0999 V2000
    8.4473   -2.8362    0.0834 C   0  0  0  0  0  0  0  0  0  0  0  0
    7.1311   -2.1710    0.3605 C   0  0  0  0  0  0  0  0  0  0  0  0
    6.3181   -2.6175    1.4098 C   0  0  0  0  0  0  0  0  0  0  0  0
    5.1061   -1.9793    1.6906 C   0  0  0  0  0  0  0  0  0  0  0  0
    4.6970   -0.8824    0.9230 C   0  0  0  0  0  0  0  0  0  0  0  0
    3.4163   -0.1687    1.1857 C   0  0  0  0  0  0  0  0  0  0  0  0
    3.2707    0.9991    0.8421 O   0  0  0  0  0  0  0  0  0  0  0  0
    2.4140   -0.9055    1.7853 N   0  0  0  0  0  0  0  0  0  0  0  0
    1.0760   -0.3434    1.8938 C   0  0  0  0  0  0  0  0  0  0  0  0
    0.2724   -0.6375    0.6343 C   0  0  0  0  0  0  0  0  0  0  0  0
    0.4602   -1.6009   -0.1002 O   0  0  0  0  0  0  0  0  0  0  0  0
   -0.7155    0.2830    0.4789 O   0  0  0  0  0  0  0  0  0  0  0  0
   -1.5238    0.0668   -0.6852 C   0  0  0  0  0  0  0  0  0  0  0  0
   -2.5424    1.1536   -0.8281 C   0  0  0  0  0  0  0  0  0  0  0  0
   -2.2842    2.5027   -0.9658 C   0  0  0  0  0  0  0  0  0  0  0  0
   -3.7494    3.3718   -1.0968 S   0  0  0  0  0  0  0  0  0  0  0  0
   -4.6447    1.9023   -0.9624 C   0  0  0  0  0  0  0  0  0  0  0  0
   -6.1232    1.8715   -0.9982 C   0  0  0  0  0  0  0  0  0  0  0  0
   -6.9240    3.0208   -1.1089 C   0  0  0  0  0  0  0  0  0  0  0  0
   -8.3205    2.9277   -1.1375 C   0  0  0  0  0  0  0  0  0  0  0  0
   -8.9419    1.6848   -1.0558 C   0  0  0  0  0  0  0  0  0  0  0  0
   -8.1698    0.5330   -0.9450 C   0  0  0  0  0  0  0  0  0  0  0  0
   -6.7754    0.6276   -0.9164 C   0  0  0  0  0  0  0  0  0  0  0  0
   -3.8907    0.8245   -0.8306 N   0  0  0  0  0  0  0  0  0  0  0  0
    5.5216   -0.4153   -0.1065 C   0  0  0  0  0  0  0  0  0  0  0  0
    6.7314   -1.0558   -0.3853 C   0  0  0  0  0  0  0  0  0  0  0  0
    9.2371   -2.3639    0.6755 H   0  0  0  0  0  0  0  0  0  0  0  0
    8.7068   -2.7614   -0.9778 H   0  0  0  0  0  0  0  0  0  0  0  0
    8.4063   -3.9017    0.3330 H   0  0  0  0  0  0  0  0  0  0  0  0
    6.6286   -3.4627    2.0209 H   0  0  0  0  0  0  0  0  0  0  0  0
    4.5106   -2.3334    2.5270 H   0  0  0  0  0  0  0  0  0  0  0  0
    2.4679   -1.9128    1.6942 H   0  0  0  0  0  0  0  0  0  0  0  0
    1.1404    0.7371    2.0538 H   0  0  0  0  0  0  0  0  0  0  0  0
    0.5788   -0.8172    2.7445 H   0  0  0  0  0  0  0  0  0  0  0  0
   -0.8896    0.0570   -1.5804 H   0  0  0  0  0  0  0  0  0  0  0  0
   -2.0317   -0.9011   -0.5963 H   0  0  0  0  0  0  0  0  0  0  0  0
   -1.3261    3.0026   -0.9894 H   0  0  0  0  0  0  0  0  0  0  0  0
   -6.4839    4.0124   -1.1742 H   0  0  0  0  0  0  0  0  0  0  0  0
   -8.9212    3.8299   -1.2237 H   0  0  0  0  0  0  0  0  0  0  0  0
  -10.0263    1.6142   -1.0783 H   0  0  0  0  0  0  0  0  0  0  0  0
   -8.6477   -0.4411   -0.8805 H   0  0  0  0  0  0  0  0  0  0  0  0
   -6.1902   -0.2871   -0.8290 H   0  0  0  0  0  0  0  0  0  0  0  0
    5.2235    0.4496   -0.6958 H   0  0  0  0  0  0  0  0  0  0  0  0
    7.3599   -0.6758   -1.1881 H   0  0  0  0  0  0  0  0  0  0  0  0
  1  2  1  0
  2  3  2  0
  3  4  1  0
  4  5  2  0
  5  6  1  0
  6  7  2  0
  6  8  1  0
  8  9  1  0
  9 10  1  0
 10 11  2  0
 10 12  1  0
 12 13  1  0
 13 14  1  0
 14 15  2  0
 15 16  1  0
 16 17  1  0
 17 18  1  0
 18 19  2  0
 19 20  1  0
 20 21  2  0
 21 22  1  0
 22 23  2  0
 17 24  2  0
  5 25  1  0
 25 26  2  0
 26  2  1  0
 24 14  1  0
 23 18  1  0
  1 27  1  0
  1 28  1  0
  1 29  1  0
  3 30  1  0
  4 31  1  0
  8 32  1  0
  9 33  1  0
  9 34  1  0
 13 35  1  0
 13 36  1  0
 15 37  1  0
 19 38  1  0
 20 39  1  0
 21 40  1  0
 22 41  1  0
 23 42  1  0
 25 43  1  0
 26 44  1  0
M  END
$$$$
