
     RDKit          3D

 57 59  0  0  0  0  0  0  0  0999 V2000
    7.7488   -2.7472   -3.4166 C   0  0  0  0  0  0  0  0  0  0  0  0
    7.6329   -3.5582   -2.2542 O   0  0  0  0  0  0  0  0  0  0  0  0
    7.0072   -2.9998   -1.1741 C   0  0  0  0  0  0  0  0  0  0  0  0
    6.5239   -1.6946   -1.0875 C   0  0  0  0  0  0  0  0  0  0  0  0
    5.9069   -1.2486    0.0864 C   0  0  0  0  0  0  0  0  0  0  0  0
    5.7684   -2.1000    1.1913 C   0  0  0  0  0  0  0  0  0  0  0  0
    5.0897   -1.6145    2.4434 C   0  0  0  0  0  0  0  0  0  0  0  0
    3.6628   -1.5676    2.2647 N   0  0  0  0  0  0  0  0  0  0  0  0
    2.9517   -0.3923    2.2420 C   0  0  0  0  0  0  0  0  0  0  0  0
    3.3927    0.7316    2.4407 O   0  0  0  0  0  0  0  0  0  0  0  0
    1.4476   -0.5896    1.9514 C   0  0  0  0  0  0  0  0  0  0  0  0
    1.0388   -1.6647    1.5398 O   0  0  0  0  0  0  0  0  0  0  0  0
    0.6842    0.5198    2.2352 N   0  0  0  0  0  0  0  0  0  0  0  0
   -0.7367    0.5838    1.9394 C   0  0  0  0  0  0  0  0  0  0  0  0
   -1.0534    1.3122    0.6039 C   0  0  0  0  0  0  0  0  0  0  0  0
   -0.3088    0.7302   -0.4803 O   0  0  0  0  0  0  0  0  0  0  0  0
   -1.1089   -0.3440   -0.9814 C   0  0  0  0  0  0  0  0  0  0  0  0
   -2.5486    0.0860   -0.7658 C   0  0  0  0  0  0  0  0  0  0  0  0
   -2.4542    1.2210    0.1661 N   0  0  0  0  0  0  0  0  0  0  0  0
   -3.6507    1.4386    1.3146 S   0  0  0  0  0  6  0  0  0  0  0  0
   -3.3366    2.6437    2.0534 O   0  0  0  0  0  0  0  0  0  0  0  0
   -3.8451    0.1745    1.9919 O   0  0  0  0  0  0  0  0  0  0  0  0
   -5.0792    1.7719    0.3160 C   0  0  0  0  0  0  0  0  0  0  0  0
   -5.2370    3.0419   -0.2423 C   0  0  0  0  0  0  0  0  0  0  0  0
   -6.3635    3.3213   -1.0228 C   0  0  0  0  0  0  0  0  0  0  0  0
   -7.3347    2.3388   -1.2306 C   0  0  0  0  0  0  0  0  0  0  0  0
   -8.4786    2.4851   -1.9659 O   0  0  0  0  0  0  0  0  0  0  0  0
   -8.7931    3.8030   -2.4002 C   0  0  0  0  0  0  0  0  0  0  0  0
   -7.1648    1.0712   -0.6637 C   0  0  0  0  0  0  0  0  0  0  0  0
   -6.0431    0.7828    0.1160 C   0  0  0  0  0  0  0  0  0  0  0  0
    6.2502   -3.4113    1.0966 C   0  0  0  0  0  0  0  0  0  0  0  0
    6.8670   -3.8528   -0.0770 C   0  0  0  0  0  0  0  0  0  0  0  0
    6.7618   -2.4607   -3.7963 H   0  0  0  0  0  0  0  0  0  0  0  0
    8.3686   -1.8665   -3.2227 H   0  0  0  0  0  0  0  0  0  0  0  0
    8.2456   -3.3407   -4.1910 H   0  0  0  0  0  0  0  0  0  0  0  0
    6.6117   -0.9951   -1.9121 H   0  0  0  0  0  0  0  0  0  0  0  0
    5.5305   -0.2276    0.1365 H   0  0  0  0  0  0  0  0  0  0  0  0
    5.2872   -2.2962    3.2762 H   0  0  0  0  0  0  0  0  0  0  0  0
    5.4812   -0.6328    2.7279 H   0  0  0  0  0  0  0  0  0  0  0  0
    3.1633   -2.4083    1.9900 H   0  0  0  0  0  0  0  0  0  0  0  0
    1.1901    1.3567    2.5092 H   0  0  0  0  0  0  0  0  0  0  0  0
   -1.2010    1.0996    2.7837 H   0  0  0  0  0  0  0  0  0  0  0  0
   -1.1292   -0.4401    1.9202 H   0  0  0  0  0  0  0  0  0  0  0  0
   -0.7494    2.3614    0.6708 H   0  0  0  0  0  0  0  0  0  0  0  0
   -0.8739   -1.2532   -0.4223 H   0  0  0  0  0  0  0  0  0  0  0  0
   -0.8790   -0.5183   -2.0362 H   0  0  0  0  0  0  0  0  0  0  0  0
   -2.9957    0.4306   -1.7025 H   0  0  0  0  0  0  0  0  0  0  0  0
   -3.1417   -0.7494   -0.3817 H   0  0  0  0  0  0  0  0  0  0  0  0
   -4.4891    3.8142   -0.0797 H   0  0  0  0  0  0  0  0  0  0  0  0
   -6.4517    4.3111   -1.4591 H   0  0  0  0  0  0  0  0  0  0  0  0
   -8.8543    4.4951   -1.5523 H   0  0  0  0  0  0  0  0  0  0  0  0
   -9.7776    3.7714   -2.8781 H   0  0  0  0  0  0  0  0  0  0  0  0
   -8.0709    4.1534   -3.1461 H   0  0  0  0  0  0  0  0  0  0  0  0
   -7.9199    0.3046   -0.8247 H   0  0  0  0  0  0  0  0  0  0  0  0
   -5.9350   -0.2091    0.5524 H   0  0  0  0  0  0  0  0  0  0  0  0
    6.1507   -4.1003    1.9325 H   0  0  0  0  0  0  0  0  0  0  0  0
    7.2420   -4.8719   -0.1391 H   0  0  0  0  0  0  0  0  0  0  0  0
  1  2  1  0
  2  3  1  0
  3  4  2  0
  4  5  1  0
  5  6  2  0
  6  7  1  0
  7  8  1  0
  8  9  1  0
  9 10  2  0
  9 11  1  0
 11 12  2  0
 11 13  1  0
 13 14  1  0
 14 15  1  0
 15 16  1  0
 16 17  1  0
 17 18  1  0
 18 19  1  0
 19 20  1  0
 20 21  2  0
 20 22  2  0
 20 23  1  0
 23 24  2  0
 24 25  1  0
 25 26  2  0
 26 27  1  0
 27 28  1  0
 26 29  1  0
 29 30  2  0
  6 31  1  0
 31 32  2  0
 32  3  1  0
 19 15  1  0
 30 23  1  0
  1 33  1  0
  1 34  1  0
  1 35  1  0
  4 36  1  0
  5 37  1  0
  7 38  1  0
  7 39  1  0
  8 40  1  0
 13 41  1  0
 14 42  1  0
 14 43  1  0
 15 44  1  0
 17 45  1  0
 17 46  1  0
 18 47  1  0
 18 48  1  0
 24 49  1  0
 25 50  1  0
 28 51  1  0
 28 52  1  0
 28 53  1  0
 29 54  1  0
 30 55  1  0
 31 56  1  0
 32 57  1  0
M  END
$$$$
