
     RDKit          3D

 36 35  0  0  0  0  0  0  0  0999 V2000
    3.5558   -1.5119   -3.3502 C   0  0  0  0  0  0  0  0  0  0  0  0
    2.4744   -1.9967   -2.3932 C   0  0  0  0  0  0  0  0  0  0  0  0
    2.2963   -1.0997   -1.2344 N   0  0  0  0  0  0  0  0  0  0  0  0
    3.2403   -1.3296   -0.1227 C   0  0  0  0  0  0  0  0  0  0  0  0
    2.9071   -2.5685    0.6976 C   0  0  0  0  0  0  0  0  0  0  0  0
    1.3729   -0.0312   -1.2798 C   0  0  0  0  0  0  0  0  0  0  0  0
    0.4946    0.4441   -2.6442 S   0  0  0  0  0  0  0  0  0  0  0  0
    1.1546    0.9513    0.1814 S   0  0  0  0  0  0  0  0  0  0  0  0
   -0.0023   -0.2545    1.3860 S   0  0  0  0  0  0  0  0  0  0  0  0
   -1.6157   -0.1179    0.6603 C   0  0  0  0  0  0  0  0  0  0  0  0
   -2.1655   -1.4598   -0.2092 S   0  0  0  0  0  0  0  0  0  0  0  0
   -2.3567    1.0618    0.8962 N   0  0  0  0  0  0  0  0  0  0  0  0
   -1.9689    2.0998    1.8718 C   0  0  0  0  0  0  0  0  0  0  0  0
   -1.5299    3.4023    1.2162 C   0  0  0  0  0  0  0  0  0  0  0  0
   -3.6746    1.2676    0.2640 C   0  0  0  0  0  0  0  0  0  0  0  0
   -4.8235    0.7477    1.1185 C   0  0  0  0  0  0  0  0  0  0  0  0
    3.6355   -2.1924   -4.2037 H   0  0  0  0  0  0  0  0  0  0  0  0
    4.5329   -1.4737   -2.8587 H   0  0  0  0  0  0  0  0  0  0  0  0
    3.3398   -0.5102   -3.7327 H   0  0  0  0  0  0  0  0  0  0  0  0
    2.7303   -2.9975   -2.0314 H   0  0  0  0  0  0  0  0  0  0  0  0
    1.5289   -2.1099   -2.9320 H   0  0  0  0  0  0  0  0  0  0  0  0
    4.2439   -1.4364   -0.5498 H   0  0  0  0  0  0  0  0  0  0  0  0
    3.2983   -0.4647    0.5403 H   0  0  0  0  0  0  0  0  0  0  0  0
    3.0225   -3.4835    0.1091 H   0  0  0  0  0  0  0  0  0  0  0  0
    3.5819   -2.6427    1.5564 H   0  0  0  0  0  0  0  0  0  0  0  0
    1.8804   -2.5461    1.0694 H   0  0  0  0  0  0  0  0  0  0  0  0
   -2.8318    2.2925    2.5193 H   0  0  0  0  0  0  0  0  0  0  0  0
   -1.1792    1.7494    2.5385 H   0  0  0  0  0  0  0  0  0  0  0  0
   -1.1693    4.1023    1.9766 H   0  0  0  0  0  0  0  0  0  0  0  0
   -2.3578    3.8866    0.6901 H   0  0  0  0  0  0  0  0  0  0  0  0
   -0.7297    3.2426    0.4903 H   0  0  0  0  0  0  0  0  0  0  0  0
   -3.7006    0.7888   -0.7194 H   0  0  0  0  0  0  0  0  0  0  0  0
   -3.8152    2.3367    0.0760 H   0  0  0  0  0  0  0  0  0  0  0  0
   -4.8760    1.2750    2.0760 H   0  0  0  0  0  0  0  0  0  0  0  0
   -5.7758    0.8975    0.6000 H   0  0  0  0  0  0  0  0  0  0  0  0
   -4.7179   -0.3192    1.3349 H   0  0  0  0  0  0  0  0  0  0  0  0
  1  2  1  0
  2  3  1  0
  3  4  1  0
  4  5  1  0
  3  6  1  0
  6  7  2  0
  6  8  1  0
  8  9  1  0
  9 10  1  0
 10 11  2  0
 10 12  1  0
 12 13  1  0
 13 14  1  0
 12 15  1  0
 15 16  1  0
  1 17  1  0
  1 18  1  0
  1 19  1  0
  2 20  1  0
  2 21  1  0
  4 22  1  0
  4 23  1  0
  5 24  1  0
  5 25  1  0
  5 26  1  0
 13 27  1  0
 13 28  1  0
 14 29  1  0
 14 30  1  0
 14 31  1  0
 15 32  1  0
 15 33  1  0
 16 34  1  0
 16 35  1  0
 16 36  1  0
M  END
$$$$
