
     RDKit          3D

 50 52  0  0  0  0  0  0  0  0999 V2000
    3.0091   -2.0162   -2.8270 C   0  0  0  0  0  0  0  0  0  0  0  0
    2.9789   -1.8878   -1.3134 C   0  0  0  0  0  0  0  0  0  0  0  0
    2.9211   -0.4827   -0.8851 N   0  0  0  0  0  4  0  0  0  0  0  0
    1.7804    0.1486   -0.6191 C   0  0  0  0  0  0  0  0  0  0  0  0
    0.4696   -0.3851   -0.7745 C   0  0  0  0  0  0  0  0  0  0  0  0
   -0.5788   -0.0125   -0.0208 C   0  0  0  0  0  0  0  0  0  0  0  0
   -1.9010   -0.5750   -0.2193 C   0  0  0  0  0  0  0  0  0  0  0  0
   -2.9848   -0.1659    0.4593 C   0  0  0  0  0  0  0  0  0  0  0  0
   -4.3029   -0.6282    0.3168 N   0  0  0  0  0  0  0  0  0  0  0  0
   -4.6809   -1.4629   -0.7605 C   0  0  0  0  0  0  0  0  0  0  0  0
   -5.9099   -2.3307   -0.5670 C   0  0  0  0  0  0  0  0  0  0  0  0
   -4.0473   -1.5751   -1.8151 O   0  0  0  0  0  0  0  0  0  0  0  0
   -5.2977   -0.1319    1.2365 C   0  0  0  0  0  0  0  0  0  0  0  0
   -5.0157   -0.0399    2.6091 C   0  0  0  0  0  0  0  0  0  0  0  0
   -5.9688    0.4560    3.5026 C   0  0  0  0  0  0  0  0  0  0  0  0
   -7.2097    0.8800    3.0345 C   0  0  0  0  0  0  0  0  0  0  0  0
   -7.4975    0.8137    1.6738 C   0  0  0  0  0  0  0  0  0  0  0  0
   -6.5465    0.3149    0.7793 C   0  0  0  0  0  0  0  0  0  0  0  0
    2.0967    1.7598   -0.1020 S   0  0  0  0  0  0  0  0  0  0  0  0
    3.7938    1.5643   -0.2611 C   0  0  0  0  0  0  0  0  0  0  0  0
    4.8123    2.4962   -0.0105 C   0  0  0  0  0  0  0  0  0  0  0  0
    6.1428    2.1157   -0.2167 C   0  0  0  0  0  0  0  0  0  0  0  0
    7.0508    3.0987    0.0573 O   0  0  0  0  0  0  0  0  0  0  0  0
    8.4290    2.7969   -0.1330 C   0  0  0  0  0  0  0  0  0  0  0  0
    6.4393    0.8318   -0.6641 C   0  0  0  0  0  0  0  0  0  0  0  0
    5.4163   -0.0986   -0.9128 C   0  0  0  0  0  0  0  0  0  0  0  0
    4.0733    0.2771   -0.7042 C   0  0  0  0  0  0  0  0  0  0  0  0
    3.8841   -1.5116   -3.2480 H   0  0  0  0  0  0  0  0  0  0  0  0
    3.0478   -3.0698   -3.1194 H   0  0  0  0  0  0  0  0  0  0  0  0
    2.1191   -1.5668   -3.2782 H   0  0  0  0  0  0  0  0  0  0  0  0
    2.1256   -2.4405   -0.9046 H   0  0  0  0  0  0  0  0  0  0  0  0
    3.8630   -2.3648   -0.8760 H   0  0  0  0  0  0  0  0  0  0  0  0
    0.3079   -1.1311   -1.5496 H   0  0  0  0  0  0  0  0  0  0  0  0
   -0.4868    0.7320    0.7687 H   0  0  0  0  0  0  0  0  0  0  0  0
   -1.9819   -1.3609   -0.9652 H   0  0  0  0  0  0  0  0  0  0  0  0
   -2.8641    0.6183    1.2051 H   0  0  0  0  0  0  0  0  0  0  0  0
   -6.7734   -1.8752   -1.0567 H   0  0  0  0  0  0  0  0  0  0  0  0
   -6.1207   -2.5240    0.4874 H   0  0  0  0  0  0  0  0  0  0  0  0
   -5.7209   -3.3035   -1.0333 H   0  0  0  0  0  0  0  0  0  0  0  0
   -4.0662   -0.3875    3.0079 H   0  0  0  0  0  0  0  0  0  0  0  0
   -5.7452    0.5069    4.5657 H   0  0  0  0  0  0  0  0  0  0  0  0
   -7.9514    1.2676    3.7293 H   0  0  0  0  0  0  0  0  0  0  0  0
   -8.4602    1.1614    1.3057 H   0  0  0  0  0  0  0  0  0  0  0  0
   -6.7857    0.3244   -0.2812 H   0  0  0  0  0  0  0  0  0  0  0  0
    4.5806    3.5015    0.3366 H   0  0  0  0  0  0  0  0  0  0  0  0
    8.6379    2.5586   -1.1810 H   0  0  0  0  0  0  0  0  0  0  0  0
    9.0062    3.6888    0.1290 H   0  0  0  0  0  0  0  0  0  0  0  0
    8.7483    1.9849    0.5285 H   0  0  0  0  0  0  0  0  0  0  0  0
    7.4667    0.5169   -0.8333 H   0  0  0  0  0  0  0  0  0  0  0  0
    5.6978   -1.0867   -1.2663 H   0  0  0  0  0  0  0  0  0  0  0  0
  1  2  1  0
  2  3  1  0
  3  4  2  0
  4  5  1  0
  5  6  2  3
  6  7  1  0
  7  8  2  3
  8  9  1  0
  9 10  1  0
 10 11  1  0
 10 12  2  0
  9 13  1  0
 13 14  2  0
 14 15  1  0
 15 16  2  0
 16 17  1  0
 17 18  2  0
  4 19  1  0
 19 20  1  0
 20 21  2  0
 21 22  1  0
 22 23  1  0
 23 24  1  0
 22 25  2  0
 25 26  1  0
 26 27  2  0
 27  3  1  0
 18 13  1  0
 27 20  1  0
  1 28  1  0
  1 29  1  0
  1 30  1  0
  2 31  1  0
  2 32  1  0
  5 33  1  0
  6 34  1  0
  7 35  1  0
  8 36  1  0
 11 37  1  0
 11 38  1  0
 11 39  1  0
 14 40  1  0
 15 41  1  0
 16 42  1  0
 17 43  1  0
 18 44  1  0
 21 45  1  0
 24 46  1  0
 24 47  1  0
 24 48  1  0
 25 49  1  0
 26 50  1  0
M  CHG  1   3   1
M  END
$$$$
