
     RDKit          3D

 50 53  0  0  0  0  0  0  0  0999 V2000
   -5.7158   -1.1789    5.1955 C   0  0  0  0  0  0  0  0  0  0  0  0
   -4.8251   -1.0097    4.0010 C   0  0  0  0  0  0  0  0  0  0  0  0
   -3.5595   -0.4327    4.1348 C   0  0  0  0  0  0  0  0  0  0  0  0
   -2.7171   -0.3078    3.0260 C   0  0  0  0  0  0  0  0  0  0  0  0
   -3.1290   -0.7514    1.7582 C   0  0  0  0  0  0  0  0  0  0  0  0
   -2.2346   -0.6076    0.6527 N   0  0  0  0  0  0  0  0  0  0  0  0
   -0.9144   -0.3891    0.9063 N   0  0  0  0  0  0  0  0  0  0  0  0
   -0.3087   -0.5243   -0.2747 C   0  0  0  0  0  0  0  0  0  0  0  0
    1.1233   -0.4534   -0.5228 C   0  0  0  0  0  0  0  0  0  0  0  0
    1.9679   -0.2584    0.3512 O   0  0  0  0  0  0  0  0  0  0  0  0
    1.4515   -0.5960   -1.8837 N   0  0  0  0  0  0  0  0  0  0  0  0
    2.8572   -0.5847   -2.2785 C   0  0  0  0  0  0  0  0  0  0  0  0
    3.4128    0.8334   -2.4138 C   0  0  0  0  0  0  0  0  0  0  0  0
    3.9628    1.2218   -3.4437 O   0  0  0  0  0  0  0  0  0  0  0  0
    3.3397    1.6010   -1.2712 N   0  0  0  0  0  0  0  0  0  0  0  0
    3.9689    2.8963   -1.1748 C   0  0  0  0  0  0  0  0  0  0  0  0
    5.3422    2.7184   -0.6085 C   0  0  0  0  0  0  0  0  0  0  0  0
    6.5021    2.3753   -1.2777 C   0  0  0  0  0  0  0  0  0  0  0  0
    7.6273    2.2955   -0.4083 C   0  0  0  0  0  0  0  0  0  0  0  0
    7.2914    2.5801    0.8963 C   0  0  0  0  0  0  0  0  0  0  0  0
    5.6289    2.9401    1.0673 S   0  0  0  0  0  0  0  0  0  0  0  0
    0.5254   -0.7884   -2.9164 N   0  0  0  0  0  0  0  0  0  0  0  0
   -0.7548   -0.8472   -2.6737 C   0  0  0  0  0  0  0  0  0  0  0  0
   -1.6921   -1.0578   -3.8285 C   0  0  0  0  0  0  0  0  0  0  0  0
   -1.2236   -0.7085   -1.3165 C   0  0  0  0  0  0  0  0  0  0  0  0
   -2.4758   -0.6583   -0.7264 C   0  0  0  0  0  0  0  0  0  0  0  0
   -3.8226   -0.5944   -1.3520 C   0  0  0  0  0  0  0  0  0  0  0  0
   -4.3811   -1.3629    1.6344 C   0  0  0  0  0  0  0  0  0  0  0  0
   -5.2206   -1.4892    2.7480 C   0  0  0  0  0  0  0  0  0  0  0  0
   -5.5029   -0.4196    5.9548 H   0  0  0  0  0  0  0  0  0  0  0  0
   -6.7686   -1.0692    4.9139 H   0  0  0  0  0  0  0  0  0  0  0  0
   -5.5670   -2.1684    5.6371 H   0  0  0  0  0  0  0  0  0  0  0  0
   -3.2156   -0.0750    5.1033 H   0  0  0  0  0  0  0  0  0  0  0  0
   -1.7393    0.1513    3.1682 H   0  0  0  0  0  0  0  0  0  0  0  0
    2.9622   -1.1017   -3.2390 H   0  0  0  0  0  0  0  0  0  0  0  0
    3.4555   -1.1222   -1.5339 H   0  0  0  0  0  0  0  0  0  0  0  0
    3.0922    1.1400   -0.3964 H   0  0  0  0  0  0  0  0  0  0  0  0
    3.3408    3.5199   -0.5303 H   0  0  0  0  0  0  0  0  0  0  0  0
    4.0167    3.3700   -2.1613 H   0  0  0  0  0  0  0  0  0  0  0  0
    6.5328    2.1848   -2.3453 H   0  0  0  0  0  0  0  0  0  0  0  0
    8.6306    2.0402   -0.7241 H   0  0  0  0  0  0  0  0  0  0  0  0
    7.9408    2.5925    1.7610 H   0  0  0  0  0  0  0  0  0  0  0  0
   -2.2125   -0.1220   -4.0505 H   0  0  0  0  0  0  0  0  0  0  0  0
   -1.1346   -1.3642   -4.7190 H   0  0  0  0  0  0  0  0  0  0  0  0
   -2.4196   -1.8380   -3.5902 H   0  0  0  0  0  0  0  0  0  0  0  0
   -4.2204   -1.5993   -1.5208 H   0  0  0  0  0  0  0  0  0  0  0  0
   -4.5284   -0.0169   -0.7476 H   0  0  0  0  0  0  0  0  0  0  0  0
   -3.7799   -0.0832   -2.3179 H   0  0  0  0  0  0  0  0  0  0  0  0
   -4.7241   -1.8011    0.7051 H   0  0  0  0  0  0  0  0  0  0  0  0
   -6.1856   -1.9789    2.6326 H   0  0  0  0  0  0  0  0  0  0  0  0
  1  2  1  0
  2  3  2  0
  3  4  1  0
  4  5  2  0
  5  6  1  0
  6  7  1  0
  7  8  2  0
  8  9  1  0
  9 10  2  0
  9 11  1  0
 11 12  1  0
 12 13  1  0
 13 14  2  0
 13 15  1  0
 15 16  1  0
 16 17  1  0
 17 18  2  0
 18 19  1  0
 19 20  2  0
 20 21  1  0
 11 22  1  0
 22 23  2  0
 23 24  1  0
 23 25  1  0
 25 26  2  0
 26 27  1  0
  5 28  1  0
 28 29  2  0
 29  2  1  0
 26  6  1  0
 25  8  1  0
 21 17  1  0
  1 30  1  0
  1 31  1  0
  1 32  1  0
  3 33  1  0
  4 34  1  0
 12 35  1  0
 12 36  1  0
 15 37  1  0
 16 38  1  0
 16 39  1  0
 18 40  1  0
 19 41  1  0
 20 42  1  0
 24 43  1  0
 24 44  1  0
 24 45  1  0
 27 46  1  0
 27 47  1  0
 27 48  1  0
 28 49  1  0
 29 50  1  0
M  END
$$$$
