
     RDKit          3D

 49 51  0  0  0  0  0  0  0  0999 V2000
    1.8973   -1.7775   -3.1619 O   0  0  0  0  0  0  0  0  0  0  0  0
    2.0744   -1.7244   -1.9530 C   0  0  0  0  0  0  0  0  0  0  0  0
    3.2721   -1.8874   -1.3020 N   0  0  0  0  0  0  0  0  0  0  0  0
    4.4657   -2.2767   -2.0029 C   0  0  0  0  0  0  0  0  0  0  0  0
    5.6716   -2.1668   -1.1111 C   0  0  0  0  0  0  0  0  0  0  0  0
    6.3400   -0.9423   -0.9707 C   0  0  0  0  0  0  0  0  0  0  0  0
    7.4430   -0.8307   -0.1227 C   0  0  0  0  0  0  0  0  0  0  0  0
    7.8832   -1.9383    0.5992 C   0  0  0  0  0  0  0  0  0  0  0  0
    7.2194   -3.1578    0.4765 C   0  0  0  0  0  0  0  0  0  0  0  0
    6.1160   -3.2717   -0.3711 C   0  0  0  0  0  0  0  0  0  0  0  0
    0.8856   -1.4547   -1.0021 C   0  0  0  0  0  0  0  0  0  0  0  0
    1.0586   -1.4109    0.2073 O   0  0  0  0  0  0  0  0  0  0  0  0
   -0.3115   -1.2612   -1.6499 N   0  0  0  0  0  0  0  0  0  0  0  0
   -1.5010   -0.8159   -0.9412 C   0  0  0  0  0  0  0  0  0  0  0  0
   -1.4099    0.6501   -0.4510 C   0  0  0  0  0  0  0  0  0  0  0  0
   -1.1000    1.4708   -1.6088 O   0  0  0  0  0  0  0  0  0  0  0  0
   -2.0177    2.5661   -1.6220 C   0  0  0  0  0  0  0  0  0  0  0  0
   -3.2494    2.0426   -0.9216 C   0  0  0  0  0  0  0  0  0  0  0  0
   -2.6497    1.2176    0.1286 N   0  0  0  0  0  0  0  0  0  0  0  0
   -3.6354    0.2091    1.0320 S   0  0  0  0  0  6  0  0  0  0  0  0
   -2.8250   -0.4238    2.0476 O   0  0  0  0  0  0  0  0  0  0  0  0
   -4.4270   -0.5718    0.1058 O   0  0  0  0  0  0  0  0  0  0  0  0
   -4.7099    1.3601    1.8537 C   0  0  0  0  0  0  0  0  0  0  0  0
   -6.0624    1.4299    1.5070 C   0  0  0  0  0  0  0  0  0  0  0  0
   -6.8929    2.3378    2.1670 C   0  0  0  0  0  0  0  0  0  0  0  0
   -6.3678    3.1587    3.1669 C   0  0  0  0  0  0  0  0  0  0  0  0
   -7.4968    4.3862    4.0574 Br  0  0  0  0  0  0  0  0  0  0  0  0
   -5.0196    3.0797    3.5196 C   0  0  0  0  0  0  0  0  0  0  0  0
   -4.1847    2.1740    2.8634 C   0  0  0  0  0  0  0  0  0  0  0  0
    3.2462   -1.9106   -0.2859 H   0  0  0  0  0  0  0  0  0  0  0  0
    4.3346   -3.3063   -2.3562 H   0  0  0  0  0  0  0  0  0  0  0  0
    4.5828   -1.6502   -2.8951 H   0  0  0  0  0  0  0  0  0  0  0  0
    6.0007   -0.0671   -1.5212 H   0  0  0  0  0  0  0  0  0  0  0  0
    7.9566    0.1221   -0.0231 H   0  0  0  0  0  0  0  0  0  0  0  0
    8.7413   -1.8502    1.2605 H   0  0  0  0  0  0  0  0  0  0  0  0
    7.5594   -4.0205    1.0443 H   0  0  0  0  0  0  0  0  0  0  0  0
    5.6040   -4.2286   -0.4491 H   0  0  0  0  0  0  0  0  0  0  0  0
   -0.2614   -1.1582   -2.6605 H   0  0  0  0  0  0  0  0  0  0  0  0
   -1.6581   -1.5006   -0.1024 H   0  0  0  0  0  0  0  0  0  0  0  0
   -2.3297   -0.9317   -1.6481 H   0  0  0  0  0  0  0  0  0  0  0  0
   -0.5902    0.7773    0.2636 H   0  0  0  0  0  0  0  0  0  0  0  0
   -1.5644    3.3984   -1.0724 H   0  0  0  0  0  0  0  0  0  0  0  0
   -2.2135    2.8824   -2.6498 H   0  0  0  0  0  0  0  0  0  0  0  0
   -3.8607    2.8570   -0.5266 H   0  0  0  0  0  0  0  0  0  0  0  0
   -3.8431    1.4258   -1.6049 H   0  0  0  0  0  0  0  0  0  0  0  0
   -6.4766    0.7835    0.7366 H   0  0  0  0  0  0  0  0  0  0  0  0
   -7.9457    2.3934    1.9014 H   0  0  0  0  0  0  0  0  0  0  0  0
   -4.6137    3.7115    4.3061 H   0  0  0  0  0  0  0  0  0  0  0  0
   -3.1349    2.1021    3.1413 H   0  0  0  0  0  0  0  0  0  0  0  0
  1  2  2  0
  2  3  1  0
  3  4  1  0
  4  5  1  0
  5  6  2  0
  6  7  1  0
  7  8  2  0
  8  9  1  0
  9 10  2  0
  2 11  1  0
 11 12  2  0
 11 13  1  0
 13 14  1  0
 14 15  1  0
 15 16  1  0
 16 17  1  0
 17 18  1  0
 18 19  1  0
 19 20  1  0
 20 21  2  0
 20 22  2  0
 20 23  1  0
 23 24  2  0
 24 25  1  0
 25 26  2  0
 26 27  1  0
 26 28  1  0
 28 29  2  0
 10  5  1  0
 19 15  1  0
 29 23  1  0
  3 30  1  0
  4 31  1  0
  4 32  1  0
  6 33  1  0
  7 34  1  0
  8 35  1  0
  9 36  1  0
 10 37  1  0
 13 38  1  0
 14 39  1  0
 14 40  1  0
 15 41  1  0
 17 42  1  0
 17 43  1  0
 18 44  1  0
 18 45  1  0
 24 46  1  0
 25 47  1  0
 28 48  1  0
 29 49  1  0
M  END
$$$$
