
     RDKit          3D

 55 58  0  0  0  0  0  0  0  0999 V2000
    1.0659    1.9459   -3.5753 C   0  0  0  0  0  0  0  0  0  0  0  0
    0.9780    0.5075   -3.1014 C   0  0  0  0  0  0  0  0  0  0  0  0
    1.9292    0.2809   -2.0461 O   0  0  0  0  0  0  0  0  0  0  0  0
    3.1804   -0.0791   -2.4388 C   0  0  0  0  0  0  0  0  0  0  0  0
    3.5300   -0.2354   -3.5998 O   0  0  0  0  0  0  0  0  0  0  0  0
    4.1022   -0.2731   -1.2725 C   0  0  0  0  0  0  0  0  0  0  0  0
    5.4257   -0.6207   -1.6110 C   0  0  0  0  0  0  0  0  0  0  0  0
    6.3849   -0.8420   -0.6256 C   0  0  0  0  0  0  0  0  0  0  0  0
    6.0335   -0.7212    0.7118 C   0  0  0  0  0  0  0  0  0  0  0  0
    4.7263   -0.3764    1.0670 C   0  0  0  0  0  0  0  0  0  0  0  0
    3.7442   -0.1446    0.0926 C   0  0  0  0  0  0  0  0  0  0  0  0
    2.4211    0.2066    0.4521 N   0  0  0  0  0  0  0  0  0  0  0  0
    1.8750    0.3757    1.7080 C   0  0  0  0  0  0  0  0  0  0  0  0
    2.4405    0.2899    2.7890 O   0  0  0  0  0  0  0  0  0  0  0  0
    0.4246    0.7299    1.6407 C   0  0  0  0  0  0  0  0  0  0  0  0
   -0.3935   -0.1772    1.0846 C   0  0  0  0  0  0  0  0  0  0  0  0
   -1.7692   -0.0059    0.9371 N   0  0  0  0  0  0  0  0  0  0  0  0
   -2.5733   -1.0334    0.3027 C   0  0  0  0  0  0  0  0  0  0  0  0
   -2.0168   -1.9073   -0.6464 C   0  0  0  0  0  0  0  0  0  0  0  0
   -2.7846   -2.9116   -1.2489 C   0  0  0  0  0  0  0  0  0  0  0  0
   -4.1272   -3.0787   -0.9175 C   0  0  0  0  0  0  0  0  0  0  0  0
   -4.7609   -4.0940   -1.5761 O   0  0  0  0  0  0  0  0  0  0  0  0
   -6.1428   -4.2769   -1.2949 C   0  0  0  0  0  0  0  0  0  0  0  0
   -4.6956   -2.2271    0.0233 C   0  0  0  0  0  0  0  0  0  0  0  0
   -3.9263   -1.2177    0.6224 C   0  0  0  0  0  0  0  0  0  0  0  0
   -2.3833    1.1905    1.3917 C   0  0  0  0  0  0  0  0  0  0  0  0
   -3.5639    1.4980    1.2341 O   0  0  0  0  0  0  0  0  0  0  0  0
   -1.5121    2.1885    2.0788 C   0  0  0  0  0  0  0  0  0  0  0  0
   -2.0841    3.3636    2.5939 C   0  0  0  0  0  0  0  0  0  0  0  0
   -1.2869    4.3136    3.2300 C   0  0  0  0  0  0  0  0  0  0  0  0
    0.0819    4.0947    3.3522 C   0  0  0  0  0  0  0  0  0  0  0  0
    0.6550    2.9279    2.8383 C   0  0  0  0  0  0  0  0  0  0  0  0
   -0.1359    1.9618    2.1970 C   0  0  0  0  0  0  0  0  0  0  0  0
    2.0527    2.1598   -4.0010 H   0  0  0  0  0  0  0  0  0  0  0  0
    0.3052    2.1532   -4.3331 H   0  0  0  0  0  0  0  0  0  0  0  0
    0.9239    2.6349   -2.7358 H   0  0  0  0  0  0  0  0  0  0  0  0
   -0.0151    0.3168   -2.6787 H   0  0  0  0  0  0  0  0  0  0  0  0
    1.1190   -0.2018   -3.9260 H   0  0  0  0  0  0  0  0  0  0  0  0
    5.7184   -0.7229   -2.6554 H   0  0  0  0  0  0  0  0  0  0  0  0
    7.4021   -1.1090   -0.9024 H   0  0  0  0  0  0  0  0  0  0  0  0
    6.7747   -0.8939    1.4887 H   0  0  0  0  0  0  0  0  0  0  0  0
    4.5092   -0.2942    2.1282 H   0  0  0  0  0  0  0  0  0  0  0  0
    1.8027    0.3802   -0.3370 H   0  0  0  0  0  0  0  0  0  0  0  0
    0.0160   -1.1283    0.7561 H   0  0  0  0  0  0  0  0  0  0  0  0
   -0.9900   -1.8027   -0.9854 H   0  0  0  0  0  0  0  0  0  0  0  0
   -2.3307   -3.5628   -1.9927 H   0  0  0  0  0  0  0  0  0  0  0  0
   -6.2940   -4.5673   -0.2497 H   0  0  0  0  0  0  0  0  0  0  0  0
   -6.7235   -3.3810   -1.5422 H   0  0  0  0  0  0  0  0  0  0  0  0
   -6.5076   -5.0942   -1.9244 H   0  0  0  0  0  0  0  0  0  0  0  0
   -5.7346   -2.3146    0.3240 H   0  0  0  0  0  0  0  0  0  0  0  0
   -4.4179   -0.6029    1.3720 H   0  0  0  0  0  0  0  0  0  0  0  0
   -3.1541    3.5408    2.5006 H   0  0  0  0  0  0  0  0  0  0  0  0
   -1.7341    5.2203    3.6308 H   0  0  0  0  0  0  0  0  0  0  0  0
    0.7081    4.8305    3.8521 H   0  0  0  0  0  0  0  0  0  0  0  0
    1.7279    2.7863    2.9597 H   0  0  0  0  0  0  0  0  0  0  0  0
  1  2  1  0
  2  3  1  0
  3  4  1  0
  4  5  2  0
  4  6  1  0
  6  7  2  0
  7  8  1  0
  8  9  2  0
  9 10  1  0
 10 11  2  0
 11 12  1  0
 12 13  1  0
 13 14  2  0
 13 15  1  0
 15 16  2  0
 16 17  1  0
 17 18  1  0
 18 19  2  0
 19 20  1  0
 20 21  2  0
 21 22  1  0
 22 23  1  0
 21 24  1  0
 24 25  2  0
 17 26  1  0
 26 27  2  0
 26 28  1  0
 28 29  2  0
 29 30  1  0
 30 31  2  0
 31 32  1  0
 32 33  2  0
 11  6  1  0
 33 15  1  0
 25 18  1  0
 33 28  1  0
  1 34  1  0
  1 35  1  0
  1 36  1  0
  2 37  1  0
  2 38  1  0
  7 39  1  0
  8 40  1  0
  9 41  1  0
 10 42  1  0
 12 43  1  0
 16 44  1  0
 19 45  1  0
 20 46  1  0
 23 47  1  0
 23 48  1  0
 23 49  1  0
 24 50  1  0
 25 51  1  0
 29 52  1  0
 30 53  1  0
 31 54  1  0
 32 55  1  0
M  END
$$$$
