
     RDKit          3D

 46 49  0  0  0  0  0  0  0  0999 V2000
   -4.2707   -3.4594   -1.8619 C   0  0  0  0  0  0  0  0  0  0  0  0
   -3.0274   -2.7871   -1.7040 O   0  0  0  0  0  0  0  0  0  0  0  0
   -3.0567   -1.5611   -1.1015 C   0  0  0  0  0  0  0  0  0  0  0  0
   -4.1879   -0.9015   -0.6374 C   0  0  0  0  0  0  0  0  0  0  0  0
   -4.0706    0.3550   -0.0325 C   0  0  0  0  0  0  0  0  0  0  0  0
   -2.8201    0.9721    0.1135 C   0  0  0  0  0  0  0  0  0  0  0  0
   -2.6407    2.1852    0.7309 O   0  0  0  0  0  0  0  0  0  0  0  0
   -3.7838    2.8403    1.2645 C   0  0  0  0  0  0  0  0  0  0  0  0
   -1.6601    0.3242   -0.3662 C   0  0  0  0  0  0  0  0  0  0  0  0
   -0.3132    0.9107   -0.2650 C   0  0  0  0  0  0  0  0  0  0  0  0
   -0.1649    2.2215   -0.5558 N   0  0  0  0  0  0  0  0  0  0  0  0
    1.0914    2.7212   -0.4727 C   0  0  0  0  0  0  0  0  0  0  0  0
    1.2568    4.1702   -0.7716 C   0  0  0  0  0  0  0  0  0  0  0  0
    0.1031    4.8424   -1.0721 N   0  0  0  0  0  0  0  0  0  0  0  0
    2.3472    4.7271   -0.7479 O   0  0  0  0  0  0  0  0  0  0  0  0
    2.1567    1.9426   -0.1347 C   0  0  0  0  0  0  0  0  0  0  0  0
    3.5094    2.2082   -0.0014 N   0  0  0  0  0  0  0  0  0  0  0  0
    4.1653    1.0225    0.3542 C   0  0  0  0  0  0  0  0  0  0  0  0
    5.3691    0.9589    0.5419 O   0  0  0  0  0  0  0  0  0  0  0  0
    3.1591    0.0102    0.4419 N   0  0  0  0  0  0  0  0  0  0  0  0
    3.3497   -1.3612    0.7688 C   0  0  0  0  0  0  0  0  0  0  0  0
    2.2829   -2.2544    0.9755 C   0  0  0  0  0  0  0  0  0  0  0  0
    2.5011   -3.6017    1.2956 C   0  0  0  0  0  0  0  0  0  0  0  0
    3.7948   -4.0787    1.4172 C   0  0  0  0  0  0  0  0  0  0  0  0
    4.0039   -5.3651    1.7235 F   0  0  0  0  0  0  0  0  0  0  0  0
    4.8726   -3.2321    1.2262 C   0  0  0  0  0  0  0  0  0  0  0  0
    4.6489   -1.8864    0.9062 C   0  0  0  0  0  0  0  0  0  0  0  0
    1.9140    0.6166    0.1300 C   0  0  0  0  0  0  0  0  0  0  0  0
    0.6960    0.0708    0.0616 N   0  0  0  0  0  0  0  0  0  0  0  0
   -1.8102   -0.9479   -0.9618 C   0  0  0  0  0  0  0  0  0  0  0  0
   -4.9477   -2.8897   -2.5070 H   0  0  0  0  0  0  0  0  0  0  0  0
   -4.0727   -4.4181   -2.3509 H   0  0  0  0  0  0  0  0  0  0  0  0
   -4.7320   -3.6692   -0.8913 H   0  0  0  0  0  0  0  0  0  0  0  0
   -5.1789   -1.3352   -0.7240 H   0  0  0  0  0  0  0  0  0  0  0  0
   -4.9834    0.8241    0.3209 H   0  0  0  0  0  0  0  0  0  0  0  0
   -3.4481    3.7753    1.7235 H   0  0  0  0  0  0  0  0  0  0  0  0
   -4.2560    2.2372    2.0468 H   0  0  0  0  0  0  0  0  0  0  0  0
   -4.4965    3.0961    0.4738 H   0  0  0  0  0  0  0  0  0  0  0  0
   -0.7861    4.3526   -1.0583 H   0  0  0  0  0  0  0  0  0  0  0  0
    0.1359    5.8321   -1.2701 H   0  0  0  0  0  0  0  0  0  0  0  0
    3.9553    3.1070   -0.1438 H   0  0  0  0  0  0  0  0  0  0  0  0
    1.2467   -1.9422    0.9151 H   0  0  0  0  0  0  0  0  0  0  0  0
    1.6626   -4.2730    1.4527 H   0  0  0  0  0  0  0  0  0  0  0  0
    5.8838   -3.6143    1.3236 H   0  0  0  0  0  0  0  0  0  0  0  0
    5.5322   -1.2718    0.7580 H   0  0  0  0  0  0  0  0  0  0  0  0
   -0.9310   -1.4740   -1.3340 H   0  0  0  0  0  0  0  0  0  0  0  0
  1  2  1  0
  2  3  1  0
  3  4  2  0
  4  5  1  0
  5  6  2  0
  6  7  1  0
  7  8  1  0
  6  9  1  0
  9 10  1  0
 10 11  2  0
 11 12  1  0
 12 13  1  0
 13 14  1  0
 13 15  2  0
 12 16  2  0
 16 17  1  0
 17 18  1  0
 18 19  2  0
 18 20  1  0
 20 21  1  0
 21 22  2  0
 22 23  1  0
 23 24  2  0
 24 25  1  0
 24 26  1  0
 26 27  2  0
 20 28  1  0
 28 29  2  0
  9 30  2  0
 30  3  1  0
 29 10  1  0
 28 16  1  0
 27 21  1  0
  1 31  1  0
  1 32  1  0
  1 33  1  0
  4 34  1  0
  5 35  1  0
  8 36  1  0
  8 37  1  0
  8 38  1  0
 14 39  1  0
 14 40  1  0
 17 41  1  0
 22 42  1  0
 23 43  1  0
 26 44  1  0
 27 45  1  0
 30 46  1  0
M  END
$$$$
