
     RDKit          3D

 38 40  0  0  0  0  0  0  0  0999 V2000
   -2.1495   -2.0565   -1.0041 C   0  0  0  0  0  0  0  0  0  0  0  0
   -1.4055   -0.7238   -0.8728 C   0  0  0  0  0  0  0  0  0  0  0  0
   -1.4873    0.0812   -2.1931 C   0  0  0  0  0  0  0  0  0  0  0  0
   -1.4135    1.5509   -1.7678 C   0  0  0  0  0  0  0  0  0  0  0  0
   -1.2397    1.5006   -0.2431 C   0  0  0  0  0  0  0  0  0  0  0  0
    0.2579    1.4136    0.0268 C   0  0  0  0  0  0  0  0  0  0  0  0
    0.8406    2.4375    0.3867 O   0  0  0  0  0  0  0  0  0  0  0  0
    0.8582    0.1741   -0.2671 N   0  0  0  0  0  0  0  0  0  0  0  0
    2.2929    0.0237   -0.1201 C   0  0  0  0  0  0  0  0  0  0  0  0
    3.0076   -0.8655   -0.9451 C   0  0  0  0  0  0  0  0  0  0  0  0
    4.3937   -1.0202   -0.8302 C   0  0  0  0  0  0  0  0  0  0  0  0
    5.0989   -0.2861    0.1164 C   0  0  0  0  0  0  0  0  0  0  0  0
    4.4124    0.5973    0.9417 C   0  0  0  0  0  0  0  0  0  0  0  0
    5.2795    1.4975    2.1267 Cl  0  0  0  0  0  0  0  0  0  0  0  0
    3.0276    0.7549    0.8275 C   0  0  0  0  0  0  0  0  0  0  0  0
    0.0927   -0.9723   -0.5796 C   0  0  0  0  0  0  0  0  0  0  0  0
    0.5327   -2.1242   -0.5915 O   0  0  0  0  0  0  0  0  0  0  0  0
   -1.9813    0.2317    0.1989 C   0  0  0  0  0  0  0  0  0  0  0  0
   -1.7010   -0.1759    1.6575 C   0  0  0  0  0  0  0  0  0  0  0  0
   -3.5122    0.4322    0.0884 C   0  0  0  0  0  0  0  0  0  0  0  0
   -2.1141   -2.6248   -0.0684 H   0  0  0  0  0  0  0  0  0  0  0  0
   -1.7013   -2.6827   -1.7845 H   0  0  0  0  0  0  0  0  0  0  0  0
   -3.2009   -1.9149   -1.2735 H   0  0  0  0  0  0  0  0  0  0  0  0
   -0.6709   -0.1673   -2.8813 H   0  0  0  0  0  0  0  0  0  0  0  0
   -2.4272   -0.1006   -2.7273 H   0  0  0  0  0  0  0  0  0  0  0  0
   -0.5935    2.0706   -2.2758 H   0  0  0  0  0  0  0  0  0  0  0  0
   -2.3419    2.0675   -2.0363 H   0  0  0  0  0  0  0  0  0  0  0  0
   -1.6318    2.4018    0.2413 H   0  0  0  0  0  0  0  0  0  0  0  0
    2.5034   -1.4446   -1.7163 H   0  0  0  0  0  0  0  0  0  0  0  0
    4.9171   -1.7145   -1.4831 H   0  0  0  0  0  0  0  0  0  0  0  0
    6.1746   -0.4078    0.2077 H   0  0  0  0  0  0  0  0  0  0  0  0
    2.5385    1.4345    1.5197 H   0  0  0  0  0  0  0  0  0  0  0  0
   -0.6426   -0.3390    1.8764 H   0  0  0  0  0  0  0  0  0  0  0  0
   -2.0509    0.6013    2.3469 H   0  0  0  0  0  0  0  0  0  0  0  0
   -2.2255   -1.1041    1.9106 H   0  0  0  0  0  0  0  0  0  0  0  0
   -3.8477    0.6465   -0.9304 H   0  0  0  0  0  0  0  0  0  0  0  0
   -3.8376    1.2673    0.7197 H   0  0  0  0  0  0  0  0  0  0  0  0
   -4.0526   -0.4599    0.4245 H   0  0  0  0  0  0  0  0  0  0  0  0
  1  2  1  0
  2  3  1  0
  3  4  1  0
  4  5  1  0
  5  6  1  0
  6  7  2  0
  6  8  1  0
  8  9  1  0
  9 10  2  0
 10 11  1  0
 11 12  2  0
 12 13  1  0
 13 14  1  0
 13 15  2  0
  8 16  1  0
 16 17  2  0
  5 18  1  0
 18 19  1  0
 18 20  1  0
 16  2  1  0
 18  2  1  0
 15  9  1  0
  1 21  1  0
  1 22  1  0
  1 23  1  0
  3 24  1  0
  3 25  1  0
  4 26  1  0
  4 27  1  0
  5 28  1  0
 10 29  1  0
 11 30  1  0
 12 31  1  0
 15 32  1  0
 19 33  1  0
 19 34  1  0
 19 35  1  0
 20 36  1  0
 20 37  1  0
 20 38  1  0
M  END
$$$$
