
     RDKit          3D

 68 71  0  0  0  0  0  0  0  0999 V2000
    8.5133    1.3507    0.9012 C   0  0  0  0  0  0  0  0  0  0  0  0
    7.4789    0.3078    0.9959 C   0  0  0  0  0  0  0  0  0  0  0  0
    6.3156    0.1719    1.7113 C   0  0  0  0  0  0  0  0  0  0  0  0
    5.8010   -1.0831    1.3205 C   0  0  0  0  0  0  0  0  0  0  0  0
    4.6484   -1.7213    1.7210 N   0  0  0  0  0  0  0  0  0  0  0  0
    3.7157   -1.2038    2.5863 C   0  0  0  0  0  0  0  0  0  0  0  0
    3.7924   -0.1223    3.1648 O   0  0  0  0  0  0  0  0  0  0  0  0
    2.5400   -2.1378    2.8218 C   0  0  0  0  0  0  0  0  0  0  0  0
    1.2248   -1.3626    2.8006 C   0  0  0  0  0  0  0  0  0  0  0  0
    0.8772   -0.9106    1.3903 C   0  0  0  0  0  0  0  0  0  0  0  0
    1.6182   -1.2014    0.4478 O   0  0  0  0  0  0  0  0  0  0  0  0
   -0.2767   -0.1571    1.2122 N   0  0  0  0  0  0  0  0  0  0  0  0
   -1.2250    0.1526    2.2916 C   0  0  0  0  0  0  0  0  0  0  0  0
   -2.4192   -0.7319    2.2784 C   0  0  0  0  0  0  0  0  0  0  0  0
   -2.6066   -2.0991    2.2566 C   0  0  0  0  0  0  0  0  0  0  0  0
   -4.0051   -2.3168    2.2796 C   0  0  0  0  0  0  0  0  0  0  0  0
   -4.5843   -1.0720    2.3304 C   0  0  0  0  0  0  0  0  0  0  0  0
   -3.6323   -0.1050    2.3386 O   0  0  0  0  0  0  0  0  0  0  0  0
   -0.5986    0.2268   -0.1847 C   0  0  0  0  0  0  0  0  0  0  0  0
   -1.3008   -0.9164   -0.9880 C   0  0  0  0  0  0  0  0  0  0  0  0
   -1.4901   -2.0485   -0.5445 O   0  0  0  0  0  0  0  0  0  0  0  0
   -1.6334   -0.5849   -2.2954 N   0  0  0  0  0  0  0  0  0  0  0  0
   -2.3647   -1.5070   -3.1477 C   0  0  0  0  0  0  0  0  0  0  0  0
   -2.3391   -1.0590   -4.6054 C   0  0  0  0  0  0  0  0  0  0  0  0
   -3.4416   -0.0073   -4.7092 C   0  0  0  0  0  0  0  0  0  0  0  0
   -4.4170   -0.2984   -3.5687 C   0  0  0  0  0  0  0  0  0  0  0  0
   -3.8588   -1.5127   -2.8312 C   0  0  0  0  0  0  0  0  0  0  0  0
   -1.2733    1.6006   -0.3021 C   0  0  0  0  0  0  0  0  0  0  0  0
   -2.6792    1.7033   -0.3362 C   0  0  0  0  0  0  0  0  0  0  0  0
   -3.3116    2.9423   -0.4327 C   0  0  0  0  0  0  0  0  0  0  0  0
   -2.5532    4.1051   -0.4895 C   0  0  0  0  0  0  0  0  0  0  0  0
   -1.1619    4.0307   -0.4400 C   0  0  0  0  0  0  0  0  0  0  0  0
   -0.5074    2.7915   -0.3352 C   0  0  0  0  0  0  0  0  0  0  0  0
    0.9979    2.7768   -0.2687 C   0  0  0  0  0  0  0  0  0  0  0  0
    6.6084   -1.6721    0.4305 N   0  0  0  0  0  0  0  0  0  0  0  0
    7.6607   -0.7987    0.2304 O   0  0  0  0  0  0  0  0  0  0  0  0
    8.2632    2.2105    1.5300 H   0  0  0  0  0  0  0  0  0  0  0  0
    8.6124    1.7020   -0.1309 H   0  0  0  0  0  0  0  0  0  0  0  0
    9.4821    0.9608    1.2268 H   0  0  0  0  0  0  0  0  0  0  0  0
    5.8998    0.8806    2.4115 H   0  0  0  0  0  0  0  0  0  0  0  0
    4.4731   -2.5894    1.2340 H   0  0  0  0  0  0  0  0  0  0  0  0
    2.6842   -2.5920    3.8090 H   0  0  0  0  0  0  0  0  0  0  0  0
    2.5254   -2.9509    2.0874 H   0  0  0  0  0  0  0  0  0  0  0  0
    0.4269   -2.0188    3.1616 H   0  0  0  0  0  0  0  0  0  0  0  0
    1.2948   -0.4877    3.4551 H   0  0  0  0  0  0  0  0  0  0  0  0
   -1.5074    1.2078    2.2313 H   0  0  0  0  0  0  0  0  0  0  0  0
   -0.7453    0.0472    3.2679 H   0  0  0  0  0  0  0  0  0  0  0  0
   -1.8300   -2.8481    2.1931 H   0  0  0  0  0  0  0  0  0  0  0  0
   -4.5242   -3.2641    2.2510 H   0  0  0  0  0  0  0  0  0  0  0  0
   -5.6074   -0.7230    2.3590 H   0  0  0  0  0  0  0  0  0  0  0  0
    0.3528    0.3133   -0.7268 H   0  0  0  0  0  0  0  0  0  0  0  0
   -1.5952    0.3923   -2.5625 H   0  0  0  0  0  0  0  0  0  0  0  0
   -1.9312   -2.5057   -3.0259 H   0  0  0  0  0  0  0  0  0  0  0  0
   -1.3672   -0.6665   -4.9211 H   0  0  0  0  0  0  0  0  0  0  0  0
   -2.5881   -1.9064   -5.2563 H   0  0  0  0  0  0  0  0  0  0  0  0
   -3.9343   -0.0443   -5.6863 H   0  0  0  0  0  0  0  0  0  0  0  0
   -3.0231    0.9988   -4.5915 H   0  0  0  0  0  0  0  0  0  0  0  0
   -5.4294   -0.4897   -3.9374 H   0  0  0  0  0  0  0  0  0  0  0  0
   -4.4716    0.5659   -2.8965 H   0  0  0  0  0  0  0  0  0  0  0  0
   -4.0823   -1.4763   -1.7602 H   0  0  0  0  0  0  0  0  0  0  0  0
   -4.3172   -2.4219   -3.2392 H   0  0  0  0  0  0  0  0  0  0  0  0
   -3.3033    0.8127   -0.2729 H   0  0  0  0  0  0  0  0  0  0  0  0
   -4.3978    2.9974   -0.4527 H   0  0  0  0  0  0  0  0  0  0  0  0
   -3.0437    5.0728   -0.5603 H   0  0  0  0  0  0  0  0  0  0  0  0
   -0.5873    4.9548   -0.4742 H   0  0  0  0  0  0  0  0  0  0  0  0
    1.3389    2.2321    0.6170 H   0  0  0  0  0  0  0  0  0  0  0  0
    1.4073    3.7913   -0.2003 H   0  0  0  0  0  0  0  0  0  0  0  0
    1.4123    2.3142   -1.1703 H   0  0  0  0  0  0  0  0  0  0  0  0
  1  2  1  0
  2  3  2  0
  3  4  1  0
  4  5  1  0
  5  6  1  0
  6  7  2  0
  6  8  1  0
  8  9  1  0
  9 10  1  0
 10 11  2  0
 10 12  1  0
 12 13  1  0
 13 14  1  0
 14 15  2  0
 15 16  1  0
 16 17  2  0
 17 18  1  0
 12 19  1  0
 19 20  1  0
 20 21  2  0
 20 22  1  0
 22 23  1  0
 23 24  1  0
 24 25  1  0
 25 26  1  0
 26 27  1  0
 19 28  1  0
 28 29  2  0
 29 30  1  0
 30 31  2  0
 31 32  1  0
 32 33  2  0
 33 34  1  0
  4 35  2  0
 35 36  1  0
 36  2  1  0
 18 14  1  0
 27 23  1  0
 33 28  1  0
  1 37  1  0
  1 38  1  0
  1 39  1  0
  3 40  1  0
  5 41  1  0
  8 42  1  0
  8 43  1  0
  9 44  1  0
  9 45  1  0
 13 46  1  0
 13 47  1  0
 15 48  1  0
 16 49  1  0
 17 50  1  0
 19 51  1  0
 22 52  1  0
 23 53  1  0
 24 54  1  0
 24 55  1  0
 25 56  1  0
 25 57  1  0
 26 58  1  0
 26 59  1  0
 27 60  1  0
 27 61  1  0
 29 62  1  0
 30 63  1  0
 31 64  1  0
 32 65  1  0
 34 66  1  0
 34 67  1  0
 34 68  1  0
M  END
$$$$
