
     RDKit          3D

 28 29  0  0  0  0  0  0  0  0999 V2000
    6.2053    0.7241   -0.5436 O   0  0  0  0  0  0  0  0  0  0  0  0
    5.5343   -0.3083   -0.6821 N   0  0  0  0  0  4  0  0  0  0  0  0
    5.9874   -1.3961   -1.0637 O   0  0  0  0  0  1  0  0  0  0  0  0
    4.1133   -0.2343   -0.3795 C   0  0  0  0  0  0  0  0  0  0  0  0
    3.5287    0.9534    0.0551 C   0  0  0  0  0  0  0  0  0  0  0  0
    2.1609    0.9611    0.3317 C   0  0  0  0  0  0  0  0  0  0  0  0
    1.4203   -0.2063    0.1601 C   0  0  0  0  0  0  0  0  0  0  0  0
    0.0597   -0.2691    0.4419 N   0  0  0  0  0  0  0  0  0  0  0  0
   -0.7589    0.6630   -0.3224 C   0  0  0  0  0  0  0  0  0  0  0  0
   -2.2177    0.3205   -0.1304 C   0  0  0  0  0  0  0  0  0  0  0  0
   -2.8379    0.5325    1.1102 C   0  0  0  0  0  0  0  0  0  0  0  0
   -4.1842    0.2144    1.2941 C   0  0  0  0  0  0  0  0  0  0  0  0
   -4.9236   -0.3221    0.2419 C   0  0  0  0  0  0  0  0  0  0  0  0
   -4.3171   -0.5448   -0.9931 C   0  0  0  0  0  0  0  0  0  0  0  0
   -2.9701   -0.2277   -1.1792 C   0  0  0  0  0  0  0  0  0  0  0  0
    1.9845   -1.3584   -0.2537 N   0  0  0  0  0  0  0  0  0  0  0  0
    3.3162   -1.3572   -0.5176 C   0  0  0  0  0  0  0  0  0  0  0  0
    4.1108    1.8611    0.1923 H   0  0  0  0  0  0  0  0  0  0  0  0
    1.6884    1.8655    0.7009 H   0  0  0  0  0  0  0  0  0  0  0  0
   -0.2076   -1.2325    0.2385 H   0  0  0  0  0  0  0  0  0  0  0  0
   -0.5057    0.6193   -1.3899 H   0  0  0  0  0  0  0  0  0  0  0  0
   -0.5986    1.6962    0.0098 H   0  0  0  0  0  0  0  0  0  0  0  0
   -2.2652    0.9380    1.9421 H   0  0  0  0  0  0  0  0  0  0  0  0
   -4.6538    0.3801    2.2602 H   0  0  0  0  0  0  0  0  0  0  0  0
   -5.9714   -0.5721    0.3862 H   0  0  0  0  0  0  0  0  0  0  0  0
   -4.8934   -0.9692   -1.8113 H   0  0  0  0  0  0  0  0  0  0  0  0
   -2.5127   -0.4147   -2.1482 H   0  0  0  0  0  0  0  0  0  0  0  0
    3.7081   -2.3165   -0.8467 H   0  0  0  0  0  0  0  0  0  0  0  0
  1  2  2  0
  2  3  1  0
  2  4  1  0
  4  5  2  0
  5  6  1  0
  6  7  2  0
  7  8  1  0
  8  9  1  0
  9 10  1  0
 10 11  2  0
 11 12  1  0
 12 13  2  0
 13 14  1  0
 14 15  2  0
  7 16  1  0
 16 17  2  0
 17  4  1  0
 15 10  1  0
  5 18  1  0
  6 19  1  0
  8 20  1  0
  9 21  1  0
  9 22  1  0
 11 23  1  0
 12 24  1  0
 13 25  1  0
 14 26  1  0
 15 27  1  0
 17 28  1  0
M  CHG  2   2   1   3  -1
M  END
$$$$
