
     RDKit          3D

 60 65  0  0  0  0  0  0  0  0999 V2000
    3.4579   -2.7162    4.1056 O   0  0  0  0  0  0  0  0  0  0  0  0
    3.1594   -2.3213    2.9842 C   0  0  0  0  0  0  0  0  0  0  0  0
    2.1209   -1.4202    2.7751 N   0  0  0  0  0  0  0  0  0  0  0  0
    1.7398   -0.9425    1.5249 C   0  0  0  0  0  0  0  0  0  0  0  0
    0.5659    0.0274    1.5303 C   0  0  0  0  0  0  0  0  0  0  0  0
    0.9190    1.3191    0.7780 C   0  0  0  0  0  0  0  0  0  0  0  0
   -0.3006    1.9169    0.0880 C   0  0  0  0  0  0  0  0  0  0  0  0
   -0.8253    0.9689   -0.9150 N   0  0  0  0  0  0  0  0  0  0  0  0
   -2.0744    1.5114   -1.9293 S   0  0  0  0  0  6  0  0  0  0  0  0
   -1.7855    2.8788   -2.3060 O   0  0  0  0  0  0  0  0  0  0  0  0
   -2.3200    0.4940   -2.9286 O   0  0  0  0  0  0  0  0  0  0  0  0
   -3.4812    1.5478   -0.8375 C   0  0  0  0  0  0  0  0  0  0  0  0
   -3.7964    2.7298   -0.1564 C   0  0  0  0  0  0  0  0  0  0  0  0
   -4.9118    2.7663    0.6811 C   0  0  0  0  0  0  0  0  0  0  0  0
   -5.7127    1.6334    0.8197 C   0  0  0  0  0  0  0  0  0  0  0  0
   -5.3903    0.4536    0.1388 C   0  0  0  0  0  0  0  0  0  0  0  0
   -4.2884    0.4137   -0.7114 C   0  0  0  0  0  0  0  0  0  0  0  0
   -6.1202   -0.7015    0.2509 O   0  0  0  0  0  0  0  0  0  0  0  0
   -7.0211   -0.6512    1.3639 C   0  0  0  0  0  0  0  0  0  0  0  0
   -7.7385    0.6872    1.4185 C   0  0  0  0  0  0  0  0  0  0  0  0
   -6.8036    1.7497    1.6420 O   0  0  0  0  0  0  0  0  0  0  0  0
   -0.7909   -0.4678   -0.5585 C   0  0  0  0  0  0  0  0  0  0  0  0
   -0.6745   -0.6676    0.9491 C   0  0  0  0  0  0  0  0  0  0  0  0
    2.2988   -1.3051    0.4038 N   0  0  0  0  0  0  0  0  0  0  0  0
    3.3270   -2.1686    0.5818 C   0  0  0  0  0  0  0  0  0  0  0  0
    3.8004   -2.7027    1.7552 C   0  0  0  0  0  0  0  0  0  0  0  0
    4.8503   -3.5335    1.5136 N   0  0  0  0  0  0  0  0  0  0  0  0
    5.0629   -3.5312    0.1969 N   0  0  0  0  0  0  0  0  0  0  0  0
    4.1577   -2.6925   -0.3662 N   0  0  0  0  0  0  0  0  0  0  0  0
    4.1324   -2.4713   -1.7971 C   0  0  0  0  0  0  0  0  0  0  0  0
    4.7605   -1.1477   -2.1619 C   0  0  0  0  0  0  0  0  0  0  0  0
    6.1579   -1.0064   -2.1883 C   0  0  0  0  0  0  0  0  0  0  0  0
    6.7364    0.2226   -2.5074 C   0  0  0  0  0  0  0  0  0  0  0  0
    5.9215    1.3100   -2.7967 C   0  0  0  0  0  0  0  0  0  0  0  0
    6.4784    2.4898   -3.0992 F   0  0  0  0  0  0  0  0  0  0  0  0
    4.5373    1.1934   -2.7717 C   0  0  0  0  0  0  0  0  0  0  0  0
    3.9553   -0.0339   -2.4525 C   0  0  0  0  0  0  0  0  0  0  0  0
    1.6537   -1.1201    3.6180 H   0  0  0  0  0  0  0  0  0  0  0  0
    0.3375    0.2853    2.5728 H   0  0  0  0  0  0  0  0  0  0  0  0
    1.7027    1.1492    0.0293 H   0  0  0  0  0  0  0  0  0  0  0  0
    1.3350    2.0454    1.4871 H   0  0  0  0  0  0  0  0  0  0  0  0
    0.0018    2.8461   -0.4060 H   0  0  0  0  0  0  0  0  0  0  0  0
   -1.0693    2.1564    0.8298 H   0  0  0  0  0  0  0  0  0  0  0  0
   -3.1887    3.6237   -0.2810 H   0  0  0  0  0  0  0  0  0  0  0  0
   -5.1695    3.6810    1.2086 H   0  0  0  0  0  0  0  0  0  0  0  0
   -4.0676   -0.4959   -1.2639 H   0  0  0  0  0  0  0  0  0  0  0  0
   -7.7443   -1.4636    1.2424 H   0  0  0  0  0  0  0  0  0  0  0  0
   -6.4488   -0.8367    2.2813 H   0  0  0  0  0  0  0  0  0  0  0  0
   -8.2833    0.8905    0.4883 H   0  0  0  0  0  0  0  0  0  0  0  0
   -8.4567    0.6983    2.2442 H   0  0  0  0  0  0  0  0  0  0  0  0
   -1.6855   -0.9902   -0.9102 H   0  0  0  0  0  0  0  0  0  0  0  0
    0.0576   -0.9241   -1.0801 H   0  0  0  0  0  0  0  0  0  0  0  0
   -0.6674   -1.7399    1.1789 H   0  0  0  0  0  0  0  0  0  0  0  0
   -1.5703   -0.2525    1.4300 H   0  0  0  0  0  0  0  0  0  0  0  0
    3.0873   -2.5219   -2.1238 H   0  0  0  0  0  0  0  0  0  0  0  0
    4.6633   -3.2961   -2.2863 H   0  0  0  0  0  0  0  0  0  0  0  0
    6.8028   -1.8515   -1.9520 H   0  0  0  0  0  0  0  0  0  0  0  0
    7.8153    0.3392   -2.5272 H   0  0  0  0  0  0  0  0  0  0  0  0
    3.9206    2.0573   -2.9971 H   0  0  0  0  0  0  0  0  0  0  0  0
    2.8696   -0.1122   -2.4236 H   0  0  0  0  0  0  0  0  0  0  0  0
  1  2  2  0
  2  3  1  0
  3  4  1  0
  4  5  1  0
  5  6  1  0
  6  7  1  0
  7  8  1  0
  8  9  1  0
  9 10  2  0
  9 11  2  0
  9 12  1  0
 12 13  2  0
 13 14  1  0
 14 15  2  0
 15 16  1  0
 16 17  2  0
 16 18  1  0
 18 19  1  0
 19 20  1  0
 20 21  1  0
  8 22  1  0
 22 23  1  0
  4 24  2  0
 24 25  1  0
 25 26  2  0
 26 27  1  0
 27 28  2  0
 28 29  1  0
 29 30  1  0
 30 31  1  0
 31 32  2  0
 32 33  1  0
 33 34  2  0
 34 35  1  0
 34 36  1  0
 36 37  2  0
 26  2  1  0
 37 31  1  0
 23  5  1  0
 29 25  1  0
 17 12  1  0
 21 15  1  0
  3 38  1  0
  5 39  1  0
  6 40  1  0
  6 41  1  0
  7 42  1  0
  7 43  1  0
 13 44  1  0
 14 45  1  0
 17 46  1  0
 19 47  1  0
 19 48  1  0
 20 49  1  0
 20 50  1  0
 22 51  1  0
 22 52  1  0
 23 53  1  0
 23 54  1  0
 30 55  1  0
 30 56  1  0
 32 57  1  0
 33 58  1  0
 36 59  1  0
 37 60  1  0
M  END
$$$$
