
     RDKit          3D

 46 48  0  0  0  0  0  0  0  0999 V2000
   -1.8759    2.8528   -0.1258 C   0  0  0  0  0  0  0  0  0  0  0  0
   -2.1988    2.2493   -1.2803 C   0  0  0  0  0  0  0  0  0  0  0  0
   -2.4374    0.7838   -1.5336 C   0  0  0  0  0  0  0  0  0  0  0  0
   -2.3125   -0.0851   -0.3759 N   0  0  0  0  0  0  0  0  0  0  0  0
   -1.1673   -0.6646    0.1032 C   0  0  0  0  0  0  0  0  0  0  0  0
    0.4176   -0.3257   -0.4988 S   0  0  0  0  0  0  0  0  0  0  0  0
    1.4321   -1.1027    0.7959 C   0  0  0  0  0  0  0  0  0  0  0  0
    2.8825   -0.6982    0.6663 C   0  0  0  0  0  0  0  0  0  0  0  0
    3.7583   -1.4222   -0.1567 C   0  0  0  0  0  0  0  0  0  0  0  0
    5.0956   -1.0309   -0.2884 C   0  0  0  0  0  0  0  0  0  0  0  0
    5.5745    0.0920    0.4000 C   0  0  0  0  0  0  0  0  0  0  0  0
    6.9849    0.5558    0.2948 C   0  0  0  0  0  0  0  0  0  0  0  0
    7.4255    1.5174    0.9069 O   0  0  0  0  0  0  0  0  0  0  0  0
    7.6864   -0.2262   -0.5636 O   0  0  0  0  0  0  0  0  0  0  0  0
    9.0482    0.1736   -0.7239 C   0  0  0  0  0  0  0  0  0  0  0  0
    4.7007    0.8190    1.2192 C   0  0  0  0  0  0  0  0  0  0  0  0
    3.3655    0.4287    1.3490 C   0  0  0  0  0  0  0  0  0  0  0  0
   -1.4575   -1.4822    1.0859 N   0  0  0  0  0  0  0  0  0  0  0  0
   -2.8191   -1.4547    1.2597 N   0  0  0  0  0  0  0  0  0  0  0  0
   -3.3296   -0.5932    0.4024 C   0  0  0  0  0  0  0  0  0  0  0  0
   -4.7275   -0.3031    0.3205 C   0  0  0  0  0  0  0  0  0  0  0  0
   -5.3511    1.2925    0.3506 S   0  0  0  0  0  0  0  0  0  0  0  0
   -6.9429    0.6763    0.2337 C   0  0  0  0  0  0  0  0  0  0  0  0
   -8.0125    1.4903    0.1949 N   0  0  0  0  0  0  0  0  0  0  0  0
   -7.0413   -0.6273    0.2099 N   0  0  0  0  0  0  0  0  0  0  0  0
   -5.7800   -1.2053    0.2833 C   0  0  0  0  0  0  0  0  0  0  0  0
   -5.6912   -2.6909    0.2961 C   0  0  0  0  0  0  0  0  0  0  0  0
   -1.7441    2.3172    0.8090 H   0  0  0  0  0  0  0  0  0  0  0  0
   -1.7306    3.9305   -0.0924 H   0  0  0  0  0  0  0  0  0  0  0  0
   -2.3041    2.8837   -2.1625 H   0  0  0  0  0  0  0  0  0  0  0  0
   -3.4367    0.6458   -1.9584 H   0  0  0  0  0  0  0  0  0  0  0  0
   -1.7370    0.4275   -2.2979 H   0  0  0  0  0  0  0  0  0  0  0  0
    1.3414   -2.1937    0.7293 H   0  0  0  0  0  0  0  0  0  0  0  0
    1.0671   -0.8080    1.7872 H   0  0  0  0  0  0  0  0  0  0  0  0
    3.4023   -2.2930   -0.7062 H   0  0  0  0  0  0  0  0  0  0  0  0
    5.7525   -1.6081   -0.9367 H   0  0  0  0  0  0  0  0  0  0  0  0
    9.5866    0.0826    0.2253 H   0  0  0  0  0  0  0  0  0  0  0  0
    9.5162   -0.4938   -1.4508 H   0  0  0  0  0  0  0  0  0  0  0  0
    9.1044    1.1963   -1.1092 H   0  0  0  0  0  0  0  0  0  0  0  0
    5.0561    1.6964    1.7587 H   0  0  0  0  0  0  0  0  0  0  0  0
    2.7021    1.0123    1.9843 H   0  0  0  0  0  0  0  0  0  0  0  0
   -7.9085    2.3916    0.6459 H   0  0  0  0  0  0  0  0  0  0  0  0
   -8.8830    1.0286    0.4367 H   0  0  0  0  0  0  0  0  0  0  0  0
   -5.2352   -3.0452    1.2252 H   0  0  0  0  0  0  0  0  0  0  0  0
   -6.6852   -3.1411    0.2180 H   0  0  0  0  0  0  0  0  0  0  0  0
   -5.0915   -3.0489   -0.5475 H   0  0  0  0  0  0  0  0  0  0  0  0
  1  2  2  0
  2  3  1  0
  3  4  1  0
  4  5  1  0
  5  6  1  0
  6  7  1  0
  7  8  1  0
  8  9  2  0
  9 10  1  0
 10 11  2  0
 11 12  1  0
 12 13  2  0
 12 14  1  0
 14 15  1  0
 11 16  1  0
 16 17  2  0
  5 18  2  0
 18 19  1  0
 19 20  2  0
 20 21  1  0
 21 22  1  0
 22 23  1  0
 23 24  1  0
 23 25  2  0
 25 26  1  0
 26 27  1  0
 20  4  1  0
 26 21  2  0
 17  8  1  0
  1 28  1  0
  1 29  1  0
  2 30  1  0
  3 31  1  0
  3 32  1  0
  7 33  1  0
  7 34  1  0
  9 35  1  0
 10 36  1  0
 15 37  1  0
 15 38  1  0
 15 39  1  0
 16 40  1  0
 17 41  1  0
 24 42  1  0
 24 43  1  0
 27 44  1  0
 27 45  1  0
 27 46  1  0
M  END
$$$$
