
     RDKit          3D

 50 52  0  0  0  0  0  0  0  0999 V2000
    4.5334    0.0725    5.3027 C   0  0  0  0  0  0  0  0  0  0  0  0
    5.7984    0.5757    4.7957 N   0  0  0  0  0  0  0  0  0  0  0  0
    6.6830   -0.3050    3.6832 S   0  0  0  0  0  6  0  0  0  0  0  0
    6.8805   -1.6354    4.2137 O   0  0  0  0  0  0  0  0  0  0  0  0
    7.7909    0.5312    3.2796 O   0  0  0  0  0  0  0  0  0  0  0  0
    5.5619   -0.4177    2.3079 C   0  0  0  0  0  0  0  0  0  0  0  0
    5.4119    0.6808    1.4570 C   0  0  0  0  0  0  0  0  0  0  0  0
    4.5401    0.5924    0.3694 C   0  0  0  0  0  0  0  0  0  0  0  0
    3.8220   -0.5887    0.1287 C   0  0  0  0  0  0  0  0  0  0  0  0
    2.9048   -0.6298   -1.0463 C   0  0  0  0  0  0  0  0  0  0  0  0
    3.0438    0.1642   -1.9703 O   0  0  0  0  0  0  0  0  0  0  0  0
    1.8902   -1.5644   -1.0064 N   0  0  0  0  0  0  0  0  0  0  0  0
    0.8291   -1.5107   -1.9944 C   0  0  0  0  0  0  0  0  0  0  0  0
   -0.3124   -0.6480   -1.4510 C   0  0  0  0  0  0  0  0  0  0  0  0
   -0.6441   -0.6713   -0.2663 O   0  0  0  0  0  0  0  0  0  0  0  0
   -0.9662    0.1076   -2.3997 N   0  0  0  0  0  0  0  0  0  0  0  0
   -2.0199    1.0418   -2.0402 C   0  0  0  0  0  0  0  0  0  0  0  0
   -3.4350    0.4666   -2.1808 C   0  0  0  0  0  0  0  0  0  0  0  0
   -3.7773   -0.5278   -1.0730 C   0  0  0  0  0  0  0  0  0  0  0  0
   -5.0825   -1.0880   -1.2816 O   0  0  0  0  0  0  0  0  0  0  0  0
   -6.0018   -0.1214   -1.5936 C   0  0  0  0  0  0  0  0  0  0  0  0
   -7.3453   -0.4804   -1.5017 C   0  0  0  0  0  0  0  0  0  0  0  0
   -8.3375    0.4597   -1.7843 C   0  0  0  0  0  0  0  0  0  0  0  0
   -7.9844    1.7565   -2.1613 C   0  0  0  0  0  0  0  0  0  0  0  0
   -6.6385    2.1117   -2.2666 C   0  0  0  0  0  0  0  0  0  0  0  0
   -5.6482    1.1685   -1.9976 C   0  0  0  0  0  0  0  0  0  0  0  0
   -4.3494    1.5800   -2.1426 O   0  0  0  0  0  0  0  0  0  0  0  0
    4.0039   -1.6948    0.9723 C   0  0  0  0  0  0  0  0  0  0  0  0
    4.8739   -1.6100    2.0635 C   0  0  0  0  0  0  0  0  0  0  0  0
    4.5194   -1.0188    5.3601 H   0  0  0  0  0  0  0  0  0  0  0  0
    4.3740    0.4624    6.3121 H   0  0  0  0  0  0  0  0  0  0  0  0
    3.7110    0.4157    4.6697 H   0  0  0  0  0  0  0  0  0  0  0  0
    5.9904    1.5751    4.8113 H   0  0  0  0  0  0  0  0  0  0  0  0
    5.9715    1.5979    1.6271 H   0  0  0  0  0  0  0  0  0  0  0  0
    4.4233    1.4470   -0.2956 H   0  0  0  0  0  0  0  0  0  0  0  0
    1.6114   -1.9115   -0.0964 H   0  0  0  0  0  0  0  0  0  0  0  0
    0.4511   -2.5269   -2.1391 H   0  0  0  0  0  0  0  0  0  0  0  0
    1.2027   -1.1232   -2.9464 H   0  0  0  0  0  0  0  0  0  0  0  0
   -0.5342    0.2139   -3.3109 H   0  0  0  0  0  0  0  0  0  0  0  0
   -1.8562    1.4184   -1.0234 H   0  0  0  0  0  0  0  0  0  0  0  0
   -1.9083    1.9047   -2.7077 H   0  0  0  0  0  0  0  0  0  0  0  0
   -3.5394   -0.0115   -3.1649 H   0  0  0  0  0  0  0  0  0  0  0  0
   -3.7571   -0.0580   -0.0816 H   0  0  0  0  0  0  0  0  0  0  0  0
   -3.0776   -1.3680   -1.0681 H   0  0  0  0  0  0  0  0  0  0  0  0
   -7.6183   -1.4876   -1.1996 H   0  0  0  0  0  0  0  0  0  0  0  0
   -9.3856    0.1821   -1.7060 H   0  0  0  0  0  0  0  0  0  0  0  0
   -8.7575    2.4899   -2.3764 H   0  0  0  0  0  0  0  0  0  0  0  0
   -6.3631    3.1186   -2.5674 H   0  0  0  0  0  0  0  0  0  0  0  0
    3.5001   -2.6382    0.7798 H   0  0  0  0  0  0  0  0  0  0  0  0
    5.0171   -2.4759    2.7072 H   0  0  0  0  0  0  0  0  0  0  0  0
  1  2  1  0
  2  3  1  0
  3  4  2  0
  3  5  2  0
  3  6  1  0
  6  7  2  0
  7  8  1  0
  8  9  2  0
  9 10  1  0
 10 11  2  0
 10 12  1  0
 12 13  1  0
 13 14  1  0
 14 15  2  0
 14 16  1  0
 16 17  1  0
 17 18  1  0
 18 19  1  0
 19 20  1  0
 20 21  1  0
 21 22  2  0
 22 23  1  0
 23 24  2  0
 24 25  1  0
 25 26  2  0
 26 27  1  0
  9 28  1  0
 28 29  2  0
 29  6  1  0
 27 18  1  0
 26 21  1  0
  1 30  1  0
  1 31  1  0
  1 32  1  0
  2 33  1  0
  7 34  1  0
  8 35  1  0
 12 36  1  0
 13 37  1  0
 13 38  1  0
 16 39  1  0
 17 40  1  0
 17 41  1  0
 18 42  1  0
 19 43  1  0
 19 44  1  0
 22 45  1  0
 23 46  1  0
 24 47  1  0
 25 48  1  0
 28 49  1  0
 29 50  1  0
M  END
$$$$
