
     RDKit          3D

 36 38  0  0  0  0  0  0  0  0999 V2000
   -5.7471    0.4440    0.0019 C   0  0  0  0  0  0  0  0  0  0  0  0
   -4.2685    0.7113   -0.0134 C   0  0  0  0  0  0  0  0  0  0  0  0
   -3.7928    2.0132   -0.2512 C   0  0  0  0  0  0  0  0  0  0  0  0
   -2.4237    2.2746   -0.2969 C   0  0  0  0  0  0  0  0  0  0  0  0
   -1.5444    1.2181   -0.1149 C   0  0  0  0  0  0  0  0  0  0  0  0
   -1.9890   -0.1020    0.1097 C   0  0  0  0  0  0  0  0  0  0  0  0
   -3.3585   -0.3481    0.1550 C   0  0  0  0  0  0  0  0  0  0  0  0
   -0.9431   -1.0411    0.2584 N   0  0  0  0  0  0  0  0  0  0  0  0
   -1.2711   -2.3885    0.6928 C   0  0  0  0  0  0  0  0  0  0  0  0
    0.3110   -0.4285    0.2143 C   0  0  0  0  0  0  0  0  0  0  0  0
    1.5040   -1.0323    0.3737 C   0  0  0  0  0  0  0  0  0  0  0  0
    2.8079   -0.3645    0.3217 C   0  0  0  0  0  0  0  0  0  0  0  0
    3.3879    0.1012    1.5078 C   0  0  0  0  0  0  0  0  0  0  0  0
    4.6141    0.7516    1.4733 C   0  0  0  0  0  0  0  0  0  0  0  0
    5.2467    0.9339    0.2541 C   0  0  0  0  0  0  0  0  0  0  0  0
    4.6453    0.4591   -0.9047 C   0  0  0  0  0  0  0  0  0  0  0  0
    3.4548   -0.1862   -0.8635 N   0  0  0  0  0  4  0  0  0  0  0  0
    2.8657   -0.6640   -2.1313 C   0  0  0  0  0  0  0  0  0  0  0  0
    0.2388    1.3301   -0.1153 S   0  0  0  0  0  0  0  0  0  0  0  0
   -5.9862   -0.3872    0.6736 H   0  0  0  0  0  0  0  0  0  0  0  0
   -6.2988    1.3194    0.3603 H   0  0  0  0  0  0  0  0  0  0  0  0
   -6.0920    0.1960   -1.0065 H   0  0  0  0  0  0  0  0  0  0  0  0
   -4.4951    2.8323   -0.3980 H   0  0  0  0  0  0  0  0  0  0  0  0
   -2.0636    3.2837   -0.4691 H   0  0  0  0  0  0  0  0  0  0  0  0
   -3.7437   -1.3497    0.3183 H   0  0  0  0  0  0  0  0  0  0  0  0
   -1.6622   -2.3808    1.7161 H   0  0  0  0  0  0  0  0  0  0  0  0
   -2.0128   -2.8481    0.0302 H   0  0  0  0  0  0  0  0  0  0  0  0
   -0.3998   -3.0499    0.6767 H   0  0  0  0  0  0  0  0  0  0  0  0
    1.5614   -2.0964    0.5770 H   0  0  0  0  0  0  0  0  0  0  0  0
    2.8777   -0.0301    2.4611 H   0  0  0  0  0  0  0  0  0  0  0  0
    5.0668    1.1222    2.3919 H   0  0  0  0  0  0  0  0  0  0  0  0
    6.2036    1.4498    0.2050 H   0  0  0  0  0  0  0  0  0  0  0  0
    5.1145    0.5953   -1.8754 H   0  0  0  0  0  0  0  0  0  0  0  0
    3.6173   -0.6275   -2.9243 H   0  0  0  0  0  0  0  0  0  0  0  0
    2.0298   -0.0098   -2.3874 H   0  0  0  0  0  0  0  0  0  0  0  0
    2.5450   -1.7010   -2.0038 H   0  0  0  0  0  0  0  0  0  0  0  0
  1  2  1  0
  2  3  2  0
  3  4  1  0
  4  5  2  0
  5  6  1  0
  6  7  2  0
  6  8  1  0
  8  9  1  0
  8 10  1  0
 10 11  2  3
 11 12  1  0
 12 13  2  0
 13 14  1  0
 14 15  2  0
 15 16  1  0
 16 17  2  0
 17 18  1  0
 10 19  1  0
  7  2  1  0
 17 12  1  0
 19  5  1  0
  1 20  1  0
  1 21  1  0
  1 22  1  0
  3 23  1  0
  4 24  1  0
  7 25  1  0
  9 26  1  0
  9 27  1  0
  9 28  1  0
 11 29  1  0
 13 30  1  0
 14 31  1  0
 15 32  1  0
 16 33  1  0
 18 34  1  0
 18 35  1  0
 18 36  1  0
M  CHG  1  17   1
M  END
$$$$
