
     RDKit          3D

 36 37  0  0  0  0  0  0  0  0999 V2000
    4.1296    2.0074    0.4180 C   0  0  0  0  0  0  0  0  0  0  0  0
    4.5865    0.6310    0.1644 N   0  0  0  0  0  0  0  0  0  0  0  0
    4.6605   -0.1933    1.3820 C   0  0  0  0  0  0  0  0  0  0  0  0
    4.0199   -0.1252   -1.2494 S   0  0  0  0  0  6  0  0  0  0  0  0
    4.6428   -1.4280   -1.3505 O   0  0  0  0  0  0  0  0  0  0  0  0
    4.0950    0.8263   -2.3377 O   0  0  0  0  0  0  0  0  0  0  0  0
    2.2906   -0.3923   -0.8993 C   0  0  0  0  0  0  0  0  0  0  0  0
    1.3525    0.5788   -1.2640 C   0  0  0  0  0  0  0  0  0  0  0  0
   -0.0054    0.3562   -1.0172 C   0  0  0  0  0  0  0  0  0  0  0  0
   -0.4275   -0.8416   -0.4198 C   0  0  0  0  0  0  0  0  0  0  0  0
   -1.8606   -1.1297   -0.1403 C   0  0  0  0  0  0  0  0  0  0  0  0
   -2.2692   -2.2016    0.2759 O   0  0  0  0  0  0  0  0  0  0  0  0
   -2.6237   -0.0406   -0.3903 O   0  0  0  0  0  0  0  0  0  0  0  0
   -4.0196   -0.2333   -0.2003 C   0  0  0  0  0  0  0  0  0  0  0  0
   -4.4233   -0.1638    1.2546 C   0  0  0  0  0  0  0  0  0  0  0  0
   -5.8658    0.2572    1.1555 C   0  0  0  0  0  0  0  0  0  0  0  0
   -5.9264    1.1347    0.0300 O   0  0  0  0  0  0  0  0  0  0  0  0
   -4.8380    0.9079   -0.7709 C   0  0  0  0  0  0  0  0  0  0  0  0
   -4.5971    1.5379   -1.7884 O   0  0  0  0  0  0  0  0  0  0  0  0
    0.5212   -1.8194   -0.0834 C   0  0  0  0  0  0  0  0  0  0  0  0
    1.8793   -1.6000   -0.3276 C   0  0  0  0  0  0  0  0  0  0  0  0
    4.7854    2.4821    1.1554 H   0  0  0  0  0  0  0  0  0  0  0  0
    4.1809    2.6165   -0.4885 H   0  0  0  0  0  0  0  0  0  0  0  0
    3.1078    2.0173    0.8073 H   0  0  0  0  0  0  0  0  0  0  0  0
    5.3115    0.2931    2.1160 H   0  0  0  0  0  0  0  0  0  0  0  0
    3.6713   -0.3230    1.8298 H   0  0  0  0  0  0  0  0  0  0  0  0
    5.0977   -1.1732    1.1723 H   0  0  0  0  0  0  0  0  0  0  0  0
    1.6672    1.5019   -1.7475 H   0  0  0  0  0  0  0  0  0  0  0  0
   -0.7237    1.1196   -1.3112 H   0  0  0  0  0  0  0  0  0  0  0  0
   -4.3674   -1.1531   -0.6886 H   0  0  0  0  0  0  0  0  0  0  0  0
   -4.2937   -1.1075    1.7916 H   0  0  0  0  0  0  0  0  0  0  0  0
   -3.8311    0.5971    1.7785 H   0  0  0  0  0  0  0  0  0  0  0  0
   -6.1986    0.7865    2.0529 H   0  0  0  0  0  0  0  0  0  0  0  0
   -6.5355   -0.5902    0.9739 H   0  0  0  0  0  0  0  0  0  0  0  0
    0.2040   -2.7617    0.3615 H   0  0  0  0  0  0  0  0  0  0  0  0
    2.6031   -2.3741   -0.0798 H   0  0  0  0  0  0  0  0  0  0  0  0
  1  2  1  0
  2  3  1  0
  2  4  1  0
  4  5  2  0
  4  6  2  0
  4  7  1  0
  7  8  2  0
  8  9  1  0
  9 10  2  0
 10 11  1  0
 11 12  2  0
 11 13  1  0
 13 14  1  0
 14 15  1  0
 15 16  1  0
 16 17  1  0
 17 18  1  0
 18 19  2  0
 10 20  1  0
 20 21  2  0
 21  7  1  0
 18 14  1  0
  1 22  1  0
  1 23  1  0
  1 24  1  0
  3 25  1  0
  3 26  1  0
  3 27  1  0
  8 28  1  0
  9 29  1  0
 14 30  1  0
 15 31  1  0
 15 32  1  0
 16 33  1  0
 16 34  1  0
 20 35  1  0
 21 36  1  0
M  END
$$$$
