
     RDKit          3D

 21 21  0  0  0  0  0  0  0  0999 V2000
   -3.5592    3.1866   -0.0192 C   0  0  0  0  0  3  0  0  0  0  0  0
   -2.8183    2.3311   -0.3183 N   0  0  0  0  0  4  0  0  0  0  0  0
   -1.8995    1.2657   -0.6966 C   0  0  0  0  0  0  0  0  0  0  0  0
   -1.0264    0.7048    0.1430 C   0  0  0  0  0  0  0  0  0  0  0  0
   -0.2646   -0.3147   -0.5305 C   0  0  0  0  0  0  0  0  0  0  0  0
    0.7075   -1.0879   -0.0253 C   0  0  0  0  0  0  0  0  0  0  0  0
    1.2517   -1.0762    1.3773 C   0  0  0  0  0  0  0  0  0  0  0  0
    2.7289   -0.7369    1.3911 C   0  0  0  0  0  0  0  0  0  0  0  0
    3.4966   -0.6853    0.4446 O   0  0  0  0  0  0  0  0  0  0  0  0
    3.1809   -0.5117    2.6432 O   0  0  0  0  0  0  0  0  0  0  0  0
   -0.7482   -0.3766   -1.9619 C   0  0  0  0  0  0  0  0  0  0  0  0
   -1.8423    0.6923   -2.0699 C   0  0  0  0  0  0  0  0  0  0  0  0
   -0.9140    0.9841    1.1800 H   0  0  0  0  0  0  0  0  0  0  0  0
    1.1829   -1.8092   -0.6912 H   0  0  0  0  0  0  0  0  0  0  0  0
    0.7296   -0.3516    2.0083 H   0  0  0  0  0  0  0  0  0  0  0  0
    1.1276   -2.0721    1.8156 H   0  0  0  0  0  0  0  0  0  0  0  0
    4.1338   -0.3172    2.5177 H   0  0  0  0  0  0  0  0  0  0  0  0
    0.0672   -0.1630   -2.6625 H   0  0  0  0  0  0  0  0  0  0  0  0
   -1.1559   -1.3668   -2.1956 H   0  0  0  0  0  0  0  0  0  0  0  0
   -1.5766    1.4563   -2.8078 H   0  0  0  0  0  0  0  0  0  0  0  0
   -2.8014    0.2482   -2.3554 H   0  0  0  0  0  0  0  0  0  0  0  0
  1  2  3  0
  2  3  1  0
  3  4  2  0
  4  5  1  0
  5  6  2  3
  6  7  1  0
  7  8  1  0
  8  9  2  0
  8 10  1  0
  5 11  1  0
 11 12  1  0
 12  3  1  0
  4 13  1  0
  6 14  1  0
  7 15  1  0
  7 16  1  0
 10 17  1  0
 11 18  1  0
 11 19  1  0
 12 20  1  0
 12 21  1  0
M  CHG  2   1  -1   2   1
M  END
$$$$
