
     RDKit          3D

 68 70  0  0  0  0  0  0  0  0999 V2000
   -6.0727    4.4338    1.0352 C   0  0  0  0  0  0  0  0  0  0  0  0
   -6.0332    3.0883    1.4932 O   0  0  0  0  0  0  0  0  0  0  0  0
   -5.0950    2.2727    0.9233 C   0  0  0  0  0  0  0  0  0  0  0  0
   -4.2091    2.6250   -0.0912 C   0  0  0  0  0  0  0  0  0  0  0  0
   -3.2884    1.6897   -0.5760 C   0  0  0  0  0  0  0  0  0  0  0  0
   -3.2299    0.3839   -0.0554 C   0  0  0  0  0  0  0  0  0  0  0  0
   -2.1543   -0.5626   -0.5801 C   0  0  0  0  0  0  0  0  0  0  0  0
   -2.4784   -2.0902   -0.4899 C   0  0  0  0  0  0  0  0  0  0  0  0
   -3.6216   -2.5435   -0.4735 O   0  0  0  0  0  0  0  0  0  0  0  0
   -1.3564   -2.9086   -0.5481 N   0  0  0  0  0  0  0  0  0  0  0  0
   -1.3851   -4.3766   -0.6241 C   0  0  0  0  0  0  0  0  0  0  0  0
   -2.0241   -4.8416   -1.9421 C   0  0  0  0  0  0  0  0  0  0  0  0
    0.0717   -4.8734   -0.5729 C   0  0  0  0  0  0  0  0  0  0  0  0
   -2.1354   -4.9877    0.5719 C   0  0  0  0  0  0  0  0  0  0  0  0
   -0.8082   -0.2508   -0.0207 N   0  0  0  0  0  0  0  0  0  0  0  0
   -0.6599   -0.2262    1.4397 C   0  0  0  0  0  0  0  0  0  0  0  0
   -0.8912    1.1335    2.0033 C   0  0  0  0  0  0  0  0  0  0  0  0
   -1.5907    1.5833    3.1053 C   0  0  0  0  0  0  0  0  0  0  0  0
   -1.4509    2.9917    3.1263 C   0  0  0  0  0  0  0  0  0  0  0  0
   -0.6737    3.3131    2.0417 C   0  0  0  0  0  0  0  0  0  0  0  0
   -0.3217    2.1937    1.3596 O   0  0  0  0  0  0  0  0  0  0  0  0
    0.2573   -0.1322   -0.8996 C   0  0  0  0  0  0  0  0  0  0  0  0
    0.1132   -0.3417   -2.1072 O   0  0  0  0  0  0  0  0  0  0  0  0
    1.6354    0.1634   -0.3356 C   0  0  0  0  0  0  0  0  0  0  0  0
    2.6246    0.5074   -1.4466 C   0  0  0  0  0  0  0  0  0  0  0  0
    4.0253    0.7232   -0.9119 C   0  0  0  0  0  0  0  0  0  0  0  0
    4.3140    0.5419    0.2666 O   0  0  0  0  0  0  0  0  0  0  0  0
    4.8926    1.1177   -1.9065 N   0  0  0  0  0  0  0  0  0  0  0  0
    6.2317    1.3880   -1.7369 C   0  0  0  0  0  0  0  0  0  0  0  0
    7.0237    1.3185   -0.5703 C   0  0  0  0  0  0  0  0  0  0  0  0
    8.2774    1.6996   -0.9824 C   0  0  0  0  0  0  0  0  0  0  0  0
    9.5793    1.8603   -0.3117 C   0  0  0  0  0  0  0  0  0  0  0  0
    8.2435    1.9814   -2.3120 O   0  0  0  0  0  0  0  0  0  0  0  0
    6.9610    1.7824   -2.7881 N   0  0  0  0  0  0  0  0  0  0  0  0
   -4.1272    0.0426    0.9650 C   0  0  0  0  0  0  0  0  0  0  0  0
   -5.0535    0.9770    1.4396 C   0  0  0  0  0  0  0  0  0  0  0  0
   -6.8441    4.9579    1.6070 H   0  0  0  0  0  0  0  0  0  0  0  0
   -6.3501    4.4828   -0.0231 H   0  0  0  0  0  0  0  0  0  0  0  0
   -5.1209    4.9428    1.2204 H   0  0  0  0  0  0  0  0  0  0  0  0
   -4.1967    3.6184   -0.5243 H   0  0  0  0  0  0  0  0  0  0  0  0
   -2.5932    1.9939   -1.3577 H   0  0  0  0  0  0  0  0  0  0  0  0
   -2.1265   -0.3926   -1.6658 H   0  0  0  0  0  0  0  0  0  0  0  0
   -0.5454   -2.4597   -0.9619 H   0  0  0  0  0  0  0  0  0  0  0  0
   -3.0835   -4.5677   -1.9991 H   0  0  0  0  0  0  0  0  0  0  0  0
   -1.5259   -4.3877   -2.8069 H   0  0  0  0  0  0  0  0  0  0  0  0
   -1.9611   -5.9289   -2.0477 H   0  0  0  0  0  0  0  0  0  0  0  0
    0.5645   -4.5503    0.3545 H   0  0  0  0  0  0  0  0  0  0  0  0
    0.1212   -5.9663   -0.6195 H   0  0  0  0  0  0  0  0  0  0  0  0
    0.6611   -4.4733   -1.4076 H   0  0  0  0  0  0  0  0  0  0  0  0
   -2.0419   -6.0803    0.5806 H   0  0  0  0  0  0  0  0  0  0  0  0
   -1.7355   -4.6103    1.5197 H   0  0  0  0  0  0  0  0  0  0  0  0
   -3.2056   -4.7578    0.5510 H   0  0  0  0  0  0  0  0  0  0  0  0
   -1.3578   -0.9485    1.8774 H   0  0  0  0  0  0  0  0  0  0  0  0
    0.3424   -0.5597    1.7217 H   0  0  0  0  0  0  0  0  0  0  0  0
   -2.1487    0.9716    3.7991 H   0  0  0  0  0  0  0  0  0  0  0  0
   -1.8720    3.6870    3.8387 H   0  0  0  0  0  0  0  0  0  0  0  0
   -0.2975    4.2434    1.6396 H   0  0  0  0  0  0  0  0  0  0  0  0
    1.9779   -0.7295    0.1996 H   0  0  0  0  0  0  0  0  0  0  0  0
    1.5917    0.9957    0.3695 H   0  0  0  0  0  0  0  0  0  0  0  0
    2.6717   -0.3037   -2.1842 H   0  0  0  0  0  0  0  0  0  0  0  0
    2.2978    1.4173   -1.9649 H   0  0  0  0  0  0  0  0  0  0  0  0
    4.5677    1.2462   -2.8552 H   0  0  0  0  0  0  0  0  0  0  0  0
    6.7292    1.0333    0.4293 H   0  0  0  0  0  0  0  0  0  0  0  0
   10.3560    1.2979   -0.8377 H   0  0  0  0  0  0  0  0  0  0  0  0
    9.5364    1.4979    0.7190 H   0  0  0  0  0  0  0  0  0  0  0  0
    9.8717    2.9146   -0.2924 H   0  0  0  0  0  0  0  0  0  0  0  0
   -4.1259   -0.9513    1.4082 H   0  0  0  0  0  0  0  0  0  0  0  0
   -5.7474    0.6899    2.2251 H   0  0  0  0  0  0  0  0  0  0  0  0
  1  2  1  0
  2  3  1  0
  3  4  2  0
  4  5  1  0
  5  6  2  0
  6  7  1  0
  7  8  1  0
  8  9  2  0
  8 10  1  0
 10 11  1  0
 11 12  1  0
 11 13  1  0
 11 14  1  0
  7 15  1  0
 15 16  1  0
 16 17  1  0
 17 18  2  0
 18 19  1  0
 19 20  2  0
 20 21  1  0
 15 22  1  0
 22 23  2  0
 22 24  1  0
 24 25  1  0
 25 26  1  0
 26 27  2  0
 26 28  1  0
 28 29  1  0
 29 30  1  0
 30 31  2  0
 31 32  1  0
 31 33  1  0
 33 34  1  0
  6 35  1  0
 35 36  2  0
 36  3  1  0
 21 17  1  0
 34 29  2  0
  1 37  1  0
  1 38  1  0
  1 39  1  0
  4 40  1  0
  5 41  1  0
  7 42  1  0
 10 43  1  0
 12 44  1  0
 12 45  1  0
 12 46  1  0
 13 47  1  0
 13 48  1  0
 13 49  1  0
 14 50  1  0
 14 51  1  0
 14 52  1  0
 16 53  1  0
 16 54  1  0
 18 55  1  0
 19 56  1  0
 20 57  1  0
 24 58  1  0
 24 59  1  0
 25 60  1  0
 25 61  1  0
 28 62  1  0
 30 63  1  0
 32 64  1  0
 32 65  1  0
 32 66  1  0
 35 67  1  0
 36 68  1  0
M  END
$$$$
