
     RDKit          3D

 57 62  0  0  0  0  0  0  0  0999 V2000
    5.6613   -0.7416   -0.2257 C   0  0  0  0  0  0  0  0  0  0  0  0
    5.5791   -0.8929   -1.6374 O   0  0  0  0  0  0  0  0  0  0  0  0
    4.3269   -1.0387   -2.1722 C   0  0  0  0  0  0  0  0  0  0  0  0
    4.3066   -1.1424   -3.5783 C   0  0  0  0  0  0  0  0  0  0  0  0
    3.1079   -1.2914   -4.2814 C   0  0  0  0  0  0  0  0  0  0  0  0
    1.9464   -1.3355   -3.5431 C   0  0  0  0  0  0  0  0  0  0  0  0
    1.9399   -1.2374   -2.1493 C   0  0  0  0  0  0  0  0  0  0  0  0
    3.1317   -1.0897   -1.4476 C   0  0  0  0  0  0  0  0  0  0  0  0
    0.5185   -1.3332   -1.6668 C   0  0  0  0  0  0  0  0  0  0  0  0
    0.2664   -2.4919   -0.7314 N   0  0  0  0  0  0  0  0  0  0  0  0
   -0.6192   -2.0042    0.3997 C   0  0  2  0  0  0  0  0  0  0  0  0
   -2.0633   -2.4852    0.1639 C   0  0  0  0  0  0  0  0  0  0  0  0
   -3.0029   -2.2152    1.3189 C   0  0  0  0  0  0  0  0  0  0  0  0
   -4.0117   -1.2491    1.1993 C   0  0  0  0  0  0  0  0  0  0  0  0
   -4.8819   -0.9980    2.2612 C   0  0  0  0  0  0  0  0  0  0  0  0
   -4.7533   -1.7105    3.4518 C   0  0  0  0  0  0  0  0  0  0  0  0
   -3.7559   -2.6755    3.5808 C   0  0  0  0  0  0  0  0  0  0  0  0
   -2.8852   -2.9286    2.5195 C   0  0  0  0  0  0  0  0  0  0  0  0
   -0.4362   -0.5375    0.3255 C   0  0  0  0  0  0  0  0  0  0  0  0
    0.1784   -0.1524   -0.8628 C   0  0  0  0  0  0  0  0  0  0  0  0
    0.2917    1.2122   -0.8813 C   0  0  0  0  0  0  0  0  0  0  0  0
    0.8869    1.9749   -1.7969 O   0  0  0  0  0  0  0  0  0  0  0  0
   -0.2774    1.6869    0.3161 N   0  0  0  0  0  0  0  0  0  0  0  0
   -0.4029    3.0554    0.6964 C   0  0  0  0  0  0  0  0  0  0  0  0
   -0.7442    4.0200   -0.2615 C   0  0  0  0  0  0  0  0  0  0  0  0
   -0.8704    5.3590    0.1123 C   0  0  0  0  0  0  0  0  0  0  0  0
   -0.6558    5.7391    1.4364 C   0  0  0  0  0  0  0  0  0  0  0  0
   -0.3173    4.7819    2.3921 C   0  0  0  0  0  0  0  0  0  0  0  0
   -0.1924    3.4402    2.0271 C   0  0  0  0  0  0  0  0  0  0  0  0
   -0.6918    0.5776    1.0752 C   0  0  0  0  0  0  0  0  0  0  0  0
   -1.2871    0.6500    2.2630 O   0  0  0  0  0  0  0  0  0  0  0  0
   -0.2848   -1.4634   -2.9929 C   0  0  0  0  0  0  0  0  0  0  0  0
   -1.4936   -1.5478   -3.1558 O   0  0  0  0  0  0  0  0  0  0  0  0
    0.6539   -1.4740   -4.0291 N   0  0  0  0  0  0  0  0  0  0  0  0
    6.7167   -0.6199    0.0364 H   0  0  0  0  0  0  0  0  0  0  0  0
    5.1299    0.1561    0.1073 H   0  0  0  0  0  0  0  0  0  0  0  0
    5.2915   -1.6347    0.2886 H   0  0  0  0  0  0  0  0  0  0  0  0
    5.2459   -1.1017   -4.1262 H   0  0  0  0  0  0  0  0  0  0  0  0
    3.1039   -1.3669   -5.3622 H   0  0  0  0  0  0  0  0  0  0  0  0
    3.1032   -1.0069   -0.3679 H   0  0  0  0  0  0  0  0  0  0  0  0
    1.1652   -2.7041   -0.3034 H   0  0  0  0  0  0  0  0  0  0  0  0
   -0.2231   -2.3995    1.3422 H   0  0  0  0  0  0  0  0  0  0  0  0
   -2.0653   -3.5697   -0.0129 H   0  0  0  0  0  0  0  0  0  0  0  0
   -2.4772   -2.0367   -0.7480 H   0  0  0  0  0  0  0  0  0  0  0  0
   -4.1217   -0.6849    0.2756 H   0  0  0  0  0  0  0  0  0  0  0  0
   -5.6610   -0.2480    2.1570 H   0  0  0  0  0  0  0  0  0  0  0  0
   -5.4314   -1.5159    4.2779 H   0  0  0  0  0  0  0  0  0  0  0  0
   -3.6565   -3.2332    4.5080 H   0  0  0  0  0  0  0  0  0  0  0  0
   -2.1162   -3.6886    2.6340 H   0  0  0  0  0  0  0  0  0  0  0  0
    1.1335    2.8264   -1.3943 H   0  0  0  0  0  0  0  0  0  0  0  0
   -0.9638    3.7441   -1.2917 H   0  0  0  0  0  0  0  0  0  0  0  0
   -1.1485    6.1059   -0.6279 H   0  0  0  0  0  0  0  0  0  0  0  0
   -0.7549    6.7830    1.7246 H   0  0  0  0  0  0  0  0  0  0  0  0
   -0.1421    5.0831    3.4224 H   0  0  0  0  0  0  0  0  0  0  0  0
    0.1130    2.7212    2.7851 H   0  0  0  0  0  0  0  0  0  0  0  0
   -1.7987    1.4773    2.3078 H   0  0  0  0  0  0  0  0  0  0  0  0
    0.3892   -1.5474   -4.9988 H   0  0  0  0  0  0  0  0  0  0  0  0
  1  2  1  0
  2  3  1  0
  3  4  2  0
  4  5  1  0
  5  6  2  0
  6  7  1  0
  7  8  2  0
  7  9  1  0
  9 10  1  0
 10 11  1  0
 11 12  1  0
 12 13  1  0
 13 14  2  0
 14 15  1  0
 15 16  2  0
 16 17  1  0
 17 18  2  0
 11 19  1  0
 19 20  1  0
 20 21  2  0
 21 22  1  0
 21 23  1  0
 23 24  1  0
 24 25  2  0
 25 26  1  0
 26 27  2  0
 27 28  1  0
 28 29  2  0
 23 30  1  0
 30 31  1  0
  9 32  1  0
 32 33  2  0
 32 34  1  0
  8  3  1  0
 20  9  1  0
 29 24  1  0
 34  6  1  0
 18 13  1  0
 30 19  2  0
  1 35  1  0
  1 36  1  0
  1 37  1  0
  4 38  1  0
  5 39  1  0
  8 40  1  0
 10 41  1  0
 11 42  1  1
 12 43  1  0
 12 44  1  0
 14 45  1  0
 15 46  1  0
 16 47  1  0
 17 48  1  0
 18 49  1  0
 22 50  1  0
 25 51  1  0
 26 52  1  0
 27 53  1  0
 28 54  1  0
 29 55  1  0
 31 56  1  0
 34 57  1  0
M  END
$$$$
