
     RDKit          3D

 48 50  0  0  0  0  0  0  0  0999 V2000
   -4.9134    0.5942    2.4316 C   0  0  0  0  0  0  0  0  0  0  0  0
   -4.9541    1.2389    1.1665 O   0  0  0  0  0  0  0  0  0  0  0  0
   -3.8766    1.0806    0.3343 C   0  0  0  0  0  0  0  0  0  0  0  0
   -2.7611    0.2862    0.6114 C   0  0  0  0  0  0  0  0  0  0  0  0
   -1.7035    0.1915   -0.3065 C   0  0  0  0  0  0  0  0  0  0  0  0
   -0.5297   -0.6203    0.0561 C   0  0  0  0  0  0  0  0  0  0  0  0
    0.0527   -1.5708   -0.7022 C   0  0  0  0  0  0  0  0  0  0  0  0
   -0.4227   -1.9823   -1.9779 C   0  0  0  0  0  0  0  0  0  0  0  0
   -0.8082   -2.2527   -3.0390 N   0  0  0  0  0  0  0  0  0  0  0  0
    1.2184   -2.3126   -0.1367 C   0  0  0  0  0  0  0  0  0  0  0  0
    1.2061   -3.5363   -0.1323 O   0  0  0  0  0  0  0  0  0  0  0  0
    2.2315   -1.4797    0.3093 N   0  0  0  0  0  0  0  0  0  0  0  0
    3.4594   -1.8485    0.9260 C   0  0  0  0  0  0  0  0  0  0  0  0
    3.7589   -3.1852    1.2098 C   0  0  0  0  0  0  0  0  0  0  0  0
    4.9601   -3.5283    1.8204 C   0  0  0  0  0  0  0  0  0  0  0  0
    5.8741   -2.5357    2.1563 C   0  0  0  0  0  0  0  0  0  0  0  0
    5.6239   -1.1998    1.8988 C   0  0  0  0  0  0  0  0  0  0  0  0
    6.5709   -0.3188    2.2645 N   0  0  0  0  0  0  0  0  0  0  0  0
    6.3595    0.9895    2.0263 C   0  0  0  0  0  0  0  0  0  0  0  0
    5.2205    1.4763    1.4267 C   0  0  0  0  0  0  0  0  0  0  0  0
    4.2406    0.5618    1.0501 C   0  0  0  0  0  0  0  0  0  0  0  0
    4.4066   -0.8287    1.2753 C   0  0  0  0  0  0  0  0  0  0  0  0
   -1.7579    0.9173   -1.5057 C   0  0  0  0  0  0  0  0  0  0  0  0
   -2.8729    1.7019   -1.8109 C   0  0  0  0  0  0  0  0  0  0  0  0
   -3.0112    2.4429   -2.9562 O   0  0  0  0  0  0  0  0  0  0  0  0
   -2.1555    2.1187   -4.0446 C   0  0  0  0  0  0  0  0  0  0  0  0
   -3.9274    1.7743   -0.8862 C   0  0  0  0  0  0  0  0  0  0  0  0
   -5.0019    2.5953   -1.1502 O   0  0  0  0  0  0  0  0  0  0  0  0
   -6.0079    1.8653   -1.8505 C   0  0  0  0  0  0  0  0  0  0  0  0
   -4.8885   -0.4945    2.3178 H   0  0  0  0  0  0  0  0  0  0  0  0
   -5.8318    0.8513    2.9680 H   0  0  0  0  0  0  0  0  0  0  0  0
   -4.0680    0.9495    3.0299 H   0  0  0  0  0  0  0  0  0  0  0  0
   -2.6964   -0.2719    1.5406 H   0  0  0  0  0  0  0  0  0  0  0  0
   -0.1588   -0.4282    1.0630 H   0  0  0  0  0  0  0  0  0  0  0  0
    2.1006   -0.4926    0.1479 H   0  0  0  0  0  0  0  0  0  0  0  0
    3.0784   -3.9964    0.9718 H   0  0  0  0  0  0  0  0  0  0  0  0
    5.1843   -4.5703    2.0351 H   0  0  0  0  0  0  0  0  0  0  0  0
    6.8113   -2.8135    2.6341 H   0  0  0  0  0  0  0  0  0  0  0  0
    7.1591    1.6536    2.3418 H   0  0  0  0  0  0  0  0  0  0  0  0
    5.0958    2.5394    1.2543 H   0  0  0  0  0  0  0  0  0  0  0  0
    3.3525    0.9647    0.5769 H   0  0  0  0  0  0  0  0  0  0  0  0
   -0.9165    0.8782   -2.1898 H   0  0  0  0  0  0  0  0  0  0  0  0
   -1.1293    2.4411   -3.8418 H   0  0  0  0  0  0  0  0  0  0  0  0
   -2.1949    1.0501   -4.2819 H   0  0  0  0  0  0  0  0  0  0  0  0
   -2.5089    2.6681   -4.9224 H   0  0  0  0  0  0  0  0  0  0  0  0
   -6.3809    1.0256   -1.2539 H   0  0  0  0  0  0  0  0  0  0  0  0
   -5.6419    1.5083   -2.8193 H   0  0  0  0  0  0  0  0  0  0  0  0
   -6.8453    2.5445   -2.0365 H   0  0  0  0  0  0  0  0  0  0  0  0
  1  2  1  0
  2  3  1  0
  3  4  2  0
  4  5  1  0
  5  6  1  0
  6  7  2  3
  7  8  1  0
  8  9  3  0
  7 10  1  0
 10 11  2  0
 10 12  1  0
 12 13  1  0
 13 14  2  0
 14 15  1  0
 15 16  2  0
 16 17  1  0
 17 18  2  0
 18 19  1  0
 19 20  2  0
 20 21  1  0
 21 22  2  0
  5 23  2  0
 23 24  1  0
 24 25  1  0
 25 26  1  0
 24 27  2  0
 27 28  1  0
 28 29  1  0
 27  3  1  0
 22 13  1  0
 22 17  1  0
  1 30  1  0
  1 31  1  0
  1 32  1  0
  4 33  1  0
  6 34  1  0
 12 35  1  0
 14 36  1  0
 15 37  1  0
 16 38  1  0
 19 39  1  0
 20 40  1  0
 21 41  1  0
 23 42  1  0
 26 43  1  0
 26 44  1  0
 26 45  1  0
 29 46  1  0
 29 47  1  0
 29 48  1  0
M  END
$$$$
