
     RDKit          3D

 43 44  0  0  0  0  0  0  0  0999 V2000
   -2.9177   -0.9831    2.5179 C   0  0  0  0  0  0  0  0  0  0  0  0
   -2.8228    0.3466    1.7951 C   0  0  0  0  0  0  0  0  0  0  0  0
   -3.3050    0.1904    0.3971 N   0  0  0  0  0  4  0  0  0  0  0  0
   -4.6298    0.3673    0.1599 C   0  0  0  0  0  0  0  0  0  0  0  0
   -5.1604    0.2806   -1.1255 C   0  0  0  0  0  0  0  0  0  0  0  0
   -6.6338    0.4461   -1.3579 C   0  0  0  0  0  0  0  0  0  0  0  0
   -4.3060   -0.0185   -2.1802 C   0  0  0  0  0  0  0  0  0  0  0  0
   -2.9516   -0.1992   -1.9320 C   0  0  0  0  0  0  0  0  0  0  0  0
   -2.4532   -0.0887   -0.6284 C   0  0  0  0  0  0  0  0  0  0  0  0
   -1.0262   -0.3069   -0.3796 C   0  0  0  0  0  0  0  0  0  0  0  0
   -0.0880    0.5391   -0.8344 C   0  0  0  0  0  0  0  0  0  0  0  0
    1.3563    0.3601   -0.6242 C   0  0  0  0  0  0  0  0  0  0  0  0
    1.8931   -0.2401    0.5144 C   0  0  0  0  0  0  0  0  0  0  0  0
    3.2838   -0.3530    0.6786 C   0  0  0  0  0  0  0  0  0  0  0  0
    4.1983    0.1244   -0.2750 C   0  0  0  0  0  0  0  0  0  0  0  0
    5.5800    0.0270   -0.0914 N   0  0  0  0  0  0  0  0  0  0  0  0
    6.1050   -0.9322    0.8805 C   0  0  0  0  0  0  0  0  0  0  0  0
    6.4793    0.3561   -1.1974 C   0  0  0  0  0  0  0  0  0  0  0  0
    3.6317    0.7494   -1.3976 C   0  0  0  0  0  0  0  0  0  0  0  0
    2.2434    0.8674   -1.5731 C   0  0  0  0  0  0  0  0  0  0  0  0
   -2.5703   -0.8790    3.5502 H   0  0  0  0  0  0  0  0  0  0  0  0
   -2.3098   -1.7496    2.0284 H   0  0  0  0  0  0  0  0  0  0  0  0
   -3.9505   -1.3456    2.5411 H   0  0  0  0  0  0  0  0  0  0  0  0
   -1.8024    0.7390    1.7907 H   0  0  0  0  0  0  0  0  0  0  0  0
   -3.4503    1.1012    2.2832 H   0  0  0  0  0  0  0  0  0  0  0  0
   -5.2615    0.5803    1.0190 H   0  0  0  0  0  0  0  0  0  0  0  0
   -7.1360   -0.5229   -1.2789 H   0  0  0  0  0  0  0  0  0  0  0  0
   -7.0699    1.1319   -0.6239 H   0  0  0  0  0  0  0  0  0  0  0  0
   -6.8274    0.8663   -2.3504 H   0  0  0  0  0  0  0  0  0  0  0  0
   -4.6860   -0.1148   -3.1972 H   0  0  0  0  0  0  0  0  0  0  0  0
   -2.2846   -0.4373   -2.7597 H   0  0  0  0  0  0  0  0  0  0  0  0
   -0.7676   -1.2030    0.1770 H   0  0  0  0  0  0  0  0  0  0  0  0
   -0.3616    1.4193   -1.4160 H   0  0  0  0  0  0  0  0  0  0  0  0
    1.2579   -0.6198    1.3088 H   0  0  0  0  0  0  0  0  0  0  0  0
    3.6337   -0.8196    1.5950 H   0  0  0  0  0  0  0  0  0  0  0  0
    5.7791   -1.9509    0.6427 H   0  0  0  0  0  0  0  0  0  0  0  0
    5.7936   -0.6744    1.8983 H   0  0  0  0  0  0  0  0  0  0  0  0
    7.2008   -0.9314    0.8922 H   0  0  0  0  0  0  0  0  0  0  0  0
    6.3199   -0.3175   -2.0465 H   0  0  0  0  0  0  0  0  0  0  0  0
    7.5292    0.2678   -0.8960 H   0  0  0  0  0  0  0  0  0  0  0  0
    6.3472    1.3944   -1.5202 H   0  0  0  0  0  0  0  0  0  0  0  0
    4.2599    1.1699   -2.1777 H   0  0  0  0  0  0  0  0  0  0  0  0
    1.8800    1.3629   -2.4710 H   0  0  0  0  0  0  0  0  0  0  0  0
  1  2  1  0
  2  3  1  0
  3  4  2  0
  4  5  1  0
  5  6  1  0
  5  7  2  0
  7  8  1  0
  8  9  2  0
  9 10  1  0
 10 11  2  3
 11 12  1  0
 12 13  2  0
 13 14  1  0
 14 15  2  0
 15 16  1  0
 16 17  1  0
 16 18  1  0
 15 19  1  0
 19 20  2  0
  9  3  1  0
 20 12  1  0
  1 21  1  0
  1 22  1  0
  1 23  1  0
  2 24  1  0
  2 25  1  0
  4 26  1  0
  6 27  1  0
  6 28  1  0
  6 29  1  0
  7 30  1  0
  8 31  1  0
 10 32  1  0
 11 33  1  0
 13 34  1  0
 14 35  1  0
 17 36  1  0
 17 37  1  0
 17 38  1  0
 18 39  1  0
 18 40  1  0
 18 41  1  0
 19 42  1  0
 20 43  1  0
M  CHG  1   3   1
M  END
$$$$
