
     RDKit          3D

 56 60  0  0  0  0  0  0  0  0999 V2000
   -5.8352   -1.8416   -1.7573 C   0  0  0  0  0  0  0  0  0  0  0  0
   -4.6563   -1.3178   -1.1196 N   0  0  0  0  0  0  0  0  0  0  0  0
   -3.5790   -2.0194   -0.6514 C   0  0  0  0  0  0  0  0  0  0  0  0
   -3.3343   -3.7159   -0.8727 S   0  0  0  0  0  0  0  0  0  0  0  0
   -2.2943   -4.1020    0.5698 C   0  0  0  0  0  0  0  0  0  0  0  0
   -0.8123   -3.9331    0.2696 C   0  0  0  0  0  0  0  0  0  0  0  0
   -0.0942   -4.9155    0.1050 O   0  0  0  0  0  0  0  0  0  0  0  0
   -0.3984   -2.6139    0.2421 N   0  0  0  0  0  0  0  0  0  0  0  0
    0.9116   -2.1137    0.1238 C   0  0  0  0  0  0  0  0  0  0  0  0
    1.0382   -0.7297   -0.0328 C   0  0  0  0  0  0  0  0  0  0  0  0
    2.2963   -0.1248   -0.1283 C   0  0  0  0  0  0  0  0  0  0  0  0
    3.4568   -0.9183   -0.0479 C   0  0  0  0  0  0  0  0  0  0  0  0
    4.7612   -0.4492   -0.0879 N   0  0  0  0  0  0  0  0  0  0  0  0
    5.5939   -1.4530    0.0869 C   0  0  0  0  0  0  0  0  0  0  0  0
    7.3221   -1.2154    0.2280 S   0  0  0  0  0  0  0  0  0  0  0  0
    7.4729    0.5891    0.1688 C   0  0  0  0  0  0  0  0  0  0  0  0
    6.9602    1.2415    1.4448 C   0  0  0  0  0  0  0  0  0  0  0  0
    7.6575    1.3795    2.4493 O   0  0  0  0  0  0  0  0  0  0  0  0
    5.6461    1.6737    1.3559 N   0  0  0  0  0  0  0  0  0  0  0  0
    4.9448    2.2537    2.4576 C   0  0  0  0  0  0  0  0  0  0  0  0
    3.7528    3.1349    2.1840 C   0  0  0  0  0  0  0  0  0  0  0  0
    5.0124    3.7287    2.7401 C   0  0  0  0  0  0  0  0  0  0  0  0
    4.8842   -3.0065    0.1977 S   0  0  0  0  0  0  0  0  0  0  0  0
    3.3180   -2.2979    0.1088 C   0  0  0  0  0  0  0  0  0  0  0  0
    2.0555   -2.9182    0.1839 C   0  0  0  0  0  0  0  0  0  0  0  0
   -2.7626   -1.2100   -0.0217 N   0  0  0  0  0  0  0  0  0  0  0  0
   -3.2924    0.0520   -0.0856 N   0  0  0  0  0  0  0  0  0  0  0  0
   -4.4217   -0.0005   -0.7717 C   0  0  0  0  0  0  0  0  0  0  0  0
   -5.2697    1.1472   -1.0895 C   0  0  0  0  0  0  0  0  0  0  0  0
   -5.7126    1.3910   -2.3995 C   0  0  0  0  0  0  0  0  0  0  0  0
   -6.5122    2.4998   -2.6813 C   0  0  0  0  0  0  0  0  0  0  0  0
   -6.8670    3.3809   -1.6592 C   0  0  0  0  0  0  0  0  0  0  0  0
   -6.4118    3.1626   -0.3577 C   0  0  0  0  0  0  0  0  0  0  0  0
   -5.6148    2.0524   -0.0754 C   0  0  0  0  0  0  0  0  0  0  0  0
   -6.0118   -2.8736   -1.4393 H   0  0  0  0  0  0  0  0  0  0  0  0
   -5.6886   -1.7986   -2.8421 H   0  0  0  0  0  0  0  0  0  0  0  0
   -6.7039   -1.2472   -1.4577 H   0  0  0  0  0  0  0  0  0  0  0  0
   -2.5734   -3.5073    1.4471 H   0  0  0  0  0  0  0  0  0  0  0  0
   -2.4653   -5.1536    0.8314 H   0  0  0  0  0  0  0  0  0  0  0  0
   -1.1418   -1.9137    0.2436 H   0  0  0  0  0  0  0  0  0  0  0  0
    0.1537   -0.0942   -0.0846 H   0  0  0  0  0  0  0  0  0  0  0  0
    2.3813    0.9510   -0.2509 H   0  0  0  0  0  0  0  0  0  0  0  0
    6.9633    0.9954   -0.7107 H   0  0  0  0  0  0  0  0  0  0  0  0
    8.5333    0.8478    0.0689 H   0  0  0  0  0  0  0  0  0  0  0  0
    5.0830    1.1998    0.6503 H   0  0  0  0  0  0  0  0  0  0  0  0
    4.8769    1.5906    3.3207 H   0  0  0  0  0  0  0  0  0  0  0  0
    2.8962    3.0422    2.8471 H   0  0  0  0  0  0  0  0  0  0  0  0
    3.5046    3.3571    1.1471 H   0  0  0  0  0  0  0  0  0  0  0  0
    5.6249    4.3439    2.0935 H   0  0  0  0  0  0  0  0  0  0  0  0
    5.0091    4.0466    3.7781 H   0  0  0  0  0  0  0  0  0  0  0  0
    2.0014   -3.9934    0.3133 H   0  0  0  0  0  0  0  0  0  0  0  0
   -5.4093    0.7302   -3.2122 H   0  0  0  0  0  0  0  0  0  0  0  0
   -6.8490    2.6844   -3.7010 H   0  0  0  0  0  0  0  0  0  0  0  0
   -7.4805    4.2471   -1.8820 H   0  0  0  0  0  0  0  0  0  0  0  0
   -6.6711    3.8586    0.4369 H   0  0  0  0  0  0  0  0  0  0  0  0
   -5.2489    1.8965    0.9397 H   0  0  0  0  0  0  0  0  0  0  0  0
  1  2  1  0
  2  3  1  0
  3  4  1  0
  4  5  1  0
  5  6  1  0
  6  7  2  0
  6  8  1  0
  8  9  1  0
  9 10  2  0
 10 11  1  0
 11 12  2  0
 12 13  1  0
 13 14  2  0
 14 15  1  0
 15 16  1  0
 16 17  1  0
 17 18  2  0
 17 19  1  0
 19 20  1  0
 20 21  1  0
 21 22  1  0
 14 23  1  0
 23 24  1  0
 24 25  2  0
  3 26  2  0
 26 27  1  0
 27 28  2  0
 28 29  1  0
 29 30  2  0
 30 31  1  0
 31 32  2  0
 32 33  1  0
 33 34  2  0
 28  2  1  0
 34 29  1  0
 25  9  1  0
 24 12  1  0
 22 20  1  0
  1 35  1  0
  1 36  1  0
  1 37  1  0
  5 38  1  0
  5 39  1  0
  8 40  1  0
 10 41  1  0
 11 42  1  0
 16 43  1  0
 16 44  1  0
 19 45  1  0
 20 46  1  0
 21 47  1  0
 21 48  1  0
 22 49  1  0
 22 50  1  0
 25 51  1  0
 30 52  1  0
 31 53  1  0
 32 54  1  0
 33 55  1  0
 34 56  1  0
M  END
$$$$
