
     RDKit          3D

 39 41  0  0  0  0  0  0  0  0999 V2000
   -1.8691   -1.8414    2.0392 O   0  0  0  0  0  0  0  0  0  0  0  0
   -2.5123   -1.7735    0.9963 C   0  0  0  0  0  0  0  0  0  0  0  0
   -4.0399   -1.9071    1.0181 C   0  0  0  0  0  0  0  0  0  0  0  0
   -4.7005   -1.3705   -0.1210 O   0  0  0  0  0  0  0  0  0  0  0  0
   -4.9182   -0.0200   -0.1594 C   0  0  0  0  0  0  0  0  0  0  0  0
   -5.6701    0.4133   -1.2552 C   0  0  0  0  0  0  0  0  0  0  0  0
   -5.9546    1.7681   -1.4324 C   0  0  0  0  0  0  0  0  0  0  0  0
   -5.4840    2.7011   -0.5127 C   0  0  0  0  0  0  0  0  0  0  0  0
   -4.7307    2.2772    0.5804 C   0  0  0  0  0  0  0  0  0  0  0  0
   -4.4461    0.9195    0.7586 C   0  0  0  0  0  0  0  0  0  0  0  0
   -2.0170   -1.6225   -0.2785 N   0  0  0  0  0  0  0  0  0  0  0  0
   -0.7068   -1.4806   -0.6522 C   0  0  0  0  0  0  0  0  0  0  0  0
   -0.3509   -1.3166   -1.9070 N   0  0  0  0  0  0  0  0  0  0  0  0
    1.0167   -1.1954   -2.0511 N   0  0  0  0  0  0  0  0  0  0  0  0
    1.6420   -1.2655   -0.8925 C   0  0  0  0  0  0  0  0  0  0  0  0
    3.1224   -1.1831   -0.7117 C   0  0  0  0  0  0  0  0  0  0  0  0
    3.4013    0.0467   -0.0427 O   0  0  0  0  0  0  0  0  0  0  0  0
    4.7104    0.3095    0.2521 C   0  0  0  0  0  0  0  0  0  0  0  0
    5.8077   -0.4818   -0.0917 C   0  0  0  0  0  0  0  0  0  0  0  0
    7.0986   -0.0887    0.2766 C   0  0  0  0  0  0  0  0  0  0  0  0
    7.2980    1.0939    0.9870 C   0  0  0  0  0  0  0  0  0  0  0  0
    6.2068    1.8877    1.3300 C   0  0  0  0  0  0  0  0  0  0  0  0
    4.9190    1.4952    0.9621 C   0  0  0  0  0  0  0  0  0  0  0  0
    0.5926   -1.5140    0.4472 S   0  0  0  0  0  0  0  0  0  0  0  0
   -4.2544   -2.9821    1.0304 H   0  0  0  0  0  0  0  0  0  0  0  0
   -4.4449   -1.4965    1.9503 H   0  0  0  0  0  0  0  0  0  0  0  0
   -6.0405   -0.3095   -1.9783 H   0  0  0  0  0  0  0  0  0  0  0  0
   -6.5410    2.0931   -2.2877 H   0  0  0  0  0  0  0  0  0  0  0  0
   -5.7015    3.7576   -0.6479 H   0  0  0  0  0  0  0  0  0  0  0  0
   -4.3596    3.0064    1.2969 H   0  0  0  0  0  0  0  0  0  0  0  0
   -3.8494    0.6428    1.6219 H   0  0  0  0  0  0  0  0  0  0  0  0
   -2.6792   -1.5447   -1.0426 H   0  0  0  0  0  0  0  0  0  0  0  0
    3.4711   -2.0375   -0.1188 H   0  0  0  0  0  0  0  0  0  0  0  0
    3.6039   -1.1941   -1.6968 H   0  0  0  0  0  0  0  0  0  0  0  0
    5.7014   -1.4070   -0.6476 H   0  0  0  0  0  0  0  0  0  0  0  0
    7.9512   -0.7070    0.0066 H   0  0  0  0  0  0  0  0  0  0  0  0
    8.3025    1.3967    1.2711 H   0  0  0  0  0  0  0  0  0  0  0  0
    6.3554    2.8117    1.8824 H   0  0  0  0  0  0  0  0  0  0  0  0
    4.0697    2.1187    1.2315 H   0  0  0  0  0  0  0  0  0  0  0  0
  1  2  2  0
  2  3  1  0
  3  4  1  0
  4  5  1  0
  5  6  2  0
  6  7  1  0
  7  8  2  0
  8  9  1  0
  9 10  2  0
  2 11  1  0
 11 12  1  0
 12 13  2  0
 13 14  1  0
 14 15  2  0
 15 16  1  0
 16 17  1  0
 17 18  1  0
 18 19  2  0
 19 20  1  0
 20 21  2  0
 21 22  1  0
 22 23  2  0
 15 24  1  0
 10  5  1  0
 24 12  1  0
 23 18  1  0
  3 25  1  0
  3 26  1  0
  6 27  1  0
  7 28  1  0
  8 29  1  0
  9 30  1  0
 10 31  1  0
 11 32  1  0
 16 33  1  0
 16 34  1  0
 19 35  1  0
 20 36  1  0
 21 37  1  0
 22 38  1  0
 23 39  1  0
M  END
$$$$
