
     RDKit          3D

 53 56  0  0  0  0  0  0  0  0999 V2000
    7.4528   -1.8622    0.8055 C   0  0  0  0  0  0  0  0  0  0  0  0
    7.2237   -0.6268    1.4688 O   0  0  0  0  0  0  0  0  0  0  0  0
    6.0438    0.0113    1.1915 C   0  0  0  0  0  0  0  0  0  0  0  0
    5.8178    1.1660    1.9411 C   0  0  0  0  0  0  0  0  0  0  0  0
    4.6553    1.9108    1.7526 C   0  0  0  0  0  0  0  0  0  0  0  0
    3.7131    1.5039    0.8081 C   0  0  0  0  0  0  0  0  0  0  0  0
    3.9269    0.3517    0.0450 C   0  0  0  0  0  0  0  0  0  0  0  0
    2.9421    0.0337   -0.9083 N   0  0  0  0  0  0  0  0  0  0  0  0
    2.8733   -1.0782   -1.7260 C   0  0  0  0  0  0  0  0  0  0  0  0
    3.6496   -2.0311   -1.7180 O   0  0  0  0  0  0  0  0  0  0  0  0
    1.7136   -1.0339   -2.7119 C   0  0  0  0  0  0  0  0  0  0  0  0
    0.1614   -1.5706   -1.9389 S   0  0  0  0  0  0  0  0  0  0  0  0
   -0.3708   -0.1057   -1.1742 C   0  0  0  0  0  0  0  0  0  0  0  0
    0.3514    0.9900   -1.1227 N   0  0  0  0  0  0  0  0  0  0  0  0
   -0.2820    1.8752   -0.3063 N   0  0  0  0  0  0  0  0  0  0  0  0
   -1.4164    1.3301    0.0970 C   0  0  0  0  0  0  0  0  0  0  0  0
   -2.4815    2.0725    0.8382 C   0  0  0  0  0  0  0  0  0  0  0  0
   -3.3851    2.8332   -0.0908 C   0  0  0  0  0  0  0  0  0  0  0  0
   -3.2194    4.1149   -0.5757 C   0  0  0  0  0  0  0  0  0  0  0  0
   -4.2864    4.5088   -1.4306 C   0  0  0  0  0  0  0  0  0  0  0  0
   -5.2274    3.5166   -1.5756 C   0  0  0  0  0  0  0  0  0  0  0  0
   -4.8300    2.1203   -0.6762 S   0  0  0  0  0  0  0  0  0  0  0  0
   -1.5045    0.0258   -0.3857 N   0  0  0  0  0  0  0  0  0  0  0  0
   -2.5142   -0.9321   -0.1182 C   0  0  0  0  0  0  0  0  0  0  0  0
   -2.9499   -1.1380    1.1958 C   0  0  0  0  0  0  0  0  0  0  0  0
   -3.9444   -2.0824    1.4660 C   0  0  0  0  0  0  0  0  0  0  0  0
   -4.5164   -2.8246    0.4309 C   0  0  0  0  0  0  0  0  0  0  0  0
   -5.5708   -3.8538    0.7145 C   0  0  0  0  0  0  0  0  0  0  0  0
   -4.0616   -2.6283   -0.8786 C   0  0  0  0  0  0  0  0  0  0  0  0
   -3.0652   -1.6887   -1.1551 C   0  0  0  0  0  0  0  0  0  0  0  0
    5.0947   -0.3930    0.2447 C   0  0  0  0  0  0  0  0  0  0  0  0
    8.4146   -2.2537    1.1536 H   0  0  0  0  0  0  0  0  0  0  0  0
    6.6814   -2.5921    1.0668 H   0  0  0  0  0  0  0  0  0  0  0  0
    7.5238   -1.7268   -0.2797 H   0  0  0  0  0  0  0  0  0  0  0  0
    6.5536    1.4813    2.6743 H   0  0  0  0  0  0  0  0  0  0  0  0
    4.4835    2.8061    2.3472 H   0  0  0  0  0  0  0  0  0  0  0  0
    2.8119    2.1003    0.6744 H   0  0  0  0  0  0  0  0  0  0  0  0
    2.1531    0.6799   -0.9595 H   0  0  0  0  0  0  0  0  0  0  0  0
    1.6239   -0.0381   -3.1607 H   0  0  0  0  0  0  0  0  0  0  0  0
    1.9439   -1.7279   -3.5285 H   0  0  0  0  0  0  0  0  0  0  0  0
   -1.9872    2.7883    1.5045 H   0  0  0  0  0  0  0  0  0  0  0  0
   -3.0715    1.4358    1.4990 H   0  0  0  0  0  0  0  0  0  0  0  0
   -2.3666    4.7432   -0.3360 H   0  0  0  0  0  0  0  0  0  0  0  0
   -4.3589    5.4727   -1.9224 H   0  0  0  0  0  0  0  0  0  0  0  0
   -6.1316    3.5463   -2.1674 H   0  0  0  0  0  0  0  0  0  0  0  0
   -2.4977   -0.6150    2.0345 H   0  0  0  0  0  0  0  0  0  0  0  0
   -4.2608   -2.2390    2.4953 H   0  0  0  0  0  0  0  0  0  0  0  0
   -5.9747   -3.7392    1.7249 H   0  0  0  0  0  0  0  0  0  0  0  0
   -5.1474   -4.8587    0.6245 H   0  0  0  0  0  0  0  0  0  0  0  0
   -6.4059   -3.7521    0.0132 H   0  0  0  0  0  0  0  0  0  0  0  0
   -4.4859   -3.2043   -1.6934 H   0  0  0  0  0  0  0  0  0  0  0  0
   -2.7677   -1.5437   -2.1902 H   0  0  0  0  0  0  0  0  0  0  0  0
    5.2729   -1.2785   -0.3503 H   0  0  0  0  0  0  0  0  0  0  0  0
  1  2  1  0
  2  3  1  0
  3  4  2  0
  4  5  1  0
  5  6  2  0
  6  7  1  0
  7  8  1  0
  8  9  1  0
  9 10  2  0
  9 11  1  0
 11 12  1  0
 12 13  1  0
 13 14  2  0
 14 15  1  0
 15 16  2  0
 16 17  1  0
 17 18  1  0
 18 19  2  0
 19 20  1  0
 20 21  2  0
 21 22  1  0
 16 23  1  0
 23 24  1  0
 24 25  2  0
 25 26  1  0
 26 27  2  0
 27 28  1  0
 27 29  1  0
 29 30  2  0
  7 31  2  0
 31  3  1  0
 23 13  1  0
 30 24  1  0
 22 18  1  0
  1 32  1  0
  1 33  1  0
  1 34  1  0
  4 35  1  0
  5 36  1  0
  6 37  1  0
  8 38  1  0
 11 39  1  0
 11 40  1  0
 17 41  1  0
 17 42  1  0
 19 43  1  0
 20 44  1  0
 21 45  1  0
 25 46  1  0
 26 47  1  0
 28 48  1  0
 28 49  1  0
 28 50  1  0
 29 51  1  0
 30 52  1  0
 31 53  1  0
M  END
$$$$
