
     RDKit          3D

 47 48  0  0  0  0  0  0  0  0999 V2000
    7.1733   -0.9626   -0.9109 C   0  0  0  0  0  0  0  0  0  0  0  0
    6.8275   -0.2620   -2.1008 O   0  0  0  0  0  0  0  0  0  0  0  0
    5.5980    0.3456   -2.1200 C   0  0  0  0  0  0  0  0  0  0  0  0
    4.6617    0.3479   -1.0846 C   0  0  0  0  0  0  0  0  0  0  0  0
    3.4350    1.0182   -1.2373 C   0  0  0  0  0  0  0  0  0  0  0  0
    2.4214    1.0147   -0.1736 C   0  0  0  0  0  0  0  0  0  0  0  0
    2.7173    1.3048    1.1017 C   0  0  0  0  0  0  0  0  0  0  0  0
    1.7423    1.3153    2.2280 C   0  0  0  0  0  0  0  0  0  0  0  0
    2.1421    1.6780    3.3365 O   0  0  0  0  0  0  0  0  0  0  0  0
    0.2997    0.9339    2.0121 C   0  0  0  0  0  0  0  0  0  0  0  0
    0.0740   -0.5453    1.8289 C   0  0  0  0  0  0  0  0  0  0  0  0
    0.9954   -1.3497    1.6972 O   0  0  0  0  0  0  0  0  0  0  0  0
   -1.3187   -1.0746    1.7731 C   0  0  0  0  0  0  0  0  0  0  0  0
   -2.4263   -0.3218    1.8460 C   0  0  0  0  0  0  0  0  0  0  0  0
   -3.7838   -0.8852    1.7790 C   0  0  0  0  0  0  0  0  0  0  0  0
   -4.1314   -2.0598    2.4580 C   0  0  0  0  0  0  0  0  0  0  0  0
   -5.4360   -2.5518    2.3984 C   0  0  0  0  0  0  0  0  0  0  0  0
   -6.3997   -1.8619    1.6654 C   0  0  0  0  0  0  0  0  0  0  0  0
   -7.6805   -2.3430    1.6057 O   0  0  0  0  0  0  0  0  0  0  0  0
   -6.0819   -0.6767    0.9888 C   0  0  0  0  0  0  0  0  0  0  0  0
   -7.1072   -0.0784    0.3047 O   0  0  0  0  0  0  0  0  0  0  0  0
   -6.8174    1.1157   -0.4066 C   0  0  0  0  0  0  0  0  0  0  0  0
   -4.7705   -0.1926    1.0575 C   0  0  0  0  0  0  0  0  0  0  0  0
    3.1455    1.6646   -2.4467 C   0  0  0  0  0  0  0  0  0  0  0  0
    4.0768    1.6673   -3.4844 C   0  0  0  0  0  0  0  0  0  0  0  0
    5.2886    1.0129   -3.3102 C   0  0  0  0  0  0  0  0  0  0  0  0
    6.1853    1.0293   -4.3438 O   0  0  0  0  0  0  0  0  0  0  0  0
    6.4823   -1.7918   -0.7265 H   0  0  0  0  0  0  0  0  0  0  0  0
    7.2178   -0.2841   -0.0525 H   0  0  0  0  0  0  0  0  0  0  0  0
    8.1721   -1.3867   -1.0520 H   0  0  0  0  0  0  0  0  0  0  0  0
    4.8574   -0.1753   -0.1540 H   0  0  0  0  0  0  0  0  0  0  0  0
    1.4164    0.7656   -0.4982 H   0  0  0  0  0  0  0  0  0  0  0  0
    3.7271    1.5697    1.4037 H   0  0  0  0  0  0  0  0  0  0  0  0
   -0.0943    1.4853    1.1524 H   0  0  0  0  0  0  0  0  0  0  0  0
   -0.2517    1.2644    2.9006 H   0  0  0  0  0  0  0  0  0  0  0  0
   -1.3674   -2.1534    1.6501 H   0  0  0  0  0  0  0  0  0  0  0  0
   -2.3833    0.7595    1.9411 H   0  0  0  0  0  0  0  0  0  0  0  0
   -3.3962   -2.6003    3.0502 H   0  0  0  0  0  0  0  0  0  0  0  0
   -5.6823   -3.4653    2.9308 H   0  0  0  0  0  0  0  0  0  0  0  0
   -7.7392   -3.1613    2.1220 H   0  0  0  0  0  0  0  0  0  0  0  0
   -7.7387    1.4463   -0.8956 H   0  0  0  0  0  0  0  0  0  0  0  0
   -6.0712    0.9391   -1.1883 H   0  0  0  0  0  0  0  0  0  0  0  0
   -6.4977    1.9123    0.2733 H   0  0  0  0  0  0  0  0  0  0  0  0
   -4.4927    0.7234    0.5463 H   0  0  0  0  0  0  0  0  0  0  0  0
    2.1978    2.1787   -2.5890 H   0  0  0  0  0  0  0  0  0  0  0  0
    3.8609    2.1727   -4.4208 H   0  0  0  0  0  0  0  0  0  0  0  0
    6.9524    0.5186   -4.0187 H   0  0  0  0  0  0  0  0  0  0  0  0
  1  2  1  0
  2  3  1  0
  3  4  2  0
  4  5  1  0
  5  6  1  0
  6  7  2  3
  7  8  1  0
  8  9  2  0
  8 10  1  0
 10 11  1  0
 11 12  2  0
 11 13  1  0
 13 14  2  3
 14 15  1  0
 15 16  2  0
 16 17  1  0
 17 18  2  0
 18 19  1  0
 18 20  1  0
 20 21  1  0
 21 22  1  0
 20 23  2  0
  5 24  2  0
 24 25  1  0
 25 26  2  0
 26 27  1  0
 26  3  1  0
 23 15  1  0
  1 28  1  0
  1 29  1  0
  1 30  1  0
  4 31  1  0
  6 32  1  0
  7 33  1  0
 10 34  1  0
 10 35  1  0
 13 36  1  0
 14 37  1  0
 16 38  1  0
 17 39  1  0
 19 40  1  0
 22 41  1  0
 22 42  1  0
 22 43  1  0
 23 44  1  0
 24 45  1  0
 25 46  1  0
 27 47  1  0
M  END
$$$$
