
     RDKit          3D

 34 35  0  0  0  0  0  0  0  0999 V2000
    1.7169    2.2804    0.2682 C   0  0  0  0  0  0  0  0  0  0  0  0
    2.2673    1.0158    0.9048 C   0  0  0  0  0  0  0  0  0  0  0  0
    1.5352    0.1079    1.4957 N   0  0  0  0  0  0  0  0  0  0  0  0
    0.1671    0.1839    1.4238 N   0  0  0  0  0  0  0  0  0  0  0  0
   -0.4845    0.0287    0.1900 C   0  0  0  0  0  0  0  0  0  0  0  0
    0.0769    0.0840   -0.8979 O   0  0  0  0  0  0  0  0  0  0  0  0
   -1.9760   -0.1536    0.3820 C   0  0  0  0  0  0  0  0  0  0  0  0
   -2.7781   -0.4377   -0.8860 C   0  0  0  0  0  0  0  0  0  0  0  0
   -2.6675    0.6413   -1.9614 C   0  0  0  0  0  0  0  0  0  0  0  0
   -2.4142   -1.7202   -1.4207 O   0  0  0  0  0  0  0  0  0  0  0  0
   -3.6502   -2.3574   -1.7323 C   0  0  0  0  0  0  0  0  0  0  0  0
   -4.5684   -1.8470   -0.6586 C   0  0  0  0  0  0  0  0  0  0  0  0
   -4.1760   -0.4832   -0.4970 O   0  0  0  0  0  0  0  0  0  0  0  0
    3.7138    0.7884    0.9025 C   0  0  0  0  0  0  0  0  0  0  0  0
    4.4003   -0.2550    1.5033 C   0  0  0  0  0  0  0  0  0  0  0  0
    5.8089   -0.1838    1.3031 C   0  0  0  0  0  0  0  0  0  0  0  0
    6.1623    0.9104    0.5487 C   0  0  0  0  0  0  0  0  0  0  0  0
    4.8025    1.8355    0.0888 S   0  0  0  0  0  0  0  0  0  0  0  0
    1.7949    2.2081   -0.8204 H   0  0  0  0  0  0  0  0  0  0  0  0
    2.2831    3.1518    0.6107 H   0  0  0  0  0  0  0  0  0  0  0  0
    0.6751    2.4627    0.5392 H   0  0  0  0  0  0  0  0  0  0  0  0
   -0.2829   -0.2903    2.2026 H   0  0  0  0  0  0  0  0  0  0  0  0
   -2.3667    0.7471    0.8729 H   0  0  0  0  0  0  0  0  0  0  0  0
   -2.1204   -0.9857    1.0842 H   0  0  0  0  0  0  0  0  0  0  0  0
   -3.4157    0.4771   -2.7461 H   0  0  0  0  0  0  0  0  0  0  0  0
   -2.8607    1.6354   -1.5447 H   0  0  0  0  0  0  0  0  0  0  0  0
   -1.6947    0.6396   -2.4591 H   0  0  0  0  0  0  0  0  0  0  0  0
   -3.5385   -3.4444   -1.7264 H   0  0  0  0  0  0  0  0  0  0  0  0
   -3.9675   -2.0312   -2.7285 H   0  0  0  0  0  0  0  0  0  0  0  0
   -5.6267   -1.9165   -0.9214 H   0  0  0  0  0  0  0  0  0  0  0  0
   -4.3974   -2.3608    0.2935 H   0  0  0  0  0  0  0  0  0  0  0  0
    3.9043   -1.0402    2.0626 H   0  0  0  0  0  0  0  0  0  0  0  0
    6.5227   -0.9011    1.6890 H   0  0  0  0  0  0  0  0  0  0  0  0
    7.1545    1.2101    0.2404 H   0  0  0  0  0  0  0  0  0  0  0  0
  1  2  1  0
  2  3  2  3
  3  4  1  0
  4  5  1  0
  5  6  2  0
  5  7  1  0
  7  8  1  0
  8  9  1  0
  8 10  1  0
 10 11  1  0
 11 12  1  0
 12 13  1  0
  2 14  1  0
 14 15  2  0
 15 16  1  0
 16 17  2  0
 17 18  1  0
 13  8  1  0
 18 14  1  0
  1 19  1  0
  1 20  1  0
  1 21  1  0
  4 22  1  0
  7 23  1  0
  7 24  1  0
  9 25  1  0
  9 26  1  0
  9 27  1  0
 11 28  1  0
 11 29  1  0
 12 30  1  0
 12 31  1  0
 15 32  1  0
 16 33  1  0
 17 34  1  0
M  END
$$$$
