
     RDKit          3D

 47 49  0  0  0  0  0  0  0  0999 V2000
   -2.5991   -2.0065   -1.1483 C   0  0  0  0  0  0  0  0  0  0  0  0
   -3.2024   -0.6680   -1.5389 C   0  0  0  0  0  0  0  0  0  0  0  0
   -3.6033    0.1275   -0.3703 N   0  0  0  0  0  4  0  0  0  0  0  0
   -2.8531    1.0994    0.1308 C   0  0  0  0  0  0  0  0  0  0  0  0
   -1.5903    1.5281   -0.3386 C   0  0  0  0  0  0  0  0  0  0  0  0
   -0.4229    1.0297    0.0985 C   0  0  0  0  0  0  0  0  0  0  0  0
   -0.2178    0.0222    1.1227 C   0  0  0  0  0  0  0  0  0  0  0  0
    0.9674   -0.5109    1.4640 C   0  0  0  0  0  0  0  0  0  0  0  0
    2.2554   -0.1796    0.8530 C   0  0  0  0  0  0  0  0  0  0  0  0
    2.9705    0.9414    1.2646 C   0  0  0  0  0  0  0  0  0  0  0  0
    4.1894    1.2673    0.6516 C   0  0  0  0  0  0  0  0  0  0  0  0
    4.7467    0.4882   -0.3785 C   0  0  0  0  0  0  0  0  0  0  0  0
    5.9509    0.8303   -1.0054 N   0  0  0  0  0  0  0  0  0  0  0  0
    6.6596   -0.1929   -1.7758 C   0  0  0  0  0  0  0  0  0  0  0  0
    6.8042    1.8530   -0.3989 C   0  0  0  0  0  0  0  0  0  0  0  0
    3.9933   -0.6325   -0.7735 C   0  0  0  0  0  0  0  0  0  0  0  0
    2.7725   -0.9689   -0.1697 C   0  0  0  0  0  0  0  0  0  0  0  0
   -3.6324    1.8659    1.4510 S   0  0  0  0  0  0  0  0  0  0  0  0
   -4.9948    0.8218    1.3405 C   0  0  0  0  0  0  0  0  0  0  0  0
   -6.1495    0.8001    2.1378 C   0  0  0  0  0  0  0  0  0  0  0  0
   -7.1334   -0.1475    1.8457 C   0  0  0  0  0  0  0  0  0  0  0  0
   -6.9733   -1.0433    0.7936 C   0  0  0  0  0  0  0  0  0  0  0  0
   -5.8193   -1.0169    0.0008 C   0  0  0  0  0  0  0  0  0  0  0  0
   -4.8152   -0.0680    0.2837 C   0  0  0  0  0  0  0  0  0  0  0  0
   -2.3315   -2.5773   -2.0427 H   0  0  0  0  0  0  0  0  0  0  0  0
   -1.6959   -1.8727   -0.5479 H   0  0  0  0  0  0  0  0  0  0  0  0
   -3.3013   -2.6042   -0.5598 H   0  0  0  0  0  0  0  0  0  0  0  0
   -2.4902   -0.1067   -2.1538 H   0  0  0  0  0  0  0  0  0  0  0  0
   -4.0792   -0.8224   -2.1785 H   0  0  0  0  0  0  0  0  0  0  0  0
   -1.5726    2.3112   -1.0947 H   0  0  0  0  0  0  0  0  0  0  0  0
    0.4827    1.4410   -0.3536 H   0  0  0  0  0  0  0  0  0  0  0  0
   -1.0834   -0.3301    1.6794 H   0  0  0  0  0  0  0  0  0  0  0  0
    1.0209   -1.2583    2.2537 H   0  0  0  0  0  0  0  0  0  0  0  0
    2.5934    1.5786    2.0610 H   0  0  0  0  0  0  0  0  0  0  0  0
    4.6938    2.1585    1.0131 H   0  0  0  0  0  0  0  0  0  0  0  0
    6.0729   -0.5121   -2.6438 H   0  0  0  0  0  0  0  0  0  0  0  0
    6.8981   -1.0614   -1.1518 H   0  0  0  0  0  0  0  0  0  0  0  0
    7.6029    0.1934   -2.1782 H   0  0  0  0  0  0  0  0  0  0  0  0
    7.6993    2.0326   -1.0052 H   0  0  0  0  0  0  0  0  0  0  0  0
    7.1354    1.5478    0.5998 H   0  0  0  0  0  0  0  0  0  0  0  0
    6.2868    2.8165   -0.3386 H   0  0  0  0  0  0  0  0  0  0  0  0
    4.3377   -1.2798   -1.5746 H   0  0  0  0  0  0  0  0  0  0  0  0
    2.2392   -1.8505   -0.5152 H   0  0  0  0  0  0  0  0  0  0  0  0
   -6.2826    1.4989    2.9609 H   0  0  0  0  0  0  0  0  0  0  0  0
   -8.0392   -0.1832    2.4517 H   0  0  0  0  0  0  0  0  0  0  0  0
   -7.7572   -1.7723    0.5877 H   0  0  0  0  0  0  0  0  0  0  0  0
   -5.7330   -1.7352   -0.8094 H   0  0  0  0  0  0  0  0  0  0  0  0
  1  2  1  0
  2  3  1  0
  3  4  2  0
  4  5  1  0
  5  6  2  3
  6  7  1  0
  7  8  2  3
  8  9  1  0
  9 10  2  0
 10 11  1  0
 11 12  2  0
 12 13  1  0
 13 14  1  0
 13 15  1  0
 12 16  1  0
 16 17  2  0
  4 18  1  0
 18 19  1  0
 19 20  2  0
 20 21  1  0
 21 22  2  0
 22 23  1  0
 23 24  2  0
 24  3  1  0
 17  9  1  0
 24 19  1  0
  1 25  1  0
  1 26  1  0
  1 27  1  0
  2 28  1  0
  2 29  1  0
  5 30  1  0
  6 31  1  0
  7 32  1  0
  8 33  1  0
 10 34  1  0
 11 35  1  0
 14 36  1  0
 14 37  1  0
 14 38  1  0
 15 39  1  0
 15 40  1  0
 15 41  1  0
 16 42  1  0
 17 43  1  0
 20 44  1  0
 21 45  1  0
 22 46  1  0
 23 47  1  0
M  CHG  1   3   1
M  END
$$$$
