
     RDKit          3D

 39 40  0  0  0  0  0  0  0  0999 V2000
   -0.3293    2.1197    2.8146 O   0  0  0  0  0  0  0  0  0  0  0  0
   -0.3666    1.3082    1.8864 C   0  0  0  0  0  0  0  0  0  0  0  0
   -1.5968    1.2577    1.0488 C   0  0  0  0  0  0  0  0  0  0  0  0
   -1.8289    0.3691    0.0715 C   0  0  0  0  0  0  0  0  0  0  0  0
   -3.0588    0.3788   -0.7303 C   0  0  0  0  0  0  0  0  0  0  0  0
   -2.9657    0.2225   -2.1192 C   0  0  0  0  0  0  0  0  0  0  0  0
   -4.1184    0.2105   -2.9081 C   0  0  0  0  0  0  0  0  0  0  0  0
   -5.3649    0.3432   -2.3092 C   0  0  0  0  0  0  0  0  0  0  0  0
   -6.4630    0.3254   -3.1168 O   0  0  0  0  0  0  0  0  0  0  0  0
   -5.4807    0.4823   -0.9309 C   0  0  0  0  0  0  0  0  0  0  0  0
   -4.3264    0.4948   -0.1417 C   0  0  0  0  0  0  0  0  0  0  0  0
    0.8108    0.4138    1.5939 C   0  0  0  0  0  0  0  0  0  0  0  0
    0.7102   -0.9294    2.2673 C   0  0  0  0  0  0  0  0  0  0  0  0
   -0.3671   -1.4968    2.4514 O   0  0  0  0  0  0  0  0  0  0  0  0
    1.9418   -1.6049    2.7640 C   0  0  0  0  0  0  0  0  0  0  0  0
    3.1596   -1.6227    2.2024 C   0  0  0  0  0  0  0  0  0  0  0  0
    3.5385   -1.0343    0.9185 C   0  0  0  0  0  0  0  0  0  0  0  0
    4.4127    0.0588    0.8845 C   0  0  0  0  0  0  0  0  0  0  0  0
    4.7718    0.6351   -0.3367 C   0  0  0  0  0  0  0  0  0  0  0  0
    4.2637    0.1059   -1.5194 C   0  0  0  0  0  0  0  0  0  0  0  0
    4.5869    0.6380   -2.7322 O   0  0  0  0  0  0  0  0  0  0  0  0
    3.4081   -0.9893   -1.5008 C   0  0  0  0  0  0  0  0  0  0  0  0
    3.0451   -1.5629   -0.2810 C   0  0  0  0  0  0  0  0  0  0  0  0
   -2.3202    2.0295    1.2976 H   0  0  0  0  0  0  0  0  0  0  0  0
   -1.1166   -0.4077   -0.1890 H   0  0  0  0  0  0  0  0  0  0  0  0
   -1.9968    0.1196   -2.6017 H   0  0  0  0  0  0  0  0  0  0  0  0
   -4.0425    0.0999   -3.9859 H   0  0  0  0  0  0  0  0  0  0  0  0
   -7.2549    0.4405   -2.5659 H   0  0  0  0  0  0  0  0  0  0  0  0
   -6.4507    0.5747   -0.4523 H   0  0  0  0  0  0  0  0  0  0  0  0
   -4.4279    0.5825    0.9377 H   0  0  0  0  0  0  0  0  0  0  0  0
    0.9282    0.2886    0.5150 H   0  0  0  0  0  0  0  0  0  0  0  0
    1.6978    0.9460    1.9563 H   0  0  0  0  0  0  0  0  0  0  0  0
    1.7757   -2.1584    3.6853 H   0  0  0  0  0  0  0  0  0  0  0  0
    3.9621   -2.1567    2.7076 H   0  0  0  0  0  0  0  0  0  0  0  0
    4.8112    0.4745    1.8077 H   0  0  0  0  0  0  0  0  0  0  0  0
    5.4436    1.4879   -0.3441 H   0  0  0  0  0  0  0  0  0  0  0  0
    5.2019    1.3772   -2.5934 H   0  0  0  0  0  0  0  0  0  0  0  0
    3.0269   -1.3978   -2.4331 H   0  0  0  0  0  0  0  0  0  0  0  0
    2.3796   -2.4238   -0.2767 H   0  0  0  0  0  0  0  0  0  0  0  0
  1  2  2  0
  2  3  1  0
  3  4  2  3
  4  5  1  0
  5  6  2  0
  6  7  1  0
  7  8  2  0
  8  9  1  0
  8 10  1  0
 10 11  2  0
  2 12  1  0
 12 13  1  0
 13 14  2  0
 13 15  1  0
 15 16  2  3
 16 17  1  0
 17 18  2  0
 18 19  1  0
 19 20  2  0
 20 21  1  0
 20 22  1  0
 22 23  2  0
 11  5  1  0
 23 17  1  0
  3 24  1  0
  4 25  1  0
  6 26  1  0
  7 27  1  0
  9 28  1  0
 10 29  1  0
 11 30  1  0
 12 31  1  0
 12 32  1  0
 15 33  1  0
 16 34  1  0
 18 35  1  0
 19 36  1  0
 21 37  1  0
 22 38  1  0
 23 39  1  0
M  END
$$$$
