
     RDKit          3D

 49 52  0  0  0  0  0  0  0  0999 V2000
   -3.6994   -0.4128    3.5253 O   0  0  0  0  0  0  0  0  0  0  0  0
   -3.8432    0.0255    2.3862 C   0  0  0  0  0  0  0  0  0  0  0  0
   -2.7822   -0.0357    1.3942 C   0  0  0  0  0  0  0  0  0  0  0  0
   -2.6711    0.5371    0.1167 C   0  0  0  0  0  0  0  0  0  0  0  0
   -1.5241    0.2340   -0.4902 N   0  0  0  0  0  0  0  0  0  0  0  0
   -0.8327   -0.5099    0.4147 N   0  0  0  0  0  0  0  0  0  0  0  0
    0.4670   -0.9941    0.0728 C   0  0  0  0  0  0  0  0  0  0  0  0
    0.8348   -0.9711   -1.2898 C   0  0  0  0  0  0  0  0  0  0  0  0
    2.0681   -1.4747   -1.7192 C   0  0  0  0  0  0  0  0  0  0  0  0
    2.9667   -1.9934   -0.7868 C   0  0  0  0  0  0  0  0  0  0  0  0
    4.5374   -2.6361   -1.3257 S   0  0  0  0  0  6  0  0  0  0  0  0
    4.4593   -2.8692   -2.7507 O   0  0  0  0  0  0  0  0  0  0  0  0
    4.8942   -3.6968   -0.4077 O   0  0  0  0  0  0  0  0  0  0  0  0
    5.5953   -1.3636   -1.0111 N   0  0  0  0  0  0  0  0  0  0  0  0
    5.3117   -0.0643   -1.5130 C   0  0  0  0  0  0  0  0  0  0  0  0
    5.2208    0.1763   -2.8835 C   0  0  0  0  0  0  0  0  0  0  0  0
    4.9034    1.4538   -3.3473 C   0  0  0  0  0  0  0  0  0  0  0  0
    4.6789    2.4896   -2.4412 C   0  0  0  0  0  0  0  0  0  0  0  0
    4.7773    2.2511   -1.0709 C   0  0  0  0  0  0  0  0  0  0  0  0
    5.0965    0.9744   -0.6054 C   0  0  0  0  0  0  0  0  0  0  0  0
    2.6395   -2.0269    0.5687 C   0  0  0  0  0  0  0  0  0  0  0  0
    1.3988   -1.5124    0.9851 C   0  0  0  0  0  0  0  0  0  0  0  0
    1.2225   -1.4167    2.4166 N   0  0  0  0  0  4  0  0  0  0  0  0
    1.0977   -2.4787    3.0370 O   0  0  0  0  0  0  0  0  0  0  0  0
    1.2495   -0.2815    2.9066 O   0  0  0  0  0  1  0  0  0  0  0  0
   -1.5856   -0.7138    1.5465 C   0  0  0  0  0  0  0  0  0  0  0  0
   -5.1189    0.6995    2.0609 C   0  0  0  0  0  0  0  0  0  0  0  0
   -5.5481    1.7174    2.9202 C   0  0  0  0  0  0  0  0  0  0  0  0
   -6.7502    2.3628    2.6622 C   0  0  0  0  0  0  0  0  0  0  0  0
   -7.1585    3.3459    3.4740 F   0  0  0  0  0  0  0  0  0  0  0  0
   -7.5389    2.0055    1.5729 C   0  0  0  0  0  0  0  0  0  0  0  0
   -7.1271    0.9745    0.7266 C   0  0  0  0  0  0  0  0  0  0  0  0
   -5.9205    0.3176    0.9771 C   0  0  0  0  0  0  0  0  0  0  0  0
   -5.5350   -0.7139    0.1704 O   0  0  0  0  0  0  0  0  0  0  0  0
   -3.3825    1.1587   -0.4122 H   0  0  0  0  0  0  0  0  0  0  0  0
    0.1547   -0.5776   -2.0469 H   0  0  0  0  0  0  0  0  0  0  0  0
    2.3152   -1.4517   -2.7798 H   0  0  0  0  0  0  0  0  0  0  0  0
    6.0539   -1.4425   -0.1053 H   0  0  0  0  0  0  0  0  0  0  0  0
    5.4055   -0.6191   -3.6015 H   0  0  0  0  0  0  0  0  0  0  0  0
    4.8347    1.6406   -4.4162 H   0  0  0  0  0  0  0  0  0  0  0  0
    4.4315    3.4846   -2.8040 H   0  0  0  0  0  0  0  0  0  0  0  0
    4.6047    3.0607   -0.3658 H   0  0  0  0  0  0  0  0  0  0  0  0
    5.1651    0.8051    0.4652 H   0  0  0  0  0  0  0  0  0  0  0  0
    3.3465   -2.4254    1.2954 H   0  0  0  0  0  0  0  0  0  0  0  0
   -1.2713   -1.3323    2.3732 H   0  0  0  0  0  0  0  0  0  0  0  0
   -4.9578    2.0064    3.7855 H   0  0  0  0  0  0  0  0  0  0  0  0
   -8.4752    2.5275    1.3976 H   0  0  0  0  0  0  0  0  0  0  0  0
   -7.7589    0.6963   -0.1123 H   0  0  0  0  0  0  0  0  0  0  0  0
   -6.2498   -0.9308   -0.4533 H   0  0  0  0  0  0  0  0  0  0  0  0
  1  2  2  0
  2  3  1  0
  3  4  1  0
  4  5  2  0
  5  6  1  0
  6  7  1  0
  7  8  2  0
  8  9  1  0
  9 10  2  0
 10 11  1  0
 11 12  2  0
 11 13  2  0
 11 14  1  0
 14 15  1  0
 15 16  2  0
 16 17  1  0
 17 18  2  0
 18 19  1  0
 19 20  2  0
 10 21  1  0
 21 22  2  0
 22 23  1  0
 23 24  2  0
 23 25  1  0
  6 26  1  0
  2 27  1  0
 27 28  2  0
 28 29  1  0
 29 30  1  0
 29 31  2  0
 31 32  1  0
 32 33  2  0
 33 34  1  0
 26  3  2  0
 33 27  1  0
 22  7  1  0
 20 15  1  0
  4 35  1  0
  8 36  1  0
  9 37  1  0
 14 38  1  0
 16 39  1  0
 17 40  1  0
 18 41  1  0
 19 42  1  0
 20 43  1  0
 21 44  1  0
 26 45  1  0
 28 46  1  0
 31 47  1  0
 32 48  1  0
 34 49  1  0
M  CHG  2  23   1  25  -1
M  END
$$$$
