
     RDKit          3D

 61 64  0  0  0  0  0  0  0  0999 V2000
    6.4674    3.6702   -0.7474 C   0  0  0  0  0  0  0  0  0  0  0  0
    6.7085    2.9941    0.4901 O   0  0  0  0  0  0  0  0  0  0  0  0
    5.6178    2.2283    0.8196 C   0  0  0  0  0  0  0  0  0  0  0  0
    4.6654    2.7846    1.6695 C   0  0  0  0  0  0  0  0  0  0  0  0
    3.5545    2.0308    2.0457 C   0  0  0  0  0  0  0  0  0  0  0  0
    3.4015    0.7137    1.5927 C   0  0  0  0  0  0  0  0  0  0  0  0
    2.2517    0.0218    2.0276 N   0  0  0  0  0  0  0  0  0  0  0  0
    1.8154   -1.2318    1.6515 C   0  0  0  0  0  0  0  0  0  0  0  0
    2.3848   -1.9851    0.8632 O   0  0  0  0  0  0  0  0  0  0  0  0
    0.5586   -1.7208    2.3627 C   0  0  0  0  0  0  0  0  0  0  0  0
   -0.6066   -0.4218    2.8624 S   0  0  0  0  0  0  0  0  0  0  0  0
   -0.9311    0.3457    1.3391 C   0  0  0  0  0  0  0  0  0  0  0  0
   -0.4075    1.5048    1.0170 N   0  0  0  0  0  0  0  0  0  0  0  0
   -0.7213    1.7538   -0.2880 N   0  0  0  0  0  0  0  0  0  0  0  0
   -1.4549    0.7517   -0.7408 C   0  0  0  0  0  0  0  0  0  0  0  0
   -2.1456    0.7559   -2.0653 C   0  0  0  0  0  0  0  0  0  0  0  0
   -3.6183    1.0199   -1.9433 C   0  0  0  0  0  0  0  0  0  0  0  0
   -4.6787    0.1509   -2.1348 C   0  0  0  0  0  0  0  0  0  0  0  0
   -5.8746    0.8617   -1.8896 C   0  0  0  0  0  0  0  0  0  0  0  0
   -5.5229    2.1484   -1.5581 C   0  0  0  0  0  0  0  0  0  0  0  0
   -4.1553    2.2423   -1.5958 N   0  0  0  0  0  0  0  0  0  0  0  0
   -3.4258    3.4560   -1.2947 C   0  0  0  0  0  0  0  0  0  0  0  0
   -1.6043   -0.2021    0.2598 N   0  0  0  0  0  0  0  0  0  0  0  0
   -2.2831   -1.4443    0.1871 C   0  0  0  0  0  0  0  0  0  0  0  0
   -3.1449   -1.8338    1.2183 C   0  0  0  0  0  0  0  0  0  0  0  0
   -3.7931   -3.0691    1.1554 C   0  0  0  0  0  0  0  0  0  0  0  0
   -3.5942   -3.9224    0.0638 C   0  0  0  0  0  0  0  0  0  0  0  0
   -4.2582   -5.2670    0.0166 C   0  0  0  0  0  0  0  0  0  0  0  0
   -2.7181   -3.5326   -0.9563 C   0  0  0  0  0  0  0  0  0  0  0  0
   -2.0664   -2.2978   -0.9004 C   0  0  0  0  0  0  0  0  0  0  0  0
    4.3809    0.1574    0.7599 C   0  0  0  0  0  0  0  0  0  0  0  0
    5.4969    0.9080    0.3654 C   0  0  0  0  0  0  0  0  0  0  0  0
    6.5046    0.4577   -0.4488 O   0  0  0  0  0  0  0  0  0  0  0  0
    6.3926   -0.8635   -0.9603 C   0  0  0  0  0  0  0  0  0  0  0  0
    7.4037    4.1420   -1.0584 H   0  0  0  0  0  0  0  0  0  0  0  0
    5.7191    4.4610   -0.6085 H   0  0  0  0  0  0  0  0  0  0  0  0
    6.1538    2.9838   -1.5440 H   0  0  0  0  0  0  0  0  0  0  0  0
    4.7848    3.8020    2.0304 H   0  0  0  0  0  0  0  0  0  0  0  0
    2.8105    2.4880    2.6937 H   0  0  0  0  0  0  0  0  0  0  0  0
    1.6065    0.5583    2.6027 H   0  0  0  0  0  0  0  0  0  0  0  0
    0.8778   -2.2595    3.2605 H   0  0  0  0  0  0  0  0  0  0  0  0
    0.0441   -2.4323    1.7097 H   0  0  0  0  0  0  0  0  0  0  0  0
   -1.9744   -0.1784   -2.6056 H   0  0  0  0  0  0  0  0  0  0  0  0
   -1.6946    1.5284   -2.7000 H   0  0  0  0  0  0  0  0  0  0  0  0
   -4.5998   -0.8911   -2.4147 H   0  0  0  0  0  0  0  0  0  0  0  0
   -6.8839    0.4778   -1.9481 H   0  0  0  0  0  0  0  0  0  0  0  0
   -6.1372    3.0008   -1.2978 H   0  0  0  0  0  0  0  0  0  0  0  0
   -3.0968    3.4100   -0.2537 H   0  0  0  0  0  0  0  0  0  0  0  0
   -4.0871    4.3151   -1.4406 H   0  0  0  0  0  0  0  0  0  0  0  0
   -2.5744    3.5452   -1.9731 H   0  0  0  0  0  0  0  0  0  0  0  0
   -3.3577   -1.1813    2.0626 H   0  0  0  0  0  0  0  0  0  0  0  0
   -4.4625   -3.3578    1.9642 H   0  0  0  0  0  0  0  0  0  0  0  0
   -4.5217   -5.5342   -1.0141 H   0  0  0  0  0  0  0  0  0  0  0  0
   -3.5833   -6.0274    0.4233 H   0  0  0  0  0  0  0  0  0  0  0  0
   -5.1846   -5.2706    0.6035 H   0  0  0  0  0  0  0  0  0  0  0  0
   -2.5286   -4.1976   -1.7974 H   0  0  0  0  0  0  0  0  0  0  0  0
   -1.3559   -2.0562   -1.6875 H   0  0  0  0  0  0  0  0  0  0  0  0
    4.2755   -0.8643    0.4199 H   0  0  0  0  0  0  0  0  0  0  0  0
    7.2605   -1.0472   -1.6011 H   0  0  0  0  0  0  0  0  0  0  0  0
    6.4136   -1.6050   -0.1548 H   0  0  0  0  0  0  0  0  0  0  0  0
    5.4970   -0.9751   -1.5788 H   0  0  0  0  0  0  0  0  0  0  0  0
  1  2  1  0
  2  3  1  0
  3  4  2  0
  4  5  1  0
  5  6  2  0
  6  7  1  0
  7  8  1  0
  8  9  2  0
  8 10  1  0
 10 11  1  0
 11 12  1  0
 12 13  2  0
 13 14  1  0
 14 15  2  0
 15 16  1  0
 16 17  1  0
 17 18  2  0
 18 19  1  0
 19 20  2  0
 20 21  1  0
 21 22  1  0
 15 23  1  0
 23 24  1  0
 24 25  2  0
 25 26  1  0
 26 27  2  0
 27 28  1  0
 27 29  1  0
 29 30  2  0
  6 31  1  0
 31 32  2  0
 32 33  1  0
 33 34  1  0
 32  3  1  0
 23 12  1  0
 30 24  1  0
 21 17  1  0
  1 35  1  0
  1 36  1  0
  1 37  1  0
  4 38  1  0
  5 39  1  0
  7 40  1  0
 10 41  1  0
 10 42  1  0
 16 43  1  0
 16 44  1  0
 18 45  1  0
 19 46  1  0
 20 47  1  0
 22 48  1  0
 22 49  1  0
 22 50  1  0
 25 51  1  0
 26 52  1  0
 28 53  1  0
 28 54  1  0
 28 55  1  0
 29 56  1  0
 30 57  1  0
 31 58  1  0
 34 59  1  0
 34 60  1  0
 34 61  1  0
M  END
$$$$
