
     RDKit          3D

 46 49  0  0  0  0  0  0  0  0999 V2000
    1.3414    0.5938   -1.7006 O   0  0  0  0  0  0  0  0  0  0  0  0
    1.8100    1.3655   -0.8723 C   0  0  0  0  0  0  0  0  0  0  0  0
    1.0370    1.9073    0.3233 C   0  0  0  0  0  0  0  0  0  0  0  0
   -0.2685    1.2365    0.4692 N   0  0  0  0  0  4  0  0  0  0  0  0
   -1.5295    1.8030    0.2999 C   0  0  0  0  0  0  0  0  0  0  0  0
   -2.4940    0.8136    0.4626 C   0  0  0  0  0  0  0  0  0  0  0  0
   -4.0535    1.0072    0.3833 C   0  0  0  0  0  0  0  0  0  0  0  0
   -4.5896    2.2599    0.0590 C   0  0  0  0  0  0  0  0  0  0  0  0
   -5.9768    2.4341   -0.0164 C   0  0  0  0  0  0  0  0  0  0  0  0
   -6.8392    1.3628    0.2345 C   0  0  0  0  0  0  0  0  0  0  0  0
   -8.5374    1.6489    0.1240 Cl  0  0  0  0  0  0  0  0  0  0  0  0
   -6.3062    0.1134    0.5644 C   0  0  0  0  0  0  0  0  0  0  0  0
   -7.2994   -1.2631    0.8956 Cl  0  0  0  0  0  0  0  0  0  0  0  0
   -4.9166   -0.0617    0.6396 C   0  0  0  0  0  0  0  0  0  0  0  0
   -1.7451   -0.3263    0.6981 N   0  0  0  0  0  0  0  0  0  0  0  0
   -0.4407   -0.0627    0.6994 C   0  0  0  0  0  0  0  0  0  0  0  0
    0.4002   -1.2566    0.9537 C   0  0  0  0  0  0  0  0  0  0  0  0
   -0.6097   -2.4045    0.7678 C   0  0  0  0  0  0  0  0  0  0  0  0
   -2.0075   -1.7433    0.9183 C   0  0  0  0  0  0  0  0  0  0  0  0
    3.0874    1.8309   -0.8465 O   0  0  0  0  0  0  0  0  0  0  0  0
    3.9823    1.2241   -1.7925 C   0  0  0  0  0  0  0  0  0  0  0  0
    4.5097   -0.0617   -1.2086 C   0  0  0  0  0  0  0  0  0  0  0  0
    4.1017   -1.3003   -1.7231 C   0  0  0  0  0  0  0  0  0  0  0  0
    4.5775   -2.4898   -1.1650 C   0  0  0  0  0  0  0  0  0  0  0  0
    5.4592   -2.4524   -0.0849 C   0  0  0  0  0  0  0  0  0  0  0  0
    5.8669   -1.2265    0.4391 C   0  0  0  0  0  0  0  0  0  0  0  0
    5.3939   -0.0359   -0.1188 C   0  0  0  0  0  0  0  0  0  0  0  0
    0.8793    2.9824    0.1927 H   0  0  0  0  0  0  0  0  0  0  0  0
    1.6033    1.7195    1.2424 H   0  0  0  0  0  0  0  0  0  0  0  0
   -1.5839    2.8574    0.0864 H   0  0  0  0  0  0  0  0  0  0  0  0
   -3.9606    3.1219   -0.1479 H   0  0  0  0  0  0  0  0  0  0  0  0
   -6.3827    3.4116   -0.2740 H   0  0  0  0  0  0  0  0  0  0  0  0
   -4.5413   -1.0416    0.9117 H   0  0  0  0  0  0  0  0  0  0  0  0
    0.7538   -1.1730    1.9828 H   0  0  0  0  0  0  0  0  0  0  0  0
    1.2236   -1.2876    0.2413 H   0  0  0  0  0  0  0  0  0  0  0  0
   -0.4536   -3.2290    1.4698 H   0  0  0  0  0  0  0  0  0  0  0  0
   -0.5140   -2.8056   -0.2483 H   0  0  0  0  0  0  0  0  0  0  0  0
   -2.3995   -1.8752    1.9316 H   0  0  0  0  0  0  0  0  0  0  0  0
   -2.7068   -2.1340    0.1747 H   0  0  0  0  0  0  0  0  0  0  0  0
    3.4990    1.0777   -2.7666 H   0  0  0  0  0  0  0  0  0  0  0  0
    4.8124    1.9201   -1.9601 H   0  0  0  0  0  0  0  0  0  0  0  0
    3.4146   -1.3485   -2.5675 H   0  0  0  0  0  0  0  0  0  0  0  0
    4.2699   -3.4470   -1.5816 H   0  0  0  0  0  0  0  0  0  0  0  0
    5.8408   -3.3789    0.3399 H   0  0  0  0  0  0  0  0  0  0  0  0
    6.5642   -1.1991    1.2748 H   0  0  0  0  0  0  0  0  0  0  0  0
    5.7282    0.9127    0.2950 H   0  0  0  0  0  0  0  0  0  0  0  0
  1  2  2  0
  2  3  1  0
  3  4  1  0
  4  5  1  0
  5  6  2  0
  6  7  1  0
  7  8  2  0
  8  9  1  0
  9 10  2  0
 10 11  1  0
 10 12  1  0
 12 13  1  0
 12 14  2  0
  6 15  1  0
 15 16  1  0
 16 17  1  0
 17 18  1  0
 18 19  1  0
  2 20  1  0
 20 21  1  0
 21 22  1  0
 22 23  2  0
 23 24  1  0
 24 25  2  0
 25 26  1  0
 26 27  2  0
 16  4  2  0
 27 22  1  0
 14  7  1  0
 19 15  1  0
  3 28  1  0
  3 29  1  0
  5 30  1  0
  8 31  1  0
  9 32  1  0
 14 33  1  0
 17 34  1  0
 17 35  1  0
 18 36  1  0
 18 37  1  0
 19 38  1  0
 19 39  1  0
 21 40  1  0
 21 41  1  0
 23 42  1  0
 24 43  1  0
 25 44  1  0
 26 45  1  0
 27 46  1  0
M  CHG  1   4   1
M  END
$$$$
