
     RDKit          3D

 44 47  0  0  0  0  0  0  0  0999 V2000
   -6.3339   -1.1455    2.5697 C   0  0  0  0  0  0  0  0  0  0  0  0
   -5.4855   -1.2288    1.3159 C   0  0  0  0  0  0  0  0  0  0  0  0
   -4.6222   -0.0768    1.2960 O   0  0  0  0  0  0  0  0  0  0  0  0
   -3.3906   -0.4118    0.7991 C   0  0  0  0  0  0  0  0  0  0  0  0
   -2.4322   -0.8651    1.7022 C   0  0  0  0  0  0  0  0  0  0  0  0
   -1.1696   -1.2468    1.2489 C   0  0  0  0  0  0  0  0  0  0  0  0
   -0.8558   -1.1657   -0.1066 C   0  0  0  0  0  0  0  0  0  0  0  0
    0.4635   -1.5506   -0.6218 C   0  0  0  0  0  0  0  0  0  0  0  0
    1.6400   -1.0123   -0.2657 C   0  0  0  0  0  0  0  0  0  0  0  0
    1.9145    0.2626    0.9088 S   0  0  0  0  0  0  0  0  0  0  0  0
    3.5817    0.2619    0.5103 C   0  0  0  0  0  0  0  0  0  0  0  0
    4.6199    0.9668    0.8713 N   0  0  0  0  0  0  0  0  0  0  0  0
    5.6111    0.4204    0.0690 C   0  0  0  0  0  0  0  0  0  0  0  0
    7.0868    0.9365    0.1098 C   0  0  0  0  0  0  0  0  0  0  0  0
    8.1279    0.4860   -0.6825 C   0  0  0  0  0  0  0  0  0  0  0  0
    9.2712    1.2424   -0.3214 C   0  0  0  0  0  0  0  0  0  0  0  0
    8.8600    2.1070    0.6679 C   0  0  0  0  0  0  0  0  0  0  0  0
    7.5417    1.9237    0.9368 O   0  0  0  0  0  0  0  0  0  0  0  0
    5.2053   -0.5706   -0.7489 N   0  0  0  0  0  0  0  0  0  0  0  0
    3.9007   -0.6405   -0.4315 N   0  0  0  0  0  0  0  0  0  0  0  0
    2.9021   -1.4442   -0.9441 C   0  0  0  0  0  0  0  0  0  0  0  0
    3.0766   -2.3027   -1.7976 O   0  0  0  0  0  0  0  0  0  0  0  0
   -1.8259   -0.7057   -1.0046 C   0  0  0  0  0  0  0  0  0  0  0  0
   -3.0781   -0.2833   -0.5524 C   0  0  0  0  0  0  0  0  0  0  0  0
   -3.9303    0.2047   -1.5088 O   0  0  0  0  0  0  0  0  0  0  0  0
   -4.5028    1.4671   -1.1586 C   0  0  0  0  0  0  0  0  0  0  0  0
   -4.8455    2.2124   -2.4326 C   0  0  0  0  0  0  0  0  0  0  0  0
   -6.9263   -0.2264    2.5657 H   0  0  0  0  0  0  0  0  0  0  0  0
   -5.6994   -1.1105    3.4561 H   0  0  0  0  0  0  0  0  0  0  0  0
   -7.0071   -2.0064    2.6510 H   0  0  0  0  0  0  0  0  0  0  0  0
   -6.1301   -1.1967    0.4290 H   0  0  0  0  0  0  0  0  0  0  0  0
   -4.9357   -2.1775    1.3194 H   0  0  0  0  0  0  0  0  0  0  0  0
   -2.6748   -0.9224    2.7580 H   0  0  0  0  0  0  0  0  0  0  0  0
   -0.4410   -1.6052    1.9676 H   0  0  0  0  0  0  0  0  0  0  0  0
    0.4341   -2.3115   -1.3986 H   0  0  0  0  0  0  0  0  0  0  0  0
    8.0582   -0.2799   -1.4472 H   0  0  0  0  0  0  0  0  0  0  0  0
   10.2667    1.1738   -0.7397 H   0  0  0  0  0  0  0  0  0  0  0  0
    9.3544    2.8796    1.2421 H   0  0  0  0  0  0  0  0  0  0  0  0
   -1.6034   -0.6380   -2.0625 H   0  0  0  0  0  0  0  0  0  0  0  0
   -3.8008    2.0836   -0.5737 H   0  0  0  0  0  0  0  0  0  0  0  0
   -5.4219    1.3066   -0.5845 H   0  0  0  0  0  0  0  0  0  0  0  0
   -5.6133    1.6660   -3.0001 H   0  0  0  0  0  0  0  0  0  0  0  0
   -3.9677    2.3156   -3.0837 H   0  0  0  0  0  0  0  0  0  0  0  0
   -5.2225    3.2084   -2.1969 H   0  0  0  0  0  0  0  0  0  0  0  0
  1  2  1  0
  2  3  1  0
  3  4  1  0
  4  5  2  0
  5  6  1  0
  6  7  2  0
  7  8  1  0
  8  9  2  3
  9 10  1  0
 10 11  1  0
 11 12  2  0
 12 13  1  0
 13 14  1  0
 14 15  2  0
 15 16  1  0
 16 17  2  0
 17 18  1  0
 13 19  2  0
 19 20  1  0
 20 21  1  0
 21 22  2  0
  7 23  1  0
 23 24  2  0
 24 25  1  0
 25 26  1  0
 26 27  1  0
 24  4  1  0
 21  9  1  0
 20 11  1  0
 18 14  1  0
  1 28  1  0
  1 29  1  0
  1 30  1  0
  2 31  1  0
  2 32  1  0
  5 33  1  0
  6 34  1  0
  8 35  1  0
 15 36  1  0
 16 37  1  0
 17 38  1  0
 23 39  1  0
 26 40  1  0
 26 41  1  0
 27 42  1  0
 27 43  1  0
 27 44  1  0
M  END
$$$$
