
     RDKit          3D

 24 26  0  0  0  0  0  0  0  0999 V2000
    3.1184   -1.3033   -0.4454 N   0  0  0  0  0  0  0  0  0  0  0  0
    1.7240   -1.1628   -0.3021 C   0  0  0  0  0  0  0  0  0  0  0  0
    0.8889   -2.2303   -0.7055 C   0  0  0  0  0  0  0  0  0  0  0  0
   -0.5116   -2.1251   -0.6835 C   0  0  0  0  0  0  0  0  0  0  0  0
   -1.0795   -0.9264   -0.2947 C   0  0  0  0  0  0  0  0  0  0  0  0
   -0.2658    0.1248    0.0386 C   0  0  0  0  0  0  0  0  0  0  0  0
   -1.0223    1.2257    0.3546 C   0  0  0  0  0  0  0  0  0  0  0  0
   -0.3933    2.4098    0.6980 C   0  0  0  0  0  0  0  0  0  0  0  0
    1.0076    2.4472    0.7045 C   0  0  0  0  0  0  0  0  0  0  0  0
    1.7662    1.3048    0.3769 C   0  0  0  0  0  0  0  0  0  0  0  0
    1.1330    0.0857    0.0358 C   0  0  0  0  0  0  0  0  0  0  0  0
   -2.4896    0.9291    0.2564 C   0  0  0  0  0  0  0  0  0  0  0  0
   -2.5288   -0.5512   -0.2011 C   0  0  0  0  0  0  0  0  0  0  0  0
    3.4336   -2.2653   -0.3737 H   0  0  0  0  0  0  0  0  0  0  0  0
    3.6434   -0.6860    0.1645 H   0  0  0  0  0  0  0  0  0  0  0  0
    1.3338   -3.1641   -1.0411 H   0  0  0  0  0  0  0  0  0  0  0  0
   -1.1288   -2.9663   -0.9822 H   0  0  0  0  0  0  0  0  0  0  0  0
   -0.9679    3.2957    0.9494 H   0  0  0  0  0  0  0  0  0  0  0  0
    1.5191    3.3717    0.9622 H   0  0  0  0  0  0  0  0  0  0  0  0
    2.8496    1.3762    0.3826 H   0  0  0  0  0  0  0  0  0  0  0  0
   -2.9809    1.0499    1.2274 H   0  0  0  0  0  0  0  0  0  0  0  0
   -2.9753    1.5773   -0.4804 H   0  0  0  0  0  0  0  0  0  0  0  0
   -3.0512   -1.1731    0.5329 H   0  0  0  0  0  0  0  0  0  0  0  0
   -3.0226   -0.6441   -1.1740 H   0  0  0  0  0  0  0  0  0  0  0  0
  1  2  1  0
  2  3  2  0
  3  4  1  0
  4  5  2  0
  5  6  1  0
  6  7  2  0
  7  8  1  0
  8  9  2  0
  9 10  1  0
 10 11  2  0
  7 12  1  0
 12 13  1  0
 11  2  1  0
 13  5  1  0
 11  6  1  0
  1 14  1  0
  1 15  1  0
  3 16  1  0
  4 17  1  0
  8 18  1  0
  9 19  1  0
 10 20  1  0
 12 21  1  0
 12 22  1  0
 13 23  1  0
 13 24  1  0
M  END
$$$$
