
     RDKit          3D

 23 23  0  0  0  0  0  0  0  0999 V2000
   -0.0133    2.4574   -0.4360 O   0  0  0  0  0  0  0  0  0  0  0  0
   -1.0639    1.9206   -0.7354 C   0  0  0  0  0  0  0  0  0  0  0  0
   -2.0838    2.6380   -1.2470 O   0  0  0  0  0  0  0  0  0  0  0  0
   -1.4179    0.4857   -0.5975 C   0  0  0  0  0  0  0  0  0  0  0  0
   -2.7566    0.1288   -0.3566 C   0  0  0  0  0  0  0  0  0  0  0  0
   -3.1149   -1.2111   -0.2042 C   0  0  0  0  0  0  0  0  0  0  0  0
   -2.1427   -2.2026   -0.2956 C   0  0  0  0  0  0  0  0  0  0  0  0
   -0.8124   -1.8542   -0.5371 C   0  0  0  0  0  0  0  0  0  0  0  0
   -0.4287   -0.5130   -0.6784 C   0  0  0  0  0  0  0  0  0  0  0  0
    0.9240   -0.2552   -0.9685 N   0  0  0  0  0  0  0  0  0  0  0  0
    1.6485    0.1685    0.0192 C   0  0  0  0  0  0  0  0  0  0  0  0
    3.0810    0.5325   -0.1869 C   0  0  0  0  0  0  0  0  0  0  0  0
    3.8569   -0.3156    0.7550 N   0  0  0  0  0  4  0  0  0  0  0  0
    3.8736    0.0328    1.9436 O   0  0  0  0  0  0  0  0  0  0  0  0
    4.4315   -1.3077    0.2900 O   0  0  0  0  0  1  0  0  0  0  0  0
   -1.7260    3.5481   -1.3123 H   0  0  0  0  0  0  0  0  0  0  0  0
   -3.5273    0.8933   -0.2849 H   0  0  0  0  0  0  0  0  0  0  0  0
   -4.1525   -1.4800   -0.0205 H   0  0  0  0  0  0  0  0  0  0  0  0
   -2.4180   -3.2492   -0.1884 H   0  0  0  0  0  0  0  0  0  0  0  0
   -0.0620   -2.6370   -0.6266 H   0  0  0  0  0  0  0  0  0  0  0  0
    1.2311    0.3113    1.0346 H   0  0  0  0  0  0  0  0  0  0  0  0
    3.2546    1.5767    0.0835 H   0  0  0  0  0  0  0  0  0  0  0  0
    3.4190    0.3318   -1.2061 H   0  0  0  0  0  0  0  0  0  0  0  0
  1  2  2  0
  2  3  1  0
  2  4  1  0
  4  5  2  0
  5  6  1  0
  6  7  2  0
  7  8  1  0
  8  9  2  0
  9 10  1  0
 10 11  2  3
 11 12  1  0
 12 13  1  0
 13 14  2  0
 13 15  1  0
  9  4  1  0
  3 16  1  0
  5 17  1  0
  6 18  1  0
  7 19  1  0
  8 20  1  0
 11 21  1  0
 12 22  1  0
 12 23  1  0
M  CHG  2  13   1  15  -1
M  END
$$$$
