
     RDKit          3D

 35 36  0  0  0  0  0  0  0  0999 V2000
   -5.8011    0.1974   -1.8048 C   0  0  0  0  0  0  0  0  0  0  0  0
   -4.7831    1.1765   -1.2817 C   0  0  0  0  0  0  0  0  0  0  0  0
   -4.8591    2.3753   -1.5434 O   0  0  0  0  0  0  0  0  0  0  0  0
   -3.6666    0.6739   -0.4264 C   0  0  0  0  0  0  0  0  0  0  0  0
   -3.5712   -0.6663   -0.0317 C   0  0  0  0  0  0  0  0  0  0  0  0
   -2.5041   -1.0879    0.7691 C   0  0  0  0  0  0  0  0  0  0  0  0
   -1.5356   -0.1722    1.1809 C   0  0  0  0  0  0  0  0  0  0  0  0
   -0.4188   -0.6094    1.9503 N   0  0  0  0  0  0  0  0  0  0  0  0
    0.9229   -1.2058    1.0846 S   0  0  0  0  0  6  0  0  0  0  0  0
    0.5012   -1.5702   -0.2508 O   0  0  0  0  0  0  0  0  0  0  0  0
    1.5151   -2.1788    1.9809 O   0  0  0  0  0  0  0  0  0  0  0  0
    1.9721    0.2534    1.0342 C   0  0  0  0  0  0  0  0  0  0  0  0
    3.2761   -0.0962    0.3631 C   0  0  0  0  0  0  0  0  0  0  0  0
    4.3705   -0.5410    1.1202 C   0  0  0  0  0  0  0  0  0  0  0  0
    5.5765   -0.8695    0.4966 C   0  0  0  0  0  0  0  0  0  0  0  0
    5.6947   -0.7579   -0.8866 C   0  0  0  0  0  0  0  0  0  0  0  0
    7.1808   -1.1617   -1.6535 Cl  0  0  0  0  0  0  0  0  0  0  0  0
    4.6156   -0.3237   -1.6526 C   0  0  0  0  0  0  0  0  0  0  0  0
    3.4091    0.0051   -1.0303 C   0  0  0  0  0  0  0  0  0  0  0  0
   -1.6156    1.1601    0.7846 C   0  0  0  0  0  0  0  0  0  0  0  0
   -2.6831    1.5837   -0.0112 C   0  0  0  0  0  0  0  0  0  0  0  0
   -6.5041    0.7247   -2.4573 H   0  0  0  0  0  0  0  0  0  0  0  0
   -6.3655   -0.2390   -0.9768 H   0  0  0  0  0  0  0  0  0  0  0  0
   -5.3118   -0.5799   -2.3974 H   0  0  0  0  0  0  0  0  0  0  0  0
   -4.3056   -1.4053   -0.3387 H   0  0  0  0  0  0  0  0  0  0  0  0
   -2.4270   -2.1362    1.0469 H   0  0  0  0  0  0  0  0  0  0  0  0
   -0.6404   -1.2832    2.6875 H   0  0  0  0  0  0  0  0  0  0  0  0
    1.4496    1.0365    0.4778 H   0  0  0  0  0  0  0  0  0  0  0  0
    2.1364    0.5922    2.0617 H   0  0  0  0  0  0  0  0  0  0  0  0
    4.2909   -0.6466    2.2010 H   0  0  0  0  0  0  0  0  0  0  0  0
    6.4154   -1.2166    1.0940 H   0  0  0  0  0  0  0  0  0  0  0  0
    4.7040   -0.2448   -2.7330 H   0  0  0  0  0  0  0  0  0  0  0  0
    2.5709    0.3299   -1.6453 H   0  0  0  0  0  0  0  0  0  0  0  0
   -0.8663    1.8805    1.0987 H   0  0  0  0  0  0  0  0  0  0  0  0
   -2.7431    2.6292   -0.3104 H   0  0  0  0  0  0  0  0  0  0  0  0
  1  2  1  0
  2  3  2  0
  2  4  1  0
  4  5  2  0
  5  6  1  0
  6  7  2  0
  7  8  1  0
  8  9  1  0
  9 10  2  0
  9 11  2  0
  9 12  1  0
 12 13  1  0
 13 14  2  0
 14 15  1  0
 15 16  2  0
 16 17  1  0
 16 18  1  0
 18 19  2  0
  7 20  1  0
 20 21  2  0
 21  4  1  0
 19 13  1  0
  1 22  1  0
  1 23  1  0
  1 24  1  0
  5 25  1  0
  6 26  1  0
  8 27  1  0
 12 28  1  0
 12 29  1  0
 14 30  1  0
 15 31  1  0
 18 32  1  0
 19 33  1  0
 20 34  1  0
 21 35  1  0
M  END
$$$$
