
     RDKit          3D

 60 63  0  0  0  0  0  0  0  0999 V2000
   -6.9185    2.3974    1.6224 C   0  0  0  0  0  0  0  0  0  0  0  0
   -6.5714    1.8440    0.4526 C   0  0  0  0  0  0  0  0  0  0  0  0
   -6.7209    0.3852    0.1230 C   0  0  0  0  0  0  0  0  0  0  0  0
   -5.4019   -0.2119   -0.0342 N   0  0  0  0  0  0  0  0  0  0  0  0
   -4.8033   -0.8443    1.0494 C   0  0  0  0  0  0  0  0  0  0  0  0
   -5.3438   -0.9607    2.1480 O   0  0  0  0  0  0  0  0  0  0  0  0
   -3.4488   -1.4403    0.8498 C   0  0  0  0  0  0  0  0  0  0  0  0
   -2.8508   -2.1133    1.9261 C   0  0  0  0  0  0  0  0  0  0  0  0
   -1.6032   -2.7130    1.7742 C   0  0  0  0  0  0  0  0  0  0  0  0
   -0.9544   -2.6525    0.5447 C   0  0  0  0  0  0  0  0  0  0  0  0
   -1.5401   -1.9833   -0.5351 C   0  0  0  0  0  0  0  0  0  0  0  0
   -2.7822   -1.3580   -0.3833 C   0  0  0  0  0  0  0  0  0  0  0  0
   -3.4375   -0.6414   -1.4081 N   0  0  0  0  0  0  0  0  0  0  0  0
   -3.1092   -0.2620   -2.6962 C   0  0  0  0  0  0  0  0  0  0  0  0
   -1.5804   -0.4212   -3.4947 S   0  0  0  0  0  0  0  0  0  0  0  0
   -0.9108    1.2407   -3.1688 C   0  0  0  0  0  0  0  0  0  0  0  0
   -0.4872    1.3241   -1.7089 C   0  0  0  0  0  0  0  0  0  0  0  0
   -1.2971    1.6591   -0.8490 O   0  0  0  0  0  0  0  0  0  0  0  0
    0.8263    0.9290   -1.5182 N   0  0  0  0  0  0  0  0  0  0  0  0
    1.4920    0.7447   -0.3127 C   0  0  0  0  0  0  0  0  0  0  0  0
    0.7103    0.9790    1.1655 S   0  0  0  0  0  0  0  0  0  0  0  0
    2.0906    0.5516    2.0624 C   0  0  0  0  0  0  0  0  0  0  0  0
    2.0215    0.5688    3.5563 C   0  0  0  0  0  0  0  0  0  0  0  0
    3.1671    0.2189    1.2490 C   0  0  0  0  0  0  0  0  0  0  0  0
    4.5057   -0.2119    1.7991 C   0  0  0  0  0  0  0  0  0  0  0  0
    5.4834    0.9482    1.9305 C   0  0  0  0  0  0  0  0  0  0  0  0
    2.8170    0.3461   -0.1649 C   0  0  0  0  0  0  0  0  0  0  0  0
    3.6610    0.1106   -1.3464 C   0  0  0  0  0  0  0  0  0  0  0  0
    3.2244    0.1867   -2.4931 O   0  0  0  0  0  0  0  0  0  0  0  0
    4.9557   -0.1859   -1.0533 O   0  0  0  0  0  0  0  0  0  0  0  0
    5.7996   -0.3966   -2.1914 C   0  0  0  0  0  0  0  0  0  0  0  0
    7.1862   -0.7515   -1.6890 C   0  0  0  0  0  0  0  0  0  0  0  0
   -4.1245    0.3520   -3.2631 N   0  0  0  0  0  0  0  0  0  0  0  0
   -5.1312    0.4380   -2.3414 N   0  0  0  0  0  0  0  0  0  0  0  0
   -4.7083   -0.1231   -1.2291 C   0  0  0  0  0  0  0  0  0  0  0  0
   -7.3261    1.8009    2.4338 H   0  0  0  0  0  0  0  0  0  0  0  0
   -6.7857    3.4620    1.7962 H   0  0  0  0  0  0  0  0  0  0  0  0
   -6.1601    2.4776   -0.3307 H   0  0  0  0  0  0  0  0  0  0  0  0
   -7.2774   -0.1415    0.9074 H   0  0  0  0  0  0  0  0  0  0  0  0
   -7.2906    0.2661   -0.8055 H   0  0  0  0  0  0  0  0  0  0  0  0
   -3.3582   -2.1726    2.8878 H   0  0  0  0  0  0  0  0  0  0  0  0
   -1.1428   -3.2304    2.6121 H   0  0  0  0  0  0  0  0  0  0  0  0
    0.0174   -3.1266    0.4240 H   0  0  0  0  0  0  0  0  0  0  0  0
   -0.9882   -1.9921   -1.4652 H   0  0  0  0  0  0  0  0  0  0  0  0
   -0.0534    1.4168   -3.8258 H   0  0  0  0  0  0  0  0  0  0  0  0
   -1.6496    2.0195   -3.3804 H   0  0  0  0  0  0  0  0  0  0  0  0
    1.3860    0.7153   -2.3440 H   0  0  0  0  0  0  0  0  0  0  0  0
    1.0681    0.9557    3.9283 H   0  0  0  0  0  0  0  0  0  0  0  0
    2.8148    1.2020    3.9638 H   0  0  0  0  0  0  0  0  0  0  0  0
    2.1503   -0.4426    3.9525 H   0  0  0  0  0  0  0  0  0  0  0  0
    4.9380   -1.0054    1.1799 H   0  0  0  0  0  0  0  0  0  0  0  0
    4.3708   -0.6693    2.7870 H   0  0  0  0  0  0  0  0  0  0  0  0
    5.6508    1.4492    0.9718 H   0  0  0  0  0  0  0  0  0  0  0  0
    6.4493    0.5862    2.2971 H   0  0  0  0  0  0  0  0  0  0  0  0
    5.1123    1.6984    2.6369 H   0  0  0  0  0  0  0  0  0  0  0  0
    5.8458    0.5210   -2.7901 H   0  0  0  0  0  0  0  0  0  0  0  0
    5.4053   -1.2178   -2.8005 H   0  0  0  0  0  0  0  0  0  0  0  0
    7.1514   -1.6598   -1.0781 H   0  0  0  0  0  0  0  0  0  0  0  0
    7.5811    0.0470   -1.0526 H   0  0  0  0  0  0  0  0  0  0  0  0
    7.8758   -0.9127   -2.5233 H   0  0  0  0  0  0  0  0  0  0  0  0
  1  2  2  0
  2  3  1  0
  3  4  1  0
  4  5  1  0
  5  6  2  0
  5  7  1  0
  7  8  2  0
  8  9  1  0
  9 10  2  0
 10 11  1  0
 11 12  2  0
 12 13  1  0
 13 14  1  0
 14 15  1  0
 15 16  1  0
 16 17  1  0
 17 18  2  0
 17 19  1  0
 19 20  1  0
 20 21  1  0
 21 22  1  0
 22 23  1  0
 22 24  2  0
 24 25  1  0
 25 26  1  0
 24 27  1  0
 27 28  1  0
 28 29  2  0
 28 30  1  0
 30 31  1  0
 31 32  1  0
 14 33  2  0
 33 34  1  0
 34 35  2  0
 35  4  1  0
 12  7  1  0
 35 13  1  0
 27 20  2  0
  1 36  1  0
  1 37  1  0
  2 38  1  0
  3 39  1  0
  3 40  1  0
  8 41  1  0
  9 42  1  0
 10 43  1  0
 11 44  1  0
 16 45  1  0
 16 46  1  0
 19 47  1  0
 23 48  1  0
 23 49  1  0
 23 50  1  0
 25 51  1  0
 25 52  1  0
 26 53  1  0
 26 54  1  0
 26 55  1  0
 31 56  1  0
 31 57  1  0
 32 58  1  0
 32 59  1  0
 32 60  1  0
M  END
$$$$
