
     RDKit          3D

 46 49  0  0  0  0  0  0  0  0999 V2000
    2.9863   -1.4282   -2.6546 O   0  0  0  0  0  0  0  0  0  0  0  0
    2.9146   -1.3243   -1.4293 C   0  0  0  0  0  0  0  0  0  0  0  0
    2.7655   -2.5643   -0.5590 C   0  0  0  0  0  0  0  0  0  0  0  0
    1.0194   -3.0738   -0.5050 S   0  0  0  0  0  0  0  0  0  0  0  0
    0.3822   -1.8537    0.5357 C   0  0  0  0  0  0  0  0  0  0  0  0
    1.0768   -1.1747    1.4176 N   0  0  0  0  0  0  0  0  0  0  0  0
    0.2237   -0.3017    2.0358 N   0  0  0  0  0  0  0  0  0  0  0  0
   -0.9825   -0.4642    1.5190 C   0  0  0  0  0  0  0  0  0  0  0  0
   -2.2132    0.2692    1.9399 C   0  0  0  0  0  0  0  0  0  0  0  0
   -2.8576   -0.3743    3.1394 C   0  0  0  0  0  0  0  0  0  0  0  0
   -2.4598   -0.2977    4.4615 C   0  0  0  0  0  0  0  0  0  0  0  0
   -3.3162   -1.0366    5.3331 C   0  0  0  0  0  0  0  0  0  0  0  0
   -4.3337   -1.6620    4.6486 C   0  0  0  0  0  0  0  0  0  0  0  0
   -4.2595   -1.3471    2.9670 S   0  0  0  0  0  0  0  0  0  0  0  0
   -0.9119   -1.4127    0.5189 N   0  0  0  0  0  0  0  0  0  0  0  0
   -1.9676   -1.7927   -0.4024 C   0  0  0  0  0  0  0  0  0  0  0  0
   -2.0432   -0.8174   -1.5208 C   0  0  0  0  0  0  0  0  0  0  0  0
   -1.2483   -0.5571   -2.6208 C   0  0  0  0  0  0  0  0  0  0  0  0
   -1.8589    0.5178   -3.3079 C   0  0  0  0  0  0  0  0  0  0  0  0
   -2.9807    0.8492   -2.5845 C   0  0  0  0  0  0  0  0  0  0  0  0
   -3.1035    0.0436   -1.5029 O   0  0  0  0  0  0  0  0  0  0  0  0
    2.9355   -0.1386   -0.7165 N   0  0  0  0  0  0  0  0  0  0  0  0
    3.1009    1.1742   -1.2254 C   0  0  0  0  0  0  0  0  0  0  0  0
    3.3844    1.4393   -2.5676 C   0  0  0  0  0  0  0  0  0  0  0  0
    3.5300    2.7554   -3.0223 C   0  0  0  0  0  0  0  0  0  0  0  0
    3.3928    3.8174   -2.1387 C   0  0  0  0  0  0  0  0  0  0  0  0
    3.5796    5.4323   -2.7029 Cl  0  0  0  0  0  0  0  0  0  0  0  0
    3.1193    3.5824   -0.7980 C   0  0  0  0  0  0  0  0  0  0  0  0
    2.9843    2.2700   -0.3451 C   0  0  0  0  0  0  0  0  0  0  0  0
    2.6935    2.0368    1.3410 Cl  0  0  0  0  0  0  0  0  0  0  0  0
    3.3534   -3.3674   -1.0168 H   0  0  0  0  0  0  0  0  0  0  0  0
    3.1722   -2.4035    0.4434 H   0  0  0  0  0  0  0  0  0  0  0  0
   -2.9281    0.3638    1.1159 H   0  0  0  0  0  0  0  0  0  0  0  0
   -1.9316    1.2995    2.2039 H   0  0  0  0  0  0  0  0  0  0  0  0
   -1.5847    0.2594    4.7862 H   0  0  0  0  0  0  0  0  0  0  0  0
   -3.1838   -1.1134    6.4054 H   0  0  0  0  0  0  0  0  0  0  0  0
   -5.1110   -2.2895    5.0552 H   0  0  0  0  0  0  0  0  0  0  0  0
   -2.9058   -1.8387    0.1550 H   0  0  0  0  0  0  0  0  0  0  0  0
   -1.7791   -2.8022   -0.7789 H   0  0  0  0  0  0  0  0  0  0  0  0
   -0.3364   -1.0718   -2.8961 H   0  0  0  0  0  0  0  0  0  0  0  0
   -1.5218    0.9959   -4.2169 H   0  0  0  0  0  0  0  0  0  0  0  0
   -3.7563    1.5929   -2.7039 H   0  0  0  0  0  0  0  0  0  0  0  0
    2.6848   -0.1881    0.2743 H   0  0  0  0  0  0  0  0  0  0  0  0
    3.5055    0.6453   -3.2954 H   0  0  0  0  0  0  0  0  0  0  0  0
    3.7479    2.9339   -4.0703 H   0  0  0  0  0  0  0  0  0  0  0  0
    3.0225    4.4175   -0.1052 H   0  0  0  0  0  0  0  0  0  0  0  0
  1  2  2  0
  2  3  1  0
  3  4  1  0
  4  5  1  0
  5  6  2  0
  6  7  1  0
  7  8  2  0
  8  9  1  0
  9 10  1  0
 10 11  2  0
 11 12  1  0
 12 13  2  0
 13 14  1  0
  8 15  1  0
 15 16  1  0
 16 17  1  0
 17 18  2  0
 18 19  1  0
 19 20  2  0
 20 21  1  0
  2 22  1  0
 22 23  1  0
 23 24  2  0
 24 25  1  0
 25 26  2  0
 26 27  1  0
 26 28  1  0
 28 29  2  0
 29 30  1  0
 15  5  1  0
 21 17  1  0
 29 23  1  0
 14 10  1  0
  3 31  1  0
  3 32  1  0
  9 33  1  0
  9 34  1  0
 11 35  1  0
 12 36  1  0
 13 37  1  0
 16 38  1  0
 16 39  1  0
 18 40  1  0
 19 41  1  0
 20 42  1  0
 22 43  1  0
 24 44  1  0
 25 45  1  0
 28 46  1  0
M  END
$$$$
