
     RDKit          3D

 31 32  0  0  0  0  0  0  0  0999 V2000
    5.4164   -1.4205    1.1619 C   0  0  0  0  0  0  0  0  0  0  0  0
    4.2835   -0.0965    1.6614 S   0  0  0  0  0  0  0  0  0  0  0  0
    2.8166   -0.5892    0.7720 C   0  0  0  0  0  0  0  0  0  0  0  0
    2.8247   -0.7591   -0.6166 C   0  0  0  0  0  0  0  0  0  0  0  0
    1.6581   -1.1286   -1.2890 C   0  0  0  0  0  0  0  0  0  0  0  0
    0.4767   -1.3262   -0.5762 C   0  0  0  0  0  0  0  0  0  0  0  0
    0.4627   -1.1558    0.8063 C   0  0  0  0  0  0  0  0  0  0  0  0
   -0.7639   -1.3165    1.5199 N   0  0  0  0  0  0  0  0  0  0  0  0
   -1.7253    0.0788    1.6740 S   0  0  0  0  0  6  0  0  0  0  0  0
   -0.8784    1.1948    2.0452 O   0  0  0  0  0  0  0  0  0  0  0  0
   -2.8653   -0.2875    2.4896 O   0  0  0  0  0  0  0  0  0  0  0  0
   -2.4185    0.5291    0.1382 C   0  0  0  0  0  0  0  0  0  0  0  0
   -2.7666    1.8106   -0.2459 C   0  0  0  0  0  0  0  0  0  0  0  0
   -3.2799    1.6753   -1.5023 N   0  0  0  0  0  0  0  0  0  0  0  0
   -3.7922    2.7344   -2.3339 C   0  0  0  0  0  0  0  0  0  0  0  0
   -3.2326    0.3526   -1.8395 C   0  0  0  0  0  0  0  0  0  0  0  0
   -2.7158   -0.3738   -0.8737 N   0  0  0  0  0  0  0  0  0  0  0  0
    1.6239   -0.7722    1.4799 C   0  0  0  0  0  0  0  0  0  0  0  0
    6.3475   -1.3242    1.7270 H   0  0  0  0  0  0  0  0  0  0  0  0
    4.9806   -2.4002    1.3763 H   0  0  0  0  0  0  0  0  0  0  0  0
    5.6532   -1.3512    0.0972 H   0  0  0  0  0  0  0  0  0  0  0  0
    3.7318   -0.5896   -1.1911 H   0  0  0  0  0  0  0  0  0  0  0  0
    1.6675   -1.2566   -2.3683 H   0  0  0  0  0  0  0  0  0  0  0  0
   -0.4281   -1.6193   -1.1034 H   0  0  0  0  0  0  0  0  0  0  0  0
   -0.6536   -1.7173    2.4503 H   0  0  0  0  0  0  0  0  0  0  0  0
   -2.6867    2.7592    0.2677 H   0  0  0  0  0  0  0  0  0  0  0  0
   -4.6875    2.3781   -2.8498 H   0  0  0  0  0  0  0  0  0  0  0  0
   -3.0180    3.0065   -3.0555 H   0  0  0  0  0  0  0  0  0  0  0  0
   -4.0462    3.5947   -1.7092 H   0  0  0  0  0  0  0  0  0  0  0  0
   -3.5855   -0.0246   -2.7911 H   0  0  0  0  0  0  0  0  0  0  0  0
    1.6006   -0.6053    2.5536 H   0  0  0  0  0  0  0  0  0  0  0  0
  1  2  1  0
  2  3  1  0
  3  4  2  0
  4  5  1  0
  5  6  2  0
  6  7  1  0
  7  8  1  0
  8  9  1  0
  9 10  2  0
  9 11  2  0
  9 12  1  0
 12 13  2  0
 13 14  1  0
 14 15  1  0
 14 16  1  0
 16 17  2  0
  7 18  2  0
 18  3  1  0
 17 12  1  0
  1 19  1  0
  1 20  1  0
  1 21  1  0
  4 22  1  0
  5 23  1  0
  6 24  1  0
  8 25  1  0
 13 26  1  0
 15 27  1  0
 15 28  1  0
 15 29  1  0
 16 30  1  0
 18 31  1  0
M  END
$$$$
