
     RDKit          3D

 33 34  0  0  0  0  0  0  0  0999 V2000
   -5.2352    1.6788   -1.2129 N   0  0  0  0  0  0  0  0  0  0  0  0
   -4.1442    0.9955   -0.6668 C   0  0  0  0  0  0  0  0  0  0  0  0
   -2.9426    1.6665   -0.4262 C   0  0  0  0  0  0  0  0  0  0  0  0
   -1.8832    1.0288    0.2295 C   0  0  0  0  0  0  0  0  0  0  0  0
   -2.0323   -0.2834    0.6933 C   0  0  0  0  0  0  0  0  0  0  0  0
   -0.9410   -1.0138    1.3926 C   0  0  0  0  0  0  0  0  0  0  0  0
   -1.0206   -2.1829    1.7345 O   0  0  0  0  0  0  0  0  0  0  0  0
    0.1295   -0.2039    1.5746 O   0  0  0  0  0  0  0  0  0  0  0  0
    1.2743   -0.8055    2.2043 C   0  0  0  0  0  0  0  0  0  0  0  0
    2.1123   -1.6034    1.2026 C   0  0  0  0  0  0  0  0  0  0  0  0
    2.7802   -0.7173    0.1763 C   0  0  0  0  0  0  0  0  0  0  0  0
    2.1571   -0.4595   -1.0525 C   0  0  0  0  0  0  0  0  0  0  0  0
    2.7650    0.3731   -1.9931 C   0  0  0  0  0  0  0  0  0  0  0  0
    3.9988    0.9575   -1.7139 C   0  0  0  0  0  0  0  0  0  0  0  0
    4.6254    0.7107   -0.4937 C   0  0  0  0  0  0  0  0  0  0  0  0
    4.0190   -0.1214    0.4487 C   0  0  0  0  0  0  0  0  0  0  0  0
   -3.2539   -0.9392    0.5035 C   0  0  0  0  0  0  0  0  0  0  0  0
   -4.3069   -0.2929   -0.1524 C   0  0  0  0  0  0  0  0  0  0  0  0
   -4.9789    2.4483   -1.8234 H   0  0  0  0  0  0  0  0  0  0  0  0
   -5.9364    1.0739   -1.6290 H   0  0  0  0  0  0  0  0  0  0  0  0
   -2.8178    2.6971   -0.7490 H   0  0  0  0  0  0  0  0  0  0  0  0
   -0.9544    1.5743    0.3786 H   0  0  0  0  0  0  0  0  0  0  0  0
    0.9525   -1.4459    3.0345 H   0  0  0  0  0  0  0  0  0  0  0  0
    1.8621    0.0083    2.6436 H   0  0  0  0  0  0  0  0  0  0  0  0
    2.8851   -2.1657    1.7411 H   0  0  0  0  0  0  0  0  0  0  0  0
    1.4949   -2.3466    0.6842 H   0  0  0  0  0  0  0  0  0  0  0  0
    1.1924   -0.9061   -1.2830 H   0  0  0  0  0  0  0  0  0  0  0  0
    2.2750    0.5654   -2.9439 H   0  0  0  0  0  0  0  0  0  0  0  0
    4.4721    1.6051   -2.4471 H   0  0  0  0  0  0  0  0  0  0  0  0
    5.5875    1.1669   -0.2756 H   0  0  0  0  0  0  0  0  0  0  0  0
    4.5206   -0.3025    1.3965 H   0  0  0  0  0  0  0  0  0  0  0  0
   -3.3986   -1.9511    0.8771 H   0  0  0  0  0  0  0  0  0  0  0  0
   -5.2577   -0.8090   -0.2580 H   0  0  0  0  0  0  0  0  0  0  0  0
  1  2  1  0
  2  3  2  0
  3  4  1  0
  4  5  2  0
  5  6  1  0
  6  7  2  0
  6  8  1  0
  8  9  1  0
  9 10  1  0
 10 11  1  0
 11 12  2  0
 12 13  1  0
 13 14  2  0
 14 15  1  0
 15 16  2  0
  5 17  1  0
 17 18  2  0
 18  2  1  0
 16 11  1  0
  1 19  1  0
  1 20  1  0
  3 21  1  0
  4 22  1  0
  9 23  1  0
  9 24  1  0
 10 25  1  0
 10 26  1  0
 12 27  1  0
 13 28  1  0
 14 29  1  0
 15 30  1  0
 16 31  1  0
 17 32  1  0
 18 33  1  0
M  END
$$$$
