
     RDKit          3D

 51 54  0  0  0  0  0  0  0  0999 V2000
    2.6676    0.6790    1.6480 O   0  0  0  0  0  0  0  0  0  0  0  0
    3.0906    1.0740    0.5645 C   0  0  0  0  0  0  0  0  0  0  0  0
    2.1552    1.7054   -0.4751 C   0  0  0  0  0  0  0  0  0  0  0  0
    0.8033    1.2345   -0.2769 N   0  0  0  0  0  0  0  0  0  0  0  0
    0.3520    0.1007   -0.9109 C   0  0  0  0  0  0  0  0  0  0  0  0
    0.9292   -0.4645   -1.8255 O   0  0  0  0  0  0  0  0  0  0  0  0
   -0.9727   -0.4240   -0.3582 C   0  0  0  0  0  0  0  0  0  0  0  0
   -1.8620    0.4838   -0.0749 N   0  0  0  0  0  0  0  0  0  0  0  0
   -3.0921    0.0874    0.4018 N   0  0  0  0  0  0  0  0  0  0  0  0
   -4.0741    1.1465    0.6193 C   0  0  0  0  0  0  0  0  0  0  0  0
   -4.7727    1.5476   -0.6593 C   0  0  0  0  0  0  0  0  0  0  0  0
   -5.9233    0.8684   -1.0848 C   0  0  0  0  0  0  0  0  0  0  0  0
   -6.5545    1.2240   -2.2781 C   0  0  0  0  0  0  0  0  0  0  0  0
   -6.0400    2.2575   -3.0598 C   0  0  0  0  0  0  0  0  0  0  0  0
   -4.8922    2.9335   -2.6521 C   0  0  0  0  0  0  0  0  0  0  0  0
   -4.2583    2.5779   -1.4599 C   0  0  0  0  0  0  0  0  0  0  0  0
   -3.4670   -1.2398    0.5868 C   0  0  0  0  0  0  0  0  0  0  0  0
   -4.5761   -1.5974    0.9768 O   0  0  0  0  0  0  0  0  0  0  0  0
   -2.4373   -2.2584    0.3069 C   0  0  0  0  0  0  0  0  0  0  0  0
   -2.7201   -3.6149    0.5228 C   0  0  0  0  0  0  0  0  0  0  0  0
   -1.7412   -4.5779    0.2848 C   0  0  0  0  0  0  0  0  0  0  0  0
   -0.4809   -4.1876   -0.1623 C   0  0  0  0  0  0  0  0  0  0  0  0
   -0.1985   -2.8361   -0.3787 C   0  0  0  0  0  0  0  0  0  0  0  0
   -1.1845   -1.8669   -0.1549 C   0  0  0  0  0  0  0  0  0  0  0  0
    4.4126    1.0599    0.1549 N   0  0  0  0  0  0  0  0  0  0  0  0
    5.5347    0.5989    0.8792 C   0  0  0  0  0  0  0  0  0  0  0  0
    5.4862    0.1243    2.1939 C   0  0  0  0  0  0  0  0  0  0  0  0
    6.6561   -0.3079    2.8311 C   0  0  0  0  0  0  0  0  0  0  0  0
    7.8723   -0.2624    2.1562 C   0  0  0  0  0  0  0  0  0  0  0  0
    8.9835   -0.6774    2.7785 F   0  0  0  0  0  0  0  0  0  0  0  0
    7.9354    0.2084    0.8539 C   0  0  0  0  0  0  0  0  0  0  0  0
    9.1075    0.2434    0.2045 F   0  0  0  0  0  0  0  0  0  0  0  0
    6.7743    0.6373    0.2236 C   0  0  0  0  0  0  0  0  0  0  0  0
    6.8314    1.0917   -1.0402 F   0  0  0  0  0  0  0  0  0  0  0  0
    2.4913    1.4669   -1.4889 H   0  0  0  0  0  0  0  0  0  0  0  0
    2.1588    2.7894   -0.3312 H   0  0  0  0  0  0  0  0  0  0  0  0
    0.3061    1.5145    0.5634 H   0  0  0  0  0  0  0  0  0  0  0  0
   -4.8160    0.8240    1.3597 H   0  0  0  0  0  0  0  0  0  0  0  0
   -3.5579    2.0095    1.0590 H   0  0  0  0  0  0  0  0  0  0  0  0
   -6.3279    0.0510   -0.4898 H   0  0  0  0  0  0  0  0  0  0  0  0
   -7.4445    0.6900   -2.5992 H   0  0  0  0  0  0  0  0  0  0  0  0
   -6.5300    2.5309   -3.9908 H   0  0  0  0  0  0  0  0  0  0  0  0
   -4.4854    3.7328   -3.2659 H   0  0  0  0  0  0  0  0  0  0  0  0
   -3.3534    3.1007   -1.1612 H   0  0  0  0  0  0  0  0  0  0  0  0
   -3.7019   -3.9209    0.8798 H   0  0  0  0  0  0  0  0  0  0  0  0
   -1.9613   -5.6294    0.4509 H   0  0  0  0  0  0  0  0  0  0  0  0
    0.2862   -4.9370   -0.3453 H   0  0  0  0  0  0  0  0  0  0  0  0
    0.7973   -2.5717   -0.7247 H   0  0  0  0  0  0  0  0  0  0  0  0
    4.6157    1.3767   -0.7893 H   0  0  0  0  0  0  0  0  0  0  0  0
    4.5560    0.0797    2.7545 H   0  0  0  0  0  0  0  0  0  0  0  0
    6.6224   -0.6757    3.8532 H   0  0  0  0  0  0  0  0  0  0  0  0
  1  2  2  0
  2  3  1  0
  3  4  1  0
  4  5  1  0
  5  6  2  0
  5  7  1  0
  7  8  2  0
  8  9  1  0
  9 10  1  0
 10 11  1  0
 11 12  2  0
 12 13  1  0
 13 14  2  0
 14 15  1  0
 15 16  2  0
  9 17  1  0
 17 18  2  0
 17 19  1  0
 19 20  2  0
 20 21  1  0
 21 22  2  0
 22 23  1  0
 23 24  2  0
  2 25  1  0
 25 26  1  0
 26 27  2  0
 27 28  1  0
 28 29  2  0
 29 30  1  0
 29 31  1  0
 31 32  1  0
 31 33  2  0
 33 34  1  0
 24  7  1  0
 33 26  1  0
 16 11  1  0
 24 19  1  0
  3 35  1  0
  3 36  1  0
  4 37  1  0
 10 38  1  0
 10 39  1  0
 12 40  1  0
 13 41  1  0
 14 42  1  0
 15 43  1  0
 16 44  1  0
 20 45  1  0
 21 46  1  0
 22 47  1  0
 23 48  1  0
 25 49  1  0
 27 50  1  0
 28 51  1  0
M  END
$$$$
