
     RDKit          3D

 61 67  0  0  0  0  0  0  0  0999 V2000
    3.2784   -1.3845   -3.1255 O   0  0  0  0  0  0  0  0  0  0  0  0
    3.0795   -0.9688   -1.9870 C   0  0  0  0  0  0  0  0  0  0  0  0
    4.2087   -1.0104   -1.0367 C   0  0  0  0  0  0  0  0  0  0  0  0
    4.1118   -1.7872    0.1383 C   0  0  0  0  0  0  0  0  0  0  0  0
    5.1874   -1.8490    1.0282 C   0  0  0  0  0  0  0  0  0  0  0  0
    6.3272   -1.1429    0.7026 C   0  0  0  0  0  0  0  0  0  0  0  0
    6.4232   -0.4037   -0.4558 C   0  0  0  0  0  0  0  0  0  0  0  0
    5.3836   -0.3213   -1.3557 C   0  0  0  0  0  0  0  0  0  0  0  0
    7.6331    0.2039   -0.5827 O   0  0  0  0  0  0  0  0  0  0  0  0
    8.2956   -0.2519    0.6152 C   0  0  0  0  0  0  0  0  0  0  0  0
    7.4649   -1.0904    1.4457 O   0  0  0  0  0  0  0  0  0  0  0  0
    1.8473   -0.4862   -1.5497 N   0  0  0  0  0  0  0  0  0  0  0  0
    1.6364    0.3286   -0.3628 C   0  0  0  0  0  0  0  0  0  0  0  0
    0.4377   -0.1757    0.4391 C   0  0  0  0  0  0  0  0  0  0  0  0
   -0.7973   -0.5305   -0.4442 C   0  0  0  0  0  0  0  0  0  0  0  0
   -0.5790   -0.0459   -1.9014 C   0  0  0  0  0  0  0  0  0  0  0  0
    0.7323   -0.5762   -2.4840 C   0  0  0  0  0  0  0  0  0  0  0  0
   -0.8552   -1.9792   -0.5820 O   0  0  0  0  0  0  0  0  0  0  0  0
   -1.4348   -2.6962    0.4213 C   0  0  0  0  0  0  0  0  0  0  0  0
   -1.2419   -4.0781    0.3773 C   0  0  0  0  0  0  0  0  0  0  0  0
   -1.7758   -4.8898    1.3796 C   0  0  0  0  0  0  0  0  0  0  0  0
   -2.5005   -4.3132    2.4180 C   0  0  0  0  0  0  0  0  0  0  0  0
   -3.0059   -5.0946    3.3806 F   0  0  0  0  0  0  0  0  0  0  0  0
   -2.7101   -2.9415    2.4695 C   0  0  0  0  0  0  0  0  0  0  0  0
   -2.1809   -2.1394    1.4556 C   0  0  0  0  0  0  0  0  0  0  0  0
   -2.3987   -0.6878    1.4604 C   0  0  0  0  0  0  0  0  0  0  0  0
   -2.7653   -0.1291    2.4910 O   0  0  0  0  0  0  0  0  0  0  0  0
   -2.1235    0.0308    0.1443 C   0  0  0  0  0  0  0  0  0  0  0  0
   -2.1673    1.5429    0.3239 C   0  0  0  0  0  0  0  0  0  0  0  0
   -3.5736    1.7874   -0.1062 C   0  0  0  0  0  0  0  0  0  0  0  0
   -4.2543    3.0849    0.1191 C   0  0  0  0  0  0  0  0  0  0  0  0
   -5.5983    3.2184   -0.2566 C   0  0  0  0  0  0  0  0  0  0  0  0
   -6.2699    4.4285   -0.0617 C   0  0  0  0  0  0  0  0  0  0  0  0
   -5.5983    5.5071    0.5083 C   0  0  0  0  0  0  0  0  0  0  0  0
   -6.4211    6.9981    0.7492 Cl  0  0  0  0  0  0  0  0  0  0  0  0
   -4.2613    5.3857    0.8842 C   0  0  0  0  0  0  0  0  0  0  0  0
   -3.5868    4.1753    0.6899 C   0  0  0  0  0  0  0  0  0  0  0  0
   -4.1354    0.7936   -0.7165 N   0  0  0  0  0  0  0  0  0  0  0  0
   -3.2117   -0.2721   -0.7440 O   0  0  0  0  0  0  0  0  0  0  0  0
    3.2036   -2.3482    0.3465 H   0  0  0  0  0  0  0  0  0  0  0  0
    5.1361   -2.4388    1.9366 H   0  0  0  0  0  0  0  0  0  0  0  0
    5.4750    0.2483   -2.2736 H   0  0  0  0  0  0  0  0  0  0  0  0
    8.6044    0.6228    1.1990 H   0  0  0  0  0  0  0  0  0  0  0  0
    9.1899   -0.8175    0.3287 H   0  0  0  0  0  0  0  0  0  0  0  0
    1.4631    1.3575   -0.7025 H   0  0  0  0  0  0  0  0  0  0  0  0
    2.5210    0.3715    0.2761 H   0  0  0  0  0  0  0  0  0  0  0  0
    0.7568   -1.0592    1.0064 H   0  0  0  0  0  0  0  0  0  0  0  0
    0.1931    0.5931    1.1804 H   0  0  0  0  0  0  0  0  0  0  0  0
   -1.3947   -0.3817   -2.5533 H   0  0  0  0  0  0  0  0  0  0  0  0
   -0.5639    1.0480   -1.9505 H   0  0  0  0  0  0  0  0  0  0  0  0
    0.9906   -0.0115   -3.3880 H   0  0  0  0  0  0  0  0  0  0  0  0
    0.6280   -1.6267   -2.7820 H   0  0  0  0  0  0  0  0  0  0  0  0
   -0.6708   -4.5226   -0.4347 H   0  0  0  0  0  0  0  0  0  0  0  0
   -1.6305   -5.9658    1.3578 H   0  0  0  0  0  0  0  0  0  0  0  0
   -3.2877   -2.5144    3.2839 H   0  0  0  0  0  0  0  0  0  0  0  0
   -1.9779    1.8781    1.3462 H   0  0  0  0  0  0  0  0  0  0  0  0
   -1.5052    2.0862   -0.3544 H   0  0  0  0  0  0  0  0  0  0  0  0
   -6.1334    2.3808   -0.7014 H   0  0  0  0  0  0  0  0  0  0  0  0
   -7.3125    4.5188   -0.3555 H   0  0  0  0  0  0  0  0  0  0  0  0
   -3.7393    6.2292    1.3298 H   0  0  0  0  0  0  0  0  0  0  0  0
   -2.5458    4.1126    0.9916 H   0  0  0  0  0  0  0  0  0  0  0  0
  1  2  2  0
  2  3  1  0
  3  4  2  0
  4  5  1  0
  5  6  2  0
  6  7  1  0
  7  8  2  0
  7  9  1  0
  9 10  1  0
 10 11  1  0
  2 12  1  0
 12 13  1  0
 13 14  1  0
 14 15  1  0
 15 16  1  0
 16 17  1  0
 15 18  1  0
 18 19  1  0
 19 20  2  0
 20 21  1  0
 21 22  2  0
 22 23  1  0
 22 24  1  0
 24 25  2  0
 25 26  1  0
 26 27  2  0
 26 28  1  0
 28 29  1  0
 29 30  1  0
 30 31  1  0
 31 32  2  0
 32 33  1  0
 33 34  2  0
 34 35  1  0
 34 36  1  0
 36 37  2  0
 30 38  2  0
 38 39  1  0
  8  3  1  0
 17 12  1  0
 25 19  1  0
 39 28  1  0
 11  6  1  0
 28 15  1  0
 37 31  1  0
  4 40  1  0
  5 41  1  0
  8 42  1  0
 10 43  1  0
 10 44  1  0
 13 45  1  0
 13 46  1  0
 14 47  1  0
 14 48  1  0
 16 49  1  0
 16 50  1  0
 17 51  1  0
 17 52  1  0
 20 53  1  0
 21 54  1  0
 24 55  1  0
 29 56  1  0
 29 57  1  0
 32 58  1  0
 33 59  1  0
 36 60  1  0
 37 61  1  0
M  END
$$$$
