
     RDKit          3D

 62 65  0  0  0  0  0  0  0  0999 V2000
   -2.2876   -2.4681    1.1996 C   0  0  0  0  0  0  0  0  0  0  0  0
   -2.2793   -1.7771   -0.1580 C   0  0  0  0  0  0  0  0  0  0  0  0
   -2.8385   -0.4273   -0.0859 N   0  0  0  0  0  0  0  0  0  0  0  0
   -2.2972    0.6839    0.5906 C   0  0  0  0  0  0  0  0  0  0  0  0
   -1.0200    1.0646    0.7985 C   0  0  0  0  0  0  0  0  0  0  0  0
    0.1904    0.4837    0.2629 C   0  0  0  0  0  0  0  0  0  0  0  0
    1.4064    0.8751    0.6699 C   0  0  0  0  0  0  0  0  0  0  0  0
    2.6365    0.3383    0.0527 C   0  0  0  0  0  0  0  0  0  0  0  0
    3.0131   -0.9063    0.0027 N   0  0  0  0  0  4  0  0  0  0  0  0
    2.3805   -2.1135    0.5725 C   0  0  0  0  0  0  0  0  0  0  0  0
    1.7191   -2.9339   -0.5207 C   0  0  0  0  0  0  0  0  0  0  0  0
    4.3264   -0.9928   -0.6647 C   0  0  0  0  0  0  0  0  0  0  0  0
    5.1089   -2.1082   -0.9064 C   0  0  0  0  0  0  0  0  0  0  0  0
    6.3253   -1.9137   -1.5661 C   0  0  0  0  0  0  0  0  0  0  0  0
    6.7293   -0.6277   -1.9612 C   0  0  0  0  0  0  0  0  0  0  0  0
    5.9280    0.4862   -1.7012 C   0  0  0  0  0  0  0  0  0  0  0  0
    4.7241    0.2848   -1.0461 C   0  0  0  0  0  0  0  0  0  0  0  0
    3.6746    1.2733   -0.6195 C   0  0  0  0  0  0  0  0  0  0  0  0
    4.2417    2.2807    0.3846 C   0  0  0  0  0  0  0  0  0  0  0  0
    3.0541    1.9830   -1.8259 C   0  0  0  0  0  0  0  0  0  0  0  0
   -3.4780    1.5770    1.1127 C   0  0  0  0  0  0  0  0  0  0  0  0
   -3.4362    2.9948    0.5224 C   0  0  0  0  0  0  0  0  0  0  0  0
   -3.5136    1.6196    2.6477 C   0  0  0  0  0  0  0  0  0  0  0  0
   -4.6816    0.8249    0.5829 C   0  0  0  0  0  0  0  0  0  0  0  0
   -6.0301    1.1383    0.7109 C   0  0  0  0  0  0  0  0  0  0  0  0
   -6.9678    0.2734    0.1506 C   0  0  0  0  0  0  0  0  0  0  0  0
   -6.5505   -0.8806   -0.5241 C   0  0  0  0  0  0  0  0  0  0  0  0
   -5.1896   -1.1862   -0.6454 C   0  0  0  0  0  0  0  0  0  0  0  0
   -4.2502   -0.3319   -0.0848 C   0  0  0  0  0  0  0  0  0  0  0  0
   -1.8578   -3.4712    1.1138 H   0  0  0  0  0  0  0  0  0  0  0  0
   -1.6969   -1.9108    1.9339 H   0  0  0  0  0  0  0  0  0  0  0  0
   -3.3048   -2.5682    1.5921 H   0  0  0  0  0  0  0  0  0  0  0  0
   -1.2554   -1.7484   -0.5318 H   0  0  0  0  0  0  0  0  0  0  0  0
   -2.8073   -2.3976   -0.8903 H   0  0  0  0  0  0  0  0  0  0  0  0
   -0.8660    1.9648    1.3950 H   0  0  0  0  0  0  0  0  0  0  0  0
    0.0753   -0.2253   -0.5473 H   0  0  0  0  0  0  0  0  0  0  0  0
    1.5329    1.6568    1.4147 H   0  0  0  0  0  0  0  0  0  0  0  0
    1.6381   -1.8014    1.3137 H   0  0  0  0  0  0  0  0  0  0  0  0
    3.1436   -2.6916    1.1046 H   0  0  0  0  0  0  0  0  0  0  0  0
    2.4507   -3.3439   -1.2240 H   0  0  0  0  0  0  0  0  0  0  0  0
    1.0065   -2.3411   -1.1020 H   0  0  0  0  0  0  0  0  0  0  0  0
    1.1773   -3.7769   -0.0795 H   0  0  0  0  0  0  0  0  0  0  0  0
    4.8221   -3.1111   -0.6099 H   0  0  0  0  0  0  0  0  0  0  0  0
    6.9727   -2.7642   -1.7794 H   0  0  0  0  0  0  0  0  0  0  0  0
    7.6822   -0.4992   -2.4749 H   0  0  0  0  0  0  0  0  0  0  0  0
    6.2547    1.4769   -2.0082 H   0  0  0  0  0  0  0  0  0  0  0  0
    3.4750    2.9904    0.7144 H   0  0  0  0  0  0  0  0  0  0  0  0
    5.0629    2.8622   -0.0501 H   0  0  0  0  0  0  0  0  0  0  0  0
    4.6284    1.7801    1.2805 H   0  0  0  0  0  0  0  0  0  0  0  0
    2.2592    2.6710   -1.5165 H   0  0  0  0  0  0  0  0  0  0  0  0
    3.8013    2.5650   -2.3773 H   0  0  0  0  0  0  0  0  0  0  0  0
    2.6084    1.2675   -2.5274 H   0  0  0  0  0  0  0  0  0  0  0  0
   -3.3954    2.9737   -0.5733 H   0  0  0  0  0  0  0  0  0  0  0  0
   -2.5637    3.5541    0.8768 H   0  0  0  0  0  0  0  0  0  0  0  0
   -4.3251    3.5715    0.8040 H   0  0  0  0  0  0  0  0  0  0  0  0
   -4.4006    2.1510    3.0121 H   0  0  0  0  0  0  0  0  0  0  0  0
   -2.6364    2.1335    3.0559 H   0  0  0  0  0  0  0  0  0  0  0  0
   -3.5380    0.6113    3.0787 H   0  0  0  0  0  0  0  0  0  0  0  0
   -6.3545    2.0317    1.2350 H   0  0  0  0  0  0  0  0  0  0  0  0
   -8.0293    0.4952    0.2344 H   0  0  0  0  0  0  0  0  0  0  0  0
   -7.2933   -1.5429   -0.9634 H   0  0  0  0  0  0  0  0  0  0  0  0
   -4.9047   -2.0774   -1.1916 H   0  0  0  0  0  0  0  0  0  0  0  0
  1  2  1  0
  2  3  1  0
  3  4  1  0
  4  5  2  3
  5  6  1  0
  6  7  2  3
  7  8  1  0
  8  9  2  0
  9 10  1  0
 10 11  1  0
  9 12  1  0
 12 13  2  0
 13 14  1  0
 14 15  2  0
 15 16  1  0
 16 17  2  0
 17 18  1  0
 18 19  1  0
 18 20  1  0
  4 21  1  0
 21 22  1  0
 21 23  1  0
 21 24  1  0
 24 25  2  0
 25 26  1  0
 26 27  2  0
 27 28  1  0
 28 29  2  0
 29  3  1  0
 18  8  1  0
 29 24  1  0
 17 12  1  0
  1 30  1  0
  1 31  1  0
  1 32  1  0
  2 33  1  0
  2 34  1  0
  5 35  1  0
  6 36  1  0
  7 37  1  0
 10 38  1  0
 10 39  1  0
 11 40  1  0
 11 41  1  0
 11 42  1  0
 13 43  1  0
 14 44  1  0
 15 45  1  0
 16 46  1  0
 19 47  1  0
 19 48  1  0
 19 49  1  0
 20 50  1  0
 20 51  1  0
 20 52  1  0
 22 53  1  0
 22 54  1  0
 22 55  1  0
 23 56  1  0
 23 57  1  0
 23 58  1  0
 25 59  1  0
 26 60  1  0
 27 61  1  0
 28 62  1  0
M  CHG  1   9   1
M  END
$$$$
