
     RDKit          3D

 42 44  0  0  0  0  0  0  0  0999 V2000
   -2.3282    1.8447   -1.9998 C   0  0  0  0  0  0  0  0  0  0  0  0
   -3.2553    1.7339   -0.8062 C   0  0  0  0  0  0  0  0  0  0  0  0
   -3.8281    2.7550   -0.4139 O   0  0  0  0  0  0  0  0  0  0  0  0
   -3.4472    0.4459   -0.2592 N   0  0  0  0  0  0  0  0  0  0  0  0
   -2.4373   -0.5235   -0.2352 C   0  0  0  0  0  0  0  0  0  0  0  0
   -1.1125   -0.3040   -0.2193 C   0  0  0  0  0  0  0  0  0  0  0  0
   -0.1459   -1.3828   -0.1883 C   0  0  0  0  0  0  0  0  0  0  0  0
    1.1940   -1.2859   -0.1560 C   0  0  0  0  0  0  0  0  0  0  0  0
    1.9911   -0.0751   -0.1423 C   0  0  0  0  0  0  0  0  0  0  0  0
    3.3314    0.0112   -0.1169 C   0  0  0  0  0  0  0  0  0  0  0  0
    4.1429    1.5641   -0.1016 S   0  0  0  0  0  0  0  0  0  0  0  0
    5.7379    0.8000   -0.0682 C   0  0  0  0  0  0  0  0  0  0  0  0
    6.9609    1.4557   -0.0423 C   0  0  0  0  0  0  0  0  0  0  0  0
    8.1355    0.6957   -0.0181 C   0  0  0  0  0  0  0  0  0  0  0  0
    8.0800   -0.7058   -0.0199 C   0  0  0  0  0  0  0  0  0  0  0  0
    6.8487   -1.3614   -0.0460 C   0  0  0  0  0  0  0  0  0  0  0  0
    5.6938   -0.5891   -0.0697 C   0  0  0  0  0  0  0  0  0  0  0  0
    4.3231   -1.1139   -0.0986 C   0  0  0  0  0  0  0  0  0  0  0  0
    4.0787   -2.3083   -0.1066 O   0  0  0  0  0  0  0  0  0  0  0  0
   -4.7506    0.1312    0.3069 C   0  0  0  0  0  0  0  0  0  0  0  0
   -4.8991   -0.8904    1.2638 C   0  0  0  0  0  0  0  0  0  0  0  0
   -6.1522   -1.2135    1.7975 C   0  0  0  0  0  0  0  0  0  0  0  0
   -7.2858   -0.5223    1.3850 C   0  0  0  0  0  0  0  0  0  0  0  0
   -7.1654    0.4936    0.4433 C   0  0  0  0  0  0  0  0  0  0  0  0
   -5.9114    0.8164   -0.0889 C   0  0  0  0  0  0  0  0  0  0  0  0
   -1.3653    2.2572   -1.6903 H   0  0  0  0  0  0  0  0  0  0  0  0
   -2.7824    2.5289   -2.7245 H   0  0  0  0  0  0  0  0  0  0  0  0
   -2.1925    0.8894   -2.5119 H   0  0  0  0  0  0  0  0  0  0  0  0
   -2.7969   -1.5491   -0.1780 H   0  0  0  0  0  0  0  0  0  0  0  0
   -0.7294    0.7086   -0.1859 H   0  0  0  0  0  0  0  0  0  0  0  0
   -0.5591   -2.3925   -0.1940 H   0  0  0  0  0  0  0  0  0  0  0  0
    1.7400   -2.2290   -0.1377 H   0  0  0  0  0  0  0  0  0  0  0  0
    1.4350    0.8592   -0.1520 H   0  0  0  0  0  0  0  0  0  0  0  0
    7.0127    2.5408   -0.0406 H   0  0  0  0  0  0  0  0  0  0  0  0
    9.1018    1.1960    0.0026 H   0  0  0  0  0  0  0  0  0  0  0  0
    9.0016   -1.2838   -0.0008 H   0  0  0  0  0  0  0  0  0  0  0  0
    6.7913   -2.4462   -0.0476 H   0  0  0  0  0  0  0  0  0  0  0  0
   -4.0394   -1.4322    1.6483 H   0  0  0  0  0  0  0  0  0  0  0  0
   -6.2369   -1.9990    2.5442 H   0  0  0  0  0  0  0  0  0  0  0  0
   -8.2590   -0.7687    1.8009 H   0  0  0  0  0  0  0  0  0  0  0  0
   -8.0457    1.0421    0.1178 H   0  0  0  0  0  0  0  0  0  0  0  0
   -5.8747    1.6069   -0.8341 H   0  0  0  0  0  0  0  0  0  0  0  0
  1  2  1  0
  2  3  2  0
  2  4  1  0
  4  5  1  0
  5  6  2  3
  6  7  1  0
  7  8  2  3
  8  9  1  0
  9 10  2  3
 10 11  1  0
 11 12  1  0
 12 13  2  0
 13 14  1  0
 14 15  2  0
 15 16  1  0
 16 17  2  0
 17 18  1  0
 18 19  2  0
  4 20  1  0
 20 21  2  0
 21 22  1  0
 22 23  2  0
 23 24  1  0
 24 25  2  0
 18 10  1  0
 25 20  1  0
 17 12  1  0
  1 26  1  0
  1 27  1  0
  1 28  1  0
  5 29  1  0
  6 30  1  0
  7 31  1  0
  8 32  1  0
  9 33  1  0
 13 34  1  0
 14 35  1  0
 15 36  1  0
 16 37  1  0
 21 38  1  0
 22 39  1  0
 23 40  1  0
 24 41  1  0
 25 42  1  0
M  END
$$$$
