
     RDKit          3D

 53 56  0  0  0  0  0  0  0  0999 V2000
   -8.7013    3.0576   -1.0747 C   0  0  0  0  0  0  0  0  0  0  0  0
   -8.1437    2.2170   -0.0712 O   0  0  0  0  0  0  0  0  0  0  0  0
   -6.9749    1.5768   -0.3758 C   0  0  0  0  0  0  0  0  0  0  0  0
   -6.3066    1.6280   -1.5993 C   0  0  0  0  0  0  0  0  0  0  0  0
   -5.1195    0.9135   -1.7799 C   0  0  0  0  0  0  0  0  0  0  0  0
   -4.5894    0.1478   -0.7384 C   0  0  0  0  0  0  0  0  0  0  0  0
   -5.2435    0.1011    0.4964 C   0  0  0  0  0  0  0  0  0  0  0  0
   -4.7250   -0.6951    1.6483 C   0  0  0  0  0  0  0  0  0  0  0  0
   -5.4885   -0.9888    2.5685 O   0  0  0  0  0  0  0  0  0  0  0  0
   -3.2766   -1.1645    1.6523 C   0  0  0  0  0  0  0  0  0  0  0  0
   -2.3921   -0.0816    1.3705 O   0  0  0  0  0  0  0  0  0  0  0  0
   -1.0956   -0.4819    1.2051 C   0  0  0  0  0  0  0  0  0  0  0  0
   -0.3973   -1.2123    2.1623 C   0  0  0  0  0  0  0  0  0  0  0  0
    0.9446   -1.5557    1.9423 C   0  0  0  0  0  0  0  0  0  0  0  0
    1.6113   -1.1709    0.7691 C   0  0  0  0  0  0  0  0  0  0  0  0
    3.0248   -1.4932    0.4793 C   0  0  0  0  0  0  0  0  0  0  0  0
    3.7724   -2.2705    1.5342 C   0  0  0  0  0  0  0  0  0  0  0  0
    3.5702   -1.0708   -0.6849 C   0  0  0  0  0  0  0  0  0  0  0  0
    5.0007   -1.3114   -1.1261 C   0  0  0  0  0  0  0  0  0  0  0  0
    5.9224   -0.1426   -0.8431 C   0  0  0  0  0  0  0  0  0  0  0  0
    6.5528   -0.0070    0.4029 C   0  0  0  0  0  0  0  0  0  0  0  0
    7.3902    1.0811    0.6603 C   0  0  0  0  0  0  0  0  0  0  0  0
    7.6065    2.0454   -0.3221 C   0  0  0  0  0  0  0  0  0  0  0  0
    6.9854    1.9239   -1.5637 C   0  0  0  0  0  0  0  0  0  0  0  0
    6.1476    0.8375   -1.8222 C   0  0  0  0  0  0  0  0  0  0  0  0
    2.7555   -0.3438   -1.7034 C   0  0  0  0  0  0  0  0  0  0  0  0
    3.1957   -0.0615   -2.8138 O   0  0  0  0  0  0  0  0  0  0  0  0
    1.4595   -0.0024   -1.3610 O   0  0  0  0  0  0  0  0  0  0  0  0
    0.8860   -0.4252   -0.1547 C   0  0  0  0  0  0  0  0  0  0  0  0
   -0.4472   -0.0635    0.0504 C   0  0  0  0  0  0  0  0  0  0  0  0
   -6.4412    0.8099    0.6650 C   0  0  0  0  0  0  0  0  0  0  0  0
   -8.9609    2.4860   -1.9719 H   0  0  0  0  0  0  0  0  0  0  0  0
   -9.6266    3.4848   -0.6763 H   0  0  0  0  0  0  0  0  0  0  0  0
   -8.0258    3.8865   -1.3140 H   0  0  0  0  0  0  0  0  0  0  0  0
   -6.6837    2.2120   -2.4329 H   0  0  0  0  0  0  0  0  0  0  0  0
   -4.6088    0.9516   -2.7396 H   0  0  0  0  0  0  0  0  0  0  0  0
   -3.6718   -0.4037   -0.9184 H   0  0  0  0  0  0  0  0  0  0  0  0
   -3.0764   -1.5634    2.6542 H   0  0  0  0  0  0  0  0  0  0  0  0
   -3.1735   -1.9718    0.9152 H   0  0  0  0  0  0  0  0  0  0  0  0
   -0.8668   -1.4995    3.0978 H   0  0  0  0  0  0  0  0  0  0  0  0
    1.4512   -2.1198    2.7213 H   0  0  0  0  0  0  0  0  0  0  0  0
    3.8161   -1.7022    2.4685 H   0  0  0  0  0  0  0  0  0  0  0  0
    3.2841   -3.2328    1.7230 H   0  0  0  0  0  0  0  0  0  0  0  0
    4.8028   -2.5050    1.2670 H   0  0  0  0  0  0  0  0  0  0  0  0
    5.4211   -2.2111   -0.6653 H   0  0  0  0  0  0  0  0  0  0  0  0
    5.0363   -1.5513   -2.1982 H   0  0  0  0  0  0  0  0  0  0  0  0
    6.3990   -0.7446    1.1848 H   0  0  0  0  0  0  0  0  0  0  0  0
    7.8719    1.1789    1.6298 H   0  0  0  0  0  0  0  0  0  0  0  0
    8.2548    2.8932   -0.1196 H   0  0  0  0  0  0  0  0  0  0  0  0
    7.1466    2.6774   -2.3309 H   0  0  0  0  0  0  0  0  0  0  0  0
    5.6632    0.7665   -2.7964 H   0  0  0  0  0  0  0  0  0  0  0  0
   -0.9707    0.5334   -0.6896 H   0  0  0  0  0  0  0  0  0  0  0  0
   -6.9654    0.7751    1.6185 H   0  0  0  0  0  0  0  0  0  0  0  0
  1  2  1  0
  2  3  1  0
  3  4  2  0
  4  5  1  0
  5  6  2  0
  6  7  1  0
  7  8  1  0
  8  9  2  0
  8 10  1  0
 10 11  1  0
 11 12  1  0
 12 13  2  0
 13 14  1  0
 14 15  2  0
 15 16  1  0
 16 17  1  0
 16 18  2  0
 18 19  1  0
 19 20  1  0
 20 21  2  0
 21 22  1  0
 22 23  2  0
 23 24  1  0
 24 25  2  0
 18 26  1  0
 26 27  2  0
 26 28  1  0
 28 29  1  0
 29 30  2  0
  7 31  2  0
 31  3  1  0
 30 12  1  0
 29 15  1  0
 25 20  1  0
  1 32  1  0
  1 33  1  0
  1 34  1  0
  4 35  1  0
  5 36  1  0
  6 37  1  0
 10 38  1  0
 10 39  1  0
 13 40  1  0
 14 41  1  0
 17 42  1  0
 17 43  1  0
 17 44  1  0
 19 45  1  0
 19 46  1  0
 21 47  1  0
 22 48  1  0
 23 49  1  0
 24 50  1  0
 25 51  1  0
 30 52  1  0
 31 53  1  0
M  END
$$$$
