
     RDKit          3D

 48 50  0  0  0  0  0  0  0  0999 V2000
    8.3763    2.6966    0.9758 C   0  0  0  0  0  0  0  0  0  0  0  0
    7.4731    1.6075    0.5260 C   0  0  0  0  0  0  0  0  0  0  0  0
    7.7884    0.5924   -0.3569 C   0  0  0  0  0  0  0  0  0  0  0  0
    6.4337   -0.4330   -0.5718 S   0  0  0  0  0  0  0  0  0  0  0  0
    5.5420    0.5322    0.5081 C   0  0  0  0  0  0  0  0  0  0  0  0
    4.2393    0.2787    0.8506 N   0  0  0  0  0  0  0  0  0  0  0  0
    3.4410   -0.7482    0.3974 C   0  0  0  0  0  0  0  0  0  0  0  0
    3.7402   -1.6167   -0.4143 O   0  0  0  0  0  0  0  0  0  0  0  0
    2.0529   -0.6804    1.0124 C   0  0  0  0  0  0  0  0  0  0  0  0
    1.2010   -1.8997    0.6779 C   0  0  0  0  0  0  0  0  0  0  0  0
    0.8688   -1.9098   -0.7571 N   0  0  0  0  0  0  0  0  0  0  0  0
   -0.4204   -2.8638   -1.2629 S   0  0  0  0  0  6  0  0  0  0  0  0
   -0.1719   -3.1904   -2.6492 O   0  0  0  0  0  0  0  0  0  0  0  0
   -0.6760   -3.8801   -0.2687 O   0  0  0  0  0  0  0  0  0  0  0  0
   -1.7548   -1.6920   -1.2251 C   0  0  0  0  0  0  0  0  0  0  0  0
   -2.0978   -0.9902   -2.3801 C   0  0  0  0  0  0  0  0  0  0  0  0
   -3.1656   -0.0858   -2.3513 C   0  0  0  0  0  0  0  0  0  0  0  0
   -3.9031    0.1255   -1.1738 C   0  0  0  0  0  0  0  0  0  0  0  0
   -3.5444   -0.5930   -0.0330 C   0  0  0  0  0  0  0  0  0  0  0  0
   -2.4824   -1.5098   -0.0508 C   0  0  0  0  0  0  0  0  0  0  0  0
   -4.2886   -0.3765    1.2165 C   0  0  0  0  0  0  0  0  0  0  0  0
   -3.8955   -0.9214    2.2454 O   0  0  0  0  0  0  0  0  0  0  0  0
   -5.3893    0.4617    1.1491 N   0  0  0  0  0  0  0  0  0  0  0  0
   -6.1569    0.6664    2.3639 C   0  0  0  0  0  0  0  0  0  0  0  0
   -5.7333    1.2353    0.0469 C   0  0  0  0  0  0  0  0  0  0  0  0
   -6.6514    2.0571    0.1012 O   0  0  0  0  0  0  0  0  0  0  0  0
   -4.9848    1.0437   -1.1117 N   0  0  0  0  0  0  0  0  0  0  0  0
   -5.3391    1.8203   -2.2937 C   0  0  0  0  0  0  0  0  0  0  0  0
    6.1778    1.5610    1.0183 N   0  0  0  0  0  0  0  0  0  0  0  0
    8.8573    3.1777    0.1184 H   0  0  0  0  0  0  0  0  0  0  0  0
    9.1546    2.2969    1.6332 H   0  0  0  0  0  0  0  0  0  0  0  0
    7.8223    3.4626    1.5275 H   0  0  0  0  0  0  0  0  0  0  0  0
    8.7211    0.4085   -0.8706 H   0  0  0  0  0  0  0  0  0  0  0  0
    3.8735    0.9548    1.5064 H   0  0  0  0  0  0  0  0  0  0  0  0
    1.5641    0.2354    0.6592 H   0  0  0  0  0  0  0  0  0  0  0  0
    2.1642   -0.6151    2.1012 H   0  0  0  0  0  0  0  0  0  0  0  0
    1.7338   -2.8230    0.9303 H   0  0  0  0  0  0  0  0  0  0  0  0
    0.2843   -1.8495    1.2740 H   0  0  0  0  0  0  0  0  0  0  0  0
    1.6779   -2.0242   -1.3805 H   0  0  0  0  0  0  0  0  0  0  0  0
   -1.5438   -1.1399   -3.3055 H   0  0  0  0  0  0  0  0  0  0  0  0
   -3.3985    0.4392   -3.2738 H   0  0  0  0  0  0  0  0  0  0  0  0
   -2.2313   -2.0738    0.8460 H   0  0  0  0  0  0  0  0  0  0  0  0
   -6.0224   -0.1563    3.0717 H   0  0  0  0  0  0  0  0  0  0  0  0
   -5.8219    1.5981    2.8311 H   0  0  0  0  0  0  0  0  0  0  0  0
   -7.2225    0.7547    2.1290 H   0  0  0  0  0  0  0  0  0  0  0  0
   -5.6335    1.1402   -3.0993 H   0  0  0  0  0  0  0  0  0  0  0  0
   -6.1769    2.4985   -2.1096 H   0  0  0  0  0  0  0  0  0  0  0  0
   -4.4813    2.4273   -2.6004 H   0  0  0  0  0  0  0  0  0  0  0  0
  1  2  1  0
  2  3  2  0
  3  4  1  0
  4  5  1  0
  5  6  1  0
  6  7  1  0
  7  8  2  0
  7  9  1  0
  9 10  1  0
 10 11  1  0
 11 12  1  0
 12 13  2  0
 12 14  2  0
 12 15  1  0
 15 16  2  0
 16 17  1  0
 17 18  2  0
 18 19  1  0
 19 20  2  0
 19 21  1  0
 21 22  2  0
 21 23  1  0
 23 24  1  0
 23 25  1  0
 25 26  2  0
 25 27  1  0
 27 28  1  0
  5 29  2  0
 29  2  1  0
 20 15  1  0
 27 18  1  0
  1 30  1  0
  1 31  1  0
  1 32  1  0
  3 33  1  0
  6 34  1  0
  9 35  1  0
  9 36  1  0
 10 37  1  0
 10 38  1  0
 11 39  1  0
 16 40  1  0
 17 41  1  0
 20 42  1  0
 24 43  1  0
 24 44  1  0
 24 45  1  0
 28 46  1  0
 28 47  1  0
 28 48  1  0
M  END
$$$$
