
     RDKit          3D

 58 59  0  0  0  0  0  0  0  0999 V2000
    8.5586    1.9426   -1.2546 C   0  0  0  0  0  0  0  0  0  0  0  0
    9.0407    0.5739   -0.7995 C   0  0  0  0  0  0  0  0  0  0  0  0
    8.0136   -0.5358   -1.0168 C   0  0  0  0  0  0  0  0  0  0  0  0
    6.7508   -0.3770   -0.1728 C   0  0  0  0  0  0  0  0  0  0  0  0
    5.9219   -1.5149   -0.4151 O   0  0  0  0  0  0  0  0  0  0  0  0
    4.7334   -1.5791    0.2566 C   0  0  0  0  0  0  0  0  0  0  0  0
    3.9644   -2.7099   -0.0291 C   0  0  0  0  0  0  0  0  0  0  0  0
    2.7273   -2.9056    0.5895 C   0  0  0  0  0  0  0  0  0  0  0  0
    2.2408   -1.9614    1.4987 C   0  0  0  0  0  0  0  0  0  0  0  0
    0.9193   -2.2097    2.1402 C   0  0  0  0  0  0  0  0  0  0  0  0
    0.4697   -3.3471    2.2157 O   0  0  0  0  0  0  0  0  0  0  0  0
    0.2359   -1.0989    2.5918 N   0  0  0  0  0  0  0  0  0  0  0  0
   -1.1375   -1.2340    3.0599 C   0  0  0  0  0  0  0  0  0  0  0  0
   -2.1900   -1.0966    1.9626 C   0  0  0  0  0  0  0  0  0  0  0  0
   -3.3929   -1.2448    2.1496 O   0  0  0  0  0  0  0  0  0  0  0  0
   -1.6425   -0.7220    0.7699 O   0  0  0  0  0  0  0  0  0  0  0  0
   -2.6052   -0.4703   -0.2590 C   0  0  0  0  0  0  0  0  0  0  0  0
   -3.3632    0.8354   -0.0093 C   0  0  0  0  0  0  0  0  0  0  0  0
   -2.8772    1.7365    0.6855 O   0  0  0  0  0  0  0  0  0  0  0  0
   -4.7331    0.9861   -0.5990 C   0  0  0  0  0  0  0  0  0  0  0  0
   -5.6843    1.6888    0.0557 C   0  0  0  0  0  0  0  0  0  0  0  0
   -5.4348    2.3069    1.2774 N   0  0  0  0  0  0  0  0  0  0  0  0
   -6.9563    1.7925   -0.5027 N   0  0  0  0  0  0  0  0  0  0  0  0
   -8.0020    2.5114    0.2244 C   0  0  0  0  0  0  0  0  0  0  0  0
   -7.3218    1.2053   -1.7116 C   0  0  0  0  0  0  0  0  0  0  0  0
   -8.4400    1.3515   -2.2094 O   0  0  0  0  0  0  0  0  0  0  0  0
   -6.3479    0.4484   -2.3390 N   0  0  0  0  0  0  0  0  0  0  0  0
   -6.6970   -0.1651   -3.6078 C   0  0  0  0  0  0  0  0  0  0  0  0
   -5.0468    0.3695   -1.9038 C   0  0  0  0  0  0  0  0  0  0  0  0
   -4.1477   -0.1592   -2.5559 O   0  0  0  0  0  0  0  0  0  0  0  0
    3.0154   -0.8337    1.7976 C   0  0  0  0  0  0  0  0  0  0  0  0
    4.2558   -0.6427    1.1743 C   0  0  0  0  0  0  0  0  0  0  0  0
    9.3678    2.6745   -1.1652 H   0  0  0  0  0  0  0  0  0  0  0  0
    7.7236    2.2969   -0.6435 H   0  0  0  0  0  0  0  0  0  0  0  0
    8.2377    1.9185   -2.3007 H   0  0  0  0  0  0  0  0  0  0  0  0
    9.3226    0.6199    0.2589 H   0  0  0  0  0  0  0  0  0  0  0  0
    9.9493    0.3210   -1.3589 H   0  0  0  0  0  0  0  0  0  0  0  0
    7.7399   -0.5964   -2.0774 H   0  0  0  0  0  0  0  0  0  0  0  0
    8.4776   -1.5012   -0.7787 H   0  0  0  0  0  0  0  0  0  0  0  0
    7.0254   -0.3308    0.8875 H   0  0  0  0  0  0  0  0  0  0  0  0
    6.2168    0.5338   -0.4647 H   0  0  0  0  0  0  0  0  0  0  0  0
    4.3339   -3.4487   -0.7367 H   0  0  0  0  0  0  0  0  0  0  0  0
    2.1464   -3.7963    0.3586 H   0  0  0  0  0  0  0  0  0  0  0  0
    0.4890   -0.2009    2.2003 H   0  0  0  0  0  0  0  0  0  0  0  0
   -1.2686   -2.2042    3.5482 H   0  0  0  0  0  0  0  0  0  0  0  0
   -1.3010   -0.4287    3.7821 H   0  0  0  0  0  0  0  0  0  0  0  0
   -3.2882   -1.3224   -0.3474 H   0  0  0  0  0  0  0  0  0  0  0  0
   -2.0446   -0.3679   -1.1931 H   0  0  0  0  0  0  0  0  0  0  0  0
   -4.4310    2.3571    1.4950 H   0  0  0  0  0  0  0  0  0  0  0  0
   -5.8360    3.2372    1.3319 H   0  0  0  0  0  0  0  0  0  0  0  0
   -8.9860    2.4005   -0.2391 H   0  0  0  0  0  0  0  0  0  0  0  0
   -8.0743    2.1239    1.2459 H   0  0  0  0  0  0  0  0  0  0  0  0
   -7.7548    3.5778    0.2422 H   0  0  0  0  0  0  0  0  0  0  0  0
   -7.6876   -0.6269   -3.5419 H   0  0  0  0  0  0  0  0  0  0  0  0
   -5.9732   -0.9297   -3.9031 H   0  0  0  0  0  0  0  0  0  0  0  0
   -6.7256    0.6162   -4.3740 H   0  0  0  0  0  0  0  0  0  0  0  0
    2.6854   -0.1059    2.5332 H   0  0  0  0  0  0  0  0  0  0  0  0
    4.8275    0.2417    1.4364 H   0  0  0  0  0  0  0  0  0  0  0  0
  1  2  1  0
  2  3  1  0
  3  4  1  0
  4  5  1  0
  5  6  1  0
  6  7  2  0
  7  8  1  0
  8  9  2  0
  9 10  1  0
 10 11  2  0
 10 12  1  0
 12 13  1  0
 13 14  1  0
 14 15  2  0
 14 16  1  0
 16 17  1  0
 17 18  1  0
 18 19  2  0
 18 20  1  0
 20 21  2  0
 21 22  1  0
 21 23  1  0
 23 24  1  0
 23 25  1  0
 25 26  2  0
 25 27  1  0
 27 28  1  0
 27 29  1  0
 29 30  2  0
  9 31  1  0
 31 32  2  0
 32  6  1  0
 29 20  1  0
  1 33  1  0
  1 34  1  0
  1 35  1  0
  2 36  1  0
  2 37  1  0
  3 38  1  0
  3 39  1  0
  4 40  1  0
  4 41  1  0
  7 42  1  0
  8 43  1  0
 12 44  1  0
 13 45  1  0
 13 46  1  0
 17 47  1  0
 17 48  1  0
 22 49  1  0
 22 50  1  0
 24 51  1  0
 24 52  1  0
 24 53  1  0
 28 54  1  0
 28 55  1  0
 28 56  1  0
 31 57  1  0
 32 58  1  0
M  END
$$$$
