
     RDKit          3D

 45 47  0  0  0  0  0  0  0  0999 V2000
   -7.9844   -0.6826   -1.0477 C   0  0  0  0  0  0  0  0  0  0  0  0
   -6.4781   -0.7239   -1.2331 C   0  0  0  0  0  0  0  0  0  0  0  0
   -5.8754   -0.6599    0.0561 O   0  0  0  0  0  0  0  0  0  0  0  0
   -4.5044   -0.6581    0.1245 C   0  0  0  0  0  0  0  0  0  0  0  0
   -3.6572   -0.7563   -0.9834 C   0  0  0  0  0  0  0  0  0  0  0  0
   -2.2699   -0.7468   -0.8157 C   0  0  0  0  0  0  0  0  0  0  0  0
   -1.7136   -0.6315    0.4600 C   0  0  0  0  0  0  0  0  0  0  0  0
   -0.2601   -0.6351    0.6572 C   0  0  0  0  0  0  0  0  0  0  0  0
    0.5954    0.3034    0.2295 C   0  0  0  0  0  0  0  0  0  0  0  0
    0.2389    1.7537   -0.6355 S   0  0  0  0  0  0  0  0  0  0  0  0
    1.9289    2.2485   -0.7101 C   0  0  0  0  0  0  0  0  0  0  0  0
    2.4395    3.6750   -1.4079 S   0  0  0  0  0  0  0  0  0  0  0  0
    2.6921    1.2917   -0.0738 N   0  0  0  0  0  0  0  0  0  0  0  0
    4.0988    1.3505   -0.0317 N   0  0  0  0  0  0  0  0  0  0  0  0
    4.7624    0.6965   -1.0573 C   0  0  0  0  0  0  0  0  0  0  0  0
    4.2011    0.2513   -2.0533 O   0  0  0  0  0  0  0  0  0  0  0  0
    6.2253    0.5140   -0.8761 C   0  0  0  0  0  0  0  0  0  0  0  0
    6.9907    1.3971   -0.1132 C   0  0  0  0  0  0  0  0  0  0  0  0
    8.3475    1.1473   -0.0076 C   0  0  0  0  0  0  0  0  0  0  0  0
    8.9656    0.1031   -0.5982 N   0  0  0  0  0  0  0  0  0  0  0  0
    8.2031   -0.7238   -1.3453 C   0  0  0  0  0  0  0  0  0  0  0  0
    6.8419   -0.5606   -1.5172 C   0  0  0  0  0  0  0  0  0  0  0  0
    2.0561    0.2040    0.4973 C   0  0  0  0  0  0  0  0  0  0  0  0
    2.5874   -0.6802    1.1565 O   0  0  0  0  0  0  0  0  0  0  0  0
   -2.5575   -0.5451    1.5742 C   0  0  0  0  0  0  0  0  0  0  0  0
   -3.9494   -0.5542    1.4163 C   0  0  0  0  0  0  0  0  0  0  0  0
   -4.8481   -0.4683    2.4516 O   0  0  0  0  0  0  0  0  0  0  0  0
   -4.3316   -0.3540    3.7693 C   0  0  0  0  0  0  0  0  0  0  0  0
   -8.2843    0.2358   -0.5321 H   0  0  0  0  0  0  0  0  0  0  0  0
   -8.3197   -1.5204   -0.4273 H   0  0  0  0  0  0  0  0  0  0  0  0
   -8.4974   -0.7298   -2.0124 H   0  0  0  0  0  0  0  0  0  0  0  0
   -6.1698    0.1340   -1.8417 H   0  0  0  0  0  0  0  0  0  0  0  0
   -6.2059   -1.6599   -1.7340 H   0  0  0  0  0  0  0  0  0  0  0  0
   -4.0432   -0.8444   -1.9932 H   0  0  0  0  0  0  0  0  0  0  0  0
   -1.6325   -0.8326   -1.6933 H   0  0  0  0  0  0  0  0  0  0  0  0
    0.1152   -1.4893    1.2199 H   0  0  0  0  0  0  0  0  0  0  0  0
    4.4938    1.3103    0.9027 H   0  0  0  0  0  0  0  0  0  0  0  0
    6.5689    2.2730    0.3648 H   0  0  0  0  0  0  0  0  0  0  0  0
    8.9973    1.8025    0.5665 H   0  0  0  0  0  0  0  0  0  0  0  0
    8.7340   -1.5460   -1.8174 H   0  0  0  0  0  0  0  0  0  0  0  0
    6.2770   -1.2537   -2.1324 H   0  0  0  0  0  0  0  0  0  0  0  0
   -2.1078   -0.4667    2.5585 H   0  0  0  0  0  0  0  0  0  0  0  0
   -5.1805   -0.2931    4.4572 H   0  0  0  0  0  0  0  0  0  0  0  0
   -3.7461   -1.2380    4.0421 H   0  0  0  0  0  0  0  0  0  0  0  0
   -3.7440    0.5626    3.8855 H   0  0  0  0  0  0  0  0  0  0  0  0
  1  2  1  0
  2  3  1  0
  3  4  1  0
  4  5  2  0
  5  6  1  0
  6  7  2  0
  7  8  1  0
  8  9  2  3
  9 10  1  0
 10 11  1  0
 11 12  2  0
 11 13  1  0
 13 14  1  0
 14 15  1  0
 15 16  2  0
 15 17  1  0
 17 18  2  0
 18 19  1  0
 19 20  2  0
 20 21  1  0
 21 22  2  0
 13 23  1  0
 23 24  2  0
  7 25  1  0
 25 26  2  0
 26 27  1  0
 27 28  1  0
 26  4  1  0
 23  9  1  0
 22 17  1  0
  1 29  1  0
  1 30  1  0
  1 31  1  0
  2 32  1  0
  2 33  1  0
  5 34  1  0
  6 35  1  0
  8 36  1  0
 14 37  1  0
 18 38  1  0
 19 39  1  0
 21 40  1  0
 22 41  1  0
 25 42  1  0
 28 43  1  0
 28 44  1  0
 28 45  1  0
M  END
$$$$
