
     RDKit          3D

 68 74  0  0  0  0  0  0  0  0999 V2000
   -5.0176   -3.5551   -3.3663 C   0  0  0  0  0  0  0  0  0  0  0  0
   -4.0360   -3.1804   -2.2968 C   0  0  0  0  0  0  0  0  0  0  0  0
   -3.9149   -3.9307   -1.1121 C   0  0  0  0  0  0  0  0  0  0  0  0
   -4.8899   -5.3334   -0.8340 Cl  0  0  0  0  0  0  0  0  0  0  0  0
   -3.0031   -3.5719   -0.1002 C   0  0  0  0  0  0  0  0  0  0  0  0
   -2.1847   -2.4509   -0.2400 C   0  0  0  0  0  0  0  0  0  0  0  0
   -2.2928   -1.7012   -1.4022 C   0  0  0  0  0  0  0  0  0  0  0  0
   -3.2121   -2.0650   -2.3995 C   0  0  0  0  0  0  0  0  0  0  0  0
   -3.1599   -1.1444   -3.4438 N   0  0  0  0  0  0  0  0  0  0  0  0
   -2.2391   -0.1236   -3.1967 C   0  0  0  0  0  0  0  0  0  0  0  0
   -2.0292    0.8118   -3.9553 O   0  0  0  0  0  0  0  0  0  0  0  0
   -1.5681   -0.4494   -1.8374 C   0  0  1  0  0  0  0  0  0  0  0  0
   -1.7797    0.5735   -0.7919 C   0  0  0  0  0  0  0  0  0  0  0  0
   -0.5684    0.9951   -0.2411 C   0  0  0  0  0  0  0  0  0  0  0  0
   -0.8251    1.9227    0.7345 C   0  0  0  0  0  0  0  0  0  0  0  0
    0.0152    2.6248    1.4902 O   0  0  0  0  0  0  0  0  0  0  0  0
   -2.2215    2.1146    0.7675 N   0  0  0  0  0  0  0  0  0  0  0  0
   -2.9250    3.0821    1.5529 C   0  0  0  0  0  0  0  0  0  0  0  0
   -2.4523    3.4581    2.8163 C   0  0  0  0  0  0  0  0  0  0  0  0
   -3.1522    4.3978    3.5782 C   0  0  0  0  0  0  0  0  0  0  0  0
   -4.3181    4.9764    3.0808 C   0  0  0  0  0  0  0  0  0  0  0  0
   -4.7848    4.6226    1.8168 C   0  0  0  0  0  0  0  0  0  0  0  0
   -4.0916    3.6810    1.0522 C   0  0  0  0  0  0  0  0  0  0  0  0
   -2.8040    1.2051   -0.1388 C   0  0  0  0  0  0  0  0  0  0  0  0
   -4.1118    0.9826   -0.2624 O   0  0  0  0  0  0  0  0  0  0  0  0
    0.5803    0.3309   -0.8939 C   0  0  1  0  0  0  0  0  0  0  0  0
    1.4592   -0.5030    0.0557 C   0  0  0  0  0  0  0  0  0  0  0  0
    2.4244   -1.3366   -0.6704 N   0  0  0  0  0  0  0  0  0  0  0  0
    3.6267   -1.7427   -0.1314 C   0  0  0  0  0  0  0  0  0  0  0  0
    4.4694   -2.3769   -0.7542 O   0  0  0  0  0  0  0  0  0  0  0  0
    3.7574   -1.3625    1.1653 O   0  0  0  0  0  0  0  0  0  0  0  0
    5.0075   -1.6749    1.7891 C   0  0  0  0  0  0  0  0  0  0  0  0
    5.8742   -0.4429    1.7911 C   0  0  0  0  0  0  0  0  0  0  0  0
    6.8009   -0.2284    0.7610 C   0  0  0  0  0  0  0  0  0  0  0  0
    7.5868    0.9246    0.7451 C   0  0  0  0  0  0  0  0  0  0  0  0
    7.4485    1.8773    1.7534 C   0  0  0  0  0  0  0  0  0  0  0  0
    6.5218    1.6802    2.7760 C   0  0  0  0  0  0  0  0  0  0  0  0
    5.7346    0.5275    2.7935 C   0  0  0  0  0  0  0  0  0  0  0  0
    2.0861   -1.7051   -2.0466 C   0  0  0  0  0  0  0  0  0  0  0  0
    0.5620   -1.7577   -2.2663 C   0  0  0  0  0  0  0  0  0  0  0  0
   -0.0793   -0.4818   -1.9647 N   0  0  0  0  0  0  0  0  0  0  0  0
   -6.0416   -3.4384   -2.9967 H   0  0  0  0  0  0  0  0  0  0  0  0
   -4.9177   -2.9359   -4.2618 H   0  0  0  0  0  0  0  0  0  0  0  0
   -4.8618   -4.5914   -3.6839 H   0  0  0  0  0  0  0  0  0  0  0  0
   -2.9362   -4.1685    0.8073 H   0  0  0  0  0  0  0  0  0  0  0  0
   -1.4924   -2.1723    0.5478 H   0  0  0  0  0  0  0  0  0  0  0  0
   -3.7368   -1.1427   -4.2705 H   0  0  0  0  0  0  0  0  0  0  0  0
    0.9201    2.4747    1.1640 H   0  0  0  0  0  0  0  0  0  0  0  0
   -1.5583    3.0129    3.2444 H   0  0  0  0  0  0  0  0  0  0  0  0
   -2.7835    4.6779    4.5621 H   0  0  0  0  0  0  0  0  0  0  0  0
   -4.8557    5.7120    3.6738 H   0  0  0  0  0  0  0  0  0  0  0  0
   -5.6795    5.0941    1.4174 H   0  0  0  0  0  0  0  0  0  0  0  0
   -4.4493    3.4742    0.0451 H   0  0  0  0  0  0  0  0  0  0  0  0
   -4.5616    1.2964    0.5430 H   0  0  0  0  0  0  0  0  0  0  0  0
    1.2053    1.0830   -1.3920 H   0  0  0  0  0  0  0  0  0  0  0  0
    0.8490   -1.1844    0.6617 H   0  0  0  0  0  0  0  0  0  0  0  0
    1.9851    0.1595    0.7524 H   0  0  0  0  0  0  0  0  0  0  0  0
    5.5209   -2.5261    1.3263 H   0  0  0  0  0  0  0  0  0  0  0  0
    4.7930   -1.9790    2.8201 H   0  0  0  0  0  0  0  0  0  0  0  0
    6.9096   -0.9595   -0.0391 H   0  0  0  0  0  0  0  0  0  0  0  0
    8.3037    1.0806   -0.0570 H   0  0  0  0  0  0  0  0  0  0  0  0
    8.0609    2.7753    1.7394 H   0  0  0  0  0  0  0  0  0  0  0  0
    6.4105    2.4272    3.5582 H   0  0  0  0  0  0  0  0  0  0  0  0
    5.0099    0.3897    3.5925 H   0  0  0  0  0  0  0  0  0  0  0  0
    2.5442   -0.9577   -2.7060 H   0  0  0  0  0  0  0  0  0  0  0  0
    2.5325   -2.6759   -2.2887 H   0  0  0  0  0  0  0  0  0  0  0  0
    0.3549   -2.0351   -3.3056 H   0  0  0  0  0  0  0  0  0  0  0  0
    0.1811   -2.5607   -1.6274 H   0  0  0  0  0  0  0  0  0  0  0  0
  1  2  1  0
  2  3  2  0
  3  4  1  0
  3  5  1  0
  5  6  2  0
  6  7  1  0
  7  8  2  0
  8  9  1  0
  9 10  1  0
 10 11  2  0
 10 12  1  0
 12 13  1  0
 13 14  1  0
 14 15  2  0
 15 16  1  0
 15 17  1  0
 17 18  1  0
 18 19  2  0
 19 20  1  0
 20 21  2  0
 21 22  1  0
 22 23  2  0
 17 24  1  0
 24 25  1  0
 14 26  1  0
 26 27  1  0
 27 28  1  0
 28 29  1  0
 29 30  2  0
 29 31  1  0
 31 32  1  0
 32 33  1  0
 33 34  2  0
 34 35  1  0
 35 36  2  0
 36 37  1  0
 37 38  2  0
 28 39  1  0
 39 40  1  0
 40 41  1  0
  8  2  1  0
 12 41  1  6
 12  7  1  0
 24 13  2  0
 41 26  1  0
 23 18  1  0
 38 33  1  0
  1 42  1  0
  1 43  1  0
  1 44  1  0
  5 45  1  0
  6 46  1  0
  9 47  1  0
 16 48  1  0
 19 49  1  0
 20 50  1  0
 21 51  1  0
 22 52  1  0
 23 53  1  0
 25 54  1  0
 26 55  1  6
 27 56  1  0
 27 57  1  0
 32 58  1  0
 32 59  1  0
 34 60  1  0
 35 61  1  0
 36 62  1  0
 37 63  1  0
 38 64  1  0
 39 65  1  0
 39 66  1  0
 40 67  1  0
 40 68  1  0
M  END
$$$$
