
     RDKit          3D

 36 37  0  0  0  0  0  0  0  0999 V2000
    0.2972    0.8763   -1.4871 O   0  0  0  0  0  0  0  0  0  0  0  0
   -0.1996    0.7670   -0.3689 C   0  0  0  0  0  0  0  0  0  0  0  0
    0.5536    0.2480    0.8545 C   0  0  0  0  0  0  0  0  0  0  0  0
    1.8933   -0.0931    0.5027 O   0  0  0  0  0  0  0  0  0  0  0  0
    2.6378   -0.5464    1.5355 C   0  0  0  0  0  0  0  0  0  0  0  0
    2.2549   -0.6759    2.6869 O   0  0  0  0  0  0  0  0  0  0  0  0
    4.0154   -0.8758    1.0811 C   0  0  0  0  0  0  0  0  0  0  0  0
    4.4268   -0.7088   -0.2501 C   0  0  0  0  0  0  0  0  0  0  0  0
    5.7320   -1.0323   -0.6282 C   0  0  0  0  0  0  0  0  0  0  0  0
    6.6305   -1.5230    0.3191 C   0  0  0  0  0  0  0  0  0  0  0  0
    6.2218   -1.6889    1.6419 C   0  0  0  0  0  0  0  0  0  0  0  0
    7.3346   -2.2946    2.8064 Cl  0  0  0  0  0  0  0  0  0  0  0  0
    4.9219   -1.3689    2.0287 C   0  0  0  0  0  0  0  0  0  0  0  0
   -1.5097    1.1126   -0.1069 N   0  0  0  0  0  0  0  0  0  0  0  0
   -2.3876    1.5754   -1.1646 C   0  0  0  0  0  0  0  0  0  0  0  0
   -3.8037    1.9051   -0.6794 C   0  0  0  0  0  0  0  0  0  0  0  0
   -4.5506    0.7248   -0.2727 N   0  0  0  0  0  0  0  0  0  0  0  0
   -5.5340    0.1025   -1.0051 C   0  0  0  0  0  0  0  0  0  0  0  0
   -5.8517    0.5032   -2.2672 O   0  0  0  0  0  0  0  0  0  0  0  0
   -6.1305   -0.9192   -0.3841 C   0  0  0  0  0  0  0  0  0  0  0  0
   -5.4593   -1.1857    1.1934 S   0  0  0  0  0  0  0  0  0  0  0  0
   -4.3255    0.1528    0.9756 C   0  0  0  0  0  0  0  0  0  0  0  0
   -3.4778    0.4780    1.7943 O   0  0  0  0  0  0  0  0  0  0  0  0
    0.0305   -0.6405    1.2266 H   0  0  0  0  0  0  0  0  0  0  0  0
    0.5573    1.0389    1.6133 H   0  0  0  0  0  0  0  0  0  0  0  0
    3.7408   -0.3268   -1.0044 H   0  0  0  0  0  0  0  0  0  0  0  0
    6.0467   -0.9012   -1.6611 H   0  0  0  0  0  0  0  0  0  0  0  0
    7.6455   -1.7737    0.0210 H   0  0  0  0  0  0  0  0  0  0  0  0
    4.6136   -1.5022    3.0636 H   0  0  0  0  0  0  0  0  0  0  0  0
   -1.9013    0.9174    0.8166 H   0  0  0  0  0  0  0  0  0  0  0  0
   -1.9295    2.4714   -1.5987 H   0  0  0  0  0  0  0  0  0  0  0  0
   -2.4148    0.8048   -1.9438 H   0  0  0  0  0  0  0  0  0  0  0  0
   -3.7430    2.5792    0.1845 H   0  0  0  0  0  0  0  0  0  0  0  0
   -4.3546    2.4396   -1.4603 H   0  0  0  0  0  0  0  0  0  0  0  0
   -5.0581    0.8853   -2.6715 H   0  0  0  0  0  0  0  0  0  0  0  0
   -6.9226   -1.5253   -0.8009 H   0  0  0  0  0  0  0  0  0  0  0  0
  1  2  2  0
  2  3  1  0
  3  4  1  0
  4  5  1  0
  5  6  2  0
  5  7  1  0
  7  8  2  0
  8  9  1  0
  9 10  2  0
 10 11  1  0
 11 12  1  0
 11 13  2  0
  2 14  1  0
 14 15  1  0
 15 16  1  0
 16 17  1  0
 17 18  1  0
 18 19  1  0
 18 20  2  0
 20 21  1  0
 21 22  1  0
 22 23  2  0
 13  7  1  0
 22 17  1  0
  3 24  1  0
  3 25  1  0
  8 26  1  0
  9 27  1  0
 10 28  1  0
 13 29  1  0
 14 30  1  0
 15 31  1  0
 15 32  1  0
 16 33  1  0
 16 34  1  0
 19 35  1  0
 20 36  1  0
M  END
$$$$
