
     RDKit          3D

 35 35  0  0  0  0  0  0  0  0999 V2000
   -3.0225   -1.0858   -1.3690 C   0  0  0  0  0  0  0  0  0  0  0  0
   -3.3187   -0.0893   -0.2410 C   0  0  0  0  0  0  0  0  0  0  0  0
   -4.3000    0.9845   -0.7308 C   0  0  0  0  0  0  0  0  0  0  0  0
   -2.1301    0.5403    0.3800 N   0  0  0  0  0  0  0  0  0  0  0  0
   -1.2109    1.1405   -0.5887 C   0  0  0  0  0  0  0  0  0  0  0  0
   -1.4356   -0.4078    1.2845 C   0  0  0  0  0  0  0  0  0  0  0  0
   -0.3394    0.2254    2.1653 C   0  0  0  0  0  0  0  0  0  0  0  0
    0.9027    0.3876    1.4584 O   0  0  0  0  0  0  0  0  0  0  0  0
    1.6315   -0.7444    1.3085 C   0  0  0  0  0  0  0  0  0  0  0  0
    1.3697   -1.8534    1.7374 O   0  0  0  0  0  0  0  0  0  0  0  0
    2.8172   -0.4159    0.5014 C   0  0  0  0  0  0  0  0  0  0  0  0
    3.7438    0.4982    1.0247 C   0  0  0  0  0  0  0  0  0  0  0  0
    4.8918    0.8187    0.3001 C   0  0  0  0  0  0  0  0  0  0  0  0
    5.1163    0.2291   -0.9434 C   0  0  0  0  0  0  0  0  0  0  0  0
    4.1925   -0.6787   -1.4674 C   0  0  0  0  0  0  0  0  0  0  0  0
    3.0387   -1.0049   -0.7469 C   0  0  0  0  0  0  0  0  0  0  0  0
    1.8082   -2.2052   -1.5514 Br  0  0  0  0  0  0  0  0  0  0  0  0
   -2.5689   -0.5985   -2.2383 H   0  0  0  0  0  0  0  0  0  0  0  0
   -3.9506   -1.5595   -1.7084 H   0  0  0  0  0  0  0  0  0  0  0  0
   -2.3545   -1.8858   -1.0360 H   0  0  0  0  0  0  0  0  0  0  0  0
   -3.8598   -0.6355    0.5435 H   0  0  0  0  0  0  0  0  0  0  0  0
   -5.2495    0.5244   -1.0271 H   0  0  0  0  0  0  0  0  0  0  0  0
   -4.5205    1.7058    0.0639 H   0  0  0  0  0  0  0  0  0  0  0  0
   -3.9189    1.5342   -1.5970 H   0  0  0  0  0  0  0  0  0  0  0  0
   -1.7358    1.7802   -1.3047 H   0  0  0  0  0  0  0  0  0  0  0  0
   -0.6474    0.3889   -1.1520 H   0  0  0  0  0  0  0  0  0  0  0  0
   -0.4978    1.8017   -0.0866 H   0  0  0  0  0  0  0  0  0  0  0  0
   -1.0242   -1.2457    0.7115 H   0  0  0  0  0  0  0  0  0  0  0  0
   -2.1816   -0.8166    1.9775 H   0  0  0  0  0  0  0  0  0  0  0  0
   -0.1728   -0.3842    3.0624 H   0  0  0  0  0  0  0  0  0  0  0  0
   -0.6517    1.2147    2.5184 H   0  0  0  0  0  0  0  0  0  0  0  0
    3.5742    0.9564    1.9966 H   0  0  0  0  0  0  0  0  0  0  0  0
    5.6121    1.5259    0.7053 H   0  0  0  0  0  0  0  0  0  0  0  0
    6.0117    0.4782   -1.5087 H   0  0  0  0  0  0  0  0  0  0  0  0
    4.3809   -1.1236   -2.4420 H   0  0  0  0  0  0  0  0  0  0  0  0
  1  2  1  0
  2  3  1  0
  2  4  1  0
  4  5  1  0
  4  6  1  0
  6  7  1  0
  7  8  1  0
  8  9  1  0
  9 10  2  0
  9 11  1  0
 11 12  2  0
 12 13  1  0
 13 14  2  0
 14 15  1  0
 15 16  2  0
 16 17  1  0
 16 11  1  0
  1 18  1  0
  1 19  1  0
  1 20  1  0
  2 21  1  0
  3 22  1  0
  3 23  1  0
  3 24  1  0
  5 25  1  0
  5 26  1  0
  5 27  1  0
  6 28  1  0
  6 29  1  0
  7 30  1  0
  7 31  1  0
 12 32  1  0
 13 33  1  0
 14 34  1  0
 15 35  1  0
M  END
$$$$
