
     RDKit          3D

 40 44  0  0  0  0  0  0  0  0999 V2000
   -8.4395   -0.1378    2.4600 O   0  0  0  0  0  0  0  0  0  0  0  0
   -8.0147   -0.1762    1.3231 C   0  0  0  0  0  0  0  0  0  0  0  0
   -8.8457   -0.0577    0.2692 O   0  0  0  0  0  0  0  0  0  0  0  0
   -6.6105   -0.3487    0.8844 C   0  0  0  0  0  0  0  0  0  0  0  0
   -6.3509   -1.0673   -0.2928 C   0  0  0  0  0  0  0  0  0  0  0  0
   -5.0364   -1.2762   -0.7248 C   0  0  0  0  0  0  0  0  0  0  0  0
   -3.9520   -0.7749    0.0067 C   0  0  0  0  0  0  0  0  0  0  0  0
   -2.5815   -0.9962   -0.4490 C   0  0  0  0  0  0  0  0  0  0  0  0
   -2.0107   -1.6440   -1.5204 C   0  0  0  0  0  0  0  0  0  0  0  0
   -0.6085   -1.4949   -1.3791 C   0  0  0  0  0  0  0  0  0  0  0  0
   -0.3654   -0.7452   -0.2347 C   0  0  0  0  0  0  0  0  0  0  0  0
    0.8315   -0.3070    0.3973 C   0  0  0  0  0  0  0  0  0  0  0  0
    2.0054   -0.0463   -0.1931 C   0  0  0  0  0  0  0  0  0  0  0  0
    2.4389   -0.1262   -1.8818 S   0  0  0  0  0  0  0  0  0  0  0  0
    4.0270    0.4157   -1.5056 C   0  0  0  0  0  0  0  0  0  0  0  0
    5.0826    0.6450   -2.2348 N   0  0  0  0  0  0  0  0  0  0  0  0
    6.0232    1.0596   -1.3112 C   0  0  0  0  0  0  0  0  0  0  0  0
    7.3563    1.4463   -1.5135 C   0  0  0  0  0  0  0  0  0  0  0  0
    8.1229    1.8310   -0.4058 C   0  0  0  0  0  0  0  0  0  0  0  0
    7.5767    1.8319    0.8802 C   0  0  0  0  0  0  0  0  0  0  0  0
    6.2501    1.4505    1.1086 C   0  0  0  0  0  0  0  0  0  0  0  0
    5.5027    1.0705   -0.0106 C   0  0  0  0  0  0  0  0  0  0  0  0
    4.2108    0.6464   -0.1837 N   0  0  0  0  0  0  0  0  0  0  0  0
    3.1427    0.4231    0.6554 C   0  0  0  0  0  0  0  0  0  0  0  0
    3.1993    0.5971    1.8585 O   0  0  0  0  0  0  0  0  0  0  0  0
   -1.5938   -0.4684    0.3273 O   0  0  0  0  0  0  0  0  0  0  0  0
   -4.2221   -0.0551    1.1814 C   0  0  0  0  0  0  0  0  0  0  0  0
   -5.5370    0.1594    1.6217 C   0  0  0  0  0  0  0  0  0  0  0  0
   -5.7342    1.1027    3.0562 Cl  0  0  0  0  0  0  0  0  0  0  0  0
   -9.7259    0.0721    0.6826 H   0  0  0  0  0  0  0  0  0  0  0  0
   -7.1709   -1.4763   -0.8805 H   0  0  0  0  0  0  0  0  0  0  0  0
   -4.8770   -1.8388   -1.6422 H   0  0  0  0  0  0  0  0  0  0  0  0
   -2.5295   -2.1711   -2.3082 H   0  0  0  0  0  0  0  0  0  0  0  0
    0.1362   -1.9092   -2.0440 H   0  0  0  0  0  0  0  0  0  0  0  0
    0.7404   -0.1397    1.4703 H   0  0  0  0  0  0  0  0  0  0  0  0
    7.7786    1.4452   -2.5127 H   0  0  0  0  0  0  0  0  0  0  0  0
    9.1578    2.1331   -0.5516 H   0  0  0  0  0  0  0  0  0  0  0  0
    8.1953    2.1358    1.7230 H   0  0  0  0  0  0  0  0  0  0  0  0
    5.8262    1.4518    2.1088 H   0  0  0  0  0  0  0  0  0  0  0  0
   -3.3982    0.3525    1.7656 H   0  0  0  0  0  0  0  0  0  0  0  0
  1  2  2  0
  2  3  1  0
  2  4  1  0
  4  5  2  0
  5  6  1  0
  6  7  2  0
  7  8  1  0
  8  9  2  0
  9 10  1  0
 10 11  2  0
 11 12  1  0
 12 13  2  3
 13 14  1  0
 14 15  1  0
 15 16  2  0
 16 17  1  0
 17 18  2  0
 18 19  1  0
 19 20  2  0
 20 21  1  0
 21 22  2  0
 22 23  1  0
 23 24  1  0
 24 25  2  0
 11 26  1  0
  7 27  1  0
 27 28  2  0
 28 29  1  0
 28  4  1  0
 26  8  1  0
 24 13  1  0
 23 15  1  0
 22 17  1  0
  3 30  1  0
  5 31  1  0
  6 32  1  0
  9 33  1  0
 10 34  1  0
 12 35  1  0
 18 36  1  0
 19 37  1  0
 20 38  1  0
 21 39  1  0
 27 40  1  0
M  END
$$$$
