
     RDKit          3D

 32 33  0  0  0  0  0  0  0  0999 V2000
   -5.2734   -0.4231    0.1295 C   0  0  0  0  0  0  0  0  0  0  0  0
   -4.3660    0.1427   -0.9519 C   0  0  0  0  0  0  0  0  0  0  0  0
   -2.9555    0.4660   -0.4564 C   0  0  0  0  0  0  0  0  0  0  0  0
   -2.1700   -0.7738   -0.0185 C   0  0  0  0  0  0  0  0  0  0  0  0
   -0.7898   -0.4410    0.3348 N   0  0  0  0  0  0  0  0  0  0  0  0
   -0.4807    0.0294    1.5722 C   0  0  0  0  0  0  0  0  0  0  0  0
   -1.2065    0.2151    2.5273 O   0  0  0  0  0  0  0  0  0  0  0  0
    1.0146    0.3249    1.5461 C   0  0  0  0  0  0  0  0  0  0  0  0
    1.6149    0.7272    2.5240 O   0  0  0  0  0  0  0  0  0  0  0  0
    1.4346    0.0065    0.2778 N   0  0  0  0  0  0  0  0  0  0  0  0
    2.8039    0.1147   -0.1156 C   0  0  0  0  0  0  0  0  0  0  0  0
    3.3915   -0.7694   -1.0319 C   0  0  0  0  0  0  0  0  0  0  0  0
    4.7382   -0.6512   -1.3968 C   0  0  0  0  0  0  0  0  0  0  0  0
    5.5288    0.3488   -0.8427 C   0  0  0  0  0  0  0  0  0  0  0  0
    4.9754    1.2244    0.0836 C   0  0  0  0  0  0  0  0  0  0  0  0
    3.6295    1.1037    0.4469 C   0  0  0  0  0  0  0  0  0  0  0  0
    0.3333   -0.4127   -0.4812 C   0  0  0  0  0  0  0  0  0  0  0  0
    0.2745   -0.7519   -2.1250 S   0  0  0  0  0  0  0  0  0  0  0  0
   -5.3179    0.2457    0.9948 H   0  0  0  0  0  0  0  0  0  0  0  0
   -4.9304   -1.4052    0.4676 H   0  0  0  0  0  0  0  0  0  0  0  0
   -6.2900   -0.5432   -0.2585 H   0  0  0  0  0  0  0  0  0  0  0  0
   -4.3145   -0.5615   -1.7904 H   0  0  0  0  0  0  0  0  0  0  0  0
   -4.8178    1.0637   -1.3391 H   0  0  0  0  0  0  0  0  0  0  0  0
   -2.4161    0.9759   -1.2637 H   0  0  0  0  0  0  0  0  0  0  0  0
   -3.0109    1.1828    0.3722 H   0  0  0  0  0  0  0  0  0  0  0  0
   -2.6406   -1.2192    0.8652 H   0  0  0  0  0  0  0  0  0  0  0  0
   -2.1742   -1.5301   -0.8094 H   0  0  0  0  0  0  0  0  0  0  0  0
    2.8420   -1.6060   -1.4520 H   0  0  0  0  0  0  0  0  0  0  0  0
    5.1694   -1.3526   -2.1074 H   0  0  0  0  0  0  0  0  0  0  0  0
    6.5746    0.4394   -1.1244 H   0  0  0  0  0  0  0  0  0  0  0  0
    5.5874    2.0054    0.5284 H   0  0  0  0  0  0  0  0  0  0  0  0
    3.2416    1.8244    1.1639 H   0  0  0  0  0  0  0  0  0  0  0  0
  1  2  1  0
  2  3  1  0
  3  4  1  0
  4  5  1  0
  5  6  1  0
  6  7  2  0
  6  8  1  0
  8  9  2  0
  8 10  1  0
 10 11  1  0
 11 12  2  0
 12 13  1  0
 13 14  2  0
 14 15  1  0
 15 16  2  0
 10 17  1  0
 17 18  2  0
 17  5  1  0
 16 11  1  0
  1 19  1  0
  1 20  1  0
  1 21  1  0
  2 22  1  0
  2 23  1  0
  3 24  1  0
  3 25  1  0
  4 26  1  0
  4 27  1  0
 12 28  1  0
 13 29  1  0
 14 30  1  0
 15 31  1  0
 16 32  1  0
M  END
$$$$
