
     RDKit          3D

 35 37  0  0  0  0  0  0  0  0999 V2000
    6.5991   -1.8998   -0.1687 C   0  0  0  0  0  0  0  0  0  0  0  0
    6.3771   -0.5496    0.2187 O   0  0  0  0  0  0  0  0  0  0  0  0
    5.0777   -0.1291    0.2774 C   0  0  0  0  0  0  0  0  0  0  0  0
    3.9511   -0.8996   -0.0058 C   0  0  0  0  0  0  0  0  0  0  0  0
    2.6702   -0.3394    0.0950 C   0  0  0  0  0  0  0  0  0  0  0  0
    2.4947    0.9982    0.4801 C   0  0  0  0  0  0  0  0  0  0  0  0
    1.1720    1.5984    0.5907 C   0  0  0  0  0  0  0  0  0  0  0  0
    0.8154    2.8239    0.9246 N   0  0  0  0  0  0  0  0  0  0  0  0
   -0.5645    2.8564    0.8699 N   0  0  0  0  0  0  0  0  0  0  0  0
   -0.9476    1.6524    0.5060 C   0  0  0  0  0  0  0  0  0  0  0  0
   -2.2362    1.2369    0.3340 N   0  0  0  0  0  0  0  0  0  0  0  0
   -2.5628   -0.0244   -0.1007 C   0  0  0  0  0  0  0  0  0  0  0  0
   -1.7814   -0.9107   -0.4251 O   0  0  0  0  0  0  0  0  0  0  0  0
   -4.0257   -0.2944   -0.2110 C   0  0  0  0  0  0  0  0  0  0  0  0
   -4.9569    0.2801    0.6682 C   0  0  0  0  0  0  0  0  0  0  0  0
   -6.3172   -0.0073    0.5254 C   0  0  0  0  0  0  0  0  0  0  0  0
   -6.7385   -0.8685   -0.4827 C   0  0  0  0  0  0  0  0  0  0  0  0
   -8.0430   -1.1405   -0.6133 F   0  0  0  0  0  0  0  0  0  0  0  0
   -5.8257   -1.4572   -1.3500 C   0  0  0  0  0  0  0  0  0  0  0  0
   -4.4654   -1.1747   -1.2117 C   0  0  0  0  0  0  0  0  0  0  0  0
    0.0957    0.7990    0.3150 O   0  0  0  0  0  0  0  0  0  0  0  0
    3.6339    1.7631    0.7619 C   0  0  0  0  0  0  0  0  0  0  0  0
    4.9114    1.2028    0.6610 C   0  0  0  0  0  0  0  0  0  0  0  0
    6.1476   -2.5951    0.5468 H   0  0  0  0  0  0  0  0  0  0  0  0
    7.6792   -2.0749   -0.1664 H   0  0  0  0  0  0  0  0  0  0  0  0
    6.2341   -2.0842   -1.1845 H   0  0  0  0  0  0  0  0  0  0  0  0
    4.0282   -1.9388   -0.3082 H   0  0  0  0  0  0  0  0  0  0  0  0
    1.8080   -0.9654   -0.1333 H   0  0  0  0  0  0  0  0  0  0  0  0
   -2.9321    1.9516    0.4797 H   0  0  0  0  0  0  0  0  0  0  0  0
   -4.6444    0.9245    1.4852 H   0  0  0  0  0  0  0  0  0  0  0  0
   -7.0511    0.4247    1.1995 H   0  0  0  0  0  0  0  0  0  0  0  0
   -6.1759   -2.1342   -2.1232 H   0  0  0  0  0  0  0  0  0  0  0  0
   -3.7482   -1.6410   -1.8854 H   0  0  0  0  0  0  0  0  0  0  0  0
    3.5367    2.8049    1.0634 H   0  0  0  0  0  0  0  0  0  0  0  0
    5.7844    1.8120    0.8838 H   0  0  0  0  0  0  0  0  0  0  0  0
  1  2  1  0
  2  3  1  0
  3  4  2  0
  4  5  1  0
  5  6  2  0
  6  7  1  0
  7  8  2  0
  8  9  1  0
  9 10  2  0
 10 11  1  0
 11 12  1  0
 12 13  2  0
 12 14  1  0
 14 15  2  0
 15 16  1  0
 16 17  2  0
 17 18  1  0
 17 19  1  0
 19 20  2  0
 10 21  1  0
  6 22  1  0
 22 23  2  0
 23  3  1  0
 21  7  1  0
 20 14  1  0
  1 24  1  0
  1 25  1  0
  1 26  1  0
  4 27  1  0
  5 28  1  0
 11 29  1  0
 15 30  1  0
 16 31  1  0
 19 32  1  0
 20 33  1  0
 22 34  1  0
 23 35  1  0
M  END
$$$$
