
     RDKit          3D

 51 54  0  0  0  0  0  0  0  0999 V2000
    6.4615    0.8715   -2.4500 C   0  0  0  0  0  0  0  0  0  0  0  0
    5.4730    1.6444   -3.3098 C   0  0  0  0  0  0  0  0  0  0  0  0
    4.0990    1.6758   -2.6932 C   0  0  0  0  0  0  0  0  0  0  0  0
    3.7367    2.6957   -1.8112 C   0  0  0  0  0  0  0  0  0  0  0  0
    2.4639    2.7138   -1.2267 C   0  0  0  0  0  0  0  0  0  0  0  0
    1.5152    1.7137   -1.4983 C   0  0  0  0  0  0  0  0  0  0  0  0
    0.1999    1.7425   -0.8840 N   0  0  0  0  0  0  0  0  0  0  0  0
   -0.4036    2.9895   -0.6806 C   0  0  0  0  0  0  0  0  0  0  0  0
    0.0184    4.0710   -1.0934 O   0  0  0  0  0  0  0  0  0  0  0  0
   -1.6867    3.0154    0.0375 C   0  0  0  0  0  0  0  0  0  0  0  0
   -2.2618    4.2534    0.3768 C   0  0  0  0  0  0  0  0  0  0  0  0
   -3.4786    4.3031    1.0491 C   0  0  0  0  0  0  0  0  0  0  0  0
   -4.1192    3.1174    1.3841 C   0  0  0  0  0  0  0  0  0  0  0  0
   -3.5461    1.8876    1.0405 C   0  0  0  0  0  0  0  0  0  0  0  0
   -2.3215    1.8212    0.3543 C   0  0  0  0  0  0  0  0  0  0  0  0
   -1.7131    0.5973   -0.0181 N   0  0  0  0  0  0  0  0  0  0  0  0
   -2.3498   -0.6842    0.2962 C   0  0  0  0  0  0  0  0  0  0  0  0
   -2.0204   -1.1665    1.7142 C   0  0  0  0  0  0  0  0  0  0  0  0
   -1.7174   -0.4139    2.6368 O   0  0  0  0  0  0  0  0  0  0  0  0
   -2.1619   -2.5249    1.8872 N   0  0  0  0  0  0  0  0  0  0  0  0
   -1.9846   -3.1315    3.1852 C   0  0  0  0  0  0  0  0  0  0  0  0
   -1.9393   -4.6035    3.0200 C   0  0  0  0  0  0  0  0  0  0  0  0
   -0.9858   -5.5600    3.3010 C   0  0  0  0  0  0  0  0  0  0  0  0
   -1.5376   -6.8027    2.9070 C   0  0  0  0  0  0  0  0  0  0  0  0
   -2.7891   -6.5268    2.4092 C   0  0  0  0  0  0  0  0  0  0  0  0
   -3.0422   -5.1940    2.4695 O   0  0  0  0  0  0  0  0  0  0  0  0
   -0.4255    0.5301   -0.5562 C   0  0  0  0  0  0  0  0  0  0  0  0
    0.1026   -0.5789   -0.6964 O   0  0  0  0  0  0  0  0  0  0  0  0
    1.8977    0.6929   -2.3833 C   0  0  0  0  0  0  0  0  0  0  0  0
    3.1697    0.6710   -2.9704 C   0  0  0  0  0  0  0  0  0  0  0  0
    6.5623    1.3230   -1.4572 H   0  0  0  0  0  0  0  0  0  0  0  0
    7.4492    0.8654   -2.9217 H   0  0  0  0  0  0  0  0  0  0  0  0
    6.1432   -0.1679   -2.3154 H   0  0  0  0  0  0  0  0  0  0  0  0
    5.4191    1.1938   -4.3084 H   0  0  0  0  0  0  0  0  0  0  0  0
    5.8341    2.6693   -3.4591 H   0  0  0  0  0  0  0  0  0  0  0  0
    4.4413    3.4871   -1.5651 H   0  0  0  0  0  0  0  0  0  0  0  0
    2.2450    3.5196   -0.5299 H   0  0  0  0  0  0  0  0  0  0  0  0
   -1.7583    5.1833    0.1175 H   0  0  0  0  0  0  0  0  0  0  0  0
   -3.9185    5.2609    1.3149 H   0  0  0  0  0  0  0  0  0  0  0  0
   -5.0638    3.1437    1.9228 H   0  0  0  0  0  0  0  0  0  0  0  0
   -4.0810    0.9969    1.3543 H   0  0  0  0  0  0  0  0  0  0  0  0
   -2.0147   -1.4460   -0.4185 H   0  0  0  0  0  0  0  0  0  0  0  0
   -3.4352   -0.6233    0.1708 H   0  0  0  0  0  0  0  0  0  0  0  0
   -2.5426   -3.1041    1.1492 H   0  0  0  0  0  0  0  0  0  0  0  0
   -2.8278   -2.8381    3.8191 H   0  0  0  0  0  0  0  0  0  0  0  0
   -1.0635   -2.7514    3.6393 H   0  0  0  0  0  0  0  0  0  0  0  0
   -0.0119   -5.3796    3.7353 H   0  0  0  0  0  0  0  0  0  0  0  0
   -1.0799   -7.7796    2.9760 H   0  0  0  0  0  0  0  0  0  0  0  0
   -3.5810   -7.1354    1.9950 H   0  0  0  0  0  0  0  0  0  0  0  0
    1.2073   -0.0981   -2.6643 H   0  0  0  0  0  0  0  0  0  0  0  0
    3.4231   -0.1399   -3.6498 H   0  0  0  0  0  0  0  0  0  0  0  0
  1  2  1  0
  2  3  1  0
  3  4  2  0
  4  5  1  0
  5  6  2  0
  6  7  1  0
  7  8  1  0
  8  9  2  0
  8 10  1  0
 10 11  2  0
 11 12  1  0
 12 13  2  0
 13 14  1  0
 14 15  2  0
 15 16  1  0
 16 17  1  0
 17 18  1  0
 18 19  2  0
 18 20  1  0
 20 21  1  0
 21 22  1  0
 22 23  2  0
 23 24  1  0
 24 25  2  0
 25 26  1  0
 16 27  1  0
 27 28  2  0
  6 29  1  0
 29 30  2  0
 30  3  1  0
 27  7  1  0
 15 10  1  0
 26 22  1  0
  1 31  1  0
  1 32  1  0
  1 33  1  0
  2 34  1  0
  2 35  1  0
  4 36  1  0
  5 37  1  0
 11 38  1  0
 12 39  1  0
 13 40  1  0
 14 41  1  0
 17 42  1  0
 17 43  1  0
 20 44  1  0
 21 45  1  0
 21 46  1  0
 23 47  1  0
 24 48  1  0
 25 49  1  0
 29 50  1  0
 30 51  1  0
M  END
$$$$
