
     RDKit          3D

 15 15  0  0  0  0  0  0  0  0999 V2000
   -3.9771   -0.9249    1.5698 N   0  0  0  0  0  0  0  0  0  0  0  0
   -2.9462   -0.6148    1.1380 C   0  0  0  0  0  0  0  0  0  0  0  0
   -1.6817   -0.2367    0.6109 C   0  0  0  0  0  0  0  0  0  0  0  0
   -1.0642   -0.9374   -0.3961 C   0  0  0  0  0  0  0  0  0  0  0  0
    0.1371   -0.5980   -0.9122 N   0  0  0  0  0  0  0  0  0  0  0  0
    0.7382    0.4962   -0.4026 C   0  0  0  0  0  0  0  0  0  0  0  0
    1.9894    0.8963   -0.9040 N   0  0  0  0  0  0  0  0  0  0  0  0
    2.8106   -0.0547   -1.5598 N   0  0  0  0  0  0  0  0  0  0  0  0
    0.2168    1.2345    0.5904 N   0  0  0  0  0  0  0  0  0  0  0  0
   -0.9868    0.8542    1.0740 C   0  0  0  0  0  0  0  0  0  0  0  0
   -1.5177   -1.8199   -0.8409 H   0  0  0  0  0  0  0  0  0  0  0  0
    2.4199    1.5256   -0.2274 H   0  0  0  0  0  0  0  0  0  0  0  0
    2.9618   -0.8588   -0.9435 H   0  0  0  0  0  0  0  0  0  0  0  0
    2.2757   -0.4454   -2.3442 H   0  0  0  0  0  0  0  0  0  0  0  0
   -1.3758    1.4836    1.8710 H   0  0  0  0  0  0  0  0  0  0  0  0
  1  2  3  0
  2  3  1  0
  3  4  2  0
  4  5  1  0
  5  6  2  0
  6  7  1  0
  7  8  1  0
  6  9  1  0
  9 10  2  0
 10  3  1  0
  4 11  1  0
  7 12  1  0
  8 13  1  0
  8 14  1  0
 10 15  1  0
M  END
$$$$
