
     RDKit          3D

 71 75  0  0  0  0  0  0  0  0999 V2000
   -5.2977   -0.3104   -2.7078 C   0  0  0  0  0  0  0  0  0  0  0  0
   -5.9247   -1.1269   -1.6176 C   0  0  0  0  0  0  0  0  0  0  0  0
   -6.7444   -2.2137   -1.9266 C   0  0  0  0  0  0  0  0  0  0  0  0
   -7.2888   -2.9979   -0.9090 C   0  0  0  0  0  0  0  0  0  0  0  0
   -7.0195   -2.7226    0.4416 C   0  0  0  0  0  0  0  0  0  0  0  0
   -7.6403   -3.6038    1.4920 C   0  0  0  0  0  0  0  0  0  0  0  0
   -6.1921   -1.6272    0.7685 C   0  0  0  0  0  0  0  0  0  0  0  0
   -5.8469   -1.2640    2.1971 C   0  0  0  0  0  0  0  0  0  0  0  0
   -4.5771   -1.8277    2.6086 N   0  0  0  0  0  0  0  0  0  0  0  0
   -4.5221   -3.0157    3.2616 N   0  0  0  0  0  0  0  0  0  0  0  0
   -3.2436   -3.2767    3.5278 N   0  0  0  0  0  0  0  0  0  0  0  0
   -2.5122   -2.2280    3.0621 C   0  0  0  0  0  0  0  0  0  0  0  0
   -1.0935   -1.9924    3.0774 C   0  0  0  0  0  0  0  0  0  0  0  0
   -0.2518   -2.7513    3.5446 O   0  0  0  0  0  0  0  0  0  0  0  0
   -0.7632   -0.7782    2.4893 N   0  0  0  0  0  0  0  0  0  0  0  0
   -1.6949    0.1160    1.9634 C   0  0  0  0  0  0  0  0  0  0  0  0
   -1.1328    1.3989    1.3643 C   0  0  0  0  0  0  0  0  0  0  0  0
   -0.2918    1.0461    0.1244 C   0  0  0  0  0  0  0  0  0  0  0  0
    0.6956    2.1308   -0.2714 C   0  0  0  0  0  0  0  0  0  0  0  0
    1.4599    2.6231    0.8983 N   0  0  0  0  0  0  0  0  0  0  0  0
    2.6730    1.6154    1.5591 S   0  0  0  0  0  6  0  0  0  0  0  0
    2.0514    0.3422    1.8734 O   0  0  0  0  0  0  0  0  0  0  0  0
    3.3762    2.3662    2.5752 O   0  0  0  0  0  0  0  0  0  0  0  0
    3.7924    1.3939    0.2008 C   0  0  0  0  0  0  0  0  0  0  0  0
    4.0689    0.1107   -0.2827 C   0  0  0  0  0  0  0  0  0  0  0  0
    4.9340   -0.0378   -1.3682 C   0  0  0  0  0  0  0  0  0  0  0  0
    5.5141    1.0960   -1.9524 C   0  0  0  0  0  0  0  0  0  0  0  0
    6.5816    0.8855   -3.3590 S   0  0  0  0  0  6  0  0  0  0  0  0
    6.9922    2.1957   -3.8212 O   0  0  0  0  0  0  0  0  0  0  0  0
    5.9230   -0.0494   -4.2463 O   0  0  0  0  0  0  0  0  0  0  0  0
    7.9541    0.1206   -2.6811 N   0  0  0  0  0  0  0  0  0  0  0  0
    8.7228    0.9470   -1.7212 C   0  0  0  0  0  0  0  0  0  0  0  0
    8.8398   -0.4801   -3.7051 C   0  0  0  0  0  0  0  0  0  0  0  0
    5.2364    2.3786   -1.4684 C   0  0  0  0  0  0  0  0  0  0  0  0
    4.3764    2.5273   -0.3802 C   0  0  0  0  0  0  0  0  0  0  0  0
    0.5515    3.2444    1.8930 C   0  0  0  0  0  0  0  0  0  0  0  0
   -0.4084    2.2079    2.4552 C   0  0  0  0  0  0  0  0  0  0  0  0
   -2.9835   -0.0878    1.9484 N   0  0  0  0  0  0  0  0  0  0  0  0
   -3.3307   -1.2779    2.4997 C   0  0  0  0  0  0  0  0  0  0  0  0
   -5.6479   -0.8483   -0.2737 C   0  0  0  0  0  0  0  0  0  0  0  0
   -4.3183   -0.7218   -2.9679 H   0  0  0  0  0  0  0  0  0  0  0  0
   -5.1692    0.7306   -2.3925 H   0  0  0  0  0  0  0  0  0  0  0  0
   -5.9270   -0.3051   -3.6027 H   0  0  0  0  0  0  0  0  0  0  0  0
   -6.9638   -2.4621   -2.9628 H   0  0  0  0  0  0  0  0  0  0  0  0
   -7.9248   -3.8391   -1.1803 H   0  0  0  0  0  0  0  0  0  0  0  0
   -8.3721   -3.0373    2.0761 H   0  0  0  0  0  0  0  0  0  0  0  0
   -6.8773   -4.0122    2.1584 H   0  0  0  0  0  0  0  0  0  0  0  0
   -8.1611   -4.4548    1.0422 H   0  0  0  0  0  0  0  0  0  0  0  0
   -5.7880   -0.1760    2.3096 H   0  0  0  0  0  0  0  0  0  0  0  0
   -6.6109   -1.6017    2.9038 H   0  0  0  0  0  0  0  0  0  0  0  0
    0.2340   -0.5781    2.4552 H   0  0  0  0  0  0  0  0  0  0  0  0
   -1.9775    2.0101    1.0167 H   0  0  0  0  0  0  0  0  0  0  0  0
   -0.9678    0.8544   -0.7189 H   0  0  0  0  0  0  0  0  0  0  0  0
    0.2454    0.1020    0.2605 H   0  0  0  0  0  0  0  0  0  0  0  0
    0.1554    2.9778   -0.7098 H   0  0  0  0  0  0  0  0  0  0  0  0
    1.3687    1.7746   -1.0565 H   0  0  0  0  0  0  0  0  0  0  0  0
    3.6177   -0.7698    0.1705 H   0  0  0  0  0  0  0  0  0  0  0  0
    5.1539   -1.0301   -1.7606 H   0  0  0  0  0  0  0  0  0  0  0  0
    9.1831    1.8072   -2.2184 H   0  0  0  0  0  0  0  0  0  0  0  0
    9.5179    0.3435   -1.2690 H   0  0  0  0  0  0  0  0  0  0  0  0
    8.0856    1.2946   -0.9042 H   0  0  0  0  0  0  0  0  0  0  0  0
    9.2541    0.2886   -4.3657 H   0  0  0  0  0  0  0  0  0  0  0  0
    9.6682   -1.0067   -3.2202 H   0  0  0  0  0  0  0  0  0  0  0  0
    8.2944   -1.2206   -4.2978 H   0  0  0  0  0  0  0  0  0  0  0  0
    5.6794    3.2581   -1.9312 H   0  0  0  0  0  0  0  0  0  0  0  0
    4.1552    3.5208    0.0066 H   0  0  0  0  0  0  0  0  0  0  0  0
   -0.0058    4.0533    1.4067 H   0  0  0  0  0  0  0  0  0  0  0  0
    1.1267    3.7176    2.6947 H   0  0  0  0  0  0  0  0  0  0  0  0
   -1.1569    2.7104    3.0817 H   0  0  0  0  0  0  0  0  0  0  0  0
    0.1370    1.5549    3.1449 H   0  0  0  0  0  0  0  0  0  0  0  0
   -4.9921   -0.0114   -0.0325 H   0  0  0  0  0  0  0  0  0  0  0  0
  1  2  1  0
  2  3  2  0
  3  4  1  0
  4  5  2  0
  5  6  1  0
  5  7  1  0
  7  8  1  0
  8  9  1  0
  9 10  1  0
 10 11  2  0
 11 12  1  0
 12 13  1  0
 13 14  2  0
 13 15  1  0
 15 16  1  0
 16 17  1  0
 17 18  1  0
 18 19  1  0
 19 20  1  0
 20 21  1  0
 21 22  2  0
 21 23  2  0
 21 24  1  0
 24 25  2  0
 25 26  1  0
 26 27  2  0
 27 28  1  0
 28 29  2  0
 28 30  2  0
 28 31  1  0
 31 32  1  0
 31 33  1  0
 27 34  1  0
 34 35  2  0
 20 36  1  0
 36 37  1  0
 16 38  2  0
 38 39  1  0
  7 40  2  0
 40  2  1  0
 39  9  1  0
 39 12  2  0
 37 17  1  0
 35 24  1  0
  1 41  1  0
  1 42  1  0
  1 43  1  0
  3 44  1  0
  4 45  1  0
  6 46  1  0
  6 47  1  0
  6 48  1  0
  8 49  1  0
  8 50  1  0
 15 51  1  0
 17 52  1  0
 18 53  1  0
 18 54  1  0
 19 55  1  0
 19 56  1  0
 25 57  1  0
 26 58  1  0
 32 59  1  0
 32 60  1  0
 32 61  1  0
 33 62  1  0
 33 63  1  0
 33 64  1  0
 34 65  1  0
 35 66  1  0
 36 67  1  0
 36 68  1  0
 37 69  1  0
 37 70  1  0
 40 71  1  0
M  END
$$$$
