
     RDKit          3D

 45 44  0  0  0  0  0  0  0  0999 V2000
    4.7712   -4.7102    1.3862 C   0  0  0  0  0  0  0  0  0  0  0  0
    4.6765   -3.4910    0.4821 C   0  0  0  0  0  0  0  0  0  0  0  0
    4.4328   -2.2144    1.2898 C   0  0  0  0  0  0  0  0  0  0  0  0
    4.3847   -0.9648    0.4106 C   0  0  0  0  0  0  0  0  0  0  0  0
    3.2609   -0.9636   -0.4962 N   0  0  0  0  0  0  0  0  0  0  0  0
    2.0058   -0.6029   -0.1137 C   0  0  0  0  0  0  0  0  0  0  0  0
    1.6954   -0.1683    0.9828 O   0  0  0  0  0  0  0  0  0  0  0  0
    1.1580   -0.8038   -1.1502 O   0  0  0  0  0  0  0  0  0  0  0  0
   -0.2219   -0.4953   -0.8937 C   0  0  0  0  0  0  0  0  0  0  0  0
   -0.5265    1.0207   -0.9063 C   0  0  0  0  0  0  0  0  0  0  0  0
    0.1310    1.7257   -2.1071 C   0  0  0  0  0  0  0  0  0  0  0  0
   -0.0512    3.2388   -2.0737 C   0  0  0  0  0  0  0  0  0  0  0  0
   -1.9677    1.2517   -0.9151 N   0  0  0  0  0  0  0  0  0  0  0  0
   -2.7569    1.0673    0.1776 C   0  0  0  0  0  0  0  0  0  0  0  0
   -2.3649    0.7721    1.2942 O   0  0  0  0  0  0  0  0  0  0  0  0
   -4.0497    1.2471   -0.1849 O   0  0  0  0  0  0  0  0  0  0  0  0
   -5.0253    1.0923    0.8627 C   0  0  0  0  0  0  0  0  0  0  0  0
   -5.1524    2.3978    1.6400 C   0  0  0  0  0  0  0  0  0  0  0  0
   -6.3471    0.7326    0.1950 C   0  0  0  0  0  0  0  0  0  0  0  0
    3.8452   -4.8509    1.9528 H   0  0  0  0  0  0  0  0  0  0  0  0
    5.5974   -4.6085    2.0971 H   0  0  0  0  0  0  0  0  0  0  0  0
    4.9452   -5.6114    0.7902 H   0  0  0  0  0  0  0  0  0  0  0  0
    5.6056   -3.3964   -0.0919 H   0  0  0  0  0  0  0  0  0  0  0  0
    3.8643   -3.6454   -0.2373 H   0  0  0  0  0  0  0  0  0  0  0  0
    3.4982   -2.3111    1.8556 H   0  0  0  0  0  0  0  0  0  0  0  0
    5.2401   -2.0928    2.0223 H   0  0  0  0  0  0  0  0  0  0  0  0
    4.3171   -0.0759    1.0478 H   0  0  0  0  0  0  0  0  0  0  0  0
    5.2941   -0.8797   -0.1932 H   0  0  0  0  0  0  0  0  0  0  0  0
    3.3398   -1.3892   -1.4086 H   0  0  0  0  0  0  0  0  0  0  0  0
   -0.5456   -0.9628    0.0449 H   0  0  0  0  0  0  0  0  0  0  0  0
   -0.7955   -0.9877   -1.6884 H   0  0  0  0  0  0  0  0  0  0  0  0
   -0.1266    1.4618    0.0150 H   0  0  0  0  0  0  0  0  0  0  0  0
   -0.2851    1.3374   -3.0448 H   0  0  0  0  0  0  0  0  0  0  0  0
    1.2072    1.5199   -2.1229 H   0  0  0  0  0  0  0  0  0  0  0  0
    0.4757    3.6989   -2.9158 H   0  0  0  0  0  0  0  0  0  0  0  0
   -1.1065    3.5186   -2.1481 H   0  0  0  0  0  0  0  0  0  0  0  0
    0.3542    3.6614   -1.1489 H   0  0  0  0  0  0  0  0  0  0  0  0
   -2.4634    1.3738   -1.7872 H   0  0  0  0  0  0  0  0  0  0  0  0
   -4.7425    0.2724    1.5342 H   0  0  0  0  0  0  0  0  0  0  0  0
   -5.9242    2.3253    2.4125 H   0  0  0  0  0  0  0  0  0  0  0  0
   -4.2054    2.6584    2.1237 H   0  0  0  0  0  0  0  0  0  0  0  0
   -5.4014    3.2289    0.9709 H   0  0  0  0  0  0  0  0  0  0  0  0
   -6.6545    1.5095   -0.5139 H   0  0  0  0  0  0  0  0  0  0  0  0
   -6.2432   -0.1938   -0.3801 H   0  0  0  0  0  0  0  0  0  0  0  0
   -7.1425    0.5966    0.9341 H   0  0  0  0  0  0  0  0  0  0  0  0
  1  2  1  0
  2  3  1  0
  3  4  1  0
  4  5  1  0
  5  6  1  0
  6  7  2  0
  6  8  1  0
  8  9  1  0
  9 10  1  0
 10 11  1  0
 11 12  1  0
 10 13  1  0
 13 14  1  0
 14 15  2  0
 14 16  1  0
 16 17  1  0
 17 18  1  0
 17 19  1  0
  1 20  1  0
  1 21  1  0
  1 22  1  0
  2 23  1  0
  2 24  1  0
  3 25  1  0
  3 26  1  0
  4 27  1  0
  4 28  1  0
  5 29  1  0
  9 30  1  0
  9 31  1  0
 10 32  1  0
 11 33  1  0
 11 34  1  0
 12 35  1  0
 12 36  1  0
 12 37  1  0
 13 38  1  0
 17 39  1  0
 18 40  1  0
 18 41  1  0
 18 42  1  0
 19 43  1  0
 19 44  1  0
 19 45  1  0
M  END
$$$$
