
     RDKit          3D

 31 32  0  0  0  0  0  0  0  0999 V2000
   -3.4260    1.8993   -0.8865 C   0  0  0  0  0  0  0  0  0  0  0  0
   -3.2471    0.6903   -0.0066 C   0  0  0  0  0  0  0  0  0  0  0  0
   -4.2390    0.2083    0.5463 O   0  0  0  0  0  0  0  0  0  0  0  0
   -1.9039    0.1067    0.1746 C   0  0  0  0  0  0  0  0  0  0  0  0
   -1.6831   -1.1339    0.7667 C   0  0  0  0  0  0  0  0  0  0  0  0
   -2.6365   -2.1277    1.3337 C   0  0  0  0  0  0  0  0  0  0  0  0
   -0.3370   -1.3775    0.7656 N   0  0  0  0  0  0  0  0  0  0  0  0
    0.3408   -0.3356    0.1875 C   0  0  0  0  0  0  0  0  0  0  0  0
    1.7942   -0.3686    0.0437 C   0  0  0  0  0  0  0  0  0  0  0  0
    2.6167   -0.4782    1.1716 C   0  0  0  0  0  0  0  0  0  0  0  0
    4.0057   -0.5196    1.0314 C   0  0  0  0  0  0  0  0  0  0  0  0
    4.5812   -0.4542   -0.2367 C   0  0  0  0  0  0  0  0  0  0  0  0
    3.7698   -0.3459   -1.3650 C   0  0  0  0  0  0  0  0  0  0  0  0
    2.3810   -0.3032   -1.2254 C   0  0  0  0  0  0  0  0  0  0  0  0
   -0.5990    0.6237   -0.1770 C   0  0  0  0  0  0  0  0  0  0  0  0
   -0.2779    1.9452   -0.7915 C   0  0  0  0  0  0  0  0  0  0  0  0
   -4.4938    2.0571   -1.0698 H   0  0  0  0  0  0  0  0  0  0  0  0
   -2.9458    1.7422   -1.8549 H   0  0  0  0  0  0  0  0  0  0  0  0
   -3.0316    2.7881   -0.3901 H   0  0  0  0  0  0  0  0  0  0  0  0
   -2.1221   -3.0372    1.6616 H   0  0  0  0  0  0  0  0  0  0  0  0
   -3.3795   -2.4179    0.5841 H   0  0  0  0  0  0  0  0  0  0  0  0
   -3.1564   -1.7070    2.2002 H   0  0  0  0  0  0  0  0  0  0  0  0
    0.1037   -2.2164    1.1193 H   0  0  0  0  0  0  0  0  0  0  0  0
    2.1819   -0.5162    2.1675 H   0  0  0  0  0  0  0  0  0  0  0  0
    4.6380   -0.5984    1.9120 H   0  0  0  0  0  0  0  0  0  0  0  0
    5.6622   -0.4856   -0.3455 H   0  0  0  0  0  0  0  0  0  0  0  0
    4.2170   -0.2956   -2.3543 H   0  0  0  0  0  0  0  0  0  0  0  0
    1.7573   -0.2259   -2.1129 H   0  0  0  0  0  0  0  0  0  0  0  0
   -0.5997    1.9708   -1.8367 H   0  0  0  0  0  0  0  0  0  0  0  0
    0.7955    2.1578   -0.7701 H   0  0  0  0  0  0  0  0  0  0  0  0
   -0.7667    2.7552   -0.2428 H   0  0  0  0  0  0  0  0  0  0  0  0
  1  2  1  0
  2  3  2  0
  2  4  1  0
  4  5  2  0
  5  6  1  0
  5  7  1  0
  7  8  1  0
  8  9  1  0
  9 10  2  0
 10 11  1  0
 11 12  2  0
 12 13  1  0
 13 14  2  0
  8 15  2  0
 15 16  1  0
 15  4  1  0
 14  9  1  0
  1 17  1  0
  1 18  1  0
  1 19  1  0
  6 20  1  0
  6 21  1  0
  6 22  1  0
  7 23  1  0
 10 24  1  0
 11 25  1  0
 12 26  1  0
 13 27  1  0
 14 28  1  0
 16 29  1  0
 16 30  1  0
 16 31  1  0
M  END
$$$$
