
     RDKit          3D

 42 45  0  0  0  0  0  0  0  0999 V2000
    2.9471    0.7235   -1.1197 C   0  0  0  0  0  0  0  0  0  0  0  0
    3.4260   -0.0308    0.0661 C   0  0  0  0  0  0  0  0  0  0  0  0
    2.8642   -0.2185    1.3238 C   0  0  0  0  0  0  0  0  0  0  0  0
    1.5685    0.2154    1.8407 C   0  0  0  0  0  0  0  0  0  0  0  0
    1.4287    0.6323    2.9869 O   0  0  0  0  0  0  0  0  0  0  0  0
    0.5242    0.0752    0.9315 N   0  0  0  0  0  0  0  0  0  0  0  0
   -0.7401    0.4398    1.2879 N   0  0  0  0  0  0  0  0  0  0  0  0
   -1.6704    0.2130    0.4115 C   0  0  0  0  0  0  0  0  0  0  0  0
   -3.0886    0.5650    0.6824 C   0  0  0  0  0  0  0  0  0  0  0  0
   -3.4284    1.1390    1.9215 C   0  0  0  0  0  0  0  0  0  0  0  0
   -2.5293    1.4029    2.9209 O   0  0  0  0  0  0  0  0  0  0  0  0
   -4.7422    1.4808    2.2088 C   0  0  0  0  0  0  0  0  0  0  0  0
   -5.7377    1.2551    1.2647 C   0  0  0  0  0  0  0  0  0  0  0  0
   -5.4363    0.6851    0.0202 C   0  0  0  0  0  0  0  0  0  0  0  0
   -6.4733    0.4749   -0.9035 C   0  0  0  0  0  0  0  0  0  0  0  0
   -6.2235   -0.0876   -2.1518 C   0  0  0  0  0  0  0  0  0  0  0  0
   -4.9295   -0.4479   -2.4932 C   0  0  0  0  0  0  0  0  0  0  0  0
   -3.8853   -0.2455   -1.5854 C   0  0  0  0  0  0  0  0  0  0  0  0
   -4.0990    0.3253   -0.3013 C   0  0  0  0  0  0  0  0  0  0  0  0
    3.7552   -0.8924    2.1125 N   0  0  0  0  0  0  0  0  0  0  0  0
    4.8232   -1.1789    1.3902 N   0  0  0  0  0  0  0  0  0  0  0  0
    4.6585   -0.6871    0.1327 N   0  0  0  0  0  0  0  0  0  0  0  0
    5.6432   -0.8698   -0.8708 C   0  0  0  0  0  0  0  0  0  0  0  0
    5.4663   -0.3955   -2.1054 N   0  0  0  0  0  0  0  0  0  0  0  0
    6.6321   -0.7622   -2.7779 O   0  0  0  0  0  0  0  0  0  0  0  0
    7.4979   -1.4611   -1.9442 N   0  0  0  0  0  0  0  0  0  0  0  0
    6.8793   -1.5351   -0.7665 C   0  0  0  0  0  0  0  0  0  0  0  0
    7.3808   -2.1530    0.3188 N   0  0  0  0  0  0  0  0  0  0  0  0
    2.6966    0.0417   -1.9382 H   0  0  0  0  0  0  0  0  0  0  0  0
    3.6996    1.4403   -1.4628 H   0  0  0  0  0  0  0  0  0  0  0  0
    2.0521    1.3087   -0.8893 H   0  0  0  0  0  0  0  0  0  0  0  0
    0.6802   -0.3932    0.0472 H   0  0  0  0  0  0  0  0  0  0  0  0
   -1.4154   -0.2483   -0.5537 H   0  0  0  0  0  0  0  0  0  0  0  0
   -1.6331    1.1215    2.6279 H   0  0  0  0  0  0  0  0  0  0  0  0
   -4.9895    1.9232    3.1705 H   0  0  0  0  0  0  0  0  0  0  0  0
   -6.7604    1.5318    1.5150 H   0  0  0  0  0  0  0  0  0  0  0  0
   -7.4967    0.7511   -0.6545 H   0  0  0  0  0  0  0  0  0  0  0  0
   -7.0394   -0.2426   -2.8531 H   0  0  0  0  0  0  0  0  0  0  0  0
   -4.7275   -0.8880   -3.4668 H   0  0  0  0  0  0  0  0  0  0  0  0
   -2.8974   -0.5497   -1.9159 H   0  0  0  0  0  0  0  0  0  0  0  0
    6.9602   -2.0357    1.2400 H   0  0  0  0  0  0  0  0  0  0  0  0
    8.3588   -2.4225    0.3323 H   0  0  0  0  0  0  0  0  0  0  0  0
  1  2  1  0
  2  3  2  0
  3  4  1  0
  4  5  2  0
  4  6  1  0
  6  7  1  0
  7  8  2  3
  8  9  1  0
  9 10  2  0
 10 11  1  0
 10 12  1  0
 12 13  2  0
 13 14  1  0
 14 15  2  0
 15 16  1  0
 16 17  2  0
 17 18  1  0
 18 19  2  0
  3 20  1  0
 20 21  2  0
 21 22  1  0
 22 23  1  0
 23 24  2  0
 24 25  1  0
 25 26  1  0
 26 27  2  0
 27 28  1  0
 22  2  1  0
 27 23  1  0
 19  9  1  0
 19 14  1  0
  1 29  1  0
  1 30  1  0
  1 31  1  0
  6 32  1  0
  8 33  1  0
 11 34  1  0
 12 35  1  0
 13 36  1  0
 15 37  1  0
 16 38  1  0
 17 39  1  0
 18 40  1  0
 28 41  1  0
 28 42  1  0
M  END
$$$$
