
     RDKit          3D

 48 51  0  0  0  0  0  0  0  0999 V2000
    6.8588    1.7151   -1.7935 C   0  0  0  0  0  0  0  0  0  0  0  0
    5.9973    0.6589   -1.2345 C   0  0  0  0  0  0  0  0  0  0  0  0
    4.6430    0.4382   -1.2081 C   0  0  0  0  0  0  0  0  0  0  0  0
    4.4877   -0.7935   -0.5104 C   0  0  0  0  0  0  0  0  0  0  0  0
    3.2572   -1.5277   -0.1843 C   0  0  0  0  0  0  0  0  0  0  0  0
    3.2487   -2.6851    0.2272 O   0  0  0  0  0  0  0  0  0  0  0  0
    2.0849   -0.8129   -0.3609 N   0  0  0  0  0  0  0  0  0  0  0  0
    0.8093   -1.3713    0.0397 C   0  0  0  0  0  0  0  0  0  0  0  0
    0.6189   -1.2635    1.5721 C   0  0  0  0  0  0  0  0  0  0  0  0
   -0.8635   -1.3821    2.0334 C   0  0  0  0  0  0  0  0  0  0  0  0
   -0.9222   -1.2077    3.5630 C   0  0  0  0  0  0  0  0  0  0  0  0
   -1.4272   -2.7769    1.6929 C   0  0  0  0  0  0  0  0  0  0  0  0
   -1.7307   -0.2658    1.3692 C   0  0  0  0  0  0  0  0  0  0  0  0
   -1.3996   -0.1089   -0.0790 C   0  0  0  0  0  0  0  0  0  0  0  0
   -0.2627   -0.6241   -0.6773 C   0  0  0  0  0  0  0  0  0  0  0  0
   -0.4334   -0.3682   -2.0414 C   0  0  0  0  0  0  0  0  0  0  0  0
   -1.5547    0.3003   -2.2941 N   0  0  0  0  0  0  0  0  0  0  0  0
   -2.1433    0.5068   -1.0788 N   0  0  0  0  0  0  0  0  0  0  0  0
   -3.3474    1.2778   -1.0211 C   0  0  0  0  0  0  0  0  0  0  0  0
   -4.0048    1.5927   -2.2281 C   0  0  0  0  0  0  0  0  0  0  0  0
   -5.1831    2.3438   -2.2276 C   0  0  0  0  0  0  0  0  0  0  0  0
   -5.7052    2.7919   -1.0240 C   0  0  0  0  0  0  0  0  0  0  0  0
   -6.8326    3.5143   -1.0181 F   0  0  0  0  0  0  0  0  0  0  0  0
   -5.0674    2.5077    0.1765 C   0  0  0  0  0  0  0  0  0  0  0  0
   -3.8866    1.7547    0.1811 C   0  0  0  0  0  0  0  0  0  0  0  0
    5.6910   -1.2709   -0.1488 N   0  0  0  0  0  0  0  0  0  0  0  0
    6.6258   -0.3629   -0.6010 O   0  0  0  0  0  0  0  0  0  0  0  0
    7.2216    1.4252   -2.7845 H   0  0  0  0  0  0  0  0  0  0  0  0
    7.7246    1.8966   -1.1488 H   0  0  0  0  0  0  0  0  0  0  0  0
    6.3078    2.6560   -1.8910 H   0  0  0  0  0  0  0  0  0  0  0  0
    3.8830    1.0664   -1.6462 H   0  0  0  0  0  0  0  0  0  0  0  0
    2.1353    0.1871   -0.4876 H   0  0  0  0  0  0  0  0  0  0  0  0
    0.7746   -2.4261   -0.2595 H   0  0  0  0  0  0  0  0  0  0  0  0
    1.0111   -0.2946    1.9155 H   0  0  0  0  0  0  0  0  0  0  0  0
    1.2345   -2.0250    2.0684 H   0  0  0  0  0  0  0  0  0  0  0  0
   -0.3433   -1.9864    4.0722 H   0  0  0  0  0  0  0  0  0  0  0  0
   -0.5142   -0.2378    3.8685 H   0  0  0  0  0  0  0  0  0  0  0  0
   -1.9538   -1.2646    3.9278 H   0  0  0  0  0  0  0  0  0  0  0  0
   -1.4690   -2.9590    0.6146 H   0  0  0  0  0  0  0  0  0  0  0  0
   -2.4457   -2.8931    2.0808 H   0  0  0  0  0  0  0  0  0  0  0  0
   -0.8117   -3.5667    2.1383 H   0  0  0  0  0  0  0  0  0  0  0  0
   -2.7904   -0.5097    1.5042 H   0  0  0  0  0  0  0  0  0  0  0  0
   -1.5272    0.6892    1.8694 H   0  0  0  0  0  0  0  0  0  0  0  0
    0.2083   -0.6472   -2.8681 H   0  0  0  0  0  0  0  0  0  0  0  0
   -3.6139    1.2483   -3.1849 H   0  0  0  0  0  0  0  0  0  0  0  0
   -5.6901    2.5787   -3.1581 H   0  0  0  0  0  0  0  0  0  0  0  0
   -5.4882    2.8824    1.1049 H   0  0  0  0  0  0  0  0  0  0  0  0
   -3.4115    1.5994    1.1401 H   0  0  0  0  0  0  0  0  0  0  0  0
  1  2  1  0
  2  3  2  0
  3  4  1  0
  4  5  1  0
  5  6  2  0
  5  7  1  0
  7  8  1  0
  8  9  1  0
  9 10  1  0
 10 11  1  0
 10 12  1  0
 10 13  1  0
 13 14  1  0
 14 15  2  0
 15 16  1  0
 16 17  2  0
 17 18  1  0
 18 19  1  0
 19 20  2  0
 20 21  1  0
 21 22  2  0
 22 23  1  0
 22 24  1  0
 24 25  2  0
  4 26  2  0
 26 27  1  0
 27  2  1  0
 15  8  1  0
 25 19  1  0
 18 14  1  0
  1 28  1  0
  1 29  1  0
  1 30  1  0
  3 31  1  0
  7 32  1  0
  8 33  1  0
  9 34  1  0
  9 35  1  0
 11 36  1  0
 11 37  1  0
 11 38  1  0
 12 39  1  0
 12 40  1  0
 12 41  1  0
 13 42  1  0
 13 43  1  0
 16 44  1  0
 20 45  1  0
 21 46  1  0
 24 47  1  0
 25 48  1  0
M  END
$$$$
