
     RDKit          3D

 57 62  0  0  0  0  0  0  0  0999 V2000
    6.7859   -2.1549    2.2466 C   0  0  0  0  0  0  0  0  0  0  0  0
    5.9675   -1.0425    1.6866 C   0  0  0  0  0  0  0  0  0  0  0  0
    5.7226    0.2019    2.2299 C   0  0  0  0  0  0  0  0  0  0  0  0
    4.8988    1.0049    1.3884 C   0  0  0  0  0  0  0  0  0  0  0  0
    4.5104    0.3336    0.2474 C   0  0  0  0  0  0  0  0  0  0  0  0
    3.7116    0.8413   -0.8512 C   0  0  0  0  0  0  0  0  0  0  0  0
    4.1150    1.7679   -1.5555 O   0  0  0  0  0  0  0  0  0  0  0  0
    2.4478    0.2766   -1.0731 N   0  0  0  0  0  0  0  0  0  0  0  0
    1.7655    0.6426   -2.3046 C   0  0  0  0  0  0  0  0  0  0  0  0
    0.3760    0.0219   -2.4264 C   0  0  0  0  0  0  0  0  0  0  0  0
   -0.4368    0.2247   -1.1217 C   0  0  0  0  0  0  0  0  0  0  0  0
    0.3511   -0.4309    0.0542 C   0  0  0  0  0  0  0  0  0  0  0  0
    1.8198   -0.7455   -0.2487 C   0  0  0  0  0  0  0  0  0  0  0  0
   -0.4829    1.6396   -0.7936 O   0  0  0  0  0  0  0  0  0  0  0  0
   -1.3123    2.4105   -1.5572 C   0  0  0  0  0  0  0  0  0  0  0  0
   -1.0705    3.7834   -1.5337 C   0  0  0  0  0  0  0  0  0  0  0  0
   -1.8600    4.6446   -2.2993 C   0  0  0  0  0  0  0  0  0  0  0  0
   -2.8934    4.1291   -3.0822 C   0  0  0  0  0  0  0  0  0  0  0  0
   -3.8621    5.1941   -4.0226 Cl  0  0  0  0  0  0  0  0  0  0  0  0
   -3.1505    2.7606   -3.1011 C   0  0  0  0  0  0  0  0  0  0  0  0
   -2.3592    1.9064   -2.3264 C   0  0  0  0  0  0  0  0  0  0  0  0
   -2.6321    0.4571   -2.2936 C   0  0  0  0  0  0  0  0  0  0  0  0
   -3.4593   -0.0205   -3.0631 O   0  0  0  0  0  0  0  0  0  0  0  0
   -1.8834   -0.3339   -1.2245 C   0  0  0  0  0  0  0  0  0  0  0  0
   -2.7077   -0.2625    0.0573 C   0  0  0  0  0  0  0  0  0  0  0  0
   -2.8311   -1.7138    0.3602 C   0  0  0  0  0  0  0  0  0  0  0  0
   -3.4599   -2.1984    1.6040 C   0  0  0  0  0  0  0  0  0  0  0  0
   -4.0159   -1.3358    2.5502 C   0  0  0  0  0  0  0  0  0  0  0  0
   -4.5893   -1.8666    3.7055 C   0  0  0  0  0  0  0  0  0  0  0  0
   -4.5855   -3.2422    3.8743 C   0  0  0  0  0  0  0  0  0  0  0  0
   -4.0564   -4.1028    2.9795 N   0  0  0  0  0  0  0  0  0  0  0  0
   -3.5089   -3.5639    1.8614 C   0  0  0  0  0  0  0  0  0  0  0  0
   -2.3417   -2.5063   -0.5360 N   0  0  0  0  0  0  0  0  0  0  0  0
   -1.8499   -1.7157   -1.5970 O   0  0  0  0  0  0  0  0  0  0  0  0
    5.2116   -1.2251    0.1609 S   0  0  0  0  0  0  0  0  0  0  0  0
    7.6532   -2.3561    1.6090 H   0  0  0  0  0  0  0  0  0  0  0  0
    7.1553   -1.9032    3.2463 H   0  0  0  0  0  0  0  0  0  0  0  0
    6.1928   -3.0716    2.3307 H   0  0  0  0  0  0  0  0  0  0  0  0
    6.1276    0.5301    3.1799 H   0  0  0  0  0  0  0  0  0  0  0  0
    4.6015    2.0237    1.6069 H   0  0  0  0  0  0  0  0  0  0  0  0
    2.3899    0.3226   -3.1474 H   0  0  0  0  0  0  0  0  0  0  0  0
    1.7033    1.7365   -2.3517 H   0  0  0  0  0  0  0  0  0  0  0  0
   -0.1152    0.4750   -3.2942 H   0  0  0  0  0  0  0  0  0  0  0  0
    0.4678   -1.0492   -2.6471 H   0  0  0  0  0  0  0  0  0  0  0  0
    0.3180    0.2353    0.9267 H   0  0  0  0  0  0  0  0  0  0  0  0
   -0.1010   -1.3737    0.3747 H   0  0  0  0  0  0  0  0  0  0  0  0
    1.9002   -1.6942   -0.7934 H   0  0  0  0  0  0  0  0  0  0  0  0
    2.3408   -0.8762    0.7028 H   0  0  0  0  0  0  0  0  0  0  0  0
   -0.2573    4.1846   -0.9325 H   0  0  0  0  0  0  0  0  0  0  0  0
   -1.6608    5.7137   -2.2849 H   0  0  0  0  0  0  0  0  0  0  0  0
   -3.9619    2.3615   -3.7061 H   0  0  0  0  0  0  0  0  0  0  0  0
   -3.7073    0.1613   -0.0882 H   0  0  0  0  0  0  0  0  0  0  0  0
   -2.2070    0.2742    0.8672 H   0  0  0  0  0  0  0  0  0  0  0  0
   -4.0210   -0.2595    2.4120 H   0  0  0  0  0  0  0  0  0  0  0  0
   -5.0321   -1.2225    4.4578 H   0  0  0  0  0  0  0  0  0  0  0  0
   -5.0214   -3.7014    4.7575 H   0  0  0  0  0  0  0  0  0  0  0  0
   -3.0997   -4.2903    1.1629 H   0  0  0  0  0  0  0  0  0  0  0  0
  1  2  1  0
  2  3  2  0
  3  4  1  0
  4  5  2  0
  5  6  1  0
  6  7  2  0
  6  8  1  0
  8  9  1  0
  9 10  1  0
 10 11  1  0
 11 12  1  0
 12 13  1  0
 11 14  1  0
 14 15  1  0
 15 16  2  0
 16 17  1  0
 17 18  2  0
 18 19  1  0
 18 20  1  0
 20 21  2  0
 21 22  1  0
 22 23  2  0
 22 24  1  0
 24 25  1  0
 25 26  1  0
 26 27  1  0
 27 28  2  0
 28 29  1  0
 29 30  2  0
 30 31  1  0
 31 32  2  0
 26 33  2  0
 33 34  1  0
  5 35  1  0
 35  2  1  0
 13  8  1  0
 21 15  1  0
 34 24  1  0
 24 11  1  0
 32 27  1  0
  1 36  1  0
  1 37  1  0
  1 38  1  0
  3 39  1  0
  4 40  1  0
  9 41  1  0
  9 42  1  0
 10 43  1  0
 10 44  1  0
 12 45  1  0
 12 46  1  0
 13 47  1  0
 13 48  1  0
 16 49  1  0
 17 50  1  0
 20 51  1  0
 25 52  1  0
 25 53  1  0
 28 54  1  0
 29 55  1  0
 30 56  1  0
 32 57  1  0
M  END
$$$$
