
     RDKit          3D

 61 66  0  0  0  0  0  0  0  0999 V2000
   -2.4819    2.3658   -3.3882 C   0  0  0  0  0  0  0  0  0  0  0  0
   -1.9769    2.1857   -1.9522 C   0  0  0  0  0  0  0  0  0  0  0  0
   -1.4454    3.5130   -1.3987 C   0  0  0  0  0  0  0  0  0  0  0  0
   -3.0363    1.6040   -1.0209 C   0  0  0  0  0  0  0  0  0  0  0  0
   -4.2835    2.2512   -0.9164 C   0  0  0  0  0  0  0  0  0  0  0  0
   -5.2529    1.8311   -0.0019 C   0  0  0  0  0  0  0  0  0  0  0  0
   -4.9974    0.7599    0.8461 C   0  0  0  0  0  0  0  0  0  0  0  0
   -3.7763    0.0971    0.7723 C   0  0  0  0  0  0  0  0  0  0  0  0
   -2.8084    0.5051   -0.1630 C   0  0  0  0  0  0  0  0  0  0  0  0
   -1.6150   -0.2537   -0.2214 N   0  0  0  0  0  0  0  0  0  0  0  0
   -0.6599   -0.3963    0.7680 C   0  0  0  0  0  0  0  0  0  0  0  0
   -0.7373    0.3765    2.3153 S   0  0  0  0  0  0  0  0  0  0  0  0
    0.9999    0.4482    2.8493 C   0  0  0  0  0  0  0  0  0  0  0  0
    1.6615   -0.8863    3.1167 C   0  0  0  0  0  0  0  0  0  0  0  0
    1.0340   -1.7708    3.9149 C   0  0  0  0  0  0  0  0  0  0  0  0
    1.6588   -2.9761    4.4611 C   0  0  0  0  0  0  0  0  0  0  0  0
    1.0002   -3.8170    5.0607 O   0  0  0  0  0  0  0  0  0  0  0  0
    3.0295   -3.0342    4.3546 O   0  0  0  0  0  0  0  0  0  0  0  0
    3.7198   -2.1706    3.4797 C   0  0  0  0  0  0  0  0  0  0  0  0
    5.0872   -2.4167    3.4063 C   0  0  0  0  0  0  0  0  0  0  0  0
    5.8588   -1.6824    2.5228 C   0  0  0  0  0  0  0  0  0  0  0  0
    5.2599   -0.7681    1.6520 C   0  0  0  0  0  0  0  0  0  0  0  0
    6.0779   -0.1091    0.7180 C   0  0  0  0  0  0  0  0  0  0  0  0
    5.5387    0.7462   -0.2357 C   0  0  0  0  0  0  0  0  0  0  0  0
    4.1679    0.9258   -0.2830 C   0  0  0  0  0  0  0  0  0  0  0  0
    3.3473    0.2850    0.6526 C   0  0  0  0  0  0  0  0  0  0  0  0
    3.8513   -0.5380    1.6929 C   0  0  0  0  0  0  0  0  0  0  0  0
    3.0717   -1.1830    2.7154 C   0  0  0  0  0  0  0  0  0  0  0  0
    0.3270   -1.1395    0.3337 N   0  0  0  0  0  0  0  0  0  0  0  0
    0.0436   -1.5049   -0.9531 N   0  0  0  0  0  0  0  0  0  0  0  0
   -1.1445   -1.0242   -1.2830 C   0  0  0  0  0  0  0  0  0  0  0  0
   -1.8074   -1.2945   -2.5598 C   0  0  0  0  0  0  0  0  0  0  0  0
   -1.0428   -1.4077   -3.7271 C   0  0  0  0  0  0  0  0  0  0  0  0
   -1.6590   -1.6768   -4.9477 C   0  0  0  0  0  0  0  0  0  0  0  0
   -3.0333   -1.8360   -4.9661 C   0  0  0  0  0  0  0  0  0  0  0  0
   -3.8088   -1.7518   -3.8652 N   0  0  0  0  0  0  0  0  0  0  0  0
   -3.1788   -1.4951   -2.6909 C   0  0  0  0  0  0  0  0  0  0  0  0
   -3.2504    3.1422   -3.4631 H   0  0  0  0  0  0  0  0  0  0  0  0
   -2.9079    1.4367   -3.7792 H   0  0  0  0  0  0  0  0  0  0  0  0
   -1.6575    2.6591   -4.0474 H   0  0  0  0  0  0  0  0  0  0  0  0
   -1.1161    1.5148   -2.0108 H   0  0  0  0  0  0  0  0  0  0  0  0
   -1.0507    3.3838   -0.3847 H   0  0  0  0  0  0  0  0  0  0  0  0
   -2.2255    4.2814   -1.3583 H   0  0  0  0  0  0  0  0  0  0  0  0
   -0.6337    3.8951   -2.0274 H   0  0  0  0  0  0  0  0  0  0  0  0
   -4.5114    3.1154   -1.5380 H   0  0  0  0  0  0  0  0  0  0  0  0
   -6.2053    2.3532    0.0546 H   0  0  0  0  0  0  0  0  0  0  0  0
   -5.7511    0.4397    1.5612 H   0  0  0  0  0  0  0  0  0  0  0  0
   -3.6037   -0.7522    1.4316 H   0  0  0  0  0  0  0  0  0  0  0  0
    0.9902    0.9905    3.8048 H   0  0  0  0  0  0  0  0  0  0  0  0
    1.5445    1.1169    2.1886 H   0  0  0  0  0  0  0  0  0  0  0  0
    0.0249   -1.6128    4.2792 H   0  0  0  0  0  0  0  0  0  0  0  0
    5.5437   -3.1775    4.0331 H   0  0  0  0  0  0  0  0  0  0  0  0
    6.9297   -1.8719    2.4826 H   0  0  0  0  0  0  0  0  0  0  0  0
    7.1537   -0.2764    0.7118 H   0  0  0  0  0  0  0  0  0  0  0  0
    6.1834    1.2366   -0.9595 H   0  0  0  0  0  0  0  0  0  0  0  0
    3.7236    1.5441   -1.0585 H   0  0  0  0  0  0  0  0  0  0  0  0
    2.2804    0.3947    0.4971 H   0  0  0  0  0  0  0  0  0  0  0  0
    0.0388   -1.2907   -3.6884 H   0  0  0  0  0  0  0  0  0  0  0  0
   -1.0782   -1.7660   -5.8589 H   0  0  0  0  0  0  0  0  0  0  0  0
   -3.5616   -2.0477   -5.8915 H   0  0  0  0  0  0  0  0  0  0  0  0
   -3.8493   -1.4711   -1.8372 H   0  0  0  0  0  0  0  0  0  0  0  0
  1  2  1  0
  2  3  1  0
  2  4  1  0
  4  5  2  0
  5  6  1  0
  6  7  2  0
  7  8  1  0
  8  9  2  0
  9 10  1  0
 10 11  1  0
 11 12  1  0
 12 13  1  0
 13 14  1  0
 14 15  2  0
 15 16  1  0
 16 17  2  0
 16 18  1  0
 18 19  1  0
 19 20  2  0
 20 21  1  0
 21 22  2  0
 22 23  1  0
 23 24  2  0
 24 25  1  0
 25 26  2  0
 26 27  1  0
 27 28  2  0
 11 29  2  0
 29 30  1  0
 30 31  2  0
 31 32  1  0
 32 33  2  0
 33 34  1  0
 34 35  2  0
 35 36  1  0
 36 37  2  0
  9  4  1  0
 31 10  1  0
 37 32  1  0
 28 14  1  0
 28 19  1  0
 27 22  1  0
  1 38  1  0
  1 39  1  0
  1 40  1  0
  2 41  1  0
  3 42  1  0
  3 43  1  0
  3 44  1  0
  5 45  1  0
  6 46  1  0
  7 47  1  0
  8 48  1  0
 13 49  1  0
 13 50  1  0
 15 51  1  0
 20 52  1  0
 21 53  1  0
 23 54  1  0
 24 55  1  0
 25 56  1  0
 26 57  1  0
 33 58  1  0
 34 59  1  0
 35 60  1  0
 37 61  1  0
M  END
$$$$
