
     RDKit          3D

 64 69  0  0  0  0  0  0  0  0999 V2000
   -9.4266    2.2816    0.5299 C   0  0  0  0  0  0  0  0  0  0  0  0
   -8.8457    1.0437    0.1358 O   0  0  0  0  0  0  0  0  0  0  0  0
   -7.4809    0.9741    0.1428 C   0  0  0  0  0  0  0  0  0  0  0  0
   -6.6104    1.9686    0.5851 C   0  0  0  0  0  0  0  0  0  0  0  0
   -5.2241    1.7661    0.5385 C   0  0  0  0  0  0  0  0  0  0  0  0
   -4.6884    0.5692    0.0413 C   0  0  0  0  0  0  0  0  0  0  0  0
   -3.2682    0.3690   -0.0132 N   0  0  0  0  0  0  0  0  0  0  0  0
   -2.2802    1.3568   -0.1729 C   0  0  0  0  0  0  0  0  0  0  0  0
   -2.5606    2.6633   -0.4448 N   0  0  0  0  0  0  0  0  0  0  0  0
   -1.0232    0.7706   -0.0749 C   0  0  0  0  0  0  0  0  0  0  0  0
    0.2630    1.4630   -0.1843 C   0  0  0  0  0  0  0  0  0  0  0  0
    0.3132    2.6603   -0.4494 O   0  0  0  0  0  0  0  0  0  0  0  0
    1.3558    0.6466    0.0055 N   0  0  0  0  0  0  0  0  0  0  0  0
    2.6954    0.9241   -0.0421 C   0  0  0  0  0  0  0  0  0  0  0  0
    3.4465    2.0313   -0.1783 C   0  0  0  0  0  0  0  0  0  0  0  0
    2.9837    3.4509   -0.2780 C   0  0  0  0  0  0  0  0  0  0  0  0
    4.8288    1.7504   -0.1538 N   0  0  0  0  0  0  0  0  0  0  0  0
    5.6735    2.4743    0.8148 C   0  0  0  0  0  0  0  0  0  0  0  0
    4.9451    0.3357   -0.0545 N   0  0  0  0  0  0  0  0  0  0  0  0
    6.0850   -0.3455   -0.5598 C   0  0  0  0  0  0  0  0  0  0  0  0
    6.2376   -1.7276   -0.3827 C   0  0  0  0  0  0  0  0  0  0  0  0
    7.3580   -2.3988   -0.8862 C   0  0  0  0  0  0  0  0  0  0  0  0
    8.3408   -1.6975   -1.5809 C   0  0  0  0  0  0  0  0  0  0  0  0
    8.2048   -0.3263   -1.7722 C   0  0  0  0  0  0  0  0  0  0  0  0
    7.0872    0.3429   -1.2624 C   0  0  0  0  0  0  0  0  0  0  0  0
    3.6683   -0.2151    0.0684 C   0  0  0  0  0  0  0  0  0  0  0  0
    3.3061   -1.3768    0.1868 O   0  0  0  0  0  0  0  0  0  0  0  0
   -1.2489   -0.6134    0.0849 C   0  0  0  0  0  0  0  0  0  0  0  0
   -0.3353   -1.6119    0.1979 N   0  0  0  0  0  0  0  0  0  0  0  0
   -0.8572   -2.8397    0.3239 C   0  0  0  0  0  0  0  0  0  0  0  0
    0.0134   -3.9164    0.4195 C   0  0  0  0  0  0  0  0  0  0  0  0
   -0.4576   -5.2235    0.5460 C   0  0  0  0  0  0  0  0  0  0  0  0
   -1.8252   -5.4561    0.5850 C   0  0  0  0  0  0  0  0  0  0  0  0
   -2.7092   -4.3802    0.4935 C   0  0  0  0  0  0  0  0  0  0  0  0
   -2.2550   -3.0749    0.3558 C   0  0  0  0  0  0  0  0  0  0  0  0
   -3.1601   -2.0885    0.2549 N   0  0  0  0  0  0  0  0  0  0  0  0
   -2.6138   -0.8574    0.0996 C   0  0  0  0  0  0  0  0  0  0  0  0
   -5.5683   -0.4335   -0.3819 C   0  0  0  0  0  0  0  0  0  0  0  0
   -6.9521   -0.2265   -0.3325 C   0  0  0  0  0  0  0  0  0  0  0  0
   -9.0974    3.0979   -0.1235 H   0  0  0  0  0  0  0  0  0  0  0  0
  -10.5124    2.1898    0.4270 H   0  0  0  0  0  0  0  0  0  0  0  0
   -9.2089    2.5024    1.5808 H   0  0  0  0  0  0  0  0  0  0  0  0
   -6.9727    2.9061    0.9920 H   0  0  0  0  0  0  0  0  0  0  0  0
   -4.5852    2.5460    0.9467 H   0  0  0  0  0  0  0  0  0  0  0  0
   -1.7622    3.2562   -0.7002 H   0  0  0  0  0  0  0  0  0  0  0  0
   -3.3722    2.8846   -1.0225 H   0  0  0  0  0  0  0  0  0  0  0  0
    1.1563   -0.3499    0.1375 H   0  0  0  0  0  0  0  0  0  0  0  0
    2.3040    3.6972    0.5446 H   0  0  0  0  0  0  0  0  0  0  0  0
    2.4953    3.6339   -1.2416 H   0  0  0  0  0  0  0  0  0  0  0  0
    3.8145    4.1613   -0.2131 H   0  0  0  0  0  0  0  0  0  0  0  0
    5.8642    3.4903    0.4568 H   0  0  0  0  0  0  0  0  0  0  0  0
    6.6488    1.9972    0.9526 H   0  0  0  0  0  0  0  0  0  0  0  0
    5.1868    2.5307    1.7947 H   0  0  0  0  0  0  0  0  0  0  0  0
    5.4980   -2.3083    0.1624 H   0  0  0  0  0  0  0  0  0  0  0  0
    7.4574   -3.4720   -0.7381 H   0  0  0  0  0  0  0  0  0  0  0  0
    9.2061   -2.2220   -1.9774 H   0  0  0  0  0  0  0  0  0  0  0  0
    8.9604    0.2242   -2.3264 H   0  0  0  0  0  0  0  0  0  0  0  0
    6.9961    1.4070   -1.4595 H   0  0  0  0  0  0  0  0  0  0  0  0
    1.0857   -3.7322    0.3900 H   0  0  0  0  0  0  0  0  0  0  0  0
    0.2447   -6.0505    0.6116 H   0  0  0  0  0  0  0  0  0  0  0  0
   -2.2076   -6.4686    0.6866 H   0  0  0  0  0  0  0  0  0  0  0  0
   -3.7805   -4.5648    0.5243 H   0  0  0  0  0  0  0  0  0  0  0  0
   -5.2121   -1.3784   -0.7844 H   0  0  0  0  0  0  0  0  0  0  0  0
   -7.6223   -1.0108   -0.6741 H   0  0  0  0  0  0  0  0  0  0  0  0
  1  2  1  0
  2  3  1  0
  3  4  2  0
  4  5  1  0
  5  6  2  0
  6  7  1  0
  7  8  1  0
  8  9  1  0
  8 10  2  0
 10 11  1  0
 11 12  2  0
 11 13  1  0
 13 14  1  0
 14 15  2  0
 15 16  1  0
 15 17  1  0
 17 18  1  0
 17 19  1  0
 19 20  1  0
 20 21  2  0
 21 22  1  0
 22 23  2  0
 23 24  1  0
 24 25  2  0
 19 26  1  0
 26 27  2  0
 10 28  1  0
 28 29  2  0
 29 30  1  0
 30 31  2  0
 31 32  1  0
 32 33  2  0
 33 34  1  0
 34 35  2  0
 35 36  1  0
 36 37  2  0
  6 38  1  0
 38 39  2  0
 39  3  1  0
 37  7  1  0
 26 14  1  0
 37 28  1  0
 25 20  1  0
 35 30  1  0
  1 40  1  0
  1 41  1  0
  1 42  1  0
  4 43  1  0
  5 44  1  0
  9 45  1  0
  9 46  1  0
 13 47  1  0
 16 48  1  0
 16 49  1  0
 16 50  1  0
 18 51  1  0
 18 52  1  0
 18 53  1  0
 21 54  1  0
 22 55  1  0
 23 56  1  0
 24 57  1  0
 25 58  1  0
 31 59  1  0
 32 60  1  0
 33 61  1  0
 34 62  1  0
 38 63  1  0
 39 64  1  0
M  END
$$$$
