
     RDKit          3D

 53 58  0  0  0  0  0  0  0  0999 V2000
    0.8096   -2.2656   -0.2092 O   0  0  0  0  0  0  0  0  0  0  0  0
    1.4341   -1.2846    0.2067 C   0  0  0  0  0  0  0  0  0  0  0  0
    0.8647   -0.5260    1.4263 C   0  0  0  0  0  0  0  0  0  0  0  0
   -0.5877   -0.3260    1.2591 N   0  0  0  0  0  4  0  0  0  0  0  0
   -1.2224    0.8381    0.8290 C   0  0  0  0  0  0  0  0  0  0  0  0
   -2.5836    0.5894    0.6989 C   0  0  0  0  0  0  0  0  0  0  0  0
   -3.6712    1.6068    0.1957 C   0  0  0  0  0  0  0  0  0  0  0  0
   -3.3095    2.9364   -0.0665 C   0  0  0  0  0  0  0  0  0  0  0  0
   -4.2654    3.8470   -0.5236 C   0  0  0  0  0  0  0  0  0  0  0  0
   -5.5732    3.4269   -0.7231 C   0  0  0  0  0  0  0  0  0  0  0  0
   -6.4859    4.2980   -1.1668 F   0  0  0  0  0  0  0  0  0  0  0  0
   -5.9438    2.1127   -0.4714 C   0  0  0  0  0  0  0  0  0  0  0  0
   -4.9922    1.1989   -0.0090 C   0  0  0  0  0  0  0  0  0  0  0  0
   -2.7044   -0.7288    1.0992 N   0  0  0  0  0  0  0  0  0  0  0  0
   -1.5203   -1.2645    1.3878 C   0  0  0  0  0  0  0  0  0  0  0  0
   -1.6079   -2.6876    1.7919 C   0  0  0  0  0  0  0  0  0  0  0  0
   -3.1184   -2.8479    2.0581 C   0  0  0  0  0  0  0  0  0  0  0  0
   -3.7858   -1.6899    1.2660 C   0  0  0  0  0  0  0  0  0  0  0  0
    2.5487   -0.6837   -0.4034 N   0  0  0  0  0  0  0  0  0  0  0  0
    3.5807   -0.0557    0.3799 C   0  0  0  0  0  0  0  0  0  0  0  0
    3.9122   -0.5943    1.6406 C   0  0  0  0  0  0  0  0  0  0  0  0
    4.9011   -0.0171    2.4399 C   0  0  0  0  0  0  0  0  0  0  0  0
    5.5857    1.1047    1.9913 C   0  0  0  0  0  0  0  0  0  0  0  0
    5.2938    1.6339    0.7367 C   0  0  0  0  0  0  0  0  0  0  0  0
    4.3095    1.0506   -0.0758 C   0  0  0  0  0  0  0  0  0  0  0  0
    3.9868    1.7921   -1.6488 S   0  0  0  0  0  0  0  0  0  0  0  0
    3.3827    0.3573   -2.5061 C   0  0  0  0  0  0  0  0  0  0  0  0
    3.5160    0.3521   -3.9046 C   0  0  0  0  0  0  0  0  0  0  0  0
    3.0007   -0.6945   -4.6619 C   0  0  0  0  0  0  0  0  0  0  0  0
    2.3456   -1.7374   -4.0244 C   0  0  0  0  0  0  0  0  0  0  0  0
    2.2061   -1.7326   -2.6314 C   0  0  0  0  0  0  0  0  0  0  0  0
    2.7210   -0.6923   -1.8382 C   0  0  0  0  0  0  0  0  0  0  0  0
    1.3123    0.4659    1.5464 H   0  0  0  0  0  0  0  0  0  0  0  0
    1.0344   -1.1124    2.3354 H   0  0  0  0  0  0  0  0  0  0  0  0
   -0.6098    1.7042    0.6420 H   0  0  0  0  0  0  0  0  0  0  0  0
   -2.2969    3.2998    0.0807 H   0  0  0  0  0  0  0  0  0  0  0  0
   -3.9991    4.8809   -0.7278 H   0  0  0  0  0  0  0  0  0  0  0  0
   -6.9714    1.8091   -0.6444 H   0  0  0  0  0  0  0  0  0  0  0  0
   -5.3127    0.1812    0.1598 H   0  0  0  0  0  0  0  0  0  0  0  0
   -0.9898   -2.8478    2.6756 H   0  0  0  0  0  0  0  0  0  0  0  0
   -1.2764   -3.2849    0.9410 H   0  0  0  0  0  0  0  0  0  0  0  0
   -3.3101   -2.7021    3.1282 H   0  0  0  0  0  0  0  0  0  0  0  0
   -3.5010   -3.8323    1.7775 H   0  0  0  0  0  0  0  0  0  0  0  0
   -4.6153   -1.2545    1.8279 H   0  0  0  0  0  0  0  0  0  0  0  0
   -4.1143   -2.0262    0.2783 H   0  0  0  0  0  0  0  0  0  0  0  0
    3.4552   -1.5115    2.0023 H   0  0  0  0  0  0  0  0  0  0  0  0
    5.1560   -0.4556    3.4032 H   0  0  0  0  0  0  0  0  0  0  0  0
    6.3621    1.5568    2.6055 H   0  0  0  0  0  0  0  0  0  0  0  0
    5.8491    2.5046    0.3907 H   0  0  0  0  0  0  0  0  0  0  0  0
    4.0164    1.1722   -4.4164 H   0  0  0  0  0  0  0  0  0  0  0  0
    3.1113   -0.6949   -5.7440 H   0  0  0  0  0  0  0  0  0  0  0  0
    1.9479   -2.5673   -4.6095 H   0  0  0  0  0  0  0  0  0  0  0  0
    1.7248   -2.6015   -2.1954 H   0  0  0  0  0  0  0  0  0  0  0  0
  1  2  2  0
  2  3  1  0
  3  4  1  0
  4  5  1  0
  5  6  2  0
  6  7  1  0
  7  8  2  0
  8  9  1  0
  9 10  2  0
 10 11  1  0
 10 12  1  0
 12 13  2  0
  6 14  1  0
 14 15  1  0
 15 16  1  0
 16 17  1  0
 17 18  1  0
  2 19  1  0
 19 20  1  0
 20 21  2  0
 21 22  1  0
 22 23  2  0
 23 24  1  0
 24 25  2  0
 25 26  1  0
 26 27  1  0
 27 28  2  0
 28 29  1  0
 29 30  2  0
 30 31  1  0
 31 32  2  0
 15  4  2  0
 32 19  1  0
 13  7  1  0
 18 14  1  0
 25 20  1  0
 32 27  1  0
  3 33  1  0
  3 34  1  0
  5 35  1  0
  8 36  1  0
  9 37  1  0
 12 38  1  0
 13 39  1  0
 16 40  1  0
 16 41  1  0
 17 42  1  0
 17 43  1  0
 18 44  1  0
 18 45  1  0
 21 46  1  0
 22 47  1  0
 23 48  1  0
 24 49  1  0
 28 50  1  0
 29 51  1  0
 30 52  1  0
 31 53  1  0
M  CHG  1   4   1
M  END
$$$$
