
     RDKit          3D

 31 32  0  0  0  0  0  0  0  0999 V2000
   -4.2792    0.7986    0.3967 C   0  0  0  0  0  0  0  0  0  0  0  0
   -2.9161    1.3796    0.1256 C   0  0  0  0  0  0  0  0  0  0  0  0
   -2.8152    2.5957   -0.0525 O   0  0  0  0  0  0  0  0  0  0  0  0
   -1.7336    0.4991    0.0758 C   0  0  0  0  0  0  0  0  0  0  0  0
   -1.6983   -0.8927    0.0401 C   0  0  0  0  0  0  0  0  0  0  0  0
   -2.7601   -1.9348    0.0231 C   0  0  0  0  0  0  0  0  0  0  0  0
   -0.3796   -1.2749   -0.0049 N   0  0  0  0  0  0  0  0  0  0  0  0
    0.4511   -0.1847   -0.0182 C   0  0  0  0  0  0  0  0  0  0  0  0
    1.9016   -0.3351   -0.1071 C   0  0  0  0  0  0  0  0  0  0  0  0
    2.6123    0.2641   -1.1536 C   0  0  0  0  0  0  0  0  0  0  0  0
    3.9971    0.1101   -1.2485 C   0  0  0  0  0  0  0  0  0  0  0  0
    4.6816   -0.6444   -0.2973 C   0  0  0  0  0  0  0  0  0  0  0  0
    3.9832   -1.2443    0.7494 C   0  0  0  0  0  0  0  0  0  0  0  0
    2.5980   -1.0914    0.8439 C   0  0  0  0  0  0  0  0  0  0  0  0
   -0.3561    0.9421    0.0427 C   0  0  0  0  0  0  0  0  0  0  0  0
    0.1043    2.3629    0.0808 C   0  0  0  0  0  0  0  0  0  0  0  0
   -4.6111    0.2001   -0.4541 H   0  0  0  0  0  0  0  0  0  0  0  0
   -4.2645    0.2061    1.3143 H   0  0  0  0  0  0  0  0  0  0  0  0
   -4.9972    1.6127    0.5395 H   0  0  0  0  0  0  0  0  0  0  0  0
   -3.4397   -1.7798   -0.8199 H   0  0  0  0  0  0  0  0  0  0  0  0
   -2.3359   -2.9395   -0.0819 H   0  0  0  0  0  0  0  0  0  0  0  0
   -3.3338   -1.9183    0.9541 H   0  0  0  0  0  0  0  0  0  0  0  0
   -0.0528   -2.2305   -0.0597 H   0  0  0  0  0  0  0  0  0  0  0  0
    2.0881    0.8508   -1.9047 H   0  0  0  0  0  0  0  0  0  0  0  0
    4.5395    0.5801   -2.0646 H   0  0  0  0  0  0  0  0  0  0  0  0
    5.7598   -0.7612   -0.3697 H   0  0  0  0  0  0  0  0  0  0  0  0
    4.5174   -1.8261    1.4959 H   0  0  0  0  0  0  0  0  0  0  0  0
    2.0694   -1.5511    1.6753 H   0  0  0  0  0  0  0  0  0  0  0  0
    1.1832    2.4393    0.2450 H   0  0  0  0  0  0  0  0  0  0  0  0
   -0.1311    2.8631   -0.8639 H   0  0  0  0  0  0  0  0  0  0  0  0
   -0.3822    2.9041    0.8986 H   0  0  0  0  0  0  0  0  0  0  0  0
  1  2  1  0
  2  3  2  0
  2  4  1  0
  4  5  2  0
  5  6  1  0
  5  7  1  0
  7  8  1  0
  8  9  1  0
  9 10  2  0
 10 11  1  0
 11 12  2  0
 12 13  1  0
 13 14  2  0
  8 15  2  0
 15 16  1  0
 15  4  1  0
 14  9  1  0
  1 17  1  0
  1 18  1  0
  1 19  1  0
  6 20  1  0
  6 21  1  0
  6 22  1  0
  7 23  1  0
 10 24  1  0
 11 25  1  0
 12 26  1  0
 13 27  1  0
 14 28  1  0
 16 29  1  0
 16 30  1  0
 16 31  1  0
M  END
$$$$
