
     RDKit          3D

 54 57  0  0  0  0  0  0  0  0999 V2000
    3.9318    1.4532    4.9300 C   0  0  0  0  0  0  0  0  0  0  0  0
    3.1259    0.6158    3.9495 C   0  0  0  0  0  0  0  0  0  0  0  0
    3.7800    0.5393    2.5778 C   0  0  0  0  0  0  0  0  0  0  0  0
    4.8965    1.0131    2.3675 O   0  0  0  0  0  0  0  0  0  0  0  0
    3.0529   -0.0957    1.5812 N   0  0  0  0  0  0  0  0  0  0  0  0
    3.5998   -0.1491    0.2200 C   0  0  0  0  0  0  0  0  0  0  0  0
    2.5075   -0.0281   -0.8576 C   0  0  0  0  0  0  0  0  0  0  0  0
    1.3938   -0.9975   -0.6747 N   0  0  0  0  0  0  0  0  0  0  0  0
    1.2417   -1.9317   -1.7336 C   0  0  0  0  0  0  0  0  0  0  0  0
    2.2962   -2.7385   -2.1834 C   0  0  0  0  0  0  0  0  0  0  0  0
    2.0869   -3.6684   -3.2034 C   0  0  0  0  0  0  0  0  0  0  0  0
    0.8225   -3.8001   -3.7751 C   0  0  0  0  0  0  0  0  0  0  0  0
    0.5797   -4.9532   -5.0310 Cl  0  0  0  0  0  0  0  0  0  0  0  0
   -0.2428   -3.0106   -3.3449 C   0  0  0  0  0  0  0  0  0  0  0  0
   -0.0386   -2.0780   -2.3282 C   0  0  0  0  0  0  0  0  0  0  0  0
   -1.0379   -1.2121   -1.8357 N   0  0  0  0  0  0  0  0  0  0  0  0
   -2.3771   -1.1832   -2.1530 C   0  0  0  0  0  0  0  0  0  0  0  0
   -2.9690   -1.9704   -2.8816 O   0  0  0  0  0  0  0  0  0  0  0  0
   -3.1591   -0.0999   -1.4904 C   0  0  0  0  0  0  0  0  0  0  0  0
   -4.5075   -0.3406   -1.1885 C   0  0  0  0  0  0  0  0  0  0  0  0
   -5.2798    0.6486   -0.5750 C   0  0  0  0  0  0  0  0  0  0  0  0
   -4.7098    1.8828   -0.2718 C   0  0  0  0  0  0  0  0  0  0  0  0
   -3.3618    2.1232   -0.5600 C   0  0  0  0  0  0  0  0  0  0  0  0
   -2.5903    1.1445   -1.1865 C   0  0  0  0  0  0  0  0  0  0  0  0
   -2.7308    3.3061   -0.2681 O   0  0  0  0  0  0  0  0  0  0  0  0
   -3.4987    4.0994    0.6453 C   0  0  0  0  0  0  0  0  0  0  0  0
   -4.9627    4.1265    0.2385 C   0  0  0  0  0  0  0  0  0  0  0  0
   -5.5307    2.8144    0.3094 O   0  0  0  0  0  0  0  0  0  0  0  0
    1.3640   -1.6855    0.6408 C   0  0  0  0  0  0  0  0  0  0  0  0
    1.7345   -0.7144    1.7753 C   0  0  0  0  0  0  0  0  0  0  0  0
    4.9239    1.0198    5.0950 H   0  0  0  0  0  0  0  0  0  0  0  0
    3.4185    1.5077    5.8947 H   0  0  0  0  0  0  0  0  0  0  0  0
    4.0684    2.4736    4.5566 H   0  0  0  0  0  0  0  0  0  0  0  0
    2.1281    1.0556    3.8447 H   0  0  0  0  0  0  0  0  0  0  0  0
    3.0291   -0.3997    4.3490 H   0  0  0  0  0  0  0  0  0  0  0  0
    4.1194   -1.1103    0.1271 H   0  0  0  0  0  0  0  0  0  0  0  0
    4.3442    0.6414    0.0745 H   0  0  0  0  0  0  0  0  0  0  0  0
    2.9586   -0.0921   -1.8554 H   0  0  0  0  0  0  0  0  0  0  0  0
    2.0626    0.9730   -0.7874 H   0  0  0  0  0  0  0  0  0  0  0  0
    3.2835   -2.6609   -1.7388 H   0  0  0  0  0  0  0  0  0  0  0  0
    2.9108   -4.2897   -3.5444 H   0  0  0  0  0  0  0  0  0  0  0  0
   -1.2124   -3.1301   -3.8159 H   0  0  0  0  0  0  0  0  0  0  0  0
   -0.6751   -0.5869   -1.1216 H   0  0  0  0  0  0  0  0  0  0  0  0
   -4.9594   -1.3002   -1.4350 H   0  0  0  0  0  0  0  0  0  0  0  0
   -6.3260    0.4609   -0.3502 H   0  0  0  0  0  0  0  0  0  0  0  0
   -1.5608    1.3750   -1.4450 H   0  0  0  0  0  0  0  0  0  0  0  0
   -3.3702    3.6891    1.6547 H   0  0  0  0  0  0  0  0  0  0  0  0
   -3.0840    5.1123    0.6332 H   0  0  0  0  0  0  0  0  0  0  0  0
   -5.0880    4.5086   -0.7819 H   0  0  0  0  0  0  0  0  0  0  0  0
   -5.5316    4.7711    0.9158 H   0  0  0  0  0  0  0  0  0  0  0  0
    2.0666   -2.5299    0.6560 H   0  0  0  0  0  0  0  0  0  0  0  0
    0.3583   -2.0829    0.8254 H   0  0  0  0  0  0  0  0  0  0  0  0
    1.7142   -1.2436    2.7324 H   0  0  0  0  0  0  0  0  0  0  0  0
    1.0041    0.1021    1.8239 H   0  0  0  0  0  0  0  0  0  0  0  0
  1  2  1  0
  2  3  1  0
  3  4  2  0
  3  5  1  0
  5  6  1  0
  6  7  1  0
  7  8  1  0
  8  9  1  0
  9 10  2  0
 10 11  1  0
 11 12  2  0
 12 13  1  0
 12 14  1  0
 14 15  2  0
 15 16  1  0
 16 17  1  0
 17 18  2  0
 17 19  1  0
 19 20  2  0
 20 21  1  0
 21 22  2  0
 22 23  1  0
 23 24  2  0
 23 25  1  0
 25 26  1  0
 26 27  1  0
 27 28  1  0
  8 29  1  0
 29 30  1  0
 30  5  1  0
 15  9  1  0
 24 19  1  0
 28 22  1  0
  1 31  1  0
  1 32  1  0
  1 33  1  0
  2 34  1  0
  2 35  1  0
  6 36  1  0
  6 37  1  0
  7 38  1  0
  7 39  1  0
 10 40  1  0
 11 41  1  0
 14 42  1  0
 16 43  1  0
 20 44  1  0
 21 45  1  0
 24 46  1  0
 26 47  1  0
 26 48  1  0
 27 49  1  0
 27 50  1  0
 29 51  1  0
 29 52  1  0
 30 53  1  0
 30 54  1  0
M  END
$$$$
