
     RDKit          3D

 56 61  0  0  0  0  0  0  0  0999 V2000
    5.2652   -0.3086   -1.5070 C   0  0  0  0  0  0  0  0  0  0  0  0
    4.0615   -1.1009   -1.0888 C   0  0  0  0  0  0  0  0  0  0  0  0
    3.8464   -2.3830   -1.5961 C   0  0  0  0  0  0  0  0  0  0  0  0
    2.7531   -3.1276   -1.1622 C   0  0  0  0  0  0  0  0  0  0  0  0
    1.8747   -2.6027   -0.2123 C   0  0  0  0  0  0  0  0  0  0  0  0
    2.0456   -1.3077    0.2963 C   0  0  0  0  0  0  0  0  0  0  0  0
    3.1698   -0.5829   -0.1362 C   0  0  0  0  0  0  0  0  0  0  0  0
    1.0663   -0.7367    1.3127 C   0  0  0  0  0  0  0  0  0  0  0  0
   -0.1757   -1.6274    1.4545 C   0  0  0  0  0  0  0  0  0  0  0  0
    0.2156   -3.0904    1.3712 C   0  0  0  0  0  0  0  0  0  0  0  0
    0.8379   -3.4263    0.1348 O   0  0  0  0  0  0  0  0  0  0  0  0
   -1.0670   -1.1114    0.2992 C   0  0  0  0  0  0  0  0  0  0  0  0
   -2.4644   -1.6886    0.1591 C   0  0  0  0  0  0  0  0  0  0  0  0
   -3.2009   -2.1890    1.2417 C   0  0  0  0  0  0  0  0  0  0  0  0
   -4.4767   -2.7297    1.0575 C   0  0  0  0  0  0  0  0  0  0  0  0
   -5.0360   -2.7885   -0.2150 C   0  0  0  0  0  0  0  0  0  0  0  0
   -4.3190   -2.3075   -1.3052 C   0  0  0  0  0  0  0  0  0  0  0  0
   -3.0455   -1.7649   -1.1195 C   0  0  0  0  0  0  0  0  0  0  0  0
   -0.8799    0.4470    0.4140 C   0  0  0  0  0  0  0  0  0  0  0  0
   -1.0734    1.0681   -0.9801 C   0  0  0  0  0  0  0  0  0  0  0  0
   -1.8028    1.0996    1.4829 C   0  0  0  0  0  0  0  0  0  0  0  0
   -2.6146    0.4828    2.1720 O   0  0  0  0  0  0  0  0  0  0  0  0
   -1.7558    2.4544    1.6711 N   0  0  0  0  0  0  0  0  0  0  0  0
   -0.7837    3.3764    1.2674 C   0  0  0  0  0  0  0  0  0  0  0  0
   -1.2000    4.7141    1.1884 C   0  0  0  0  0  0  0  0  0  0  0  0
   -0.3098    5.7030    0.7800 C   0  0  0  0  0  0  0  0  0  0  0  0
   -0.7356    6.9696    0.6872 F   0  0  0  0  0  0  0  0  0  0  0  0
    1.0029    5.3818    0.4726 C   0  0  0  0  0  0  0  0  0  0  0  0
    1.8594    6.3360    0.0859 F   0  0  0  0  0  0  0  0  0  0  0  0
    1.4448    4.0709    0.5860 C   0  0  0  0  0  0  0  0  0  0  0  0
    0.5546    3.0574    0.9868 C   0  0  0  0  0  0  0  0  0  0  0  0
    1.1620    1.7379    1.2633 C   0  0  0  0  0  0  0  0  0  0  0  0
    2.2603    1.7478    1.8174 O   0  0  0  0  0  0  0  0  0  0  0  0
    0.5027    0.5720    0.9332 N   0  0  0  0  0  0  0  0  0  0  0  0
    5.5694   -0.5679   -2.5267 H   0  0  0  0  0  0  0  0  0  0  0  0
    5.0483    0.7649   -1.4966 H   0  0  0  0  0  0  0  0  0  0  0  0
    6.0995   -0.5087   -0.8277 H   0  0  0  0  0  0  0  0  0  0  0  0
    4.5304   -2.8126   -2.3237 H   0  0  0  0  0  0  0  0  0  0  0  0
    2.5888   -4.1277   -1.5550 H   0  0  0  0  0  0  0  0  0  0  0  0
    3.3735    0.4029    0.2722 H   0  0  0  0  0  0  0  0  0  0  0  0
    1.5858   -0.6549    2.2759 H   0  0  0  0  0  0  0  0  0  0  0  0
   -0.6526   -1.4306    2.4230 H   0  0  0  0  0  0  0  0  0  0  0  0
   -0.6683   -3.7288    1.4697 H   0  0  0  0  0  0  0  0  0  0  0  0
    0.8902   -3.3629    2.1934 H   0  0  0  0  0  0  0  0  0  0  0  0
   -0.5665   -1.4190   -0.6318 H   0  0  0  0  0  0  0  0  0  0  0  0
   -2.8085   -2.1452    2.2547 H   0  0  0  0  0  0  0  0  0  0  0  0
   -5.0344   -3.0999    1.9141 H   0  0  0  0  0  0  0  0  0  0  0  0
   -6.0274   -3.2102   -0.3558 H   0  0  0  0  0  0  0  0  0  0  0  0
   -4.7472   -2.3594   -2.3028 H   0  0  0  0  0  0  0  0  0  0  0  0
   -2.5012   -1.4151   -1.9948 H   0  0  0  0  0  0  0  0  0  0  0  0
   -0.8082    2.1242   -1.0411 H   0  0  0  0  0  0  0  0  0  0  0  0
   -0.4528    0.5603   -1.7274 H   0  0  0  0  0  0  0  0  0  0  0  0
   -2.1194    0.9969   -1.2962 H   0  0  0  0  0  0  0  0  0  0  0  0
   -2.5509    2.7958    2.2018 H   0  0  0  0  0  0  0  0  0  0  0  0
   -2.2221    5.0047    1.4157 H   0  0  0  0  0  0  0  0  0  0  0  0
    2.4914    3.8479    0.3912 H   0  0  0  0  0  0  0  0  0  0  0  0
  1  2  1  0
  2  3  2  0
  3  4  1  0
  4  5  2  0
  5  6  1  0
  6  7  2  0
  6  8  1  0
  8  9  1  0
  9 10  1  0
 10 11  1  0
  9 12  1  0
 12 13  1  0
 13 14  2  0
 14 15  1  0
 15 16  2  0
 16 17  1  0
 17 18  2  0
 12 19  1  0
 19 20  1  0
 19 21  1  0
 21 22  2  0
 21 23  1  0
 23 24  1  0
 24 25  2  0
 25 26  1  0
 26 27  1  0
 26 28  2  0
 28 29  1  0
 28 30  1  0
 30 31  2  0
 31 32  1  0
 32 33  2  0
 32 34  1  0
  7  2  1  0
 34  8  1  0
 11  5  1  0
 18 13  1  0
 34 19  1  0
 31 24  1  0
  1 35  1  0
  1 36  1  0
  1 37  1  0
  3 38  1  0
  4 39  1  0
  7 40  1  0
  8 41  1  0
  9 42  1  0
 10 43  1  0
 10 44  1  0
 12 45  1  0
 14 46  1  0
 15 47  1  0
 16 48  1  0
 17 49  1  0
 18 50  1  0
 20 51  1  0
 20 52  1  0
 20 53  1  0
 23 54  1  0
 25 55  1  0
 30 56  1  0
M  END
$$$$
