
     RDKit          3D

 37 39  0  0  0  0  0  0  0  0999 V2000
    5.5307    0.2413    1.3599 O   0  0  0  0  0  0  0  0  0  0  0  0
    5.0010    1.3621    0.6581 C   0  0  0  0  0  0  0  0  0  0  0  0
    3.6289    1.7238    1.2236 C   0  0  0  0  0  0  0  0  0  0  0  0
    2.6602    0.6373    0.9211 N   0  0  0  0  0  4  0  0  0  0  0  0
    2.6125   -0.4554    1.7196 C   0  0  0  0  0  0  0  0  0  0  0  0
    1.7113   -1.4827    1.4657 C   0  0  0  0  0  0  0  0  0  0  0  0
    0.8410   -1.3805    0.3847 C   0  0  0  0  0  0  0  0  0  0  0  0
   -0.1013   -2.4687    0.1043 C   0  0  0  0  0  0  0  0  0  0  0  0
   -1.4237   -2.3392   -0.0998 C   0  0  0  0  0  0  0  0  0  0  0  0
   -2.1934   -1.1419   -0.0318 C   0  0  0  0  0  0  0  0  0  0  0  0
   -2.3717   -0.3803    1.1018 C   0  0  0  0  0  0  0  0  0  0  0  0
   -3.2094    0.6557    0.7782 N   0  0  0  0  0  0  0  0  0  0  0  0
   -3.5509    0.5947   -0.5546 C   0  0  0  0  0  0  0  0  0  0  0  0
   -4.3650    1.4422   -1.3153 C   0  0  0  0  0  0  0  0  0  0  0  0
   -4.5562    1.1196   -2.6620 C   0  0  0  0  0  0  0  0  0  0  0  0
   -3.9596   -0.0071   -3.2227 C   0  0  0  0  0  0  0  0  0  0  0  0
   -3.1500   -0.8458   -2.4483 C   0  0  0  0  0  0  0  0  0  0  0  0
   -2.9384   -0.5415   -1.0875 C   0  0  0  0  0  0  0  0  0  0  0  0
    0.9208   -0.2566   -0.4361 C   0  0  0  0  0  0  0  0  0  0  0  0
    1.8345    0.7466   -0.1436 C   0  0  0  0  0  0  0  0  0  0  0  0
    6.4422    0.0936    1.0373 H   0  0  0  0  0  0  0  0  0  0  0  0
    4.9378    1.1083   -0.4044 H   0  0  0  0  0  0  0  0  0  0  0  0
    5.6895    2.2027    0.7870 H   0  0  0  0  0  0  0  0  0  0  0  0
    3.6544    1.8350    2.3134 H   0  0  0  0  0  0  0  0  0  0  0  0
    3.2495    2.6520    0.7845 H   0  0  0  0  0  0  0  0  0  0  0  0
    3.3073   -0.4995    2.5542 H   0  0  0  0  0  0  0  0  0  0  0  0
    1.6887   -2.3523    2.1194 H   0  0  0  0  0  0  0  0  0  0  0  0
    0.3349   -3.4648    0.0454 H   0  0  0  0  0  0  0  0  0  0  0  0
   -1.9835   -3.2394   -0.3532 H   0  0  0  0  0  0  0  0  0  0  0  0
   -2.0096   -0.5004    2.1139 H   0  0  0  0  0  0  0  0  0  0  0  0
   -3.5513    1.3561    1.4223 H   0  0  0  0  0  0  0  0  0  0  0  0
   -4.8442    2.3142   -0.8815 H   0  0  0  0  0  0  0  0  0  0  0  0
   -5.1901    1.7536   -3.2789 H   0  0  0  0  0  0  0  0  0  0  0  0
   -4.1313   -0.2431   -4.2706 H   0  0  0  0  0  0  0  0  0  0  0  0
   -2.6967   -1.7256   -2.8955 H   0  0  0  0  0  0  0  0  0  0  0  0
    0.2689   -0.1523   -1.3019 H   0  0  0  0  0  0  0  0  0  0  0  0
    1.9122    1.6380   -0.7591 H   0  0  0  0  0  0  0  0  0  0  0  0
  1  2  1  0
  2  3  1  0
  3  4  1  0
  4  5  2  0
  5  6  1  0
  6  7  2  0
  7  8  1  0
  8  9  2  3
  9 10  1  0
 10 11  2  0
 11 12  1  0
 12 13  1  0
 13 14  2  0
 14 15  1  0
 15 16  2  0
 16 17  1  0
 17 18  2  0
  7 19  1  0
 19 20  2  0
 20  4  1  0
 18 10  1  0
 18 13  1  0
  1 21  1  0
  2 22  1  0
  2 23  1  0
  3 24  1  0
  3 25  1  0
  5 26  1  0
  6 27  1  0
  8 28  1  0
  9 29  1  0
 11 30  1  0
 12 31  1  0
 14 32  1  0
 15 33  1  0
 16 34  1  0
 17 35  1  0
 19 36  1  0
 20 37  1  0
M  CHG  1   4   1
M  END
$$$$
