
     RDKit          3D

 36 38  0  0  0  0  0  0  0  0999 V2000
    6.0581   -0.3203   -0.3456 C   0  0  0  0  0  0  0  0  0  0  0  0
    5.4244    0.7742    0.4894 C   0  0  0  0  0  0  0  0  0  0  0  0
    3.9498    0.6320    0.4485 N   0  0  0  0  0  4  0  0  0  0  0  0
    3.2408    1.2696   -0.5109 C   0  0  0  0  0  0  0  0  0  0  0  0
    1.8564    1.1541   -0.5644 C   0  0  0  0  0  0  0  0  0  0  0  0
    1.1905    0.3642    0.3709 C   0  0  0  0  0  0  0  0  0  0  0  0
   -0.2727    0.2751    0.3162 C   0  0  0  0  0  0  0  0  0  0  0  0
   -0.9694   -0.8503    0.5466 C   0  0  0  0  0  0  0  0  0  0  0  0
   -2.3932   -0.9605    0.5085 C   0  0  0  0  0  0  0  0  0  0  0  0
   -3.0891   -1.8161    1.3353 C   0  0  0  0  0  0  0  0  0  0  0  0
   -4.4241   -1.6724    1.0647 N   0  0  0  0  0  0  0  0  0  0  0  0
   -4.6092   -0.7576    0.0538 C   0  0  0  0  0  0  0  0  0  0  0  0
   -5.7952   -0.3170   -0.5469 C   0  0  0  0  0  0  0  0  0  0  0  0
   -5.6927    0.6156   -1.5815 C   0  0  0  0  0  0  0  0  0  0  0  0
   -4.4515    1.0828   -2.0019 C   0  0  0  0  0  0  0  0  0  0  0  0
   -3.2752    0.6331   -1.3894 C   0  0  0  0  0  0  0  0  0  0  0  0
   -3.3458   -0.2979   -0.3292 C   0  0  0  0  0  0  0  0  0  0  0  0
    1.9402   -0.2703    1.3599 C   0  0  0  0  0  0  0  0  0  0  0  0
    3.3228   -0.1254    1.3776 C   0  0  0  0  0  0  0  0  0  0  0  0
    7.1483   -0.2304   -0.3267 H   0  0  0  0  0  0  0  0  0  0  0  0
    5.7273   -0.2625   -1.3876 H   0  0  0  0  0  0  0  0  0  0  0  0
    5.7892   -1.3112    0.0340 H   0  0  0  0  0  0  0  0  0  0  0  0
    5.6819    1.7688    0.1102 H   0  0  0  0  0  0  0  0  0  0  0  0
    5.7437    0.7174    1.5354 H   0  0  0  0  0  0  0  0  0  0  0  0
    3.7905    1.8681   -1.2320 H   0  0  0  0  0  0  0  0  0  0  0  0
    1.3048    1.6752   -1.3452 H   0  0  0  0  0  0  0  0  0  0  0  0
   -0.7963    1.1976    0.0737 H   0  0  0  0  0  0  0  0  0  0  0  0
   -0.4400   -1.7643    0.8077 H   0  0  0  0  0  0  0  0  0  0  0  0
   -2.7610   -2.5038    2.1033 H   0  0  0  0  0  0  0  0  0  0  0  0
   -5.1723   -2.1712    1.5271 H   0  0  0  0  0  0  0  0  0  0  0  0
   -6.7650   -0.6873   -0.2293 H   0  0  0  0  0  0  0  0  0  0  0  0
   -6.5967    0.9741   -2.0695 H   0  0  0  0  0  0  0  0  0  0  0  0
   -4.3948    1.7996   -2.8175 H   0  0  0  0  0  0  0  0  0  0  0  0
   -2.3185    0.9975   -1.7467 H   0  0  0  0  0  0  0  0  0  0  0  0
    1.4577   -0.8706    2.1289 H   0  0  0  0  0  0  0  0  0  0  0  0
    3.9363   -0.6101    2.1320 H   0  0  0  0  0  0  0  0  0  0  0  0
  1  2  1  0
  2  3  1  0
  3  4  2  0
  4  5  1  0
  5  6  2  0
  6  7  1  0
  7  8  2  3
  8  9  1  0
  9 10  2  0
 10 11  1  0
 11 12  1  0
 12 13  2  0
 13 14  1  0
 14 15  2  0
 15 16  1  0
 16 17  2  0
  6 18  1  0
 18 19  2  0
 19  3  1  0
 17  9  1  0
 17 12  1  0
  1 20  1  0
  1 21  1  0
  1 22  1  0
  2 23  1  0
  2 24  1  0
  4 25  1  0
  5 26  1  0
  7 27  1  0
  8 28  1  0
 10 29  1  0
 11 30  1  0
 13 31  1  0
 14 32  1  0
 15 33  1  0
 16 34  1  0
 18 35  1  0
 19 36  1  0
M  CHG  1   3   1
M  END
$$$$
