
     RDKit          3D

 47 50  0  0  0  0  0  0  0  0999 V2000
   -6.9660    0.5662    0.6329 C   0  0  0  0  0  0  0  0  0  0  0  0
   -5.9698    1.6784    0.3362 C   0  0  0  0  0  0  0  0  0  0  0  0
   -4.5665    1.3540    0.8450 C   0  0  0  0  0  0  0  0  0  0  0  0
   -4.0802    0.2077    0.1522 O   0  0  0  0  0  0  0  0  0  0  0  0
   -2.8102   -0.2263    0.4384 C   0  0  0  0  0  0  0  0  0  0  0  0
   -1.9777    0.3442    1.4055 C   0  0  0  0  0  0  0  0  0  0  0  0
   -0.6972   -0.1694    1.6295 C   0  0  0  0  0  0  0  0  0  0  0  0
   -0.2302   -1.2521    0.8821 C   0  0  0  0  0  0  0  0  0  0  0  0
    1.0957   -1.8296    1.1227 C   0  0  0  0  0  0  0  0  0  0  0  0
    2.2774   -1.2253    0.9259 C   0  0  0  0  0  0  0  0  0  0  0  0
    3.7975   -2.0635    1.2524 S   0  0  0  0  0  0  0  0  0  0  0  0
    4.6665   -0.6786    0.7431 C   0  0  0  0  0  0  0  0  0  0  0  0
    5.9237   -0.3618    0.6395 N   0  0  0  0  0  0  0  0  0  0  0  0
    5.8431    0.9353    0.1555 C   0  0  0  0  0  0  0  0  0  0  0  0
    7.1163    1.7910   -0.1500 C   0  0  0  0  0  0  0  0  0  0  0  0
    7.1238    3.0859   -0.6331 C   0  0  0  0  0  0  0  0  0  0  0  0
    8.4818    3.4664   -0.7605 C   0  0  0  0  0  0  0  0  0  0  0  0
    9.2201    2.3827   -0.3487 C   0  0  0  0  0  0  0  0  0  0  0  0
    8.4040    1.3638    0.0231 O   0  0  0  0  0  0  0  0  0  0  0  0
    4.5901    1.4025   -0.0308 N   0  0  0  0  0  0  0  0  0  0  0  0
    3.8694    0.3352    0.3566 N   0  0  0  0  0  0  0  0  0  0  0  0
    2.5014    0.1662    0.4078 C   0  0  0  0  0  0  0  0  0  0  0  0
    1.7110    1.0307    0.0818 O   0  0  0  0  0  0  0  0  0  0  0  0
   -1.0648   -1.8346   -0.0805 C   0  0  0  0  0  0  0  0  0  0  0  0
   -2.3496   -1.3269   -0.3117 C   0  0  0  0  0  0  0  0  0  0  0  0
   -3.2313   -1.8368   -1.2330 O   0  0  0  0  0  0  0  0  0  0  0  0
   -2.7715   -2.8700   -2.0985 C   0  0  0  0  0  0  0  0  0  0  0  0
   -3.8906   -3.1985   -3.0704 C   0  0  0  0  0  0  0  0  0  0  0  0
   -6.6832   -0.3661    0.1342 H   0  0  0  0  0  0  0  0  0  0  0  0
   -7.0299    0.3752    1.7089 H   0  0  0  0  0  0  0  0  0  0  0  0
   -7.9625    0.8482    0.2785 H   0  0  0  0  0  0  0  0  0  0  0  0
   -6.3179    2.6080    0.7997 H   0  0  0  0  0  0  0  0  0  0  0  0
   -5.9392    1.8365   -0.7483 H   0  0  0  0  0  0  0  0  0  0  0  0
   -3.9167    2.2147    0.6465 H   0  0  0  0  0  0  0  0  0  0  0  0
   -4.6057    1.1593    1.9235 H   0  0  0  0  0  0  0  0  0  0  0  0
   -2.2931    1.1922    2.0036 H   0  0  0  0  0  0  0  0  0  0  0  0
   -0.0727    0.2942    2.3896 H   0  0  0  0  0  0  0  0  0  0  0  0
    1.0650   -2.8587    1.4789 H   0  0  0  0  0  0  0  0  0  0  0  0
    6.2475    3.6770   -0.8633 H   0  0  0  0  0  0  0  0  0  0  0  0
    8.8733    4.4116   -1.1093 H   0  0  0  0  0  0  0  0  0  0  0  0
   10.2798    2.1854   -0.2645 H   0  0  0  0  0  0  0  0  0  0  0  0
   -0.6945   -2.6864   -0.6412 H   0  0  0  0  0  0  0  0  0  0  0  0
   -1.8944   -2.5344   -2.6639 H   0  0  0  0  0  0  0  0  0  0  0  0
   -2.5268   -3.7679   -1.5197 H   0  0  0  0  0  0  0  0  0  0  0  0
   -4.7874   -3.5213   -2.5311 H   0  0  0  0  0  0  0  0  0  0  0  0
   -4.1694   -2.3127   -3.6508 H   0  0  0  0  0  0  0  0  0  0  0  0
   -3.5881   -3.9917   -3.7598 H   0  0  0  0  0  0  0  0  0  0  0  0
  1  2  1  0
  2  3  1  0
  3  4  1  0
  4  5  1  0
  5  6  2  0
  6  7  1  0
  7  8  2  0
  8  9  1  0
  9 10  2  3
 10 11  1  0
 11 12  1  0
 12 13  2  0
 13 14  1  0
 14 15  1  0
 15 16  2  0
 16 17  1  0
 17 18  2  0
 18 19  1  0
 14 20  2  0
 20 21  1  0
 21 22  1  0
 22 23  2  0
  8 24  1  0
 24 25  2  0
 25 26  1  0
 26 27  1  0
 27 28  1  0
 25  5  1  0
 22 10  1  0
 21 12  1  0
 19 15  1  0
  1 29  1  0
  1 30  1  0
  1 31  1  0
  2 32  1  0
  2 33  1  0
  3 34  1  0
  3 35  1  0
  6 36  1  0
  7 37  1  0
  9 38  1  0
 16 39  1  0
 17 40  1  0
 18 41  1  0
 24 42  1  0
 27 43  1  0
 27 44  1  0
 28 45  1  0
 28 46  1  0
 28 47  1  0
M  END
$$$$
