
     RDKit          3D

 51 53  0  0  0  0  0  0  0  0999 V2000
    8.4384   -1.2836    0.7124 C   0  0  0  0  0  0  0  0  0  0  0  0
    7.3838   -1.4960   -0.2180 O   0  0  0  0  0  0  0  0  0  0  0  0
    6.4018   -0.5391   -0.2962 C   0  0  0  0  0  0  0  0  0  0  0  0
    6.3555    0.6183    0.4878 C   0  0  0  0  0  0  0  0  0  0  0  0
    5.3088    1.5342    0.3402 C   0  0  0  0  0  0  0  0  0  0  0  0
    4.2985    1.3168   -0.6030 C   0  0  0  0  0  0  0  0  0  0  0  0
    3.1723    2.3097   -0.7571 C   0  0  0  0  0  0  0  0  0  0  0  0
    1.9209    1.8984    0.0080 C   0  0  0  0  0  0  0  0  0  0  0  0
    1.9338    1.8000    1.2319 O   0  0  0  0  0  0  0  0  0  0  0  0
    0.8301    1.6812   -0.8211 N   0  0  0  0  0  0  0  0  0  0  0  0
   -0.4662    1.2729   -0.4425 C   0  0  0  0  0  0  0  0  0  0  0  0
   -1.4320    1.1946   -1.4512 C   0  0  0  0  0  0  0  0  0  0  0  0
   -2.7446    0.8069   -1.1558 C   0  0  0  0  0  0  0  0  0  0  0  0
   -3.1176    0.4858    0.1530 C   0  0  0  0  0  0  0  0  0  0  0  0
   -4.4608    0.1133    0.3681 N   0  0  0  0  0  0  0  0  0  0  0  0
   -5.0660   -0.1775    1.5777 C   0  0  0  0  0  0  0  0  0  0  0  0
   -4.5561   -0.1284    2.6901 O   0  0  0  0  0  0  0  0  0  0  0  0
   -6.5074   -0.5451    1.4819 C   0  0  0  0  0  0  0  0  0  0  0  0
   -7.0071   -1.3113    0.4189 C   0  0  0  0  0  0  0  0  0  0  0  0
   -8.3682   -1.6277    0.3661 C   0  0  0  0  0  0  0  0  0  0  0  0
   -9.2231   -1.1873    1.3773 C   0  0  0  0  0  0  0  0  0  0  0  0
  -11.0630   -1.6159    1.3007 Br  0  0  0  0  0  0  0  0  0  0  0  0
   -8.7306   -0.4417    2.4479 C   0  0  0  0  0  0  0  0  0  0  0  0
   -7.3710   -0.1259    2.5028 C   0  0  0  0  0  0  0  0  0  0  0  0
   -2.1507    0.5472    1.1548 C   0  0  0  0  0  0  0  0  0  0  0  0
   -0.8357    0.9403    0.8599 C   0  0  0  0  0  0  0  0  0  0  0  0
    4.3368    0.1512   -1.3838 C   0  0  0  0  0  0  0  0  0  0  0  0
    5.3731   -0.7800   -1.2265 C   0  0  0  0  0  0  0  0  0  0  0  0
    5.4742   -1.9257   -1.9810 O   0  0  0  0  0  0  0  0  0  0  0  0
    4.2391   -2.5186   -2.3670 C   0  0  0  0  0  0  0  0  0  0  0  0
    9.0036   -0.3761    0.4674 H   0  0  0  0  0  0  0  0  0  0  0  0
    9.1255   -2.1343    0.6389 H   0  0  0  0  0  0  0  0  0  0  0  0
    8.0596   -1.2517    1.7400 H   0  0  0  0  0  0  0  0  0  0  0  0
    7.1147    0.8354    1.2322 H   0  0  0  0  0  0  0  0  0  0  0  0
    5.2879    2.4187    0.9753 H   0  0  0  0  0  0  0  0  0  0  0  0
    2.9596    2.4498   -1.8241 H   0  0  0  0  0  0  0  0  0  0  0  0
    3.4750    3.2985   -0.3868 H   0  0  0  0  0  0  0  0  0  0  0  0
    0.9602    1.8585   -1.8084 H   0  0  0  0  0  0  0  0  0  0  0  0
   -1.1856    1.4446   -2.4800 H   0  0  0  0  0  0  0  0  0  0  0  0
   -3.4711    0.7750   -1.9650 H   0  0  0  0  0  0  0  0  0  0  0  0
   -5.0576    0.1404   -0.4479 H   0  0  0  0  0  0  0  0  0  0  0  0
   -6.3482   -1.6943   -0.3557 H   0  0  0  0  0  0  0  0  0  0  0  0
   -8.7508   -2.2252   -0.4584 H   0  0  0  0  0  0  0  0  0  0  0  0
   -9.3908   -0.1067    3.2439 H   0  0  0  0  0  0  0  0  0  0  0  0
   -6.9849    0.4495    3.3428 H   0  0  0  0  0  0  0  0  0  0  0  0
   -2.3783    0.2942    2.1868 H   0  0  0  0  0  0  0  0  0  0  0  0
   -0.1269    0.9682    1.6828 H   0  0  0  0  0  0  0  0  0  0  0  0
    3.5587   -0.0146   -2.1223 H   0  0  0  0  0  0  0  0  0  0  0  0
    3.8001   -1.9823   -3.2141 H   0  0  0  0  0  0  0  0  0  0  0  0
    4.4481   -3.5414   -2.6955 H   0  0  0  0  0  0  0  0  0  0  0  0
    3.5340   -2.5730   -1.5292 H   0  0  0  0  0  0  0  0  0  0  0  0
  1  2  1  0
  2  3  1  0
  3  4  2  0
  4  5  1  0
  5  6  2  0
  6  7  1  0
  7  8  1  0
  8  9  2  0
  8 10  1  0
 10 11  1  0
 11 12  2  0
 12 13  1  0
 13 14  2  0
 14 15  1  0
 15 16  1  0
 16 17  2  0
 16 18  1  0
 18 19  2  0
 19 20  1  0
 20 21  2  0
 21 22  1  0
 21 23  1  0
 23 24  2  0
 14 25  1  0
 25 26  2  0
  6 27  1  0
 27 28  2  0
 28 29  1  0
 29 30  1  0
 28  3  1  0
 26 11  1  0
 24 18  1  0
  1 31  1  0
  1 32  1  0
  1 33  1  0
  4 34  1  0
  5 35  1  0
  7 36  1  0
  7 37  1  0
 10 38  1  0
 12 39  1  0
 13 40  1  0
 15 41  1  0
 19 42  1  0
 20 43  1  0
 23 44  1  0
 24 45  1  0
 25 46  1  0
 26 47  1  0
 27 48  1  0
 30 49  1  0
 30 50  1  0
 30 51  1  0
M  END
$$$$
