
     RDKit          3D

 61 66  0  0  0  0  0  0  0  0999 V2000
   10.2768   -0.4771    2.4566 Cl  0  0  0  0  0  0  0  0  0  0  0  0
    8.8165   -0.2866    1.5531 C   0  0  0  0  0  0  0  0  0  0  0  0
    7.7808    0.4472    2.1381 C   0  0  0  0  0  0  0  0  0  0  0  0
    6.5762    0.6332    1.4555 C   0  0  0  0  0  0  0  0  0  0  0  0
    6.3953    0.0906    0.1773 C   0  0  0  0  0  0  0  0  0  0  0  0
    5.0864    0.2745   -0.5559 C   0  0  0  0  0  0  0  0  0  0  0  0
    4.0780   -0.8337   -0.2042 C   0  0  0  0  0  0  0  0  0  0  0  0
    2.8249   -0.7424   -0.9728 N   0  0  0  0  0  0  0  0  0  0  0  0
    1.9603   -1.9264   -0.7457 C   0  0  0  0  0  0  0  0  0  0  0  0
    0.8606   -1.7381    0.3215 C   0  0  0  0  0  0  0  0  0  0  0  0
   -0.0420   -0.6061    0.0006 N   0  0  0  0  0  0  0  0  0  0  0  0
   -1.3622   -0.8815   -0.2477 C   0  0  0  0  0  0  0  0  0  0  0  0
   -1.9118   -1.9210   -0.9751 C   0  0  0  0  0  0  0  0  0  0  0  0
   -3.2999   -1.6944   -1.0841 C   0  0  0  0  0  0  0  0  0  0  0  0
   -3.5825   -0.5147   -0.4229 C   0  0  0  0  0  0  0  0  0  0  0  0
   -4.8139    0.2242   -0.2429 C   0  0  0  0  0  0  0  0  0  0  0  0
   -6.0461   -0.1565   -0.9815 C   0  0  0  0  0  0  0  0  0  0  0  0
   -6.0203   -0.3927   -2.3607 C   0  0  0  0  0  0  0  0  0  0  0  0
   -7.1977   -0.7319   -3.0300 C   0  0  0  0  0  0  0  0  0  0  0  0
   -8.3997   -0.8230   -2.3271 C   0  0  0  0  0  0  0  0  0  0  0  0
   -8.4312   -0.5667   -0.9560 C   0  0  0  0  0  0  0  0  0  0  0  0
   -7.2569   -0.2268   -0.2829 C   0  0  0  0  0  0  0  0  0  0  0  0
   -4.8698    1.2361    0.5716 N   0  0  0  0  0  0  0  0  0  0  0  0
   -3.7104    1.6214    1.2726 C   0  0  0  0  0  0  0  0  0  0  0  0
   -3.8223    2.6850    2.1730 C   0  0  0  0  0  0  0  0  0  0  0  0
   -2.7221    3.1089    2.9194 C   0  0  0  0  0  0  0  0  0  0  0  0
   -1.4967    2.4623    2.7768 C   0  0  0  0  0  0  0  0  0  0  0  0
   -1.3642    1.3995    1.8804 C   0  0  0  0  0  0  0  0  0  0  0  0
   -2.4627    0.9926    1.1165 C   0  0  0  0  0  0  0  0  0  0  0  0
   -2.4182   -0.0826    0.1935 N   0  0  0  0  0  0  0  0  0  0  0  0
    0.5621    0.4030   -0.9117 C   0  0  0  0  0  0  0  0  0  0  0  0
    2.0849    0.5102   -0.6804 C   0  0  0  0  0  0  0  0  0  0  0  0
    7.4362   -0.6493   -0.4028 C   0  0  0  0  0  0  0  0  0  0  0  0
    8.6438   -0.8371    0.2794 C   0  0  0  0  0  0  0  0  0  0  0  0
    9.8752   -1.7604   -0.5062 Cl  0  0  0  0  0  0  0  0  0  0  0  0
    7.9055    0.8781    3.1288 H   0  0  0  0  0  0  0  0  0  0  0  0
    5.7809    1.2066    1.9285 H   0  0  0  0  0  0  0  0  0  0  0  0
    5.2745    0.2832   -1.6374 H   0  0  0  0  0  0  0  0  0  0  0  0
    4.6839    1.2649   -0.3103 H   0  0  0  0  0  0  0  0  0  0  0  0
    3.8713   -0.8290    0.8745 H   0  0  0  0  0  0  0  0  0  0  0  0
    4.5555   -1.7978   -0.4251 H   0  0  0  0  0  0  0  0  0  0  0  0
    2.5588   -2.8129   -0.5025 H   0  0  0  0  0  0  0  0  0  0  0  0
    1.4744   -2.1574   -1.7028 H   0  0  0  0  0  0  0  0  0  0  0  0
    0.3088   -2.6773    0.4490 H   0  0  0  0  0  0  0  0  0  0  0  0
    1.3295   -1.5273    1.2908 H   0  0  0  0  0  0  0  0  0  0  0  0
   -1.3593   -2.7308   -1.4318 H   0  0  0  0  0  0  0  0  0  0  0  0
   -4.0075   -2.3188   -1.6140 H   0  0  0  0  0  0  0  0  0  0  0  0
   -5.0957   -0.2959   -2.9235 H   0  0  0  0  0  0  0  0  0  0  0  0
   -7.1802   -0.9155   -4.1014 H   0  0  0  0  0  0  0  0  0  0  0  0
   -9.3164   -1.0835   -2.8509 H   0  0  0  0  0  0  0  0  0  0  0  0
   -9.3705   -0.6253   -0.4121 H   0  0  0  0  0  0  0  0  0  0  0  0
   -7.2852   -0.0173    0.7840 H   0  0  0  0  0  0  0  0  0  0  0  0
   -4.7822    3.1807    2.2931 H   0  0  0  0  0  0  0  0  0  0  0  0
   -2.8271    3.9346    3.6180 H   0  0  0  0  0  0  0  0  0  0  0  0
   -0.6435    2.7790    3.3712 H   0  0  0  0  0  0  0  0  0  0  0  0
   -0.4057    0.8978    1.8185 H   0  0  0  0  0  0  0  0  0  0  0  0
    0.3681    0.1354   -1.9592 H   0  0  0  0  0  0  0  0  0  0  0  0
    0.1059    1.3835   -0.7332 H   0  0  0  0  0  0  0  0  0  0  0  0
    2.2420    0.8137    0.3638 H   0  0  0  0  0  0  0  0  0  0  0  0
    2.4814    1.3083   -1.3180 H   0  0  0  0  0  0  0  0  0  0  0  0
    7.3051   -1.0820   -1.3931 H   0  0  0  0  0  0  0  0  0  0  0  0
  1  2  1  0
  2  3  2  0
  3  4  1  0
  4  5  2  0
  5  6  1  0
  6  7  1  0
  7  8  1  0
  8  9  1  0
  9 10  1  0
 10 11  1  0
 11 12  1  0
 12 13  2  0
 13 14  1  0
 14 15  2  0
 15 16  1  0
 16 17  1  0
 17 18  2  0
 18 19  1  0
 19 20  2  0
 20 21  1  0
 21 22  2  0
 16 23  2  0
 23 24  1  0
 24 25  2  0
 25 26  1  0
 26 27  2  0
 27 28  1  0
 28 29  2  0
 29 30  1  0
 11 31  1  0
 31 32  1  0
  5 33  1  0
 33 34  2  0
 34 35  1  0
 34  2  1  0
 32  8  1  0
 30 12  1  0
 30 15  1  0
 22 17  1  0
 29 24  1  0
  3 36  1  0
  4 37  1  0
  6 38  1  0
  6 39  1  0
  7 40  1  0
  7 41  1  0
  9 42  1  0
  9 43  1  0
 10 44  1  0
 10 45  1  0
 13 46  1  0
 14 47  1  0
 18 48  1  0
 19 49  1  0
 20 50  1  0
 21 51  1  0
 22 52  1  0
 25 53  1  0
 26 54  1  0
 27 55  1  0
 28 56  1  0
 31 57  1  0
 31 58  1  0
 32 59  1  0
 32 60  1  0
 33 61  1  0
M  END
$$$$
