
     RDKit          3D

 49 53  0  0  0  0  0  0  0  0999 V2000
    6.3016   -2.4287    0.7414 C   0  0  0  0  0  0  0  0  0  0  0  0
    5.1752   -1.7441    1.4475 C   0  0  0  0  0  0  0  0  0  0  0  0
    4.9250   -2.0550    3.1053 S   0  0  0  0  0  0  0  0  0  0  0  0
    3.5853   -1.0142    3.1714 C   0  0  0  0  0  0  0  0  0  0  0  0
    2.9234   -0.8588    4.3305 N   0  0  0  0  0  0  0  0  0  0  0  0
    1.9043   -0.0072    4.2336 C   0  0  0  0  0  0  0  0  0  0  0  0
    1.5096    0.6615    3.1449 N   0  0  0  0  0  0  0  0  0  0  0  0
    2.2064    0.4808    2.0019 C   0  0  0  0  0  0  0  0  0  0  0  0
    1.7029    1.4225    0.5958 S   0  0  0  0  0  0  0  0  0  0  0  0
   -0.0989    1.0434    0.5980 C   0  0  0  0  0  0  0  0  0  0  0  0
   -0.8418    2.3260    0.9675 C   0  0  0  0  0  0  0  0  0  0  0  0
   -0.5172    0.4974   -0.7893 C   0  0  0  0  0  0  0  0  0  0  0  0
    0.2830    0.1590   -1.6635 O   0  0  0  0  0  0  0  0  0  0  0  0
   -1.9074    0.3853   -0.9515 N   0  0  0  0  0  0  0  0  0  0  0  0
   -2.5813    1.2072   -1.9245 C   0  0  0  0  0  0  0  0  0  0  0  0
   -1.8265    1.9927   -2.8239 C   0  0  0  0  0  0  0  0  0  0  0  0
   -2.4320    2.8156   -3.7799 C   0  0  0  0  0  0  0  0  0  0  0  0
   -3.8138    2.8885   -3.8543 C   0  0  0  0  0  0  0  0  0  0  0  0
   -4.5829    2.1440   -2.9657 C   0  0  0  0  0  0  0  0  0  0  0  0
   -3.9798    1.3110   -2.0030 C   0  0  0  0  0  0  0  0  0  0  0  0
   -5.0864    0.5137   -0.8728 S   0  0  0  0  0  0  0  0  0  0  0  0
   -4.0185   -0.7054   -0.1660 C   0  0  0  0  0  0  0  0  0  0  0  0
   -4.6493   -1.7470    0.5410 C   0  0  0  0  0  0  0  0  0  0  0  0
   -3.9086   -2.7598    1.1436 C   0  0  0  0  0  0  0  0  0  0  0  0
   -2.5267   -2.7462    1.0362 C   0  0  0  0  0  0  0  0  0  0  0  0
   -1.8938   -1.7122    0.3400 C   0  0  0  0  0  0  0  0  0  0  0  0
   -2.6203   -0.6572   -0.2587 C   0  0  0  0  0  0  0  0  0  0  0  0
    3.3066   -0.3980    1.9582 C   0  0  0  0  0  0  0  0  0  0  0  0
    4.2500   -0.8405    0.9342 C   0  0  0  0  0  0  0  0  0  0  0  0
    4.2370   -0.3930   -0.4973 C   0  0  0  0  0  0  0  0  0  0  0  0
    6.8315   -3.1367    1.3855 H   0  0  0  0  0  0  0  0  0  0  0  0
    7.0287   -1.6907    0.3872 H   0  0  0  0  0  0  0  0  0  0  0  0
    5.9268   -2.9857   -0.1234 H   0  0  0  0  0  0  0  0  0  0  0  0
    1.3308    0.1653    5.1392 H   0  0  0  0  0  0  0  0  0  0  0  0
   -0.3121    0.2725    1.3431 H   0  0  0  0  0  0  0  0  0  0  0  0
   -1.9168    2.1420    1.0711 H   0  0  0  0  0  0  0  0  0  0  0  0
   -0.4974    2.7301    1.9259 H   0  0  0  0  0  0  0  0  0  0  0  0
   -0.7210    3.0993    0.1995 H   0  0  0  0  0  0  0  0  0  0  0  0
   -0.7387    1.9726   -2.8254 H   0  0  0  0  0  0  0  0  0  0  0  0
   -1.8151    3.3934   -4.4649 H   0  0  0  0  0  0  0  0  0  0  0  0
   -4.2923    3.5270   -4.5926 H   0  0  0  0  0  0  0  0  0  0  0  0
   -5.6677    2.2266   -3.0204 H   0  0  0  0  0  0  0  0  0  0  0  0
   -5.7350   -1.7763    0.6239 H   0  0  0  0  0  0  0  0  0  0  0  0
   -4.4116   -3.5597    1.6817 H   0  0  0  0  0  0  0  0  0  0  0  0
   -1.9354   -3.5431    1.4822 H   0  0  0  0  0  0  0  0  0  0  0  0
   -0.8102   -1.7800    0.2493 H   0  0  0  0  0  0  0  0  0  0  0  0
    4.4137    0.6846   -0.5644 H   0  0  0  0  0  0  0  0  0  0  0  0
    3.2801   -0.6377   -0.9677 H   0  0  0  0  0  0  0  0  0  0  0  0
    5.0166   -0.8847   -1.0858 H   0  0  0  0  0  0  0  0  0  0  0  0
  1  2  1  0
  2  3  1  0
  3  4  1  0
  4  5  2  0
  5  6  1  0
  6  7  2  0
  7  8  1  0
  8  9  1  0
  9 10  1  0
 10 11  1  0
 10 12  1  0
 12 13  2  0
 12 14  1  0
 14 15  1  0
 15 16  2  0
 16 17  1  0
 17 18  2  0
 18 19  1  0
 19 20  2  0
 20 21  1  0
 21 22  1  0
 22 23  2  0
 23 24  1  0
 24 25  2  0
 25 26  1  0
 26 27  2  0
  8 28  2  0
 28 29  1  0
 29 30  1  0
 29  2  2  0
 28  4  1  0
 27 14  1  0
 20 15  1  0
 27 22  1  0
  1 31  1  0
  1 32  1  0
  1 33  1  0
  6 34  1  0
 10 35  1  0
 11 36  1  0
 11 37  1  0
 11 38  1  0
 16 39  1  0
 17 40  1  0
 18 41  1  0
 19 42  1  0
 23 43  1  0
 24 44  1  0
 25 45  1  0
 26 46  1  0
 30 47  1  0
 30 48  1  0
 30 49  1  0
M  END
$$$$
