
     RDKit          3D

 37 39  0  0  0  0  0  0  0  0999 V2000
    4.7624    2.9657   -3.4556 C   0  0  0  0  0  0  0  0  0  0  0  0
    5.1068    2.0805   -2.3976 O   0  0  0  0  0  0  0  0  0  0  0  0
    4.0766    1.5364   -1.6781 C   0  0  0  0  0  0  0  0  0  0  0  0
    2.7204    1.7714   -1.8895 C   0  0  0  0  0  0  0  0  0  0  0  0
    1.7493    1.1534   -1.0843 C   0  0  0  0  0  0  0  0  0  0  0  0
    2.1407    0.2761   -0.0499 C   0  0  0  0  0  0  0  0  0  0  0  0
    1.4613   -0.5064    0.9368 C   0  0  0  0  0  0  0  0  0  0  0  0
    0.0632   -0.6729    1.1775 C   0  0  0  0  0  0  0  0  0  0  0  0
   -0.8913   -0.6884    0.2321 C   0  0  0  0  0  0  0  0  0  0  0  0
   -2.3195   -0.8772    0.5091 C   0  0  0  0  0  0  0  0  0  0  0  0
   -3.2546   -0.1422   -0.2174 C   0  0  0  0  0  0  0  0  0  0  0  0
   -4.6126   -0.3293    0.0156 C   0  0  0  0  0  0  0  0  0  0  0  0
   -5.0361   -1.2241    0.9358 N   0  0  0  0  0  4  0  0  0  0  0  0
   -6.4797   -1.4134    1.1578 C   0  0  0  0  0  0  0  0  0  0  0  0
   -4.1493   -1.9670    1.6345 C   0  0  0  0  0  0  0  0  0  0  0  0
   -2.7820   -1.8109    1.4354 C   0  0  0  0  0  0  0  0  0  0  0  0
    2.4204   -1.1197    1.7144 C   0  0  0  0  0  0  0  0  0  0  0  0
    3.6502   -0.7763    1.2184 N   0  0  0  0  0  0  0  0  0  0  0  0
    3.5083    0.0747    0.1473 C   0  0  0  0  0  0  0  0  0  0  0  0
    4.4877    0.6821   -0.6491 C   0  0  0  0  0  0  0  0  0  0  0  0
    4.1723    2.4532   -4.2225 H   0  0  0  0  0  0  0  0  0  0  0  0
    5.6916    3.3060   -3.9228 H   0  0  0  0  0  0  0  0  0  0  0  0
    4.2375    3.8486   -3.0762 H   0  0  0  0  0  0  0  0  0  0  0  0
    2.3759    2.4380   -2.6732 H   0  0  0  0  0  0  0  0  0  0  0  0
    0.7012    1.3696   -1.2606 H   0  0  0  0  0  0  0  0  0  0  0  0
   -0.2133   -0.8208    2.2195 H   0  0  0  0  0  0  0  0  0  0  0  0
   -0.6223   -0.5613   -0.8144 H   0  0  0  0  0  0  0  0  0  0  0  0
   -2.9337    0.5848   -0.9617 H   0  0  0  0  0  0  0  0  0  0  0  0
   -5.3670    0.2296   -0.5310 H   0  0  0  0  0  0  0  0  0  0  0  0
   -6.8173   -2.1919    0.4691 H   0  0  0  0  0  0  0  0  0  0  0  0
   -6.9985   -0.4708    0.9654 H   0  0  0  0  0  0  0  0  0  0  0  0
   -6.6463   -1.7121    2.1960 H   0  0  0  0  0  0  0  0  0  0  0  0
   -4.5427   -2.6881    2.3455 H   0  0  0  0  0  0  0  0  0  0  0  0
   -2.0874   -2.4321    1.9979 H   0  0  0  0  0  0  0  0  0  0  0  0
    2.3439   -1.7821    2.5664 H   0  0  0  0  0  0  0  0  0  0  0  0
    4.5392   -1.0877    1.5865 H   0  0  0  0  0  0  0  0  0  0  0  0
    5.5450    0.5047   -0.4755 H   0  0  0  0  0  0  0  0  0  0  0  0
  1  2  1  0
  2  3  1  0
  3  4  2  0
  4  5  1  0
  5  6  2  0
  6  7  1  0
  7  8  1  0
  8  9  2  3
  9 10  1  0
 10 11  2  0
 11 12  1  0
 12 13  2  0
 13 14  1  0
 13 15  1  0
 15 16  2  0
  7 17  2  0
 17 18  1  0
 18 19  1  0
 19 20  2  0
 20  3  1  0
 19  6  1  0
 16 10  1  0
  1 21  1  0
  1 22  1  0
  1 23  1  0
  4 24  1  0
  5 25  1  0
  8 26  1  0
  9 27  1  0
 11 28  1  0
 12 29  1  0
 14 30  1  0
 14 31  1  0
 14 32  1  0
 15 33  1  0
 16 34  1  0
 17 35  1  0
 18 36  1  0
 20 37  1  0
M  CHG  1  13   1
M  END
$$$$
