
     RDKit          3D

 52 56  0  0  0  0  0  0  0  0999 V2000
    1.2051    0.3199   -1.9801 C   0  0  0  0  0  0  0  0  0  0  0  0
    2.0547   -0.7184   -1.2810 C   0  0  0  0  0  0  0  0  0  0  0  0
    1.6075   -1.5330   -0.3703 N   0  0  0  0  0  0  0  0  0  0  0  0
    0.2891   -1.5094   -0.0179 N   0  0  0  0  0  0  0  0  0  0  0  0
   -0.1952   -2.4736    0.8645 C   0  0  0  0  0  0  0  0  0  0  0  0
    0.4929   -3.3479    1.3835 O   0  0  0  0  0  0  0  0  0  0  0  0
   -1.6319   -2.3863    1.1218 C   0  0  0  0  0  0  0  0  0  0  0  0
   -2.4034   -3.5089    1.2378 N   0  0  0  0  0  0  0  0  0  0  0  0
   -3.6505   -3.1390    1.4647 N   0  0  0  0  0  0  0  0  0  0  0  0
   -3.7130   -1.7801    1.5275 N   0  0  0  0  0  0  0  0  0  0  0  0
   -4.9473   -1.1139    1.7416 C   0  0  0  0  0  0  0  0  0  0  0  0
   -5.0270    0.2172    1.7419 N   0  0  0  0  0  0  0  0  0  0  0  0
   -6.3796    0.4775    1.9566 O   0  0  0  0  0  0  0  0  0  0  0  0
   -7.1063   -0.7012    2.0831 N   0  0  0  0  0  0  0  0  0  0  0  0
   -6.2168   -1.6851    1.9572 C   0  0  0  0  0  0  0  0  0  0  0  0
   -6.5167   -2.9947    2.0326 N   0  0  0  0  0  0  0  0  0  0  0  0
   -2.4281   -1.2671    1.3370 C   0  0  0  0  0  0  0  0  0  0  0  0
   -2.0615    0.1685    1.4247 C   0  0  0  0  0  0  0  0  0  0  0  0
   -2.1996    0.9312   -0.2257 S   0  0  0  0  0  0  0  0  0  0  0  0
   -1.8962    2.6337    0.2090 C   0  0  0  0  0  0  0  0  0  0  0  0
   -0.6919    3.0357    0.7962 C   0  0  0  0  0  0  0  0  0  0  0  0
   -0.4787    4.3788    1.1152 C   0  0  0  0  0  0  0  0  0  0  0  0
   -1.4647    5.3261    0.8430 C   0  0  0  0  0  0  0  0  0  0  0  0
   -2.6619    4.9335    0.2475 C   0  0  0  0  0  0  0  0  0  0  0  0
   -2.8755    3.5911   -0.0726 C   0  0  0  0  0  0  0  0  0  0  0  0
    3.5020   -0.8062   -1.6457 C   0  0  0  0  0  0  0  0  0  0  0  0
    3.9448   -0.5314   -2.9579 C   0  0  0  0  0  0  0  0  0  0  0  0
    5.3040   -0.6134   -3.2823 C   0  0  0  0  0  0  0  0  0  0  0  0
    6.1814   -0.9775   -2.2844 C   0  0  0  0  0  0  0  0  0  0  0  0
    5.7519   -1.2617   -1.0092 C   0  0  0  0  0  0  0  0  0  0  0  0
    4.4210   -1.1905   -0.6571 C   0  0  0  0  0  0  0  0  0  0  0  0
    6.7758   -1.6058   -0.1824 O   0  0  0  0  0  0  0  0  0  0  0  0
    7.8967   -1.5197   -1.0864 C   0  0  0  0  0  0  0  0  0  0  0  0
    7.5277   -1.1058   -2.4199 O   0  0  0  0  0  0  0  0  0  0  0  0
    0.7125    0.9414   -1.2291 H   0  0  0  0  0  0  0  0  0  0  0  0
    0.4531   -0.1772   -2.5993 H   0  0  0  0  0  0  0  0  0  0  0  0
    1.7924    0.9936   -2.6069 H   0  0  0  0  0  0  0  0  0  0  0  0
   -0.3572   -0.9091   -0.5185 H   0  0  0  0  0  0  0  0  0  0  0  0
   -7.4876   -3.2886    2.0037 H   0  0  0  0  0  0  0  0  0  0  0  0
   -5.8457   -3.7118    1.7580 H   0  0  0  0  0  0  0  0  0  0  0  0
   -2.6624    0.7101    2.1596 H   0  0  0  0  0  0  0  0  0  0  0  0
   -1.0240    0.2573    1.7656 H   0  0  0  0  0  0  0  0  0  0  0  0
    0.0972    2.3176    1.0041 H   0  0  0  0  0  0  0  0  0  0  0  0
    0.4583    4.6869    1.5726 H   0  0  0  0  0  0  0  0  0  0  0  0
   -1.2985    6.3718    1.0908 H   0  0  0  0  0  0  0  0  0  0  0  0
   -3.4297    5.6721    0.0303 H   0  0  0  0  0  0  0  0  0  0  0  0
   -3.8153    3.3001   -0.5373 H   0  0  0  0  0  0  0  0  0  0  0  0
    3.2409   -0.2739   -3.7446 H   0  0  0  0  0  0  0  0  0  0  0  0
    5.6578   -0.4057   -4.2867 H   0  0  0  0  0  0  0  0  0  0  0  0
    4.1050   -1.4267    0.3539 H   0  0  0  0  0  0  0  0  0  0  0  0
    8.6163   -0.7978   -0.6836 H   0  0  0  0  0  0  0  0  0  0  0  0
    8.3782   -2.5030   -1.1450 H   0  0  0  0  0  0  0  0  0  0  0  0
  1  2  1  0
  2  3  2  3
  3  4  1  0
  4  5  1  0
  5  6  2  0
  5  7  1  0
  7  8  1  0
  8  9  2  0
  9 10  1  0
 10 11  1  0
 11 12  2  0
 12 13  1  0
 13 14  1  0
 14 15  2  0
 15 16  1  0
 10 17  1  0
 17 18  1  0
 18 19  1  0
 19 20  1  0
 20 21  2  0
 21 22  1  0
 22 23  2  0
 23 24  1  0
 24 25  2  0
  2 26  1  0
 26 27  2  0
 27 28  1  0
 28 29  2  0
 29 30  1  0
 30 31  2  0
 30 32  1  0
 32 33  1  0
 33 34  1  0
 17  7  2  0
 25 20  1  0
 31 26  1  0
 15 11  1  0
 34 29  1  0
  1 35  1  0
  1 36  1  0
  1 37  1  0
  4 38  1  0
 16 39  1  0
 16 40  1  0
 18 41  1  0
 18 42  1  0
 21 43  1  0
 22 44  1  0
 23 45  1  0
 24 46  1  0
 25 47  1  0
 27 48  1  0
 28 49  1  0
 31 50  1  0
 33 51  1  0
 33 52  1  0
M  END
$$$$
