
     RDKit          3D

 33 36  0  0  0  0  0  0  0  0999 V2000
   -1.2674   -2.6642   -1.5434 C   0  0  0  0  0  0  0  0  0  0  0  0
   -1.0998   -1.3543   -0.8276 C   0  0  0  0  0  0  0  0  0  0  0  0
   -2.0570   -0.4717   -0.4629 C   0  0  0  0  0  0  0  0  0  0  0  0
   -3.4845   -0.7169   -0.7480 C   0  0  0  0  0  0  0  0  0  0  0  0
   -4.3821    0.2175   -0.3972 C   0  0  0  0  0  0  0  0  0  0  0  0
   -4.0089    1.3833    0.2175 N   0  0  0  0  0  0  0  0  0  0  0  0
   -2.6914    1.6398    0.5296 C   0  0  0  0  0  0  0  0  0  0  0  0
   -1.6682    0.7959    0.2471 C   0  0  0  0  0  0  0  0  0  0  0  0
   -0.2679    1.0991    0.6043 C   0  0  0  0  0  0  0  0  0  0  0  0
    0.0018    2.3472    1.3991 C   0  0  0  0  0  0  0  0  0  0  0  0
    0.6826    0.2337    0.2095 C   0  0  0  0  0  0  0  0  0  0  0  0
    0.3134   -1.0291   -0.5081 C   0  0  0  0  0  0  0  0  0  0  0  0
    1.3518   -1.7740   -0.7912 N   0  0  0  0  0  0  0  0  0  0  0  0
    2.4669   -1.0641   -0.2998 C   0  0  0  0  0  0  0  0  0  0  0  0
    3.7805   -1.4915   -0.4035 C   0  0  0  0  0  0  0  0  0  0  0  0
    4.7886   -0.6735    0.1065 C   0  0  0  0  0  0  0  0  0  0  0  0
    4.4702    0.5560    0.7018 C   0  0  0  0  0  0  0  0  0  0  0  0
    3.1402    0.9836    0.8028 C   0  0  0  0  0  0  0  0  0  0  0  0
    2.1407    0.1614    0.3102 C   0  0  0  0  0  0  0  0  0  0  0  0
   -2.2996   -2.9008   -1.8059 H   0  0  0  0  0  0  0  0  0  0  0  0
   -0.9005   -3.4862   -0.9189 H   0  0  0  0  0  0  0  0  0  0  0  0
   -0.6975   -2.6607   -2.4792 H   0  0  0  0  0  0  0  0  0  0  0  0
   -3.8201   -1.6249   -1.2291 H   0  0  0  0  0  0  0  0  0  0  0  0
   -5.4459    0.1038   -0.5775 H   0  0  0  0  0  0  0  0  0  0  0  0
   -4.7213    2.0531    0.4854 H   0  0  0  0  0  0  0  0  0  0  0  0
   -2.5668    2.5948    1.0264 H   0  0  0  0  0  0  0  0  0  0  0  0
   -0.6395    2.3896    2.2869 H   0  0  0  0  0  0  0  0  0  0  0  0
   -0.1780    3.2391    0.7894 H   0  0  0  0  0  0  0  0  0  0  0  0
    1.0188    2.4090    1.7805 H   0  0  0  0  0  0  0  0  0  0  0  0
    4.0105   -2.4399   -0.8764 H   0  0  0  0  0  0  0  0  0  0  0  0
    5.8270   -0.9880    0.0350 H   0  0  0  0  0  0  0  0  0  0  0  0
    5.2690    1.1874    1.0854 H   0  0  0  0  0  0  0  0  0  0  0  0
    2.9344    1.9458    1.2513 H   0  0  0  0  0  0  0  0  0  0  0  0
  1  2  1  0
  2  3  2  0
  3  4  1  0
  4  5  2  0
  5  6  1  0
  6  7  1  0
  7  8  2  0
  8  9  1  0
  9 10  1  0
  9 11  2  0
 11 12  1  0
 12 13  2  0
 13 14  1  0
 14 15  2  0
 15 16  1  0
 16 17  2  0
 17 18  1  0
 18 19  2  0
 12  2  1  0
 19 14  1  0
  8  3  1  0
 19 11  1  0
  1 20  1  0
  1 21  1  0
  1 22  1  0
  4 23  1  0
  5 24  1  0
  6 25  1  0
  7 26  1  0
 10 27  1  0
 10 28  1  0
 10 29  1  0
 15 30  1  0
 16 31  1  0
 17 32  1  0
 18 33  1  0
M  END
$$$$
