
     RDKit          3D

 38 41  0  0  0  0  0  0  0  0999 V2000
   -3.5444   -0.5915    4.1601 O   0  0  0  0  0  0  0  0  0  0  0  0
   -3.7022    0.1604    3.2029 C   0  0  0  0  0  0  0  0  0  0  0  0
   -3.1985   -0.1115    1.8691 C   0  0  0  0  0  0  0  0  0  0  0  0
   -2.4961   -1.2436    1.5044 C   0  0  0  0  0  0  0  0  0  0  0  0
   -2.1889   -1.1549    0.1735 N   0  0  0  0  0  0  0  0  0  0  0  0
   -1.4414   -2.1674   -0.5607 C   0  0  0  0  0  0  0  0  0  0  0  0
    0.0719   -2.0427   -0.4595 C   0  0  0  0  0  0  0  0  0  0  0  0
    0.7601   -3.0586   -0.5546 O   0  0  0  0  0  0  0  0  0  0  0  0
    0.5633   -0.7534   -0.3422 N   0  0  0  0  0  0  0  0  0  0  0  0
    1.9132   -0.3454   -0.2735 C   0  0  0  0  0  0  0  0  0  0  0  0
    2.1463    1.0420   -0.1260 C   0  0  0  0  0  0  0  0  0  0  0  0
    3.4454    1.5567   -0.0491 C   0  0  0  0  0  0  0  0  0  0  0  0
    4.4891    0.6640   -0.1224 C   0  0  0  0  0  0  0  0  0  0  0  0
    4.2726   -0.6851   -0.2659 C   0  0  0  0  0  0  0  0  0  0  0  0
    3.0013   -1.2207   -0.3444 C   0  0  0  0  0  0  0  0  0  0  0  0
    5.4350   -1.3913   -0.3185 O   0  0  0  0  0  0  0  0  0  0  0  0
    6.4044   -0.3321   -0.1855 C   0  0  0  0  0  0  0  0  0  0  0  0
    5.8103    0.9775   -0.0661 O   0  0  0  0  0  0  0  0  0  0  0  0
   -2.6850    0.0227   -0.3508 C   0  0  0  0  0  0  0  0  0  0  0  0
   -2.6205    0.5552   -1.6495 C   0  0  0  0  0  0  0  0  0  0  0  0
   -3.2105    1.8002   -1.8820 C   0  0  0  0  0  0  0  0  0  0  0  0
   -3.8445    2.4934   -0.8573 C   0  0  0  0  0  0  0  0  0  0  0  0
   -3.9055    1.9567    0.4329 C   0  0  0  0  0  0  0  0  0  0  0  0
   -3.3168    0.7012    0.6986 C   0  0  0  0  0  0  0  0  0  0  0  0
   -4.2519    1.1088    3.3201 H   0  0  0  0  0  0  0  0  0  0  0  0
   -2.1972   -2.0996    2.0995 H   0  0  0  0  0  0  0  0  0  0  0  0
   -1.7437   -3.1397   -0.1544 H   0  0  0  0  0  0  0  0  0  0  0  0
   -1.7368   -2.1326   -1.6133 H   0  0  0  0  0  0  0  0  0  0  0  0
   -0.1129   -0.0020   -0.2644 H   0  0  0  0  0  0  0  0  0  0  0  0
    1.3130    1.7390   -0.0673 H   0  0  0  0  0  0  0  0  0  0  0  0
    3.6255    2.6194    0.0653 H   0  0  0  0  0  0  0  0  0  0  0  0
    2.8931   -2.2919   -0.4567 H   0  0  0  0  0  0  0  0  0  0  0  0
    7.0133   -0.5233    0.7056 H   0  0  0  0  0  0  0  0  0  0  0  0
    7.0572   -0.3415   -1.0659 H   0  0  0  0  0  0  0  0  0  0  0  0
   -2.1331    0.0271   -2.4638 H   0  0  0  0  0  0  0  0  0  0  0  0
   -3.1765    2.2308   -2.8809 H   0  0  0  0  0  0  0  0  0  0  0  0
   -4.3007    3.4597   -1.0600 H   0  0  0  0  0  0  0  0  0  0  0  0
   -4.4082    2.5140    1.2185 H   0  0  0  0  0  0  0  0  0  0  0  0
  1  2  2  0
  2  3  1  0
  3  4  2  0
  4  5  1  0
  5  6  1  0
  6  7  1  0
  7  8  2  0
  7  9  1  0
  9 10  1  0
 10 11  2  0
 11 12  1  0
 12 13  2  0
 13 14  1  0
 14 15  2  0
 14 16  1  0
 16 17  1  0
 17 18  1  0
  5 19  1  0
 19 20  2  0
 20 21  1  0
 21 22  2  0
 22 23  1  0
 23 24  2  0
 24  3  1  0
 15 10  1  0
 24 19  1  0
 18 13  1  0
  2 25  1  0
  4 26  1  0
  6 27  1  0
  6 28  1  0
  9 29  1  0
 11 30  1  0
 12 31  1  0
 15 32  1  0
 17 33  1  0
 17 34  1  0
 20 35  1  0
 21 36  1  0
 22 37  1  0
 23 38  1  0
M  END
$$$$
