
     RDKit          3D

 42 44  0  0  0  0  0  0  0  0999 V2000
   -3.9656   -0.2054    3.5776 C   0  0  0  0  0  0  0  0  0  0  0  0
   -2.9644   -0.9748    2.9178 O   0  0  0  0  0  0  0  0  0  0  0  0
   -2.7392   -0.6934    1.5972 C   0  0  0  0  0  0  0  0  0  0  0  0
   -1.7108   -1.4385    1.0092 C   0  0  0  0  0  0  0  0  0  0  0  0
   -1.3717   -1.2528   -0.3335 C   0  0  0  0  0  0  0  0  0  0  0  0
   -2.0626   -0.3008   -1.0870 C   0  0  0  0  0  0  0  0  0  0  0  0
   -1.6562   -0.0501   -2.8020 S   0  0  0  0  0  6  0  0  0  0  0  0
   -0.9959   -1.2403   -3.2923 O   0  0  0  0  0  0  0  0  0  0  0  0
   -2.8426    0.4650   -3.4533 O   0  0  0  0  0  0  0  0  0  0  0  0
   -0.5616    1.2344   -2.7522 N   0  0  0  0  0  0  0  0  0  0  0  0
    0.6044    1.1549   -1.9336 C   0  0  0  0  0  0  0  0  0  0  0  0
    1.5441    0.1433   -2.1632 C   0  0  0  0  0  0  0  0  0  0  0  0
    2.6748    0.0087   -1.3471 C   0  0  0  0  0  0  0  0  0  0  0  0
    3.8402   -1.2837   -1.7502 S   0  0  0  0  0  0  0  0  0  0  0  0
    3.7741   -2.2794   -0.3249 C   0  0  0  0  0  0  0  0  0  0  0  0
    3.1600   -3.4997   -0.2745 N   0  0  0  0  0  0  0  0  0  0  0  0
    3.3654   -3.8836    0.9639 C   0  0  0  0  0  0  0  0  0  0  0  0
    4.0697   -2.9268    1.6248 N   0  0  0  0  0  0  0  0  0  0  0  0
    4.3502   -1.8858    0.8187 N   0  0  0  0  0  0  0  0  0  0  0  0
    2.8574    0.9221   -0.3020 C   0  0  0  0  0  0  0  0  0  0  0  0
    3.9202    0.8780    0.5587 O   0  0  0  0  0  0  0  0  0  0  0  0
    1.9415    1.9517   -0.0858 C   0  0  0  0  0  0  0  0  0  0  0  0
    0.8061    2.0845   -0.8992 C   0  0  0  0  0  0  0  0  0  0  0  0
   -0.1639    3.1977   -0.6159 C   0  0  0  0  0  0  0  0  0  0  0  0
   -3.1094    0.4314   -0.5176 C   0  0  0  0  0  0  0  0  0  0  0  0
   -3.4427    0.2366    0.8272 C   0  0  0  0  0  0  0  0  0  0  0  0
   -4.0147   -0.5349    4.6202 H   0  0  0  0  0  0  0  0  0  0  0  0
   -4.9526   -0.3725    3.1309 H   0  0  0  0  0  0  0  0  0  0  0  0
   -3.7067    0.8599    3.5771 H   0  0  0  0  0  0  0  0  0  0  0  0
   -1.1679   -2.1718    1.6008 H   0  0  0  0  0  0  0  0  0  0  0  0
   -0.5729   -1.8476   -0.7732 H   0  0  0  0  0  0  0  0  0  0  0  0
   -1.0199    2.1341   -2.8616 H   0  0  0  0  0  0  0  0  0  0  0  0
    1.3986   -0.5449   -2.9943 H   0  0  0  0  0  0  0  0  0  0  0  0
    3.0402   -4.8091    1.4193 H   0  0  0  0  0  0  0  0  0  0  0  0
    4.3804   -2.9124    2.5905 H   0  0  0  0  0  0  0  0  0  0  0  0
    4.3333   -0.0089    0.4902 H   0  0  0  0  0  0  0  0  0  0  0  0
    2.1227    2.6483    0.7312 H   0  0  0  0  0  0  0  0  0  0  0  0
   -1.1227    2.7921   -0.2765 H   0  0  0  0  0  0  0  0  0  0  0  0
    0.2119    3.8658    0.1688 H   0  0  0  0  0  0  0  0  0  0  0  0
   -0.3209    3.8092   -1.5106 H   0  0  0  0  0  0  0  0  0  0  0  0
   -3.6720    1.1494   -1.1141 H   0  0  0  0  0  0  0  0  0  0  0  0
   -4.2584    0.8227    1.2407 H   0  0  0  0  0  0  0  0  0  0  0  0
  1  2  1  0
  2  3  1  0
  3  4  2  0
  4  5  1  0
  5  6  2  0
  6  7  1  0
  7  8  2  0
  7  9  2  0
  7 10  1  0
 10 11  1  0
 11 12  2  0
 12 13  1  0
 13 14  1  0
 14 15  1  0
 15 16  1  0
 16 17  2  0
 17 18  1  0
 18 19  1  0
 13 20  2  0
 20 21  1  0
 20 22  1  0
 22 23  2  0
 23 24  1  0
  6 25  1  0
 25 26  2  0
 26  3  1  0
 23 11  1  0
 19 15  2  0
  1 27  1  0
  1 28  1  0
  1 29  1  0
  4 30  1  0
  5 31  1  0
 10 32  1  0
 12 33  1  0
 17 34  1  0
 18 35  1  0
 21 36  1  0
 22 37  1  0
 24 38  1  0
 24 39  1  0
 24 40  1  0
 25 41  1  0
 26 42  1  0
M  END
$$$$
