
     RDKit          3D

 57 59  0  0  0  0  0  0  0  0999 V2000
   -8.6479   -0.4124   -1.4620 C   0  0  0  0  0  0  0  0  0  0  0  0
   -7.6613    0.2887   -0.7192 O   0  0  0  0  0  0  0  0  0  0  0  0
   -6.4214   -0.2886   -0.5980 C   0  0  0  0  0  0  0  0  0  0  0  0
   -6.0454   -1.4878   -1.2176 C   0  0  0  0  0  0  0  0  0  0  0  0
   -4.7583   -1.9996   -1.0433 C   0  0  0  0  0  0  0  0  0  0  0  0
   -3.8466   -1.3026   -0.2517 C   0  0  0  0  0  0  0  0  0  0  0  0
   -2.2010   -1.9244   -0.0251 S   0  0  0  0  0  6  0  0  0  0  0  0
   -2.0618   -3.1493   -0.7840 O   0  0  0  0  0  0  0  0  0  0  0  0
   -1.9145   -1.8791    1.3905 O   0  0  0  0  0  0  0  0  0  0  0  0
   -1.2693   -0.7640   -0.7888 N   0  0  0  0  0  0  0  0  0  0  0  0
   -1.4564   -0.5277   -2.2287 C   0  0  0  0  0  0  0  0  0  0  0  0
   -0.0513   -0.5221   -2.7861 C   0  0  0  0  0  0  0  0  0  0  0  0
    0.7656   -0.1161   -1.6864 O   0  0  0  0  0  0  0  0  0  0  0  0
    0.1815   -0.7252   -0.5110 C   0  0  0  0  0  0  0  0  0  0  0  0
    0.8642   -2.0987   -0.2710 C   0  0  0  0  0  0  0  0  0  0  0  0
    2.3150   -2.0143   -0.2146 N   0  0  0  0  0  0  0  0  0  0  0  0
    2.9599   -1.4069    0.8373 C   0  0  0  0  0  0  0  0  0  0  0  0
    2.4348   -1.0126    1.8688 O   0  0  0  0  0  0  0  0  0  0  0  0
    4.4767   -1.2131    0.6123 C   0  0  0  0  0  0  0  0  0  0  0  0
    4.9842   -1.5307   -0.4541 O   0  0  0  0  0  0  0  0  0  0  0  0
    5.1213   -0.6602    1.6927 N   0  0  0  0  0  0  0  0  0  0  0  0
    6.4962   -0.2393    1.6377 C   0  0  0  0  0  0  0  0  0  0  0  0
    6.5966    1.2272    1.3028 C   0  0  0  0  0  0  0  0  0  0  0  0
    6.5932    1.6481   -0.0373 C   0  0  0  0  0  0  0  0  0  0  0  0
    6.6624    3.0059   -0.3520 C   0  0  0  0  0  0  0  0  0  0  0  0
    6.7277    3.9432    0.6713 C   0  0  0  0  0  0  0  0  0  0  0  0
    6.7931    5.2467    0.3694 F   0  0  0  0  0  0  0  0  0  0  0  0
    6.7221    3.5492    2.0042 C   0  0  0  0  0  0  0  0  0  0  0  0
    6.6527    2.1916    2.3218 C   0  0  0  0  0  0  0  0  0  0  0  0
   -4.2058   -0.1090    0.3824 C   0  0  0  0  0  0  0  0  0  0  0  0
   -5.4941    0.4039    0.2119 C   0  0  0  0  0  0  0  0  0  0  0  0
   -5.9422    1.5707    0.7800 O   0  0  0  0  0  0  0  0  0  0  0  0
   -5.0891    2.2204    1.7126 C   0  0  0  0  0  0  0  0  0  0  0  0
   -8.3581   -0.5024   -2.5142 H   0  0  0  0  0  0  0  0  0  0  0  0
   -8.8529   -1.3940   -1.0218 H   0  0  0  0  0  0  0  0  0  0  0  0
   -9.5737    0.1696   -1.4212 H   0  0  0  0  0  0  0  0  0  0  0  0
   -6.7338   -2.0478   -1.8423 H   0  0  0  0  0  0  0  0  0  0  0  0
   -4.4816   -2.9348   -1.5254 H   0  0  0  0  0  0  0  0  0  0  0  0
   -1.9242    0.4552   -2.3511 H   0  0  0  0  0  0  0  0  0  0  0  0
   -2.0796   -1.2709   -2.7321 H   0  0  0  0  0  0  0  0  0  0  0  0
    0.0698    0.1714   -3.6225 H   0  0  0  0  0  0  0  0  0  0  0  0
    0.2607   -1.5208   -3.1102 H   0  0  0  0  0  0  0  0  0  0  0  0
    0.3731   -0.0498    0.3288 H   0  0  0  0  0  0  0  0  0  0  0  0
    0.5232   -2.5424    0.6694 H   0  0  0  0  0  0  0  0  0  0  0  0
    0.6380   -2.7963   -1.0838 H   0  0  0  0  0  0  0  0  0  0  0  0
    2.8579   -2.1098   -1.0691 H   0  0  0  0  0  0  0  0  0  0  0  0
    4.5278   -0.3438    2.4544 H   0  0  0  0  0  0  0  0  0  0  0  0
    7.0485   -0.8358    0.9023 H   0  0  0  0  0  0  0  0  0  0  0  0
    6.9418   -0.4380    2.6185 H   0  0  0  0  0  0  0  0  0  0  0  0
    6.5311    0.9155   -0.8409 H   0  0  0  0  0  0  0  0  0  0  0  0
    6.6616    3.3361   -1.3858 H   0  0  0  0  0  0  0  0  0  0  0  0
    6.7687    4.3009    2.7855 H   0  0  0  0  0  0  0  0  0  0  0  0
    6.6421    1.8910    3.3672 H   0  0  0  0  0  0  0  0  0  0  0  0
   -3.4656    0.3972    0.9946 H   0  0  0  0  0  0  0  0  0  0  0  0
   -5.6281    3.0843    2.1134 H   0  0  0  0  0  0  0  0  0  0  0  0
   -4.1833    2.5920    1.2228 H   0  0  0  0  0  0  0  0  0  0  0  0
   -4.8443    1.5620    2.5528 H   0  0  0  0  0  0  0  0  0  0  0  0
  1  2  1  0
  2  3  1  0
  3  4  2  0
  4  5  1  0
  5  6  2  0
  6  7  1  0
  7  8  2  0
  7  9  2  0
  7 10  1  0
 10 11  1  0
 11 12  1  0
 12 13  1  0
 13 14  1  0
 14 15  1  0
 15 16  1  0
 16 17  1  0
 17 18  2  0
 17 19  1  0
 19 20  2  0
 19 21  1  0
 21 22  1  0
 22 23  1  0
 23 24  2  0
 24 25  1  0
 25 26  2  0
 26 27  1  0
 26 28  1  0
 28 29  2  0
  6 30  1  0
 30 31  2  0
 31 32  1  0
 32 33  1  0
 31  3  1  0
 14 10  1  0
 29 23  1  0
  1 34  1  0
  1 35  1  0
  1 36  1  0
  4 37  1  0
  5 38  1  0
 11 39  1  0
 11 40  1  0
 12 41  1  0
 12 42  1  0
 14 43  1  0
 15 44  1  0
 15 45  1  0
 16 46  1  0
 21 47  1  0
 22 48  1  0
 22 49  1  0
 24 50  1  0
 25 51  1  0
 28 52  1  0
 29 53  1  0
 30 54  1  0
 33 55  1  0
 33 56  1  0
 33 57  1  0
M  END
$$$$
