
     RDKit          3D

 53 58  0  0  0  0  0  0  0  0999 V2000
    1.3587   -2.1479   -0.4931 O   0  0  0  0  0  0  0  0  0  0  0  0
    1.6970   -0.9838   -0.2761 C   0  0  0  0  0  0  0  0  0  0  0  0
    1.1117    0.1683   -1.1096 C   0  0  0  0  0  0  0  0  0  0  0  0
   -0.3582    0.1185   -1.1812 N   0  0  0  0  0  4  0  0  0  0  0  0
   -1.2464    1.0794   -0.6973 C   0  0  0  0  0  0  0  0  0  0  0  0
   -2.5465    0.6711   -0.9669 C   0  0  0  0  0  0  0  0  0  0  0  0
   -3.8645    1.4249   -0.5591 C   0  0  0  0  0  0  0  0  0  0  0  0
   -3.7861    2.6738    0.0757 C   0  0  0  0  0  0  0  0  0  0  0  0
   -4.9539    3.3481    0.4437 C   0  0  0  0  0  0  0  0  0  0  0  0
   -6.1908    2.7745    0.1815 C   0  0  0  0  0  0  0  0  0  0  0  0
   -7.3075    3.4207    0.5353 F   0  0  0  0  0  0  0  0  0  0  0  0
   -6.2822    1.5362   -0.4404 C   0  0  0  0  0  0  0  0  0  0  0  0
   -5.1174    0.8574   -0.8113 C   0  0  0  0  0  0  0  0  0  0  0  0
   -2.3686   -0.5138   -1.6565 N   0  0  0  0  0  0  0  0  0  0  0  0
   -1.0811   -0.8417   -1.7544 C   0  0  0  0  0  0  0  0  0  0  0  0
   -0.8625   -2.1028   -2.5038 C   0  0  0  0  0  0  0  0  0  0  0  0
   -2.2275   -2.3062   -3.1892 C   0  0  0  0  0  0  0  0  0  0  0  0
   -3.2245   -1.4824   -2.3310 C   0  0  0  0  0  0  0  0  0  0  0  0
    2.6555   -0.5703    0.6547 N   0  0  0  0  0  0  0  0  0  0  0  0
    3.9989   -1.0925    0.6181 C   0  0  0  0  0  0  0  0  0  0  0  0
    4.3021   -2.2343   -0.1523 C   0  0  0  0  0  0  0  0  0  0  0  0
    5.5963   -2.7632   -0.2138 C   0  0  0  0  0  0  0  0  0  0  0  0
    6.6289   -2.1541    0.4811 C   0  0  0  0  0  0  0  0  0  0  0  0
    6.3659   -1.0103    1.2266 C   0  0  0  0  0  0  0  0  0  0  0  0
    5.0667   -0.4755    1.2955 C   0  0  0  0  0  0  0  0  0  0  0  0
    4.9015    1.0587    2.1706 S   0  0  0  0  0  0  0  0  0  0  0  0
    3.1645    1.0524    2.4891 C   0  0  0  0  0  0  0  0  0  0  0  0
    2.7046    1.8854    3.5235 C   0  0  0  0  0  0  0  0  0  0  0  0
    1.3519    1.9466    3.8479 C   0  0  0  0  0  0  0  0  0  0  0  0
    0.4456    1.1658    3.1467 C   0  0  0  0  0  0  0  0  0  0  0  0
    0.8953    0.3444    2.1096 C   0  0  0  0  0  0  0  0  0  0  0  0
    2.2587    0.2888    1.7415 C   0  0  0  0  0  0  0  0  0  0  0  0
    1.4211    1.1465   -0.7296 H   0  0  0  0  0  0  0  0  0  0  0  0
    1.5017    0.0761   -2.1295 H   0  0  0  0  0  0  0  0  0  0  0  0
   -0.8335    1.9404   -0.1988 H   0  0  0  0  0  0  0  0  0  0  0  0
   -2.8370    3.1549    0.2928 H   0  0  0  0  0  0  0  0  0  0  0  0
   -4.9098    4.3178    0.9322 H   0  0  0  0  0  0  0  0  0  0  0  0
   -7.2627    1.1066   -0.6281 H   0  0  0  0  0  0  0  0  0  0  0  0
   -5.2287   -0.1134   -1.2770 H   0  0  0  0  0  0  0  0  0  0  0  0
   -0.0361   -1.9694   -3.2023 H   0  0  0  0  0  0  0  0  0  0  0  0
   -0.6652   -2.8831   -1.7672 H   0  0  0  0  0  0  0  0  0  0  0  0
   -2.5103   -3.3583   -3.2787 H   0  0  0  0  0  0  0  0  0  0  0  0
   -2.1889   -1.8778   -4.1980 H   0  0  0  0  0  0  0  0  0  0  0  0
   -3.7094   -2.1081   -1.5761 H   0  0  0  0  0  0  0  0  0  0  0  0
   -3.9641   -0.9832   -2.9608 H   0  0  0  0  0  0  0  0  0  0  0  0
    3.5416   -2.7782   -0.7044 H   0  0  0  0  0  0  0  0  0  0  0  0
    5.7912   -3.6585   -0.8008 H   0  0  0  0  0  0  0  0  0  0  0  0
    7.6367   -2.5607    0.4386 H   0  0  0  0  0  0  0  0  0  0  0  0
    7.1906   -0.5278    1.7495 H   0  0  0  0  0  0  0  0  0  0  0  0
    3.4076    2.4883    4.0979 H   0  0  0  0  0  0  0  0  0  0  0  0
    1.0170    2.5822    4.6650 H   0  0  0  0  0  0  0  0  0  0  0  0
   -0.6050    1.1725    3.4286 H   0  0  0  0  0  0  0  0  0  0  0  0
    0.1572   -0.3032    1.6416 H   0  0  0  0  0  0  0  0  0  0  0  0
  1  2  2  0
  2  3  1  0
  3  4  1  0
  4  5  1  0
  5  6  2  0
  6  7  1  0
  7  8  2  0
  8  9  1  0
  9 10  2  0
 10 11  1  0
 10 12  1  0
 12 13  2  0
  6 14  1  0
 14 15  1  0
 15 16  1  0
 16 17  1  0
 17 18  1  0
  2 19  1  0
 19 20  1  0
 20 21  2  0
 21 22  1  0
 22 23  2  0
 23 24  1  0
 24 25  2  0
 25 26  1  0
 26 27  1  0
 27 28  2  0
 28 29  1  0
 29 30  2  0
 30 31  1  0
 31 32  2  0
 15  4  2  0
 32 19  1  0
 13  7  1  0
 18 14  1  0
 25 20  1  0
 32 27  1  0
  3 33  1  0
  3 34  1  0
  5 35  1  0
  8 36  1  0
  9 37  1  0
 12 38  1  0
 13 39  1  0
 16 40  1  0
 16 41  1  0
 17 42  1  0
 17 43  1  0
 18 44  1  0
 18 45  1  0
 21 46  1  0
 22 47  1  0
 23 48  1  0
 24 49  1  0
 28 50  1  0
 29 51  1  0
 30 52  1  0
 31 53  1  0
M  CHG  1   4   1
M  END
$$$$
