
     RDKit          3D

 53 54  0  0  0  0  0  0  0  0999 V2000
   -6.3306   -1.0266    1.7115 C   0  0  0  0  0  0  0  0  0  0  0  0
   -5.8034   -0.2201    0.5384 C   0  0  0  0  0  0  0  0  0  0  0  0
   -5.4923   -1.0311   -0.6653 N   0  0  0  0  0  0  0  0  0  0  0  0
   -6.6913   -1.4777   -1.4220 C   0  0  0  0  0  0  0  0  0  0  0  0
   -6.7402   -0.7421   -2.7497 C   0  0  0  0  0  0  0  0  0  0  0  0
   -4.2181   -2.1573   -0.6136 S   0  0  0  0  0  6  0  0  0  0  0  0
   -3.9685   -2.6157   -1.9643 O   0  0  0  0  0  0  0  0  0  0  0  0
   -4.4829   -3.1009    0.4503 O   0  0  0  0  0  0  0  0  0  0  0  0
   -2.8241   -1.1580   -0.1470 C   0  0  0  0  0  0  0  0  0  0  0  0
   -2.2498   -1.2988    1.1183 C   0  0  0  0  0  0  0  0  0  0  0  0
   -1.1462   -0.5133    1.4609 C   0  0  0  0  0  0  0  0  0  0  0  0
   -0.6110    0.4015    0.5401 C   0  0  0  0  0  0  0  0  0  0  0  0
    0.5669    1.2079    0.9600 C   0  0  0  0  0  0  0  0  0  0  0  0
    1.0267    1.1951    2.0890 O   0  0  0  0  0  0  0  0  0  0  0  0
    1.0597    1.9192   -0.0850 O   0  0  0  0  0  0  0  0  0  0  0  0
    2.1678    2.7617    0.2439 C   0  0  0  0  0  0  0  0  0  0  0  0
    3.5022    2.0245    0.3740 C   0  0  0  0  0  0  0  0  0  0  0  0
    4.4523    2.4670    1.0188 O   0  0  0  0  0  0  0  0  0  0  0  0
    3.5957    0.8595   -0.3628 N   0  0  0  0  0  0  0  0  0  0  0  0
    4.7402   -0.0180   -0.1968 C   0  0  0  0  0  0  0  0  0  0  0  0
    6.0463    0.5836   -0.7383 C   0  0  0  0  0  0  0  0  0  0  0  0
    7.1784    0.2622    0.1054 N   0  0  0  0  0  0  0  0  0  0  0  0
    7.6644    1.0560    1.1172 C   0  0  0  0  0  0  0  0  0  0  0  0
    7.0984    2.2543    1.4353 O   0  0  0  0  0  0  0  0  0  0  0  0
    8.7289    0.5546    1.7504 C   0  0  0  0  0  0  0  0  0  0  0  0
    9.1745   -0.9994    1.1183 S   0  0  0  0  0  0  0  0  0  0  0  0
    7.8448   -0.9458   -0.0502 C   0  0  0  0  0  0  0  0  0  0  0  0
    7.5851   -1.8457   -0.8327 O   0  0  0  0  0  0  0  0  0  0  0  0
   -1.1931    0.5274   -0.7307 C   0  0  0  0  0  0  0  0  0  0  0  0
   -2.2981   -0.2549   -1.0765 C   0  0  0  0  0  0  0  0  0  0  0  0
   -5.5414   -1.6249    2.1746 H   0  0  0  0  0  0  0  0  0  0  0  0
   -7.1413   -1.6996    1.4178 H   0  0  0  0  0  0  0  0  0  0  0  0
   -6.7141   -0.3517    2.4839 H   0  0  0  0  0  0  0  0  0  0  0  0
   -6.5497    0.5340    0.2576 H   0  0  0  0  0  0  0  0  0  0  0  0
   -4.9187    0.3494    0.8403 H   0  0  0  0  0  0  0  0  0  0  0  0
   -6.6704   -2.5597   -1.5923 H   0  0  0  0  0  0  0  0  0  0  0  0
   -7.6097   -1.2742   -0.8610 H   0  0  0  0  0  0  0  0  0  0  0  0
   -5.8485   -0.9480   -3.3505 H   0  0  0  0  0  0  0  0  0  0  0  0
   -7.6184   -1.0516   -3.3246 H   0  0  0  0  0  0  0  0  0  0  0  0
   -6.7960    0.3407   -2.5957 H   0  0  0  0  0  0  0  0  0  0  0  0
   -2.6486   -2.0120    1.8371 H   0  0  0  0  0  0  0  0  0  0  0  0
   -0.7010   -0.6222    2.4494 H   0  0  0  0  0  0  0  0  0  0  0  0
    1.9674    3.3186    1.1667 H   0  0  0  0  0  0  0  0  0  0  0  0
    2.2742    3.4904   -0.5665 H   0  0  0  0  0  0  0  0  0  0  0  0
    2.7319    0.4635   -0.7164 H   0  0  0  0  0  0  0  0  0  0  0  0
    4.5138   -0.9549   -0.7171 H   0  0  0  0  0  0  0  0  0  0  0  0
    4.8198   -0.2446    0.8733 H   0  0  0  0  0  0  0  0  0  0  0  0
    6.2294    0.1700   -1.7384 H   0  0  0  0  0  0  0  0  0  0  0  0
    5.9961    1.6693   -0.8744 H   0  0  0  0  0  0  0  0  0  0  0  0
    6.1387    2.2341    1.2294 H   0  0  0  0  0  0  0  0  0  0  0  0
    9.2493    1.0355    2.5663 H   0  0  0  0  0  0  0  0  0  0  0  0
   -0.8006    1.2297   -1.4625 H   0  0  0  0  0  0  0  0  0  0  0  0
   -2.7451   -0.1610   -2.0648 H   0  0  0  0  0  0  0  0  0  0  0  0
  1  2  1  0
  2  3  1  0
  3  4  1  0
  4  5  1  0
  3  6  1  0
  6  7  2  0
  6  8  2  0
  6  9  1  0
  9 10  2  0
 10 11  1  0
 11 12  2  0
 12 13  1  0
 13 14  2  0
 13 15  1  0
 15 16  1  0
 16 17  1  0
 17 18  2  0
 17 19  1  0
 19 20  1  0
 20 21  1  0
 21 22  1  0
 22 23  1  0
 23 24  1  0
 23 25  2  0
 25 26  1  0
 26 27  1  0
 27 28  2  0
 12 29  1  0
 29 30  2  0
 30  9  1  0
 27 22  1  0
  1 31  1  0
  1 32  1  0
  1 33  1  0
  2 34  1  0
  2 35  1  0
  4 36  1  0
  4 37  1  0
  5 38  1  0
  5 39  1  0
  5 40  1  0
 10 41  1  0
 11 42  1  0
 16 43  1  0
 16 44  1  0
 19 45  1  0
 20 46  1  0
 20 47  1  0
 21 48  1  0
 21 49  1  0
 24 50  1  0
 25 51  1  0
 29 52  1  0
 30 53  1  0
M  END
$$$$
