
     RDKit          3D

 43 45  0  0  0  0  0  0  0  0999 V2000
    2.7191    1.4471    1.8375 O   0  0  0  0  0  0  0  0  0  0  0  0
    2.7397    0.2234    1.9386 C   0  0  0  0  0  0  0  0  0  0  0  0
    4.0151   -0.4964    2.3611 C   0  0  0  0  0  0  0  0  0  0  0  0
    4.3693   -1.9433    1.2993 S   0  0  0  0  0  0  0  0  0  0  0  0
    4.6416   -1.1210   -0.2644 C   0  0  0  0  0  0  0  0  0  0  0  0
    3.8226   -1.4506   -1.3504 C   0  0  0  0  0  0  0  0  0  0  0  0
    4.0063   -0.8279   -2.5890 C   0  0  0  0  0  0  0  0  0  0  0  0
    5.0147    0.1214   -2.7549 C   0  0  0  0  0  0  0  0  0  0  0  0
    5.8441    0.4459   -1.6832 C   0  0  0  0  0  0  0  0  0  0  0  0
    5.6565   -0.1764   -0.4513 C   0  0  0  0  0  0  0  0  0  0  0  0
    6.4817    0.1462    0.5565 F   0  0  0  0  0  0  0  0  0  0  0  0
    1.6631   -0.6311    1.7612 N   0  0  0  0  0  0  0  0  0  0  0  0
    0.3445   -0.2991    1.3988 C   0  0  0  0  0  0  0  0  0  0  0  0
   -0.1165    1.0012    1.2293 C   0  0  0  0  0  0  0  0  0  0  0  0
   -1.4499    1.2380    0.8636 C   0  0  0  0  0  0  0  0  0  0  0  0
   -2.3629    0.1939    0.6468 C   0  0  0  0  0  0  0  0  0  0  0  0
   -3.6871    0.4906    0.2915 N   0  0  0  0  0  0  0  0  0  0  0  0
   -4.6944   -0.5889    0.3733 C   0  0  0  0  0  0  0  0  0  0  0  0
   -6.1020   -0.0098    0.1619 C   0  0  0  0  0  0  0  0  0  0  0  0
   -6.2019    0.6735   -1.0978 O   0  0  0  0  0  0  0  0  0  0  0  0
   -5.2621    1.7592   -1.1393 C   0  0  0  0  0  0  0  0  0  0  0  0
   -3.8147    1.2683   -0.9670 C   0  0  0  0  0  0  0  0  0  0  0  0
   -1.8845   -1.1072    0.8427 C   0  0  0  0  0  0  0  0  0  0  0  0
   -0.5521   -1.3525    1.2075 C   0  0  0  0  0  0  0  0  0  0  0  0
    4.8540    0.2046    2.3471 H   0  0  0  0  0  0  0  0  0  0  0  0
    3.8856   -0.8428    3.3915 H   0  0  0  0  0  0  0  0  0  0  0  0
    3.0299   -2.1875   -1.2437 H   0  0  0  0  0  0  0  0  0  0  0  0
    3.3591   -1.0838   -3.4249 H   0  0  0  0  0  0  0  0  0  0  0  0
    5.1546    0.6059   -3.7182 H   0  0  0  0  0  0  0  0  0  0  0  0
    6.6364    1.1791   -1.7973 H   0  0  0  0  0  0  0  0  0  0  0  0
    1.8754   -1.6204    1.8315 H   0  0  0  0  0  0  0  0  0  0  0  0
    0.5255    1.8624    1.3830 H   0  0  0  0  0  0  0  0  0  0  0  0
   -1.7768    2.2717    0.7782 H   0  0  0  0  0  0  0  0  0  0  0  0
   -4.6632   -1.0750    1.3553 H   0  0  0  0  0  0  0  0  0  0  0  0
   -4.4977   -1.3369   -0.4052 H   0  0  0  0  0  0  0  0  0  0  0  0
   -6.3694    0.6844    0.9677 H   0  0  0  0  0  0  0  0  0  0  0  0
   -6.8393   -0.8187    0.1589 H   0  0  0  0  0  0  0  0  0  0  0  0
   -5.5245    2.4865   -0.3615 H   0  0  0  0  0  0  0  0  0  0  0  0
   -5.3720    2.2545   -2.1092 H   0  0  0  0  0  0  0  0  0  0  0  0
   -3.5472    0.6215   -1.8126 H   0  0  0  0  0  0  0  0  0  0  0  0
   -3.1560    2.1427   -0.9835 H   0  0  0  0  0  0  0  0  0  0  0  0
   -2.5294   -1.9687    0.7011 H   0  0  0  0  0  0  0  0  0  0  0  0
   -0.2352   -2.3840    1.3367 H   0  0  0  0  0  0  0  0  0  0  0  0
  1  2  2  0
  2  3  1  0
  3  4  1  0
  4  5  1  0
  5  6  2  0
  6  7  1  0
  7  8  2  0
  8  9  1  0
  9 10  2  0
 10 11  1  0
  2 12  1  0
 12 13  1  0
 13 14  2  0
 14 15  1  0
 15 16  2  0
 16 17  1  0
 17 18  1  0
 18 19  1  0
 19 20  1  0
 20 21  1  0
 21 22  1  0
 16 23  1  0
 23 24  2  0
 10  5  1  0
 24 13  1  0
 22 17  1  0
  3 25  1  0
  3 26  1  0
  6 27  1  0
  7 28  1  0
  8 29  1  0
  9 30  1  0
 12 31  1  0
 14 32  1  0
 15 33  1  0
 18 34  1  0
 18 35  1  0
 19 36  1  0
 19 37  1  0
 21 38  1  0
 21 39  1  0
 22 40  1  0
 22 41  1  0
 23 42  1  0
 24 43  1  0
M  END
$$$$
