
     RDKit          3D

 40 41  0  0  0  0  0  0  0  0999 V2000
   -6.9044   -0.5942    0.1513 C   0  0  0  0  0  0  0  0  0  0  0  0
   -5.4313   -0.3101    0.1079 C   0  0  0  0  0  0  0  0  0  0  0  0
   -4.7167   -0.0948    1.2816 C   0  0  0  0  0  0  0  0  0  0  0  0
   -3.3485    0.1359    1.2169 C   0  0  0  0  0  0  0  0  0  0  0  0
   -2.6960    0.1390   -0.0204 C   0  0  0  0  0  0  0  0  0  0  0  0
   -1.2569    0.4042   -0.0911 C   0  0  0  0  0  0  0  0  0  0  0  0
   -0.3514   -0.4549    0.4034 C   0  0  0  0  0  0  0  0  0  0  0  0
    1.1022   -0.2338    0.3718 C   0  0  0  0  0  0  0  0  0  0  0  0
    1.8923   -0.8066    1.3683 C   0  0  0  0  0  0  0  0  0  0  0  0
    3.2879   -0.6508    1.3605 C   0  0  0  0  0  0  0  0  0  0  0  0
    3.9586    0.0784    0.3655 C   0  0  0  0  0  0  0  0  0  0  0  0
    5.3490    0.2143    0.3471 N   0  0  0  0  0  0  0  0  0  0  0  0
    5.9528    1.2635   -0.4745 C   0  0  0  0  0  0  0  0  0  0  0  0
    6.1290   -0.1952    1.5150 C   0  0  0  0  0  0  0  0  0  0  0  0
    3.1428    0.6216   -0.6410 C   0  0  0  0  0  0  0  0  0  0  0  0
    1.7458    0.4719   -0.6443 C   0  0  0  0  0  0  0  0  0  0  0  0
   -3.4070   -0.0894   -1.1578 N   0  0  0  0  0  4  0  0  0  0  0  0
   -2.7319   -0.1283   -2.4710 C   0  0  0  0  0  0  0  0  0  0  0  0
   -4.7420   -0.3148   -1.1038 C   0  0  0  0  0  0  0  0  0  0  0  0
   -7.3784   -0.0698    0.9876 H   0  0  0  0  0  0  0  0  0  0  0  0
   -7.3948   -0.2525   -0.7663 H   0  0  0  0  0  0  0  0  0  0  0  0
   -7.0748   -1.6692    0.2643 H   0  0  0  0  0  0  0  0  0  0  0  0
   -5.2177   -0.1009    2.2496 H   0  0  0  0  0  0  0  0  0  0  0  0
   -2.7925    0.3189    2.1355 H   0  0  0  0  0  0  0  0  0  0  0  0
   -0.9659    1.3448   -0.5503 H   0  0  0  0  0  0  0  0  0  0  0  0
   -0.6639   -1.3811    0.8854 H   0  0  0  0  0  0  0  0  0  0  0  0
    1.4452   -1.3839    2.1748 H   0  0  0  0  0  0  0  0  0  0  0  0
    3.8368   -1.1269    2.1681 H   0  0  0  0  0  0  0  0  0  0  0  0
    5.7627    1.0905   -1.5391 H   0  0  0  0  0  0  0  0  0  0  0  0
    5.5760    2.2518   -0.1890 H   0  0  0  0  0  0  0  0  0  0  0  0
    7.0428    1.2819   -0.3630 H   0  0  0  0  0  0  0  0  0  0  0  0
    7.2031   -0.0640    1.3418 H   0  0  0  0  0  0  0  0  0  0  0  0
    5.8596    0.3993    2.3949 H   0  0  0  0  0  0  0  0  0  0  0  0
    5.9890   -1.2597    1.7320 H   0  0  0  0  0  0  0  0  0  0  0  0
    3.5795    1.1719   -1.4695 H   0  0  0  0  0  0  0  0  0  0  0  0
    1.1931    0.9090   -1.4700 H   0  0  0  0  0  0  0  0  0  0  0  0
   -2.2983    0.8569   -2.6610 H   0  0  0  0  0  0  0  0  0  0  0  0
   -3.4538   -0.3624   -3.2575 H   0  0  0  0  0  0  0  0  0  0  0  0
   -1.9670   -0.9087   -2.4416 H   0  0  0  0  0  0  0  0  0  0  0  0
   -5.2553   -0.5017   -2.0437 H   0  0  0  0  0  0  0  0  0  0  0  0
  1  2  1  0
  2  3  2  0
  3  4  1  0
  4  5  2  0
  5  6  1  0
  6  7  2  3
  7  8  1  0
  8  9  2  0
  9 10  1  0
 10 11  2  0
 11 12  1  0
 12 13  1  0
 12 14  1  0
 11 15  1  0
 15 16  2  0
  5 17  1  0
 17 18  1  0
 17 19  2  0
 19  2  1  0
 16  8  1  0
  1 20  1  0
  1 21  1  0
  1 22  1  0
  3 23  1  0
  4 24  1  0
  6 25  1  0
  7 26  1  0
  9 27  1  0
 10 28  1  0
 13 29  1  0
 13 30  1  0
 13 31  1  0
 14 32  1  0
 14 33  1  0
 14 34  1  0
 15 35  1  0
 16 36  1  0
 18 37  1  0
 18 38  1  0
 18 39  1  0
 19 40  1  0
M  CHG  1  17   1
M  END
$$$$
