
     RDKit          3D

 44 46  0  0  0  0  0  0  0  0999 V2000
   -3.5000   -2.7225   -2.9277 C   0  0  0  0  0  0  0  0  0  0  0  0
   -3.3763   -1.5518   -1.9931 C   0  0  0  0  0  0  0  0  0  0  0  0
   -4.4630   -0.6868   -1.8105 C   0  0  0  0  0  0  0  0  0  0  0  0
   -4.3626    0.4114   -0.9544 C   0  0  0  0  0  0  0  0  0  0  0  0
   -3.1702    0.6755   -0.2693 C   0  0  0  0  0  0  0  0  0  0  0  0
   -3.0255    1.8808    0.6437 C   0  0  0  0  0  0  0  0  0  0  0  0
   -4.0261    1.8371    1.8010 C   0  0  0  0  0  0  0  0  0  0  0  0
   -3.1489    3.1918   -0.1361 C   0  0  0  0  0  0  0  0  0  0  0  0
   -2.0817   -0.1936   -0.4551 C   0  0  0  0  0  0  0  0  0  0  0  0
   -2.1835   -1.3112   -1.2931 C   0  0  0  0  0  0  0  0  0  0  0  0
   -1.1586   -2.1919   -1.5251 O   0  0  0  0  0  0  0  0  0  0  0  0
   -0.2447   -2.4020   -0.4615 C   0  0  0  0  0  0  0  0  0  0  0  0
    1.0126   -1.5171   -0.4785 C   0  0  0  0  0  0  0  0  0  0  0  0
    1.2872   -0.7894   -1.4259 O   0  0  0  0  0  0  0  0  0  0  0  0
    1.7451   -1.6570    0.6845 N   0  0  0  0  0  0  0  0  0  0  0  0
    2.9091   -1.0052    1.0090 C   0  0  0  0  0  0  0  0  0  0  0  0
    3.5126   -1.2011    2.1617 N   0  0  0  0  0  0  0  0  0  0  0  0
    4.6615   -0.4422    2.2824 N   0  0  0  0  0  0  0  0  0  0  0  0
    4.8718    0.2828    1.2064 C   0  0  0  0  0  0  0  0  0  0  0  0
    6.0952    1.2403    1.0708 C   0  0  0  0  0  0  0  0  0  0  0  0
    7.4348    0.8067    1.6094 C   0  0  0  0  0  0  0  0  0  0  0  0
    7.2137    0.8771    0.1270 C   0  0  0  0  0  0  0  0  0  0  0  0
    3.6908    0.1099   -0.0149 S   0  0  0  0  0  0  0  0  0  0  0  0
   -3.3466   -3.6611   -2.3828 H   0  0  0  0  0  0  0  0  0  0  0  0
   -4.4936   -2.7658   -3.3900 H   0  0  0  0  0  0  0  0  0  0  0  0
   -2.7629   -2.6439   -3.7339 H   0  0  0  0  0  0  0  0  0  0  0  0
   -5.3975   -0.8589   -2.3411 H   0  0  0  0  0  0  0  0  0  0  0  0
   -5.2232    1.0670   -0.8411 H   0  0  0  0  0  0  0  0  0  0  0  0
   -2.0219    1.8630    1.0890 H   0  0  0  0  0  0  0  0  0  0  0  0
   -3.9345    0.9005    2.3620 H   0  0  0  0  0  0  0  0  0  0  0  0
   -5.0613    1.9174    1.4527 H   0  0  0  0  0  0  0  0  0  0  0  0
   -3.8458    2.6636    2.4965 H   0  0  0  0  0  0  0  0  0  0  0  0
   -2.9593    4.0489    0.5188 H   0  0  0  0  0  0  0  0  0  0  0  0
   -2.4222    3.2296   -0.9555 H   0  0  0  0  0  0  0  0  0  0  0  0
   -4.1468    3.3188   -0.5698 H   0  0  0  0  0  0  0  0  0  0  0  0
   -1.1463    0.0401    0.0433 H   0  0  0  0  0  0  0  0  0  0  0  0
    0.1098   -3.4357   -0.5614 H   0  0  0  0  0  0  0  0  0  0  0  0
   -0.7414   -2.3396    0.5162 H   0  0  0  0  0  0  0  0  0  0  0  0
    1.4309   -2.2876    1.4095 H   0  0  0  0  0  0  0  0  0  0  0  0
    5.8427    2.2907    1.1628 H   0  0  0  0  0  0  0  0  0  0  0  0
    8.0616    1.5614    2.0701 H   0  0  0  0  0  0  0  0  0  0  0  0
    7.5159   -0.1722    2.0679 H   0  0  0  0  0  0  0  0  0  0  0  0
    7.6933    1.6800   -0.4216 H   0  0  0  0  0  0  0  0  0  0  0  0
    7.1554   -0.0576   -0.4192 H   0  0  0  0  0  0  0  0  0  0  0  0
  1  2  1  0
  2  3  2  0
  3  4  1  0
  4  5  2  0
  5  6  1  0
  6  7  1  0
  6  8  1  0
  5  9  1  0
  9 10  2  0
 10 11  1  0
 11 12  1  0
 12 13  1  0
 13 14  2  0
 13 15  1  0
 15 16  1  0
 16 17  2  0
 17 18  1  0
 18 19  2  0
 19 20  1  0
 20 21  1  0
 21 22  1  0
 19 23  1  0
 10  2  1  0
 23 16  1  0
 22 20  1  0
  1 24  1  0
  1 25  1  0
  1 26  1  0
  3 27  1  0
  4 28  1  0
  6 29  1  0
  7 30  1  0
  7 31  1  0
  7 32  1  0
  8 33  1  0
  8 34  1  0
  8 35  1  0
  9 36  1  0
 12 37  1  0
 12 38  1  0
 15 39  1  0
 20 40  1  0
 21 41  1  0
 21 42  1  0
 22 43  1  0
 22 44  1  0
M  END
$$$$
