
     RDKit          3D

 56 59  0  0  0  0  0  0  0  0999 V2000
    9.2986    1.0226    0.5229 C   0  0  0  0  0  0  0  0  0  0  0  0
    8.7322   -0.0336    1.2898 O   0  0  0  0  0  0  0  0  0  0  0  0
    7.3686   -0.0590    1.3876 C   0  0  0  0  0  0  0  0  0  0  0  0
    6.4796    0.6835    0.6046 C   0  0  0  0  0  0  0  0  0  0  0  0
    5.1005    0.5627    0.8051 C   0  0  0  0  0  0  0  0  0  0  0  0
    4.6148   -0.3119    1.7831 C   0  0  0  0  0  0  0  0  0  0  0  0
    2.8638   -0.4278    2.0539 S   0  0  0  0  0  6  0  0  0  0  0  0
    2.2878    0.8632    1.7432 O   0  0  0  0  0  0  0  0  0  0  0  0
    2.6425   -1.0599    3.3341 O   0  0  0  0  0  0  0  0  0  0  0  0
    2.3821   -1.5067    0.8488 N   0  0  0  0  0  0  0  0  0  0  0  0
    2.9167   -2.8751    0.9094 C   0  0  0  0  0  0  0  0  0  0  0  0
    1.9086   -3.6372    0.0820 C   0  0  0  0  0  0  0  0  0  0  0  0
    0.6542   -3.0444    0.4249 O   0  0  0  0  0  0  0  0  0  0  0  0
    0.9097   -1.6550    0.7459 C   0  0  0  0  0  0  0  0  0  0  0  0
    0.3502   -0.7774   -0.3920 C   0  0  0  0  0  0  0  0  0  0  0  0
   -1.0823   -0.9355   -0.5715 N   0  0  0  0  0  0  0  0  0  0  0  0
   -1.9892   -0.2623    0.2117 C   0  0  0  0  0  0  0  0  0  0  0  0
   -1.7274    0.6226    1.0115 O   0  0  0  0  0  0  0  0  0  0  0  0
   -3.4535   -0.7136    0.0111 C   0  0  0  0  0  0  0  0  0  0  0  0
   -3.7153   -1.6429   -0.7401 O   0  0  0  0  0  0  0  0  0  0  0  0
   -4.3521    0.0332    0.7342 N   0  0  0  0  0  0  0  0  0  0  0  0
   -5.7728   -0.0691    0.5373 C   0  0  0  0  0  0  0  0  0  0  0  0
   -6.2379    0.9125   -0.5087 C   0  0  0  0  0  0  0  0  0  0  0  0
   -6.4933    2.2603   -0.1568 C   0  0  0  0  0  0  0  0  0  0  0  0
   -6.8895    3.1922   -1.1197 C   0  0  0  0  0  0  0  0  0  0  0  0
   -7.0161    2.7533   -2.4192 C   0  0  0  0  0  0  0  0  0  0  0  0
   -6.7652    1.4481   -2.7727 C   0  0  0  0  0  0  0  0  0  0  0  0
   -6.3720    0.5069   -1.8465 C   0  0  0  0  0  0  0  0  0  0  0  0
   -6.9391    1.2298   -4.1018 O   0  0  0  0  0  0  0  0  0  0  0  0
   -7.3359    2.5433   -4.5452 C   0  0  0  0  0  0  0  0  0  0  0  0
   -7.3777    3.5198   -3.4818 O   0  0  0  0  0  0  0  0  0  0  0  0
    5.4944   -1.0528    2.5745 C   0  0  0  0  0  0  0  0  0  0  0  0
    6.8690   -0.9292    2.3639 C   0  0  0  0  0  0  0  0  0  0  0  0
    8.9651    1.9994    0.8859 H   0  0  0  0  0  0  0  0  0  0  0  0
    9.0754    0.8983   -0.5407 H   0  0  0  0  0  0  0  0  0  0  0  0
   10.3845    0.9770    0.6416 H   0  0  0  0  0  0  0  0  0  0  0  0
    6.8273    1.3634   -0.1704 H   0  0  0  0  0  0  0  0  0  0  0  0
    4.4134    1.1532    0.2003 H   0  0  0  0  0  0  0  0  0  0  0  0
    3.9224   -2.9474    0.4899 H   0  0  0  0  0  0  0  0  0  0  0  0
    2.9150   -3.2504    1.9391 H   0  0  0  0  0  0  0  0  0  0  0  0
    2.0740   -3.4944   -0.9933 H   0  0  0  0  0  0  0  0  0  0  0  0
    1.8936   -4.7088    0.3020 H   0  0  0  0  0  0  0  0  0  0  0  0
    0.3971   -1.4537    1.6911 H   0  0  0  0  0  0  0  0  0  0  0  0
    0.5653    0.2772   -0.2050 H   0  0  0  0  0  0  0  0  0  0  0  0
    0.8102   -1.0548   -1.3468 H   0  0  0  0  0  0  0  0  0  0  0  0
   -1.4370   -1.7464   -1.0767 H   0  0  0  0  0  0  0  0  0  0  0  0
   -3.9681    0.8382    1.2201 H   0  0  0  0  0  0  0  0  0  0  0  0
   -6.2572    0.1471    1.4971 H   0  0  0  0  0  0  0  0  0  0  0  0
   -6.0427   -1.0953    0.2588 H   0  0  0  0  0  0  0  0  0  0  0  0
   -6.3761    2.5869    0.8744 H   0  0  0  0  0  0  0  0  0  0  0  0
   -7.0833    4.2269   -0.8582 H   0  0  0  0  0  0  0  0  0  0  0  0
   -6.1600   -0.5153   -2.1528 H   0  0  0  0  0  0  0  0  0  0  0  0
   -6.6240    2.8858   -5.3109 H   0  0  0  0  0  0  0  0  0  0  0  0
   -8.3356    2.4725   -4.9979 H   0  0  0  0  0  0  0  0  0  0  0  0
    5.1250   -1.7190    3.3516 H   0  0  0  0  0  0  0  0  0  0  0  0
    7.5614   -1.5017    2.9770 H   0  0  0  0  0  0  0  0  0  0  0  0
  1  2  1  0
  2  3  1  0
  3  4  2  0
  4  5  1  0
  5  6  2  0
  6  7  1  0
  7  8  2  0
  7  9  2  0
  7 10  1  0
 10 11  1  0
 11 12  1  0
 12 13  1  0
 13 14  1  0
 14 15  1  0
 15 16  1  0
 16 17  1  0
 17 18  2  0
 17 19  1  0
 19 20  2  0
 19 21  1  0
 21 22  1  0
 22 23  1  0
 23 24  2  0
 24 25  1  0
 25 26  2  0
 26 27  1  0
 27 28  2  0
 27 29  1  0
 29 30  1  0
 30 31  1  0
  6 32  1  0
 32 33  2  0
 33  3  1  0
 14 10  1  0
 28 23  1  0
 31 26  1  0
  1 34  1  0
  1 35  1  0
  1 36  1  0
  4 37  1  0
  5 38  1  0
 11 39  1  0
 11 40  1  0
 12 41  1  0
 12 42  1  0
 14 43  1  0
 15 44  1  0
 15 45  1  0
 16 46  1  0
 21 47  1  0
 22 48  1  0
 22 49  1  0
 24 50  1  0
 25 51  1  0
 28 52  1  0
 30 53  1  0
 30 54  1  0
 32 55  1  0
 33 56  1  0
M  END
$$$$
