
     RDKit          3D

 46 49  0  0  0  0  0  0  0  0999 V2000
    1.4144    1.1858   -2.5294 O   0  0  0  0  0  0  0  0  0  0  0  0
    1.0489    0.6773   -1.4717 C   0  0  0  0  0  0  0  0  0  0  0  0
   -0.3642    0.1293   -1.3421 C   0  0  0  0  0  0  0  0  0  0  0  0
   -0.4337   -1.1329   -0.6256 N   0  0  0  0  0  0  0  0  0  0  0  0
   -1.1097   -1.3845    0.5518 C   0  0  0  0  0  0  0  0  0  0  0  0
   -1.9796   -0.3982    1.2675 C   0  0  0  0  0  0  0  0  0  0  0  0
   -2.9741    0.0349    0.3417 O   0  0  0  0  0  0  0  0  0  0  0  0
   -3.8330    1.0094    0.7695 C   0  0  0  0  0  0  0  0  0  0  0  0
   -4.7166    1.4758   -0.2077 C   0  0  0  0  0  0  0  0  0  0  0  0
   -5.6437    2.4755    0.0906 C   0  0  0  0  0  0  0  0  0  0  0  0
   -5.6942    3.0137    1.3737 C   0  0  0  0  0  0  0  0  0  0  0  0
   -4.8207    2.5489    2.3553 C   0  0  0  0  0  0  0  0  0  0  0  0
   -3.8916    1.5473    2.0562 C   0  0  0  0  0  0  0  0  0  0  0  0
   -0.8524   -2.6076    0.9766 N   0  0  0  0  0  0  0  0  0  0  0  0
   -0.0600   -3.1862    0.0204 C   0  0  0  0  0  0  0  0  0  0  0  0
    0.4728   -4.4820   -0.0324 C   0  0  0  0  0  0  0  0  0  0  0  0
    1.2659   -4.8402   -1.1288 C   0  0  0  0  0  0  0  0  0  0  0  0
    1.5229   -3.9257   -2.1513 C   0  0  0  0  0  0  0  0  0  0  0  0
    1.0012   -2.6273   -2.1138 C   0  0  0  0  0  0  0  0  0  0  0  0
    0.2116   -2.2900   -1.0069 C   0  0  0  0  0  0  0  0  0  0  0  0
    1.8050    0.6110   -0.3140 N   0  0  0  0  0  0  0  0  0  0  0  0
    3.1358    1.0520   -0.1103 C   0  0  0  0  0  0  0  0  0  0  0  0
    3.8922    1.7057   -1.0873 C   0  0  0  0  0  0  0  0  0  0  0  0
    5.2073    2.1118   -0.8184 C   0  0  0  0  0  0  0  0  0  0  0  0
    6.0745    2.9136   -2.0810 Cl  0  0  0  0  0  0  0  0  0  0  0  0
    5.7770    1.8671    0.4358 C   0  0  0  0  0  0  0  0  0  0  0  0
    7.3899    2.3419    0.8316 Cl  0  0  0  0  0  0  0  0  0  0  0  0
    5.0327    1.2189    1.4211 C   0  0  0  0  0  0  0  0  0  0  0  0
    3.7241    0.8173    1.1480 C   0  0  0  0  0  0  0  0  0  0  0  0
    2.8366    0.0248    2.4068 Cl  0  0  0  0  0  0  0  0  0  0  0  0
   -0.9675    0.8859   -0.8372 H   0  0  0  0  0  0  0  0  0  0  0  0
   -0.7834   -0.0491   -2.3381 H   0  0  0  0  0  0  0  0  0  0  0  0
   -1.3620    0.4423    1.6064 H   0  0  0  0  0  0  0  0  0  0  0  0
   -2.4510   -0.8899    2.1264 H   0  0  0  0  0  0  0  0  0  0  0  0
   -4.6858    1.0554   -1.2100 H   0  0  0  0  0  0  0  0  0  0  0  0
   -6.3267    2.8296   -0.6771 H   0  0  0  0  0  0  0  0  0  0  0  0
   -6.4171    3.7903    1.6104 H   0  0  0  0  0  0  0  0  0  0  0  0
   -4.8661    2.9640    3.3593 H   0  0  0  0  0  0  0  0  0  0  0  0
   -3.2398    1.2085    2.8545 H   0  0  0  0  0  0  0  0  0  0  0  0
    0.2658   -5.1874    0.7646 H   0  0  0  0  0  0  0  0  0  0  0  0
    1.6824   -5.8432   -1.1830 H   0  0  0  0  0  0  0  0  0  0  0  0
    2.1402   -4.2276   -2.9955 H   0  0  0  0  0  0  0  0  0  0  0  0
    1.2073   -1.9253   -2.9159 H   0  0  0  0  0  0  0  0  0  0  0  0
    1.4089    0.1170    0.4831 H   0  0  0  0  0  0  0  0  0  0  0  0
    3.4858    1.9149   -2.0722 H   0  0  0  0  0  0  0  0  0  0  0  0
    5.4699    1.0273    2.3981 H   0  0  0  0  0  0  0  0  0  0  0  0
  1  2  2  0
  2  3  1  0
  3  4  1  0
  4  5  1  0
  5  6  1  0
  6  7  1  0
  7  8  1  0
  8  9  2  0
  9 10  1  0
 10 11  2  0
 11 12  1  0
 12 13  2  0
  5 14  2  0
 14 15  1  0
 15 16  2  0
 16 17  1  0
 17 18  2  0
 18 19  1  0
 19 20  2  0
  2 21  1  0
 21 22  1  0
 22 23  2  0
 23 24  1  0
 24 25  1  0
 24 26  2  0
 26 27  1  0
 26 28  1  0
 28 29  2  0
 29 30  1  0
 20  4  1  0
 29 22  1  0
 13  8  1  0
 20 15  1  0
  3 31  1  0
  3 32  1  0
  6 33  1  0
  6 34  1  0
  9 35  1  0
 10 36  1  0
 11 37  1  0
 12 38  1  0
 13 39  1  0
 16 40  1  0
 17 41  1  0
 18 42  1  0
 19 43  1  0
 21 44  1  0
 23 45  1  0
 28 46  1  0
M  END
$$$$
