
     RDKit          3D

 40 41  0  0  0  0  0  0  0  0999 V2000
   -6.9327    0.1930   -0.2202 C   0  0  0  0  0  0  0  0  0  0  0  0
   -5.4399    0.0875   -0.1072 C   0  0  0  0  0  0  0  0  0  0  0  0
   -4.7502    0.8099    0.8603 C   0  0  0  0  0  0  0  0  0  0  0  0
   -3.3725    0.6689    0.9667 C   0  0  0  0  0  0  0  0  0  0  0  0
   -2.6866   -0.1989    0.1092 C   0  0  0  0  0  0  0  0  0  0  0  0
   -1.2375   -0.3742    0.2407 C   0  0  0  0  0  0  0  0  0  0  0  0
   -0.3712    0.6394    0.0837 C   0  0  0  0  0  0  0  0  0  0  0  0
    1.0835    0.4659    0.1790 C   0  0  0  0  0  0  0  0  0  0  0  0
    1.9091    1.1366   -0.7213 C   0  0  0  0  0  0  0  0  0  0  0  0
    3.3045    0.9975   -0.6538 C   0  0  0  0  0  0  0  0  0  0  0  0
    3.9372    0.2077    0.3211 C   0  0  0  0  0  0  0  0  0  0  0  0
    5.3254    0.0509    0.3678 N   0  0  0  0  0  0  0  0  0  0  0  0
    5.9416   -0.5067    1.5721 C   0  0  0  0  0  0  0  0  0  0  0  0
    6.1756    0.9539   -0.4087 C   0  0  0  0  0  0  0  0  0  0  0  0
    3.0800   -0.4484    1.2211 C   0  0  0  0  0  0  0  0  0  0  0  0
    1.6831   -0.3186    1.1630 C   0  0  0  0  0  0  0  0  0  0  0  0
   -3.3794   -0.9083   -0.8235 N   0  0  0  0  0  4  0  0  0  0  0  0
   -2.6774   -1.8143   -1.7564 C   0  0  0  0  0  0  0  0  0  0  0  0
   -4.7240   -0.7793   -0.9313 C   0  0  0  0  0  0  0  0  0  0  0  0
   -7.2740    1.1983    0.0488 H   0  0  0  0  0  0  0  0  0  0  0  0
   -7.4103   -0.5336    0.4441 H   0  0  0  0  0  0  0  0  0  0  0  0
   -7.2610    0.0025   -1.2475 H   0  0  0  0  0  0  0  0  0  0  0  0
   -5.2778    1.4819    1.5372 H   0  0  0  0  0  0  0  0  0  0  0  0
   -2.8360    1.2309    1.7302 H   0  0  0  0  0  0  0  0  0  0  0  0
   -0.8908   -1.3821    0.4540 H   0  0  0  0  0  0  0  0  0  0  0  0
   -0.7046    1.6471   -0.1604 H   0  0  0  0  0  0  0  0  0  0  0  0
    1.4905    1.7709   -1.4993 H   0  0  0  0  0  0  0  0  0  0  0  0
    3.8856    1.5344   -1.3982 H   0  0  0  0  0  0  0  0  0  0  0  0
    5.7180    0.1100    2.4496 H   0  0  0  0  0  0  0  0  0  0  0  0
    5.6065   -1.5344    1.7486 H   0  0  0  0  0  0  0  0  0  0  0  0
    7.0319   -0.5598    1.4748 H   0  0  0  0  0  0  0  0  0  0  0  0
    6.0377    1.9933   -0.0911 H   0  0  0  0  0  0  0  0  0  0  0  0
    7.2362    0.7075   -0.2845 H   0  0  0  0  0  0  0  0  0  0  0  0
    5.9718    0.8656   -1.4812 H   0  0  0  0  0  0  0  0  0  0  0  0
    3.4800   -1.0862    2.0041 H   0  0  0  0  0  0  0  0  0  0  0  0
    1.0887   -0.8376    1.9103 H   0  0  0  0  0  0  0  0  0  0  0  0
   -2.2502   -2.6352   -1.1748 H   0  0  0  0  0  0  0  0  0  0  0  0
   -1.9060   -1.2429   -2.2795 H   0  0  0  0  0  0  0  0  0  0  0  0
   -3.3812   -2.2162   -2.4896 H   0  0  0  0  0  0  0  0  0  0  0  0
   -5.2235   -1.3772   -1.6894 H   0  0  0  0  0  0  0  0  0  0  0  0
  1  2  1  0
  2  3  2  0
  3  4  1  0
  4  5  2  0
  5  6  1  0
  6  7  2  3
  7  8  1  0
  8  9  2  0
  9 10  1  0
 10 11  2  0
 11 12  1  0
 12 13  1  0
 12 14  1  0
 11 15  1  0
 15 16  2  0
  5 17  1  0
 17 18  1  0
 17 19  2  0
 19  2  1  0
 16  8  1  0
  1 20  1  0
  1 21  1  0
  1 22  1  0
  3 23  1  0
  4 24  1  0
  6 25  1  0
  7 26  1  0
  9 27  1  0
 10 28  1  0
 13 29  1  0
 13 30  1  0
 13 31  1  0
 14 32  1  0
 14 33  1  0
 14 34  1  0
 15 35  1  0
 16 36  1  0
 18 37  1  0
 18 38  1  0
 18 39  1  0
 19 40  1  0
M  CHG  1  17   1
M  END
$$$$
