
     RDKit          3D

 38 40  0  0  0  0  0  0  0  0999 V2000
    1.2667    1.9887   -1.1072 O   0  0  0  0  0  0  0  0  0  0  0  0
    0.6056    1.3323   -0.3072 C   0  0  0  0  0  0  0  0  0  0  0  0
    1.0594    1.0398    0.9542 N   0  0  0  0  0  0  0  0  0  0  0  0
    2.3757    1.4645    1.3818 C   0  0  0  0  0  0  0  0  0  0  0  0
    3.3954    0.3701    1.1816 C   0  0  0  0  0  0  0  0  0  0  0  0
    3.9896    0.1781   -0.0750 C   0  0  0  0  0  0  0  0  0  0  0  0
    4.9165   -0.8476   -0.2730 C   0  0  0  0  0  0  0  0  0  0  0  0
    5.2505   -1.6904    0.7840 C   0  0  0  0  0  0  0  0  0  0  0  0
    6.3913   -2.9556    0.5424 Cl  0  0  0  0  0  0  0  0  0  0  0  0
    4.6637   -1.5182    2.0362 C   0  0  0  0  0  0  0  0  0  0  0  0
    3.7357   -0.4927    2.2342 C   0  0  0  0  0  0  0  0  0  0  0  0
   -0.6581    0.8306   -0.5975 N   0  0  0  0  0  0  0  0  0  0  0  0
   -1.2024    1.1457   -1.9153 C   0  0  0  0  0  0  0  0  0  0  0  0
   -2.1544    0.0572   -2.4016 C   0  0  0  0  0  0  0  0  0  0  0  0
   -3.2061   -0.2562   -1.3711 C   0  0  0  0  0  0  0  0  0  0  0  0
   -4.4199   -0.8395   -1.7594 C   0  0  0  0  0  0  0  0  0  0  0  0
   -5.3869   -1.1554   -0.8062 C   0  0  0  0  0  0  0  0  0  0  0  0
   -5.1459   -0.8996    0.5410 C   0  0  0  0  0  0  0  0  0  0  0  0
   -3.9344   -0.3326    0.9374 C   0  0  0  0  0  0  0  0  0  0  0  0
   -2.9497   -0.0133   -0.0109 C   0  0  0  0  0  0  0  0  0  0  0  0
   -1.6486    0.5997    0.4560 C   0  0  0  0  0  0  0  0  0  0  0  0
    0.7823    0.1319    1.2917 H   0  0  0  0  0  0  0  0  0  0  0  0
    2.6841    2.3772    0.8594 H   0  0  0  0  0  0  0  0  0  0  0  0
    2.2993    1.7142    2.4460 H   0  0  0  0  0  0  0  0  0  0  0  0
    3.7252    0.8282   -0.9087 H   0  0  0  0  0  0  0  0  0  0  0  0
    5.3679   -0.9825   -1.2521 H   0  0  0  0  0  0  0  0  0  0  0  0
    4.9233   -2.1780    2.8597 H   0  0  0  0  0  0  0  0  0  0  0  0
    3.2827   -0.3708    3.2157 H   0  0  0  0  0  0  0  0  0  0  0  0
   -1.7153    2.1131   -1.8372 H   0  0  0  0  0  0  0  0  0  0  0  0
   -0.3952    1.2632   -2.6469 H   0  0  0  0  0  0  0  0  0  0  0  0
   -2.6227    0.3847   -3.3370 H   0  0  0  0  0  0  0  0  0  0  0  0
   -1.5932   -0.8626   -2.6073 H   0  0  0  0  0  0  0  0  0  0  0  0
   -4.6176   -1.0496   -2.8081 H   0  0  0  0  0  0  0  0  0  0  0  0
   -6.3279   -1.6029   -1.1151 H   0  0  0  0  0  0  0  0  0  0  0  0
   -5.9007   -1.1449    1.2836 H   0  0  0  0  0  0  0  0  0  0  0  0
   -3.7608   -0.1421    1.9943 H   0  0  0  0  0  0  0  0  0  0  0  0
   -1.8583    1.5720    0.9192 H   0  0  0  0  0  0  0  0  0  0  0  0
   -1.2165   -0.0563    1.2184 H   0  0  0  0  0  0  0  0  0  0  0  0
  1  2  2  0
  2  3  1  0
  3  4  1  0
  4  5  1  0
  5  6  2  0
  6  7  1  0
  7  8  2  0
  8  9  1  0
  8 10  1  0
 10 11  2  0
  2 12  1  0
 12 13  1  0
 13 14  1  0
 14 15  1  0
 15 16  2  0
 16 17  1  0
 17 18  2  0
 18 19  1  0
 19 20  2  0
 20 21  1  0
 11  5  1  0
 21 12  1  0
 20 15  1  0
  3 22  1  0
  4 23  1  0
  4 24  1  0
  6 25  1  0
  7 26  1  0
 10 27  1  0
 11 28  1  0
 13 29  1  0
 13 30  1  0
 14 31  1  0
 14 32  1  0
 16 33  1  0
 17 34  1  0
 18 35  1  0
 19 36  1  0
 21 37  1  0
 21 38  1  0
M  END
$$$$
