
     RDKit          3D

 45 46  0  0  0  0  0  0  0  0999 V2000
    6.1562   -3.7309    1.5122 C   0  0  0  0  0  0  0  0  0  0  0  0
    5.4887   -3.0789    0.4380 O   0  0  0  0  0  0  0  0  0  0  0  0
    4.7454   -1.9738    0.7501 C   0  0  0  0  0  0  0  0  0  0  0  0
    4.5656   -1.4409    2.0272 C   0  0  0  0  0  0  0  0  0  0  0  0
    3.7729   -0.3022    2.2053 C   0  0  0  0  0  0  0  0  0  0  0  0
    3.1438    0.3015    1.1095 C   0  0  0  0  0  0  0  0  0  0  0  0
    2.3365    1.5125    1.3694 C   0  0  0  0  0  0  0  0  0  0  0  0
    2.8022    2.4123    2.0652 O   0  0  0  0  0  0  0  0  0  0  0  0
    0.9481    1.6363    0.8518 C   0  0  0  0  0  0  0  0  0  0  0  0
    0.1627    0.6010    0.5179 C   0  0  0  0  0  0  0  0  0  0  0  0
   -1.2172    0.7579    0.0343 C   0  0  0  0  0  0  0  0  0  0  0  0
   -2.1119    1.6596    0.6312 C   0  0  0  0  0  0  0  0  0  0  0  0
   -3.4271    1.7675    0.1718 C   0  0  0  0  0  0  0  0  0  0  0  0
   -4.3683    2.6206    0.6883 O   0  0  0  0  0  0  0  0  0  0  0  0
   -3.9159    3.6216    1.5900 C   0  0  0  0  0  0  0  0  0  0  0  0
   -3.8493    0.9344   -0.8777 C   0  0  0  0  0  0  0  0  0  0  0  0
   -5.1328    1.0590   -1.3642 O   0  0  0  0  0  0  0  0  0  0  0  0
   -6.0022    0.1710   -0.6642 C   0  0  0  0  0  0  0  0  0  0  0  0
   -2.9666    0.0313   -1.4932 C   0  0  0  0  0  0  0  0  0  0  0  0
   -3.4816   -0.7197   -2.5185 O   0  0  0  0  0  0  0  0  0  0  0  0
   -2.5665   -1.4822   -3.2925 C   0  0  0  0  0  0  0  0  0  0  0  0
   -1.6557   -0.0590   -1.0188 C   0  0  0  0  0  0  0  0  0  0  0  0
    3.3474   -0.2171   -0.1717 C   0  0  0  0  0  0  0  0  0  0  0  0
    2.7964    0.3942   -1.2626 O   0  0  0  0  0  0  0  0  0  0  0  0
    4.1367   -1.3552   -0.3477 C   0  0  0  0  0  0  0  0  0  0  0  0
    6.7067   -4.5805    1.0967 H   0  0  0  0  0  0  0  0  0  0  0  0
    5.4396   -4.1228    2.2416 H   0  0  0  0  0  0  0  0  0  0  0  0
    6.8823   -3.0640    1.9886 H   0  0  0  0  0  0  0  0  0  0  0  0
    5.0302   -1.8801    2.9042 H   0  0  0  0  0  0  0  0  0  0  0  0
    3.6481    0.1173    3.2021 H   0  0  0  0  0  0  0  0  0  0  0  0
    0.5941    2.6616    0.8113 H   0  0  0  0  0  0  0  0  0  0  0  0
    0.5224   -0.4227    0.5747 H   0  0  0  0  0  0  0  0  0  0  0  0
   -1.7675    2.2602    1.4667 H   0  0  0  0  0  0  0  0  0  0  0  0
   -3.1246    4.2333    1.1438 H   0  0  0  0  0  0  0  0  0  0  0  0
   -3.5877    3.1769    2.5349 H   0  0  0  0  0  0  0  0  0  0  0  0
   -4.7616    4.2804    1.8095 H   0  0  0  0  0  0  0  0  0  0  0  0
   -7.0079    0.2931   -1.0774 H   0  0  0  0  0  0  0  0  0  0  0  0
   -5.7047   -0.8739   -0.8049 H   0  0  0  0  0  0  0  0  0  0  0  0
   -6.0452    0.4116    0.4037 H   0  0  0  0  0  0  0  0  0  0  0  0
   -3.1219   -1.9289   -4.1229 H   0  0  0  0  0  0  0  0  0  0  0  0
   -2.1397   -2.2989   -2.7014 H   0  0  0  0  0  0  0  0  0  0  0  0
   -1.7810   -0.8498   -3.7197 H   0  0  0  0  0  0  0  0  0  0  0  0
   -0.9511   -0.7577   -1.4586 H   0  0  0  0  0  0  0  0  0  0  0  0
    3.1649   -0.0003   -2.0714 H   0  0  0  0  0  0  0  0  0  0  0  0
    4.2972   -1.7756   -1.3368 H   0  0  0  0  0  0  0  0  0  0  0  0
  1  2  1  0
  2  3  1  0
  3  4  2  0
  4  5  1  0
  5  6  2  0
  6  7  1  0
  7  8  2  0
  7  9  1  0
  9 10  2  0
 10 11  1  0
 11 12  2  0
 12 13  1  0
 13 14  1  0
 14 15  1  0
 13 16  2  0
 16 17  1  0
 17 18  1  0
 16 19  1  0
 19 20  1  0
 20 21  1  0
 19 22  2  0
  6 23  1  0
 23 24  1  0
 23 25  2  0
 25  3  1  0
 22 11  1  0
  1 26  1  0
  1 27  1  0
  1 28  1  0
  4 29  1  0
  5 30  1  0
  9 31  1  0
 10 32  1  0
 12 33  1  0
 15 34  1  0
 15 35  1  0
 15 36  1  0
 18 37  1  0
 18 38  1  0
 18 39  1  0
 21 40  1  0
 21 41  1  0
 21 42  1  0
 22 43  1  0
 24 44  1  0
 25 45  1  0
M  END
$$$$
