
     RDKit          3D

 58 60  0  0  0  0  0  0  0  0999 V2000
   -1.0322   -1.5768   -4.3189 C   0  0  0  0  0  0  0  0  0  0  0  0
   -1.9080   -0.9111   -3.2895 C   0  0  0  0  0  0  0  0  0  0  0  0
   -3.1992   -1.4325   -3.0833 C   0  0  0  0  0  0  0  0  0  0  0  0
   -4.0495   -0.8782   -2.1305 C   0  0  0  0  0  0  0  0  0  0  0  0
   -3.6113    0.2106   -1.3814 C   0  0  0  0  0  0  0  0  0  0  0  0
   -4.6934    0.9251   -0.1698 S   0  0  0  0  0  6  0  0  0  0  0  0
   -4.2773    2.2859    0.0921 O   0  0  0  0  0  0  0  0  0  0  0  0
   -6.0547    0.6353   -0.5721 O   0  0  0  0  0  0  0  0  0  0  0  0
   -4.3581   -0.0002    1.2260 N   0  0  0  0  0  0  0  0  0  0  0  0
   -2.9327    0.0476    1.7012 C   0  0  0  0  0  0  0  0  0  0  0  0
   -2.8377   -0.4130    3.1593 C   0  0  0  0  0  0  0  0  0  0  0  0
   -3.5592    0.4320    4.0667 O   0  0  0  0  0  0  0  0  0  0  0  0
   -4.6927    1.0713    3.4618 C   0  0  0  0  0  0  0  0  0  0  0  0
   -5.3278    0.2333    2.3493 C   0  0  0  0  0  0  0  0  0  0  0  0
   -2.3418    0.7601   -1.5880 C   0  0  0  0  0  0  0  0  0  0  0  0
   -1.4673    0.1888   -2.5180 C   0  0  0  0  0  0  0  0  0  0  0  0
   -0.1562    0.6805   -2.7144 N   0  0  0  0  0  0  0  0  0  0  0  0
    0.5312    1.5928   -1.9298 C   0  0  0  0  0  0  0  0  0  0  0  0
    0.1306    2.1112   -0.8910 O   0  0  0  0  0  0  0  0  0  0  0  0
    1.9242    1.9221   -2.4787 C   0  0  0  0  0  0  0  0  0  0  0  0
    2.9156    0.9592   -2.1211 O   0  0  0  0  0  0  0  0  0  0  0  0
    2.9100   -0.1870   -2.8565 C   0  0  0  0  0  0  0  0  0  0  0  0
    2.1623   -0.3813   -3.8107 O   0  0  0  0  0  0  0  0  0  0  0  0
    3.9858   -1.1720   -2.4020 C   0  0  0  0  0  0  0  0  0  0  0  0
    4.6170   -0.8205   -1.1384 N   0  0  0  0  0  0  0  0  0  0  0  0
    3.9883   -1.1573    0.0452 C   0  0  0  0  0  0  0  0  0  0  0  0
    2.9714   -1.8405    0.0873 O   0  0  0  0  0  0  0  0  0  0  0  0
    4.5757   -0.5893    1.2886 C   0  0  0  0  0  0  0  0  0  0  0  0
    5.9438   -0.3067    1.3966 C   0  0  0  0  0  0  0  0  0  0  0  0
    6.4535    0.2280    2.5822 C   0  0  0  0  0  0  0  0  0  0  0  0
    5.6032    0.4758    3.6601 C   0  0  0  0  0  0  0  0  0  0  0  0
    4.2433    0.1828    3.5606 C   0  0  0  0  0  0  0  0  0  0  0  0
    3.7295   -0.3533    2.3788 C   0  0  0  0  0  0  0  0  0  0  0  0
   -0.1685   -2.0432   -3.8349 H   0  0  0  0  0  0  0  0  0  0  0  0
   -1.5711   -2.3618   -4.8605 H   0  0  0  0  0  0  0  0  0  0  0  0
   -0.6933   -0.8480   -5.0622 H   0  0  0  0  0  0  0  0  0  0  0  0
   -3.5488   -2.2840   -3.6647 H   0  0  0  0  0  0  0  0  0  0  0  0
   -5.0422   -1.2965   -1.9789 H   0  0  0  0  0  0  0  0  0  0  0  0
   -2.5424    1.0686    1.6220 H   0  0  0  0  0  0  0  0  0  0  0  0
   -2.3301   -0.6205    1.0777 H   0  0  0  0  0  0  0  0  0  0  0  0
   -3.2274   -1.4319    3.2679 H   0  0  0  0  0  0  0  0  0  0  0  0
   -1.7926   -0.4261    3.4846 H   0  0  0  0  0  0  0  0  0  0  0  0
   -4.3685    2.0463    3.0804 H   0  0  0  0  0  0  0  0  0  0  0  0
   -5.4217    1.2570    4.2565 H   0  0  0  0  0  0  0  0  0  0  0  0
   -6.2419    0.7194    1.9949 H   0  0  0  0  0  0  0  0  0  0  0  0
   -5.6169   -0.7523    2.7338 H   0  0  0  0  0  0  0  0  0  0  0  0
   -2.0573    1.6319   -1.0072 H   0  0  0  0  0  0  0  0  0  0  0  0
    0.4011    0.2166   -3.4313 H   0  0  0  0  0  0  0  0  0  0  0  0
    1.8835    2.0699   -3.5650 H   0  0  0  0  0  0  0  0  0  0  0  0
    2.2325    2.8834   -2.0522 H   0  0  0  0  0  0  0  0  0  0  0  0
    4.7750   -1.1837   -3.1590 H   0  0  0  0  0  0  0  0  0  0  0  0
    3.5337   -2.1651   -2.3196 H   0  0  0  0  0  0  0  0  0  0  0  0
    5.2150   -0.0042   -1.1304 H   0  0  0  0  0  0  0  0  0  0  0  0
    6.6275   -0.5212    0.5806 H   0  0  0  0  0  0  0  0  0  0  0  0
    7.5158    0.4437    2.6706 H   0  0  0  0  0  0  0  0  0  0  0  0
    6.0020    0.8905    4.5832 H   0  0  0  0  0  0  0  0  0  0  0  0
    3.5825    0.3697    4.4038 H   0  0  0  0  0  0  0  0  0  0  0  0
    2.6676   -0.5812    2.3077 H   0  0  0  0  0  0  0  0  0  0  0  0
  1  2  1  0
  2  3  2  0
  3  4  1  0
  4  5  2  0
  5  6  1  0
  6  7  2  0
  6  8  2  0
  6  9  1  0
  9 10  1  0
 10 11  1  0
 11 12  1  0
 12 13  1  0
 13 14  1  0
  5 15  1  0
 15 16  2  0
 16 17  1  0
 17 18  1  0
 18 19  2  0
 18 20  1  0
 20 21  1  0
 21 22  1  0
 22 23  2  0
 22 24  1  0
 24 25  1  0
 25 26  1  0
 26 27  2  0
 26 28  1  0
 28 29  2  0
 29 30  1  0
 30 31  2  0
 31 32  1  0
 32 33  2  0
 16  2  1  0
 33 28  1  0
 14  9  1  0
  1 34  1  0
  1 35  1  0
  1 36  1  0
  3 37  1  0
  4 38  1  0
 10 39  1  0
 10 40  1  0
 11 41  1  0
 11 42  1  0
 13 43  1  0
 13 44  1  0
 14 45  1  0
 14 46  1  0
 15 47  1  0
 17 48  1  0
 20 49  1  0
 20 50  1  0
 24 51  1  0
 24 52  1  0
 25 53  1  0
 29 54  1  0
 30 55  1  0
 31 56  1  0
 32 57  1  0
 33 58  1  0
M  END
$$$$
