
     RDKit          3D

 56 58  0  0  0  0  0  0  0  0999 V2000
    5.6577   -1.2821   -3.9744 C   0  0  0  0  0  0  0  0  0  0  0  0
    4.4807   -1.8106   -3.3765 O   0  0  0  0  0  0  0  0  0  0  0  0
    4.0959   -1.2802   -2.1752 C   0  0  0  0  0  0  0  0  0  0  0  0
    4.7267   -0.2349   -1.5069 C   0  0  0  0  0  0  0  0  0  0  0  0
    4.2391    0.2048   -0.2719 C   0  0  0  0  0  0  0  0  0  0  0  0
    3.1154   -0.3967    0.3027 C   0  0  0  0  0  0  0  0  0  0  0  0
    2.5719   -0.0400    1.5154 O   0  0  0  0  0  0  0  0  0  0  0  0
    3.1956    1.0393    2.2026 C   0  0  0  0  0  0  0  0  0  0  0  0
    2.4642   -1.4469   -0.3752 C   0  0  0  0  0  0  0  0  0  0  0  0
    1.3267   -2.0137    0.2483 N   0  0  0  0  0  0  0  0  0  0  0  0
    0.4747   -2.9757   -0.2621 C   0  0  0  0  0  0  0  0  0  0  0  0
    0.5580   -3.5006   -1.3691 O   0  0  0  0  0  0  0  0  0  0  0  0
   -0.6627   -3.3427    0.6757 C   0  0  0  0  0  0  0  0  0  0  0  0
   -2.1189   -2.3237    0.3027 S   0  0  0  0  0  0  0  0  0  0  0  0
   -1.6128   -0.8050    1.0110 C   0  0  0  0  0  0  0  0  0  0  0  0
   -1.0495   -0.8670    2.1727 N   0  0  0  0  0  0  0  0  0  0  0  0
   -0.7105    0.3226    2.8183 C   0  0  0  0  0  0  0  0  0  0  0  0
   -0.1572    0.2616    4.0996 C   0  0  0  0  0  0  0  0  0  0  0  0
    0.1674    1.4332    4.7895 C   0  0  0  0  0  0  0  0  0  0  0  0
   -0.0550    2.6767    4.1986 C   0  0  0  0  0  0  0  0  0  0  0  0
   -0.6095    2.7475    2.9217 C   0  0  0  0  0  0  0  0  0  0  0  0
   -0.9349    1.5678    2.2427 C   0  0  0  0  0  0  0  0  0  0  0  0
   -1.5498    1.5989    0.9060 C   0  0  0  0  0  0  0  0  0  0  0  0
   -1.7837    2.6845    0.3780 O   0  0  0  0  0  0  0  0  0  0  0  0
   -1.8558    0.3688    0.3228 N   0  0  0  0  0  0  0  0  0  0  0  0
   -2.4978    0.4345   -0.9958 C   0  0  0  0  0  0  0  0  0  0  0  0
   -4.0150    0.6235   -0.8860 C   0  0  0  0  0  0  0  0  0  0  0  0
   -4.6316    0.8916   -2.1744 N   0  0  0  0  0  0  0  0  0  0  0  0
   -5.9862    0.7030   -2.3428 C   0  0  0  0  0  0  0  0  0  0  0  0
   -6.5093    1.1790   -3.6710 C   0  0  0  0  0  0  0  0  0  0  0  0
   -6.7081    0.1702   -1.5074 O   0  0  0  0  0  0  0  0  0  0  0  0
    2.9650   -1.8770   -1.6075 C   0  0  0  0  0  0  0  0  0  0  0  0
    6.5237   -1.3946   -3.3161 H   0  0  0  0  0  0  0  0  0  0  0  0
    5.5130   -0.2366   -4.2629 H   0  0  0  0  0  0  0  0  0  0  0  0
    5.8571   -1.8551   -4.8839 H   0  0  0  0  0  0  0  0  0  0  0  0
    5.5994    0.2603   -1.9181 H   0  0  0  0  0  0  0  0  0  0  0  0
    4.7678    1.0185    0.2132 H   0  0  0  0  0  0  0  0  0  0  0  0
    4.2355    0.7993    2.4541 H   0  0  0  0  0  0  0  0  0  0  0  0
    2.6612    1.1951    3.1433 H   0  0  0  0  0  0  0  0  0  0  0  0
    3.1288    1.9657    1.6219 H   0  0  0  0  0  0  0  0  0  0  0  0
    1.0995   -1.6000    1.1531 H   0  0  0  0  0  0  0  0  0  0  0  0
   -0.3558   -3.2664    1.7237 H   0  0  0  0  0  0  0  0  0  0  0  0
   -0.9167   -4.3933    0.5014 H   0  0  0  0  0  0  0  0  0  0  0  0
    0.0107   -0.7047    4.5678 H   0  0  0  0  0  0  0  0  0  0  0  0
    0.5932    1.3726    5.7885 H   0  0  0  0  0  0  0  0  0  0  0  0
    0.1929    3.5896    4.7369 H   0  0  0  0  0  0  0  0  0  0  0  0
   -0.7965    3.7160    2.4613 H   0  0  0  0  0  0  0  0  0  0  0  0
   -2.2672   -0.4526   -1.5935 H   0  0  0  0  0  0  0  0  0  0  0  0
   -2.0692    1.2779   -1.5532 H   0  0  0  0  0  0  0  0  0  0  0  0
   -4.4789   -0.2624   -0.4383 H   0  0  0  0  0  0  0  0  0  0  0  0
   -4.2574    1.4733   -0.2371 H   0  0  0  0  0  0  0  0  0  0  0  0
   -4.1951    1.5926   -2.7594 H   0  0  0  0  0  0  0  0  0  0  0  0
   -6.5229    0.3422   -4.3739 H   0  0  0  0  0  0  0  0  0  0  0  0
   -7.5258    1.5614   -3.5388 H   0  0  0  0  0  0  0  0  0  0  0  0
   -5.8915    1.9839   -4.0787 H   0  0  0  0  0  0  0  0  0  0  0  0
    2.5033   -2.6931   -2.1529 H   0  0  0  0  0  0  0  0  0  0  0  0
  1  2  1  0
  2  3  1  0
  3  4  2  0
  4  5  1  0
  5  6  2  0
  6  7  1  0
  7  8  1  0
  6  9  1  0
  9 10  1  0
 10 11  1  0
 11 12  2  0
 11 13  1  0
 13 14  1  0
 14 15  1  0
 15 16  2  0
 16 17  1  0
 17 18  2  0
 18 19  1  0
 19 20  2  0
 20 21  1  0
 21 22  2  0
 22 23  1  0
 23 24  2  0
 23 25  1  0
 25 26  1  0
 26 27  1  0
 27 28  1  0
 28 29  1  0
 29 30  1  0
 29 31  2  0
  9 32  2  0
 32  3  1  0
 25 15  1  0
 22 17  1  0
  1 33  1  0
  1 34  1  0
  1 35  1  0
  4 36  1  0
  5 37  1  0
  8 38  1  0
  8 39  1  0
  8 40  1  0
 10 41  1  0
 13 42  1  0
 13 43  1  0
 18 44  1  0
 19 45  1  0
 20 46  1  0
 21 47  1  0
 26 48  1  0
 26 49  1  0
 27 50  1  0
 27 51  1  0
 28 52  1  0
 30 53  1  0
 30 54  1  0
 30 55  1  0
 32 56  1  0
M  END
$$$$
