
     RDKit          3D

 46 49  0  0  0  0  0  0  0  0999 V2000
    3.7067    2.4751   -1.4921 O   0  0  0  0  0  0  0  0  0  0  0  0
    3.2950    1.8925   -0.4910 C   0  0  0  0  0  0  0  0  0  0  0  0
    2.8628    2.6807    0.7405 C   0  0  0  0  0  0  0  0  0  0  0  0
    1.0596    2.9175    0.7648 S   0  0  0  0  0  0  0  0  0  0  0  0
    0.5308    1.3502    1.2640 C   0  0  0  0  0  0  0  0  0  0  0  0
    1.3120    0.4130    1.7504 N   0  0  0  0  0  0  0  0  0  0  0  0
    0.5533   -0.7059    1.9431 N   0  0  0  0  0  0  0  0  0  0  0  0
   -0.6863   -0.4354    1.5759 C   0  0  0  0  0  0  0  0  0  0  0  0
   -1.8325   -1.3910    1.6595 C   0  0  0  0  0  0  0  0  0  0  0  0
   -2.3748   -1.8362    0.3278 C   0  0  0  0  0  0  0  0  0  0  0  0
   -3.6864   -1.8070   -0.1094 C   0  0  0  0  0  0  0  0  0  0  0  0
   -3.8314   -2.3222   -1.4292 C   0  0  0  0  0  0  0  0  0  0  0  0
   -2.6307   -2.7491   -1.9521 C   0  0  0  0  0  0  0  0  0  0  0  0
   -1.3406   -2.5340   -0.8534 S   0  0  0  0  0  0  0  0  0  0  0  0
   -0.7463    0.8751    1.1408 N   0  0  0  0  0  0  0  0  0  0  0  0
   -1.8975    1.5636    0.5904 C   0  0  0  0  0  0  0  0  0  0  0  0
   -2.8235    2.0097    1.6606 C   0  0  0  0  0  0  0  0  0  0  0  0
   -4.1697    1.8148    1.8990 C   0  0  0  0  0  0  0  0  0  0  0  0
   -4.4692    2.5125    3.0954 C   0  0  0  0  0  0  0  0  0  0  0  0
   -3.2923    3.0874    3.5114 C   0  0  0  0  0  0  0  0  0  0  0  0
   -2.2901    2.7873    2.6476 O   0  0  0  0  0  0  0  0  0  0  0  0
    3.1775    0.5221   -0.3340 N   0  0  0  0  0  0  0  0  0  0  0  0
    3.5235   -0.4924   -1.2448 C   0  0  0  0  0  0  0  0  0  0  0  0
    3.2246   -1.8093   -0.8701 C   0  0  0  0  0  0  0  0  0  0  0  0
    3.5701   -2.8839   -1.6976 C   0  0  0  0  0  0  0  0  0  0  0  0
    4.2116   -2.6400   -2.9082 C   0  0  0  0  0  0  0  0  0  0  0  0
    4.6898   -4.0880   -4.0266 Br  0  0  0  0  0  0  0  0  0  0  0  0
    4.5120   -1.3369   -3.2947 C   0  0  0  0  0  0  0  0  0  0  0  0
    4.1626   -0.2634   -2.4645 C   0  0  0  0  0  0  0  0  0  0  0  0
    3.2224    2.1984    1.6555 H   0  0  0  0  0  0  0  0  0  0  0  0
    3.3392    3.6663    0.6969 H   0  0  0  0  0  0  0  0  0  0  0  0
   -1.5100   -2.2824    2.2147 H   0  0  0  0  0  0  0  0  0  0  0  0
   -2.6315   -0.9395    2.2615 H   0  0  0  0  0  0  0  0  0  0  0  0
   -4.5078   -1.4284    0.4900 H   0  0  0  0  0  0  0  0  0  0  0  0
   -4.7706   -2.3843   -1.9664 H   0  0  0  0  0  0  0  0  0  0  0  0
   -2.4471   -3.1851   -2.9249 H   0  0  0  0  0  0  0  0  0  0  0  0
   -1.5653    2.4217   -0.0003 H   0  0  0  0  0  0  0  0  0  0  0  0
   -2.3940    0.8855   -0.1082 H   0  0  0  0  0  0  0  0  0  0  0  0
   -4.8543    1.2480    1.2829 H   0  0  0  0  0  0  0  0  0  0  0  0
   -5.4246    2.5907    3.5969 H   0  0  0  0  0  0  0  0  0  0  0  0
   -3.0133    3.7095    4.3521 H   0  0  0  0  0  0  0  0  0  0  0  0
    2.7294    0.2078    0.5296 H   0  0  0  0  0  0  0  0  0  0  0  0
    2.7250   -2.0165    0.0740 H   0  0  0  0  0  0  0  0  0  0  0  0
    3.3318   -3.8967   -1.3874 H   0  0  0  0  0  0  0  0  0  0  0  0
    5.0193   -1.1391   -4.2346 H   0  0  0  0  0  0  0  0  0  0  0  0
    4.4309    0.7373   -2.7841 H   0  0  0  0  0  0  0  0  0  0  0  0
  1  2  2  0
  2  3  1  0
  3  4  1  0
  4  5  1  0
  5  6  2  0
  6  7  1  0
  7  8  2  0
  8  9  1  0
  9 10  1  0
 10 11  2  0
 11 12  1  0
 12 13  2  0
 13 14  1  0
  8 15  1  0
 15 16  1  0
 16 17  1  0
 17 18  2  0
 18 19  1  0
 19 20  2  0
 20 21  1  0
  2 22  1  0
 22 23  1  0
 23 24  2  0
 24 25  1  0
 25 26  2  0
 26 27  1  0
 26 28  1  0
 28 29  2  0
 15  5  1  0
 21 17  1  0
 29 23  1  0
 14 10  1  0
  3 30  1  0
  3 31  1  0
  9 32  1  0
  9 33  1  0
 11 34  1  0
 12 35  1  0
 13 36  1  0
 16 37  1  0
 16 38  1  0
 18 39  1  0
 19 40  1  0
 20 41  1  0
 22 42  1  0
 24 43  1  0
 25 44  1  0
 28 45  1  0
 29 46  1  0
M  END
$$$$
