
     RDKit          3D

 36 38  0  0  0  0  0  0  0  0999 V2000
   -4.4753   -1.9105   -0.8633 C   0  0  0  0  0  0  0  0  0  0  0  0
   -3.4544   -1.0127   -0.3678 N   0  0  0  0  0  0  0  0  0  0  0  0
   -2.1090   -1.1607   -0.5896 C   0  0  0  0  0  0  0  0  0  0  0  0
   -1.4550   -0.1201    0.0347 C   0  0  0  0  0  0  0  0  0  0  0  0
   -0.0416    0.1031    0.0569 C   0  0  0  0  0  0  0  0  0  0  0  0
    0.8849   -0.6211   -0.5945 C   0  0  0  0  0  0  0  0  0  0  0  0
    2.3230   -0.3378   -0.5358 C   0  0  0  0  0  0  0  0  0  0  0  0
    2.9727   -0.0468    0.6630 C   0  0  0  0  0  0  0  0  0  0  0  0
    4.3427    0.1902    0.6650 C   0  0  0  0  0  0  0  0  0  0  0  0
    5.0520    0.1385   -0.4844 N   0  0  0  0  0  4  0  0  0  0  0  0
    6.5035    0.3865   -0.4560 C   0  0  0  0  0  0  0  0  0  0  0  0
    4.4479   -0.1647   -1.6549 C   0  0  0  0  0  0  0  0  0  0  0  0
    3.0803   -0.4114   -1.7031 C   0  0  0  0  0  0  0  0  0  0  0  0
   -2.4501    0.6936    0.6638 C   0  0  0  0  0  0  0  0  0  0  0  0
   -2.4141    1.8735    1.4373 C   0  0  0  0  0  0  0  0  0  0  0  0
   -3.6095    2.4157    1.9065 C   0  0  0  0  0  0  0  0  0  0  0  0
   -3.5701    3.5358    2.6410 F   0  0  0  0  0  0  0  0  0  0  0  0
   -4.8339    1.8259    1.6326 C   0  0  0  0  0  0  0  0  0  0  0  0
   -4.9001    0.6584    0.8690 C   0  0  0  0  0  0  0  0  0  0  0  0
   -3.6949    0.1107    0.3953 C   0  0  0  0  0  0  0  0  0  0  0  0
   -5.1527   -1.3422   -1.5058 H   0  0  0  0  0  0  0  0  0  0  0  0
   -4.0085   -2.7147   -1.4378 H   0  0  0  0  0  0  0  0  0  0  0  0
   -5.0111   -2.3299   -0.0080 H   0  0  0  0  0  0  0  0  0  0  0  0
   -1.7400   -1.9959   -1.1696 H   0  0  0  0  0  0  0  0  0  0  0  0
    0.2848    0.9528    0.6527 H   0  0  0  0  0  0  0  0  0  0  0  0
    0.5887   -1.4550   -1.2267 H   0  0  0  0  0  0  0  0  0  0  0  0
    2.4236   -0.0138    1.6025 H   0  0  0  0  0  0  0  0  0  0  0  0
    4.8804    0.4164    1.5816 H   0  0  0  0  0  0  0  0  0  0  0  0
    6.7306    1.0919    0.3475 H   0  0  0  0  0  0  0  0  0  0  0  0
    6.8124    0.8165   -1.4122 H   0  0  0  0  0  0  0  0  0  0  0  0
    6.9961   -0.5735   -0.2829 H   0  0  0  0  0  0  0  0  0  0  0  0
    5.0668   -0.2096   -2.5468 H   0  0  0  0  0  0  0  0  0  0  0  0
    2.6110   -0.6503   -2.6561 H   0  0  0  0  0  0  0  0  0  0  0  0
   -1.4801    2.3694    1.6744 H   0  0  0  0  0  0  0  0  0  0  0  0
   -5.7422    2.2808    2.0172 H   0  0  0  0  0  0  0  0  0  0  0  0
   -5.8588    0.1964    0.6539 H   0  0  0  0  0  0  0  0  0  0  0  0
  1  2  1  0
  2  3  1  0
  3  4  2  0
  4  5  1  0
  5  6  2  3
  6  7  1  0
  7  8  2  0
  8  9  1  0
  9 10  2  0
 10 11  1  0
 10 12  1  0
 12 13  2  0
  4 14  1  0
 14 15  2  0
 15 16  1  0
 16 17  1  0
 16 18  2  0
 18 19  1  0
 19 20  2  0
 20  2  1  0
 13  7  1  0
 20 14  1  0
  1 21  1  0
  1 22  1  0
  1 23  1  0
  3 24  1  0
  5 25  1  0
  6 26  1  0
  8 27  1  0
  9 28  1  0
 11 29  1  0
 11 30  1  0
 11 31  1  0
 12 32  1  0
 13 33  1  0
 15 34  1  0
 18 35  1  0
 19 36  1  0
M  CHG  1  10   1
M  END
$$$$
