
     RDKit          3D

 51 54  0  0  0  0  0  0  0  0999 V2000
   -6.6765    0.6611    1.9926 C   0  0  0  0  0  0  0  0  0  0  0  0
   -6.5807   -0.5229    1.0396 C   0  0  0  0  0  0  0  0  0  0  0  0
   -5.7951   -0.1961   -0.1597 N   0  0  0  0  0  0  0  0  0  0  0  0
   -6.5478   -0.0547   -1.4148 C   0  0  0  0  0  0  0  0  0  0  0  0
   -7.0712    1.3623   -1.5928 C   0  0  0  0  0  0  0  0  0  0  0  0
   -4.4114   -0.0496   -0.1228 C   0  0  0  0  0  0  0  0  0  0  0  0
   -3.6413   -0.4712    0.9797 C   0  0  0  0  0  0  0  0  0  0  0  0
   -2.2437   -0.3308    1.0307 C   0  0  0  0  0  0  0  0  0  0  0  0
   -1.5638    0.2441   -0.0344 C   0  0  0  0  0  0  0  0  0  0  0  0
   -0.1245    0.4292   -0.0382 C   0  0  0  0  0  0  0  0  0  0  0  0
    0.4937    0.9973   -1.0882 C   0  0  0  0  0  0  0  0  0  0  0  0
    1.9135    1.1544   -1.0251 C   0  0  0  0  0  0  0  0  0  0  0  0
    2.7580    0.2775   -0.5059 N   0  0  0  0  0  0  0  0  0  0  0  0
    4.0695    0.7285   -0.5682 C   0  0  0  0  0  0  0  0  0  0  0  0
    5.1714   -0.0974   -0.0778 C   0  0  0  0  0  0  0  0  0  0  0  0
    4.8953   -1.1858    0.7603 C   0  0  0  0  0  0  0  0  0  0  0  0
    5.9272   -1.9939    1.2484 C   0  0  0  0  0  0  0  0  0  0  0  0
    7.2549   -1.7365    0.9067 C   0  0  0  0  0  0  0  0  0  0  0  0
    8.1643   -2.6002    1.4503 O   0  0  0  0  0  0  0  0  0  0  0  0
    9.5314   -2.3852    1.1237 C   0  0  0  0  0  0  0  0  0  0  0  0
    7.5416   -0.6618    0.0668 C   0  0  0  0  0  0  0  0  0  0  0  0
    6.5076    0.1502   -0.4226 C   0  0  0  0  0  0  0  0  0  0  0  0
    4.2074    1.9965   -1.0918 C   0  0  0  0  0  0  0  0  0  0  0  0
    2.6782    2.6281   -1.5268 S   0  0  0  0  0  0  0  0  0  0  0  0
   -0.2757    1.4020   -2.2962 C   0  0  0  0  0  0  0  0  0  0  0  0
    0.2512    1.8415   -3.3128 O   0  0  0  0  0  0  0  0  0  0  0  0
   -1.6609    1.2500   -2.2358 O   0  0  0  0  0  0  0  0  0  0  0  0
   -2.2995    0.6648   -1.1270 C   0  0  0  0  0  0  0  0  0  0  0  0
   -3.6902    0.5267   -1.1815 C   0  0  0  0  0  0  0  0  0  0  0  0
   -5.6965    0.9640    2.3722 H   0  0  0  0  0  0  0  0  0  0  0  0
   -7.1231    1.5305    1.5004 H   0  0  0  0  0  0  0  0  0  0  0  0
   -7.3029    0.4015    2.8521 H   0  0  0  0  0  0  0  0  0  0  0  0
   -7.6025   -0.8042    0.7554 H   0  0  0  0  0  0  0  0  0  0  0  0
   -6.1776   -1.4050    1.5492 H   0  0  0  0  0  0  0  0  0  0  0  0
   -7.3997   -0.7466   -1.4163 H   0  0  0  0  0  0  0  0  0  0  0  0
   -5.9498   -0.3560   -2.2827 H   0  0  0  0  0  0  0  0  0  0  0  0
   -7.7861    1.6196   -0.8051 H   0  0  0  0  0  0  0  0  0  0  0  0
   -7.5863    1.4557   -2.5541 H   0  0  0  0  0  0  0  0  0  0  0  0
   -6.2640    2.1005   -1.5654 H   0  0  0  0  0  0  0  0  0  0  0  0
   -4.1120   -0.9387    1.8396 H   0  0  0  0  0  0  0  0  0  0  0  0
   -1.7104   -0.6799    1.9115 H   0  0  0  0  0  0  0  0  0  0  0  0
    0.4313    0.1048    0.8378 H   0  0  0  0  0  0  0  0  0  0  0  0
    3.8697   -1.4152    1.0426 H   0  0  0  0  0  0  0  0  0  0  0  0
    5.6899   -2.8322    1.8988 H   0  0  0  0  0  0  0  0  0  0  0  0
    9.8745   -1.4098    1.4839 H   0  0  0  0  0  0  0  0  0  0  0  0
    9.7017   -2.4922    0.0473 H   0  0  0  0  0  0  0  0  0  0  0  0
   10.1215   -3.1539    1.6320 H   0  0  0  0  0  0  0  0  0  0  0  0
    8.5575   -0.4268   -0.2332 H   0  0  0  0  0  0  0  0  0  0  0  0
    6.7736    0.9672   -1.0881 H   0  0  0  0  0  0  0  0  0  0  0  0
    5.0986    2.5898   -1.2305 H   0  0  0  0  0  0  0  0  0  0  0  0
   -4.1904    0.8989   -2.0691 H   0  0  0  0  0  0  0  0  0  0  0  0
  1  2  1  0
  2  3  1  0
  3  4  1  0
  4  5  1  0
  3  6  1  0
  6  7  2  0
  7  8  1  0
  8  9  2  0
  9 10  1  0
 10 11  2  0
 11 12  1  0
 12 13  2  0
 13 14  1  0
 14 15  1  0
 15 16  2  0
 16 17  1  0
 17 18  2  0
 18 19  1  0
 19 20  1  0
 18 21  1  0
 21 22  2  0
 14 23  2  0
 23 24  1  0
 11 25  1  0
 25 26  2  0
 25 27  1  0
 27 28  1  0
 28 29  2  0
 29  6  1  0
 28  9  1  0
 24 12  1  0
 22 15  1  0
  1 30  1  0
  1 31  1  0
  1 32  1  0
  2 33  1  0
  2 34  1  0
  4 35  1  0
  4 36  1  0
  5 37  1  0
  5 38  1  0
  5 39  1  0
  7 40  1  0
  8 41  1  0
 10 42  1  0
 16 43  1  0
 17 44  1  0
 20 45  1  0
 20 46  1  0
 20 47  1  0
 21 48  1  0
 22 49  1  0
 23 50  1  0
 29 51  1  0
M  END
$$$$
