
     RDKit          3D

 33 33  0  0  0  0  0  0  0  0999 V2000
   -3.7561   -0.0185   -0.0995 C   0  0  0  0  0  0  0  0  0  0  0  0
   -3.2043    0.6768    1.1456 C   0  0  0  0  0  0  0  0  0  0  0  0
   -2.8482   -0.3524    2.2190 C   0  0  0  0  0  0  0  0  0  0  0  0
   -2.0420    1.6412    0.8294 C   0  0  0  0  0  0  0  0  0  0  0  0
   -0.7940    1.0182    0.2510 C   0  0  0  0  0  0  0  0  0  0  0  0
    0.2330    0.5682    1.0886 C   0  0  0  0  0  0  0  0  0  0  0  0
    1.3878   -0.0089    0.5539 C   0  0  0  0  0  0  0  0  0  0  0  0
    1.5421   -0.1509   -0.8324 C   0  0  0  0  0  0  0  0  0  0  0  0
    2.7913   -0.7695   -1.4333 C   0  0  0  0  0  0  0  0  0  0  0  0
    3.0490   -2.1896   -0.9221 C   0  0  0  0  0  0  0  0  0  0  0  0
    3.9994    0.1347   -1.2672 C   0  0  0  0  0  0  0  0  0  0  0  0
    4.3298    1.0322   -2.0282 O   0  0  0  0  0  0  0  0  0  0  0  0
    4.7122   -0.0838   -0.1437 O   0  0  0  0  0  0  0  0  0  0  0  0
    0.5173    0.3115   -1.6696 C   0  0  0  0  0  0  0  0  0  0  0  0
   -0.6370    0.8887   -1.1337 C   0  0  0  0  0  0  0  0  0  0  0  0
   -4.0101    0.7119   -0.8747 H   0  0  0  0  0  0  0  0  0  0  0  0
   -4.6683   -0.5737    0.1449 H   0  0  0  0  0  0  0  0  0  0  0  0
   -3.0398   -0.7321   -0.5189 H   0  0  0  0  0  0  0  0  0  0  0  0
   -4.0162    1.2950    1.5526 H   0  0  0  0  0  0  0  0  0  0  0  0
   -3.7385   -0.9156    2.5195 H   0  0  0  0  0  0  0  0  0  0  0  0
   -2.1078   -1.0749    1.8612 H   0  0  0  0  0  0  0  0  0  0  0  0
   -2.4486    0.1376    3.1130 H   0  0  0  0  0  0  0  0  0  0  0  0
   -2.3989    2.4163    0.1375 H   0  0  0  0  0  0  0  0  0  0  0  0
   -1.7698    2.1849    1.7443 H   0  0  0  0  0  0  0  0  0  0  0  0
    0.1422    0.6653    2.1682 H   0  0  0  0  0  0  0  0  0  0  0  0
    2.1688   -0.3417    1.2347 H   0  0  0  0  0  0  0  0  0  0  0  0
    2.6525   -0.8675   -2.5193 H   0  0  0  0  0  0  0  0  0  0  0  0
    3.9361   -2.6164   -1.4034 H   0  0  0  0  0  0  0  0  0  0  0  0
    3.2197   -2.2213    0.1594 H   0  0  0  0  0  0  0  0  0  0  0  0
    2.1970   -2.8425   -1.1418 H   0  0  0  0  0  0  0  0  0  0  0  0
    5.4076    0.6066   -0.1749 H   0  0  0  0  0  0  0  0  0  0  0  0
    0.6083    0.2306   -2.7509 H   0  0  0  0  0  0  0  0  0  0  0  0
   -1.4145    1.2393   -1.8088 H   0  0  0  0  0  0  0  0  0  0  0  0
  1  2  1  0
  2  3  1  0
  2  4  1  0
  4  5  1  0
  5  6  2  0
  6  7  1  0
  7  8  2  0
  8  9  1  0
  9 10  1  0
  9 11  1  0
 11 12  2  0
 11 13  1  0
  8 14  1  0
 14 15  2  0
 15  5  1  0
  1 16  1  0
  1 17  1  0
  1 18  1  0
  2 19  1  0
  3 20  1  0
  3 21  1  0
  3 22  1  0
  4 23  1  0
  4 24  1  0
  6 25  1  0
  7 26  1  0
  9 27  1  0
 10 28  1  0
 10 29  1  0
 10 30  1  0
 13 31  1  0
 14 32  1  0
 15 33  1  0
M  END
$$$$
