
     RDKit          3D

 34 35  0  0  0  0  0  0  0  0999 V2000
    4.1407   -1.6538   -0.7859 C   0  0  0  0  0  0  0  0  0  0  0  0
    4.1077   -0.2069   -0.3307 C   0  0  0  0  0  0  0  0  0  0  0  0
    2.7522    0.2537   -0.2468 O   0  0  0  0  0  0  0  0  0  0  0  0
    2.1265    0.0026    0.9199 C   0  0  0  0  0  0  0  0  0  0  0  0
    2.5693   -0.5193    1.9250 O   0  0  0  0  0  0  0  0  0  0  0  0
    0.7045    0.5339    0.8392 C   0  0  0  0  0  0  0  0  0  0  0  0
   -0.1402   -0.1761    0.1680 N   0  0  0  0  0  0  0  0  0  0  0  0
   -1.4453    0.2585    0.0623 N   0  0  0  0  0  0  0  0  0  0  0  0
   -2.2799   -0.6290   -0.7157 C   0  0  0  0  0  0  0  0  0  0  0  0
   -1.7322   -1.8034   -1.2737 C   0  0  0  0  0  0  0  0  0  0  0  0
   -2.5026   -2.6915   -2.0339 C   0  0  0  0  0  0  0  0  0  0  0  0
   -3.8472   -2.4280   -2.2576 C   0  0  0  0  0  0  0  0  0  0  0  0
   -4.4155   -1.2791   -1.7208 C   0  0  0  0  0  0  0  0  0  0  0  0
   -3.6409   -0.3917   -0.9596 C   0  0  0  0  0  0  0  0  0  0  0  0
   -1.8886    1.4474    0.6596 C   0  0  0  0  0  0  0  0  0  0  0  0
   -3.0283    1.9068    0.6124 O   0  0  0  0  0  0  0  0  0  0  0  0
   -0.8613    2.2218    1.4228 C   0  0  0  0  0  0  0  0  0  0  0  0
   -1.2970    3.4323    2.0352 C   0  0  0  0  0  0  0  0  0  0  0  0
   -1.5801    4.4296    2.5573 N   0  0  0  0  0  0  0  0  0  0  0  0
    0.4112    1.8059    1.5311 C   0  0  0  0  0  0  0  0  0  0  0  0
    1.5214    2.5008    2.2632 C   0  0  0  0  0  0  0  0  0  0  0  0
    3.6122   -1.7695   -1.7379 H   0  0  0  0  0  0  0  0  0  0  0  0
    3.6394   -2.3044   -0.0623 H   0  0  0  0  0  0  0  0  0  0  0  0
    5.1713   -1.9981   -0.9099 H   0  0  0  0  0  0  0  0  0  0  0  0
    4.6324   -0.0752    0.6228 H   0  0  0  0  0  0  0  0  0  0  0  0
    4.6158    0.4234   -1.0679 H   0  0  0  0  0  0  0  0  0  0  0  0
   -0.6845   -2.0541   -1.1261 H   0  0  0  0  0  0  0  0  0  0  0  0
   -2.0458   -3.5868   -2.4472 H   0  0  0  0  0  0  0  0  0  0  0  0
   -4.4504   -3.1136   -2.8464 H   0  0  0  0  0  0  0  0  0  0  0  0
   -5.4681   -1.0636   -1.8896 H   0  0  0  0  0  0  0  0  0  0  0  0
   -4.1564    0.4812   -0.5750 H   0  0  0  0  0  0  0  0  0  0  0  0
    2.3616    2.6979    1.5890 H   0  0  0  0  0  0  0  0  0  0  0  0
    1.2218    3.4647    2.6839 H   0  0  0  0  0  0  0  0  0  0  0  0
    1.8761    1.8836    3.0951 H   0  0  0  0  0  0  0  0  0  0  0  0
  1  2  1  0
  2  3  1  0
  3  4  1  0
  4  5  2  0
  4  6  1  0
  6  7  2  0
  7  8  1  0
  8  9  1  0
  9 10  2  0
 10 11  1  0
 11 12  2  0
 12 13  1  0
 13 14  2  0
  8 15  1  0
 15 16  2  0
 15 17  1  0
 17 18  1  0
 18 19  3  0
 17 20  2  0
 20 21  1  0
 20  6  1  0
 14  9  1  0
  1 22  1  0
  1 23  1  0
  1 24  1  0
  2 25  1  0
  2 26  1  0
 10 27  1  0
 11 28  1  0
 12 29  1  0
 13 30  1  0
 14 31  1  0
 21 32  1  0
 21 33  1  0
 21 34  1  0
M  END
$$$$
