
     RDKit          3D

 31 32  0  0  0  0  0  0  0  0999 V2000
    5.4207   -1.4298    1.1183 C   0  0  0  0  0  0  0  0  0  0  0  0
    4.3065   -0.0812    1.5933 S   0  0  0  0  0  0  0  0  0  0  0  0
    2.8218   -0.5893    0.7432 C   0  0  0  0  0  0  0  0  0  0  0  0
    2.8060   -0.8011   -0.6397 C   0  0  0  0  0  0  0  0  0  0  0  0
    1.6259   -1.1818   -1.2816 C   0  0  0  0  0  0  0  0  0  0  0  0
    0.4548   -1.3484   -0.5443 C   0  0  0  0  0  0  0  0  0  0  0  0
    0.4647   -1.1361    0.8325 C   0  0  0  0  0  0  0  0  0  0  0  0
   -0.7514   -1.2655    1.5701 N   0  0  0  0  0  0  0  0  0  0  0  0
   -1.6983    0.1422    1.6994 S   0  0  0  0  0  6  0  0  0  0  0  0
   -2.8295   -0.1912    2.5409 O   0  0  0  0  0  0  0  0  0  0  0  0
   -0.8364    1.2601    2.0279 O   0  0  0  0  0  0  0  0  0  0  0  0
   -2.4095    0.5568    0.1618 C   0  0  0  0  0  0  0  0  0  0  0  0
   -2.7495    1.8309   -0.2534 C   0  0  0  0  0  0  0  0  0  0  0  0
   -3.2832    1.6659   -1.4974 N   0  0  0  0  0  0  0  0  0  0  0  0
   -3.7964    2.7034   -2.3553 C   0  0  0  0  0  0  0  0  0  0  0  0
   -3.2559    0.3335   -1.7974 C   0  0  0  0  0  0  0  0  0  0  0  0
   -2.7320   -0.3711   -0.8193 N   0  0  0  0  0  0  0  0  0  0  0  0
    1.6395   -0.7415    1.4754 C   0  0  0  0  0  0  0  0  0  0  0  0
    5.6398   -1.3973    0.0480 H   0  0  0  0  0  0  0  0  0  0  0  0
    4.9812   -2.3985    1.3720 H   0  0  0  0  0  0  0  0  0  0  0  0
    6.3620   -1.3227    1.6642 H   0  0  0  0  0  0  0  0  0  0  0  0
    3.7048   -0.6559   -1.2335 H   0  0  0  0  0  0  0  0  0  0  0  0
    1.6168   -1.3425   -2.3565 H   0  0  0  0  0  0  0  0  0  0  0  0
   -0.4606   -1.6500   -1.0476 H   0  0  0  0  0  0  0  0  0  0  0  0
   -0.6291   -1.6403    2.5097 H   0  0  0  0  0  0  0  0  0  0  0  0
   -2.6519    2.7922    0.2328 H   0  0  0  0  0  0  0  0  0  0  0  0
   -3.2075    2.7128   -3.2759 H   0  0  0  0  0  0  0  0  0  0  0  0
   -4.8450    2.4854   -2.5732 H   0  0  0  0  0  0  0  0  0  0  0  0
   -3.7145    3.6694   -1.8508 H   0  0  0  0  0  0  0  0  0  0  0  0
   -3.6286   -0.0659   -2.7323 H   0  0  0  0  0  0  0  0  0  0  0  0
    1.6350   -0.5422    2.5438 H   0  0  0  0  0  0  0  0  0  0  0  0
  1  2  1  0
  2  3  1  0
  3  4  2  0
  4  5  1  0
  5  6  2  0
  6  7  1  0
  7  8  1  0
  8  9  1  0
  9 10  2  0
  9 11  2  0
  9 12  1  0
 12 13  2  0
 13 14  1  0
 14 15  1  0
 14 16  1  0
 16 17  2  0
  7 18  2  0
 18  3  1  0
 17 12  1  0
  1 19  1  0
  1 20  1  0
  1 21  1  0
  4 22  1  0
  5 23  1  0
  6 24  1  0
  8 25  1  0
 13 26  1  0
 15 27  1  0
 15 28  1  0
 15 29  1  0
 16 30  1  0
 18 31  1  0
M  END
$$$$
