
     RDKit          3D

 36 37  0  0  0  0  0  0  0  0999 V2000
   -1.3206    1.6024   -1.5655 C   0  0  0  0  0  0  0  0  0  0  0  0
   -2.3375    1.0869   -0.5552 C   0  0  0  0  0  0  0  0  0  0  0  0
   -1.9113   -0.2206   -0.0323 N   0  0  0  0  0  0  0  0  0  0  0  0
   -2.8836   -1.2912   -0.3397 C   0  0  0  0  0  0  0  0  0  0  0  0
   -2.9275   -1.6770   -1.8290 C   0  0  0  0  0  0  0  0  0  0  0  0
   -1.7381   -2.3686   -2.2016 O   0  0  0  0  0  0  0  0  0  0  0  0
   -1.6341   -0.1885    1.4124 C   0  0  0  0  0  0  0  0  0  0  0  0
   -0.3888    0.6085    1.7045 C   0  0  0  0  0  0  0  0  0  0  0  0
   -0.3763    1.7739    2.4470 C   0  0  0  0  0  0  0  0  0  0  0  0
    1.1826    2.4304    2.6299 S   0  0  0  0  0  0  0  0  0  0  0  0
    1.9052    1.1587    1.7249 C   0  0  0  0  0  0  0  0  0  0  0  0
    3.2766    1.0038    1.4328 C   0  0  0  0  0  0  0  0  0  0  0  0
    3.7028   -0.0993    0.6802 C   0  0  0  0  0  0  0  0  0  0  0  0
    5.1540   -0.2573    0.3325 C   0  0  0  0  0  0  0  0  0  0  0  0
    2.7626   -1.0106    0.2071 C   0  0  0  0  0  0  0  0  0  0  0  0
    1.4040   -0.8523    0.5009 C   0  0  0  0  0  0  0  0  0  0  0  0
    0.9495    0.2431    1.2782 C   0  0  0  0  0  0  0  0  0  0  0  0
   -0.3412    1.7651   -1.1056 H   0  0  0  0  0  0  0  0  0  0  0  0
   -1.6564    2.5589   -1.9791 H   0  0  0  0  0  0  0  0  0  0  0  0
   -1.1951    0.9034   -2.3989 H   0  0  0  0  0  0  0  0  0  0  0  0
   -2.4614    1.8332    0.2391 H   0  0  0  0  0  0  0  0  0  0  0  0
   -3.3175    1.0305   -1.0453 H   0  0  0  0  0  0  0  0  0  0  0  0
   -2.6046   -2.1994    0.2100 H   0  0  0  0  0  0  0  0  0  0  0  0
   -3.8857   -0.9995   -0.0013 H   0  0  0  0  0  0  0  0  0  0  0  0
   -3.7698   -2.3538   -2.0054 H   0  0  0  0  0  0  0  0  0  0  0  0
   -3.0537   -0.8049   -2.4773 H   0  0  0  0  0  0  0  0  0  0  0  0
   -1.6970   -2.3627   -3.1722 H   0  0  0  0  0  0  0  0  0  0  0  0
   -2.4950    0.2021    1.9705 H   0  0  0  0  0  0  0  0  0  0  0  0
   -1.4509   -1.2031    1.7910 H   0  0  0  0  0  0  0  0  0  0  0  0
   -1.2222    2.2766    2.8949 H   0  0  0  0  0  0  0  0  0  0  0  0
    3.9925    1.7385    1.7915 H   0  0  0  0  0  0  0  0  0  0  0  0
    5.7918    0.1520    1.1231 H   0  0  0  0  0  0  0  0  0  0  0  0
    5.3731    0.2637   -0.6046 H   0  0  0  0  0  0  0  0  0  0  0  0
    5.4162   -1.3146    0.2196 H   0  0  0  0  0  0  0  0  0  0  0  0
    3.0715   -1.8572   -0.4022 H   0  0  0  0  0  0  0  0  0  0  0  0
    0.6860   -1.5712    0.1100 H   0  0  0  0  0  0  0  0  0  0  0  0
  1  2  1  0
  2  3  1  0
  3  4  1  0
  4  5  1  0
  5  6  1  0
  3  7  1  0
  7  8  1  0
  8  9  2  0
  9 10  1  0
 10 11  1  0
 11 12  2  0
 12 13  1  0
 13 14  1  0
 13 15  2  0
 15 16  1  0
 16 17  2  0
 17  8  1  0
 17 11  1  0
  1 18  1  0
  1 19  1  0
  1 20  1  0
  2 21  1  0
  2 22  1  0
  4 23  1  0
  4 24  1  0
  5 25  1  0
  5 26  1  0
  6 27  1  0
  7 28  1  0
  7 29  1  0
  9 30  1  0
 12 31  1  0
 14 32  1  0
 14 33  1  0
 14 34  1  0
 15 35  1  0
 16 36  1  0
M  END
$$$$
