
     RDKit          3D

 44 46  0  0  0  0  0  0  0  0999 V2000
   -6.7540    0.4751    0.4537 C   0  0  0  0  0  0  0  0  0  0  0  0
   -5.3798    0.4525   -0.1554 C   0  0  0  0  0  0  0  0  0  0  0  0
   -5.1002   -0.3672   -1.2605 C   0  0  0  0  0  0  0  0  0  0  0  0
   -3.8224   -0.3764   -1.8574 C   0  0  0  0  0  0  0  0  0  0  0  0
   -3.6209   -1.2280   -3.0814 C   0  0  0  0  0  0  0  0  0  0  0  0
   -2.7988    0.4155   -1.2921 C   0  0  0  0  0  0  0  0  0  0  0  0
   -1.5095    0.4095   -1.7709 O   0  0  0  0  0  0  0  0  0  0  0  0
   -0.8886   -0.8797   -1.6923 C   0  0  0  0  0  0  0  0  0  0  0  0
    0.5472   -0.7689   -1.1831 C   0  0  0  0  0  0  0  0  0  0  0  0
    1.4657   -1.3632   -1.7536 O   0  0  0  0  0  0  0  0  0  0  0  0
    0.6297   -0.0514   -0.0019 N   0  0  0  0  0  0  0  0  0  0  0  0
    1.8043    0.0993    0.6783 C   0  0  0  0  0  0  0  0  0  0  0  0
    3.0208   -0.1534    0.2777 N   0  0  0  0  0  0  0  0  0  0  0  0
    3.9047    0.0299    1.3404 C   0  0  0  0  0  0  0  0  0  0  0  0
    5.3268   -0.2489    1.2079 C   0  0  0  0  0  0  0  0  0  0  0  0
    5.9056   -0.2432   -0.0627 C   0  0  0  0  0  0  0  0  0  0  0  0
    7.2557   -0.5539   -0.1839 C   0  0  0  0  0  0  0  0  0  0  0  0
    7.9636   -0.9121    0.9681 C   0  0  0  0  0  0  0  0  0  0  0  0
    7.3019   -0.9194    2.2021 C   0  0  0  0  0  0  0  0  0  0  0  0
    6.0057   -0.5856    2.3496 N   0  0  0  0  0  0  0  0  0  0  0  0
    3.3211    0.4635    2.5232 C   0  0  0  0  0  0  0  0  0  0  0  0
    1.6315    0.6865    2.2806 S   0  0  0  0  0  0  0  0  0  0  0  0
   -3.0860    1.3142   -0.2385 C   0  0  0  0  0  0  0  0  0  0  0  0
   -2.0544    2.2596    0.3482 C   0  0  0  0  0  0  0  0  0  0  0  0
   -4.3721    1.3044    0.3330 C   0  0  0  0  0  0  0  0  0  0  0  0
   -6.7379    0.9398    1.4494 H   0  0  0  0  0  0  0  0  0  0  0  0
   -7.1460   -0.5477    0.5765 H   0  0  0  0  0  0  0  0  0  0  0  0
   -7.4316    1.0544   -0.1817 H   0  0  0  0  0  0  0  0  0  0  0  0
   -5.8917   -0.9954   -1.6672 H   0  0  0  0  0  0  0  0  0  0  0  0
   -2.9088   -0.7621   -3.7769 H   0  0  0  0  0  0  0  0  0  0  0  0
   -3.2685   -2.2321   -2.8123 H   0  0  0  0  0  0  0  0  0  0  0  0
   -4.5589   -1.3359   -3.6322 H   0  0  0  0  0  0  0  0  0  0  0  0
   -0.8514   -1.3173   -2.6981 H   0  0  0  0  0  0  0  0  0  0  0  0
   -1.4149   -1.5713   -1.0132 H   0  0  0  0  0  0  0  0  0  0  0  0
   -0.2161    0.2648    0.4564 H   0  0  0  0  0  0  0  0  0  0  0  0
    5.3238    0.0366   -0.9444 H   0  0  0  0  0  0  0  0  0  0  0  0
    7.7583   -0.5091   -1.1600 H   0  0  0  0  0  0  0  0  0  0  0  0
    9.0117   -1.1841    0.8996 H   0  0  0  0  0  0  0  0  0  0  0  0
    7.8110   -1.2416    3.1160 H   0  0  0  0  0  0  0  0  0  0  0  0
    3.7956    0.6640    3.4888 H   0  0  0  0  0  0  0  0  0  0  0  0
   -2.5085    3.2172    0.6225 H   0  0  0  0  0  0  0  0  0  0  0  0
   -1.2548    2.4951   -0.3762 H   0  0  0  0  0  0  0  0  0  0  0  0
   -1.6199    1.8047    1.2527 H   0  0  0  0  0  0  0  0  0  0  0  0
   -4.5890    1.9615    1.1828 H   0  0  0  0  0  0  0  0  0  0  0  0
  1  2  1  0
  2  3  2  0
  3  4  1  0
  4  5  1  0
  4  6  2  0
  6  7  1  0
  7  8  1  0
  8  9  1  0
  9 10  2  0
  9 11  1  0
 11 12  1  0
 12 13  2  0
 13 14  1  0
 14 15  1  0
 15 16  2  0
 16 17  1  0
 17 18  2  0
 18 19  1  0
 19 20  2  0
 14 21  2  0
 21 22  1  0
  6 23  1  0
 23 24  1  0
 23 25  2  0
 25  2  1  0
 22 12  1  0
 20 15  1  0
  1 26  1  0
  1 27  1  0
  1 28  1  0
  3 29  1  0
  5 30  1  0
  5 31  1  0
  5 32  1  0
  8 33  1  0
  8 34  1  0
 11 35  1  0
 16 36  1  0
 17 37  1  0
 18 38  1  0
 19 39  1  0
 21 40  1  0
 24 41  1  0
 24 42  1  0
 24 43  1  0
 25 44  1  0
M  END
$$$$
