
     RDKit          3D

 71 77  0  0  0  0  0  0  0  0999 V2000
    6.3984    1.9880   -1.7045 C   0  0  0  0  0  0  0  0  0  0  0  0
    6.2665    1.5667   -0.3549 O   0  0  0  0  0  0  0  0  0  0  0  0
    5.1203    0.7392   -0.1407 C   0  0  0  0  0  0  0  0  0  0  0  0
    3.7501    1.4934   -0.2055 C   0  0  0  0  0  0  0  0  0  0  0  0
    3.7011    2.7272   -0.1412 O   0  0  0  0  0  0  0  0  0  0  0  0
    2.5814    0.7475   -0.3975 N   0  0  0  0  0  0  0  0  0  0  0  0
    2.4948   -0.7084   -0.1420 C   0  0  0  0  0  0  0  0  0  0  0  0
    1.2549   -1.3992   -0.7723 C   0  0  0  0  0  0  0  0  0  0  0  0
    0.0698   -0.6176   -0.4730 N   0  0  0  0  0  0  0  0  0  0  0  0
    0.1938    0.7581   -1.0463 C   0  0  2  0  0  0  0  0  0  0  0  0
    1.3040    1.4894   -0.3030 C   0  0  0  0  0  0  0  0  0  0  0  0
   -1.2021    1.2278   -0.9171 C   0  0  0  0  0  0  0  0  0  0  0  0
   -2.0604    0.1221   -0.7980 C   0  0  0  0  0  0  0  0  0  0  0  0
   -3.3519    0.5716   -0.8070 C   0  0  0  0  0  0  0  0  0  0  0  0
   -4.4705   -0.1481   -0.8875 O   0  0  0  0  0  0  0  0  0  0  0  0
   -3.3017    1.9827   -0.7816 N   0  0  0  0  0  0  0  0  0  0  0  0
   -4.4270    2.8522   -0.6113 C   0  0  0  0  0  0  0  0  0  0  0  0
   -4.4510    4.1229   -1.1981 C   0  0  0  0  0  0  0  0  0  0  0  0
   -5.5601    4.9570   -1.0288 C   0  0  0  0  0  0  0  0  0  0  0  0
   -6.6457    4.5351   -0.2648 C   0  0  0  0  0  0  0  0  0  0  0  0
   -6.6233    3.2803    0.3391 C   0  0  0  0  0  0  0  0  0  0  0  0
   -5.5191    2.4413    0.1701 C   0  0  0  0  0  0  0  0  0  0  0  0
   -1.9543    2.3720   -0.9420 C   0  0  0  0  0  0  0  0  0  0  0  0
   -1.5790    3.6443   -1.0354 O   0  0  0  0  0  0  0  0  0  0  0  0
   -1.2786   -1.1400   -0.7979 C   0  0  1  0  0  0  0  0  0  0  0  0
   -1.3807   -1.9268   -2.1271 C   0  0  0  0  0  0  0  0  0  0  0  0
   -1.0029   -1.5939   -3.2416 O   0  0  0  0  0  0  0  0  0  0  0  0
   -1.9707   -3.1545   -1.8174 N   0  0  0  0  0  0  0  0  0  0  0  0
   -2.2505   -3.2661   -0.4549 C   0  0  0  0  0  0  0  0  0  0  0  0
   -1.8520   -2.0944    0.2065 C   0  0  0  0  0  0  0  0  0  0  0  0
   -2.0082   -1.9675    1.5760 C   0  0  0  0  0  0  0  0  0  0  0  0
   -2.5972   -3.0263    2.2673 C   0  0  0  0  0  0  0  0  0  0  0  0
   -3.0092   -4.1933    1.5915 C   0  0  0  0  0  0  0  0  0  0  0  0
   -3.7598   -5.4278    2.5446 Cl  0  0  0  0  0  0  0  0  0  0  0  0
   -2.8237   -4.3474    0.2047 C   0  0  0  0  0  0  0  0  0  0  0  0
   -3.2792   -5.5672   -0.5378 C   0  0  0  0  0  0  0  0  0  0  0  0
    5.3388    0.0844    1.2158 C   0  0  0  0  0  0  0  0  0  0  0  0
    5.1655    0.8110    2.4047 C   0  0  0  0  0  0  0  0  0  0  0  0
    5.3700    0.2048    3.6456 C   0  0  0  0  0  0  0  0  0  0  0  0
    5.7624   -1.1300    3.7139 C   0  0  0  0  0  0  0  0  0  0  0  0
    5.9615   -1.8571    2.5425 C   0  0  0  0  0  0  0  0  0  0  0  0
    5.7585   -1.2530    1.2999 C   0  0  0  0  0  0  0  0  0  0  0  0
    7.2856    2.6224   -1.7790 H   0  0  0  0  0  0  0  0  0  0  0  0
    5.5314    2.5706   -2.0278 H   0  0  0  0  0  0  0  0  0  0  0  0
    6.5351    1.1261   -2.3639 H   0  0  0  0  0  0  0  0  0  0  0  0
    5.1158   -0.0291   -0.9237 H   0  0  0  0  0  0  0  0  0  0  0  0
    3.3901   -1.2090   -0.5153 H   0  0  0  0  0  0  0  0  0  0  0  0
    2.4673   -0.8325    0.9476 H   0  0  0  0  0  0  0  0  0  0  0  0
    1.4068   -1.4928   -1.8543 H   0  0  0  0  0  0  0  0  0  0  0  0
    1.1733   -2.4106   -0.3589 H   0  0  0  0  0  0  0  0  0  0  0  0
    0.4419    0.6992   -2.1162 H   0  0  0  0  0  0  0  0  0  0  0  0
    1.0702    1.6049    0.7637 H   0  0  0  0  0  0  0  0  0  0  0  0
    1.4239    2.4969   -0.7165 H   0  0  0  0  0  0  0  0  0  0  0  0
   -5.1728    0.4149   -1.2614 H   0  0  0  0  0  0  0  0  0  0  0  0
   -3.6348    4.4794   -1.8193 H   0  0  0  0  0  0  0  0  0  0  0  0
   -5.5738    5.9387   -1.4949 H   0  0  0  0  0  0  0  0  0  0  0  0
   -7.5028    5.1895   -0.1299 H   0  0  0  0  0  0  0  0  0  0  0  0
   -7.4592    2.9600    0.9560 H   0  0  0  0  0  0  0  0  0  0  0  0
   -5.5117    1.4922    0.7021 H   0  0  0  0  0  0  0  0  0  0  0  0
   -0.6089    3.6777   -1.1101 H   0  0  0  0  0  0  0  0  0  0  0  0
   -2.1624   -3.8502   -2.5220 H   0  0  0  0  0  0  0  0  0  0  0  0
   -1.6964   -1.0652    2.0936 H   0  0  0  0  0  0  0  0  0  0  0  0
   -2.7451   -2.9386    3.3415 H   0  0  0  0  0  0  0  0  0  0  0  0
   -4.3394   -5.4725   -0.7961 H   0  0  0  0  0  0  0  0  0  0  0  0
   -3.1342   -6.4788    0.0518 H   0  0  0  0  0  0  0  0  0  0  0  0
   -2.7084   -5.7150   -1.4606 H   0  0  0  0  0  0  0  0  0  0  0  0
    4.8828    1.8624    2.3681 H   0  0  0  0  0  0  0  0  0  0  0  0
    5.2340    0.7806    4.5572 H   0  0  0  0  0  0  0  0  0  0  0  0
    5.9288   -1.5982    4.6808 H   0  0  0  0  0  0  0  0  0  0  0  0
    6.2899   -2.8921    2.5969 H   0  0  0  0  0  0  0  0  0  0  0  0
    5.9404   -1.8316    0.3975 H   0  0  0  0  0  0  0  0  0  0  0  0
  1  2  1  0
  2  3  1  0
  3  4  1  0
  4  5  2  0
  4  6  1  0
  6  7  1  0
  7  8  1  0
  8  9  1  0
  9 10  1  0
 10 11  1  0
 10 12  1  0
 12 13  1  0
 13 14  2  0
 14 15  1  0
 14 16  1  0
 16 17  1  0
 17 18  2  0
 18 19  1  0
 19 20  2  0
 20 21  1  0
 21 22  2  0
 16 23  1  0
 23 24  1  0
 13 25  1  0
 25 26  1  0
 26 27  2  0
 26 28  1  0
 28 29  1  0
 29 30  2  0
 30 31  1  0
 31 32  2  0
 32 33  1  0
 33 34  1  0
 33 35  2  0
 35 36  1  0
  3 37  1  0
 37 38  2  0
 38 39  1  0
 39 40  2  0
 40 41  1  0
 41 42  2  0
 11  6  1  0
 23 12  2  0
 30 25  1  0
 42 37  1  0
 25  9  1  1
 35 29  1  0
 22 17  1  0
  1 43  1  0
  1 44  1  0
  1 45  1  0
  3 46  1  0
  7 47  1  0
  7 48  1  0
  8 49  1  0
  8 50  1  0
 10 51  1  6
 11 52  1  0
 11 53  1  0
 15 54  1  0
 18 55  1  0
 19 56  1  0
 20 57  1  0
 21 58  1  0
 22 59  1  0
 24 60  1  0
 28 61  1  0
 31 62  1  0
 32 63  1  0
 36 64  1  0
 36 65  1  0
 36 66  1  0
 38 67  1  0
 39 68  1  0
 40 69  1  0
 41 70  1  0
 42 71  1  0
M  END
$$$$
