
     RDKit          3D

 61 66  0  0  0  0  0  0  0  0999 V2000
    7.8815    2.7943   -1.1538 C   0  0  0  0  0  0  0  0  0  0  0  0
    7.3597    2.8397    0.1377 C   0  0  0  0  0  0  0  0  0  0  0  0
    6.1096    2.2792    0.4072 C   0  0  0  0  0  0  0  0  0  0  0  0
    5.3678    1.6708   -0.6158 C   0  0  0  0  0  0  0  0  0  0  0  0
    4.0224    1.0501   -0.3155 C   0  0  0  0  0  0  0  0  0  0  0  0
    4.1739   -0.3882    0.2124 C   0  0  0  0  0  0  0  0  0  0  0  0
    2.9523   -1.0820    0.6476 N   0  0  0  0  0  0  0  0  0  0  0  0
    2.3284   -0.4714    1.8384 C   0  0  0  0  0  0  0  0  0  0  0  0
    1.0919   -1.2554    2.3371 C   0  0  0  0  0  0  0  0  0  0  0  0
    0.1085   -1.5207    1.2642 N   0  0  0  0  0  0  0  0  0  0  0  0
   -0.9264   -0.6437    1.0660 C   0  0  0  0  0  0  0  0  0  0  0  0
   -0.9457    0.7343    1.1915 C   0  0  0  0  0  0  0  0  0  0  0  0
   -2.1978    1.2005    0.7396 C   0  0  0  0  0  0  0  0  0  0  0  0
   -2.9463    0.0980    0.3776 C   0  0  0  0  0  0  0  0  0  0  0  0
   -4.2862   -0.0253   -0.1544 C   0  0  0  0  0  0  0  0  0  0  0  0
   -5.0410    1.1785   -0.5816 C   0  0  0  0  0  0  0  0  0  0  0  0
   -4.4878    2.0845   -1.4942 C   0  0  0  0  0  0  0  0  0  0  0  0
   -5.2303    3.1919   -1.9071 C   0  0  0  0  0  0  0  0  0  0  0  0
   -6.5211    3.3898   -1.4139 C   0  0  0  0  0  0  0  0  0  0  0  0
   -7.0770    2.4807   -0.5121 C   0  0  0  0  0  0  0  0  0  0  0  0
   -6.3416    1.3682   -0.1011 C   0  0  0  0  0  0  0  0  0  0  0  0
   -4.8586   -1.1877   -0.2675 N   0  0  0  0  0  0  0  0  0  0  0  0
   -4.1505   -2.3402    0.1264 C   0  0  0  0  0  0  0  0  0  0  0  0
   -4.8146   -3.5665    0.0354 C   0  0  0  0  0  0  0  0  0  0  0  0
   -4.1882   -4.7483    0.4318 C   0  0  0  0  0  0  0  0  0  0  0  0
   -2.8897   -4.7109    0.9338 C   0  0  0  0  0  0  0  0  0  0  0  0
   -2.2098   -3.4959    1.0303 C   0  0  0  0  0  0  0  0  0  0  0  0
   -2.8286   -2.3153    0.6091 C   0  0  0  0  0  0  0  0  0  0  0  0
   -2.2136   -1.0380    0.6849 N   0  0  0  0  0  0  0  0  0  0  0  0
    0.7436   -2.0905    0.0477 C   0  0  0  0  0  0  0  0  0  0  0  0
    1.9458   -1.2372   -0.4205 C   0  0  0  0  0  0  0  0  0  0  0  0
    5.9032    1.6250   -1.9102 C   0  0  0  0  0  0  0  0  0  0  0  0
    7.1539    2.1874   -2.1777 C   0  0  0  0  0  0  0  0  0  0  0  0
    8.8541    3.2332   -1.3624 H   0  0  0  0  0  0  0  0  0  0  0  0
    7.9272    3.3108    0.9375 H   0  0  0  0  0  0  0  0  0  0  0  0
    5.7194    2.3203    1.4223 H   0  0  0  0  0  0  0  0  0  0  0  0
    3.4088    1.0651   -1.2247 H   0  0  0  0  0  0  0  0  0  0  0  0
    3.5044    1.6868    0.4111 H   0  0  0  0  0  0  0  0  0  0  0  0
    4.8841   -0.3986    1.0507 H   0  0  0  0  0  0  0  0  0  0  0  0
    4.6546   -1.0004   -0.5631 H   0  0  0  0  0  0  0  0  0  0  0  0
    3.0576   -0.4381    2.6573 H   0  0  0  0  0  0  0  0  0  0  0  0
    2.0343    0.5619    1.6292 H   0  0  0  0  0  0  0  0  0  0  0  0
    1.4216   -2.2237    2.7329 H   0  0  0  0  0  0  0  0  0  0  0  0
    0.6233   -0.7237    3.1743 H   0  0  0  0  0  0  0  0  0  0  0  0
   -0.1223    1.3537    1.5197 H   0  0  0  0  0  0  0  0  0  0  0  0
   -2.5109    2.2352    0.6824 H   0  0  0  0  0  0  0  0  0  0  0  0
   -3.4934    1.9246   -1.9015 H   0  0  0  0  0  0  0  0  0  0  0  0
   -4.8117    3.8948   -2.6228 H   0  0  0  0  0  0  0  0  0  0  0  0
   -7.0995    4.2507   -1.7419 H   0  0  0  0  0  0  0  0  0  0  0  0
   -8.0864    2.6334   -0.1377 H   0  0  0  0  0  0  0  0  0  0  0  0
   -6.7800    0.6516    0.5907 H   0  0  0  0  0  0  0  0  0  0  0  0
   -5.8339   -3.5921   -0.3417 H   0  0  0  0  0  0  0  0  0  0  0  0
   -4.7180   -5.6925    0.3588 H   0  0  0  0  0  0  0  0  0  0  0  0
   -2.4062   -5.6276    1.2615 H   0  0  0  0  0  0  0  0  0  0  0  0
   -1.2150   -3.5024    1.4592 H   0  0  0  0  0  0  0  0  0  0  0  0
    1.0896   -3.1050    0.2817 H   0  0  0  0  0  0  0  0  0  0  0  0
    0.0210   -2.1847   -0.7711 H   0  0  0  0  0  0  0  0  0  0  0  0
    1.5777   -0.2597   -0.7567 H   0  0  0  0  0  0  0  0  0  0  0  0
    2.4005   -1.7337   -1.2864 H   0  0  0  0  0  0  0  0  0  0  0  0
    5.3487    1.1526   -2.7193 H   0  0  0  0  0  0  0  0  0  0  0  0
    7.5627    2.1520   -3.1846 H   0  0  0  0  0  0  0  0  0  0  0  0
  1  2  2  0
  2  3  1  0
  3  4  2  0
  4  5  1  0
  5  6  1  0
  6  7  1  0
  7  8  1  0
  8  9  1  0
  9 10  1  0
 10 11  1  0
 11 12  2  0
 12 13  1  0
 13 14  2  0
 14 15  1  0
 15 16  1  0
 16 17  2  0
 17 18  1  0
 18 19  2  0
 19 20  1  0
 20 21  2  0
 15 22  2  0
 22 23  1  0
 23 24  2  0
 24 25  1  0
 25 26  2  0
 26 27  1  0
 27 28  2  0
 28 29  1  0
 10 30  1  0
 30 31  1  0
  4 32  1  0
 32 33  2  0
 33  1  1  0
 31  7  1  0
 29 11  1  0
 29 14  1  0
 21 16  1  0
 28 23  1  0
  1 34  1  0
  2 35  1  0
  3 36  1  0
  5 37  1  0
  5 38  1  0
  6 39  1  0
  6 40  1  0
  8 41  1  0
  8 42  1  0
  9 43  1  0
  9 44  1  0
 12 45  1  0
 13 46  1  0
 17 47  1  0
 18 48  1  0
 19 49  1  0
 20 50  1  0
 21 51  1  0
 24 52  1  0
 25 53  1  0
 26 54  1  0
 27 55  1  0
 30 56  1  0
 30 57  1  0
 31 58  1  0
 31 59  1  0
 32 60  1  0
 33 61  1  0
M  END
$$$$
