
     RDKit          3D

 40 42  0  0  0  0  0  0  0  0999 V2000
    2.8039   -1.1988    2.0801 O   0  0  0  0  0  0  0  0  0  0  0  0
    3.0365   -0.4128    1.1703 C   0  0  0  0  0  0  0  0  0  0  0  0
    2.2572   -0.1770    0.0522 N   0  0  0  0  0  0  0  0  0  0  0  0
    0.9956   -0.7349   -0.2449 C   0  0  0  0  0  0  0  0  0  0  0  0
    0.4247   -0.3975   -1.4812 C   0  0  0  0  0  0  0  0  0  0  0  0
   -0.8250   -0.9007   -1.8532 C   0  0  0  0  0  0  0  0  0  0  0  0
   -1.5161   -1.7388   -0.9784 C   0  0  0  0  0  0  0  0  0  0  0  0
   -3.0850   -2.4204   -1.4499 S   0  0  0  0  0  6  0  0  0  0  0  0
   -3.0784   -3.8074   -1.0243 O   0  0  0  0  0  0  0  0  0  0  0  0
   -3.3635   -2.0916   -2.8323 O   0  0  0  0  0  0  0  0  0  0  0  0
   -4.1850   -1.6615   -0.4509 N   0  0  0  0  0  0  0  0  0  0  0  0
   -4.5975   -0.3475   -0.7286 C   0  0  0  0  0  0  0  0  0  0  0  0
   -5.8898    0.0408   -0.4060 C   0  0  0  0  0  0  0  0  0  0  0  0
   -6.2512    1.3712   -0.6013 C   0  0  0  0  0  0  0  0  0  0  0  0
   -5.3060    2.2661   -1.0869 C   0  0  0  0  0  0  0  0  0  0  0  0
   -4.0323    1.7899   -1.3481 C   0  0  0  0  0  0  0  0  0  0  0  0
   -3.6568    0.5056   -1.1630 N   0  0  0  0  0  0  0  0  0  0  0  0
   -0.9563   -2.0926    0.2507 C   0  0  0  0  0  0  0  0  0  0  0  0
    0.2951   -1.5842    0.6161 C   0  0  0  0  0  0  0  0  0  0  0  0
    4.3074    0.3629    1.2225 C   0  0  0  0  0  0  0  0  0  0  0  0
    5.4428   -0.2518    1.7673 C   0  0  0  0  0  0  0  0  0  0  0  0
    6.6522    0.4416    1.8358 C   0  0  0  0  0  0  0  0  0  0  0  0
    6.7288    1.7542    1.3702 C   0  0  0  0  0  0  0  0  0  0  0  0
    5.5924    2.3708    0.8468 C   0  0  0  0  0  0  0  0  0  0  0  0
    5.6954    4.1580    0.2370 Br  0  0  0  0  0  0  0  0  0  0  0  0
    4.3787    1.6872    0.7728 C   0  0  0  0  0  0  0  0  0  0  0  0
    2.6529    0.4093   -0.6706 H   0  0  0  0  0  0  0  0  0  0  0  0
    0.9422    0.2605   -2.1744 H   0  0  0  0  0  0  0  0  0  0  0  0
   -1.2571   -0.6274   -2.8133 H   0  0  0  0  0  0  0  0  0  0  0  0
   -4.8279   -2.3060   -0.0051 H   0  0  0  0  0  0  0  0  0  0  0  0
   -6.6115   -0.6681   -0.0178 H   0  0  0  0  0  0  0  0  0  0  0  0
   -7.2592    1.7062   -0.3730 H   0  0  0  0  0  0  0  0  0  0  0  0
   -5.5526    3.3092   -1.2520 H   0  0  0  0  0  0  0  0  0  0  0  0
   -3.2538    2.4497   -1.7205 H   0  0  0  0  0  0  0  0  0  0  0  0
   -1.4819   -2.7615    0.9280 H   0  0  0  0  0  0  0  0  0  0  0  0
    0.6959   -1.8732    1.5828 H   0  0  0  0  0  0  0  0  0  0  0  0
    5.3845   -1.2739    2.1385 H   0  0  0  0  0  0  0  0  0  0  0  0
    7.5316   -0.0409    2.2562 H   0  0  0  0  0  0  0  0  0  0  0  0
    7.6736    2.2892    1.4294 H   0  0  0  0  0  0  0  0  0  0  0  0
    3.4954    2.1957    0.3975 H   0  0  0  0  0  0  0  0  0  0  0  0
  1  2  2  0
  2  3  1  0
  3  4  1  0
  4  5  2  0
  5  6  1  0
  6  7  2  0
  7  8  1  0
  8  9  2  0
  8 10  2  0
  8 11  1  0
 11 12  1  0
 12 13  2  0
 13 14  1  0
 14 15  2  0
 15 16  1  0
 16 17  2  0
  7 18  1  0
 18 19  2  0
  2 20  1  0
 20 21  2  0
 21 22  1  0
 22 23  2  0
 23 24  1  0
 24 25  1  0
 24 26  2  0
 19  4  1  0
 26 20  1  0
 17 12  1  0
  3 27  1  0
  5 28  1  0
  6 29  1  0
 11 30  1  0
 13 31  1  0
 14 32  1  0
 15 33  1  0
 16 34  1  0
 18 35  1  0
 19 36  1  0
 21 37  1  0
 22 38  1  0
 23 39  1  0
 26 40  1  0
M  END
$$$$
