
     RDKit          3D

 50 53  0  0  0  0  0  0  0  0999 V2000
    8.2031   -0.3616    2.5583 C   0  0  0  0  0  0  0  0  0  0  0  0
    7.3295   -0.4965    1.3221 C   0  0  0  0  0  0  0  0  0  0  0  0
    6.5231    0.6863    1.2211 O   0  0  0  0  0  0  0  0  0  0  0  0
    5.4261    0.4932    0.4291 C   0  0  0  0  0  0  0  0  0  0  0  0
    4.3434   -0.2296    0.9398 C   0  0  0  0  0  0  0  0  0  0  0  0
    3.1682   -0.3617    0.1928 C   0  0  0  0  0  0  0  0  0  0  0  0
    3.0567    0.2586   -1.0611 C   0  0  0  0  0  0  0  0  0  0  0  0
    1.8211    0.1364   -1.8829 C   0  0  0  0  0  0  0  0  0  0  0  0
    1.9539    0.0341   -3.0953 O   0  0  0  0  0  0  0  0  0  0  0  0
    0.6409    0.1738   -1.1655 N   0  0  0  0  0  0  0  0  0  0  0  0
   -0.6734    0.0738   -1.6710 C   0  0  0  0  0  0  0  0  0  0  0  0
   -0.9804   -0.1082   -3.0188 C   0  0  0  0  0  0  0  0  0  0  0  0
   -2.3117   -0.1799   -3.4362 C   0  0  0  0  0  0  0  0  0  0  0  0
   -3.3476   -0.0793   -2.5073 C   0  0  0  0  0  0  0  0  0  0  0  0
   -3.0650    0.0872   -1.1449 C   0  0  0  0  0  0  0  0  0  0  0  0
   -4.1544    0.1830   -0.1456 C   0  0  0  0  0  0  0  0  0  0  0  0
   -5.0934   -0.7785   -0.1157 C   0  0  0  0  0  0  0  0  0  0  0  0
   -6.1768   -0.7358    0.8524 C   0  0  0  0  0  0  0  0  0  0  0  0
   -7.1710   -1.7156    0.9004 C   0  0  0  0  0  0  0  0  0  0  0  0
   -8.1936   -1.6296    1.8508 C   0  0  0  0  0  0  0  0  0  0  0  0
   -8.2263   -0.5663    2.7559 C   0  0  0  0  0  0  0  0  0  0  0  0
   -7.2369    0.4141    2.7129 C   0  0  0  0  0  0  0  0  0  0  0  0
   -6.2257    0.3147    1.7605 C   0  0  0  0  0  0  0  0  0  0  0  0
   -5.2440    1.3193    1.7496 O   0  0  0  0  0  0  0  0  0  0  0  0
   -4.1908    1.3067    0.8407 C   0  0  0  0  0  0  0  0  0  0  0  0
   -3.3305    2.1818    0.8696 O   0  0  0  0  0  0  0  0  0  0  0  0
   -1.7213    0.1656   -0.7427 C   0  0  0  0  0  0  0  0  0  0  0  0
    4.1332    0.9884   -1.5790 C   0  0  0  0  0  0  0  0  0  0  0  0
    5.3057    1.1041   -0.8220 C   0  0  0  0  0  0  0  0  0  0  0  0
    6.4038    1.8744   -1.3733 N   0  0  0  0  0  4  0  0  0  0  0  0
    7.5126    1.3239   -1.4437 O   0  0  0  0  0  0  0  0  0  0  0  0
    6.1397    3.0140   -1.7807 O   0  0  0  0  0  1  0  0  0  0  0  0
    7.5850   -0.2406    3.4569 H   0  0  0  0  0  0  0  0  0  0  0  0
    8.8401    0.5268    2.4876 H   0  0  0  0  0  0  0  0  0  0  0  0
    8.8402   -1.2422    2.6831 H   0  0  0  0  0  0  0  0  0  0  0  0
    7.9636   -0.5789    0.4314 H   0  0  0  0  0  0  0  0  0  0  0  0
    6.7211   -1.4054    1.4081 H   0  0  0  0  0  0  0  0  0  0  0  0
    4.4087   -0.6862    1.9250 H   0  0  0  0  0  0  0  0  0  0  0  0
    2.3571   -0.9657    0.5948 H   0  0  0  0  0  0  0  0  0  0  0  0
    0.7066    0.3688   -0.1745 H   0  0  0  0  0  0  0  0  0  0  0  0
   -0.2061   -0.1856   -3.7762 H   0  0  0  0  0  0  0  0  0  0  0  0
   -2.5369   -0.3058   -4.4925 H   0  0  0  0  0  0  0  0  0  0  0  0
   -4.3749   -0.1222   -2.8627 H   0  0  0  0  0  0  0  0  0  0  0  0
   -5.0717   -1.6197   -0.8027 H   0  0  0  0  0  0  0  0  0  0  0  0
   -7.1637   -2.5514    0.2046 H   0  0  0  0  0  0  0  0  0  0  0  0
   -8.9673   -2.3934    1.8859 H   0  0  0  0  0  0  0  0  0  0  0  0
   -9.0231   -0.5027    3.4932 H   0  0  0  0  0  0  0  0  0  0  0  0
   -7.2538    1.2445    3.4125 H   0  0  0  0  0  0  0  0  0  0  0  0
   -1.4939    0.3061    0.3117 H   0  0  0  0  0  0  0  0  0  0  0  0
    4.0508    1.4626   -2.5563 H   0  0  0  0  0  0  0  0  0  0  0  0
  1  2  1  0
  2  3  1  0
  3  4  1  0
  4  5  2  0
  5  6  1  0
  6  7  2  0
  7  8  1  0
  8  9  2  0
  8 10  1  0
 10 11  1  0
 11 12  2  0
 12 13  1  0
 13 14  2  0
 14 15  1  0
 15 16  1  0
 16 17  2  0
 17 18  1  0
 18 19  2  0
 19 20  1  0
 20 21  2  0
 21 22  1  0
 22 23  2  0
 23 24  1  0
 24 25  1  0
 25 26  2  0
 15 27  2  0
  7 28  1  0
 28 29  2  0
 29 30  1  0
 30 31  2  0
 30 32  1  0
 29  4  1  0
 27 11  1  0
 25 16  1  0
 23 18  1  0
  1 33  1  0
  1 34  1  0
  1 35  1  0
  2 36  1  0
  2 37  1  0
  5 38  1  0
  6 39  1  0
 10 40  1  0
 12 41  1  0
 13 42  1  0
 14 43  1  0
 17 44  1  0
 19 45  1  0
 20 46  1  0
 21 47  1  0
 22 48  1  0
 27 49  1  0
 28 50  1  0
M  CHG  2  30   1  32  -1
M  END
$$$$
