
     RDKit          3D

 45 47  0  0  0  0  0  0  0  0999 V2000
   -4.6968    0.0050    3.6657 C   0  0  0  0  0  0  0  0  0  0  0  0
   -4.0258   -0.5258    2.4111 C   0  0  0  0  0  0  0  0  0  0  0  0
   -4.5231    0.2257    1.2981 O   0  0  0  0  0  0  0  0  0  0  0  0
   -3.6548    0.1878    0.2359 C   0  0  0  0  0  0  0  0  0  0  0  0
   -3.0687    1.4046   -0.1184 C   0  0  0  0  0  0  0  0  0  0  0  0
   -2.1872    1.4660   -1.1957 C   0  0  0  0  0  0  0  0  0  0  0  0
   -1.9032    0.3109   -1.9286 C   0  0  0  0  0  0  0  0  0  0  0  0
   -0.9755    0.3715   -3.0590 C   0  0  0  0  0  0  0  0  0  0  0  0
    0.3565    0.2548   -2.9714 C   0  0  0  0  0  0  0  0  0  0  0  0
    1.3913    0.3555   -4.3606 S   0  0  0  0  0  0  0  0  0  0  0  0
    2.8635    0.1544   -3.4142 C   0  0  0  0  0  0  0  0  0  0  0  0
    4.3868    0.0867   -4.0905 S   0  0  0  0  0  0  0  0  0  0  0  0
    2.5131    0.0269   -2.0872 N   0  0  0  0  0  0  0  0  0  0  0  0
    3.4694   -0.0847   -1.0566 N   0  0  0  0  0  0  0  0  0  0  0  0
    3.8839    1.1108   -0.4903 C   0  0  0  0  0  0  0  0  0  0  0  0
    3.6204    2.2126   -0.9620 O   0  0  0  0  0  0  0  0  0  0  0  0
    4.6517    1.0015    0.7771 C   0  0  0  0  0  0  0  0  0  0  0  0
    5.4023   -0.1322    1.0916 C   0  0  0  0  0  0  0  0  0  0  0  0
    6.0882   -0.1379    2.2934 C   0  0  0  0  0  0  0  0  0  0  0  0
    6.0713    0.8868    3.1713 N   0  0  0  0  0  0  0  0  0  0  0  0
    5.3515    1.9776    2.8326 C   0  0  0  0  0  0  0  0  0  0  0  0
    4.6341    2.0844    1.6563 C   0  0  0  0  0  0  0  0  0  0  0  0
    1.1715    0.0244   -1.7423 C   0  0  0  0  0  0  0  0  0  0  0  0
    0.7359   -0.1908   -0.6193 O   0  0  0  0  0  0  0  0  0  0  0  0
   -2.5156   -0.9046   -1.5878 C   0  0  0  0  0  0  0  0  0  0  0  0
   -3.4074   -0.9755   -0.5109 C   0  0  0  0  0  0  0  0  0  0  0  0
   -4.0729   -2.1090   -0.1262 O   0  0  0  0  0  0  0  0  0  0  0  0
   -3.9818   -3.2435   -0.9777 C   0  0  0  0  0  0  0  0  0  0  0  0
   -5.7851   -0.0927    3.5900 H   0  0  0  0  0  0  0  0  0  0  0  0
   -4.4799    1.0697    3.7986 H   0  0  0  0  0  0  0  0  0  0  0  0
   -4.3547   -0.5405    4.5495 H   0  0  0  0  0  0  0  0  0  0  0  0
   -2.9384   -0.4210    2.5121 H   0  0  0  0  0  0  0  0  0  0  0  0
   -4.2796   -1.5844    2.2937 H   0  0  0  0  0  0  0  0  0  0  0  0
   -3.2934    2.3000    0.4550 H   0  0  0  0  0  0  0  0  0  0  0  0
   -1.7261    2.4160   -1.4516 H   0  0  0  0  0  0  0  0  0  0  0  0
   -1.4549    0.5356   -4.0218 H   0  0  0  0  0  0  0  0  0  0  0  0
    3.3146   -0.8728   -0.4349 H   0  0  0  0  0  0  0  0  0  0  0  0
    5.4876   -0.9806    0.4235 H   0  0  0  0  0  0  0  0  0  0  0  0
    6.6946   -0.9893    2.5908 H   0  0  0  0  0  0  0  0  0  0  0  0
    5.3690    2.7887    3.5551 H   0  0  0  0  0  0  0  0  0  0  0  0
    4.0748    2.9869    1.4323 H   0  0  0  0  0  0  0  0  0  0  0  0
   -2.2781   -1.7851   -2.1760 H   0  0  0  0  0  0  0  0  0  0  0  0
   -4.3294   -3.0113   -1.9904 H   0  0  0  0  0  0  0  0  0  0  0  0
   -2.9626   -3.6447   -0.9903 H   0  0  0  0  0  0  0  0  0  0  0  0
   -4.6374   -4.0183   -0.5715 H   0  0  0  0  0  0  0  0  0  0  0  0
  1  2  1  0
  2  3  1  0
  3  4  1  0
  4  5  2  0
  5  6  1  0
  6  7  2  0
  7  8  1  0
  8  9  2  3
  9 10  1  0
 10 11  1  0
 11 12  2  0
 11 13  1  0
 13 14  1  0
 14 15  1  0
 15 16  2  0
 15 17  1  0
 17 18  2  0
 18 19  1  0
 19 20  2  0
 20 21  1  0
 21 22  2  0
 13 23  1  0
 23 24  2  0
  7 25  1  0
 25 26  2  0
 26 27  1  0
 27 28  1  0
 26  4  1  0
 23  9  1  0
 22 17  1  0
  1 29  1  0
  1 30  1  0
  1 31  1  0
  2 32  1  0
  2 33  1  0
  5 34  1  0
  6 35  1  0
  8 36  1  0
 14 37  1  0
 18 38  1  0
 19 39  1  0
 21 40  1  0
 22 41  1  0
 25 42  1  0
 28 43  1  0
 28 44  1  0
 28 45  1  0
M  END
$$$$
