
     RDKit          3D

 60 65  0  0  0  0  0  0  0  0999 V2000
   -2.7360   -3.1974    4.2798 O   0  0  0  0  0  0  0  0  0  0  0  0
   -2.7563   -2.2582    3.4929 C   0  0  0  0  0  0  0  0  0  0  0  0
   -1.6112   -1.8297    2.8308 N   0  0  0  0  0  0  0  0  0  0  0  0
   -1.5764   -0.7673    1.9288 C   0  0  0  0  0  0  0  0  0  0  0  0
   -0.2005   -0.4726    1.3451 C   0  0  0  0  0  0  0  0  0  0  0  0
   -0.2723    0.4641    0.1322 C   0  0  0  0  0  0  0  0  0  0  0  0
    1.1195    0.7942   -0.3962 C   0  0  0  0  0  0  0  0  0  0  0  0
    1.9287    1.3817    0.6975 N   0  0  0  0  0  0  0  0  0  0  0  0
    3.3104    2.2689    0.2316 S   0  0  0  0  0  6  0  0  0  0  0  0
    3.9276    2.8012    1.4281 O   0  0  0  0  0  0  0  0  0  0  0  0
    2.9468    3.1339   -0.8699 O   0  0  0  0  0  0  0  0  0  0  0  0
    4.3956    1.0121   -0.4113 C   0  0  0  0  0  0  0  0  0  0  0  0
    5.3282    0.4018    0.4354 C   0  0  0  0  0  0  0  0  0  0  0  0
    6.1841   -0.5761   -0.0743 C   0  0  0  0  0  0  0  0  0  0  0  0
    6.1129   -0.9282   -1.4217 C   0  0  0  0  0  0  0  0  0  0  0  0
    5.2115   -0.2775   -2.2726 C   0  0  0  0  0  0  0  0  0  0  0  0
    4.3456    0.6903   -1.7706 C   0  0  0  0  0  0  0  0  0  0  0  0
    5.1185   -0.5476   -3.6133 O   0  0  0  0  0  0  0  0  0  0  0  0
    6.2683   -1.2628   -4.0806 C   0  0  0  0  0  0  0  0  0  0  0  0
    6.6040   -2.4071   -3.1388 C   0  0  0  0  0  0  0  0  0  0  0  0
    6.9690   -1.9121   -1.8455 O   0  0  0  0  0  0  0  0  0  0  0  0
    2.0840    0.4792    1.8587 C   0  0  0  0  0  0  0  0  0  0  0  0
    0.7074    0.1355    2.4224 C   0  0  0  0  0  0  0  0  0  0  0  0
   -2.6190   -0.0525    1.6103 N   0  0  0  0  0  0  0  0  0  0  0  0
   -3.7512   -0.4556    2.2343 C   0  0  0  0  0  0  0  0  0  0  0  0
   -3.9101   -1.4783    3.1375 C   0  0  0  0  0  0  0  0  0  0  0  0
   -5.2051   -1.5592    3.5465 N   0  0  0  0  0  0  0  0  0  0  0  0
   -5.8804   -0.5963    2.9169 N   0  0  0  0  0  0  0  0  0  0  0  0
   -5.0084    0.0601    2.1098 N   0  0  0  0  0  0  0  0  0  0  0  0
   -5.4423    1.1810    1.3015 C   0  0  0  0  0  0  0  0  0  0  0  0
   -5.8913    0.7346   -0.0631 C   0  0  0  0  0  0  0  0  0  0  0  0
   -7.1414    0.1260   -0.2503 C   0  0  0  0  0  0  0  0  0  0  0  0
   -7.5419   -0.2925   -1.5228 C   0  0  0  0  0  0  0  0  0  0  0  0
   -6.6999   -0.1082   -2.6191 C   0  0  0  0  0  0  0  0  0  0  0  0
   -5.4542    0.4914   -2.4429 C   0  0  0  0  0  0  0  0  0  0  0  0
   -5.0601    0.9035   -1.1733 C   0  0  0  0  0  0  0  0  0  0  0  0
   -3.8590    1.4793   -1.0290 F   0  0  0  0  0  0  0  0  0  0  0  0
   -0.7793   -2.3579    3.0485 H   0  0  0  0  0  0  0  0  0  0  0  0
    0.2298   -1.4314    1.0244 H   0  0  0  0  0  0  0  0  0  0  0  0
   -0.7801    1.3981    0.4068 H   0  0  0  0  0  0  0  0  0  0  0  0
   -0.8678    0.0035   -0.6644 H   0  0  0  0  0  0  0  0  0  0  0  0
    1.0147    1.5033   -1.2235 H   0  0  0  0  0  0  0  0  0  0  0  0
    1.6022   -0.1123   -0.7779 H   0  0  0  0  0  0  0  0  0  0  0  0
    5.3955    0.6815    1.4844 H   0  0  0  0  0  0  0  0  0  0  0  0
    6.9058   -1.0637    0.5761 H   0  0  0  0  0  0  0  0  0  0  0  0
    3.6534    1.1941   -2.4404 H   0  0  0  0  0  0  0  0  0  0  0  0
    6.0357   -1.6489   -5.0778 H   0  0  0  0  0  0  0  0  0  0  0  0
    7.1044   -0.5588   -4.1721 H   0  0  0  0  0  0  0  0  0  0  0  0
    7.4522   -2.9804   -3.5261 H   0  0  0  0  0  0  0  0  0  0  0  0
    5.7541   -3.0907   -3.0223 H   0  0  0  0  0  0  0  0  0  0  0  0
    2.6660    0.9630    2.6492 H   0  0  0  0  0  0  0  0  0  0  0  0
    2.6059   -0.4361    1.5581 H   0  0  0  0  0  0  0  0  0  0  0  0
    0.2397    1.0423    2.8282 H   0  0  0  0  0  0  0  0  0  0  0  0
    0.8247   -0.5567    3.2644 H   0  0  0  0  0  0  0  0  0  0  0  0
   -6.2621    1.6837    1.8294 H   0  0  0  0  0  0  0  0  0  0  0  0
   -4.6163    1.8989    1.2445 H   0  0  0  0  0  0  0  0  0  0  0  0
   -7.8091   -0.0331    0.5958 H   0  0  0  0  0  0  0  0  0  0  0  0
   -8.5124   -0.7665   -1.6560 H   0  0  0  0  0  0  0  0  0  0  0  0
   -7.0144   -0.4329   -3.6079 H   0  0  0  0  0  0  0  0  0  0  0  0
   -4.7879    0.6413   -3.2861 H   0  0  0  0  0  0  0  0  0  0  0  0
  1  2  2  0
  2  3  1  0
  3  4  1  0
  4  5  1  0
  5  6  1  0
  6  7  1  0
  7  8  1  0
  8  9  1  0
  9 10  2  0
  9 11  2  0
  9 12  1  0
 12 13  2  0
 13 14  1  0
 14 15  2  0
 15 16  1  0
 16 17  2  0
 16 18  1  0
 18 19  1  0
 19 20  1  0
 20 21  1  0
  8 22  1  0
 22 23  1  0
  4 24  2  0
 24 25  1  0
 25 26  2  0
 26 27  1  0
 27 28  2  0
 28 29  1  0
 29 30  1  0
 30 31  1  0
 31 32  2  0
 32 33  1  0
 33 34  2  0
 34 35  1  0
 35 36  2  0
 36 37  1  0
 26  2  1  0
 36 31  1  0
 23  5  1  0
 29 25  1  0
 17 12  1  0
 21 15  1  0
  3 38  1  0
  5 39  1  0
  6 40  1  0
  6 41  1  0
  7 42  1  0
  7 43  1  0
 13 44  1  0
 14 45  1  0
 17 46  1  0
 19 47  1  0
 19 48  1  0
 20 49  1  0
 20 50  1  0
 22 51  1  0
 22 52  1  0
 23 53  1  0
 23 54  1  0
 30 55  1  0
 30 56  1  0
 32 57  1  0
 33 58  1  0
 34 59  1  0
 35 60  1  0
M  END
$$$$
