
     RDKit          3D

 37 39  0  0  0  0  0  0  0  0999 V2000
   -4.0511   -1.5713    2.0251 C   0  0  0  0  0  0  0  0  0  0  0  0
   -4.4724   -1.5708    0.5659 C   0  0  0  0  0  0  0  0  0  0  0  0
   -4.2045   -0.3014   -0.0915 N   0  0  0  0  0  0  0  0  0  0  0  0
   -5.2398    0.5545   -0.2622 N   0  0  0  0  0  0  0  0  0  0  0  0
   -4.6944    1.5940   -0.8913 C   0  0  0  0  0  0  0  0  0  0  0  0
   -3.3215    1.4156   -1.0920 C   0  0  0  0  0  0  0  0  0  0  0  0
   -2.2546    2.6607   -1.9961 Br  0  0  0  0  0  0  0  0  0  0  0  0
   -2.9941    0.1914   -0.5419 C   0  0  0  0  0  0  0  0  0  0  0  0
   -1.7328   -0.5182   -0.4377 C   0  0  0  0  0  0  0  0  0  0  0  0
   -1.7019   -1.7425   -0.3958 O   0  0  0  0  0  0  0  0  0  0  0  0
   -0.6346    0.3127   -0.3268 N   0  0  0  0  0  0  0  0  0  0  0  0
    0.7044   -0.0498   -0.2510 C   0  0  0  0  0  0  0  0  0  0  0  0
    1.2036   -1.6632   -0.5412 S   0  0  0  0  0  0  0  0  0  0  0  0
    2.8005   -1.2386   -0.3452 C   0  0  0  0  0  0  0  0  0  0  0  0
    2.9985    0.0825   -0.0536 C   0  0  0  0  0  0  0  0  0  0  0  0
    1.7737    0.8125    0.0258 C   0  0  0  0  0  0  0  0  0  0  0  0
    1.5689    2.2270    0.3291 C   0  0  0  0  0  0  0  0  0  0  0  0
    2.6392    2.9148    0.8239 N   0  0  0  0  0  0  0  0  0  0  0  0
    0.4851    2.7908    0.1998 O   0  0  0  0  0  0  0  0  0  0  0  0
    4.4534    0.3672    0.0774 C   0  0  0  0  0  0  0  0  0  0  0  0
    5.1082   -0.9108   -0.5323 C   0  0  0  0  0  0  0  0  0  0  0  0
    4.0410   -2.0403   -0.4481 C   0  0  0  0  0  0  0  0  0  0  0  0
   -2.9738   -1.4104    2.1331 H   0  0  0  0  0  0  0  0  0  0  0  0
   -4.5618   -0.7788    2.5817 H   0  0  0  0  0  0  0  0  0  0  0  0
   -4.2995   -2.5300    2.4911 H   0  0  0  0  0  0  0  0  0  0  0  0
   -3.9793   -2.3649   -0.0008 H   0  0  0  0  0  0  0  0  0  0  0  0
   -5.5507   -1.7580    0.4925 H   0  0  0  0  0  0  0  0  0  0  0  0
   -5.3251    2.4262   -1.1757 H   0  0  0  0  0  0  0  0  0  0  0  0
   -0.8054    1.3138   -0.2409 H   0  0  0  0  0  0  0  0  0  0  0  0
    3.4356    2.4374    1.2139 H   0  0  0  0  0  0  0  0  0  0  0  0
    2.4430    3.8465    1.1637 H   0  0  0  0  0  0  0  0  0  0  0  0
    4.7631    1.2623   -0.4689 H   0  0  0  0  0  0  0  0  0  0  0  0
    4.7298    0.4675    1.1323 H   0  0  0  0  0  0  0  0  0  0  0  0
    5.3446   -0.7202   -1.5871 H   0  0  0  0  0  0  0  0  0  0  0  0
    6.0424   -1.1808   -0.0298 H   0  0  0  0  0  0  0  0  0  0  0  0
    4.1897   -2.6437    0.4533 H   0  0  0  0  0  0  0  0  0  0  0  0
    4.0724   -2.6834   -1.3317 H   0  0  0  0  0  0  0  0  0  0  0  0
  1  2  1  0
  2  3  1  0
  3  4  1  0
  4  5  2  0
  5  6  1  0
  6  7  1  0
  6  8  2  0
  8  9  1  0
  9 10  2  0
  9 11  1  0
 11 12  1  0
 12 13  1  0
 13 14  1  0
 14 15  2  0
 15 16  1  0
 16 17  1  0
 17 18  1  0
 17 19  2  0
 15 20  1  0
 20 21  1  0
 21 22  1  0
  8  3  1  0
 16 12  2  0
 22 14  1  0
  1 23  1  0
  1 24  1  0
  1 25  1  0
  2 26  1  0
  2 27  1  0
  5 28  1  0
 11 29  1  0
 18 30  1  0
 18 31  1  0
 20 32  1  0
 20 33  1  0
 21 34  1  0
 21 35  1  0
 22 36  1  0
 22 37  1  0
M  END
$$$$
