
     RDKit          3D

 43 46  0  0  0  0  0  0  0  0999 V2000
    6.3977    1.9162   -1.2334 C   0  0  0  0  0  0  0  0  0  0  0  0
    5.0190    1.3779   -0.9827 C   0  0  0  0  0  0  0  0  0  0  0  0
    4.4703    1.4024    0.3030 C   0  0  0  0  0  0  0  0  0  0  0  0
    3.1982    0.8739    0.5457 C   0  0  0  0  0  0  0  0  0  0  0  0
    2.4650    0.3027   -0.4946 C   0  0  0  0  0  0  0  0  0  0  0  0
    1.0338   -0.2914   -0.2373 C   0  0  0  0  0  0  0  0  0  0  0  0
    0.1764   -0.8203   -1.1955 C   0  0  0  0  0  0  0  0  0  0  0  0
   -1.0147   -1.2055   -0.5781 N   0  0  0  0  0  4  0  0  0  0  0  0
   -2.1811   -1.8029   -1.2240 C   0  0  0  0  0  0  0  0  0  0  0  0
   -3.3867   -0.9277   -0.9975 C   0  0  0  0  0  0  0  0  0  0  0  0
   -4.5644   -1.4642   -0.4537 C   0  0  0  0  0  0  0  0  0  0  0  0
   -5.6831   -0.6540   -0.2433 C   0  0  0  0  0  0  0  0  0  0  0  0
   -5.6411    0.6991   -0.5775 C   0  0  0  0  0  0  0  0  0  0  0  0
   -4.4821    1.2371   -1.1285 C   0  0  0  0  0  0  0  0  0  0  0  0
   -4.4203    2.9048   -1.5406 Cl  0  0  0  0  0  0  0  0  0  0  0  0
   -3.3624    0.4333   -1.3449 C   0  0  0  0  0  0  0  0  0  0  0  0
   -0.8883   -0.9443    0.7192 C   0  0  0  0  0  0  0  0  0  0  0  0
    0.3156   -0.4235    0.9376 N   0  0  0  0  0  0  0  0  0  0  0  0
    0.5315   -0.1286    2.3471 C   0  0  0  0  0  0  0  0  0  0  0  0
   -0.6434   -0.8591    3.0543 C   0  0  0  0  0  0  0  0  0  0  0  0
   -1.6977   -1.0825    1.9523 C   0  0  0  0  0  0  0  0  0  0  0  0
    3.0137    0.2668   -1.7818 C   0  0  0  0  0  0  0  0  0  0  0  0
    4.2859    0.7955   -2.0204 C   0  0  0  0  0  0  0  0  0  0  0  0
    7.1392    1.1230   -1.0968 H   0  0  0  0  0  0  0  0  0  0  0  0
    6.6273    2.7378   -0.5468 H   0  0  0  0  0  0  0  0  0  0  0  0
    6.4833    2.3105   -2.2515 H   0  0  0  0  0  0  0  0  0  0  0  0
    5.0332    1.8407    1.1260 H   0  0  0  0  0  0  0  0  0  0  0  0
    2.8143    0.9385    1.5551 H   0  0  0  0  0  0  0  0  0  0  0  0
    0.2572   -0.9576   -2.2605 H   0  0  0  0  0  0  0  0  0  0  0  0
   -1.9989   -1.9145   -2.2982 H   0  0  0  0  0  0  0  0  0  0  0  0
   -2.3202   -2.8016   -0.7953 H   0  0  0  0  0  0  0  0  0  0  0  0
   -4.6317   -2.5196   -0.1920 H   0  0  0  0  0  0  0  0  0  0  0  0
   -6.5945   -1.0777    0.1753 H   0  0  0  0  0  0  0  0  0  0  0  0
   -6.5162    1.3241   -0.4139 H   0  0  0  0  0  0  0  0  0  0  0  0
   -2.4706    0.8745   -1.7848 H   0  0  0  0  0  0  0  0  0  0  0  0
    1.4942   -0.5167    2.6868 H   0  0  0  0  0  0  0  0  0  0  0  0
    0.4702    0.9535    2.4944 H   0  0  0  0  0  0  0  0  0  0  0  0
   -1.0332   -0.3041    3.9118 H   0  0  0  0  0  0  0  0  0  0  0  0
   -0.2907   -1.8326    3.4152 H   0  0  0  0  0  0  0  0  0  0  0  0
   -2.4477   -0.2894    1.9282 H   0  0  0  0  0  0  0  0  0  0  0  0
   -2.1476   -2.0757    1.9750 H   0  0  0  0  0  0  0  0  0  0  0  0
    2.4860   -0.1705   -2.6240 H   0  0  0  0  0  0  0  0  0  0  0  0
    4.7044    0.7519   -3.0250 H   0  0  0  0  0  0  0  0  0  0  0  0
  1  2  1  0
  2  3  2  0
  3  4  1  0
  4  5  2  0
  5  6  1  0
  6  7  2  0
  7  8  1  0
  8  9  1  0
  9 10  1  0
 10 11  2  0
 11 12  1  0
 12 13  2  0
 13 14  1  0
 14 15  1  0
 14 16  2  0
  8 17  2  0
 17 18  1  0
 18 19  1  0
 19 20  1  0
 20 21  1  0
  5 22  1  0
 22 23  2  0
 23  2  1  0
 18  6  1  0
 16 10  1  0
 21 17  1  0
  1 24  1  0
  1 25  1  0
  1 26  1  0
  3 27  1  0
  4 28  1  0
  7 29  1  0
  9 30  1  0
  9 31  1  0
 11 32  1  0
 12 33  1  0
 13 34  1  0
 16 35  1  0
 19 36  1  0
 19 37  1  0
 20 38  1  0
 20 39  1  0
 21 40  1  0
 21 41  1  0
 22 42  1  0
 23 43  1  0
M  CHG  1   8   1
M  END
$$$$
