
     RDKit          3D

 64 67  0  0  0  0  0  0  0  0999 V2000
    6.9808    3.7091   -2.6982 C   0  0  0  0  0  0  0  0  0  0  0  0
    6.0591    2.6886   -3.2243 C   0  0  0  0  0  0  0  0  0  0  0  0
    5.3469    1.6587   -2.6627 C   0  0  0  0  0  0  0  0  0  0  0  0
    4.6547    1.0736   -3.7447 C   0  0  0  0  0  0  0  0  0  0  0  0
    3.7871    0.0047   -3.7548 N   0  0  0  0  0  0  0  0  0  0  0  0
    3.4151   -0.7268   -2.6505 C   0  0  0  0  0  0  0  0  0  0  0  0
    3.8410   -0.5711   -1.5100 O   0  0  0  0  0  0  0  0  0  0  0  0
    2.4455   -1.8437   -3.0015 C   0  0  0  0  0  0  0  0  0  0  0  0
    1.6264   -2.2804   -1.7886 C   0  0  0  0  0  0  0  0  0  0  0  0
    0.5418   -1.2576   -1.4569 C   0  0  0  0  0  0  0  0  0  0  0  0
    0.4128   -0.2365   -2.1369 O   0  0  0  0  0  0  0  0  0  0  0  0
   -0.3541   -1.5862   -0.4351 N   0  0  0  0  0  0  0  0  0  0  0  0
   -0.0346   -2.5527    0.5581 C   0  0  0  0  0  0  0  0  0  0  0  0
    1.0695   -2.3975    1.3973 C   0  0  0  0  0  0  0  0  0  0  0  0
    1.3564   -3.3748    2.3469 C   0  0  0  0  0  0  0  0  0  0  0  0
    0.5308   -4.4848    2.4204 C   0  0  0  0  0  0  0  0  0  0  0  0
   -0.5418   -4.6767    1.6221 N   0  0  0  0  0  0  0  0  0  0  0  0
   -0.8018   -3.7055    0.7133 C   0  0  0  0  0  0  0  0  0  0  0  0
   -1.4060   -0.5865   -0.1344 C   0  0  0  0  0  0  0  0  0  0  0  0
   -0.9164    0.5681    0.7944 C   0  0  0  0  0  0  0  0  0  0  0  0
    0.1519    0.5592    1.4026 O   0  0  0  0  0  0  0  0  0  0  0  0
   -1.8068    1.6309    0.8905 N   0  0  0  0  0  0  0  0  0  0  0  0
   -1.5767    2.7270    1.8181 C   0  0  0  0  0  0  0  0  0  0  0  0
   -2.4804    3.9158    1.5066 C   0  0  0  0  0  0  0  0  0  0  0  0
   -3.8149    3.5825    2.1722 C   0  0  0  0  0  0  0  0  0  0  0  0
   -3.5093    2.5421    3.2498 C   0  0  0  0  0  0  0  0  0  0  0  0
   -1.9943    2.3621    3.2415 C   0  0  0  0  0  0  0  0  0  0  0  0
   -2.7349   -1.1884    0.3252 C   0  0  0  0  0  0  0  0  0  0  0  0
   -3.6948   -1.5563   -0.6331 C   0  0  0  0  0  0  0  0  0  0  0  0
   -4.9170   -2.1037   -0.2406 C   0  0  0  0  0  0  0  0  0  0  0  0
   -5.1931   -2.2982    1.1109 C   0  0  0  0  0  0  0  0  0  0  0  0
   -4.2463   -1.9509    2.0719 C   0  0  0  0  0  0  0  0  0  0  0  0
   -3.0239   -1.4014    1.6837 C   0  0  0  0  0  0  0  0  0  0  0  0
    4.9361    1.7057   -4.8899 N   0  0  0  0  0  0  0  0  0  0  0  0
    5.8175    2.7192   -4.5607 O   0  0  0  0  0  0  0  0  0  0  0  0
    7.9884    3.5587   -3.0983 H   0  0  0  0  0  0  0  0  0  0  0  0
    7.0382    3.6616   -1.6062 H   0  0  0  0  0  0  0  0  0  0  0  0
    6.6434    4.7118   -2.9774 H   0  0  0  0  0  0  0  0  0  0  0  0
    5.3275    1.3792   -1.6202 H   0  0  0  0  0  0  0  0  0  0  0  0
    3.3904   -0.1906   -4.6630 H   0  0  0  0  0  0  0  0  0  0  0  0
    3.0482   -2.6892   -3.3544 H   0  0  0  0  0  0  0  0  0  0  0  0
    1.7915   -1.5353   -3.8251 H   0  0  0  0  0  0  0  0  0  0  0  0
    1.1296   -3.2292   -2.0238 H   0  0  0  0  0  0  0  0  0  0  0  0
    2.2860   -2.4357   -0.9319 H   0  0  0  0  0  0  0  0  0  0  0  0
    1.7006   -1.5132    1.3331 H   0  0  0  0  0  0  0  0  0  0  0  0
    2.2038   -3.2670    3.0152 H   0  0  0  0  0  0  0  0  0  0  0  0
    0.7163   -5.2722    3.1455 H   0  0  0  0  0  0  0  0  0  0  0  0
   -1.6663   -3.8989    0.0842 H   0  0  0  0  0  0  0  0  0  0  0  0
   -1.6331   -0.0699   -1.0791 H   0  0  0  0  0  0  0  0  0  0  0  0
   -2.7510    1.4856    0.5501 H   0  0  0  0  0  0  0  0  0  0  0  0
   -0.5180    3.0032    1.7722 H   0  0  0  0  0  0  0  0  0  0  0  0
   -2.5945    4.1053    0.4346 H   0  0  0  0  0  0  0  0  0  0  0  0
   -2.0672    4.8216    1.9661 H   0  0  0  0  0  0  0  0  0  0  0  0
   -4.5171    3.1668    1.4407 H   0  0  0  0  0  0  0  0  0  0  0  0
   -4.2791    4.4789    2.5951 H   0  0  0  0  0  0  0  0  0  0  0  0
   -3.8720    2.8536    4.2347 H   0  0  0  0  0  0  0  0  0  0  0  0
   -4.0055    1.5965    3.0015 H   0  0  0  0  0  0  0  0  0  0  0  0
   -1.5429    3.0673    3.9503 H   0  0  0  0  0  0  0  0  0  0  0  0
   -1.7027    1.3508    3.5408 H   0  0  0  0  0  0  0  0  0  0  0  0
   -3.4954   -1.4193   -1.6946 H   0  0  0  0  0  0  0  0  0  0  0  0
   -5.6538   -2.3838   -0.9895 H   0  0  0  0  0  0  0  0  0  0  0  0
   -6.1429   -2.7302    1.4160 H   0  0  0  0  0  0  0  0  0  0  0  0
   -4.4546   -2.1175    3.1263 H   0  0  0  0  0  0  0  0  0  0  0  0
   -2.2939   -1.1568    2.4545 H   0  0  0  0  0  0  0  0  0  0  0  0
  1  2  1  0
  2  3  2  0
  3  4  1  0
  4  5  1  0
  5  6  1  0
  6  7  2  0
  6  8  1  0
  8  9  1  0
  9 10  1  0
 10 11  2  0
 10 12  1  0
 12 13  1  0
 13 14  2  0
 14 15  1  0
 15 16  2  0
 16 17  1  0
 17 18  2  0
 12 19  1  0
 19 20  1  0
 20 21  2  0
 20 22  1  0
 22 23  1  0
 23 24  1  0
 24 25  1  0
 25 26  1  0
 26 27  1  0
 19 28  1  0
 28 29  2  0
 29 30  1  0
 30 31  2  0
 31 32  1  0
 32 33  2  0
  4 34  2  0
 34 35  1  0
 35  2  1  0
 18 13  1  0
 27 23  1  0
 33 28  1  0
  1 36  1  0
  1 37  1  0
  1 38  1  0
  3 39  1  0
  5 40  1  0
  8 41  1  0
  8 42  1  0
  9 43  1  0
  9 44  1  0
 14 45  1  0
 15 46  1  0
 16 47  1  0
 18 48  1  0
 19 49  1  0
 22 50  1  0
 23 51  1  0
 24 52  1  0
 24 53  1  0
 25 54  1  0
 25 55  1  0
 26 56  1  0
 26 57  1  0
 27 58  1  0
 27 59  1  0
 29 60  1  0
 30 61  1  0
 31 62  1  0
 32 63  1  0
 33 64  1  0
M  END
$$$$
