
     RDKit          3D

 36 38  0  0  0  0  0  0  0  0999 V2000
    4.5983    2.6962   -0.6864 C   0  0  0  0  0  0  0  0  0  0  0  0
    4.2350    1.2914   -0.3010 C   0  0  0  0  0  0  0  0  0  0  0  0
    5.2373    0.3636   -0.0045 C   0  0  0  0  0  0  0  0  0  0  0  0
    4.9287   -0.9424    0.3884 C   0  0  0  0  0  0  0  0  0  0  0  0
    3.5773   -1.2905    0.4863 C   0  0  0  0  0  0  0  0  0  0  0  0
    2.9983   -2.4852    0.8454 N   0  0  0  0  0  0  0  0  0  0  0  0
    1.6314   -2.3811    0.8102 C   0  0  0  0  0  0  0  0  0  0  0  0
    1.3119   -1.0969    0.4231 C   0  0  0  0  0  0  0  0  0  0  0  0
   -0.0059   -0.5655    0.2538 C   0  0  0  0  0  0  0  0  0  0  0  0
   -1.1569   -1.2061    0.5224 C   0  0  0  0  0  0  0  0  0  0  0  0
   -2.4828   -0.6088    0.3314 C   0  0  0  0  0  0  0  0  0  0  0  0
   -2.8118    0.1148   -0.8140 C   0  0  0  0  0  0  0  0  0  0  0  0
   -4.0927    0.6364   -0.9551 C   0  0  0  0  0  0  0  0  0  0  0  0
   -5.0240    0.4458    0.0059 N   0  0  0  0  0  4  0  0  0  0  0  0
   -6.3742    1.0054   -0.1757 C   0  0  0  0  0  0  0  0  0  0  0  0
   -4.7350   -0.2716    1.1142 C   0  0  0  0  0  0  0  0  0  0  0  0
   -3.4674   -0.8134    1.2961 C   0  0  0  0  0  0  0  0  0  0  0  0
    2.5427   -0.3949    0.2131 C   0  0  0  0  0  0  0  0  0  0  0  0
    2.8849    0.9189   -0.1801 C   0  0  0  0  0  0  0  0  0  0  0  0
    5.5474    2.7185   -1.2322 H   0  0  0  0  0  0  0  0  0  0  0  0
    3.8367    3.1308   -1.3426 H   0  0  0  0  0  0  0  0  0  0  0  0
    4.6897    3.3176    0.2098 H   0  0  0  0  0  0  0  0  0  0  0  0
    6.2846    0.6525   -0.0782 H   0  0  0  0  0  0  0  0  0  0  0  0
    5.7175   -1.6542    0.6109 H   0  0  0  0  0  0  0  0  0  0  0  0
    3.5155   -3.3166    1.0970 H   0  0  0  0  0  0  0  0  0  0  0  0
    1.0224   -3.2378    1.0631 H   0  0  0  0  0  0  0  0  0  0  0  0
   -0.0495    0.4568   -0.1150 H   0  0  0  0  0  0  0  0  0  0  0  0
   -1.1432   -2.2162    0.9254 H   0  0  0  0  0  0  0  0  0  0  0  0
   -2.0823    0.2670   -1.6074 H   0  0  0  0  0  0  0  0  0  0  0  0
   -4.3845    1.2026   -1.8354 H   0  0  0  0  0  0  0  0  0  0  0  0
   -6.9290    0.3196   -0.8216 H   0  0  0  0  0  0  0  0  0  0  0  0
   -6.8636    1.1026    0.7970 H   0  0  0  0  0  0  0  0  0  0  0  0
   -6.2852    1.9928   -0.6374 H   0  0  0  0  0  0  0  0  0  0  0  0
   -5.5232   -0.4094    1.8492 H   0  0  0  0  0  0  0  0  0  0  0  0
   -3.2521   -1.3855    2.1970 H   0  0  0  0  0  0  0  0  0  0  0  0
    2.1039    1.6431   -0.3896 H   0  0  0  0  0  0  0  0  0  0  0  0
  1  2  1  0
  2  3  2  0
  3  4  1  0
  4  5  2  0
  5  6  1  0
  6  7  1  0
  7  8  2  0
  8  9  1  0
  9 10  2  3
 10 11  1  0
 11 12  2  0
 12 13  1  0
 13 14  2  0
 14 15  1  0
 14 16  1  0
 16 17  2  0
  8 18  1  0
 18 19  2  0
 19  2  1  0
 18  5  1  0
 17 11  1  0
  1 20  1  0
  1 21  1  0
  1 22  1  0
  3 23  1  0
  4 24  1  0
  6 25  1  0
  7 26  1  0
  9 27  1  0
 10 28  1  0
 12 29  1  0
 13 30  1  0
 15 31  1  0
 15 32  1  0
 15 33  1  0
 16 34  1  0
 17 35  1  0
 19 36  1  0
M  CHG  1  14   1
M  END
$$$$
