
     RDKit          3D

 31 33  0  0  0  0  0  0  0  0999 V2000
   -3.8354   -0.1723    1.1518 C   0  0  0  0  0  0  0  0  0  0  0  0
   -2.9875    0.3605    0.0405 C   0  0  0  0  0  0  0  0  0  0  0  0
   -3.4398    1.3747   -0.8666 C   0  0  0  0  0  0  0  0  0  0  0  0
   -2.4926    1.7115   -1.8016 C   0  0  0  0  0  0  0  0  0  0  0  0
   -1.0601    0.8196   -1.5998 S   0  0  0  0  0  0  0  0  0  0  0  0
   -1.6823   -0.0416   -0.2462 C   0  0  0  0  0  0  0  0  0  0  0  0
   -0.8650   -1.0843    0.5016 C   0  0  0  0  0  0  0  0  0  0  0  0
   -0.2679   -0.6372    1.8138 C   0  0  0  0  0  0  0  0  0  0  0  0
    0.4249    0.6795    1.7425 C   0  0  0  0  0  0  0  0  0  0  0  0
    0.0898    1.5965    2.5000 O   0  0  0  0  0  0  0  0  0  0  0  0
    1.4785    0.8930    0.9251 N   0  0  0  0  0  0  0  0  0  0  0  0
    2.1596    0.1246   -0.0357 C   0  0  0  0  0  0  0  0  0  0  0  0
    3.3768    0.7222   -0.4426 C   0  0  0  0  0  0  0  0  0  0  0  0
    4.2294    0.1245   -1.3692 C   0  0  0  0  0  0  0  0  0  0  0  0
    3.8797   -1.0920   -1.9219 C   0  0  0  0  0  0  0  0  0  0  0  0
    2.6745   -1.6878   -1.5516 C   0  0  0  0  0  0  0  0  0  0  0  0
    1.7853   -1.0974   -0.6187 C   0  0  0  0  0  0  0  0  0  0  0  0
    0.3047   -2.0826   -0.4490 S   0  0  0  0  0  0  0  0  0  0  0  0
   -3.4056    0.0945    2.1220 H   0  0  0  0  0  0  0  0  0  0  0  0
   -4.8492    0.2393    1.1092 H   0  0  0  0  0  0  0  0  0  0  0  0
   -3.9159   -1.2620    1.0885 H   0  0  0  0  0  0  0  0  0  0  0  0
   -4.4192    1.8372   -0.8306 H   0  0  0  0  0  0  0  0  0  0  0  0
   -2.5756    2.4421   -2.5943 H   0  0  0  0  0  0  0  0  0  0  0  0
   -1.5995   -1.8550    0.7751 H   0  0  0  0  0  0  0  0  0  0  0  0
    0.4151   -1.3765    2.2502 H   0  0  0  0  0  0  0  0  0  0  0  0
   -1.0777   -0.5216    2.5473 H   0  0  0  0  0  0  0  0  0  0  0  0
    1.8543    1.8183    1.1030 H   0  0  0  0  0  0  0  0  0  0  0  0
    3.6904    1.6765   -0.0213 H   0  0  0  0  0  0  0  0  0  0  0  0
    5.1599    0.6100   -1.6510 H   0  0  0  0  0  0  0  0  0  0  0  0
    4.5286   -1.5768   -2.6462 H   0  0  0  0  0  0  0  0  0  0  0  0
    2.4218   -2.6376   -2.0245 H   0  0  0  0  0  0  0  0  0  0  0  0
  1  2  1  0
  2  3  1  0
  3  4  2  0
  4  5  1  0
  5  6  1  0
  6  7  1  0
  7  8  1  0
  8  9  1  0
  9 10  2  0
  9 11  1  0
 11 12  1  0
 12 13  2  0
 13 14  1  0
 14 15  2  0
 15 16  1  0
 16 17  2  0
 17 18  1  0
  6  2  2  0
 18  7  1  0
 17 12  1  0
  1 19  1  0
  1 20  1  0
  1 21  1  0
  3 22  1  0
  4 23  1  0
  7 24  1  0
  8 25  1  0
  8 26  1  0
 11 27  1  0
 13 28  1  0
 14 29  1  0
 15 30  1  0
 16 31  1  0
M  END
$$$$
