
     RDKit          3D

 53 56  0  0  0  0  0  0  0  0999 V2000
   -9.0793    0.1667    1.6509 C   0  0  0  0  0  0  0  0  0  0  0  0
   -8.1377    1.1492    2.0672 O   0  0  0  0  0  0  0  0  0  0  0  0
   -6.9119    1.1274    1.4610 C   0  0  0  0  0  0  0  0  0  0  0  0
   -6.0406    2.1380    1.8722 C   0  0  0  0  0  0  0  0  0  0  0  0
   -4.7585    2.2359    1.3322 C   0  0  0  0  0  0  0  0  0  0  0  0
   -4.3343    1.3174    0.3718 C   0  0  0  0  0  0  0  0  0  0  0  0
   -5.1930    0.2927   -0.0436 C   0  0  0  0  0  0  0  0  0  0  0  0
   -4.7977   -0.7173   -1.0737 C   0  0  0  0  0  0  0  0  0  0  0  0
   -5.6656   -1.4328   -1.5770 O   0  0  0  0  0  0  0  0  0  0  0  0
   -3.3468   -0.8143   -1.5236 C   0  0  0  0  0  0  0  0  0  0  0  0
   -2.4848   -0.9693   -0.4055 O   0  0  0  0  0  0  0  0  0  0  0  0
   -1.1426   -1.0096   -0.6532 C   0  0  0  0  0  0  0  0  0  0  0  0
   -0.5373   -1.0426   -1.9072 C   0  0  0  0  0  0  0  0  0  0  0  0
    0.8624   -1.0871   -2.0187 C   0  0  0  0  0  0  0  0  0  0  0  0
    1.6854   -1.1017   -0.8832 C   0  0  0  0  0  0  0  0  0  0  0  0
    3.1617   -1.1449   -0.9316 C   0  0  0  0  0  0  0  0  0  0  0  0
    3.7947   -1.1982   -2.2991 C   0  0  0  0  0  0  0  0  0  0  0  0
    3.8602   -1.1222    0.2274 C   0  0  0  0  0  0  0  0  0  0  0  0
    5.3733   -1.1449    0.3398 C   0  0  0  0  0  0  0  0  0  0  0  0
    5.9987    0.2360    0.3380 C   0  0  0  0  0  0  0  0  0  0  0  0
    6.0053    1.0179    1.5030 C   0  0  0  0  0  0  0  0  0  0  0  0
    6.5676    2.2960    1.5010 C   0  0  0  0  0  0  0  0  0  0  0  0
    7.1324    2.8083    0.3357 C   0  0  0  0  0  0  0  0  0  0  0  0
    7.1389    2.0412   -0.8272 C   0  0  0  0  0  0  0  0  0  0  0  0
    6.5769    0.7626   -0.8265 C   0  0  0  0  0  0  0  0  0  0  0  0
    3.1657   -1.1228    1.5489 C   0  0  0  0  0  0  0  0  0  0  0  0
    3.7798   -1.1764    2.6101 O   0  0  0  0  0  0  0  0  0  0  0  0
    1.7837   -1.0736    1.5469 O   0  0  0  0  0  0  0  0  0  0  0  0
    1.0519   -1.0661    0.3528 C   0  0  0  0  0  0  0  0  0  0  0  0
   -0.3382   -1.0243    0.4829 C   0  0  0  0  0  0  0  0  0  0  0  0
   -6.4853    0.2067    0.5031 C   0  0  0  0  0  0  0  0  0  0  0  0
   -9.3112    0.2686    0.5854 H   0  0  0  0  0  0  0  0  0  0  0  0
   -8.7256   -0.8428    1.8854 H   0  0  0  0  0  0  0  0  0  0  0  0
  -10.0054    0.3331    2.2099 H   0  0  0  0  0  0  0  0  0  0  0  0
   -6.3665    2.8571    2.6206 H   0  0  0  0  0  0  0  0  0  0  0  0
   -4.0916    3.0291    1.6617 H   0  0  0  0  0  0  0  0  0  0  0  0
   -3.3323    1.4256   -0.0324 H   0  0  0  0  0  0  0  0  0  0  0  0
   -3.1094    0.0885   -2.0992 H   0  0  0  0  0  0  0  0  0  0  0  0
   -3.2677   -1.6956   -2.1721 H   0  0  0  0  0  0  0  0  0  0  0  0
   -1.1177   -1.0430   -2.8247 H   0  0  0  0  0  0  0  0  0  0  0  0
    1.2836   -1.1092   -3.0206 H   0  0  0  0  0  0  0  0  0  0  0  0
    3.4246   -2.0626   -2.8618 H   0  0  0  0  0  0  0  0  0  0  0  0
    4.8804   -1.2993   -2.2803 H   0  0  0  0  0  0  0  0  0  0  0  0
    3.5708   -0.2851   -2.8620 H   0  0  0  0  0  0  0  0  0  0  0  0
    5.6970   -1.6767    1.2446 H   0  0  0  0  0  0  0  0  0  0  0  0
    5.8140   -1.7486   -0.4629 H   0  0  0  0  0  0  0  0  0  0  0  0
    5.5761    0.6356    2.4277 H   0  0  0  0  0  0  0  0  0  0  0  0
    6.5650    2.8893    2.4124 H   0  0  0  0  0  0  0  0  0  0  0  0
    7.5706    3.8029    0.3353 H   0  0  0  0  0  0  0  0  0  0  0  0
    7.5847    2.4383   -1.7356 H   0  0  0  0  0  0  0  0  0  0  0  0
    6.6033    0.1809   -1.7441 H   0  0  0  0  0  0  0  0  0  0  0  0
   -0.7893   -1.0041    1.4716 H   0  0  0  0  0  0  0  0  0  0  0  0
   -7.1386   -0.5929    0.1662 H   0  0  0  0  0  0  0  0  0  0  0  0
  1  2  1  0
  2  3  1  0
  3  4  2  0
  4  5  1  0
  5  6  2  0
  6  7  1  0
  7  8  1  0
  8  9  2  0
  8 10  1  0
 10 11  1  0
 11 12  1  0
 12 13  2  0
 13 14  1  0
 14 15  2  0
 15 16  1  0
 16 17  1  0
 16 18  2  0
 18 19  1  0
 19 20  1  0
 20 21  2  0
 21 22  1  0
 22 23  2  0
 23 24  1  0
 24 25  2  0
 18 26  1  0
 26 27  2  0
 26 28  1  0
 28 29  1  0
 29 30  2  0
  7 31  2  0
 31  3  1  0
 30 12  1  0
 29 15  1  0
 25 20  1  0
  1 32  1  0
  1 33  1  0
  1 34  1  0
  4 35  1  0
  5 36  1  0
  6 37  1  0
 10 38  1  0
 10 39  1  0
 13 40  1  0
 14 41  1  0
 17 42  1  0
 17 43  1  0
 17 44  1  0
 19 45  1  0
 19 46  1  0
 21 47  1  0
 22 48  1  0
 23 49  1  0
 24 50  1  0
 25 51  1  0
 30 52  1  0
 31 53  1  0
M  END
$$$$
