
     RDKit          3D

 36 38  0  0  0  0  0  0  0  0999 V2000
   -4.5674   -0.8538   -1.7347 C   0  0  0  0  0  0  0  0  0  0  0  0
   -3.5048   -0.4372   -0.8451 N   0  0  0  0  0  0  0  0  0  0  0  0
   -2.1686   -0.4762   -1.1518 C   0  0  0  0  0  0  0  0  0  0  0  0
   -1.4656   -0.0027   -0.0647 C   0  0  0  0  0  0  0  0  0  0  0  0
   -0.0441    0.1298    0.0351 C   0  0  0  0  0  0  0  0  0  0  0  0
    0.8542   -0.2593   -0.8863 C   0  0  0  0  0  0  0  0  0  0  0  0
    2.3033   -0.1004   -0.7225 C   0  0  0  0  0  0  0  0  0  0  0  0
    3.1500   -1.1395   -1.1027 C   0  0  0  0  0  0  0  0  0  0  0  0
    4.5263   -0.9914   -0.9706 C   0  0  0  0  0  0  0  0  0  0  0  0
    5.0518    0.1548   -0.4839 N   0  0  0  0  0  4  0  0  0  0  0  0
    6.5131    0.2927   -0.3619 C   0  0  0  0  0  0  0  0  0  0  0  0
    4.2518    1.1862   -0.1328 C   0  0  0  0  0  0  0  0  0  0  0  0
    2.8700    1.0808   -0.2456 C   0  0  0  0  0  0  0  0  0  0  0  0
   -2.4202    0.3393    0.9452 C   0  0  0  0  0  0  0  0  0  0  0  0
   -2.3276    0.8625    2.2526 C   0  0  0  0  0  0  0  0  0  0  0  0
   -3.4953    1.0807    2.9819 C   0  0  0  0  0  0  0  0  0  0  0  0
   -3.4023    1.5781    4.2228 F   0  0  0  0  0  0  0  0  0  0  0  0
   -4.7463    0.7965    2.4563 C   0  0  0  0  0  0  0  0  0  0  0  0
   -4.8683    0.2771    1.1656 C   0  0  0  0  0  0  0  0  0  0  0  0
   -3.6911    0.0568    0.4290 C   0  0  0  0  0  0  0  0  0  0  0  0
   -5.2197    0.0036   -1.9188 H   0  0  0  0  0  0  0  0  0  0  0  0
   -4.1398   -1.2026   -2.6781 H   0  0  0  0  0  0  0  0  0  0  0  0
   -5.1195   -1.6666   -1.2561 H   0  0  0  0  0  0  0  0  0  0  0  0
   -1.8406   -0.8348   -2.1183 H   0  0  0  0  0  0  0  0  0  0  0  0
    0.3166    0.5774    0.9587 H   0  0  0  0  0  0  0  0  0  0  0  0
    0.5283   -0.7421   -1.8047 H   0  0  0  0  0  0  0  0  0  0  0  0
    2.7453   -2.0718   -1.4932 H   0  0  0  0  0  0  0  0  0  0  0  0
    5.2144   -1.7832   -1.2536 H   0  0  0  0  0  0  0  0  0  0  0  0
    6.9510   -0.6901   -0.1688 H   0  0  0  0  0  0  0  0  0  0  0  0
    6.7414    0.9602    0.4730 H   0  0  0  0  0  0  0  0  0  0  0  0
    6.8824    0.7058   -1.3038 H   0  0  0  0  0  0  0  0  0  0  0  0
    4.7262    2.0931    0.2319 H   0  0  0  0  0  0  0  0  0  0  0  0
    2.2456    1.9290    0.0296 H   0  0  0  0  0  0  0  0  0  0  0  0
   -1.3710    1.0976    2.7043 H   0  0  0  0  0  0  0  0  0  0  0  0
   -5.6315    0.9811    3.0581 H   0  0  0  0  0  0  0  0  0  0  0  0
   -5.8478    0.0540    0.7536 H   0  0  0  0  0  0  0  0  0  0  0  0
  1  2  1  0
  2  3  1  0
  3  4  2  0
  4  5  1  0
  5  6  2  3
  6  7  1  0
  7  8  2  0
  8  9  1  0
  9 10  2  0
 10 11  1  0
 10 12  1  0
 12 13  2  0
  4 14  1  0
 14 15  2  0
 15 16  1  0
 16 17  1  0
 16 18  2  0
 18 19  1  0
 19 20  2  0
 20  2  1  0
 13  7  1  0
 20 14  1  0
  1 21  1  0
  1 22  1  0
  1 23  1  0
  3 24  1  0
  5 25  1  0
  6 26  1  0
  8 27  1  0
  9 28  1  0
 11 29  1  0
 11 30  1  0
 11 31  1  0
 12 32  1  0
 13 33  1  0
 15 34  1  0
 18 35  1  0
 19 36  1  0
M  CHG  1  10   1
M  END
$$$$
