
     RDKit          3D

 48 49  0  0  0  0  0  0  0  0999 V2000
   -6.9592    1.3818   -1.3500 C   0  0  0  0  0  0  0  0  0  0  0  0
   -6.5864   -0.0284   -0.9161 C   0  0  0  0  0  0  0  0  0  0  0  0
   -5.2012   -0.1219   -0.4541 N   0  0  0  0  0  0  0  0  0  0  0  0
   -4.9312    0.2333    0.9443 C   0  0  0  0  0  0  0  0  0  0  0  0
   -5.3033   -0.8813    1.9099 C   0  0  0  0  0  0  0  0  0  0  0  0
   -4.2142   -0.3032   -1.4276 C   0  0  0  0  0  0  0  0  0  0  0  0
   -4.4471   -0.3542   -2.6333 O   0  0  0  0  0  0  0  0  0  0  0  0
   -2.8036   -0.4332   -1.0100 C   0  0  0  0  0  0  0  0  0  0  0  0
   -1.8784    0.5131   -1.4522 C   0  0  0  0  0  0  0  0  0  0  0  0
   -0.5373    0.3948   -1.0779 C   0  0  0  0  0  0  0  0  0  0  0  0
   -0.1108   -0.6716   -0.2731 C   0  0  0  0  0  0  0  0  0  0  0  0
    1.2540   -0.7119    0.0620 N   0  0  0  0  0  0  0  0  0  0  0  0
    1.9155   -1.6300    0.8570 C   0  0  0  0  0  0  0  0  0  0  0  0
    1.4194   -2.5939    1.4335 O   0  0  0  0  0  0  0  0  0  0  0  0
    3.4157   -1.3417    0.9813 C   0  0  0  0  0  0  0  0  0  0  0  0
    3.7654   -0.1564    0.2718 O   0  0  0  0  0  0  0  0  0  0  0  0
    5.0754    0.2397    0.2766 C   0  0  0  0  0  0  0  0  0  0  0  0
    6.1046   -0.4244    0.9521 C   0  0  0  0  0  0  0  0  0  0  0  0
    7.4161    0.0626    0.8969 C   0  0  0  0  0  0  0  0  0  0  0  0
    7.6999    1.2206    0.1615 C   0  0  0  0  0  0  0  0  0  0  0  0
    9.0763    1.7286    0.1052 N   0  0  0  0  0  4  0  0  0  0  0  0
    9.9544    1.0726    0.6821 O   0  0  0  0  0  0  0  0  0  0  0  0
    9.2754    2.7814   -0.5157 O   0  0  0  0  0  1  0  0  0  0  0  0
    6.6835    1.8967   -0.5185 C   0  0  0  0  0  0  0  0  0  0  0  0
    5.3790    1.4024   -0.4562 C   0  0  0  0  0  0  0  0  0  0  0  0
    4.1425    2.2621   -1.3093 Cl  0  0  0  0  0  0  0  0  0  0  0  0
   -1.0428   -1.6277    0.1400 C   0  0  0  0  0  0  0  0  0  0  0  0
   -2.3863   -1.5161   -0.2346 C   0  0  0  0  0  0  0  0  0  0  0  0
   -7.9925    1.4065   -1.7094 H   0  0  0  0  0  0  0  0  0  0  0  0
   -6.3087    1.7350   -2.1561 H   0  0  0  0  0  0  0  0  0  0  0  0
   -6.8723    2.0879   -0.5185 H   0  0  0  0  0  0  0  0  0  0  0  0
   -6.7261   -0.7112   -1.7624 H   0  0  0  0  0  0  0  0  0  0  0  0
   -7.2542   -0.3684   -0.1185 H   0  0  0  0  0  0  0  0  0  0  0  0
   -3.8783    0.4945    1.0803 H   0  0  0  0  0  0  0  0  0  0  0  0
   -5.5024    1.1371    1.1831 H   0  0  0  0  0  0  0  0  0  0  0  0
   -6.3774   -1.0899    1.8858 H   0  0  0  0  0  0  0  0  0  0  0  0
   -5.0408   -0.5965    2.9335 H   0  0  0  0  0  0  0  0  0  0  0  0
   -4.7809   -1.8108    1.6688 H   0  0  0  0  0  0  0  0  0  0  0  0
   -2.1996    1.3349   -2.0876 H   0  0  0  0  0  0  0  0  0  0  0  0
    0.1679    1.1447   -1.4288 H   0  0  0  0  0  0  0  0  0  0  0  0
    1.8418    0.0293   -0.3125 H   0  0  0  0  0  0  0  0  0  0  0  0
    3.6327   -1.2200    2.0484 H   0  0  0  0  0  0  0  0  0  0  0  0
    3.9466   -2.2043    0.5628 H   0  0  0  0  0  0  0  0  0  0  0  0
    5.9254   -1.3243    1.5331 H   0  0  0  0  0  0  0  0  0  0  0  0
    8.2005   -0.4717    1.4320 H   0  0  0  0  0  0  0  0  0  0  0  0
    6.8923    2.7968   -1.0931 H   0  0  0  0  0  0  0  0  0  0  0  0
   -0.7543   -2.4817    0.7451 H   0  0  0  0  0  0  0  0  0  0  0  0
   -3.0949   -2.2817    0.0684 H   0  0  0  0  0  0  0  0  0  0  0  0
  1  2  1  0
  2  3  1  0
  3  4  1  0
  4  5  1  0
  3  6  1  0
  6  7  2  0
  6  8  1  0
  8  9  2  0
  9 10  1  0
 10 11  2  0
 11 12  1  0
 12 13  1  0
 13 14  2  0
 13 15  1  0
 15 16  1  0
 16 17  1  0
 17 18  2  0
 18 19  1  0
 19 20  2  0
 20 21  1  0
 21 22  2  0
 21 23  1  0
 20 24  1  0
 24 25  2  0
 25 26  1  0
 11 27  1  0
 27 28  2  0
 28  8  1  0
 25 17  1  0
  1 29  1  0
  1 30  1  0
  1 31  1  0
  2 32  1  0
  2 33  1  0
  4 34  1  0
  4 35  1  0
  5 36  1  0
  5 37  1  0
  5 38  1  0
  9 39  1  0
 10 40  1  0
 12 41  1  0
 15 42  1  0
 15 43  1  0
 18 44  1  0
 19 45  1  0
 24 46  1  0
 27 47  1  0
 28 48  1  0
M  CHG  2  21   1  23  -1
M  END
$$$$
