
     RDKit          3D

 58 60  0  0  0  0  0  0  0  0999 V2000
   -1.6628    2.1477   -4.4175 C   0  0  0  0  0  0  0  0  0  0  0  0
   -2.0809    2.2716   -2.9763 C   0  0  0  0  0  0  0  0  0  0  0  0
   -2.9748    3.3018   -2.6285 C   0  0  0  0  0  0  0  0  0  0  0  0
   -3.4114    3.4577   -1.3141 C   0  0  0  0  0  0  0  0  0  0  0  0
   -2.9411    2.5882   -0.3327 C   0  0  0  0  0  0  0  0  0  0  0  0
   -3.4652    2.7842    1.3575 S   0  0  0  0  0  6  0  0  0  0  0  0
   -2.3150    2.5448    2.2019 O   0  0  0  0  0  0  0  0  0  0  0  0
   -4.2028    4.0287    1.4367 O   0  0  0  0  0  0  0  0  0  0  0  0
   -4.5735    1.5262    1.5837 N   0  0  0  0  0  0  0  0  0  0  0  0
   -4.0642    0.1307    1.7140 C   0  0  0  0  0  0  0  0  0  0  0  0
   -4.5918   -0.7521    0.5778 C   0  0  0  0  0  0  0  0  0  0  0  0
   -6.0258   -0.8206    0.5212 O   0  0  0  0  0  0  0  0  0  0  0  0
   -6.6775    0.3380    1.0612 C   0  0  0  0  0  0  0  0  0  0  0  0
   -5.8710    1.6252    0.8624 C   0  0  0  0  0  0  0  0  0  0  0  0
   -2.0240    1.5847   -0.6538 C   0  0  0  0  0  0  0  0  0  0  0  0
   -1.6188    1.3873   -1.9773 C   0  0  0  0  0  0  0  0  0  0  0  0
   -0.7469    0.3328   -2.3352 N   0  0  0  0  0  0  0  0  0  0  0  0
   -0.4316   -0.7795   -1.5655 C   0  0  0  0  0  0  0  0  0  0  0  0
   -0.9360   -1.0751   -0.4837 O   0  0  0  0  0  0  0  0  0  0  0  0
    0.6125   -1.6834   -2.2358 C   0  0  0  0  0  0  0  0  0  0  0  0
    1.2441   -2.5716   -1.3169 O   0  0  0  0  0  0  0  0  0  0  0  0
    2.1272   -1.9534   -0.4815 C   0  0  0  0  0  0  0  0  0  0  0  0
    2.4232   -0.7646   -0.5356 O   0  0  0  0  0  0  0  0  0  0  0  0
    2.6386   -2.9310    0.5672 C   0  0  0  0  0  0  0  0  0  0  0  0
    3.8819   -2.4488    1.1511 N   0  0  0  0  0  0  0  0  0  0  0  0
    5.0855   -2.7565    0.5491 C   0  0  0  0  0  0  0  0  0  0  0  0
    5.1788   -3.5276   -0.3997 O   0  0  0  0  0  0  0  0  0  0  0  0
    6.2916   -2.0614    1.0812 C   0  0  0  0  0  0  0  0  0  0  0  0
    7.4043   -1.9221    0.2415 C   0  0  0  0  0  0  0  0  0  0  0  0
    8.5556   -1.2793    0.7000 C   0  0  0  0  0  0  0  0  0  0  0  0
    8.6034   -0.7803    2.0010 C   0  0  0  0  0  0  0  0  0  0  0  0
    7.5049   -0.9286    2.8475 C   0  0  0  0  0  0  0  0  0  0  0  0
    6.3505   -1.5713    2.3926 C   0  0  0  0  0  0  0  0  0  0  0  0
   -2.1385    2.9099   -5.0440 H   0  0  0  0  0  0  0  0  0  0  0  0
   -1.9531    1.1697   -4.8147 H   0  0  0  0  0  0  0  0  0  0  0  0
   -0.5797    2.2763   -4.5103 H   0  0  0  0  0  0  0  0  0  0  0  0
   -3.3413    3.9925   -3.3864 H   0  0  0  0  0  0  0  0  0  0  0  0
   -4.1028    4.2605   -1.0669 H   0  0  0  0  0  0  0  0  0  0  0  0
   -4.4214   -0.2515    2.6780 H   0  0  0  0  0  0  0  0  0  0  0  0
   -2.9730    0.0933    1.7450 H   0  0  0  0  0  0  0  0  0  0  0  0
   -4.2441   -0.3853   -0.3937 H   0  0  0  0  0  0  0  0  0  0  0  0
   -4.2200   -1.7752    0.6912 H   0  0  0  0  0  0  0  0  0  0  0  0
   -7.6521    0.4233    0.5702 H   0  0  0  0  0  0  0  0  0  0  0  0
   -6.8621    0.1554    2.1263 H   0  0  0  0  0  0  0  0  0  0  0  0
   -5.6913    1.7746   -0.2072 H   0  0  0  0  0  0  0  0  0  0  0  0
   -6.4395    2.4737    1.2555 H   0  0  0  0  0  0  0  0  0  0  0  0
   -1.6184    0.9786    0.1498 H   0  0  0  0  0  0  0  0  0  0  0  0
   -0.3819    0.3491   -3.2783 H   0  0  0  0  0  0  0  0  0  0  0  0
    0.0869   -2.2976   -2.9749 H   0  0  0  0  0  0  0  0  0  0  0  0
    1.3608   -1.0889   -2.7734 H   0  0  0  0  0  0  0  0  0  0  0  0
    2.7986   -3.9137    0.1136 H   0  0  0  0  0  0  0  0  0  0  0  0
    1.8983   -3.0031    1.3687 H   0  0  0  0  0  0  0  0  0  0  0  0
    3.8256   -1.5656    1.6438 H   0  0  0  0  0  0  0  0  0  0  0  0
    7.3749   -2.3129   -0.7737 H   0  0  0  0  0  0  0  0  0  0  0  0
    9.4146   -1.1710    0.0425 H   0  0  0  0  0  0  0  0  0  0  0  0
    9.5014   -0.2818    2.3581 H   0  0  0  0  0  0  0  0  0  0  0  0
    7.5510   -0.5504    3.8660 H   0  0  0  0  0  0  0  0  0  0  0  0
    5.5200   -1.7021    3.0802 H   0  0  0  0  0  0  0  0  0  0  0  0
  1  2  1  0
  2  3  2  0
  3  4  1  0
  4  5  2  0
  5  6  1  0
  6  7  2  0
  6  8  2  0
  6  9  1  0
  9 10  1  0
 10 11  1  0
 11 12  1  0
 12 13  1  0
 13 14  1  0
  5 15  1  0
 15 16  2  0
 16 17  1  0
 17 18  1  0
 18 19  2  0
 18 20  1  0
 20 21  1  0
 21 22  1  0
 22 23  2  0
 22 24  1  0
 24 25  1  0
 25 26  1  0
 26 27  2  0
 26 28  1  0
 28 29  2  0
 29 30  1  0
 30 31  2  0
 31 32  1  0
 32 33  2  0
 16  2  1  0
 33 28  1  0
 14  9  1  0
  1 34  1  0
  1 35  1  0
  1 36  1  0
  3 37  1  0
  4 38  1  0
 10 39  1  0
 10 40  1  0
 11 41  1  0
 11 42  1  0
 13 43  1  0
 13 44  1  0
 14 45  1  0
 14 46  1  0
 15 47  1  0
 17 48  1  0
 20 49  1  0
 20 50  1  0
 24 51  1  0
 24 52  1  0
 25 53  1  0
 29 54  1  0
 30 55  1  0
 31 56  1  0
 32 57  1  0
 33 58  1  0
M  END
$$$$
