
     RDKit          3D

 47 50  0  0  0  0  0  0  0  0999 V2000
   -5.1006    2.3967    0.5396 C   0  0  0  0  0  0  0  0  0  0  0  0
   -4.1269    1.9308   -0.5414 C   0  0  0  0  0  0  0  0  0  0  0  0
   -2.7595    1.6430    0.0557 C   0  0  0  0  0  0  0  0  0  0  0  0
   -1.8102    1.0414   -0.9550 C   0  0  0  0  0  0  0  0  0  0  0  0
   -0.9960    1.7594   -1.5455 O   0  0  0  0  0  0  0  0  0  0  0  0
   -1.8249   -0.3398   -1.1149 N   0  0  0  0  0  0  0  0  0  0  0  0
   -0.7931   -0.9384   -1.9699 C   0  0  0  0  0  0  0  0  0  0  0  0
    0.5559   -1.0671   -1.2512 C   0  0  0  0  0  0  0  0  0  0  0  0
    0.9569   -2.1609   -0.8618 O   0  0  0  0  0  0  0  0  0  0  0  0
    1.2046    0.1472   -1.1042 N   0  0  0  0  0  0  0  0  0  0  0  0
    2.4525    0.3989   -0.5030 C   0  0  0  0  0  0  0  0  0  0  0  0
    2.8560    1.7396   -0.4220 C   0  0  0  0  0  0  0  0  0  0  0  0
    4.0768    2.0848    0.1639 C   0  0  0  0  0  0  0  0  0  0  0  0
    4.9029    1.0898    0.6747 C   0  0  0  0  0  0  0  0  0  0  0  0
    4.5222   -0.2511    0.5719 C   0  0  0  0  0  0  0  0  0  0  0  0
    3.2952   -0.5952   -0.0015 C   0  0  0  0  0  0  0  0  0  0  0  0
    5.3034   -1.2867    1.0220 O   0  0  0  0  0  0  0  0  0  0  0  0
    6.6494   -0.8608    1.2587 C   0  0  0  0  0  0  0  0  0  0  0  0
    6.6680    0.4490    2.0287 C   0  0  0  0  0  0  0  0  0  0  0  0
    6.0756    1.4990    1.2553 O   0  0  0  0  0  0  0  0  0  0  0  0
   -2.8237   -1.1981   -0.5564 C   0  0  0  0  0  0  0  0  0  0  0  0
   -2.4306   -2.4229    0.0091 C   0  0  0  0  0  0  0  0  0  0  0  0
   -3.3668   -3.2852    0.5841 C   0  0  0  0  0  0  0  0  0  0  0  0
   -4.7147   -2.9474    0.5872 C   0  0  0  0  0  0  0  0  0  0  0  0
   -5.1294   -1.7511    0.0045 C   0  0  0  0  0  0  0  0  0  0  0  0
   -4.1978   -0.8692   -0.5655 C   0  0  0  0  0  0  0  0  0  0  0  0
   -4.8755    0.5319   -1.4522 S   0  0  0  0  0  0  0  0  0  0  0  0
   -4.7043    3.2785    1.0555 H   0  0  0  0  0  0  0  0  0  0  0  0
   -5.2720    1.6218    1.2954 H   0  0  0  0  0  0  0  0  0  0  0  0
   -6.0687    2.6800    0.1116 H   0  0  0  0  0  0  0  0  0  0  0  0
   -4.0243    2.7376   -1.2770 H   0  0  0  0  0  0  0  0  0  0  0  0
   -2.3106    2.5806    0.4098 H   0  0  0  0  0  0  0  0  0  0  0  0
   -2.8150    1.0066    0.9472 H   0  0  0  0  0  0  0  0  0  0  0  0
   -0.6550   -0.3149   -2.8623 H   0  0  0  0  0  0  0  0  0  0  0  0
   -1.1073   -1.9247   -2.3310 H   0  0  0  0  0  0  0  0  0  0  0  0
    0.6844    0.9681   -1.4216 H   0  0  0  0  0  0  0  0  0  0  0  0
    2.2215    2.5340   -0.8092 H   0  0  0  0  0  0  0  0  0  0  0  0
    4.3752    3.1271    0.2297 H   0  0  0  0  0  0  0  0  0  0  0  0
    3.0340   -1.6467   -0.0530 H   0  0  0  0  0  0  0  0  0  0  0  0
    7.1612   -0.7669    0.2928 H   0  0  0  0  0  0  0  0  0  0  0  0
    7.1493   -1.6457    1.8348 H   0  0  0  0  0  0  0  0  0  0  0  0
    6.1235    0.3652    2.9775 H   0  0  0  0  0  0  0  0  0  0  0  0
    7.6985    0.7425    2.2515 H   0  0  0  0  0  0  0  0  0  0  0  0
   -1.3840   -2.7165    0.0478 H   0  0  0  0  0  0  0  0  0  0  0  0
   -3.0376   -4.2212    1.0298 H   0  0  0  0  0  0  0  0  0  0  0  0
   -5.4458   -3.6221    1.0258 H   0  0  0  0  0  0  0  0  0  0  0  0
   -6.1929   -1.5212   -0.0202 H   0  0  0  0  0  0  0  0  0  0  0  0
  1  2  1  0
  2  3  1  0
  3  4  1  0
  4  5  2  0
  4  6  1  0
  6  7  1  0
  7  8  1  0
  8  9  2  0
  8 10  1  0
 10 11  1  0
 11 12  2  0
 12 13  1  0
 13 14  2  0
 14 15  1  0
 15 16  2  0
 15 17  1  0
 17 18  1  0
 18 19  1  0
 19 20  1  0
  6 21  1  0
 21 22  2  0
 22 23  1  0
 23 24  2  0
 24 25  1  0
 25 26  2  0
 26 27  1  0
 27  2  1  0
 16 11  1  0
 26 21  1  0
 20 14  1  0
  1 28  1  0
  1 29  1  0
  1 30  1  0
  2 31  1  0
  3 32  1  0
  3 33  1  0
  7 34  1  0
  7 35  1  0
 10 36  1  0
 12 37  1  0
 13 38  1  0
 16 39  1  0
 18 40  1  0
 18 41  1  0
 19 42  1  0
 19 43  1  0
 22 44  1  0
 23 45  1  0
 24 46  1  0
 25 47  1  0
M  END
$$$$
