
     RDKit          3D

 61 66  0  0  0  0  0  0  0  0999 V2000
    9.1805    3.4057   -0.1313 F   0  0  0  0  0  0  0  0  0  0  0  0
    8.1233    2.6208    0.1138 C   0  0  0  0  0  0  0  0  0  0  0  0
    8.2525    1.2420   -0.0046 C   0  0  0  0  0  0  0  0  0  0  0  0
    7.1519    0.4227    0.2507 C   0  0  0  0  0  0  0  0  0  0  0  0
    5.9225    0.9855    0.6284 C   0  0  0  0  0  0  0  0  0  0  0  0
    4.7252    0.0979    0.8908 C   0  0  0  0  0  0  0  0  0  0  0  0
    3.8504   -0.0591   -0.3632 C   0  0  0  0  0  0  0  0  0  0  0  0
    2.7679   -1.0487   -0.2050 N   0  0  0  0  0  0  0  0  0  0  0  0
    1.7463   -0.6141    0.7771 C   0  0  0  0  0  0  0  0  0  0  0  0
    0.5804   -1.6225    0.9087 C   0  0  0  0  0  0  0  0  0  0  0  0
   -0.0738   -1.8762   -0.3997 N   0  0  0  0  0  0  0  0  0  0  0  0
   -1.1295   -1.0645   -0.7308 C   0  0  0  0  0  0  0  0  0  0  0  0
   -1.2235   -0.0925   -1.7109 C   0  0  0  0  0  0  0  0  0  0  0  0
   -2.4424    0.5959   -1.5370 C   0  0  0  0  0  0  0  0  0  0  0  0
   -3.1006    0.0082   -0.4747 C   0  0  0  0  0  0  0  0  0  0  0  0
   -4.3630    0.3054    0.1655 C   0  0  0  0  0  0  0  0  0  0  0  0
   -5.1045    1.5440   -0.1745 C   0  0  0  0  0  0  0  0  0  0  0  0
   -6.4567    1.4466   -0.5266 C   0  0  0  0  0  0  0  0  0  0  0  0
   -7.1767    2.5994   -0.8420 C   0  0  0  0  0  0  0  0  0  0  0  0
   -6.5521    3.8470   -0.7887 C   0  0  0  0  0  0  0  0  0  0  0  0
   -5.2081    3.9466   -0.4176 C   0  0  0  0  0  0  0  0  0  0  0  0
   -4.4812    2.7958   -0.1079 C   0  0  0  0  0  0  0  0  0  0  0  0
   -4.8765   -0.5055    1.0438 N   0  0  0  0  0  0  0  0  0  0  0  0
   -4.1866   -1.6906    1.3667 C   0  0  0  0  0  0  0  0  0  0  0  0
   -4.7986   -2.5727    2.2626 C   0  0  0  0  0  0  0  0  0  0  0  0
   -4.1934   -3.7846    2.5968 C   0  0  0  0  0  0  0  0  0  0  0  0
   -2.9698   -4.1310    2.0242 C   0  0  0  0  0  0  0  0  0  0  0  0
   -2.3403   -3.2608    1.1318 C   0  0  0  0  0  0  0  0  0  0  0  0
   -2.9347   -2.0335    0.8233 C   0  0  0  0  0  0  0  0  0  0  0  0
   -2.3672   -1.0982   -0.0802 N   0  0  0  0  0  0  0  0  0  0  0  0
    0.9094   -2.2582   -1.4354 C   0  0  0  0  0  0  0  0  0  0  0  0
    2.1025   -1.2767   -1.5120 C   0  0  0  0  0  0  0  0  0  0  0  0
    5.8105    2.3803    0.7368 C   0  0  0  0  0  0  0  0  0  0  0  0
    6.9131    3.1973    0.4805 C   0  0  0  0  0  0  0  0  0  0  0  0
    9.2074    0.8152   -0.2924 H   0  0  0  0  0  0  0  0  0  0  0  0
    7.2578   -0.6563    0.1558 H   0  0  0  0  0  0  0  0  0  0  0  0
    5.0705   -0.8845    1.2366 H   0  0  0  0  0  0  0  0  0  0  0  0
    4.1498    0.5278    1.7194 H   0  0  0  0  0  0  0  0  0  0  0  0
    4.5005   -0.3870   -1.1853 H   0  0  0  0  0  0  0  0  0  0  0  0
    3.4440    0.9163   -0.6606 H   0  0  0  0  0  0  0  0  0  0  0  0
    2.1998   -0.5170    1.7688 H   0  0  0  0  0  0  0  0  0  0  0  0
    1.3456    0.3697    0.4990 H   0  0  0  0  0  0  0  0  0  0  0  0
   -0.1353   -1.2519    1.6532 H   0  0  0  0  0  0  0  0  0  0  0  0
    0.9668   -2.5763    1.2919 H   0  0  0  0  0  0  0  0  0  0  0  0
   -0.4621    0.1525   -2.4358 H   0  0  0  0  0  0  0  0  0  0  0  0
   -2.7897    1.4397   -2.1200 H   0  0  0  0  0  0  0  0  0  0  0  0
   -6.9456    0.4746   -0.5582 H   0  0  0  0  0  0  0  0  0  0  0  0
   -8.2250    2.5241   -1.1242 H   0  0  0  0  0  0  0  0  0  0  0  0
   -7.1167    4.7449   -1.0287 H   0  0  0  0  0  0  0  0  0  0  0  0
   -4.7309    4.9223   -0.3612 H   0  0  0  0  0  0  0  0  0  0  0  0
   -3.4417    2.8825    0.2008 H   0  0  0  0  0  0  0  0  0  0  0  0
   -5.7619   -2.3106    2.6933 H   0  0  0  0  0  0  0  0  0  0  0  0
   -4.6857   -4.4637    3.2876 H   0  0  0  0  0  0  0  0  0  0  0  0
   -2.5089   -5.0868    2.2613 H   0  0  0  0  0  0  0  0  0  0  0  0
   -1.4106   -3.5810    0.6691 H   0  0  0  0  0  0  0  0  0  0  0  0
    0.4309   -2.3496   -2.4180 H   0  0  0  0  0  0  0  0  0  0  0  0
    1.2885   -3.2578   -1.1864 H   0  0  0  0  0  0  0  0  0  0  0  0
    1.7615   -0.3199   -1.9263 H   0  0  0  0  0  0  0  0  0  0  0  0
    2.8308   -1.6918   -2.2197 H   0  0  0  0  0  0  0  0  0  0  0  0
    4.8655    2.8360    1.0242 H   0  0  0  0  0  0  0  0  0  0  0  0
    6.8373    4.2771    0.5659 H   0  0  0  0  0  0  0  0  0  0  0  0
  1  2  1  0
  2  3  2  0
  3  4  1  0
  4  5  2  0
  5  6  1  0
  6  7  1  0
  7  8  1  0
  8  9  1  0
  9 10  1  0
 10 11  1  0
 11 12  1  0
 12 13  2  0
 13 14  1  0
 14 15  2  0
 15 16  1  0
 16 17  1  0
 17 18  2  0
 18 19  1  0
 19 20  2  0
 20 21  1  0
 21 22  2  0
 16 23  2  0
 23 24  1  0
 24 25  2  0
 25 26  1  0
 26 27  2  0
 27 28  1  0
 28 29  2  0
 29 30  1  0
 11 31  1  0
 31 32  1  0
  5 33  1  0
 33 34  2  0
 34  2  1  0
 32  8  1  0
 30 12  1  0
 30 15  1  0
 22 17  1  0
 29 24  1  0
  3 35  1  0
  4 36  1  0
  6 37  1  0
  6 38  1  0
  7 39  1  0
  7 40  1  0
  9 41  1  0
  9 42  1  0
 10 43  1  0
 10 44  1  0
 13 45  1  0
 14 46  1  0
 18 47  1  0
 19 48  1  0
 20 49  1  0
 21 50  1  0
 22 51  1  0
 25 52  1  0
 26 53  1  0
 27 54  1  0
 28 55  1  0
 31 56  1  0
 31 57  1  0
 32 58  1  0
 32 59  1  0
 33 60  1  0
 34 61  1  0
M  END
$$$$
