
     RDKit          3D

 70 76  0  0  0  0  0  0  0  0999 V2000
   -5.2055   -4.5398   -0.3557 C   0  0  0  0  0  0  0  0  0  0  0  0
   -4.1351   -3.7827    0.3709 C   0  0  0  0  0  0  0  0  0  0  0  0
   -3.7127   -4.1584    1.6609 C   0  0  0  0  0  0  0  0  0  0  0  0
   -4.4108   -5.5200    2.4719 Cl  0  0  0  0  0  0  0  0  0  0  0  0
   -2.7028   -3.4516    2.3443 C   0  0  0  0  0  0  0  0  0  0  0  0
   -2.0874   -2.3431    1.7633 C   0  0  0  0  0  0  0  0  0  0  0  0
   -2.5007   -1.9594    0.4988 C   0  0  0  0  0  0  0  0  0  0  0  0
   -3.4961   -2.6788   -0.1813 C   0  0  0  0  0  0  0  0  0  0  0  0
   -3.6998   -2.1178   -1.4424 N   0  0  0  0  0  0  0  0  0  0  0  0
   -2.8731   -1.0128   -1.6596 C   0  0  0  0  0  0  0  0  0  0  0  0
   -2.8282   -0.3667   -2.6969 O   0  0  0  0  0  0  0  0  0  0  0  0
   -2.0394   -0.8255   -0.3681 C   0  0  1  0  0  0  0  0  0  0  0  0
   -2.2975    0.4713    0.3096 C   0  0  0  0  0  0  0  0  0  0  0  0
   -1.2112    1.3441    0.1210 C   0  0  0  0  0  0  0  0  0  0  0  0
   -1.4645    2.5151    0.7827 C   0  0  0  0  0  0  0  0  0  0  0  0
   -0.7504    3.6360    0.8527 O   0  0  0  0  0  0  0  0  0  0  0  0
   -2.7502    2.3968    1.3537 N   0  0  0  0  0  0  0  0  0  0  0  0
   -3.4698    3.4298    2.0347 C   0  0  0  0  0  0  0  0  0  0  0  0
   -2.7902    4.3848    2.8019 C   0  0  0  0  0  0  0  0  0  0  0  0
   -3.5007    5.3888    3.4631 C   0  0  0  0  0  0  0  0  0  0  0  0
   -4.8898    5.4539    3.3556 C   0  0  0  0  0  0  0  0  0  0  0  0
   -5.5723    4.5089    2.5955 C   0  0  0  0  0  0  0  0  0  0  0  0
   -4.8678    3.5013    1.9308 C   0  0  0  0  0  0  0  0  0  0  0  0
   -3.2219    1.0890    1.1076 C   0  0  0  0  0  0  0  0  0  0  0  0
   -4.3332    0.5707    1.6287 O   0  0  0  0  0  0  0  0  0  0  0  0
   -0.2114    0.7039   -0.7602 C   0  0  1  0  0  0  0  0  0  0  0  0
    1.2737    0.8762   -0.4645 C   0  0  0  0  0  0  0  0  0  0  0  0
    2.0816   -0.0038   -1.3378 N   0  0  0  0  0  0  0  0  0  0  0  0
    3.3730    0.4142   -1.6521 C   0  0  0  0  0  0  0  0  0  0  0  0
    3.7810    1.5326   -1.3414 O   0  0  0  0  0  0  0  0  0  0  0  0
    4.2268   -0.5631   -2.4496 C   0  0  0  0  0  0  0  0  0  0  0  0
    5.6223   -0.0356   -2.7869 C   0  0  0  0  0  0  0  0  0  0  0  0
    6.6263   -0.2653   -1.6813 C   0  0  0  0  0  0  0  0  0  0  0  0
    7.2788   -1.5006   -1.5600 C   0  0  0  0  0  0  0  0  0  0  0  0
    8.2087   -1.7137   -0.5391 C   0  0  0  0  0  0  0  0  0  0  0  0
    8.4939   -0.6965    0.3691 C   0  0  0  0  0  0  0  0  0  0  0  0
    7.8446    0.5325    0.2623 C   0  0  0  0  0  0  0  0  0  0  0  0
    6.9133    0.7470   -0.7562 C   0  0  0  0  0  0  0  0  0  0  0  0
    1.6215   -1.4073   -1.4328 C   0  0  0  0  0  0  0  0  0  0  0  0
    0.0821   -1.5606   -1.5695 C   0  0  0  0  0  0  0  0  0  0  0  0
   -0.5723   -0.7369   -0.5681 N   0  0  0  0  0  0  0  0  0  0  0  0
   -5.4523   -4.0931   -1.3232 H   0  0  0  0  0  0  0  0  0  0  0  0
   -4.8801   -5.5684   -0.5444 H   0  0  0  0  0  0  0  0  0  0  0  0
   -6.1298   -4.5514    0.2315 H   0  0  0  0  0  0  0  0  0  0  0  0
   -2.3965   -3.7660    3.3397 H   0  0  0  0  0  0  0  0  0  0  0  0
   -1.3137   -1.7919    2.2890 H   0  0  0  0  0  0  0  0  0  0  0  0
   -4.3572   -2.4370   -2.1366 H   0  0  0  0  0  0  0  0  0  0  0  0
    0.0752    3.5085    0.3529 H   0  0  0  0  0  0  0  0  0  0  0  0
   -1.7103    4.3490    2.9299 H   0  0  0  0  0  0  0  0  0  0  0  0
   -2.9664    6.1244    4.0580 H   0  0  0  0  0  0  0  0  0  0  0  0
   -5.4357    6.2436    3.8644 H   0  0  0  0  0  0  0  0  0  0  0  0
   -6.6543    4.5710    2.4945 H   0  0  0  0  0  0  0  0  0  0  0  0
   -5.4281    2.8177    1.2979 H   0  0  0  0  0  0  0  0  0  0  0  0
   -4.5646    1.0775    2.4286 H   0  0  0  0  0  0  0  0  0  0  0  0
   -0.4177    1.0084   -1.7968 H   0  0  0  0  0  0  0  0  0  0  0  0
    1.5629    1.9225   -0.6093 H   0  0  0  0  0  0  0  0  0  0  0  0
    1.5126    0.6166    0.5745 H   0  0  0  0  0  0  0  0  0  0  0  0
    3.6986   -0.7383   -3.3956 H   0  0  0  0  0  0  0  0  0  0  0  0
    4.2975   -1.5120   -1.9062 H   0  0  0  0  0  0  0  0  0  0  0  0
    5.9883   -0.5561   -3.6821 H   0  0  0  0  0  0  0  0  0  0  0  0
    5.5959    1.0273   -3.0600 H   0  0  0  0  0  0  0  0  0  0  0  0
    7.0706   -2.3057   -2.2633 H   0  0  0  0  0  0  0  0  0  0  0  0
    8.7123   -2.6724   -0.4526 H   0  0  0  0  0  0  0  0  0  0  0  0
    9.2211   -0.8635    1.1611 H   0  0  0  0  0  0  0  0  0  0  0  0
    8.0601    1.3257    0.9726 H   0  0  0  0  0  0  0  0  0  0  0  0
    6.4093    1.7101   -0.8233 H   0  0  0  0  0  0  0  0  0  0  0  0
    2.0994   -1.9123   -2.2773 H   0  0  0  0  0  0  0  0  0  0  0  0
    1.9610   -1.9046   -0.5142 H   0  0  0  0  0  0  0  0  0  0  0  0
   -0.2178   -1.2689   -2.5835 H   0  0  0  0  0  0  0  0  0  0  0  0
   -0.1731   -2.6178   -1.4352 H   0  0  0  0  0  0  0  0  0  0  0  0
  1  2  1  0
  2  3  2  0
  3  4  1  0
  3  5  1  0
  5  6  2  0
  6  7  1  0
  7  8  2  0
  8  9  1  0
  9 10  1  0
 10 11  2  0
 10 12  1  0
 12 13  1  0
 13 14  1  0
 14 15  2  0
 15 16  1  0
 15 17  1  0
 17 18  1  0
 18 19  2  0
 19 20  1  0
 20 21  2  0
 21 22  1  0
 22 23  2  0
 17 24  1  0
 24 25  1  0
 14 26  1  0
 26 27  1  0
 27 28  1  0
 28 29  1  0
 29 30  2  0
 29 31  1  0
 31 32  1  0
 32 33  1  0
 33 34  2  0
 34 35  1  0
 35 36  2  0
 36 37  1  0
 37 38  2  0
 28 39  1  0
 39 40  1  0
 40 41  1  0
  8  2  1  0
 12 41  1  6
 12  7  1  0
 24 13  2  0
 41 26  1  0
 23 18  1  0
 38 33  1  0
  1 42  1  0
  1 43  1  0
  1 44  1  0
  5 45  1  0
  6 46  1  0
  9 47  1  0
 16 48  1  0
 19 49  1  0
 20 50  1  0
 21 51  1  0
 22 52  1  0
 23 53  1  0
 25 54  1  0
 26 55  1  6
 27 56  1  0
 27 57  1  0
 31 58  1  0
 31 59  1  0
 32 60  1  0
 32 61  1  0
 34 62  1  0
 35 63  1  0
 36 64  1  0
 37 65  1  0
 38 66  1  0
 39 67  1  0
 39 68  1  0
 40 69  1  0
 40 70  1  0
M  END
$$$$
