
     RDKit          3D

 38 40  0  0  0  0  0  0  0  0999 V2000
   -6.8277   -1.2932   -1.9754 C   0  0  0  0  0  0  0  0  0  0  0  0
   -5.6497   -1.4970   -1.0332 C   0  0  0  0  0  0  0  0  0  0  0  0
   -4.4333   -0.9821   -1.5657 O   0  0  0  0  0  0  0  0  0  0  0  0
   -4.4012    0.4421   -1.6649 C   0  0  0  0  0  0  0  0  0  0  0  0
   -3.0359    0.9064   -1.2802 C   0  0  0  0  0  0  0  0  0  0  0  0
   -2.2011    1.5495   -2.0701 N   0  0  0  0  0  0  0  0  0  0  0  0
   -1.0281    1.8826   -1.4187 N   0  0  0  0  0  0  0  0  0  0  0  0
   -1.0288    1.4944   -0.1620 C   0  0  0  0  0  0  0  0  0  0  0  0
    0.0309    1.7241    0.6770 N   0  0  0  0  0  0  0  0  0  0  0  0
    0.1442    1.3565    1.9982 C   0  0  0  0  0  0  0  0  0  0  0  0
   -0.6949    0.7814    2.6844 O   0  0  0  0  0  0  0  0  0  0  0  0
    1.4784    1.7926    2.6144 C   0  0  0  0  0  0  0  0  0  0  0  0
    2.5466    1.9119    1.6834 O   0  0  0  0  0  0  0  0  0  0  0  0
    3.2185    0.7720    1.3280 C   0  0  0  0  0  0  0  0  0  0  0  0
    2.8387   -0.5445    1.6521 C   0  0  0  0  0  0  0  0  0  0  0  0
    3.6022   -1.6353    1.2132 C   0  0  0  0  0  0  0  0  0  0  0  0
    4.7250   -1.3763    0.4576 C   0  0  0  0  0  0  0  0  0  0  0  0
    5.0972   -0.0934    0.1385 C   0  0  0  0  0  0  0  0  0  0  0  0
    4.3656    0.9982    0.5558 C   0  0  0  0  0  0  0  0  0  0  0  0
    6.2311   -0.0523   -0.6116 O   0  0  0  0  0  0  0  0  0  0  0  0
    6.5211   -1.4604   -0.7417 C   0  0  0  0  0  0  0  0  0  0  0  0
    5.5750   -2.3063   -0.0524 O   0  0  0  0  0  0  0  0  0  0  0  0
   -2.4527    0.7014    0.3264 S   0  0  0  0  0  0  0  0  0  0  0  0
   -7.0291   -0.2283   -2.1487 H   0  0  0  0  0  0  0  0  0  0  0  0
   -6.6169   -1.7418   -2.9594 H   0  0  0  0  0  0  0  0  0  0  0  0
   -7.7356   -1.7469   -1.5632 H   0  0  0  0  0  0  0  0  0  0  0  0
   -5.8416   -1.0537   -0.0475 H   0  0  0  0  0  0  0  0  0  0  0  0
   -5.4979   -2.5687   -0.8764 H   0  0  0  0  0  0  0  0  0  0  0  0
   -4.6172    0.7154   -2.7011 H   0  0  0  0  0  0  0  0  0  0  0  0
   -5.1480    0.9169   -1.0160 H   0  0  0  0  0  0  0  0  0  0  0  0
    0.8296    2.1649    0.2310 H   0  0  0  0  0  0  0  0  0  0  0  0
    1.3126    2.7901    3.0372 H   0  0  0  0  0  0  0  0  0  0  0  0
    1.7435    1.1373    3.4519 H   0  0  0  0  0  0  0  0  0  0  0  0
    1.9494   -0.7634    2.2373 H   0  0  0  0  0  0  0  0  0  0  0  0
    3.3169   -2.6528    1.4573 H   0  0  0  0  0  0  0  0  0  0  0  0
    4.6752    2.0027    0.2902 H   0  0  0  0  0  0  0  0  0  0  0  0
    7.5232   -1.6529   -0.3381 H   0  0  0  0  0  0  0  0  0  0  0  0
    6.5152   -1.7208   -1.8073 H   0  0  0  0  0  0  0  0  0  0  0  0
  1  2  1  0
  2  3  1  0
  3  4  1  0
  4  5  1  0
  5  6  2  0
  6  7  1  0
  7  8  2  0
  8  9  1  0
  9 10  1  0
 10 11  2  0
 10 12  1  0
 12 13  1  0
 13 14  1  0
 14 15  2  0
 15 16  1  0
 16 17  2  0
 17 18  1  0
 18 19  2  0
 18 20  1  0
 20 21  1  0
 21 22  1  0
  8 23  1  0
 23  5  1  0
 19 14  1  0
 22 17  1  0
  1 24  1  0
  1 25  1  0
  1 26  1  0
  2 27  1  0
  2 28  1  0
  4 29  1  0
  4 30  1  0
  9 31  1  0
 12 32  1  0
 12 33  1  0
 15 34  1  0
 16 35  1  0
 19 36  1  0
 21 37  1  0
 21 38  1  0
M  END
$$$$
