
     RDKit          3D

 44 46  0  0  0  0  0  0  0  0999 V2000
    8.0601   -1.6313    1.7756 C   0  0  0  0  0  0  0  0  0  0  0  0
    6.8096   -1.3075    1.0141 C   0  0  0  0  0  0  0  0  0  0  0  0
    6.3612   -2.1657    0.0023 C   0  0  0  0  0  0  0  0  0  0  0  0
    5.2118   -1.8570   -0.7293 C   0  0  0  0  0  0  0  0  0  0  0  0
    4.4968   -0.6858   -0.4563 C   0  0  0  0  0  0  0  0  0  0  0  0
    3.2728   -0.3969   -1.2538 C   0  0  0  0  0  0  0  0  0  0  0  0
    3.1378   -0.8597   -2.3802 O   0  0  0  0  0  0  0  0  0  0  0  0
    2.3101    0.3750   -0.6350 N   0  0  0  0  0  0  0  0  0  0  0  0
    0.9945    0.5184   -1.2420 C   0  0  0  0  0  0  0  0  0  0  0  0
    0.0593   -0.5799   -0.7513 C   0  0  0  0  0  0  0  0  0  0  0  0
    0.2225   -1.2140    0.2855 O   0  0  0  0  0  0  0  0  0  0  0  0
   -0.9969   -0.6991   -1.5970 O   0  0  0  0  0  0  0  0  0  0  0  0
   -2.0190   -1.6231   -1.1976 C   0  0  0  0  0  0  0  0  0  0  0  0
   -3.3671   -0.9875   -1.3337 C   0  0  0  0  0  0  0  0  0  0  0  0
   -4.2690   -1.1750   -2.3609 C   0  0  0  0  0  0  0  0  0  0  0  0
   -5.6697   -0.2338   -2.0899 S   0  0  0  0  0  0  0  0  0  0  0  0
   -4.9838    0.3906   -0.6355 C   0  0  0  0  0  0  0  0  0  0  0  0
   -5.6927    1.3701    0.2148 C   0  0  0  0  0  0  0  0  0  0  0  0
   -6.8922    2.0001   -0.1580 C   0  0  0  0  0  0  0  0  0  0  0  0
   -7.5140    2.9255    0.6878 C   0  0  0  0  0  0  0  0  0  0  0  0
   -6.9479    3.2386    1.9206 C   0  0  0  0  0  0  0  0  0  0  0  0
   -5.7597    2.6287    2.3097 C   0  0  0  0  0  0  0  0  0  0  0  0
   -5.1395    1.7051    1.4639 C   0  0  0  0  0  0  0  0  0  0  0  0
   -3.7870   -0.0945   -0.3563 N   0  0  0  0  0  0  0  0  0  0  0  0
    4.9560    0.1875    0.5366 C   0  0  0  0  0  0  0  0  0  0  0  0
    6.1078   -0.1229    1.2657 C   0  0  0  0  0  0  0  0  0  0  0  0
    8.1010   -2.7008    2.0091 H   0  0  0  0  0  0  0  0  0  0  0  0
    8.9387   -1.3593    1.1847 H   0  0  0  0  0  0  0  0  0  0  0  0
    8.0976   -1.0892    2.7254 H   0  0  0  0  0  0  0  0  0  0  0  0
    6.9042   -3.0809   -0.2226 H   0  0  0  0  0  0  0  0  0  0  0  0
    4.8735   -2.5325   -1.5124 H   0  0  0  0  0  0  0  0  0  0  0  0
    2.3335    0.4149    0.3773 H   0  0  0  0  0  0  0  0  0  0  0  0
    0.5886    1.4854   -0.9348 H   0  0  0  0  0  0  0  0  0  0  0  0
    1.0794    0.4768   -2.3328 H   0  0  0  0  0  0  0  0  0  0  0  0
   -1.9003   -1.9792   -0.1676 H   0  0  0  0  0  0  0  0  0  0  0  0
   -1.9480   -2.4954   -1.8588 H   0  0  0  0  0  0  0  0  0  0  0  0
   -4.1738   -1.8023   -3.2364 H   0  0  0  0  0  0  0  0  0  0  0  0
   -7.3666    1.7917   -1.1131 H   0  0  0  0  0  0  0  0  0  0  0  0
   -8.4406    3.4033    0.3805 H   0  0  0  0  0  0  0  0  0  0  0  0
   -7.4315    3.9580    2.5762 H   0  0  0  0  0  0  0  0  0  0  0  0
   -5.3112    2.8705    3.2706 H   0  0  0  0  0  0  0  0  0  0  0  0
   -4.2092    1.2393    1.7873 H   0  0  0  0  0  0  0  0  0  0  0  0
    4.4459    1.1243    0.7397 H   0  0  0  0  0  0  0  0  0  0  0  0
    6.4570    0.5698    2.0281 H   0  0  0  0  0  0  0  0  0  0  0  0
  1  2  1  0
  2  3  2  0
  3  4  1  0
  4  5  2  0
  5  6  1  0
  6  7  2  0
  6  8  1  0
  8  9  1  0
  9 10  1  0
 10 11  2  0
 10 12  1  0
 12 13  1  0
 13 14  1  0
 14 15  2  0
 15 16  1  0
 16 17  1  0
 17 18  1  0
 18 19  2  0
 19 20  1  0
 20 21  2  0
 21 22  1  0
 22 23  2  0
 17 24  2  0
  5 25  1  0
 25 26  2  0
 26  2  1  0
 24 14  1  0
 23 18  1  0
  1 27  1  0
  1 28  1  0
  1 29  1  0
  3 30  1  0
  4 31  1  0
  8 32  1  0
  9 33  1  0
  9 34  1  0
 13 35  1  0
 13 36  1  0
 15 37  1  0
 19 38  1  0
 20 39  1  0
 21 40  1  0
 22 41  1  0
 23 42  1  0
 25 43  1  0
 26 44  1  0
M  END
$$$$
