
     RDKit          3D

 57 61  0  0  0  0  0  0  0  0999 V2000
   -1.6490    0.0039    4.5348 O   0  0  0  0  0  0  0  0  0  0  0  0
   -1.7647   -0.4921    3.4198 C   0  0  0  0  0  0  0  0  0  0  0  0
   -0.9852   -0.0772    2.3467 N   0  0  0  0  0  0  0  0  0  0  0  0
   -1.0635   -0.6154    1.0672 C   0  0  0  0  0  0  0  0  0  0  0  0
   -0.1205   -0.0346    0.0252 C   0  0  0  0  0  0  0  0  0  0  0  0
    1.3441   -0.2679    0.4076 C   0  0  0  0  0  0  0  0  0  0  0  0
    2.2805    0.3522   -0.6254 C   0  0  0  0  0  0  0  0  0  0  0  0
    1.9833    1.8097   -0.7382 N   0  0  0  0  0  0  0  0  0  0  0  0
    3.1340    2.7031   -1.6558 S   0  0  0  0  0  6  0  0  0  0  0  0
    2.7220    4.0906   -1.6522 O   0  0  0  0  0  0  0  0  0  0  0  0
    3.3281    1.9943   -2.8968 O   0  0  0  0  0  0  0  0  0  0  0  0
    4.5976    2.6011   -0.6376 C   0  0  0  0  0  0  0  0  0  0  0  0
    4.5598    3.3464    0.5560 C   0  0  0  0  0  0  0  0  0  0  0  0
    5.6525    3.3578    1.4191 C   0  0  0  0  0  0  0  0  0  0  0  0
    6.7919    2.6317    1.0957 C   0  0  0  0  0  0  0  0  0  0  0  0
    6.8374    1.8949   -0.0899 C   0  0  0  0  0  0  0  0  0  0  0  0
    5.7438    1.8624   -0.9823 C   0  0  0  0  0  0  0  0  0  0  0  0
    5.8649    1.0314   -2.2374 C   0  0  0  0  0  0  0  0  0  0  0  0
    5.8371    1.7657   -3.3774 F   0  0  0  0  0  0  0  0  0  0  0  0
    4.9068    0.0696   -2.3251 F   0  0  0  0  0  0  0  0  0  0  0  0
    7.0457    0.3427   -2.2925 F   0  0  0  0  0  0  0  0  0  0  0  0
    0.5876    2.0359   -1.2197 C   0  0  0  0  0  0  0  0  0  0  0  0
   -0.3917    1.4550   -0.2043 C   0  0  0  0  0  0  0  0  0  0  0  0
   -1.8827   -1.5718    0.7249 N   0  0  0  0  0  0  0  0  0  0  0  0
   -2.6671   -1.9850    1.7513 C   0  0  0  0  0  0  0  0  0  0  0  0
   -2.6773   -1.5390    3.0510 C   0  0  0  0  0  0  0  0  0  0  0  0
   -3.6000   -2.2172    3.7852 N   0  0  0  0  0  0  0  0  0  0  0  0
   -4.1894   -3.0916    2.9694 N   0  0  0  0  0  0  0  0  0  0  0  0
   -3.6459   -2.9374    1.7356 N   0  0  0  0  0  0  0  0  0  0  0  0
   -4.0732   -3.7636    0.6263 C   0  0  0  0  0  0  0  0  0  0  0  0
   -5.1103   -3.0645   -0.2163 C   0  0  0  0  0  0  0  0  0  0  0  0
   -6.4574   -3.0554    0.1751 C   0  0  0  0  0  0  0  0  0  0  0  0
   -7.4147   -2.3985   -0.5991 C   0  0  0  0  0  0  0  0  0  0  0  0
   -7.0362   -1.7413   -1.7681 C   0  0  0  0  0  0  0  0  0  0  0  0
   -5.6997   -1.7359   -2.1626 C   0  0  0  0  0  0  0  0  0  0  0  0
   -4.7399   -2.3913   -1.3900 C   0  0  0  0  0  0  0  0  0  0  0  0
   -0.3351    0.6628    2.5666 H   0  0  0  0  0  0  0  0  0  0  0  0
   -0.3140   -0.5644   -0.9184 H   0  0  0  0  0  0  0  0  0  0  0  0
    1.5594    0.1657    1.3923 H   0  0  0  0  0  0  0  0  0  0  0  0
    1.5429   -1.3432    0.4896 H   0  0  0  0  0  0  0  0  0  0  0  0
    3.3078    0.1971   -0.2850 H   0  0  0  0  0  0  0  0  0  0  0  0
    2.1580   -0.1395   -1.5972 H   0  0  0  0  0  0  0  0  0  0  0  0
    3.6751    3.9284    0.8135 H   0  0  0  0  0  0  0  0  0  0  0  0
    5.6169    3.9391    2.3376 H   0  0  0  0  0  0  0  0  0  0  0  0
    7.6509    2.6413    1.7635 H   0  0  0  0  0  0  0  0  0  0  0  0
    7.7480    1.3386   -0.3169 H   0  0  0  0  0  0  0  0  0  0  0  0
    0.4461    1.5716   -2.2027 H   0  0  0  0  0  0  0  0  0  0  0  0
    0.3866    3.1082   -1.3116 H   0  0  0  0  0  0  0  0  0  0  0  0
   -0.3035    2.0124    0.7367 H   0  0  0  0  0  0  0  0  0  0  0  0
   -1.4201    1.5984   -0.5569 H   0  0  0  0  0  0  0  0  0  0  0  0
   -3.1869   -4.0198    0.0345 H   0  0  0  0  0  0  0  0  0  0  0  0
   -4.4702   -4.7031    1.0287 H   0  0  0  0  0  0  0  0  0  0  0  0
   -6.7681   -3.5537    1.0922 H   0  0  0  0  0  0  0  0  0  0  0  0
   -8.4558   -2.3954   -0.2864 H   0  0  0  0  0  0  0  0  0  0  0  0
   -7.7829   -1.2285   -2.3688 H   0  0  0  0  0  0  0  0  0  0  0  0
   -5.4045   -1.2172   -3.0711 H   0  0  0  0  0  0  0  0  0  0  0  0
   -3.6988   -2.3673   -1.7065 H   0  0  0  0  0  0  0  0  0  0  0  0
  1  2  2  0
  2  3  1  0
  3  4  1  0
  4  5  1  0
  5  6  1  0
  6  7  1  0
  7  8  1  0
  8  9  1  0
  9 10  2  0
  9 11  2  0
  9 12  1  0
 12 13  2  0
 13 14  1  0
 14 15  2  0
 15 16  1  0
 16 17  2  0
 17 18  1  0
 18 19  1  0
 18 20  1  0
 18 21  1  0
  8 22  1  0
 22 23  1  0
  4 24  2  0
 24 25  1  0
 25 26  2  0
 26 27  1  0
 27 28  2  0
 28 29  1  0
 29 30  1  0
 30 31  1  0
 31 32  2  0
 32 33  1  0
 33 34  2  0
 34 35  1  0
 35 36  2  0
 26  2  1  0
 36 31  1  0
 23  5  1  0
 29 25  1  0
 17 12  1  0
  3 37  1  0
  5 38  1  0
  6 39  1  0
  6 40  1  0
  7 41  1  0
  7 42  1  0
 13 43  1  0
 14 44  1  0
 15 45  1  0
 16 46  1  0
 22 47  1  0
 22 48  1  0
 23 49  1  0
 23 50  1  0
 30 51  1  0
 30 52  1  0
 32 53  1  0
 33 54  1  0
 34 55  1  0
 35 56  1  0
 36 57  1  0
M  END
$$$$
