
     RDKit          3D

 57 59  0  0  0  0  0  0  0  0999 V2000
   -5.2347   -1.2382   -0.0218 C   0  0  0  0  0  0  0  0  0  0  0  0
   -4.3196   -1.0875   -1.2349 C   0  0  0  0  0  0  0  0  0  0  0  0
   -2.9063   -1.3144   -0.8818 N   0  0  0  0  0  0  0  0  0  0  0  0
   -2.6145   -2.7584   -0.7799 C   0  0  0  0  0  0  0  0  0  0  0  0
   -1.4084   -3.0228    0.1163 C   0  0  0  0  0  0  0  0  0  0  0  0
   -2.0037   -0.6689   -1.8651 C   0  0  0  0  0  0  0  0  0  0  0  0
   -1.8456    0.8489   -1.6530 C   0  0  0  0  0  0  0  0  0  0  0  0
   -1.1179    1.0865   -0.4430 O   0  0  0  0  0  0  0  0  0  0  0  0
   -0.9031    2.3852   -0.0575 C   0  0  0  0  0  0  0  0  0  0  0  0
   -1.2676    3.4978   -0.7377 C   0  0  0  0  0  0  0  0  0  0  0  0
   -1.0229    4.8368   -0.0980 C   0  0  2  0  0  0  0  0  0  0  0  0
   -0.9566    5.9262   -1.0068 O   0  0  0  0  0  0  0  0  0  0  0  0
   -0.3936    6.9683   -0.3000 C   0  0  0  0  0  0  0  0  0  0  0  0
   -0.3765    8.1208   -0.7019 O   0  0  0  0  0  0  0  0  0  0  0  0
    0.3675    6.4870    1.2348 S   0  0  0  0  0  0  0  0  0  0  0  0
    0.3125    4.8046    0.6513 C   0  0  1  0  0  0  0  0  0  0  0  0
    0.3322    3.6886    1.6335 C   0  0  0  0  0  0  0  0  0  0  0  0
   -0.2426    2.5224    1.2534 C   0  0  0  0  0  0  0  0  0  0  0  0
   -0.2145    1.4176    2.2505 C   0  0  0  0  0  0  0  0  0  0  0  0
   -0.8845    1.4851    3.2794 O   0  0  0  0  0  0  0  0  0  0  0  0
    0.6877    0.2534    2.0278 C   0  0  0  0  0  0  0  0  0  0  0  0
    1.6236    0.1650    1.0691 C   0  0  0  0  0  0  0  0  0  0  0  0
    2.5282   -0.9831    0.8933 C   0  0  0  0  0  0  0  0  0  0  0  0
    2.1752   -2.2895    1.2467 C   0  0  0  0  0  0  0  0  0  0  0  0
    3.0591   -3.3509    1.0253 C   0  0  0  0  0  0  0  0  0  0  0  0
    4.3110   -3.1295    0.4498 C   0  0  0  0  0  0  0  0  0  0  0  0
    5.0774   -4.2495    0.2944 O   0  0  0  0  0  0  0  0  0  0  0  0
    6.4097   -4.0584   -0.1654 C   0  0  0  0  0  0  0  0  0  0  0  0
    4.6674   -1.8339    0.0821 C   0  0  0  0  0  0  0  0  0  0  0  0
    3.7799   -0.7712    0.2984 C   0  0  0  0  0  0  0  0  0  0  0  0
   -6.2721   -1.0361   -0.3075 H   0  0  0  0  0  0  0  0  0  0  0  0
   -4.9618   -0.5281    0.7661 H   0  0  0  0  0  0  0  0  0  0  0  0
   -5.2034   -2.2461    0.4020 H   0  0  0  0  0  0  0  0  0  0  0  0
   -4.4693   -0.0660   -1.6099 H   0  0  0  0  0  0  0  0  0  0  0  0
   -4.6377   -1.7621   -2.0411 H   0  0  0  0  0  0  0  0  0  0  0  0
   -2.4575   -3.2034   -1.7731 H   0  0  0  0  0  0  0  0  0  0  0  0
   -3.4563   -3.3003   -0.3303 H   0  0  0  0  0  0  0  0  0  0  0  0
   -0.4896   -2.5921   -0.2935 H   0  0  0  0  0  0  0  0  0  0  0  0
   -1.2508   -4.1052    0.2237 H   0  0  0  0  0  0  0  0  0  0  0  0
   -1.5667   -2.6049    1.1183 H   0  0  0  0  0  0  0  0  0  0  0  0
   -2.3569   -0.8648   -2.8856 H   0  0  0  0  0  0  0  0  0  0  0  0
   -0.9967   -1.0968   -1.7916 H   0  0  0  0  0  0  0  0  0  0  0  0
   -2.8209    1.3467   -1.6160 H   0  0  0  0  0  0  0  0  0  0  0  0
   -1.2727    1.2528   -2.4978 H   0  0  0  0  0  0  0  0  0  0  0  0
   -1.7937    3.4743   -1.6853 H   0  0  0  0  0  0  0  0  0  0  0  0
   -1.8862    5.0168    0.5654 H   0  0  0  0  0  0  0  0  0  0  0  0
    1.1621    4.6874   -0.0379 H   0  0  0  0  0  0  0  0  0  0  0  0
    0.8101    3.8068    2.6017 H   0  0  0  0  0  0  0  0  0  0  0  0
    0.5469   -0.5318    2.7637 H   0  0  0  0  0  0  0  0  0  0  0  0
    1.7729    0.9770    0.3630 H   0  0  0  0  0  0  0  0  0  0  0  0
    1.2061   -2.5089    1.6880 H   0  0  0  0  0  0  0  0  0  0  0  0
    2.7651   -4.3602    1.3051 H   0  0  0  0  0  0  0  0  0  0  0  0
    6.9718   -3.4023    0.5098 H   0  0  0  0  0  0  0  0  0  0  0  0
    6.4204   -3.6745   -1.1909 H   0  0  0  0  0  0  0  0  0  0  0  0
    6.9063   -5.0335   -0.1707 H   0  0  0  0  0  0  0  0  0  0  0  0
    5.6244   -1.6130   -0.3804 H   0  0  0  0  0  0  0  0  0  0  0  0
    4.0872    0.2303    0.0013 H   0  0  0  0  0  0  0  0  0  0  0  0
  1  2  1  0
  2  3  1  0
  3  4  1  0
  4  5  1  0
  3  6  1  0
  6  7  1  0
  7  8  1  0
  8  9  1  0
  9 10  2  0
 10 11  1  0
 11 12  1  0
 12 13  1  0
 13 14  2  0
 13 15  1  0
 15 16  1  0
 16 17  1  0
 17 18  2  0
 18 19  1  0
 19 20  2  0
 19 21  1  0
 21 22  2  0
 22 23  1  0
 23 24  2  0
 24 25  1  0
 25 26  2  0
 26 27  1  0
 27 28  1  0
 26 29  1  0
 29 30  2  0
 18  9  1  0
 30 23  1  0
 16 11  1  0
  1 31  1  0
  1 32  1  0
  1 33  1  0
  2 34  1  0
  2 35  1  0
  4 36  1  0
  4 37  1  0
  5 38  1  0
  5 39  1  0
  5 40  1  0
  6 41  1  0
  6 42  1  0
  7 43  1  0
  7 44  1  0
 10 45  1  0
 11 46  1  1
 16 47  1  6
 17 48  1  0
 21 49  1  0
 22 50  1  0
 24 51  1  0
 25 52  1  0
 28 53  1  0
 28 54  1  0
 28 55  1  0
 29 56  1  0
 30 57  1  0
M  END
$$$$
