
     RDKit          3D

 67 69  0  0  0  0  0  0  0  0999 V2000
    8.9363    0.2082   -0.9887 C   0  0  0  0  0  0  0  0  0  0  0  0
    7.5412   -0.3887   -0.8710 C   0  0  0  0  0  0  0  0  0  0  0  0
    6.6045    0.6892   -0.8544 O   0  0  0  0  0  0  0  0  0  0  0  0
    5.3292    0.3695   -1.2457 C   0  0  0  0  0  0  0  0  0  0  0  0
    4.6610    1.3842   -1.9352 C   0  0  0  0  0  0  0  0  0  0  0  0
    3.3514    1.1945   -2.3880 C   0  0  0  0  0  0  0  0  0  0  0  0
    2.6742   -0.0137   -2.1564 C   0  0  0  0  0  0  0  0  0  0  0  0
    1.2843   -0.1911   -2.7354 C   0  0  0  0  0  0  0  0  0  0  0  0
    0.3614   -1.2413   -2.1074 C   0  0  0  0  0  0  0  0  0  0  0  0
   -0.1877   -0.8185   -0.8316 N   0  0  0  0  0  0  0  0  0  0  0  0
    0.1192   -1.4290    0.3674 C   0  0  0  0  0  0  0  0  0  0  0  0
    0.9967   -2.2800    0.5041 O   0  0  0  0  0  0  0  0  0  0  0  0
   -0.7263   -0.9320    1.5377 C   0  0  0  0  0  0  0  0  0  0  0  0
   -2.0522   -0.6949    1.0499 O   0  0  0  0  0  0  0  0  0  0  0  0
   -2.9733   -0.5126    2.0204 C   0  0  0  0  0  0  0  0  0  0  0  0
   -2.8021   -0.4784    3.2247 O   0  0  0  0  0  0  0  0  0  0  0  0
   -4.2914   -0.4695    1.3757 C   0  0  0  0  0  0  0  0  0  0  0  0
   -5.0552   -1.6442    1.4249 C   0  0  0  0  0  0  0  0  0  0  0  0
   -6.3127   -1.6546    0.8213 C   0  0  0  0  0  0  0  0  0  0  0  0
   -7.1227   -2.8771    0.8355 N   0  0  0  0  0  4  0  0  0  0  0  0
   -6.5907   -3.9103    1.2579 O   0  0  0  0  0  0  0  0  0  0  0  0
   -8.2859   -2.7995    0.4190 O   0  0  0  0  0  1  0  0  0  0  0  0
   -6.7986   -0.5058    0.1844 C   0  0  0  0  0  0  0  0  0  0  0  0
   -6.0228    0.6610    0.1517 C   0  0  0  0  0  0  0  0  0  0  0  0
   -4.7455    0.7053    0.7352 C   0  0  0  0  0  0  0  0  0  0  0  0
   -3.9741    1.8754    0.7574 N   0  0  0  0  0  0  0  0  0  0  0  0
   -3.8762    2.6786   -0.4861 C   0  0  0  0  0  0  0  0  0  0  0  0
   -3.3379    4.0854   -0.1702 C   0  0  0  0  0  0  0  0  0  0  0  0
   -4.1960    4.8286    0.7158 O   0  0  0  0  0  0  0  0  0  0  0  0
   -4.9164    3.9957    1.6410 C   0  0  0  0  0  0  0  0  0  0  0  0
   -4.1822    2.6897    1.9864 C   0  0  0  0  0  0  0  0  0  0  0  0
    3.3487   -1.0248   -1.4636 C   0  0  0  0  0  0  0  0  0  0  0  0
    4.6474   -0.8227   -0.9709 C   0  0  0  0  0  0  0  0  0  0  0  0
    5.2441   -1.8338   -0.2604 O   0  0  0  0  0  0  0  0  0  0  0  0
    4.5995   -2.0637    1.0009 C   0  0  0  0  0  0  0  0  0  0  0  0
    4.3247   -3.5520    1.1295 C   0  0  0  0  0  0  0  0  0  0  0  0
    9.0121    0.8508   -1.8698 H   0  0  0  0  0  0  0  0  0  0  0  0
    9.6917   -0.5831   -1.0647 H   0  0  0  0  0  0  0  0  0  0  0  0
    9.1638    0.8303   -0.1144 H   0  0  0  0  0  0  0  0  0  0  0  0
    7.3711   -1.0605   -1.7225 H   0  0  0  0  0  0  0  0  0  0  0  0
    7.4793   -0.9490    0.0672 H   0  0  0  0  0  0  0  0  0  0  0  0
    5.1705    2.3273   -2.1295 H   0  0  0  0  0  0  0  0  0  0  0  0
    2.8647    2.0021   -2.9278 H   0  0  0  0  0  0  0  0  0  0  0  0
    1.4133   -0.4370   -3.7998 H   0  0  0  0  0  0  0  0  0  0  0  0
    0.7684    0.7772   -2.6928 H   0  0  0  0  0  0  0  0  0  0  0  0
    0.8478   -2.2172   -2.0112 H   0  0  0  0  0  0  0  0  0  0  0  0
   -0.5041   -1.3819   -2.7682 H   0  0  0  0  0  0  0  0  0  0  0  0
   -1.0136   -0.2324   -0.8284 H   0  0  0  0  0  0  0  0  0  0  0  0
   -0.7361   -1.7102    2.3084 H   0  0  0  0  0  0  0  0  0  0  0  0
   -0.2895   -0.0043    1.9207 H   0  0  0  0  0  0  0  0  0  0  0  0
   -4.6610   -2.5260    1.9258 H   0  0  0  0  0  0  0  0  0  0  0  0
   -7.7844   -0.4941   -0.2773 H   0  0  0  0  0  0  0  0  0  0  0  0
   -6.4513    1.5443   -0.3164 H   0  0  0  0  0  0  0  0  0  0  0  0
   -3.1981    2.1717   -1.1821 H   0  0  0  0  0  0  0  0  0  0  0  0
   -4.8519    2.7909   -0.9746 H   0  0  0  0  0  0  0  0  0  0  0  0
   -2.3436    4.0289    0.2938 H   0  0  0  0  0  0  0  0  0  0  0  0
   -3.2313    4.6612   -1.0953 H   0  0  0  0  0  0  0  0  0  0  0  0
   -5.8911    3.7783    1.1878 H   0  0  0  0  0  0  0  0  0  0  0  0
   -5.1011    4.5792    2.5453 H   0  0  0  0  0  0  0  0  0  0  0  0
   -4.7368    2.1418    2.7583 H   0  0  0  0  0  0  0  0  0  0  0  0
   -3.1907    2.9249    2.3937 H   0  0  0  0  0  0  0  0  0  0  0  0
    2.8859   -1.9920   -1.2927 H   0  0  0  0  0  0  0  0  0  0  0  0
    5.2964   -1.7535    1.7891 H   0  0  0  0  0  0  0  0  0  0  0  0
    3.6721   -1.4923    1.1389 H   0  0  0  0  0  0  0  0  0  0  0  0
    5.2515   -4.1216    1.0173 H   0  0  0  0  0  0  0  0  0  0  0  0
    3.8747   -3.7931    2.0973 H   0  0  0  0  0  0  0  0  0  0  0  0
    3.6470   -3.8880    0.3377 H   0  0  0  0  0  0  0  0  0  0  0  0
  1  2  1  0
  2  3  1  0
  3  4  1  0
  4  5  2  0
  5  6  1  0
  6  7  2  0
  7  8  1  0
  8  9  1  0
  9 10  1  0
 10 11  1  0
 11 12  2  0
 11 13  1  0
 13 14  1  0
 14 15  1  0
 15 16  2  0
 15 17  1  0
 17 18  2  0
 18 19  1  0
 19 20  1  0
 20 21  2  0
 20 22  1  0
 19 23  2  0
 23 24  1  0
 24 25  2  0
 25 26  1  0
 26 27  1  0
 27 28  1  0
 28 29  1  0
 29 30  1  0
 30 31  1  0
  7 32  1  0
 32 33  2  0
 33 34  1  0
 34 35  1  0
 35 36  1  0
 33  4  1  0
 25 17  1  0
 31 26  1  0
  1 37  1  0
  1 38  1  0
  1 39  1  0
  2 40  1  0
  2 41  1  0
  5 42  1  0
  6 43  1  0
  8 44  1  0
  8 45  1  0
  9 46  1  0
  9 47  1  0
 10 48  1  0
 13 49  1  0
 13 50  1  0
 18 51  1  0
 23 52  1  0
 24 53  1  0
 27 54  1  0
 27 55  1  0
 28 56  1  0
 28 57  1  0
 30 58  1  0
 30 59  1  0
 31 60  1  0
 31 61  1  0
 32 62  1  0
 35 63  1  0
 35 64  1  0
 36 65  1  0
 36 66  1  0
 36 67  1  0
M  CHG  2  20   1  22  -1
M  END
$$$$
