
     RDKit          3D

 32 33  0  0  0  0  0  0  0  0999 V2000
   -5.2731   -0.4193    0.1409 C   0  0  0  0  0  0  0  0  0  0  0  0
   -4.3669    0.1316   -0.9491 C   0  0  0  0  0  0  0  0  0  0  0  0
   -2.9559    0.4615   -0.4596 C   0  0  0  0  0  0  0  0  0  0  0  0
   -2.1699   -0.7722   -0.0056 C   0  0  0  0  0  0  0  0  0  0  0  0
   -0.7894   -0.4347    0.3416 N   0  0  0  0  0  0  0  0  0  0  0  0
   -0.4789    0.0525    1.5722 C   0  0  0  0  0  0  0  0  0  0  0  0
   -1.2037    0.2513    2.5254 O   0  0  0  0  0  0  0  0  0  0  0  0
    1.0164    0.3475    1.5404 C   0  0  0  0  0  0  0  0  0  0  0  0
    1.6177    0.7630    2.5121 O   0  0  0  0  0  0  0  0  0  0  0  0
    1.4350    0.0117    0.2762 N   0  0  0  0  0  0  0  0  0  0  0  0
    2.8039    0.1145   -0.1201 C   0  0  0  0  0  0  0  0  0  0  0  0
    3.6301    1.1111    0.4278 C   0  0  0  0  0  0  0  0  0  0  0  0
    4.9757    1.2266    0.0615 C   0  0  0  0  0  0  0  0  0  0  0  0
    5.5280    0.3385   -0.8533 C   0  0  0  0  0  0  0  0  0  0  0  0
    4.7368   -0.6690   -1.3929 C   0  0  0  0  0  0  0  0  0  0  0  0
    3.3905   -0.7821   -1.0249 C   0  0  0  0  0  0  0  0  0  0  0  0
    0.3329   -0.4177   -0.4759 C   0  0  0  0  0  0  0  0  0  0  0  0
    0.2723   -0.7793   -2.1148 S   0  0  0  0  0  0  0  0  0  0  0  0
   -5.3167    0.2612    0.9971 H   0  0  0  0  0  0  0  0  0  0  0  0
   -6.2902   -0.5447   -0.2444 H   0  0  0  0  0  0  0  0  0  0  0  0
   -4.9298   -1.3968    0.4920 H   0  0  0  0  0  0  0  0  0  0  0  0
   -4.3163   -0.5840   -1.7780 H   0  0  0  0  0  0  0  0  0  0  0  0
   -4.8190    1.0473   -1.3483 H   0  0  0  0  0  0  0  0  0  0  0  0
   -3.0103    1.1896    0.3593 H   0  0  0  0  0  0  0  0  0  0  0  0
   -2.4173    0.9604   -1.2743 H   0  0  0  0  0  0  0  0  0  0  0  0
   -2.6397   -1.2055    0.8845 H   0  0  0  0  0  0  0  0  0  0  0  0
   -2.1750   -1.5393   -0.7861 H   0  0  0  0  0  0  0  0  0  0  0  0
    3.2430    1.8415    1.1354 H   0  0  0  0  0  0  0  0  0  0  0  0
    5.5882    2.0137    0.4950 H   0  0  0  0  0  0  0  0  0  0  0  0
    6.5736    0.4252   -1.1373 H   0  0  0  0  0  0  0  0  0  0  0  0
    5.1672   -1.3800   -2.0943 H   0  0  0  0  0  0  0  0  0  0  0  0
    2.8405   -1.6243   -1.4330 H   0  0  0  0  0  0  0  0  0  0  0  0
  1  2  1  0
  2  3  1  0
  3  4  1  0
  4  5  1  0
  5  6  1  0
  6  7  2  0
  6  8  1  0
  8  9  2  0
  8 10  1  0
 10 11  1  0
 11 12  2  0
 12 13  1  0
 13 14  2  0
 14 15  1  0
 15 16  2  0
 10 17  1  0
 17 18  2  0
 17  5  1  0
 16 11  1  0
  1 19  1  0
  1 20  1  0
  1 21  1  0
  2 22  1  0
  2 23  1  0
  3 24  1  0
  3 25  1  0
  4 26  1  0
  4 27  1  0
 12 28  1  0
 13 29  1  0
 14 30  1  0
 15 31  1  0
 16 32  1  0
M  END
$$$$
