
     RDKit          3D

 52 57  0  0  0  0  0  0  0  0999 V2000
    4.9696   -2.5475   -0.2265 C   0  0  0  0  0  0  0  0  0  0  0  0
    3.8584   -1.8710    0.5190 C   0  0  0  0  0  0  0  0  0  0  0  0
    3.6523   -2.0926    1.8948 C   0  0  0  0  0  0  0  0  0  0  0  0
    4.6707   -3.1671    2.7911 Cl  0  0  0  0  0  0  0  0  0  0  0  0
    2.6153   -1.4502    2.6005 C   0  0  0  0  0  0  0  0  0  0  0  0
    1.7522   -0.5653    1.9547 C   0  0  0  0  0  0  0  0  0  0  0  0
    1.9431   -0.3435    0.6011 C   0  0  0  0  0  0  0  0  0  0  0  0
    2.9832   -0.9816   -0.0921 C   0  0  0  0  0  0  0  0  0  0  0  0
    2.9748   -0.5722   -1.4250 N   0  0  0  0  0  0  0  0  0  0  0  0
    1.9590    0.3533   -1.6814 C   0  0  0  0  0  0  0  0  0  0  0  0
    1.7653    0.8894   -2.7619 O   0  0  0  0  0  0  0  0  0  0  0  0
    1.1927    0.5426   -0.3494 C   0  0  1  0  0  0  0  0  0  0  0  0
   -0.2291    0.1017   -0.4144 C   0  0  0  0  0  0  0  0  0  0  0  0
   -1.0652    1.2309   -0.4509 C   0  0  0  0  0  0  0  0  0  0  0  0
   -2.3631    0.8248   -0.5560 C   0  0  0  0  0  0  0  0  0  0  0  0
   -3.4403    1.5772   -0.7752 O   0  0  0  0  0  0  0  0  0  0  0  0
   -2.3620   -0.5838   -0.4683 N   0  0  0  0  0  0  0  0  0  0  0  0
   -3.5243   -1.4158   -0.3855 C   0  0  0  0  0  0  0  0  0  0  0  0
   -3.5225   -2.7055   -0.9307 C   0  0  0  0  0  0  0  0  0  0  0  0
   -4.6657   -3.5055   -0.8504 C   0  0  0  0  0  0  0  0  0  0  0  0
   -5.8122   -3.0299   -0.2176 C   0  0  0  0  0  0  0  0  0  0  0  0
   -5.8177   -1.7547    0.3426 C   0  0  0  0  0  0  0  0  0  0  0  0
   -4.6789   -0.9494    0.2628 C   0  0  0  0  0  0  0  0  0  0  0  0
   -1.0189   -1.0203   -0.4505 C   0  0  0  0  0  0  0  0  0  0  0  0
   -0.6838   -2.3075   -0.3957 O   0  0  0  0  0  0  0  0  0  0  0  0
   -0.2573    2.4644   -0.4888 C   0  0  1  0  0  0  0  0  0  0  0  0
   -0.6965    3.6849    0.3262 C   0  0  0  0  0  0  0  0  0  0  0  0
    0.3309    4.7642    0.2702 N   0  0  0  0  0  0  0  0  0  0  0  0
    1.6564    4.2280    0.6665 C   0  0  0  0  0  0  0  0  0  0  0  0
    2.0877    2.9157   -0.0529 C   0  0  0  0  0  0  0  0  0  0  0  0
    1.0221    1.9426    0.0812 N   0  0  0  0  0  0  0  0  0  0  0  0
    4.8822   -3.6354   -0.1377 H   0  0  0  0  0  0  0  0  0  0  0  0
    5.9397   -2.2265    0.1667 H   0  0  0  0  0  0  0  0  0  0  0  0
    4.9584   -2.3160   -1.2950 H   0  0  0  0  0  0  0  0  0  0  0  0
    2.4824   -1.6387    3.6643 H   0  0  0  0  0  0  0  0  0  0  0  0
    0.9553   -0.0631    2.4968 H   0  0  0  0  0  0  0  0  0  0  0  0
    3.6255   -0.8564   -2.1421 H   0  0  0  0  0  0  0  0  0  0  0  0
   -4.1326    1.0184   -1.1731 H   0  0  0  0  0  0  0  0  0  0  0  0
   -2.6553   -3.1008   -1.4527 H   0  0  0  0  0  0  0  0  0  0  0  0
   -4.6585   -4.5022   -1.2848 H   0  0  0  0  0  0  0  0  0  0  0  0
   -6.6973   -3.6575   -0.1525 H   0  0  0  0  0  0  0  0  0  0  0  0
   -6.7043   -1.3919    0.8568 H   0  0  0  0  0  0  0  0  0  0  0  0
   -4.6991    0.0175    0.7618 H   0  0  0  0  0  0  0  0  0  0  0  0
    0.2773   -2.3652   -0.2547 H   0  0  0  0  0  0  0  0  0  0  0  0
   -0.1152    2.7532   -1.5407 H   0  0  0  0  0  0  0  0  0  0  0  0
   -1.6401    4.0809   -0.0662 H   0  0  0  0  0  0  0  0  0  0  0  0
   -0.8828    3.4178    1.3744 H   0  0  0  0  0  0  0  0  0  0  0  0
    0.3972    5.0729   -0.7004 H   0  0  0  0  0  0  0  0  0  0  0  0
    1.6446    4.0563    1.7505 H   0  0  0  0  0  0  0  0  0  0  0  0
    2.4114    5.0005    0.4825 H   0  0  0  0  0  0  0  0  0  0  0  0
    3.0084    2.5492    0.4142 H   0  0  0  0  0  0  0  0  0  0  0  0
    2.3067    3.1308   -1.1055 H   0  0  0  0  0  0  0  0  0  0  0  0
  1  2  1  0
  2  3  2  0
  3  4  1  0
  3  5  1  0
  5  6  2  0
  6  7  1  0
  7  8  2  0
  8  9  1  0
  9 10  1  0
 10 11  2  0
 10 12  1  0
 12 13  1  0
 13 14  1  0
 14 15  2  0
 15 16  1  0
 15 17  1  0
 17 18  1  0
 18 19  2  0
 19 20  1  0
 20 21  2  0
 21 22  1  0
 22 23  2  0
 17 24  1  0
 24 25  1  0
 14 26  1  0
 26 27  1  0
 27 28  1  0
 28 29  1  0
 29 30  1  0
 30 31  1  0
  8  2  1  0
 12 31  1  1
 12  7  1  0
 24 13  2  0
 31 26  1  0
 23 18  1  0
  1 32  1  0
  1 33  1  0
  1 34  1  0
  5 35  1  0
  6 36  1  0
  9 37  1  0
 16 38  1  0
 19 39  1  0
 20 40  1  0
 21 41  1  0
 22 42  1  0
 23 43  1  0
 25 44  1  0
 26 45  1  6
 27 46  1  0
 27 47  1  0
 28 48  1  0
 29 49  1  0
 29 50  1  0
 30 51  1  0
 30 52  1  0
M  END
$$$$
