
     RDKit          3D

 61 66  0  0  0  0  0  0  0  0999 V2000
   -7.9081    0.9667   -3.5647 F   0  0  0  0  0  0  0  0  0  0  0  0
   -7.4121    1.2675   -2.3587 C   0  0  0  0  0  0  0  0  0  0  0  0
   -8.1860    1.9938   -1.4616 C   0  0  0  0  0  0  0  0  0  0  0  0
   -7.6641    2.3166   -0.2103 C   0  0  0  0  0  0  0  0  0  0  0  0
   -6.3707    1.9132    0.1312 C   0  0  0  0  0  0  0  0  0  0  0  0
   -5.5879    1.1836   -0.7757 C   0  0  0  0  0  0  0  0  0  0  0  0
   -4.1982    0.7312   -0.3969 C   0  0  0  0  0  0  0  0  0  0  0  0
   -4.2223   -0.6302    0.3227 C   0  0  0  0  0  0  0  0  0  0  0  0
   -2.9311   -1.1999    0.7328 N   0  0  0  0  0  0  0  0  0  0  0  0
   -2.0334   -1.4946   -0.4026 C   0  0  0  0  0  0  0  0  0  0  0  0
   -0.7344   -2.2004    0.0523 C   0  0  0  0  0  0  0  0  0  0  0  0
   -0.0170   -1.4250    1.0916 N   0  0  0  0  0  0  0  0  0  0  0  0
    0.9169   -0.5247    0.6569 C   0  0  0  0  0  0  0  0  0  0  0  0
    0.7355    0.7561    0.1687 C   0  0  0  0  0  0  0  0  0  0  0  0
    1.9992    1.2724   -0.1864 C   0  0  0  0  0  0  0  0  0  0  0  0
    2.9414    0.2950    0.0783 C   0  0  0  0  0  0  0  0  0  0  0  0
    4.3807    0.2707   -0.0885 C   0  0  0  0  0  0  0  0  0  0  0  0
    5.0864    1.3976   -0.7500 C   0  0  0  0  0  0  0  0  0  0  0  0
    6.2155    1.9464   -0.1268 C   0  0  0  0  0  0  0  0  0  0  0  0
    6.8989    3.0015   -0.7324 C   0  0  0  0  0  0  0  0  0  0  0  0
    6.4657    3.4971   -1.9649 C   0  0  0  0  0  0  0  0  0  0  0  0
    5.3553    2.9330   -2.6002 C   0  0  0  0  0  0  0  0  0  0  0  0
    4.6669    1.8789   -1.9969 C   0  0  0  0  0  0  0  0  0  0  0  0
    5.0886   -0.7293    0.3485 N   0  0  0  0  0  0  0  0  0  0  0  0
    4.4365   -1.8194    0.9559 C   0  0  0  0  0  0  0  0  0  0  0  0
    5.2357   -2.8736    1.4137 C   0  0  0  0  0  0  0  0  0  0  0  0
    4.6644   -3.9891    2.0270 C   0  0  0  0  0  0  0  0  0  0  0  0
    3.2815   -4.0585    2.1882 C   0  0  0  0  0  0  0  0  0  0  0  0
    2.4665   -3.0157    1.7371 C   0  0  0  0  0  0  0  0  0  0  0  0
    3.0402   -1.8999    1.1190 C   0  0  0  0  0  0  0  0  0  0  0  0
    2.2898   -0.7898    0.6476 N   0  0  0  0  0  0  0  0  0  0  0  0
   -0.8994   -1.0340    2.2144 C   0  0  0  0  0  0  0  0  0  0  0  0
   -2.2252   -0.3875    1.7421 C   0  0  0  0  0  0  0  0  0  0  0  0
   -6.1246    0.8577   -2.0286 C   0  0  0  0  0  0  0  0  0  0  0  0
   -9.1868    2.3035   -1.7419 H   0  0  0  0  0  0  0  0  0  0  0  0
   -8.2611    2.8849    0.4979 H   0  0  0  0  0  0  0  0  0  0  0  0
   -5.9759    2.1749    1.1117 H   0  0  0  0  0  0  0  0  0  0  0  0
   -3.7411    1.4993    0.2369 H   0  0  0  0  0  0  0  0  0  0  0  0
   -3.5863    0.6815   -1.3050 H   0  0  0  0  0  0  0  0  0  0  0  0
   -4.8580   -0.5536    1.2157 H   0  0  0  0  0  0  0  0  0  0  0  0
   -4.7305   -1.3656   -0.3168 H   0  0  0  0  0  0  0  0  0  0  0  0
   -1.7671   -0.5760   -0.9380 H   0  0  0  0  0  0  0  0  0  0  0  0
   -2.5467   -2.1505   -1.1157 H   0  0  0  0  0  0  0  0  0  0  0  0
   -0.0857   -2.3869   -0.8143 H   0  0  0  0  0  0  0  0  0  0  0  0
   -0.9851   -3.1841    0.4714 H   0  0  0  0  0  0  0  0  0  0  0  0
   -0.2124    1.2669    0.0627 H   0  0  0  0  0  0  0  0  0  0  0  0
    2.1917    2.2565   -0.5950 H   0  0  0  0  0  0  0  0  0  0  0  0
    6.5601    1.5536    0.8288 H   0  0  0  0  0  0  0  0  0  0  0  0
    7.7725    3.4326   -0.2460 H   0  0  0  0  0  0  0  0  0  0  0  0
    7.0011    4.3173   -2.4362 H   0  0  0  0  0  0  0  0  0  0  0  0
    5.0324    3.3082   -3.5697 H   0  0  0  0  0  0  0  0  0  0  0  0
    3.8199    1.4275   -2.5114 H   0  0  0  0  0  0  0  0  0  0  0  0
    6.3152   -2.8181    1.2884 H   0  0  0  0  0  0  0  0  0  0  0  0
    5.2987   -4.7998    2.3784 H   0  0  0  0  0  0  0  0  0  0  0  0
    2.8320   -4.9241    2.6686 H   0  0  0  0  0  0  0  0  0  0  0  0
    1.3963   -3.1038    1.8911 H   0  0  0  0  0  0  0  0  0  0  0  0
   -1.1300   -1.9408    2.7900 H   0  0  0  0  0  0  0  0  0  0  0  0
   -0.3763   -0.3568    2.9028 H   0  0  0  0  0  0  0  0  0  0  0  0
   -2.8688   -0.2580    2.6208 H   0  0  0  0  0  0  0  0  0  0  0  0
   -2.0087    0.6131    1.3543 H   0  0  0  0  0  0  0  0  0  0  0  0
   -5.5508    0.2906   -2.7557 H   0  0  0  0  0  0  0  0  0  0  0  0
  1  2  1  0
  2  3  2  0
  3  4  1  0
  4  5  2  0
  5  6  1  0
  6  7  1  0
  7  8  1  0
  8  9  1  0
  9 10  1  0
 10 11  1  0
 11 12  1  0
 12 13  1  0
 13 14  2  0
 14 15  1  0
 15 16  2  0
 16 17  1  0
 17 18  1  0
 18 19  2  0
 19 20  1  0
 20 21  2  0
 21 22  1  0
 22 23  2  0
 17 24  2  0
 24 25  1  0
 25 26  2  0
 26 27  1  0
 27 28  2  0
 28 29  1  0
 29 30  2  0
 30 31  1  0
 12 32  1  0
 32 33  1  0
  6 34  2  0
 34  2  1  0
 33  9  1  0
 31 13  1  0
 31 16  1  0
 23 18  1  0
 30 25  1  0
  3 35  1  0
  4 36  1  0
  5 37  1  0
  7 38  1  0
  7 39  1  0
  8 40  1  0
  8 41  1  0
 10 42  1  0
 10 43  1  0
 11 44  1  0
 11 45  1  0
 14 46  1  0
 15 47  1  0
 19 48  1  0
 20 49  1  0
 21 50  1  0
 22 51  1  0
 23 52  1  0
 26 53  1  0
 27 54  1  0
 28 55  1  0
 29 56  1  0
 32 57  1  0
 32 58  1  0
 33 59  1  0
 33 60  1  0
 34 61  1  0
M  END
$$$$
