
     RDKit          3D

 54 57  0  0  0  0  0  0  0  0999 V2000
   -3.2395    5.2151    0.7853 C   0  0  0  0  0  0  0  0  0  0  0  0
   -3.7390    4.0488    0.1410 O   0  0  0  0  0  0  0  0  0  0  0  0
   -2.9128    2.9605    0.1064 C   0  0  0  0  0  0  0  0  0  0  0  0
   -3.3638    1.9093   -0.6966 C   0  0  0  0  0  0  0  0  0  0  0  0
   -2.6163    0.7363   -0.8308 C   0  0  0  0  0  0  0  0  0  0  0  0
   -1.4112    0.6052   -0.1377 C   0  0  0  0  0  0  0  0  0  0  0  0
   -0.6336   -0.5712   -0.2650 N   0  0  0  0  0  0  0  0  0  0  0  0
   -0.0486   -1.3132    0.7542 C   0  0  0  0  0  0  0  0  0  0  0  0
   -0.3600   -1.1949    2.2132 C   0  0  0  0  0  0  0  0  0  0  0  0
   -1.5672   -2.0053    2.5962 C   0  0  0  0  0  0  0  0  0  0  0  0
   -1.6998   -3.3868    2.5944 C   0  0  0  0  0  0  0  0  0  0  0  0
   -3.0079   -3.7021    3.0193 C   0  0  0  0  0  0  0  0  0  0  0  0
   -3.6489   -2.5130    3.2756 C   0  0  0  0  0  0  0  0  0  0  0  0
   -2.7674   -1.4878    3.0355 N   0  0  0  0  0  0  0  0  0  0  0  0
   -3.1005   -0.0923    3.2284 C   0  0  0  0  0  0  0  0  0  0  0  0
    0.7276   -2.2441    0.2274 N   0  0  0  0  0  0  0  0  0  0  0  0
    0.6045   -2.1892   -1.1299 N   0  0  0  0  0  0  0  0  0  0  0  0
   -0.2244   -1.2126   -1.4205 C   0  0  0  0  0  0  0  0  0  0  0  0
   -0.5648   -0.6923   -3.0393 S   0  0  0  0  0  0  0  0  0  0  0  0
    0.8246   -1.4423   -3.9363 C   0  0  0  0  0  0  0  0  0  0  0  0
    2.0955   -0.6355   -3.7181 C   0  0  0  0  0  0  0  0  0  0  0  0
    2.3866    0.2863   -4.4776 O   0  0  0  0  0  0  0  0  0  0  0  0
    2.8327   -1.0434   -2.6198 N   0  0  0  0  0  0  0  0  0  0  0  0
    4.0775   -0.5386   -2.1825 C   0  0  0  0  0  0  0  0  0  0  0  0
    4.8210    0.4245   -2.8672 C   0  0  0  0  0  0  0  0  0  0  0  0
    6.0563    0.8550   -2.3646 C   0  0  0  0  0  0  0  0  0  0  0  0
    6.5617    0.3257   -1.1761 C   0  0  0  0  0  0  0  0  0  0  0  0
    5.8287   -0.6327   -0.4829 C   0  0  0  0  0  0  0  0  0  0  0  0
    4.6006   -1.0544   -0.9885 C   0  0  0  0  0  0  0  0  0  0  0  0
    3.9121   -1.9836   -0.3080 F   0  0  0  0  0  0  0  0  0  0  0  0
   -0.9541    1.6529    0.6717 C   0  0  0  0  0  0  0  0  0  0  0  0
   -1.7051    2.8275    0.7909 C   0  0  0  0  0  0  0  0  0  0  0  0
   -3.9750    6.0138    0.6485 H   0  0  0  0  0  0  0  0  0  0  0  0
   -2.2994    5.5481    0.3325 H   0  0  0  0  0  0  0  0  0  0  0  0
   -3.1233    5.0482    1.8619 H   0  0  0  0  0  0  0  0  0  0  0  0
   -4.3075    2.0078   -1.2293 H   0  0  0  0  0  0  0  0  0  0  0  0
   -3.0108   -0.0647   -1.4520 H   0  0  0  0  0  0  0  0  0  0  0  0
   -0.4543   -0.1559    2.5312 H   0  0  0  0  0  0  0  0  0  0  0  0
    0.4993   -1.5867    2.7758 H   0  0  0  0  0  0  0  0  0  0  0  0
   -0.9275   -4.0870    2.3019 H   0  0  0  0  0  0  0  0  0  0  0  0
   -3.4390   -4.6891    3.1202 H   0  0  0  0  0  0  0  0  0  0  0  0
   -4.6589   -2.3186    3.6141 H   0  0  0  0  0  0  0  0  0  0  0  0
   -2.2702    0.4095    3.7306 H   0  0  0  0  0  0  0  0  0  0  0  0
   -3.9967   -0.0128    3.8532 H   0  0  0  0  0  0  0  0  0  0  0  0
   -3.2961    0.3443    2.2493 H   0  0  0  0  0  0  0  0  0  0  0  0
    0.9716   -2.4913   -3.6619 H   0  0  0  0  0  0  0  0  0  0  0  0
    0.5965   -1.4273   -5.0077 H   0  0  0  0  0  0  0  0  0  0  0  0
    2.4089   -1.7390   -1.9988 H   0  0  0  0  0  0  0  0  0  0  0  0
    4.4740    0.8585   -3.8004 H   0  0  0  0  0  0  0  0  0  0  0  0
    6.6258    1.6027   -2.9125 H   0  0  0  0  0  0  0  0  0  0  0  0
    7.5246    0.6580   -0.7967 H   0  0  0  0  0  0  0  0  0  0  0  0
    6.2007   -1.0539    0.4459 H   0  0  0  0  0  0  0  0  0  0  0  0
    0.0072    1.6002    1.1787 H   0  0  0  0  0  0  0  0  0  0  0  0
   -1.3144    3.6231    1.4173 H   0  0  0  0  0  0  0  0  0  0  0  0
  1  2  1  0
  2  3  1  0
  3  4  2  0
  4  5  1  0
  5  6  2  0
  6  7  1  0
  7  8  1  0
  8  9  1  0
  9 10  1  0
 10 11  2  0
 11 12  1  0
 12 13  2  0
 13 14  1  0
 14 15  1  0
  8 16  2  0
 16 17  1  0
 17 18  2  0
 18 19  1  0
 19 20  1  0
 20 21  1  0
 21 22  2  0
 21 23  1  0
 23 24  1  0
 24 25  2  0
 25 26  1  0
 26 27  2  0
 27 28  1  0
 28 29  2  0
 29 30  1  0
  6 31  1  0
 31 32  2  0
 32  3  1  0
 18  7  1  0
 29 24  1  0
 14 10  1  0
  1 33  1  0
  1 34  1  0
  1 35  1  0
  4 36  1  0
  5 37  1  0
  9 38  1  0
  9 39  1  0
 11 40  1  0
 12 41  1  0
 13 42  1  0
 15 43  1  0
 15 44  1  0
 15 45  1  0
 20 46  1  0
 20 47  1  0
 23 48  1  0
 25 49  1  0
 26 50  1  0
 27 51  1  0
 28 52  1  0
 31 53  1  0
 32 54  1  0
M  END
$$$$
