
     RDKit          3D

 42 44  0  0  0  0  0  0  0  0999 V2000
   -4.2386   -2.0153   -0.7415 C   0  0  0  0  0  0  0  0  0  0  0  0
   -4.0974   -0.9235    0.3198 C   0  0  0  0  0  0  0  0  0  0  0  0
   -4.1151   -1.5098    1.7323 C   0  0  0  0  0  0  0  0  0  0  0  0
   -2.9070   -0.1009    0.0913 N   0  0  0  0  0  0  0  0  0  0  0  0
   -1.6154   -0.5751    0.1334 C   0  0  0  0  0  0  0  0  0  0  0  0
   -0.7588    0.4705   -0.1284 C   0  0  0  0  0  0  0  0  0  0  0  0
    0.6695    0.4013   -0.1846 C   0  0  0  0  0  0  0  0  0  0  0  0
    1.4211   -0.6733    0.1110 C   0  0  0  0  0  0  0  0  0  0  0  0
    2.8859   -0.6835    0.0391 C   0  0  0  0  0  0  0  0  0  0  0  0
    3.6132   -1.3061    1.0514 C   0  0  0  0  0  0  0  0  0  0  0  0
    5.0014   -1.3411    0.9818 C   0  0  0  0  0  0  0  0  0  0  0  0
    5.6524   -0.7835   -0.0632 N   0  0  0  0  0  4  0  0  0  0  0  0
    7.1229   -0.8403   -0.1232 C   0  0  0  0  0  0  0  0  0  0  0  0
    4.9670   -0.1964   -1.0694 C   0  0  0  0  0  0  0  0  0  0  0  0
    3.5785   -0.1359   -1.0397 C   0  0  0  0  0  0  0  0  0  0  0  0
   -1.5608    1.6343   -0.3427 C   0  0  0  0  0  0  0  0  0  0  0  0
   -1.2728    2.9850   -0.6448 C   0  0  0  0  0  0  0  0  0  0  0  0
   -2.3143    3.9053   -0.7969 C   0  0  0  0  0  0  0  0  0  0  0  0
   -3.6354    3.5017   -0.6523 C   0  0  0  0  0  0  0  0  0  0  0  0
   -3.9516    2.1737   -0.3524 C   0  0  0  0  0  0  0  0  0  0  0  0
   -2.9011    1.2511   -0.2001 C   0  0  0  0  0  0  0  0  0  0  0  0
   -3.4229   -2.7443   -0.6863 H   0  0  0  0  0  0  0  0  0  0  0  0
   -4.2321   -1.5836   -1.7485 H   0  0  0  0  0  0  0  0  0  0  0  0
   -5.1812   -2.5580   -0.6135 H   0  0  0  0  0  0  0  0  0  0  0  0
   -4.9679   -0.2660    0.2299 H   0  0  0  0  0  0  0  0  0  0  0  0
   -4.0178   -0.7191    2.4843 H   0  0  0  0  0  0  0  0  0  0  0  0
   -3.2964   -2.2207    1.8881 H   0  0  0  0  0  0  0  0  0  0  0  0
   -5.0562   -2.0381    1.9183 H   0  0  0  0  0  0  0  0  0  0  0  0
   -1.4262   -1.6190    0.3428 H   0  0  0  0  0  0  0  0  0  0  0  0
    1.1670    1.3213   -0.4829 H   0  0  0  0  0  0  0  0  0  0  0  0
    0.9541   -1.5960    0.4478 H   0  0  0  0  0  0  0  0  0  0  0  0
    3.1064   -1.7576    1.9027 H   0  0  0  0  0  0  0  0  0  0  0  0
    5.5985   -1.8149    1.7561 H   0  0  0  0  0  0  0  0  0  0  0  0
    7.4937    0.0653   -0.6103 H   0  0  0  0  0  0  0  0  0  0  0  0
    7.5241   -0.8947    0.8920 H   0  0  0  0  0  0  0  0  0  0  0  0
    7.3928   -1.7308   -0.6961 H   0  0  0  0  0  0  0  0  0  0  0  0
    5.5380    0.2170   -1.8961 H   0  0  0  0  0  0  0  0  0  0  0  0
    3.0457    0.3289   -1.8675 H   0  0  0  0  0  0  0  0  0  0  0  0
   -0.2467    3.3193   -0.7594 H   0  0  0  0  0  0  0  0  0  0  0  0
   -2.0889    4.9432   -1.0291 H   0  0  0  0  0  0  0  0  0  0  0  0
   -4.4367    4.2276   -0.7730 H   0  0  0  0  0  0  0  0  0  0  0  0
   -4.9912    1.8820   -0.2436 H   0  0  0  0  0  0  0  0  0  0  0  0
  1  2  1  0
  2  3  1  0
  2  4  1  0
  4  5  1  0
  5  6  2  0
  6  7  1  0
  7  8  2  3
  8  9  1  0
  9 10  2  0
 10 11  1  0
 11 12  2  0
 12 13  1  0
 12 14  1  0
 14 15  2  0
  6 16  1  0
 16 17  2  0
 17 18  1  0
 18 19  2  0
 19 20  1  0
 20 21  2  0
 21  4  1  0
 15  9  1  0
 21 16  1  0
  1 22  1  0
  1 23  1  0
  1 24  1  0
  2 25  1  0
  3 26  1  0
  3 27  1  0
  3 28  1  0
  5 29  1  0
  7 30  1  0
  8 31  1  0
 10 32  1  0
 11 33  1  0
 13 34  1  0
 13 35  1  0
 13 36  1  0
 14 37  1  0
 15 38  1  0
 17 39  1  0
 18 40  1  0
 19 41  1  0
 20 42  1  0
M  CHG  1  12   1
M  END
$$$$
