
     RDKit          3D

 50 52  0  0  0  0  0  0  0  0999 V2000
    0.6224    0.0031   -2.7138 C   0  0  0  0  0  0  0  0  0  0  0  0
    1.7118   -1.0473   -2.5981 C   0  0  0  0  0  0  0  0  0  0  0  0
    2.3035   -1.1292   -1.2552 N   0  0  0  0  0  4  0  0  0  0  0  0
    1.9985   -2.0816   -0.3830 C   0  0  0  0  0  0  0  0  0  0  0  0
    1.0361   -3.1119   -0.5269 C   0  0  0  0  0  0  0  0  0  0  0  0
   -0.2721   -2.9322   -0.2757 C   0  0  0  0  0  0  0  0  0  0  0  0
   -0.8878   -1.7040    0.1849 C   0  0  0  0  0  0  0  0  0  0  0  0
   -2.2142   -1.5092    0.2437 C   0  0  0  0  0  0  0  0  0  0  0  0
   -2.8625   -0.3204    0.6142 N   0  0  0  0  0  0  0  0  0  0  0  0
   -2.1587    0.9055    0.6725 C   0  0  0  0  0  0  0  0  0  0  0  0
   -2.7105    1.9764    1.5931 C   0  0  0  0  0  0  0  0  0  0  0  0
   -1.1007    1.1302    0.0708 O   0  0  0  0  0  0  0  0  0  0  0  0
   -4.2937   -0.3514    0.7956 C   0  0  0  0  0  0  0  0  0  0  0  0
   -5.1147    0.6607    0.2755 C   0  0  0  0  0  0  0  0  0  0  0  0
   -6.5017    0.6112    0.4408 C   0  0  0  0  0  0  0  0  0  0  0  0
   -7.0870   -0.4536    1.1207 C   0  0  0  0  0  0  0  0  0  0  0  0
   -6.2885   -1.4746    1.6284 C   0  0  0  0  0  0  0  0  0  0  0  0
   -4.9019   -1.4280    1.4614 C   0  0  0  0  0  0  0  0  0  0  0  0
    2.9542   -1.9514    1.0354 S   0  0  0  0  0  0  0  0  0  0  0  0
    3.7480   -0.5425    0.4524 C   0  0  0  0  0  0  0  0  0  0  0  0
    4.7349    0.2324    1.0804 C   0  0  0  0  0  0  0  0  0  0  0  0
    5.2522    1.3443    0.4063 C   0  0  0  0  0  0  0  0  0  0  0  0
    6.2050    2.0263    1.1090 O   0  0  0  0  0  0  0  0  0  0  0  0
    6.7606    3.1907    0.5077 C   0  0  0  0  0  0  0  0  0  0  0  0
    4.7916    1.6646   -0.8675 C   0  0  0  0  0  0  0  0  0  0  0  0
    3.8053    0.8850   -1.4940 C   0  0  0  0  0  0  0  0  0  0  0  0
    3.2741   -0.2326   -0.8186 C   0  0  0  0  0  0  0  0  0  0  0  0
    0.9642    0.9834   -2.3706 H   0  0  0  0  0  0  0  0  0  0  0  0
    0.3005    0.0990   -3.7554 H   0  0  0  0  0  0  0  0  0  0  0  0
   -0.2522   -0.2706   -2.1219 H   0  0  0  0  0  0  0  0  0  0  0  0
    1.3158   -2.0238   -2.8988 H   0  0  0  0  0  0  0  0  0  0  0  0
    2.5146   -0.8296   -3.3133 H   0  0  0  0  0  0  0  0  0  0  0  0
    1.3871   -4.0957   -0.8322 H   0  0  0  0  0  0  0  0  0  0  0  0
   -0.9407   -3.7828   -0.4195 H   0  0  0  0  0  0  0  0  0  0  0  0
   -0.2202   -0.9076    0.4976 H   0  0  0  0  0  0  0  0  0  0  0  0
   -2.8817   -2.3259   -0.0271 H   0  0  0  0  0  0  0  0  0  0  0  0
   -3.2447    2.7321    1.0129 H   0  0  0  0  0  0  0  0  0  0  0  0
   -1.8691    2.4591    2.1016 H   0  0  0  0  0  0  0  0  0  0  0  0
   -3.3548    1.5630    2.3726 H   0  0  0  0  0  0  0  0  0  0  0  0
   -4.6998    1.4813   -0.3039 H   0  0  0  0  0  0  0  0  0  0  0  0
   -7.1277    1.3999    0.0289 H   0  0  0  0  0  0  0  0  0  0  0  0
   -8.1663   -0.4898    1.2505 H   0  0  0  0  0  0  0  0  0  0  0  0
   -6.7458   -2.3054    2.1609 H   0  0  0  0  0  0  0  0  0  0  0  0
   -4.3051   -2.2273    1.8941 H   0  0  0  0  0  0  0  0  0  0  0  0
    5.0977   -0.0196    2.0750 H   0  0  0  0  0  0  0  0  0  0  0  0
    7.4828    3.6177    1.2100 H   0  0  0  0  0  0  0  0  0  0  0  0
    5.9888    3.9447    0.3217 H   0  0  0  0  0  0  0  0  0  0  0  0
    7.2974    2.9386   -0.4125 H   0  0  0  0  0  0  0  0  0  0  0  0
    5.1813    2.5237   -1.4088 H   0  0  0  0  0  0  0  0  0  0  0  0
    3.4739    1.1749   -2.4872 H   0  0  0  0  0  0  0  0  0  0  0  0
  1  2  1  0
  2  3  1  0
  3  4  2  0
  4  5  1  0
  5  6  2  3
  6  7  1  0
  7  8  2  3
  8  9  1  0
  9 10  1  0
 10 11  1  0
 10 12  2  0
  9 13  1  0
 13 14  2  0
 14 15  1  0
 15 16  2  0
 16 17  1  0
 17 18  2  0
  4 19  1  0
 19 20  1  0
 20 21  2  0
 21 22  1  0
 22 23  1  0
 23 24  1  0
 22 25  2  0
 25 26  1  0
 26 27  2  0
 27  3  1  0
 18 13  1  0
 27 20  1  0
  1 28  1  0
  1 29  1  0
  1 30  1  0
  2 31  1  0
  2 32  1  0
  5 33  1  0
  6 34  1  0
  7 35  1  0
  8 36  1  0
 11 37  1  0
 11 38  1  0
 11 39  1  0
 14 40  1  0
 15 41  1  0
 16 42  1  0
 17 43  1  0
 18 44  1  0
 21 45  1  0
 24 46  1  0
 24 47  1  0
 24 48  1  0
 25 49  1  0
 26 50  1  0
M  CHG  1   3   1
M  END
$$$$
