
     RDKit          3D

 53 55  0  0  0  0  0  0  0  0999 V2000
   -3.5677   -1.5942   -3.5172 C   0  0  0  0  0  0  0  0  0  0  0  0
   -4.8480   -1.4784   -2.9068 O   0  0  0  0  0  0  0  0  0  0  0  0
   -4.8844   -0.9836   -1.6295 C   0  0  0  0  0  0  0  0  0  0  0  0
   -3.7780   -0.5739   -0.8789 C   0  0  0  0  0  0  0  0  0  0  0  0
   -3.9466   -0.0847    0.4188 C   0  0  0  0  0  0  0  0  0  0  0  0
   -2.8868    0.3508    1.2447 N   0  0  0  0  0  0  0  0  0  0  0  0
   -1.5344    0.3739    0.9465 C   0  0  0  0  0  0  0  0  0  0  0  0
   -1.0100    0.0226   -0.1042 O   0  0  0  0  0  0  0  0  0  0  0  0
   -0.7187    0.9296    2.0978 C   0  0  0  0  0  0  0  0  0  0  0  0
    0.7729    0.8243    1.8125 C   0  0  0  0  0  0  0  0  0  0  0  0
    1.5188    1.4088    2.9328 N   0  0  0  0  0  0  0  0  0  0  0  0
    2.9703    0.7237    3.4204 S   0  0  0  0  0  6  0  0  0  0  0  0
    3.5321    1.6232    4.4032 O   0  0  0  0  0  0  0  0  0  0  0  0
    2.7314   -0.6723    3.7087 O   0  0  0  0  0  0  0  0  0  0  0  0
    3.9643    0.8322    1.9514 C   0  0  0  0  0  0  0  0  0  0  0  0
    4.6256    2.0298    1.6592 C   0  0  0  0  0  0  0  0  0  0  0  0
    5.4125    2.1192    0.5097 C   0  0  0  0  0  0  0  0  0  0  0  0
    5.5504    1.0076   -0.3230 C   0  0  0  0  0  0  0  0  0  0  0  0
    4.8974   -0.1958   -0.0282 C   0  0  0  0  0  0  0  0  0  0  0  0
    4.0992   -0.2832    1.1180 C   0  0  0  0  0  0  0  0  0  0  0  0
    4.9802   -1.3344   -1.0068 C   0  0  0  0  0  0  0  0  0  0  0  0
    6.3100   -1.3340   -1.7422 C   0  0  0  0  0  0  0  0  0  0  0  0
    6.6672    0.0366   -2.2691 C   0  0  0  0  0  0  0  0  0  0  0  0
    7.3098    0.1972   -3.3040 O   0  0  0  0  0  0  0  0  0  0  0  0
    6.3329    1.1025   -1.4764 N   0  0  0  0  0  0  0  0  0  0  0  0
   -5.2385   -0.0123    0.9540 C   0  0  0  0  0  0  0  0  0  0  0  0
   -6.3514   -0.4186    0.2131 C   0  0  0  0  0  0  0  0  0  0  0  0
   -7.5481   -0.2898    0.8638 O   0  0  0  0  0  0  0  0  0  0  0  0
   -8.7109   -0.7018    0.1547 C   0  0  0  0  0  0  0  0  0  0  0  0
   -6.1678   -0.9031   -1.0792 C   0  0  0  0  0  0  0  0  0  0  0  0
   -3.7130   -2.0049   -4.5210 H   0  0  0  0  0  0  0  0  0  0  0  0
   -3.0919   -0.6139   -3.6249 H   0  0  0  0  0  0  0  0  0  0  0  0
   -2.9275   -2.2887   -2.9632 H   0  0  0  0  0  0  0  0  0  0  0  0
   -2.7866   -0.6374   -1.3073 H   0  0  0  0  0  0  0  0  0  0  0  0
   -3.1565    0.6742    2.1667 H   0  0  0  0  0  0  0  0  0  0  0  0
   -0.9647    0.3743    3.0110 H   0  0  0  0  0  0  0  0  0  0  0  0
   -1.0037    1.9775    2.2508 H   0  0  0  0  0  0  0  0  0  0  0  0
    1.0321    1.3686    0.8976 H   0  0  0  0  0  0  0  0  0  0  0  0
    1.0404   -0.2279    1.6679 H   0  0  0  0  0  0  0  0  0  0  0  0
    1.4600    2.4119    3.0994 H   0  0  0  0  0  0  0  0  0  0  0  0
    4.5358    2.8897    2.3196 H   0  0  0  0  0  0  0  0  0  0  0  0
    5.9227    3.0518    0.2836 H   0  0  0  0  0  0  0  0  0  0  0  0
    3.5788   -1.2104    1.3519 H   0  0  0  0  0  0  0  0  0  0  0  0
    4.1557   -1.2297   -1.7230 H   0  0  0  0  0  0  0  0  0  0  0  0
    4.8548   -2.2938   -0.4918 H   0  0  0  0  0  0  0  0  0  0  0  0
    6.2679   -2.0383   -2.5800 H   0  0  0  0  0  0  0  0  0  0  0  0
    7.1206   -1.6492   -1.0740 H   0  0  0  0  0  0  0  0  0  0  0  0
    6.6979    1.9983   -1.7739 H   0  0  0  0  0  0  0  0  0  0  0  0
   -5.4024    0.3632    1.9612 H   0  0  0  0  0  0  0  0  0  0  0  0
   -8.8586   -0.0969   -0.7461 H   0  0  0  0  0  0  0  0  0  0  0  0
   -9.5741   -0.5423    0.8080 H   0  0  0  0  0  0  0  0  0  0  0  0
   -8.6688   -1.7691   -0.0866 H   0  0  0  0  0  0  0  0  0  0  0  0
   -7.0027   -1.2290   -1.6908 H   0  0  0  0  0  0  0  0  0  0  0  0
  1  2  1  0
  2  3  1  0
  3  4  2  0
  4  5  1  0
  5  6  1  0
  6  7  1  0
  7  8  2  0
  7  9  1  0
  9 10  1  0
 10 11  1  0
 11 12  1  0
 12 13  2  0
 12 14  2  0
 12 15  1  0
 15 16  2  0
 16 17  1  0
 17 18  2  0
 18 19  1  0
 19 20  2  0
 19 21  1  0
 21 22  1  0
 22 23  1  0
 23 24  2  0
 23 25  1  0
  5 26  2  0
 26 27  1  0
 27 28  1  0
 28 29  1  0
 27 30  2  0
 30  3  1  0
 20 15  1  0
 25 18  1  0
  1 31  1  0
  1 32  1  0
  1 33  1  0
  4 34  1  0
  6 35  1  0
  9 36  1  0
  9 37  1  0
 10 38  1  0
 10 39  1  0
 11 40  1  0
 16 41  1  0
 17 42  1  0
 20 43  1  0
 21 44  1  0
 21 45  1  0
 22 46  1  0
 22 47  1  0
 25 48  1  0
 26 49  1  0
 29 50  1  0
 29 51  1  0
 29 52  1  0
 30 53  1  0
M  END
$$$$
