
     RDKit          3D

 59 61  0  0  0  0  0  0  0  0999 V2000
   -6.1073   -1.8133   -1.7473 C   0  0  0  0  0  0  0  0  0  0  0  0
   -6.3433   -1.5991   -0.4438 C   0  0  0  0  0  0  0  0  0  0  0  0
   -5.3786   -0.9829    0.5746 C   0  0  0  0  0  0  0  0  0  0  0  0
   -6.1860   -0.3386    1.7305 C   0  0  0  0  0  0  0  0  0  0  0  0
   -4.6286   -2.1849    1.2051 C   0  0  0  0  0  0  0  0  0  0  0  0
   -4.4433    0.0868   -0.0416 C   0  0  0  0  0  0  0  0  0  0  0  0
   -3.0399   -0.0657   -0.0274 C   0  0  0  0  0  0  0  0  0  0  0  0
   -2.1668    0.8962   -0.5754 C   0  0  0  0  0  0  0  0  0  0  0  0
   -0.6604    0.6934   -0.5621 C   0  0  2  0  0  0  0  0  0  0  0  0
   -0.2097   -0.0069   -1.8362 C   0  0  0  0  0  0  0  0  0  0  0  0
    1.2827   -0.1600   -1.7841 C   0  0  0  0  0  0  0  0  0  0  0  0
    1.9871   -0.1778   -2.7912 O   0  0  0  0  0  0  0  0  0  0  0  0
    1.8909   -0.3643   -0.4542 C   0  0  0  0  0  0  0  0  0  0  0  0
    1.0553   -0.3302    0.6622 C   0  0  0  0  0  0  0  0  0  0  0  0
    1.5728   -0.5860    1.9294 C   0  0  0  0  0  0  0  0  0  0  0  0
    2.9365   -0.8413    2.0775 C   0  0  0  0  0  0  0  0  0  0  0  0
    3.4466   -1.0743    3.3253 O   0  0  0  0  0  0  0  0  0  0  0  0
    3.8046   -0.8642    0.9732 C   0  0  0  0  0  0  0  0  0  0  0  0
    5.2872   -1.1107    1.1571 C   0  0  0  0  0  0  0  0  0  0  0  0
    6.0382    0.1490    1.5072 C   0  0  0  0  0  0  0  0  0  0  0  0
    6.9413    0.8208    0.7654 C   0  0  0  0  0  0  0  0  0  0  0  0
    7.5947    2.0679    1.3004 C   0  0  0  0  0  0  0  0  0  0  0  0
    7.3786    0.4427   -0.6225 C   0  0  0  0  0  0  0  0  0  0  0  0
    3.2613   -0.6246   -0.3004 C   0  0  0  0  0  0  0  0  0  0  0  0
    4.1057   -0.6691   -1.3820 O   0  0  0  0  0  0  0  0  0  0  0  0
   -0.2903   -0.0803    0.5958 O   0  0  0  0  0  0  0  0  0  0  0  0
   -2.7228    2.0285   -1.1733 C   0  0  0  0  0  0  0  0  0  0  0  0
   -1.8855    2.9512   -1.7350 O   0  0  0  0  0  0  0  0  0  0  0  0
   -4.1001    2.2171   -1.2118 C   0  0  0  0  0  0  0  0  0  0  0  0
   -4.9442    1.2549   -0.6496 C   0  0  0  0  0  0  0  0  0  0  0  0
   -6.2962    1.4604   -0.7089 O   0  0  0  0  0  0  0  0  0  0  0  0
   -6.8652   -2.2635   -2.3801 H   0  0  0  0  0  0  0  0  0  0  0  0
   -5.1639   -1.5465   -2.2117 H   0  0  0  0  0  0  0  0  0  0  0  0
   -7.3122   -1.9070   -0.0533 H   0  0  0  0  0  0  0  0  0  0  0  0
   -6.7737   -1.0899    2.2732 H   0  0  0  0  0  0  0  0  0  0  0  0
   -5.5187    0.1422    2.4569 H   0  0  0  0  0  0  0  0  0  0  0  0
   -6.8976    0.4184    1.3865 H   0  0  0  0  0  0  0  0  0  0  0  0
   -3.9632   -1.8648    2.0157 H   0  0  0  0  0  0  0  0  0  0  0  0
   -4.0260   -2.7250    0.4646 H   0  0  0  0  0  0  0  0  0  0  0  0
   -5.3283   -2.9119    1.6366 H   0  0  0  0  0  0  0  0  0  0  0  0
   -2.5923   -0.9513    0.4172 H   0  0  0  0  0  0  0  0  0  0  0  0
   -0.1746    1.6740   -0.4544 H   0  0  0  0  0  0  0  0  0  0  0  0
   -0.4729    0.5823   -2.7213 H   0  0  0  0  0  0  0  0  0  0  0  0
   -0.6465   -1.0075   -1.9325 H   0  0  0  0  0  0  0  0  0  0  0  0
    0.9073   -0.5680    2.7870 H   0  0  0  0  0  0  0  0  0  0  0  0
    2.7286   -1.0375    3.9785 H   0  0  0  0  0  0  0  0  0  0  0  0
    5.4392   -1.8384    1.9655 H   0  0  0  0  0  0  0  0  0  0  0  0
    5.6986   -1.6133    0.2764 H   0  0  0  0  0  0  0  0  0  0  0  0
    5.8014    0.5281    2.5013 H   0  0  0  0  0  0  0  0  0  0  0  0
    8.6808    1.9365    1.3468 H   0  0  0  0  0  0  0  0  0  0  0  0
    7.2475    2.3207    2.3078 H   0  0  0  0  0  0  0  0  0  0  0  0
    7.3742    2.9208    0.6499 H   0  0  0  0  0  0  0  0  0  0  0  0
    7.1322    1.2462   -1.3245 H   0  0  0  0  0  0  0  0  0  0  0  0
    6.9126   -0.4707   -0.9964 H   0  0  0  0  0  0  0  0  0  0  0  0
    8.4624    0.2867   -0.6447 H   0  0  0  0  0  0  0  0  0  0  0  0
    3.5857   -0.4813   -2.1956 H   0  0  0  0  0  0  0  0  0  0  0  0
   -2.4121    3.6892   -2.0859 H   0  0  0  0  0  0  0  0  0  0  0  0
   -4.5173    3.1037   -1.6763 H   0  0  0  0  0  0  0  0  0  0  0  0
   -6.4867    2.2333   -1.2625 H   0  0  0  0  0  0  0  0  0  0  0  0
  1  2  2  0
  2  3  1  0
  3  4  1  0
  3  5  1  0
  3  6  1  0
  6  7  2  0
  7  8  1  0
  8  9  1  0
  9 10  1  0
 10 11  1  0
 11 12  2  0
 11 13  1  0
 13 14  2  0
 14 15  1  0
 15 16  2  0
 16 17  1  0
 16 18  1  0
 18 19  1  0
 19 20  1  0
 20 21  2  3
 21 22  1  0
 21 23  1  0
 18 24  2  0
 24 25  1  0
 14 26  1  0
  8 27  2  0
 27 28  1  0
 27 29  1  0
 29 30  2  0
 30 31  1  0
 30  6  1  0
 26  9  1  0
 24 13  1  0
  1 32  1  0
  1 33  1  0
  2 34  1  0
  4 35  1  0
  4 36  1  0
  4 37  1  0
  5 38  1  0
  5 39  1  0
  5 40  1  0
  7 41  1  0
  9 42  1  1
 10 43  1  0
 10 44  1  0
 15 45  1  0
 17 46  1  0
 19 47  1  0
 19 48  1  0
 20 49  1  0
 22 50  1  0
 22 51  1  0
 22 52  1  0
 23 53  1  0
 23 54  1  0
 23 55  1  0
 25 56  1  0
 28 57  1  0
 29 58  1  0
 31 59  1  0
M  END
$$$$
