
     RDKit          3D

 32 32  0  0  0  0  0  0  0  0999 V2000
   -1.8056    4.0898   -2.7586 C   0  0  0  0  0  0  0  0  0  0  0  0
   -1.1779    3.0743   -2.8929 C   0  0  0  0  0  0  0  0  0  0  0  0
   -0.4007    1.8346   -3.0601 C   0  0  0  0  0  0  0  0  0  0  0  0
   -1.0857    0.6123   -2.6041 N   0  0  0  0  0  0  0  0  0  0  0  0
   -2.2596    0.3200   -3.4295 C   0  0  0  0  0  0  0  0  0  0  0  0
   -1.4390    0.6141   -1.1777 C   0  0  0  0  0  0  0  0  0  0  0  0
   -0.2442    0.6769   -0.2209 C   0  0  0  0  0  0  0  0  0  0  0  0
    0.7452   -0.4677   -0.4310 C   0  0  0  0  0  0  0  0  0  0  0  0
    1.7939   -0.3960    0.5381 O   0  0  0  0  0  0  0  0  0  0  0  0
    1.6900   -1.1147    1.6993 C   0  0  0  0  0  0  0  0  0  0  0  0
    0.5182   -1.7286    2.1533 C   0  0  0  0  0  0  0  0  0  0  0  0
    0.5156   -2.4295    3.3626 C   0  0  0  0  0  0  0  0  0  0  0  0
   -0.9353   -3.1795    3.9072 Cl  0  0  0  0  0  0  0  0  0  0  0  0
    1.6699   -2.5254    4.1355 C   0  0  0  0  0  0  0  0  0  0  0  0
    2.8412   -1.9098    3.6979 C   0  0  0  0  0  0  0  0  0  0  0  0
    2.8503   -1.2063    2.4890 C   0  0  0  0  0  0  0  0  0  0  0  0
    4.3342   -0.4626    2.0017 Cl  0  0  0  0  0  0  0  0  0  0  0  0
   -2.3620    4.9907   -2.6390 H   0  0  0  0  0  0  0  0  0  0  0  0
    0.5605    1.9342   -2.5432 H   0  0  0  0  0  0  0  0  0  0  0  0
   -0.1336    1.7177   -4.1183 H   0  0  0  0  0  0  0  0  0  0  0  0
   -3.0588    1.0589   -3.3048 H   0  0  0  0  0  0  0  0  0  0  0  0
   -1.9884    0.2767   -4.4904 H   0  0  0  0  0  0  0  0  0  0  0  0
   -2.6671   -0.6652   -3.1758 H   0  0  0  0  0  0  0  0  0  0  0  0
   -2.1310    1.4320   -0.9410 H   0  0  0  0  0  0  0  0  0  0  0  0
   -1.9803   -0.3141   -0.9490 H   0  0  0  0  0  0  0  0  0  0  0  0
   -0.6217    0.6541    0.8086 H   0  0  0  0  0  0  0  0  0  0  0  0
    0.2804    1.6362   -0.3042 H   0  0  0  0  0  0  0  0  0  0  0  0
    1.2308   -0.3536   -1.4067 H   0  0  0  0  0  0  0  0  0  0  0  0
    0.2627   -1.4515   -0.4516 H   0  0  0  0  0  0  0  0  0  0  0  0
   -0.4092   -1.6681    1.5948 H   0  0  0  0  0  0  0  0  0  0  0  0
    1.6635   -3.0710    5.0755 H   0  0  0  0  0  0  0  0  0  0  0  0
    3.7436   -1.9789    4.3003 H   0  0  0  0  0  0  0  0  0  0  0  0
  1  2  3  0
  2  3  1  0
  3  4  1  0
  4  5  1  0
  4  6  1  0
  6  7  1  0
  7  8  1  0
  8  9  1  0
  9 10  1  0
 10 11  2  0
 11 12  1  0
 12 13  1  0
 12 14  2  0
 14 15  1  0
 15 16  2  0
 16 17  1  0
 16 10  1  0
  1 18  1  0
  3 19  1  0
  3 20  1  0
  5 21  1  0
  5 22  1  0
  5 23  1  0
  6 24  1  0
  6 25  1  0
  7 26  1  0
  7 27  1  0
  8 28  1  0
  8 29  1  0
 11 30  1  0
 14 31  1  0
 15 32  1  0
M  END
$$$$
