
     RDKit          3D

 37 37  0  0  0  0  0  0  0  0999 V2000
   -1.0587   -4.2317    1.2483 C   0  0  0  0  0  0  0  0  0  0  0  0
   -0.8578   -2.8191    1.2519 O   0  0  0  0  0  0  0  0  0  0  0  0
   -1.9699   -2.0951    0.9363 C   0  0  0  0  0  0  0  0  0  0  0  0
   -3.0844   -2.5820    0.7718 O   0  0  0  0  0  0  0  0  0  0  0  0
   -1.6929   -0.5755    0.9363 C   0  0  0  0  0  0  0  0  0  0  0  0
   -2.5282    0.1350   -0.1462 C   0  0  0  0  0  0  0  0  0  0  0  0
   -2.5064    1.6526    0.0232 C   0  0  0  0  0  0  0  0  0  0  0  0
   -3.4523    2.5290   -1.2670 S   0  0  0  0  0  0  0  0  0  0  0  0
   -5.1312    2.0074   -0.8356 C   0  0  0  0  0  0  0  0  0  0  0  0
   -0.2720   -0.2161    0.9189 N   0  0  0  0  0  0  0  0  0  0  0  0
    0.5131   -0.4824   -0.1726 C   0  0  0  0  0  0  0  0  0  0  0  0
    0.1406   -1.1016   -1.1576 O   0  0  0  0  0  0  0  0  0  0  0  0
    1.7681    0.0402   -0.0158 N   0  0  0  0  0  0  0  0  0  0  0  0
    2.7636   -0.2277   -1.0286 C   0  0  0  0  0  0  0  0  0  0  0  0
    3.9771    0.5852   -0.7154 C   0  0  0  0  0  0  0  0  0  0  0  0
    4.2653    1.8775   -1.1104 C   0  0  0  0  0  0  0  0  0  0  0  0
    5.5229    2.3286   -0.6160 C   0  0  0  0  0  0  0  0  0  0  0  0
    6.1531    1.3672    0.1415 C   0  0  0  0  0  0  0  0  0  0  0  0
    5.2304   -0.0676    0.2555 S   0  0  0  0  0  0  0  0  0  0  0  0
   -1.7607   -4.5188    2.0372 H   0  0  0  0  0  0  0  0  0  0  0  0
   -1.4145   -4.5690    0.2697 H   0  0  0  0  0  0  0  0  0  0  0  0
   -0.0967   -4.7112    1.4495 H   0  0  0  0  0  0  0  0  0  0  0  0
   -2.0439   -0.2387    1.9212 H   0  0  0  0  0  0  0  0  0  0  0  0
   -3.5622   -0.2226   -0.0794 H   0  0  0  0  0  0  0  0  0  0  0  0
   -2.1738   -0.1392   -1.1465 H   0  0  0  0  0  0  0  0  0  0  0  0
   -1.4789    2.0250   -0.0390 H   0  0  0  0  0  0  0  0  0  0  0  0
   -2.8965    1.9427    1.0045 H   0  0  0  0  0  0  0  0  0  0  0  0
   -5.2800    0.9500   -1.0659 H   0  0  0  0  0  0  0  0  0  0  0  0
   -5.3310    2.1900    0.2234 H   0  0  0  0  0  0  0  0  0  0  0  0
   -5.8456    2.5872   -1.4264 H   0  0  0  0  0  0  0  0  0  0  0  0
    0.0066    0.5992    1.4447 H   0  0  0  0  0  0  0  0  0  0  0  0
    2.1065    0.0275    0.9350 H   0  0  0  0  0  0  0  0  0  0  0  0
    2.3572    0.0400   -2.0108 H   0  0  0  0  0  0  0  0  0  0  0  0
    2.9752   -1.3030   -1.0360 H   0  0  0  0  0  0  0  0  0  0  0  0
    3.6009    2.4720   -1.7271 H   0  0  0  0  0  0  0  0  0  0  0  0
    5.9439    3.3080   -0.8074 H   0  0  0  0  0  0  0  0  0  0  0  0
    7.1130    1.4369    0.6348 H   0  0  0  0  0  0  0  0  0  0  0  0
  1  2  1  0
  2  3  1  0
  3  4  2  0
  3  5  1  0
  5  6  1  0
  6  7  1  0
  7  8  1  0
  8  9  1  0
  5 10  1  0
 10 11  1  0
 11 12  2  0
 11 13  1  0
 13 14  1  0
 14 15  1  0
 15 16  2  0
 16 17  1  0
 17 18  2  0
 18 19  1  0
 19 15  1  0
  1 20  1  0
  1 21  1  0
  1 22  1  0
  5 23  1  0
  6 24  1  0
  6 25  1  0
  7 26  1  0
  7 27  1  0
  9 28  1  0
  9 29  1  0
  9 30  1  0
 10 31  1  0
 13 32  1  0
 14 33  1  0
 14 34  1  0
 16 35  1  0
 17 36  1  0
 18 37  1  0
M  END
$$$$
