
     RDKit          3D

 60 63  0  0  0  0  0  0  0  0999 V2000
   -6.6994   -0.2583   -1.4578 C   0  0  0  0  0  0  0  0  0  0  0  0
   -5.4124   -0.6635   -2.1125 C   0  0  0  0  0  0  0  0  0  0  0  0
   -5.3884   -0.9958   -3.4535 C   0  0  0  0  0  0  0  0  0  0  0  0
   -4.1623   -1.3483   -3.9841 C   0  0  0  0  0  0  0  0  0  0  0  0
   -4.0407   -1.7082   -5.4348 C   0  0  0  0  0  0  0  0  0  0  0  0
   -3.0355   -1.3668   -3.2444 N   0  0  0  0  0  0  0  0  0  0  0  0
   -3.1605   -1.0463   -1.9482 C   0  0  0  0  0  0  0  0  0  0  0  0
   -1.6940   -1.0198   -0.9611 S   0  0  0  0  0  0  0  0  0  0  0  0
   -1.0369    0.5359   -1.6130 C   0  0  0  0  0  0  0  0  0  0  0  0
   -0.0146    1.1306   -0.7064 C   0  0  0  0  0  0  0  0  0  0  0  0
    1.2844    1.1717   -0.9435 N   0  0  0  0  0  0  0  0  0  0  0  0
    1.8844    1.8667    0.0692 N   0  0  0  0  0  0  0  0  0  0  0  0
    0.9517    2.2228    0.9212 C   0  0  0  0  0  0  0  0  0  0  0  0
    1.2273    3.0854    2.3927 S   0  0  0  0  0  0  0  0  0  0  0  0
    3.0439    3.0973    2.4632 C   0  0  0  0  0  0  0  0  0  0  0  0
    3.5784    1.7568    2.9495 C   0  0  0  0  0  0  0  0  0  0  0  0
    3.8519    1.5872    4.1360 O   0  0  0  0  0  0  0  0  0  0  0  0
    3.7114    0.8223    1.9375 N   0  0  0  0  0  0  0  0  0  0  0  0
    4.2107   -0.4913    2.0289 C   0  0  0  0  0  0  0  0  0  0  0  0
    4.7813   -1.0325    3.1789 C   0  0  0  0  0  0  0  0  0  0  0  0
    5.2603   -2.3470    3.1781 C   0  0  0  0  0  0  0  0  0  0  0  0
    5.1876   -3.1421    2.0273 C   0  0  0  0  0  0  0  0  0  0  0  0
    5.7213   -4.5481    2.0670 C   0  0  0  0  0  0  0  0  0  0  0  0
    4.6129   -2.6039    0.8592 C   0  0  0  0  0  0  0  0  0  0  0  0
    4.4953   -3.4120   -0.4039 C   0  0  0  0  0  0  0  0  0  0  0  0
    4.1296   -1.2830    0.8761 C   0  0  0  0  0  0  0  0  0  0  0  0
   -0.2700    1.7827    0.4867 N   0  0  0  0  0  0  0  0  0  0  0  0
   -1.5483    1.9061    1.1651 C   0  0  0  0  0  0  0  0  0  0  0  0
   -2.4575    2.8507    0.4686 C   0  0  0  0  0  0  0  0  0  0  0  0
   -3.7430    2.7323   -0.0215 C   0  0  0  0  0  0  0  0  0  0  0  0
   -4.0723    3.9898   -0.5825 C   0  0  0  0  0  0  0  0  0  0  0  0
   -2.9758    4.7974   -0.3870 C   0  0  0  0  0  0  0  0  0  0  0  0
   -1.9934    4.1165    0.2563 O   0  0  0  0  0  0  0  0  0  0  0  0
   -4.3035   -0.6765   -1.3464 N   0  0  0  0  0  0  0  0  0  0  0  0
   -7.0962    0.6459   -1.9327 H   0  0  0  0  0  0  0  0  0  0  0  0
   -7.4374   -1.0633   -1.5402 H   0  0  0  0  0  0  0  0  0  0  0  0
   -6.5454   -0.0444   -0.3948 H   0  0  0  0  0  0  0  0  0  0  0  0
   -6.2870   -0.9785   -4.0589 H   0  0  0  0  0  0  0  0  0  0  0  0
   -4.7314   -2.5196   -5.6852 H   0  0  0  0  0  0  0  0  0  0  0  0
   -3.0249   -2.0419   -5.6690 H   0  0  0  0  0  0  0  0  0  0  0  0
   -4.2678   -0.8370   -6.0578 H   0  0  0  0  0  0  0  0  0  0  0  0
   -1.8414    1.2572   -1.7858 H   0  0  0  0  0  0  0  0  0  0  0  0
   -0.5804    0.3342   -2.5887 H   0  0  0  0  0  0  0  0  0  0  0  0
    3.3581    3.8639    3.1801 H   0  0  0  0  0  0  0  0  0  0  0  0
    3.4881    3.3675    1.4990 H   0  0  0  0  0  0  0  0  0  0  0  0
    3.3185    1.0788    1.0305 H   0  0  0  0  0  0  0  0  0  0  0  0
    4.8732   -0.4581    4.0949 H   0  0  0  0  0  0  0  0  0  0  0  0
    5.6981   -2.7422    4.0938 H   0  0  0  0  0  0  0  0  0  0  0  0
    6.0898   -4.8101    3.0633 H   0  0  0  0  0  0  0  0  0  0  0  0
    6.5525   -4.6606    1.3620 H   0  0  0  0  0  0  0  0  0  0  0  0
    4.9308   -5.2628    1.8154 H   0  0  0  0  0  0  0  0  0  0  0  0
    5.4851   -3.7280   -0.7477 H   0  0  0  0  0  0  0  0  0  0  0  0
    4.0342   -2.8340   -1.2115 H   0  0  0  0  0  0  0  0  0  0  0  0
    3.8691   -4.2936   -0.2316 H   0  0  0  0  0  0  0  0  0  0  0  0
    3.6752   -0.8721   -0.0264 H   0  0  0  0  0  0  0  0  0  0  0  0
   -1.3911    2.2370    2.1946 H   0  0  0  0  0  0  0  0  0  0  0  0
   -1.9897    0.9063    1.2284 H   0  0  0  0  0  0  0  0  0  0  0  0
   -4.3620    1.8447    0.0123 H   0  0  0  0  0  0  0  0  0  0  0  0
   -4.9945    4.2760   -1.0672 H   0  0  0  0  0  0  0  0  0  0  0  0
   -2.7473    5.8259   -0.6332 H   0  0  0  0  0  0  0  0  0  0  0  0
  1  2  1  0
  2  3  2  0
  3  4  1  0
  4  5  1  0
  4  6  2  0
  6  7  1  0
  7  8  1  0
  8  9  1  0
  9 10  1  0
 10 11  2  0
 11 12  1  0
 12 13  2  0
 13 14  1  0
 14 15  1  0
 15 16  1  0
 16 17  2  0
 16 18  1  0
 18 19  1  0
 19 20  2  0
 20 21  1  0
 21 22  2  0
 22 23  1  0
 22 24  1  0
 24 25  1  0
 24 26  2  0
 13 27  1  0
 27 28  1  0
 28 29  1  0
 29 30  2  0
 30 31  1  0
 31 32  2  0
 32 33  1  0
  7 34  2  0
 34  2  1  0
 27 10  1  0
 33 29  1  0
 26 19  1  0
  1 35  1  0
  1 36  1  0
  1 37  1  0
  3 38  1  0
  5 39  1  0
  5 40  1  0
  5 41  1  0
  9 42  1  0
  9 43  1  0
 15 44  1  0
 15 45  1  0
 18 46  1  0
 20 47  1  0
 21 48  1  0
 23 49  1  0
 23 50  1  0
 23 51  1  0
 25 52  1  0
 25 53  1  0
 25 54  1  0
 26 55  1  0
 28 56  1  0
 28 57  1  0
 30 58  1  0
 31 59  1  0
 32 60  1  0
M  END
$$$$
