
     RDKit          3D

 23 23  0  0  0  0  0  0  0  0999 V2000
   -2.2703    2.8304   -0.5371 O   0  0  0  0  0  0  0  0  0  0  0  0
   -1.3232    2.0664   -0.5161 C   0  0  0  0  0  0  0  0  0  0  0  0
   -0.0807    2.4850   -0.8277 O   0  0  0  0  0  0  0  0  0  0  0  0
   -1.3984    0.6092   -0.3104 C   0  0  0  0  0  0  0  0  0  0  0  0
   -2.4401   -0.0673   -0.9647 C   0  0  0  0  0  0  0  0  0  0  0  0
   -2.5762   -1.4478   -0.8248 C   0  0  0  0  0  0  0  0  0  0  0  0
   -1.6846   -2.1527   -0.0204 C   0  0  0  0  0  0  0  0  0  0  0  0
   -0.6612   -1.4767    0.6485 C   0  0  0  0  0  0  0  0  0  0  0  0
   -0.4970   -0.0912    0.5087 C   0  0  0  0  0  0  0  0  0  0  0  0
    0.5116    0.5320    1.2632 N   0  0  0  0  0  0  0  0  0  0  0  0
    1.7022    0.6712    0.7568 C   0  0  0  0  0  0  0  0  0  0  0  0
    2.1769    0.2583   -0.6034 C   0  0  0  0  0  0  0  0  0  0  0  0
    3.2487   -0.7451   -0.3634 N   0  0  0  0  0  4  0  0  0  0  0  0
    4.3861   -0.3104   -0.1396 O   0  0  0  0  0  0  0  0  0  0  0  0
    2.9283   -1.9396   -0.4023 O   0  0  0  0  0  1  0  0  0  0  0  0
   -0.2069    3.4501   -0.9554 H   0  0  0  0  0  0  0  0  0  0  0  0
   -3.1469    0.4833   -1.5828 H   0  0  0  0  0  0  0  0  0  0  0  0
   -3.3825   -1.9710   -1.3337 H   0  0  0  0  0  0  0  0  0  0  0  0
   -1.7929   -3.2281    0.1021 H   0  0  0  0  0  0  0  0  0  0  0  0
    0.0107   -2.0350    1.2976 H   0  0  0  0  0  0  0  0  0  0  0  0
    2.4499    1.1688    1.4006 H   0  0  0  0  0  0  0  0  0  0  0  0
    1.4162   -0.2000   -1.2353 H   0  0  0  0  0  0  0  0  0  0  0  0
    2.6304    1.1103   -1.1166 H   0  0  0  0  0  0  0  0  0  0  0  0
  1  2  2  0
  2  3  1  0
  2  4  1  0
  4  5  2  0
  5  6  1  0
  6  7  2  0
  7  8  1  0
  8  9  2  0
  9 10  1  0
 10 11  2  3
 11 12  1  0
 12 13  1  0
 13 14  2  0
 13 15  1  0
  9  4  1  0
  3 16  1  0
  5 17  1  0
  6 18  1  0
  7 19  1  0
  8 20  1  0
 11 21  1  0
 12 22  1  0
 12 23  1  0
M  CHG  2  13   1  15  -1
M  END
$$$$
