
     RDKit          3D

 48 51  0  0  0  0  0  0  0  0999 V2000
    3.3278   -0.5924   -3.2254 C   0  0  0  0  0  0  0  0  0  0  0  0
    2.8560   -1.5083   -2.1059 C   0  0  0  0  0  0  0  0  0  0  0  0
    2.6427   -0.7606   -0.8687 N   0  0  0  0  0  0  0  0  0  0  0  0
    1.4911   -0.0663   -0.4847 C   0  0  0  0  0  0  0  0  0  0  0  0
    0.3046   -0.0722   -1.1233 C   0  0  0  0  0  0  0  0  0  0  0  0
   -0.8884    0.6880   -0.7121 C   0  0  0  0  0  0  0  0  0  0  0  0
   -1.0086    1.9619   -1.2510 C   0  0  0  0  0  0  0  0  0  0  0  0
   -2.0957    2.7368   -0.9320 C   0  0  0  0  0  0  0  0  0  0  0  0
   -3.0533    2.2403   -0.0633 C   0  0  0  0  0  0  0  0  0  0  0  0
   -4.1295    3.0877    0.2154 C   0  0  0  0  0  0  0  0  0  0  0  0
   -5.1338    2.6911    1.0758 C   0  0  0  0  0  0  0  0  0  0  0  0
   -5.0593    1.4432    1.6708 C   0  0  0  0  0  0  0  0  0  0  0  0
   -3.9882    0.5456    1.4204 C   0  0  0  0  0  0  0  0  0  0  0  0
   -4.0996   -0.7254    2.2262 C   0  0  0  0  0  0  0  0  0  0  0  0
   -2.9412    0.9235    0.5207 C   0  0  0  0  0  0  0  0  0  0  0  0
   -1.8333    0.1668    0.1397 N   0  0  0  0  0  4  0  0  0  0  0  0
   -1.6267   -1.2395    0.5883 C   0  0  0  0  0  0  0  0  0  0  0  0
   -2.3280   -2.1885   -0.3676 C   0  0  0  0  0  0  0  0  0  0  0  0
    1.6839    0.8727    1.0249 S   0  0  0  0  0  0  0  0  0  0  0  0
    3.3912    0.3488    1.0845 C   0  0  0  0  0  0  0  0  0  0  0  0
    4.3161    0.7184    2.0515 C   0  0  0  0  0  0  0  0  0  0  0  0
    5.6163    0.2302    1.9439 C   0  0  0  0  0  0  0  0  0  0  0  0
    5.9684   -0.6097    0.8808 C   0  0  0  0  0  0  0  0  0  0  0  0
    5.0257   -0.9753   -0.0895 C   0  0  0  0  0  0  0  0  0  0  0  0
    3.7221   -0.4990    0.0035 C   0  0  0  0  0  0  0  0  0  0  0  0
    3.4643   -1.1636   -4.1490 H   0  0  0  0  0  0  0  0  0  0  0  0
    2.5989    0.2008   -3.4215 H   0  0  0  0  0  0  0  0  0  0  0  0
    4.2816   -0.1158   -2.9777 H   0  0  0  0  0  0  0  0  0  0  0  0
    3.5671   -2.3294   -1.9625 H   0  0  0  0  0  0  0  0  0  0  0  0
    1.9251   -1.9988   -2.4138 H   0  0  0  0  0  0  0  0  0  0  0  0
    0.1771   -0.6359   -2.0420 H   0  0  0  0  0  0  0  0  0  0  0  0
   -0.2486    2.3595   -1.9226 H   0  0  0  0  0  0  0  0  0  0  0  0
   -2.1771    3.7342   -1.3643 H   0  0  0  0  0  0  0  0  0  0  0  0
   -4.2028    4.0785   -0.2341 H   0  0  0  0  0  0  0  0  0  0  0  0
   -5.9687    3.3551    1.2923 H   0  0  0  0  0  0  0  0  0  0  0  0
   -5.8628    1.1715    2.3587 H   0  0  0  0  0  0  0  0  0  0  0  0
   -4.0930   -1.6110    1.5906 H   0  0  0  0  0  0  0  0  0  0  0  0
   -3.3146   -0.7641    2.9872 H   0  0  0  0  0  0  0  0  0  0  0  0
   -5.0475   -0.7814    2.7757 H   0  0  0  0  0  0  0  0  0  0  0  0
   -1.9264   -1.3487    1.6233 H   0  0  0  0  0  0  0  0  0  0  0  0
   -0.5617   -1.4770    0.6250 H   0  0  0  0  0  0  0  0  0  0  0  0
   -1.8631   -2.1615   -1.3583 H   0  0  0  0  0  0  0  0  0  0  0  0
   -2.2644   -3.2156    0.0043 H   0  0  0  0  0  0  0  0  0  0  0  0
   -3.3827   -1.9332   -0.5022 H   0  0  0  0  0  0  0  0  0  0  0  0
    4.0417    1.3744    2.8713 H   0  0  0  0  0  0  0  0  0  0  0  0
    6.3633    0.5044    2.6860 H   0  0  0  0  0  0  0  0  0  0  0  0
    6.9888   -0.9817    0.8072 H   0  0  0  0  0  0  0  0  0  0  0  0
    5.3451   -1.6253   -0.8966 H   0  0  0  0  0  0  0  0  0  0  0  0
  1  2  1  0
  2  3  1  0
  3  4  1  0
  4  5  2  3
  5  6  1  0
  6  7  2  0
  7  8  1  0
  8  9  2  0
  9 10  1  0
 10 11  2  0
 11 12  1  0
 12 13  2  0
 13 14  1  0
 13 15  1  0
 15 16  2  0
 16 17  1  0
 17 18  1  0
  4 19  1  0
 19 20  1  0
 20 21  2  0
 21 22  1  0
 22 23  2  0
 23 24  1  0
 24 25  2  0
 25  3  1  0
 16  6  1  0
 25 20  1  0
 15  9  1  0
  1 26  1  0
  1 27  1  0
  1 28  1  0
  2 29  1  0
  2 30  1  0
  5 31  1  0
  7 32  1  0
  8 33  1  0
 10 34  1  0
 11 35  1  0
 12 36  1  0
 14 37  1  0
 14 38  1  0
 14 39  1  0
 17 40  1  0
 17 41  1  0
 18 42  1  0
 18 43  1  0
 18 44  1  0
 21 45  1  0
 22 46  1  0
 23 47  1  0
 24 48  1  0
M  CHG  1  16   1
M  END
$$$$
