
     RDKit          3D

 54 56  0  0  0  0  0  0  0  0999 V2000
    7.6643    0.7189    2.6131 C   0  0  0  0  0  0  0  0  0  0  0  0
    6.4887    1.3111    2.0780 O   0  0  0  0  0  0  0  0  0  0  0  0
    5.8955    0.6676    1.0273 C   0  0  0  0  0  0  0  0  0  0  0  0
    6.3032   -0.5450    0.4712 C   0  0  0  0  0  0  0  0  0  0  0  0
    5.6065   -1.0916   -0.6126 C   0  0  0  0  0  0  0  0  0  0  0  0
    4.4948   -0.4336   -1.1545 C   0  0  0  0  0  0  0  0  0  0  0  0
    3.7487   -1.0252   -2.3236 C   0  0  0  0  0  0  0  0  0  0  0  0
    2.8648   -2.2217   -1.9470 C   0  0  0  0  0  0  0  0  0  0  0  0
    1.7047   -1.8907   -1.0032 C   0  0  0  0  0  0  0  0  0  0  0  0
    0.7439   -0.9278   -1.5885 C   0  0  0  0  0  0  0  0  0  0  0  0
    0.4500    0.2971   -1.2117 N   0  0  0  0  0  0  0  0  0  0  0  0
   -0.4976    0.7562   -2.0994 N   0  0  0  0  0  0  0  0  0  0  0  0
   -0.7291   -0.2264   -2.9482 C   0  0  0  0  0  0  0  0  0  0  0  0
   -1.8578   -0.1428   -4.2606 S   0  0  0  0  0  0  0  0  0  0  0  0
   -2.9112    1.2222   -3.6952 C   0  0  0  0  0  0  0  0  0  0  0  0
   -3.8105    0.7605   -2.5574 C   0  0  0  0  0  0  0  0  0  0  0  0
   -4.8329    0.1224   -2.7958 O   0  0  0  0  0  0  0  0  0  0  0  0
   -3.3529    1.1317   -1.3052 N   0  0  0  0  0  0  0  0  0  0  0  0
   -3.9588    0.8936   -0.0466 C   0  0  0  0  0  0  0  0  0  0  0  0
   -5.1723    0.2149    0.1017 C   0  0  0  0  0  0  0  0  0  0  0  0
   -5.7432   -0.0080    1.3716 C   0  0  0  0  0  0  0  0  0  0  0  0
   -7.0474   -0.7542    1.4649 C   0  0  0  0  0  0  0  0  0  0  0  0
   -5.0824    0.4561    2.5237 C   0  0  0  0  0  0  0  0  0  0  0  0
   -5.6485    0.2320    3.8990 C   0  0  0  0  0  0  0  0  0  0  0  0
   -3.8707    1.1436    2.3797 C   0  0  0  0  0  0  0  0  0  0  0  0
   -3.3189    1.3615    1.1126 C   0  0  0  0  0  0  0  0  0  0  0  0
   -1.6855    2.3338    1.0269 Br  0  0  0  0  0  0  0  0  0  0  0  0
    0.0339   -1.3319   -2.6853 O   0  0  0  0  0  0  0  0  0  0  0  0
    4.0866    0.7790   -0.5886 C   0  0  0  0  0  0  0  0  0  0  0  0
    4.7824    1.3212    0.4945 C   0  0  0  0  0  0  0  0  0  0  0  0
    7.4422   -0.2539    3.0644 H   0  0  0  0  0  0  0  0  0  0  0  0
    8.0397    1.3770    3.4041 H   0  0  0  0  0  0  0  0  0  0  0  0
    8.4475    0.6335    1.8529 H   0  0  0  0  0  0  0  0  0  0  0  0
    7.1593   -1.0914    0.8538 H   0  0  0  0  0  0  0  0  0  0  0  0
    5.9456   -2.0354   -1.0366 H   0  0  0  0  0  0  0  0  0  0  0  0
    4.4856   -1.3504   -3.0700 H   0  0  0  0  0  0  0  0  0  0  0  0
    3.1540   -0.2511   -2.8238 H   0  0  0  0  0  0  0  0  0  0  0  0
    3.4793   -3.0014   -1.4799 H   0  0  0  0  0  0  0  0  0  0  0  0
    2.4661   -2.6572   -2.8728 H   0  0  0  0  0  0  0  0  0  0  0  0
    2.0831   -1.5024   -0.0510 H   0  0  0  0  0  0  0  0  0  0  0  0
    1.1683   -2.8175   -0.7655 H   0  0  0  0  0  0  0  0  0  0  0  0
   -3.5554    1.5358   -4.5235 H   0  0  0  0  0  0  0  0  0  0  0  0
   -2.3187    2.0975   -3.4110 H   0  0  0  0  0  0  0  0  0  0  0  0
   -2.4357    1.5750   -1.2527 H   0  0  0  0  0  0  0  0  0  0  0  0
   -5.7062   -0.1632   -0.7661 H   0  0  0  0  0  0  0  0  0  0  0  0
   -7.4497   -0.9907    0.4727 H   0  0  0  0  0  0  0  0  0  0  0  0
   -6.9054   -1.6993    2.0006 H   0  0  0  0  0  0  0  0  0  0  0  0
   -7.7972   -0.1478    1.9843 H   0  0  0  0  0  0  0  0  0  0  0  0
   -4.9979    0.6501    4.6755 H   0  0  0  0  0  0  0  0  0  0  0  0
   -6.6272    0.7152    3.9916 H   0  0  0  0  0  0  0  0  0  0  0  0
   -5.7496   -0.8406    4.0977 H   0  0  0  0  0  0  0  0  0  0  0  0
   -3.3541    1.5147    3.2614 H   0  0  0  0  0  0  0  0  0  0  0  0
    3.2233    1.3139   -0.9811 H   0  0  0  0  0  0  0  0  0  0  0  0
    4.4547    2.2650    0.9239 H   0  0  0  0  0  0  0  0  0  0  0  0
  1  2  1  0
  2  3  1  0
  3  4  2  0
  4  5  1  0
  5  6  2  0
  6  7  1  0
  7  8  1  0
  8  9  1  0
  9 10  1  0
 10 11  2  0
 11 12  1  0
 12 13  2  0
 13 14  1  0
 14 15  1  0
 15 16  1  0
 16 17  2  0
 16 18  1  0
 18 19  1  0
 19 20  2  0
 20 21  1  0
 21 22  1  0
 21 23  2  0
 23 24  1  0
 23 25  1  0
 25 26  2  0
 26 27  1  0
 13 28  1  0
  6 29  1  0
 29 30  2  0
 30  3  1  0
 28 10  1  0
 26 19  1  0
  1 31  1  0
  1 32  1  0
  1 33  1  0
  4 34  1  0
  5 35  1  0
  7 36  1  0
  7 37  1  0
  8 38  1  0
  8 39  1  0
  9 40  1  0
  9 41  1  0
 15 42  1  0
 15 43  1  0
 18 44  1  0
 20 45  1  0
 22 46  1  0
 22 47  1  0
 22 48  1  0
 24 49  1  0
 24 50  1  0
 24 51  1  0
 25 52  1  0
 29 53  1  0
 30 54  1  0
M  END
$$$$
