
     RDKit          3D

 41 43  0  0  0  0  0  0  0  0999 V2000
    2.6622    0.9206   -1.7636 O   0  0  0  0  0  0  0  0  0  0  0  0
    1.6913    1.5035   -1.2857 C   0  0  0  0  0  0  0  0  0  0  0  0
    1.8868    2.7799   -0.4845 C   0  0  0  0  0  0  0  0  0  0  0  0
    1.5985    2.5253    1.2930 S   0  0  0  0  0  0  0  0  0  0  0  0
    2.7353    1.1659    1.5795 C   0  0  0  0  0  0  0  0  0  0  0  0
    4.1077    1.4347    1.7154 C   0  0  0  0  0  0  0  0  0  0  0  0
    5.0121    0.3952    1.9205 C   0  0  0  0  0  0  0  0  0  0  0  0
    4.5577   -0.9147    1.9938 C   0  0  0  0  0  0  0  0  0  0  0  0
    3.1951   -1.1724    1.8663 C   0  0  0  0  0  0  0  0  0  0  0  0
    2.2710   -0.1555    1.6648 N   0  0  0  0  0  4  0  0  0  0  0  0
    1.0342   -0.4547    1.5664 O   0  0  0  0  0  1  0  0  0  0  0  0
    0.3673    1.1349   -1.4035 N   0  0  0  0  0  0  0  0  0  0  0  0
   -0.1692    0.0204   -2.0844 C   0  0  0  0  0  0  0  0  0  0  0  0
    0.5901   -0.8621   -2.8543 C   0  0  0  0  0  0  0  0  0  0  0  0
   -0.0189   -1.9488   -3.4930 C   0  0  0  0  0  0  0  0  0  0  0  0
   -1.3920   -2.1601   -3.3749 C   0  0  0  0  0  0  0  0  0  0  0  0
   -2.1646   -1.2839   -2.6170 C   0  0  0  0  0  0  0  0  0  0  0  0
   -1.5519   -0.2071   -1.9669 C   0  0  0  0  0  0  0  0  0  0  0  0
   -2.3101    0.7098   -1.2632 O   0  0  0  0  0  0  0  0  0  0  0  0
   -3.0510    0.2115   -0.2155 C   0  0  0  0  0  0  0  0  0  0  0  0
   -4.3913    0.5929   -0.1438 C   0  0  0  0  0  0  0  0  0  0  0  0
   -5.1840    0.1486    0.9150 C   0  0  0  0  0  0  0  0  0  0  0  0
   -4.6305   -0.6604    1.9081 C   0  0  0  0  0  0  0  0  0  0  0  0
   -3.2837   -1.0204    1.8468 C   0  0  0  0  0  0  0  0  0  0  0  0
   -2.4893   -0.5804    0.7875 C   0  0  0  0  0  0  0  0  0  0  0  0
    2.9044    3.1510   -0.6448 H   0  0  0  0  0  0  0  0  0  0  0  0
    1.1986    3.5470   -0.8542 H   0  0  0  0  0  0  0  0  0  0  0  0
    4.4757    2.4565    1.6576 H   0  0  0  0  0  0  0  0  0  0  0  0
    6.0746    0.6100    2.0179 H   0  0  0  0  0  0  0  0  0  0  0  0
    5.2544   -1.7344    2.1475 H   0  0  0  0  0  0  0  0  0  0  0  0
    2.7457   -2.1530    1.9085 H   0  0  0  0  0  0  0  0  0  0  0  0
   -0.3049    1.6257   -0.8192 H   0  0  0  0  0  0  0  0  0  0  0  0
    1.6605   -0.7347   -2.9774 H   0  0  0  0  0  0  0  0  0  0  0  0
    0.5860   -2.6301   -4.0864 H   0  0  0  0  0  0  0  0  0  0  0  0
   -1.8588   -3.0030   -3.8775 H   0  0  0  0  0  0  0  0  0  0  0  0
   -3.2367   -1.4375   -2.5376 H   0  0  0  0  0  0  0  0  0  0  0  0
   -4.8177    1.2300   -0.9131 H   0  0  0  0  0  0  0  0  0  0  0  0
   -6.2302    0.4370    0.9694 H   0  0  0  0  0  0  0  0  0  0  0  0
   -5.2453   -1.0030    2.7363 H   0  0  0  0  0  0  0  0  0  0  0  0
   -2.8442   -1.6358    2.6277 H   0  0  0  0  0  0  0  0  0  0  0  0
   -1.4350   -0.8481    0.7641 H   0  0  0  0  0  0  0  0  0  0  0  0
  1  2  2  0
  2  3  1  0
  3  4  1  0
  4  5  1  0
  5  6  2  0
  6  7  1  0
  7  8  2  0
  8  9  1  0
  9 10  2  0
 10 11  1  0
  2 12  1  0
 12 13  1  0
 13 14  2  0
 14 15  1  0
 15 16  2  0
 16 17  1  0
 17 18  2  0
 18 19  1  0
 19 20  1  0
 20 21  2  0
 21 22  1  0
 22 23  2  0
 23 24  1  0
 24 25  2  0
 10  5  1  0
 18 13  1  0
 25 20  1  0
  3 26  1  0
  3 27  1  0
  6 28  1  0
  7 29  1  0
  8 30  1  0
  9 31  1  0
 12 32  1  0
 14 33  1  0
 15 34  1  0
 16 35  1  0
 17 36  1  0
 21 37  1  0
 22 38  1  0
 23 39  1  0
 24 40  1  0
 25 41  1  0
M  CHG  2  10   1  11  -1
M  END
$$$$
