
     RDKit          3D

 58 59  0  0  0  0  0  0  0  0999 V2000
    6.9564   -1.4069   -2.5884 C   0  0  0  0  0  0  0  0  0  0  0  0
    7.9620   -1.7148   -1.4912 C   0  0  0  0  0  0  0  0  0  0  0  0
    8.0992   -0.6179   -0.4290 C   0  0  0  0  0  0  0  0  0  0  0  0
    6.8443   -0.3970    0.4165 C   0  0  0  0  0  0  0  0  0  0  0  0
    5.8816    0.3236   -0.3509 O   0  0  0  0  0  0  0  0  0  0  0  0
    4.6837    0.5998    0.2460 C   0  0  0  0  0  0  0  0  0  0  0  0
    4.3233    0.2781    1.5543 C   0  0  0  0  0  0  0  0  0  0  0  0
    3.0566    0.6250    2.0384 C   0  0  0  0  0  0  0  0  0  0  0  0
    2.1387    1.2879    1.2154 C   0  0  0  0  0  0  0  0  0  0  0  0
    0.8032    1.6332    1.7753 C   0  0  0  0  0  0  0  0  0  0  0  0
    0.6481    1.7620    2.9843 O   0  0  0  0  0  0  0  0  0  0  0  0
   -0.2322    1.7461    0.8685 N   0  0  0  0  0  0  0  0  0  0  0  0
   -1.5970    1.8810    1.3535 C   0  0  0  0  0  0  0  0  0  0  0  0
   -2.2092    0.5116    1.6198 C   0  0  0  0  0  0  0  0  0  0  0  0
   -1.8370   -0.5360    1.1049 O   0  0  0  0  0  0  0  0  0  0  0  0
   -3.2914    0.6270    2.4373 O   0  0  0  0  0  0  0  0  0  0  0  0
   -3.8863   -0.6050    2.8447 C   0  0  0  0  0  0  0  0  0  0  0  0
   -4.4924   -1.5059    1.7624 C   0  0  0  0  0  0  0  0  0  0  0  0
   -4.4747   -2.7348    1.8796 O   0  0  0  0  0  0  0  0  0  0  0  0
   -5.0676   -0.8639    0.5423 C   0  0  0  0  0  0  0  0  0  0  0  0
   -4.8363   -1.3930   -0.6782 C   0  0  0  0  0  0  0  0  0  0  0  0
   -4.1663   -2.5987   -0.8585 N   0  0  0  0  0  0  0  0  0  0  0  0
   -5.2904   -0.7130   -1.8040 N   0  0  0  0  0  0  0  0  0  0  0  0
   -5.1334   -1.3408   -3.1163 C   0  0  0  0  0  0  0  0  0  0  0  0
   -5.9250    0.5264   -1.7587 C   0  0  0  0  0  0  0  0  0  0  0  0
   -6.3127    1.1123   -2.7717 O   0  0  0  0  0  0  0  0  0  0  0  0
   -6.1030    1.0709   -0.4970 N   0  0  0  0  0  0  0  0  0  0  0  0
   -6.8172    2.3314   -0.4064 C   0  0  0  0  0  0  0  0  0  0  0  0
   -5.8366    0.3881    0.6670 C   0  0  0  0  0  0  0  0  0  0  0  0
   -6.2097    0.7655    1.7764 O   0  0  0  0  0  0  0  0  0  0  0  0
    2.5046    1.6245   -0.0916 C   0  0  0  0  0  0  0  0  0  0  0  0
    3.7715    1.2764   -0.5692 C   0  0  0  0  0  0  0  0  0  0  0  0
    5.9302   -1.4354   -2.2113 H   0  0  0  0  0  0  0  0  0  0  0  0
    7.1413   -0.4235   -3.0312 H   0  0  0  0  0  0  0  0  0  0  0  0
    7.0307   -2.1552   -3.3849 H   0  0  0  0  0  0  0  0  0  0  0  0
    7.6974   -2.6648   -1.0122 H   0  0  0  0  0  0  0  0  0  0  0  0
    8.9442   -1.8618   -1.9570 H   0  0  0  0  0  0  0  0  0  0  0  0
    8.9191   -0.9048    0.2408 H   0  0  0  0  0  0  0  0  0  0  0  0
    8.3877    0.3211   -0.9173 H   0  0  0  0  0  0  0  0  0  0  0  0
    6.4394   -1.3630    0.7402 H   0  0  0  0  0  0  0  0  0  0  0  0
    7.1233    0.1988    1.2939 H   0  0  0  0  0  0  0  0  0  0  0  0
    5.0009   -0.2375    2.2266 H   0  0  0  0  0  0  0  0  0  0  0  0
    2.7865    0.3723    3.0624 H   0  0  0  0  0  0  0  0  0  0  0  0
   -0.1120    1.2885   -0.0266 H   0  0  0  0  0  0  0  0  0  0  0  0
   -2.1811    2.3796    0.5756 H   0  0  0  0  0  0  0  0  0  0  0  0
   -1.6065    2.4775    2.2706 H   0  0  0  0  0  0  0  0  0  0  0  0
   -3.1278   -1.1858    3.3847 H   0  0  0  0  0  0  0  0  0  0  0  0
   -4.6764   -0.3728    3.5664 H   0  0  0  0  0  0  0  0  0  0  0  0
   -3.3182   -2.4772   -1.4081 H   0  0  0  0  0  0  0  0  0  0  0  0
   -3.9221   -3.0535    0.0307 H   0  0  0  0  0  0  0  0  0  0  0  0
   -4.0666   -1.4384   -3.3429 H   0  0  0  0  0  0  0  0  0  0  0  0
   -5.5968   -0.7569   -3.9160 H   0  0  0  0  0  0  0  0  0  0  0  0
   -5.6067   -2.3284   -3.1063 H   0  0  0  0  0  0  0  0  0  0  0  0
   -6.6465    2.8184    0.5580 H   0  0  0  0  0  0  0  0  0  0  0  0
   -7.8872    2.1309   -0.5208 H   0  0  0  0  0  0  0  0  0  0  0  0
   -6.4982    3.0095   -1.2039 H   0  0  0  0  0  0  0  0  0  0  0  0
    1.8340    2.1780   -0.7419 H   0  0  0  0  0  0  0  0  0  0  0  0
    4.0567    1.5414   -1.5849 H   0  0  0  0  0  0  0  0  0  0  0  0
  1  2  1  0
  2  3  1  0
  3  4  1  0
  4  5  1  0
  5  6  1  0
  6  7  2  0
  7  8  1  0
  8  9  2  0
  9 10  1  0
 10 11  2  0
 10 12  1  0
 12 13  1  0
 13 14  1  0
 14 15  2  0
 14 16  1  0
 16 17  1  0
 17 18  1  0
 18 19  2  0
 18 20  1  0
 20 21  2  0
 21 22  1  0
 21 23  1  0
 23 24  1  0
 23 25  1  0
 25 26  2  0
 25 27  1  0
 27 28  1  0
 27 29  1  0
 29 30  2  0
  9 31  1  0
 31 32  2  0
 32  6  1  0
 29 20  1  0
  1 33  1  0
  1 34  1  0
  1 35  1  0
  2 36  1  0
  2 37  1  0
  3 38  1  0
  3 39  1  0
  4 40  1  0
  4 41  1  0
  7 42  1  0
  8 43  1  0
 12 44  1  0
 13 45  1  0
 13 46  1  0
 17 47  1  0
 17 48  1  0
 22 49  1  0
 22 50  1  0
 24 51  1  0
 24 52  1  0
 24 53  1  0
 28 54  1  0
 28 55  1  0
 28 56  1  0
 31 57  1  0
 32 58  1  0
M  END
$$$$
