
     RDKit          3D

 24 25  0  0  0  0  0  0  0  0999 V2000
    4.6577    0.5588    0.6814 C   0  0  0  0  0  0  0  0  0  0  0  0
    2.8546    0.6771    0.7206 S   0  0  0  0  0  0  0  0  0  0  0  0
    2.4155   -0.5190   -0.4541 C   0  0  0  0  0  0  0  0  0  0  0  0
    3.2913   -1.2672   -1.0905 N   0  0  0  0  0  0  0  0  0  0  0  0
    2.5726   -2.1595   -1.8264 N   0  0  0  0  0  0  0  0  0  0  0  0
    1.2745   -1.9809   -1.6535 N   0  0  0  0  0  0  0  0  0  0  0  0
    1.1298   -0.9126   -0.8167 N   0  0  0  0  0  0  0  0  0  0  0  0
   -0.1803   -0.4412   -0.5044 C   0  0  0  0  0  0  0  0  0  0  0  0
   -1.2852   -1.2204   -0.8929 C   0  0  0  0  0  0  0  0  0  0  0  0
   -2.5924   -0.8088   -0.6124 C   0  0  0  0  0  0  0  0  0  0  0  0
   -2.8347    0.3959    0.0563 C   0  0  0  0  0  0  0  0  0  0  0  0
   -4.2490    0.8142    0.3435 C   0  0  0  0  0  0  0  0  0  0  0  0
   -1.7353    1.1809    0.4280 C   0  0  0  0  0  0  0  0  0  0  0  0
   -1.9475    2.6951    1.2368 Cl  0  0  0  0  0  0  0  0  0  0  0  0
   -0.4222    0.7706    0.1491 C   0  0  0  0  0  0  0  0  0  0  0  0
    4.9859   -0.4427    0.9735 H   0  0  0  0  0  0  0  0  0  0  0  0
    5.0388    0.7916   -0.3169 H   0  0  0  0  0  0  0  0  0  0  0  0
    5.0793    1.2791    1.3877 H   0  0  0  0  0  0  0  0  0  0  0  0
   -1.1557   -2.1697   -1.4130 H   0  0  0  0  0  0  0  0  0  0  0  0
   -3.4208   -1.4432   -0.9239 H   0  0  0  0  0  0  0  0  0  0  0  0
   -4.9674    0.0640   -0.0044 H   0  0  0  0  0  0  0  0  0  0  0  0
   -4.4807    1.7533   -0.1690 H   0  0  0  0  0  0  0  0  0  0  0  0
   -4.4006    0.9359    1.4208 H   0  0  0  0  0  0  0  0  0  0  0  0
    0.3720    1.4487    0.4339 H   0  0  0  0  0  0  0  0  0  0  0  0
  1  2  1  0
  2  3  1  0
  3  4  2  0
  4  5  1  0
  5  6  2  0
  6  7  1  0
  7  8  1  0
  8  9  2  0
  9 10  1  0
 10 11  2  0
 11 12  1  0
 11 13  1  0
 13 14  1  0
 13 15  2  0
  7  3  1  0
 15  8  1  0
  1 16  1  0
  1 17  1  0
  1 18  1  0
  9 19  1  0
 10 20  1  0
 12 21  1  0
 12 22  1  0
 12 23  1  0
 15 24  1  0
M  END
$$$$
