
     RDKit          3D

 60 65  0  0  0  0  0  0  0  0999 V2000
   -2.5141   -2.2424    4.9965 O   0  0  0  0  0  0  0  0  0  0  0  0
   -2.6242   -1.9711    3.8062 C   0  0  0  0  0  0  0  0  0  0  0  0
   -1.5348   -1.5673    3.0430 N   0  0  0  0  0  0  0  0  0  0  0  0
   -1.5955   -1.2724    1.6823 C   0  0  0  0  0  0  0  0  0  0  0  0
   -0.2730   -0.8321    1.0691 C   0  0  0  0  0  0  0  0  0  0  0  0
    0.0481    0.6010    1.5182 C   0  0  0  0  0  0  0  0  0  0  0  0
    1.3321    1.1162    0.8724 C   0  0  0  0  0  0  0  0  0  0  0  0
    1.2150    1.0061   -0.5980 N   0  0  0  0  0  0  0  0  0  0  0  0
    2.2692    1.9747   -1.5255 S   0  0  0  0  0  6  0  0  0  0  0  0
    2.2802    3.3033   -0.9502 O   0  0  0  0  0  0  0  0  0  0  0  0
    1.9603    1.7690   -2.9242 O   0  0  0  0  0  0  0  0  0  0  0  0
    3.8628    1.2451   -1.2142 C   0  0  0  0  0  0  0  0  0  0  0  0
    4.6657    1.7463   -0.1826 C   0  0  0  0  0  0  0  0  0  0  0  0
    5.9235    1.1855    0.0442 C   0  0  0  0  0  0  0  0  0  0  0  0
    6.3763    0.1447   -0.7665 C   0  0  0  0  0  0  0  0  0  0  0  0
    5.5660   -0.3545   -1.7933 C   0  0  0  0  0  0  0  0  0  0  0  0
    4.3166    0.2098   -2.0370 C   0  0  0  0  0  0  0  0  0  0  0  0
    5.9391   -1.3923   -2.6078 O   0  0  0  0  0  0  0  0  0  0  0  0
    7.0750   -2.0921   -2.0857 C   0  0  0  0  0  0  0  0  0  0  0  0
    8.1319   -1.1174   -1.5933 C   0  0  0  0  0  0  0  0  0  0  0  0
    7.6296   -0.3425   -0.4978 O   0  0  0  0  0  0  0  0  0  0  0  0
    1.0111   -0.3860   -1.0600 C   0  0  0  0  0  0  0  0  0  0  0  0
   -0.2877   -0.9171   -0.4631 C   0  0  0  0  0  0  0  0  0  0  0  0
   -2.6901   -1.3245    0.9749 N   0  0  0  0  0  0  0  0  0  0  0  0
   -3.7730   -1.6945    1.7016 C   0  0  0  0  0  0  0  0  0  0  0  0
   -3.8350   -2.0225    3.0340 C   0  0  0  0  0  0  0  0  0  0  0  0
   -5.1060   -2.3509    3.3881 N   0  0  0  0  0  0  0  0  0  0  0  0
   -5.8647   -2.2273    2.2989 N   0  0  0  0  0  0  0  0  0  0  0  0
   -5.0701   -1.8023    1.2856 N   0  0  0  0  0  0  0  0  0  0  0  0
   -5.6045   -1.5758   -0.0420 C   0  0  0  0  0  0  0  0  0  0  0  0
   -5.8598   -0.1148   -0.2948 C   0  0  0  0  0  0  0  0  0  0  0  0
   -4.8528    0.7234   -0.7978 C   0  0  0  0  0  0  0  0  0  0  0  0
   -5.1001    2.0834   -1.0028 C   0  0  0  0  0  0  0  0  0  0  0  0
   -6.3527    2.6208   -0.7070 C   0  0  0  0  0  0  0  0  0  0  0  0
   -7.3593    1.7977   -0.2060 C   0  0  0  0  0  0  0  0  0  0  0  0
   -7.1065    0.4438   -0.0036 C   0  0  0  0  0  0  0  0  0  0  0  0
   -8.0907   -0.3323    0.4703 F   0  0  0  0  0  0  0  0  0  0  0  0
   -0.6642   -1.5198    3.5510 H   0  0  0  0  0  0  0  0  0  0  0  0
    0.5094   -1.5022    1.4515 H   0  0  0  0  0  0  0  0  0  0  0  0
   -0.7864    1.2641    1.2537 H   0  0  0  0  0  0  0  0  0  0  0  0
    0.1482    0.6475    2.6091 H   0  0  0  0  0  0  0  0  0  0  0  0
    2.1907    0.5352    1.2268 H   0  0  0  0  0  0  0  0  0  0  0  0
    1.4745    2.1582    1.1746 H   0  0  0  0  0  0  0  0  0  0  0  0
    4.3268    2.5749    0.4359 H   0  0  0  0  0  0  0  0  0  0  0  0
    6.5594    1.5712    0.8372 H   0  0  0  0  0  0  0  0  0  0  0  0
    3.7074   -0.1620   -2.8571 H   0  0  0  0  0  0  0  0  0  0  0  0
    7.4793   -2.7142   -2.8900 H   0  0  0  0  0  0  0  0  0  0  0  0
    6.7338   -2.7536   -1.2801 H   0  0  0  0  0  0  0  0  0  0  0  0
    8.4498   -0.4326   -2.3893 H   0  0  0  0  0  0  0  0  0  0  0  0
    9.0131   -1.6612   -1.2385 H   0  0  0  0  0  0  0  0  0  0  0  0
    1.8542   -1.0147   -0.7521 H   0  0  0  0  0  0  0  0  0  0  0  0
    0.9309   -0.4267   -2.1507 H   0  0  0  0  0  0  0  0  0  0  0  0
   -1.1275   -0.3360   -0.8676 H   0  0  0  0  0  0  0  0  0  0  0  0
   -0.4413   -1.9561   -0.7792 H   0  0  0  0  0  0  0  0  0  0  0  0
   -4.8853   -1.9763   -0.7663 H   0  0  0  0  0  0  0  0  0  0  0  0
   -6.5219   -2.1663   -0.1488 H   0  0  0  0  0  0  0  0  0  0  0  0
   -3.8654    0.3257   -1.0266 H   0  0  0  0  0  0  0  0  0  0  0  0
   -4.3118    2.7249   -1.3908 H   0  0  0  0  0  0  0  0  0  0  0  0
   -6.5426    3.6795   -0.8650 H   0  0  0  0  0  0  0  0  0  0  0  0
   -8.3390    2.2009    0.0303 H   0  0  0  0  0  0  0  0  0  0  0  0
  1  2  2  0
  2  3  1  0
  3  4  1  0
  4  5  1  0
  5  6  1  0
  6  7  1  0
  7  8  1  0
  8  9  1  0
  9 10  2  0
  9 11  2  0
  9 12  1  0
 12 13  2  0
 13 14  1  0
 14 15  2  0
 15 16  1  0
 16 17  2  0
 16 18  1  0
 18 19  1  0
 19 20  1  0
 20 21  1  0
  8 22  1  0
 22 23  1  0
  4 24  2  0
 24 25  1  0
 25 26  2  0
 26 27  1  0
 27 28  2  0
 28 29  1  0
 29 30  1  0
 30 31  1  0
 31 32  2  0
 32 33  1  0
 33 34  2  0
 34 35  1  0
 35 36  2  0
 36 37  1  0
 26  2  1  0
 36 31  1  0
 23  5  1  0
 29 25  1  0
 17 12  1  0
 21 15  1  0
  3 38  1  0
  5 39  1  0
  6 40  1  0
  6 41  1  0
  7 42  1  0
  7 43  1  0
 13 44  1  0
 14 45  1  0
 17 46  1  0
 19 47  1  0
 19 48  1  0
 20 49  1  0
 20 50  1  0
 22 51  1  0
 22 52  1  0
 23 53  1  0
 23 54  1  0
 30 55  1  0
 30 56  1  0
 32 57  1  0
 33 58  1  0
 34 59  1  0
 35 60  1  0
M  END
$$$$
