
     RDKit          3D

 45 44  0  0  0  0  0  0  0  0999 V2000
    7.0565   -3.0016    0.7492 C   0  0  0  0  0  0  0  0  0  0  0  0
    6.1522   -2.9068   -0.4699 C   0  0  0  0  0  0  0  0  0  0  0  0
    4.6627   -2.8861   -0.1239 C   0  0  0  0  0  0  0  0  0  0  0  0
    4.2413   -1.6437    0.6588 C   0  0  0  0  0  0  0  0  0  0  0  0
    2.8159   -1.6261    0.8942 N   0  0  0  0  0  0  0  0  0  0  0  0
    1.9209   -1.1558   -0.0164 C   0  0  0  0  0  0  0  0  0  0  0  0
    2.2040   -0.6412   -1.0862 O   0  0  0  0  0  0  0  0  0  0  0  0
    0.6704   -1.3556    0.4595 O   0  0  0  0  0  0  0  0  0  0  0  0
   -0.4155   -0.9096   -0.3692 C   0  0  0  0  0  0  0  0  0  0  0  0
   -1.2876    0.0963    0.4003 C   0  0  0  0  0  0  0  0  0  0  0  0
   -0.5285    1.3641    0.8408 C   0  0  0  0  0  0  0  0  0  0  0  0
   -0.0141    2.2258   -0.3052 C   0  0  0  0  0  0  0  0  0  0  0  0
   -2.4836    0.4344   -0.3596 N   0  0  0  0  0  0  0  0  0  0  0  0
   -3.6447    0.8255    0.2345 C   0  0  0  0  0  0  0  0  0  0  0  0
   -3.8745    0.7932    1.4328 O   0  0  0  0  0  0  0  0  0  0  0  0
   -4.4942    1.2693   -0.7225 O   0  0  0  0  0  0  0  0  0  0  0  0
   -5.7754    1.7369   -0.2619 C   0  0  0  0  0  0  0  0  0  0  0  0
   -6.7482    1.6012   -1.4271 C   0  0  0  0  0  0  0  0  0  0  0  0
   -5.6599    3.1925    0.1769 C   0  0  0  0  0  0  0  0  0  0  0  0
    6.9878   -2.1039    1.3704 H   0  0  0  0  0  0  0  0  0  0  0  0
    8.0999   -3.1075    0.4352 H   0  0  0  0  0  0  0  0  0  0  0  0
    6.7981   -3.8696    1.3638 H   0  0  0  0  0  0  0  0  0  0  0  0
    6.4130   -2.0135   -1.0491 H   0  0  0  0  0  0  0  0  0  0  0  0
    6.3469   -3.7712   -1.1160 H   0  0  0  0  0  0  0  0  0  0  0  0
    4.0911   -2.9377   -1.0593 H   0  0  0  0  0  0  0  0  0  0  0  0
    4.4006   -3.7873    0.4445 H   0  0  0  0  0  0  0  0  0  0  0  0
    4.7213   -1.6165    1.6415 H   0  0  0  0  0  0  0  0  0  0  0  0
    4.5213   -0.7363    0.1124 H   0  0  0  0  0  0  0  0  0  0  0  0
    2.4249   -2.0956    1.6988 H   0  0  0  0  0  0  0  0  0  0  0  0
   -1.0130   -1.7974   -0.6086 H   0  0  0  0  0  0  0  0  0  0  0  0
   -0.0874   -0.4930   -1.3280 H   0  0  0  0  0  0  0  0  0  0  0  0
   -1.6163   -0.3971    1.3251 H   0  0  0  0  0  0  0  0  0  0  0  0
    0.3170    1.0837    1.4801 H   0  0  0  0  0  0  0  0  0  0  0  0
   -1.1902    1.9823    1.4605 H   0  0  0  0  0  0  0  0  0  0  0  0
    0.4899    3.1123    0.0936 H   0  0  0  0  0  0  0  0  0  0  0  0
   -0.8320    2.5690   -0.9459 H   0  0  0  0  0  0  0  0  0  0  0  0
    0.7073    1.6872   -0.9247 H   0  0  0  0  0  0  0  0  0  0  0  0
   -2.4108    0.6777   -1.3384 H   0  0  0  0  0  0  0  0  0  0  0  0
   -6.1376    1.1149    0.5659 H   0  0  0  0  0  0  0  0  0  0  0  0
   -6.8105    0.5565   -1.7507 H   0  0  0  0  0  0  0  0  0  0  0  0
   -7.7510    1.9406   -1.1504 H   0  0  0  0  0  0  0  0  0  0  0  0
   -6.4077    2.1787   -2.2938 H   0  0  0  0  0  0  0  0  0  0  0  0
   -4.9635    3.2937    1.0156 H   0  0  0  0  0  0  0  0  0  0  0  0
   -6.6309    3.5910    0.4864 H   0  0  0  0  0  0  0  0  0  0  0  0
   -5.2662    3.8155   -0.6338 H   0  0  0  0  0  0  0  0  0  0  0  0
  1  2  1  0
  2  3  1  0
  3  4  1  0
  4  5  1  0
  5  6  1  0
  6  7  2  0
  6  8  1  0
  8  9  1  0
  9 10  1  0
 10 11  1  0
 11 12  1  0
 10 13  1  0
 13 14  1  0
 14 15  2  0
 14 16  1  0
 16 17  1  0
 17 18  1  0
 17 19  1  0
  1 20  1  0
  1 21  1  0
  1 22  1  0
  2 23  1  0
  2 24  1  0
  3 25  1  0
  3 26  1  0
  4 27  1  0
  4 28  1  0
  5 29  1  0
  9 30  1  0
  9 31  1  0
 10 32  1  0
 11 33  1  0
 11 34  1  0
 12 35  1  0
 12 36  1  0
 12 37  1  0
 13 38  1  0
 17 39  1  0
 18 40  1  0
 18 41  1  0
 18 42  1  0
 19 43  1  0
 19 44  1  0
 19 45  1  0
M  END
$$$$
