
     RDKit          3D

 47 49  0  0  0  0  0  0  0  0999 V2000
   -3.4186    1.9594   -1.5935 C   0  0  0  0  0  0  0  0  0  0  0  0
   -2.9668    1.3860   -0.2627 C   0  0  0  0  0  0  0  0  0  0  0  0
   -3.4018   -0.0075   -0.0969 N   0  0  0  0  0  4  0  0  0  0  0  0
   -2.6540   -1.0435   -0.4520 C   0  0  0  0  0  0  0  0  0  0  0  0
   -1.3604   -1.0131   -1.0223 C   0  0  0  0  0  0  0  0  0  0  0  0
   -0.2388   -0.8085   -0.3126 C   0  0  0  0  0  0  0  0  0  0  0  0
   -0.1242   -0.6210    1.1226 C   0  0  0  0  0  0  0  0  0  0  0  0
    1.0060   -0.3077    1.7772 C   0  0  0  0  0  0  0  0  0  0  0  0
    2.3102   -0.0757    1.1545 C   0  0  0  0  0  0  0  0  0  0  0  0
    3.1850   -1.1334    0.9287 C   0  0  0  0  0  0  0  0  0  0  0  0
    4.4263   -0.9061    0.3158 C   0  0  0  0  0  0  0  0  0  0  0  0
    4.8355    0.3715   -0.1048 C   0  0  0  0  0  0  0  0  0  0  0  0
    6.0774    0.6012   -0.7024 N   0  0  0  0  0  0  0  0  0  0  0  0
    6.2642    1.8084   -1.5055 C   0  0  0  0  0  0  0  0  0  0  0  0
    6.9395   -0.5293   -1.0471 C   0  0  0  0  0  0  0  0  0  0  0  0
    3.9322    1.4193    0.1517 C   0  0  0  0  0  0  0  0  0  0  0  0
    2.6898    1.2060    0.7664 C   0  0  0  0  0  0  0  0  0  0  0  0
   -3.4726   -2.5250   -0.1759 S   0  0  0  0  0  0  0  0  0  0  0  0
   -4.8469   -1.7207    0.4740 C   0  0  0  0  0  0  0  0  0  0  0  0
   -6.0302   -2.2804    0.9802 C   0  0  0  0  0  0  0  0  0  0  0  0
   -7.0200   -1.4129    1.4487 C   0  0  0  0  0  0  0  0  0  0  0  0
   -6.8390   -0.0329    1.4109 C   0  0  0  0  0  0  0  0  0  0  0  0
   -5.6563    0.5202    0.9046 C   0  0  0  0  0  0  0  0  0  0  0  0
   -4.6439   -0.3417    0.4333 C   0  0  0  0  0  0  0  0  0  0  0  0
   -3.0861    2.9970   -1.6918 H   0  0  0  0  0  0  0  0  0  0  0  0
   -3.0048    1.3858   -2.4271 H   0  0  0  0  0  0  0  0  0  0  0  0
   -4.5088    1.9368   -1.6836 H   0  0  0  0  0  0  0  0  0  0  0  0
   -1.8789    1.4627   -0.1807 H   0  0  0  0  0  0  0  0  0  0  0  0
   -3.3586    1.9893    0.5610 H   0  0  0  0  0  0  0  0  0  0  0  0
   -1.2761   -1.1928   -2.0938 H   0  0  0  0  0  0  0  0  0  0  0  0
    0.7003   -0.8075   -0.8712 H   0  0  0  0  0  0  0  0  0  0  0  0
   -1.0112   -0.7709    1.7349 H   0  0  0  0  0  0  0  0  0  0  0  0
    0.9986   -0.2087    2.8629 H   0  0  0  0  0  0  0  0  0  0  0  0
    2.9220   -2.1443    1.2285 H   0  0  0  0  0  0  0  0  0  0  0  0
    5.0685   -1.7716    0.1770 H   0  0  0  0  0  0  0  0  0  0  0  0
    6.2189    2.7082   -0.8819 H   0  0  0  0  0  0  0  0  0  0  0  0
    7.2494    1.8220   -1.9863 H   0  0  0  0  0  0  0  0  0  0  0  0
    5.5120    1.8719   -2.2989 H   0  0  0  0  0  0  0  0  0  0  0  0
    7.1656   -1.1401   -0.1674 H   0  0  0  0  0  0  0  0  0  0  0  0
    6.4772   -1.1534   -1.8205 H   0  0  0  0  0  0  0  0  0  0  0  0
    7.9082   -0.1869   -1.4294 H   0  0  0  0  0  0  0  0  0  0  0  0
    4.1852    2.4436   -0.1061 H   0  0  0  0  0  0  0  0  0  0  0  0
    2.0405    2.0584    0.9496 H   0  0  0  0  0  0  0  0  0  0  0  0
   -6.1786   -3.3596    1.0134 H   0  0  0  0  0  0  0  0  0  0  0  0
   -7.9477   -1.8246    1.8473 H   0  0  0  0  0  0  0  0  0  0  0  0
   -7.6304    0.6221    1.7792 H   0  0  0  0  0  0  0  0  0  0  0  0
   -5.5579    1.6023    0.8917 H   0  0  0  0  0  0  0  0  0  0  0  0
  1  2  1  0
  2  3  1  0
  3  4  2  0
  4  5  1  0
  5  6  2  3
  6  7  1  0
  7  8  2  3
  8  9  1  0
  9 10  2  0
 10 11  1  0
 11 12  2  0
 12 13  1  0
 13 14  1  0
 13 15  1  0
 12 16  1  0
 16 17  2  0
  4 18  1  0
 18 19  1  0
 19 20  2  0
 20 21  1  0
 21 22  2  0
 22 23  1  0
 23 24  2  0
 24  3  1  0
 17  9  1  0
 24 19  1  0
  1 25  1  0
  1 26  1  0
  1 27  1  0
  2 28  1  0
  2 29  1  0
  5 30  1  0
  6 31  1  0
  7 32  1  0
  8 33  1  0
 10 34  1  0
 11 35  1  0
 14 36  1  0
 14 37  1  0
 14 38  1  0
 15 39  1  0
 15 40  1  0
 15 41  1  0
 16 42  1  0
 17 43  1  0
 20 44  1  0
 21 45  1  0
 22 46  1  0
 23 47  1  0
M  CHG  1   3   1
M  END
$$$$
