
     RDKit          3D

 48 50  0  0  0  0  0  0  0  0999 V2000
   -4.5837   -2.7479    0.5811 C   0  0  0  0  0  0  0  0  0  0  0  0
   -4.2090   -1.4039    0.2828 O   0  0  0  0  0  0  0  0  0  0  0  0
   -2.8832   -1.1455    0.4380 C   0  0  0  0  0  0  0  0  0  0  0  0
   -2.0400   -1.9576    0.8085 O   0  0  0  0  0  0  0  0  0  0  0  0
   -2.5624    0.3147    0.1132 C   0  0  0  0  0  0  0  0  0  0  0  0
   -2.4824    1.1310    1.4088 C   0  0  0  0  0  0  0  0  0  0  0  0
   -3.8140    1.3073    2.0970 C   0  0  0  0  0  0  0  0  0  0  0  0
   -4.7714    2.1881    1.5757 C   0  0  0  0  0  0  0  0  0  0  0  0
   -6.0094    2.3372    2.2021 C   0  0  0  0  0  0  0  0  0  0  0  0
   -6.3019    1.6090    3.3535 C   0  0  0  0  0  0  0  0  0  0  0  0
   -5.3567    0.7311    3.8803 C   0  0  0  0  0  0  0  0  0  0  0  0
   -4.1179    0.5798    3.2559 C   0  0  0  0  0  0  0  0  0  0  0  0
   -1.2597    0.3253   -0.5704 N   0  0  0  0  0  0  0  0  0  0  0  0
   -1.2003    0.1939   -1.9500 C   0  0  0  0  0  0  0  0  0  0  0  0
   -2.2111    0.2592   -2.6447 O   0  0  0  0  0  0  0  0  0  0  0  0
    0.1438   -0.0392   -2.4977 C   0  0  0  0  0  0  0  0  0  0  0  0
    1.4046    0.0330   -1.8442 C   0  0  0  0  0  0  0  0  0  0  0  0
    2.3272   -0.2732   -2.8156 C   0  0  0  0  0  0  0  0  0  0  0  0
    3.8045   -0.3871   -2.8645 C   0  0  0  0  0  0  0  0  0  0  0  0
    4.2816   -0.1692   -1.5372 O   0  0  0  0  0  0  0  0  0  0  0  0
    5.6327   -0.2314   -1.3315 C   0  0  0  0  0  0  0  0  0  0  0  0
    6.0466   -0.0199   -0.0127 C   0  0  0  0  0  0  0  0  0  0  0  0
    5.1364    0.2239    0.9434 F   0  0  0  0  0  0  0  0  0  0  0  0
    7.3934   -0.0536    0.3486 C   0  0  0  0  0  0  0  0  0  0  0  0
    8.3623   -0.3030   -0.6199 C   0  0  0  0  0  0  0  0  0  0  0  0
    7.9715   -0.5158   -1.9409 C   0  0  0  0  0  0  0  0  0  0  0  0
    6.6186   -0.4791   -2.2879 C   0  0  0  0  0  0  0  0  0  0  0  0
    6.3058   -0.6903   -3.5744 F   0  0  0  0  0  0  0  0  0  0  0  0
    1.6737   -0.5115   -3.9817 O   0  0  0  0  0  0  0  0  0  0  0  0
    0.3159   -0.3632   -3.7911 N   0  0  0  0  0  0  0  0  0  0  0  0
   -4.0687   -3.4467   -0.0853 H   0  0  0  0  0  0  0  0  0  0  0  0
   -4.3692   -2.9811    1.6288 H   0  0  0  0  0  0  0  0  0  0  0  0
   -5.6607   -2.8439    0.4188 H   0  0  0  0  0  0  0  0  0  0  0  0
   -3.3245    0.7130   -0.5658 H   0  0  0  0  0  0  0  0  0  0  0  0
   -2.0741    2.1278    1.1935 H   0  0  0  0  0  0  0  0  0  0  0  0
   -1.7670    0.6705    2.1039 H   0  0  0  0  0  0  0  0  0  0  0  0
   -4.5616    2.7643    0.6767 H   0  0  0  0  0  0  0  0  0  0  0  0
   -6.7470    3.0213    1.7903 H   0  0  0  0  0  0  0  0  0  0  0  0
   -7.2668    1.7258    3.8399 H   0  0  0  0  0  0  0  0  0  0  0  0
   -5.5852    0.1632    4.7785 H   0  0  0  0  0  0  0  0  0  0  0  0
   -3.3946   -0.1129    3.6812 H   0  0  0  0  0  0  0  0  0  0  0  0
   -0.4942   -0.0830   -0.0480 H   0  0  0  0  0  0  0  0  0  0  0  0
    1.6233    0.2810   -0.8164 H   0  0  0  0  0  0  0  0  0  0  0  0
    4.0748   -1.3924   -3.2072 H   0  0  0  0  0  0  0  0  0  0  0  0
    4.1984    0.3781   -3.5427 H   0  0  0  0  0  0  0  0  0  0  0  0
    7.6733    0.1154    1.3843 H   0  0  0  0  0  0  0  0  0  0  0  0
    9.4147   -0.3313   -0.3481 H   0  0  0  0  0  0  0  0  0  0  0  0
    8.7135   -0.7113   -2.7104 H   0  0  0  0  0  0  0  0  0  0  0  0
  1  2  1  0
  2  3  1  0
  3  4  2  0
  3  5  1  0
  5  6  1  0
  6  7  1  0
  7  8  2  0
  8  9  1  0
  9 10  2  0
 10 11  1  0
 11 12  2  0
  5 13  1  0
 13 14  1  0
 14 15  2  0
 14 16  1  0
 16 17  1  0
 17 18  2  0
 18 19  1  0
 19 20  1  0
 20 21  1  0
 21 22  2  0
 22 23  1  0
 22 24  1  0
 24 25  2  0
 25 26  1  0
 26 27  2  0
 27 28  1  0
 18 29  1  0
 29 30  1  0
 12  7  1  0
 30 16  2  0
 27 21  1  0
  1 31  1  0
  1 32  1  0
  1 33  1  0
  5 34  1  0
  6 35  1  0
  6 36  1  0
  8 37  1  0
  9 38  1  0
 10 39  1  0
 11 40  1  0
 12 41  1  0
 13 42  1  0
 17 43  1  0
 19 44  1  0
 19 45  1  0
 24 46  1  0
 25 47  1  0
 26 48  1  0
M  END
$$$$
