
     RDKit          3D

 37 39  0  0  0  0  0  0  0  0999 V2000
    5.9960    0.1241   -0.7044 C   0  0  0  0  0  0  0  0  0  0  0  0
    5.4610   -0.1620    0.5817 O   0  0  0  0  0  0  0  0  0  0  0  0
    4.0988   -0.1536    0.7137 C   0  0  0  0  0  0  0  0  0  0  0  0
    3.6489   -0.4233    2.0159 C   0  0  0  0  0  0  0  0  0  0  0  0
    2.2876   -0.4501    2.3147 C   0  0  0  0  0  0  0  0  0  0  0  0
    1.3894   -0.2059    1.2891 C   0  0  0  0  0  0  0  0  0  0  0  0
    1.8111    0.0659   -0.0307 C   0  0  0  0  0  0  0  0  0  0  0  0
    3.1769    0.0919   -0.3123 C   0  0  0  0  0  0  0  0  0  0  0  0
    0.7453    0.2808   -0.9362 N   0  0  0  0  0  0  0  0  0  0  0  0
    1.0477    0.7588   -2.2750 C   0  0  0  0  0  0  0  0  0  0  0  0
   -0.4953    0.2358   -0.2956 C   0  0  0  0  0  0  0  0  0  0  0  0
   -1.6991    0.4450   -0.8620 C   0  0  0  0  0  0  0  0  0  0  0  0
   -2.9875    0.3934   -0.1640 C   0  0  0  0  0  0  0  0  0  0  0  0
   -3.5282    1.5717    0.3646 C   0  0  0  0  0  0  0  0  0  0  0  0
   -4.7384    1.5374    1.0444 C   0  0  0  0  0  0  0  0  0  0  0  0
   -5.3943    0.3261    1.1928 C   0  0  0  0  0  0  0  0  0  0  0  0
   -4.8320   -0.8250    0.6556 C   0  0  0  0  0  0  0  0  0  0  0  0
   -3.6572   -0.7835   -0.0179 N   0  0  0  0  0  4  0  0  0  0  0  0
   -3.1100   -2.0432   -0.5623 C   0  0  0  0  0  0  0  0  0  0  0  0
   -0.3890   -0.1700    1.4446 S   0  0  0  0  0  0  0  0  0  0  0  0
    5.6854   -0.6288   -1.4362 H   0  0  0  0  0  0  0  0  0  0  0  0
    7.0870    0.0861   -0.6292 H   0  0  0  0  0  0  0  0  0  0  0  0
    5.7188    1.1317   -1.0315 H   0  0  0  0  0  0  0  0  0  0  0  0
    4.3763   -0.6107    2.8038 H   0  0  0  0  0  0  0  0  0  0  0  0
    1.9517   -0.6528    3.3262 H   0  0  0  0  0  0  0  0  0  0  0  0
    3.5180    0.2982   -1.3180 H   0  0  0  0  0  0  0  0  0  0  0  0
    1.7527    0.0911   -2.7826 H   0  0  0  0  0  0  0  0  0  0  0  0
    1.4739    1.7674   -2.2386 H   0  0  0  0  0  0  0  0  0  0  0  0
    0.1578    0.7992   -2.9099 H   0  0  0  0  0  0  0  0  0  0  0  0
   -1.7786    0.6946   -1.9148 H   0  0  0  0  0  0  0  0  0  0  0  0
   -2.9997    2.5182    0.2597 H   0  0  0  0  0  0  0  0  0  0  0  0
   -5.1604    2.4496    1.4640 H   0  0  0  0  0  0  0  0  0  0  0  0
   -6.3390    0.2767    1.7307 H   0  0  0  0  0  0  0  0  0  0  0  0
   -5.3201   -1.7899    0.7640 H   0  0  0  0  0  0  0  0  0  0  0  0
   -3.8792   -2.8198   -0.5398 H   0  0  0  0  0  0  0  0  0  0  0  0
   -2.8115   -1.8797   -1.6008 H   0  0  0  0  0  0  0  0  0  0  0  0
   -2.2649   -2.3453    0.0596 H   0  0  0  0  0  0  0  0  0  0  0  0
  1  2  1  0
  2  3  1  0
  3  4  2  0
  4  5  1  0
  5  6  2  0
  6  7  1  0
  7  8  2  0
  7  9  1  0
  9 10  1  0
  9 11  1  0
 11 12  2  3
 12 13  1  0
 13 14  2  0
 14 15  1  0
 15 16  2  0
 16 17  1  0
 17 18  2  0
 18 19  1  0
 11 20  1  0
  8  3  1  0
 18 13  1  0
 20  6  1  0
  1 21  1  0
  1 22  1  0
  1 23  1  0
  4 24  1  0
  5 25  1  0
  8 26  1  0
 10 27  1  0
 10 28  1  0
 10 29  1  0
 12 30  1  0
 14 31  1  0
 15 32  1  0
 16 33  1  0
 17 34  1  0
 19 35  1  0
 19 36  1  0
 19 37  1  0
M  CHG  1  18   1
M  END
$$$$
