
     RDKit          3D

 57 60  0  0  0  0  0  0  0  0999 V2000
    0.8691   -1.4479    3.3249 C   0  0  0  0  0  0  0  0  0  0  0  0
   -0.4153   -0.6297    3.2544 C   0  0  0  0  0  0  0  0  0  0  0  0
   -0.7250   -0.0133    1.8743 C   0  0  0  0  0  0  0  0  0  0  0  0
   -1.0302   -1.3258    0.6299 S   0  0  0  0  0  0  0  0  0  0  0  0
   -1.6942   -0.3327   -0.6585 C   0  0  0  0  0  0  0  0  0  0  0  0
   -2.7230    0.3765   -0.3121 N   0  0  0  0  0  0  0  0  0  0  0  0
   -3.3054    1.1041   -1.3460 C   0  0  0  0  0  0  0  0  0  0  0  0
   -4.4750    1.8838   -1.2037 C   0  0  0  0  0  0  0  0  0  0  0  0
   -4.8200    2.4724   -2.4057 C   0  0  0  0  0  0  0  0  0  0  0  0
   -3.7211    2.0645   -3.6658 S   0  0  0  0  0  0  0  0  0  0  0  0
   -2.8046    1.1011   -2.6115 C   0  0  0  0  0  0  0  0  0  0  0  0
   -1.6454    0.3502   -2.9843 C   0  0  0  0  0  0  0  0  0  0  0  0
   -1.1701    0.3516   -4.1184 O   0  0  0  0  0  0  0  0  0  0  0  0
   -1.1160   -0.3976   -1.9257 N   0  0  0  0  0  0  0  0  0  0  0  0
    0.0601   -1.2250   -2.2395 C   0  0  0  0  0  0  0  0  0  0  0  0
   -0.2938   -2.6789   -2.5333 C   0  0  0  0  0  0  0  0  0  0  0  0
   -1.1092   -3.0212   -3.6237 C   0  0  0  0  0  0  0  0  0  0  0  0
   -1.4306   -4.3601   -3.8777 C   0  0  0  0  0  0  0  0  0  0  0  0
   -0.9296   -5.3766   -3.0579 C   0  0  0  0  0  0  0  0  0  0  0  0
   -1.2925   -6.7720   -3.3744 C   0  0  0  0  0  0  0  0  0  0  0  0
   -2.0205   -7.1348   -4.2808 O   0  0  0  0  0  0  0  0  0  0  0  0
   -0.7134   -7.6531   -2.5536 O   0  0  0  0  0  0  0  0  0  0  0  0
   -0.1000   -5.0472   -1.9831 C   0  0  0  0  0  0  0  0  0  0  0  0
    0.2204   -3.7085   -1.7295 C   0  0  0  0  0  0  0  0  0  0  0  0
    0.3841    0.9414    1.4177 C   0  0  0  0  0  0  0  0  0  0  0  0
    1.0905    0.7180    0.4355 O   0  0  0  0  0  0  0  0  0  0  0  0
    0.4909    2.0610    2.2388 N   0  0  0  0  0  0  0  0  0  0  0  0
    1.5854    2.9534    2.3032 C   0  0  0  0  0  0  0  0  0  0  0  0
    2.8112    2.7184    1.6896 C   0  0  0  0  0  0  0  0  0  0  0  0
    3.8804    3.6013    1.8735 C   0  0  0  0  0  0  0  0  0  0  0  0
    3.7502    4.7426    2.6656 C   0  0  0  0  0  0  0  0  0  0  0  0
    4.9328    5.6626    2.8169 C   0  0  0  0  0  0  0  0  0  0  0  0
    2.5008    4.9984    3.2484 C   0  0  0  0  0  0  0  0  0  0  0  0
    2.2134    6.4126    4.1929 Cl  0  0  0  0  0  0  0  0  0  0  0  0
    1.4345    4.1044    3.0789 C   0  0  0  0  0  0  0  0  0  0  0  0
    1.7465   -0.8195    3.1222 H   0  0  0  0  0  0  0  0  0  0  0  0
    0.8767   -2.2837    2.6160 H   0  0  0  0  0  0  0  0  0  0  0  0
    0.9780   -1.8734    4.3243 H   0  0  0  0  0  0  0  0  0  0  0  0
   -0.3486    0.1666    4.0060 H   0  0  0  0  0  0  0  0  0  0  0  0
   -1.2584   -1.2570    3.5613 H   0  0  0  0  0  0  0  0  0  0  0  0
   -1.6426    0.5649    1.9882 H   0  0  0  0  0  0  0  0  0  0  0  0
   -5.0379    2.0088   -0.2871 H   0  0  0  0  0  0  0  0  0  0  0  0
   -5.6653    3.1188   -2.6150 H   0  0  0  0  0  0  0  0  0  0  0  0
    0.5975   -0.8218   -3.1126 H   0  0  0  0  0  0  0  0  0  0  0  0
    0.7787   -1.1694   -1.4149 H   0  0  0  0  0  0  0  0  0  0  0  0
   -1.4946   -2.2477   -4.2991 H   0  0  0  0  0  0  0  0  0  0  0  0
   -2.0696   -4.6009   -4.7261 H   0  0  0  0  0  0  0  0  0  0  0  0
   -1.0389   -8.5173   -2.8812 H   0  0  0  0  0  0  0  0  0  0  0  0
    0.3061   -5.8189   -1.3375 H   0  0  0  0  0  0  0  0  0  0  0  0
    0.8736   -3.4760   -0.8883 H   0  0  0  0  0  0  0  0  0  0  0  0
   -0.3183    2.3087    2.7873 H   0  0  0  0  0  0  0  0  0  0  0  0
    2.9823    1.8399    1.0742 H   0  0  0  0  0  0  0  0  0  0  0  0
    4.8270    3.3856    1.3788 H   0  0  0  0  0  0  0  0  0  0  0  0
    4.8897    6.4603    2.0684 H   0  0  0  0  0  0  0  0  0  0  0  0
    5.8717    5.1129    2.6963 H   0  0  0  0  0  0  0  0  0  0  0  0
    4.9707    6.1098    3.8145 H   0  0  0  0  0  0  0  0  0  0  0  0
    0.4870    4.3155    3.5653 H   0  0  0  0  0  0  0  0  0  0  0  0
  1  2  1  0
  2  3  1  0
  3  4  1  0
  4  5  1  0
  5  6  2  0
  6  7  1  0
  7  8  1  0
  8  9  2  0
  9 10  1  0
 10 11  1  0
 11 12  1  0
 12 13  2  0
 12 14  1  0
 14 15  1  0
 15 16  1  0
 16 17  2  0
 17 18  1  0
 18 19  2  0
 19 20  1  0
 20 21  2  0
 20 22  1  0
 19 23  1  0
 23 24  2  0
  3 25  1  0
 25 26  2  0
 25 27  1  0
 27 28  1  0
 28 29  2  0
 29 30  1  0
 30 31  2  0
 31 32  1  0
 31 33  1  0
 33 34  1  0
 33 35  2  0
 14  5  1  0
 24 16  1  0
 35 28  1  0
 11  7  2  0
  1 36  1  0
  1 37  1  0
  1 38  1  0
  2 39  1  0
  2 40  1  0
  3 41  1  0
  8 42  1  0
  9 43  1  0
 15 44  1  0
 15 45  1  0
 17 46  1  0
 18 47  1  0
 22 48  1  0
 23 49  1  0
 24 50  1  0
 27 51  1  0
 29 52  1  0
 30 53  1  0
 32 54  1  0
 32 55  1  0
 32 56  1  0
 35 57  1  0
M  END
$$$$
