
     RDKit          3D

 44 44  0  0  0  0  0  0  0  0999 V2000
   -4.0357    0.7236   -2.7791 C   0  0  0  0  0  0  0  0  0  0  0  0
   -4.2000   -0.0463   -1.4763 C   0  0  0  0  0  0  0  0  0  0  0  0
   -3.8315    0.7817   -0.3204 N   0  0  0  0  0  0  0  0  0  0  0  0
   -4.9225    1.5583    0.2824 C   0  0  0  0  0  0  0  0  0  0  0  0
   -5.5596    0.7964    1.4357 C   0  0  0  0  0  0  0  0  0  0  0  0
   -2.5196    0.8706    0.1375 C   0  0  0  0  0  0  0  0  0  0  0  0
   -2.1762    1.5846    1.2987 C   0  0  0  0  0  0  0  0  0  0  0  0
   -0.8560    1.6856    1.7580 C   0  0  0  0  0  0  0  0  0  0  0  0
    0.1760    1.0575    1.0716 C   0  0  0  0  0  0  0  0  0  0  0  0
   -0.1199    0.3194   -0.0661 C   0  0  0  0  0  0  0  0  0  0  0  0
    0.8021   -0.3370   -0.8367 O   0  0  0  0  0  0  0  0  0  0  0  0
    1.9248   -0.8771   -0.1530 C   0  0  0  0  0  0  0  0  0  0  0  0
    3.1800    0.0141   -0.1199 C   0  0  0  0  0  0  0  0  0  0  0  0
    3.1726    1.1547   -0.5848 O   0  0  0  0  0  0  0  0  0  0  0  0
    4.3260   -0.5210    0.4840 N   0  0  0  0  0  0  0  0  0  0  0  0
    5.5172    0.3206    0.5088 C   0  0  0  0  0  0  0  0  0  0  0  0
    4.5059   -1.9458    0.8008 C   0  0  0  0  0  0  0  0  0  0  0  0
    5.0116   -2.7874   -0.3748 C   0  0  0  0  0  0  0  0  0  0  0  0
    6.4676   -2.6858   -0.5242 C   0  0  0  0  0  0  0  0  0  0  0  0
    7.6207   -2.6089   -0.6248 N   0  0  0  0  0  0  0  0  0  0  0  0
   -1.4446    0.2497   -0.5262 C   0  0  0  0  0  0  0  0  0  0  0  0
   -4.6585    1.6242   -2.7852 H   0  0  0  0  0  0  0  0  0  0  0  0
   -4.3352    0.0991   -3.6266 H   0  0  0  0  0  0  0  0  0  0  0  0
   -2.9996    1.0367   -2.9385 H   0  0  0  0  0  0  0  0  0  0  0  0
   -5.2497   -0.3547   -1.3869 H   0  0  0  0  0  0  0  0  0  0  0  0
   -3.6362   -0.9855   -1.5012 H   0  0  0  0  0  0  0  0  0  0  0  0
   -5.6972    1.7543   -0.4702 H   0  0  0  0  0  0  0  0  0  0  0  0
   -4.5895    2.5516    0.6035 H   0  0  0  0  0  0  0  0  0  0  0  0
   -6.3844    1.3762    1.8616 H   0  0  0  0  0  0  0  0  0  0  0  0
   -4.8402    0.5929    2.2345 H   0  0  0  0  0  0  0  0  0  0  0  0
   -5.9600   -0.1651    1.0974 H   0  0  0  0  0  0  0  0  0  0  0  0
   -2.9330    2.0921    1.8882 H   0  0  0  0  0  0  0  0  0  0  0  0
   -0.6396    2.2686    2.6493 H   0  0  0  0  0  0  0  0  0  0  0  0
    1.1923    1.1857    1.4263 H   0  0  0  0  0  0  0  0  0  0  0  0
    1.6613   -1.1848    0.8666 H   0  0  0  0  0  0  0  0  0  0  0  0
    2.1893   -1.7850   -0.7059 H   0  0  0  0  0  0  0  0  0  0  0  0
    6.0709    0.1801   -0.4234 H   0  0  0  0  0  0  0  0  0  0  0  0
    6.1432    0.0488    1.3633 H   0  0  0  0  0  0  0  0  0  0  0  0
    5.2480    1.3770    0.5998 H   0  0  0  0  0  0  0  0  0  0  0  0
    3.5413   -2.3504    1.1212 H   0  0  0  0  0  0  0  0  0  0  0  0
    5.1708   -2.0235    1.6698 H   0  0  0  0  0  0  0  0  0  0  0  0
    4.7595   -3.8379   -0.1875 H   0  0  0  0  0  0  0  0  0  0  0  0
    4.5144   -2.4964   -1.3063 H   0  0  0  0  0  0  0  0  0  0  0  0
   -1.6068   -0.3113   -1.4407 H   0  0  0  0  0  0  0  0  0  0  0  0
  1  2  1  0
  2  3  1  0
  3  4  1  0
  4  5  1  0
  3  6  1  0
  6  7  2  0
  7  8  1  0
  8  9  2  0
  9 10  1  0
 10 11  1  0
 11 12  1  0
 12 13  1  0
 13 14  2  0
 13 15  1  0
 15 16  1  0
 15 17  1  0
 17 18  1  0
 18 19  1  0
 19 20  3  0
 10 21  2  0
 21  6  1  0
  1 22  1  0
  1 23  1  0
  1 24  1  0
  2 25  1  0
  2 26  1  0
  4 27  1  0
  4 28  1  0
  5 29  1  0
  5 30  1  0
  5 31  1  0
  7 32  1  0
  8 33  1  0
  9 34  1  0
 12 35  1  0
 12 36  1  0
 16 37  1  0
 16 38  1  0
 16 39  1  0
 17 40  1  0
 17 41  1  0
 18 42  1  0
 18 43  1  0
 21 44  1  0
M  END
$$$$
