
     RDKit          3D

 62 67  0  0  0  0  0  0  0  0999 V2000
   -2.9881   -1.5170    4.2009 C   0  0  0  0  0  0  0  0  0  0  0  0
   -3.0648   -1.1784    2.8235 O   0  0  0  0  0  0  0  0  0  0  0  0
   -2.6791   -2.1304    1.9129 C   0  0  0  0  0  0  0  0  0  0  0  0
   -2.1372   -3.3758    2.2525 C   0  0  0  0  0  0  0  0  0  0  0  0
   -1.7555   -4.2800    1.2568 C   0  0  0  0  0  0  0  0  0  0  0  0
   -1.9082   -3.9504   -0.0865 C   0  0  0  0  0  0  0  0  0  0  0  0
   -2.4455   -2.7138   -0.4386 C   0  0  0  0  0  0  0  0  0  0  0  0
   -2.8370   -1.7975    0.5514 C   0  0  0  0  0  0  0  0  0  0  0  0
   -3.3864   -0.5013    0.1321 C   0  0  0  0  0  0  0  0  0  0  0  0
   -5.0829   -0.3401    0.0170 S   0  0  0  0  0  0  0  0  0  0  0  0
   -4.9830    1.2954   -0.5059 C   0  0  0  0  0  0  0  0  0  0  0  0
   -6.0706    2.1415   -0.8160 C   0  0  0  0  0  0  0  0  0  0  0  0
   -5.7606    3.4245   -1.2169 C   0  0  0  0  0  0  0  0  0  0  0  0
   -4.4705    3.8686   -1.3131 C   0  0  0  0  0  0  0  0  0  0  0  0
   -3.3921    3.0588   -1.0152 C   0  0  0  0  0  0  0  0  0  0  0  0
   -3.6483    1.7226   -0.5987 C   0  0  0  0  0  0  0  0  0  0  0  0
   -2.7329    0.6650   -0.2280 C   0  0  0  0  0  0  0  0  0  0  0  0
   -1.2775    0.7558   -0.2267 C   0  0  0  0  0  0  0  0  0  0  0  0
   -0.5725    0.8173    0.9775 C   0  0  0  0  0  0  0  0  0  0  0  0
    0.8212    0.9064    0.9657 C   0  0  0  0  0  0  0  0  0  0  0  0
    1.5238    0.9375   -0.2418 C   0  0  0  0  0  0  0  0  0  0  0  0
    2.8815    1.0238   -0.1075 O   0  0  0  0  0  0  0  0  0  0  0  0
    3.6614    0.9799   -1.3043 C   0  0  0  0  0  0  0  0  0  0  0  0
    5.1605    1.0354   -0.9456 C   0  0  0  0  0  0  0  0  0  0  0  0
    5.8212   -0.1900   -0.4618 N   0  0  0  0  0  0  0  0  0  0  0  0
    5.1922   -0.7540    0.7474 C   0  0  0  0  0  0  0  0  0  0  0  0
    5.9793   -1.9769    1.2475 C   0  0  0  0  0  0  0  0  0  0  0  0
    6.0652   -2.9893    0.2332 O   0  0  0  0  0  0  0  0  0  0  0  0
    6.6969   -2.4579   -0.9398 C   0  0  0  0  0  0  0  0  0  0  0  0
    5.9284   -1.2426   -1.4871 C   0  0  0  0  0  0  0  0  0  0  0  0
    0.8186    0.8859   -1.4447 C   0  0  0  0  0  0  0  0  0  0  0  0
   -0.5780    0.7955   -1.4373 C   0  0  0  0  0  0  0  0  0  0  0  0
   -4.3937    5.1632   -1.7247 O   0  0  0  0  0  0  0  0  0  0  0  0
   -5.7918    5.4842   -1.8717 C   0  0  0  0  0  0  0  0  0  0  0  0
   -6.6667    4.3821   -1.5561 O   0  0  0  0  0  0  0  0  0  0  0  0
   -3.3692   -0.6671    4.7751 H   0  0  0  0  0  0  0  0  0  0  0  0
   -1.9506   -1.6858    4.5072 H   0  0  0  0  0  0  0  0  0  0  0  0
   -3.6168   -2.3831    4.4323 H   0  0  0  0  0  0  0  0  0  0  0  0
   -1.9922   -3.6739    3.2854 H   0  0  0  0  0  0  0  0  0  0  0  0
   -1.3336   -5.2433    1.5334 H   0  0  0  0  0  0  0  0  0  0  0  0
   -1.6075   -4.6530   -0.8591 H   0  0  0  0  0  0  0  0  0  0  0  0
   -2.5588   -2.4616   -1.4904 H   0  0  0  0  0  0  0  0  0  0  0  0
   -7.0964    1.8005   -0.7409 H   0  0  0  0  0  0  0  0  0  0  0  0
   -2.3785    3.4380   -1.0937 H   0  0  0  0  0  0  0  0  0  0  0  0
   -1.1007    0.7925    1.9279 H   0  0  0  0  0  0  0  0  0  0  0  0
    1.3633    0.9492    1.9070 H   0  0  0  0  0  0  0  0  0  0  0  0
    3.4362    0.0804   -1.8868 H   0  0  0  0  0  0  0  0  0  0  0  0
    3.4288    1.8649   -1.9095 H   0  0  0  0  0  0  0  0  0  0  0  0
    5.3089    1.8129   -0.1851 H   0  0  0  0  0  0  0  0  0  0  0  0
    5.7096    1.3778   -1.8320 H   0  0  0  0  0  0  0  0  0  0  0  0
    5.1607   -0.0026    1.5441 H   0  0  0  0  0  0  0  0  0  0  0  0
    4.1666   -1.0756    0.5316 H   0  0  0  0  0  0  0  0  0  0  0  0
    6.9912   -1.6973    1.5651 H   0  0  0  0  0  0  0  0  0  0  0  0
    5.4698   -2.4176    2.1104 H   0  0  0  0  0  0  0  0  0  0  0  0
    7.7360   -2.1978   -0.7036 H   0  0  0  0  0  0  0  0  0  0  0  0
    6.7167   -3.2525   -1.6925 H   0  0  0  0  0  0  0  0  0  0  0  0
    6.4570   -0.8602   -2.3674 H   0  0  0  0  0  0  0  0  0  0  0  0
    4.9326   -1.5738   -1.8046 H   0  0  0  0  0  0  0  0  0  0  0  0
    1.3203    0.9143   -2.4057 H   0  0  0  0  0  0  0  0  0  0  0  0
   -1.1153    0.7519   -2.3820 H   0  0  0  0  0  0  0  0  0  0  0  0
   -5.9743    5.7913   -2.9079 H   0  0  0  0  0  0  0  0  0  0  0  0
   -6.0312    6.3236   -1.2087 H   0  0  0  0  0  0  0  0  0  0  0  0
  1  2  1  0
  2  3  1  0
  3  4  2  0
  4  5  1  0
  5  6  2  0
  6  7  1  0
  7  8  2  0
  8  9  1  0
  9 10  1  0
 10 11  1  0
 11 12  2  0
 12 13  1  0
 13 14  2  0
 14 15  1  0
 15 16  2  0
 16 17  1  0
 17 18  1  0
 18 19  2  0
 19 20  1  0
 20 21  2  0
 21 22  1  0
 22 23  1  0
 23 24  1  0
 24 25  1  0
 25 26  1  0
 26 27  1  0
 27 28  1  0
 28 29  1  0
 29 30  1  0
 21 31  1  0
 31 32  2  0
 14 33  1  0
 33 34  1  0
 34 35  1  0
  8  3  1  0
 17  9  2  0
 32 18  1  0
 16 11  1  0
 30 25  1  0
 35 13  1  0
  1 36  1  0
  1 37  1  0
  1 38  1  0
  4 39  1  0
  5 40  1  0
  6 41  1  0
  7 42  1  0
 12 43  1  0
 15 44  1  0
 19 45  1  0
 20 46  1  0
 23 47  1  0
 23 48  1  0
 24 49  1  0
 24 50  1  0
 26 51  1  0
 26 52  1  0
 27 53  1  0
 27 54  1  0
 29 55  1  0
 29 56  1  0
 30 57  1  0
 30 58  1  0
 31 59  1  0
 32 60  1  0
 34 61  1  0
 34 62  1  0
M  END
$$$$
