
     RDKit          3D

 26 28  0  0  0  0  0  0  0  0999 V2000
    5.6864    0.8753    0.4086 Cl  0  0  0  0  0  0  0  0  0  0  0  0
    4.0316    0.5382    0.0474 C   0  0  0  0  0  0  0  0  0  0  0  0
    3.1981    0.1622    1.1022 C   0  0  0  0  0  0  0  0  0  0  0  0
    1.8499   -0.1230    0.8655 C   0  0  0  0  0  0  0  0  0  0  0  0
    1.3162   -0.0400   -0.4267 C   0  0  0  0  0  0  0  0  0  0  0  0
   -0.0913   -0.3384   -0.6619 C   0  0  0  0  0  0  0  0  0  0  0  0
   -0.5660   -1.0034   -1.7840 N   0  0  0  0  0  0  0  0  0  0  0  0
   -1.9121   -1.1730   -1.8146 N   0  0  0  0  0  0  0  0  0  0  0  0
   -2.2842   -0.6126   -0.6755 C   0  0  0  0  0  0  0  0  0  0  0  0
   -1.2266   -0.0958    0.0697 C   0  0  0  0  0  0  0  0  0  0  0  0
   -1.6949    0.5326    1.3182 C   0  0  0  0  0  0  0  0  0  0  0  0
   -3.1794    0.0349    1.3981 C   0  0  0  0  0  0  0  0  0  0  0  0
   -3.5990   -0.4133   -0.0419 C   0  0  0  0  0  0  0  0  0  0  0  0
    2.1591    0.3412   -1.4799 C   0  0  0  0  0  0  0  0  0  0  0  0
    3.5101    0.6290   -1.2464 C   0  0  0  0  0  0  0  0  0  0  0  0
    4.4762    1.0922   -2.6030 Cl  0  0  0  0  0  0  0  0  0  0  0  0
    3.5904    0.0860    2.1137 H   0  0  0  0  0  0  0  0  0  0  0  0
    1.2237   -0.4250    1.7025 H   0  0  0  0  0  0  0  0  0  0  0  0
   -0.0241   -1.3727   -2.5566 H   0  0  0  0  0  0  0  0  0  0  0  0
   -1.1307    0.2169    2.1994 H   0  0  0  0  0  0  0  0  0  0  0  0
   -1.6636    1.6239    1.2375 H   0  0  0  0  0  0  0  0  0  0  0  0
   -3.8497    0.7979    1.8061 H   0  0  0  0  0  0  0  0  0  0  0  0
   -3.2254   -0.8346    2.0673 H   0  0  0  0  0  0  0  0  0  0  0  0
   -4.2053   -1.3224   -0.0127 H   0  0  0  0  0  0  0  0  0  0  0  0
   -4.1558    0.3845   -0.5435 H   0  0  0  0  0  0  0  0  0  0  0  0
    1.7664    0.4396   -2.4895 H   0  0  0  0  0  0  0  0  0  0  0  0
  1  2  1  0
  2  3  2  0
  3  4  1  0
  4  5  2  0
  5  6  1  0
  6  7  1  0
  7  8  1  0
  8  9  2  0
  9 10  1  0
 10 11  1  0
 11 12  1  0
 12 13  1  0
  5 14  1  0
 14 15  2  0
 15 16  1  0
 15  2  1  0
 10  6  2  0
 13  9  1  0
  3 17  1  0
  4 18  1  0
  7 19  1  0
 11 20  1  0
 11 21  1  0
 12 22  1  0
 12 23  1  0
 13 24  1  0
 13 25  1  0
 14 26  1  0
M  END
$$$$
