
     RDKit          3D

 50 53  0  0  0  0  0  0  0  0999 V2000
    7.5334    1.4287   -0.0834 C   0  0  0  0  0  0  0  0  0  0  0  0
    6.1880    0.8077    0.1505 C   0  0  0  0  0  0  0  0  0  0  0  0
    5.0298    1.5500   -0.0729 C   0  0  0  0  0  0  0  0  0  0  0  0
    3.7695    0.9817    0.1367 C   0  0  0  0  0  0  0  0  0  0  0  0
    3.6376   -0.3421    0.5759 C   0  0  0  0  0  0  0  0  0  0  0  0
    2.3726   -0.9441    0.7989 N   0  0  0  0  0  0  0  0  0  0  0  0
    1.1318   -0.4472    0.4270 C   0  0  0  0  0  0  0  0  0  0  0  0
    0.9178    0.5728   -0.2204 O   0  0  0  0  0  0  0  0  0  0  0  0
   -0.0287   -1.3529    0.8651 C   0  0  0  0  0  0  0  0  0  0  0  0
   -1.3236   -0.8522    0.3853 N   0  0  0  0  0  4  0  0  0  0  0  0
   -2.3472   -0.2921    1.1511 C   0  0  0  0  0  0  0  0  0  0  0  0
   -3.3861    0.0861    0.3078 C   0  0  0  0  0  0  0  0  0  0  0  0
   -4.7553    0.7234    0.7374 C   0  0  0  0  0  0  0  0  0  0  0  0
   -5.7730    0.9163   -0.2014 C   0  0  0  0  0  0  0  0  0  0  0  0
   -6.9862    1.4885    0.1879 C   0  0  0  0  0  0  0  0  0  0  0  0
   -7.1889    1.8675    1.5172 C   0  0  0  0  0  0  0  0  0  0  0  0
   -6.1805    1.6675    2.4577 C   0  0  0  0  0  0  0  0  0  0  0  0
   -4.9655    1.0943    2.0718 C   0  0  0  0  0  0  0  0  0  0  0  0
   -2.9094   -0.2348   -0.9480 N   0  0  0  0  0  0  0  0  0  0  0  0
   -1.6921   -0.7665   -0.8880 C   0  0  0  0  0  0  0  0  0  0  0  0
   -1.1374   -1.1003   -2.2230 C   0  0  0  0  0  0  0  0  0  0  0  0
   -2.0813   -0.3227   -3.1598 C   0  0  0  0  0  0  0  0  0  0  0  0
   -3.3644   -0.0733   -2.3219 C   0  0  0  0  0  0  0  0  0  0  0  0
    4.8054   -1.1005    0.8187 C   0  0  0  0  0  0  0  0  0  0  0  0
    4.7657   -2.5318    1.2932 C   0  0  0  0  0  0  0  0  0  0  0  0
    6.0669   -0.5141    0.5952 C   0  0  0  0  0  0  0  0  0  0  0  0
    8.3437    0.7133    0.0949 H   0  0  0  0  0  0  0  0  0  0  0  0
    7.6763    2.2767    0.5935 H   0  0  0  0  0  0  0  0  0  0  0  0
    7.6149    1.7770   -1.1192 H   0  0  0  0  0  0  0  0  0  0  0  0
    5.0982    2.5803   -0.4195 H   0  0  0  0  0  0  0  0  0  0  0  0
    2.9097    1.6196   -0.0433 H   0  0  0  0  0  0  0  0  0  0  0  0
    2.4073   -1.8722    1.1968 H   0  0  0  0  0  0  0  0  0  0  0  0
    0.1187   -2.3574    0.4516 H   0  0  0  0  0  0  0  0  0  0  0  0
   -0.0487   -1.4113    1.9593 H   0  0  0  0  0  0  0  0  0  0  0  0
   -2.2120   -0.2471    2.2192 H   0  0  0  0  0  0  0  0  0  0  0  0
   -5.6676    0.6126   -1.2403 H   0  0  0  0  0  0  0  0  0  0  0  0
   -7.7809    1.6350   -0.5432 H   0  0  0  0  0  0  0  0  0  0  0  0
   -8.1327    2.3150    1.8145 H   0  0  0  0  0  0  0  0  0  0  0  0
   -6.3434    1.9579    3.4919 H   0  0  0  0  0  0  0  0  0  0  0  0
   -4.2032    0.9646    2.8350 H   0  0  0  0  0  0  0  0  0  0  0  0
   -0.0963   -0.7818   -2.2913 H   0  0  0  0  0  0  0  0  0  0  0  0
   -1.2403   -2.1830   -2.3310 H   0  0  0  0  0  0  0  0  0  0  0  0
   -1.6269    0.6395   -3.4076 H   0  0  0  0  0  0  0  0  0  0  0  0
   -2.2827   -0.8505   -4.0898 H   0  0  0  0  0  0  0  0  0  0  0  0
   -4.1235   -0.8301   -2.5302 H   0  0  0  0  0  0  0  0  0  0  0  0
   -3.7591    0.9310   -2.4897 H   0  0  0  0  0  0  0  0  0  0  0  0
    4.2738   -2.5947    2.2680 H   0  0  0  0  0  0  0  0  0  0  0  0
    4.2323   -3.1536    0.5680 H   0  0  0  0  0  0  0  0  0  0  0  0
    5.7735   -2.9530    1.4077 H   0  0  0  0  0  0  0  0  0  0  0  0
    6.9702   -1.0978    0.7628 H   0  0  0  0  0  0  0  0  0  0  0  0
  1  2  1  0
  2  3  2  0
  3  4  1  0
  4  5  2  0
  5  6  1  0
  6  7  1  0
  7  8  2  0
  7  9  1  0
  9 10  1  0
 10 11  1  0
 11 12  2  0
 12 13  1  0
 13 14  2  0
 14 15  1  0
 15 16  2  0
 16 17  1  0
 17 18  2  0
 12 19  1  0
 19 20  1  0
 20 21  1  0
 21 22  1  0
 22 23  1  0
  5 24  1  0
 24 25  1  0
 24 26  2  0
 26  2  1  0
 20 10  2  0
 18 13  1  0
 23 19  1  0
  1 27  1  0
  1 28  1  0
  1 29  1  0
  3 30  1  0
  4 31  1  0
  6 32  1  0
  9 33  1  0
  9 34  1  0
 11 35  1  0
 14 36  1  0
 15 37  1  0
 16 38  1  0
 17 39  1  0
 18 40  1  0
 21 41  1  0
 21 42  1  0
 22 43  1  0
 22 44  1  0
 23 45  1  0
 23 46  1  0
 25 47  1  0
 25 48  1  0
 25 49  1  0
 26 50  1  0
M  CHG  1  10   1
M  END
$$$$
