
     RDKit          3D

 43 45  0  0  0  0  0  0  0  0999 V2000
   -2.8470   -1.8330   -1.2073 C   0  0  0  0  0  0  0  0  0  0  0  0
   -2.6154   -0.3901   -0.7140 C   0  0  0  0  0  0  0  0  0  0  0  0
   -2.7255    0.5182   -1.9569 C   0  0  0  0  0  0  0  0  0  0  0  0
   -3.5437    0.0213    0.4635 C   0  0  0  0  0  0  0  0  0  0  0  0
   -3.1101   -0.9350    1.5973 C   0  0  0  0  0  0  0  0  0  0  0  0
   -1.5842   -1.0514    1.3938 C   0  0  0  0  0  0  0  0  0  0  0  0
   -1.3221   -0.1858    0.1370 C   0  0  0  0  0  0  0  0  0  0  0  0
   -0.0030   -0.3412   -0.5941 C   0  0  0  0  0  0  0  0  0  0  0  0
    1.3957   -0.6382    0.4925 S   0  0  0  0  0  6  0  0  0  0  0  0
    1.4958   -2.0724    0.6723 O   0  0  0  0  0  0  0  0  0  0  0  0
    1.3746    0.2460    1.6345 O   0  0  0  0  0  0  0  0  0  0  0  0
    2.7010   -0.1591   -0.4906 N   0  0  0  0  0  0  0  0  0  0  0  0
    2.8533    1.3274   -0.6777 C   0  0  0  0  0  0  0  0  0  0  0  0
    4.0314    1.8682    0.1371 C   0  0  0  0  0  0  0  0  0  0  0  0
    5.2893    1.3017   -0.2607 O   0  0  0  0  0  0  0  0  0  0  0  0
    5.1788   -0.0513   -0.7254 C   0  0  0  0  0  0  0  0  0  0  0  0
    4.0001   -0.8091   -0.1080 C   0  0  0  0  0  0  0  0  0  0  0  0
   -1.5800    1.2509    0.6010 C   0  0  0  0  0  0  0  0  0  0  0  0
   -0.7414    2.1337    0.6919 O   0  0  0  0  0  0  0  0  0  0  0  0
   -3.0623    1.4394    0.8519 C   0  0  0  0  0  0  0  0  0  0  0  0
   -2.7218   -2.5981   -0.4380 H   0  0  0  0  0  0  0  0  0  0  0  0
   -3.8631   -1.9398   -1.6042 H   0  0  0  0  0  0  0  0  0  0  0  0
   -2.1487   -2.0863   -2.0130 H   0  0  0  0  0  0  0  0  0  0  0  0
   -2.4977    1.5700   -1.7647 H   0  0  0  0  0  0  0  0  0  0  0  0
   -2.0318    0.1898   -2.7395 H   0  0  0  0  0  0  0  0  0  0  0  0
   -3.7395    0.4765   -2.3707 H   0  0  0  0  0  0  0  0  0  0  0  0
   -4.6153   -0.0223    0.2541 H   0  0  0  0  0  0  0  0  0  0  0  0
   -3.3578   -0.5468    2.5909 H   0  0  0  0  0  0  0  0  0  0  0  0
   -3.5906   -1.9144    1.5015 H   0  0  0  0  0  0  0  0  0  0  0  0
   -1.0614   -0.6775    2.2808 H   0  0  0  0  0  0  0  0  0  0  0  0
   -1.2953   -2.0971    1.2465 H   0  0  0  0  0  0  0  0  0  0  0  0
   -0.0265   -1.1926   -1.2822 H   0  0  0  0  0  0  0  0  0  0  0  0
    0.2142    0.5542   -1.1835 H   0  0  0  0  0  0  0  0  0  0  0  0
    3.0216    1.4983   -1.7477 H   0  0  0  0  0  0  0  0  0  0  0  0
    1.9380    1.8614   -0.4068 H   0  0  0  0  0  0  0  0  0  0  0  0
    3.8938    1.6710    1.2063 H   0  0  0  0  0  0  0  0  0  0  0  0
    4.1098    2.9527    0.0117 H   0  0  0  0  0  0  0  0  0  0  0  0
    5.0892   -0.0230   -1.8176 H   0  0  0  0  0  0  0  0  0  0  0  0
    6.1200   -0.5568   -0.4873 H   0  0  0  0  0  0  0  0  0  0  0  0
    4.1036   -0.8140    0.9836 H   0  0  0  0  0  0  0  0  0  0  0  0
    3.9972   -1.8411   -0.4735 H   0  0  0  0  0  0  0  0  0  0  0  0
   -3.4643    2.2051    0.1844 H   0  0  0  0  0  0  0  0  0  0  0  0
   -3.2591    1.6903    1.8965 H   0  0  0  0  0  0  0  0  0  0  0  0
  1  2  1  0
  2  3  1  0
  2  4  1  0
  4  5  1  0
  5  6  1  0
  6  7  1  0
  7  8  1  0
  8  9  1  0
  9 10  2  0
  9 11  2  0
  9 12  1  0
 12 13  1  0
 13 14  1  0
 14 15  1  0
 15 16  1  0
 16 17  1  0
  7 18  1  0
 18 19  2  0
 18 20  1  0
  7  2  1  0
 17 12  1  0
 20  4  1  0
  1 21  1  0
  1 22  1  0
  1 23  1  0
  3 24  1  0
  3 25  1  0
  3 26  1  0
  4 27  1  0
  5 28  1  0
  5 29  1  0
  6 30  1  0
  6 31  1  0
  8 32  1  0
  8 33  1  0
 13 34  1  0
 13 35  1  0
 14 36  1  0
 14 37  1  0
 16 38  1  0
 16 39  1  0
 17 40  1  0
 17 41  1  0
 20 42  1  0
 20 43  1  0
M  END
$$$$
