
     RDKit          3D

 46 47  0  0  0  0  0  0  0  0999 V2000
    0.0102   -0.4399   -4.2861 C   0  0  0  0  0  0  0  0  0  0  0  0
    1.4260   -0.1778   -3.8363 C   0  0  0  0  0  0  0  0  0  0  0  0
    2.1815    0.5172   -4.5107 O   0  0  0  0  0  0  0  0  0  0  0  0
    1.7061   -0.7684   -2.6216 N   0  0  0  0  0  0  0  0  0  0  0  0
    2.9148   -0.7389   -1.8942 C   0  0  0  0  0  0  0  0  0  0  0  0
    4.0730   -0.0991   -2.3396 C   0  0  0  0  0  0  0  0  0  0  0  0
    5.2424   -0.1314   -1.5700 C   0  0  0  0  0  0  0  0  0  0  0  0
    5.2698   -0.8111   -0.3527 C   0  0  0  0  0  0  0  0  0  0  0  0
    4.1227   -1.4524    0.1073 C   0  0  0  0  0  0  0  0  0  0  0  0
    2.9511   -1.3961   -0.6515 C   0  0  0  0  0  0  0  0  0  0  0  0
    1.8422   -2.0617   -0.1880 O   0  0  0  0  0  0  0  0  0  0  0  0
    1.1041   -1.2640    0.7489 C   0  0  0  0  0  0  0  0  0  0  0  0
    0.8051   -2.1405    1.9599 C   0  0  0  0  0  0  0  0  0  0  0  0
   -0.2102   -0.7855    0.1042 C   0  0  0  0  0  0  0  0  0  0  0  0
   -0.5666   -1.1329   -1.0216 O   0  0  0  0  0  0  0  0  0  0  0  0
   -0.9463    0.0854    0.8790 N   0  0  0  0  0  0  0  0  0  0  0  0
   -2.1777    0.6915    0.3977 C   0  0  0  0  0  0  0  0  0  0  0  0
   -1.8811    1.8504   -0.5592 C   0  0  0  0  0  0  0  0  0  0  0  0
   -3.0332    1.0790    1.5928 C   0  0  0  0  0  0  0  0  0  0  0  0
   -2.8835    2.3053    2.2635 C   0  0  0  0  0  0  0  0  0  0  0  0
   -3.6690    2.6054    3.3794 C   0  0  0  0  0  0  0  0  0  0  0  0
   -4.5976    1.6790    3.8369 C   0  0  0  0  0  0  0  0  0  0  0  0
   -5.3456    1.9681    4.9094 F   0  0  0  0  0  0  0  0  0  0  0  0
   -4.7550    0.4548    3.2025 C   0  0  0  0  0  0  0  0  0  0  0  0
   -3.9726    0.1535    2.0863 C   0  0  0  0  0  0  0  0  0  0  0  0
   -0.0528   -0.3300   -5.3729 H   0  0  0  0  0  0  0  0  0  0  0  0
   -0.2991   -1.4586   -4.0292 H   0  0  0  0  0  0  0  0  0  0  0  0
   -0.6608    0.2805   -3.8078 H   0  0  0  0  0  0  0  0  0  0  0  0
    0.9384   -1.2664   -2.1673 H   0  0  0  0  0  0  0  0  0  0  0  0
    4.1034    0.4260   -3.2890 H   0  0  0  0  0  0  0  0  0  0  0  0
    6.1378    0.3670   -1.9361 H   0  0  0  0  0  0  0  0  0  0  0  0
    6.1870   -0.8498    0.2283 H   0  0  0  0  0  0  0  0  0  0  0  0
    4.1448   -2.0027    1.0428 H   0  0  0  0  0  0  0  0  0  0  0  0
    1.6651   -0.3760    1.0736 H   0  0  0  0  0  0  0  0  0  0  0  0
    0.2663   -1.5911    2.7377 H   0  0  0  0  0  0  0  0  0  0  0  0
    1.7332   -2.5307    2.3901 H   0  0  0  0  0  0  0  0  0  0  0  0
    0.1971   -3.0061    1.6732 H   0  0  0  0  0  0  0  0  0  0  0  0
   -0.5536    0.4456    1.7386 H   0  0  0  0  0  0  0  0  0  0  0  0
   -2.7198   -0.0644   -0.1859 H   0  0  0  0  0  0  0  0  0  0  0  0
   -1.3702    1.4911   -1.4591 H   0  0  0  0  0  0  0  0  0  0  0  0
   -1.2251    2.6004   -0.1035 H   0  0  0  0  0  0  0  0  0  0  0  0
   -2.8046    2.3478   -0.8749 H   0  0  0  0  0  0  0  0  0  0  0  0
   -2.1566    3.0421    1.9307 H   0  0  0  0  0  0  0  0  0  0  0  0
   -3.5613    3.5557    3.8949 H   0  0  0  0  0  0  0  0  0  0  0  0
   -5.4823   -0.2570    3.5800 H   0  0  0  0  0  0  0  0  0  0  0  0
   -4.0974   -0.8133    1.6004 H   0  0  0  0  0  0  0  0  0  0  0  0
  1  2  1  0
  2  3  2  0
  2  4  1  0
  4  5  1  0
  5  6  2  0
  6  7  1  0
  7  8  2  0
  8  9  1  0
  9 10  2  0
 10 11  1  0
 11 12  1  0
 12 13  1  0
 12 14  1  0
 14 15  2  0
 14 16  1  0
 16 17  1  0
 17 18  1  0
 17 19  1  0
 19 20  2  0
 20 21  1  0
 21 22  2  0
 22 23  1  0
 22 24  1  0
 24 25  2  0
 10  5  1  0
 25 19  1  0
  1 26  1  0
  1 27  1  0
  1 28  1  0
  4 29  1  0
  6 30  1  0
  7 31  1  0
  8 32  1  0
  9 33  1  0
 12 34  1  0
 13 35  1  0
 13 36  1  0
 13 37  1  0
 16 38  1  0
 17 39  1  0
 18 40  1  0
 18 41  1  0
 18 42  1  0
 20 43  1  0
 21 44  1  0
 24 45  1  0
 25 46  1  0
M  END
$$$$
