
     RDKit          3D

 49 52  0  0  0  0  0  0  0  0999 V2000
   -3.0392    1.2445   -1.1091 C   0  0  0  0  0  0  0  0  0  0  0  0
   -3.7638    0.3726   -0.1004 C   0  0  0  0  0  0  0  0  0  0  0  0
   -3.4192   -0.8483    0.2050 N   0  0  0  0  0  0  0  0  0  0  0  0
   -2.2491   -1.3509   -0.3017 N   0  0  0  0  0  0  0  0  0  0  0  0
   -1.0104   -0.8604    0.1165 C   0  0  0  0  0  0  0  0  0  0  0  0
   -0.8341    0.2070    0.6968 O   0  0  0  0  0  0  0  0  0  0  0  0
    0.0873   -1.7731   -0.1942 C   0  0  0  0  0  0  0  0  0  0  0  0
   -0.1289   -3.0119   -0.7348 N   0  0  0  0  0  0  0  0  0  0  0  0
    1.0411   -3.5992   -0.9064 N   0  0  0  0  0  0  0  0  0  0  0  0
    2.0340   -2.7626   -0.4786 N   0  0  0  0  0  0  0  0  0  0  0  0
    3.3979   -3.1476   -0.5461 C   0  0  0  0  0  0  0  0  0  0  0  0
    4.3695   -2.3394   -0.1218 N   0  0  0  0  0  0  0  0  0  0  0  0
    5.5400   -3.0552   -0.3649 O   0  0  0  0  0  0  0  0  0  0  0  0
    5.2643   -4.2982   -0.9236 N   0  0  0  0  0  0  0  0  0  0  0  0
    3.9374   -4.3564   -1.0274 C   0  0  0  0  0  0  0  0  0  0  0  0
    3.2612   -5.4138   -1.5146 N   0  0  0  0  0  0  0  0  0  0  0  0
    1.4498   -1.5845   -0.0199 C   0  0  0  0  0  0  0  0  0  0  0  0
    2.2015   -0.4102    0.4877 C   0  0  0  0  0  0  0  0  0  0  0  0
    2.7233    0.2345   -0.6702 O   0  0  0  0  0  0  0  0  0  0  0  0
    3.5094    1.3356   -0.4717 C   0  0  0  0  0  0  0  0  0  0  0  0
    4.0778    1.8604   -1.6385 C   0  0  0  0  0  0  0  0  0  0  0  0
    4.9013    2.9856   -1.5832 C   0  0  0  0  0  0  0  0  0  0  0  0
    5.1518    3.5850   -0.3565 C   0  0  0  0  0  0  0  0  0  0  0  0
    5.9403    4.6659   -0.2971 F   0  0  0  0  0  0  0  0  0  0  0  0
    4.5933    3.0792    0.8113 C   0  0  0  0  0  0  0  0  0  0  0  0
    3.7684    1.9514    0.7556 C   0  0  0  0  0  0  0  0  0  0  0  0
   -4.9796    0.9484    0.5597 C   0  0  0  0  0  0  0  0  0  0  0  0
   -5.9551    0.0826    1.0750 C   0  0  0  0  0  0  0  0  0  0  0  0
   -7.0960    0.5945    1.6995 C   0  0  0  0  0  0  0  0  0  0  0  0
   -7.2604    1.9728    1.8167 C   0  0  0  0  0  0  0  0  0  0  0  0
   -8.6631    2.6048    2.5857 Cl  0  0  0  0  0  0  0  0  0  0  0  0
   -6.2924    2.8431    1.3183 C   0  0  0  0  0  0  0  0  0  0  0  0
   -5.1504    2.3326    0.6920 C   0  0  0  0  0  0  0  0  0  0  0  0
   -3.7505    1.8722   -1.6544 H   0  0  0  0  0  0  0  0  0  0  0  0
   -2.3193    1.8871   -0.5960 H   0  0  0  0  0  0  0  0  0  0  0  0
   -2.5196    0.6384   -1.8557 H   0  0  0  0  0  0  0  0  0  0  0  0
   -2.2654   -2.3588   -0.4499 H   0  0  0  0  0  0  0  0  0  0  0  0
    2.2723   -5.3486   -1.7497 H   0  0  0  0  0  0  0  0  0  0  0  0
    3.7682   -6.1380   -2.0127 H   0  0  0  0  0  0  0  0  0  0  0  0
    1.5390    0.2734    1.0264 H   0  0  0  0  0  0  0  0  0  0  0  0
    2.9951   -0.7155    1.1778 H   0  0  0  0  0  0  0  0  0  0  0  0
    3.8785    1.3862   -2.5964 H   0  0  0  0  0  0  0  0  0  0  0  0
    5.3451    3.3941   -2.4850 H   0  0  0  0  0  0  0  0  0  0  0  0
    4.8014    3.5665    1.7587 H   0  0  0  0  0  0  0  0  0  0  0  0
    3.3438    1.5870    1.6851 H   0  0  0  0  0  0  0  0  0  0  0  0
   -5.8348   -0.9956    0.9915 H   0  0  0  0  0  0  0  0  0  0  0  0
   -7.8463   -0.0866    2.0923 H   0  0  0  0  0  0  0  0  0  0  0  0
   -6.4162    3.9184    1.4195 H   0  0  0  0  0  0  0  0  0  0  0  0
   -4.3993    3.0310    0.3331 H   0  0  0  0  0  0  0  0  0  0  0  0
  1  2  1  0
  2  3  2  3
  3  4  1  0
  4  5  1  0
  5  6  2  0
  5  7  1  0
  7  8  1  0
  8  9  2  0
  9 10  1  0
 10 11  1  0
 11 12  2  0
 12 13  1  0
 13 14  1  0
 14 15  2  0
 15 16  1  0
 10 17  1  0
 17 18  1  0
 18 19  1  0
 19 20  1  0
 20 21  2  0
 21 22  1  0
 22 23  2  0
 23 24  1  0
 23 25  1  0
 25 26  2  0
  2 27  1  0
 27 28  2  0
 28 29  1  0
 29 30  2  0
 30 31  1  0
 30 32  1  0
 32 33  2  0
 17  7  2  0
 26 20  1  0
 33 27  1  0
 15 11  1  0
  1 34  1  0
  1 35  1  0
  1 36  1  0
  4 37  1  0
 16 38  1  0
 16 39  1  0
 18 40  1  0
 18 41  1  0
 21 42  1  0
 22 43  1  0
 25 44  1  0
 26 45  1  0
 28 46  1  0
 29 47  1  0
 32 48  1  0
 33 49  1  0
M  END
$$$$
