
     RDKit          3D

 36 38  0  0  0  0  0  0  0  0999 V2000
   -5.1398   -0.7559   -0.9449 C   0  0  0  0  0  0  0  0  0  0  0  0
   -4.0257    0.1105   -0.4289 C   0  0  0  0  0  0  0  0  0  0  0  0
   -4.3231    1.3256    0.2142 C   0  0  0  0  0  0  0  0  0  0  0  0
   -3.3033    2.1571    0.6777 C   0  0  0  0  0  0  0  0  0  0  0  0
   -1.9888    1.7644    0.4797 C   0  0  0  0  0  0  0  0  0  0  0  0
   -1.6596    0.5638   -0.1824 C   0  0  0  0  0  0  0  0  0  0  0  0
   -2.6861   -0.2630   -0.6350 C   0  0  0  0  0  0  0  0  0  0  0  0
   -0.2540    0.3137   -0.2947 N   0  0  0  0  0  0  0  0  0  0  0  0
    0.1097   -0.2583   -1.5953 C   0  0  0  0  0  0  0  0  0  0  0  0
    0.4625    1.3553    0.3176 C   0  0  0  0  0  0  0  0  0  0  0  0
    1.7795    1.4262    0.5838 C   0  0  0  0  0  0  0  0  0  0  0  0
    2.7585    0.3690    0.3387 C   0  0  0  0  0  0  0  0  0  0  0  0
    3.7894    0.6048   -0.5802 C   0  0  0  0  0  0  0  0  0  0  0  0
    4.7245   -0.3859   -0.8488 C   0  0  0  0  0  0  0  0  0  0  0  0
    4.6240   -1.6026   -0.1943 C   0  0  0  0  0  0  0  0  0  0  0  0
    3.6012   -1.8004    0.7243 C   0  0  0  0  0  0  0  0  0  0  0  0
    2.6986   -0.8259    0.9925 N   0  0  0  0  0  4  0  0  0  0  0  0
    1.6668   -1.1002    2.0176 C   0  0  0  0  0  0  0  0  0  0  0  0
   -0.5399    2.6807    0.9639 S   0  0  0  0  0  0  0  0  0  0  0  0
   -4.8508   -1.8120   -0.9315 H   0  0  0  0  0  0  0  0  0  0  0  0
   -5.3904   -0.4697   -1.9710 H   0  0  0  0  0  0  0  0  0  0  0  0
   -6.0336   -0.6563   -0.3202 H   0  0  0  0  0  0  0  0  0  0  0  0
   -5.3595    1.6290    0.3566 H   0  0  0  0  0  0  0  0  0  0  0  0
   -3.5409    3.0929    1.1743 H   0  0  0  0  0  0  0  0  0  0  0  0
   -2.4724   -1.2031   -1.1331 H   0  0  0  0  0  0  0  0  0  0  0  0
   -0.3127   -1.2610   -1.7194 H   0  0  0  0  0  0  0  0  0  0  0  0
    1.1913   -0.3748   -1.6983 H   0  0  0  0  0  0  0  0  0  0  0  0
   -0.2296    0.3807   -2.4193 H   0  0  0  0  0  0  0  0  0  0  0  0
    2.1936    2.3103    1.0670 H   0  0  0  0  0  0  0  0  0  0  0  0
    3.8589    1.5599   -1.0997 H   0  0  0  0  0  0  0  0  0  0  0  0
    5.5238   -0.2092   -1.5674 H   0  0  0  0  0  0  0  0  0  0  0  0
    5.3443   -2.3937   -0.3936 H   0  0  0  0  0  0  0  0  0  0  0  0
    3.5004   -2.7422    1.2576 H   0  0  0  0  0  0  0  0  0  0  0  0
    0.7703   -1.4569    1.5072 H   0  0  0  0  0  0  0  0  0  0  0  0
    1.4770   -0.1994    2.6047 H   0  0  0  0  0  0  0  0  0  0  0  0
    2.0358   -1.8735    2.6977 H   0  0  0  0  0  0  0  0  0  0  0  0
  1  2  1  0
  2  3  2  0
  3  4  1  0
  4  5  2  0
  5  6  1  0
  6  7  2  0
  6  8  1  0
  8  9  1  0
  8 10  1  0
 10 11  2  3
 11 12  1  0
 12 13  2  0
 13 14  1  0
 14 15  2  0
 15 16  1  0
 16 17  2  0
 17 18  1  0
 10 19  1  0
  7  2  1  0
 17 12  1  0
 19  5  1  0
  1 20  1  0
  1 21  1  0
  1 22  1  0
  3 23  1  0
  4 24  1  0
  7 25  1  0
  9 26  1  0
  9 27  1  0
  9 28  1  0
 11 29  1  0
 13 30  1  0
 14 31  1  0
 15 32  1  0
 16 33  1  0
 18 34  1  0
 18 35  1  0
 18 36  1  0
M  CHG  1  17   1
M  END
$$$$
