
     RDKit          3D

 35 36  0  0  0  0  0  0  0  0999 V2000
    2.7966   -0.4719    1.0469 C   0  0  0  0  0  0  0  0  0  0  0  0
    2.1840   -0.2382   -0.2659 N   0  0  0  0  0  0  0  0  0  0  0  0
    1.1964    0.8573   -0.2119 C   0  0  0  0  0  0  0  0  0  0  0  0
   -0.0370    0.5198    0.6319 C   0  0  0  0  0  0  0  0  0  0  0  0
   -1.1058    1.6029    0.4950 C   0  0  0  0  0  0  0  0  0  0  0  0
   -2.2181    1.3194    1.3430 O   0  0  0  0  0  0  0  0  0  0  0  0
   -3.2827    0.6159    0.8475 C   0  0  0  0  0  0  0  0  0  0  0  0
   -3.2848   -0.0765   -0.3676 C   0  0  0  0  0  0  0  0  0  0  0  0
   -4.4230   -0.7778   -0.7815 C   0  0  0  0  0  0  0  0  0  0  0  0
   -5.5625   -0.7943    0.0189 C   0  0  0  0  0  0  0  0  0  0  0  0
   -6.9564   -1.6590   -0.4985 Cl  0  0  0  0  0  0  0  0  0  0  0  0
   -5.5781   -0.1196    1.2341 C   0  0  0  0  0  0  0  0  0  0  0  0
   -4.4405    0.5793    1.6459 C   0  0  0  0  0  0  0  0  0  0  0  0
   -4.5094    1.4026    3.1670 Cl  0  0  0  0  0  0  0  0  0  0  0  0
    3.2146    0.0786   -1.2745 C   0  0  0  0  0  0  0  0  0  0  0  0
    4.0206   -1.1345   -1.6232 C   0  0  0  0  0  0  0  0  0  0  0  0
    5.4241   -1.3382   -1.1117 C   0  0  0  0  0  0  0  0  0  0  0  0
    5.1720   -0.8541   -2.4366 O   0  0  0  0  0  0  0  0  0  0  0  0
    3.5207   -1.2920    1.0065 H   0  0  0  0  0  0  0  0  0  0  0  0
    2.0504   -0.7847    1.7836 H   0  0  0  0  0  0  0  0  0  0  0  0
    3.3078    0.4197    1.4275 H   0  0  0  0  0  0  0  0  0  0  0  0
    1.6608    1.7818    0.1558 H   0  0  0  0  0  0  0  0  0  0  0  0
    0.8438    1.0620   -1.2314 H   0  0  0  0  0  0  0  0  0  0  0  0
   -0.4462   -0.4520    0.3325 H   0  0  0  0  0  0  0  0  0  0  0  0
    0.2229    0.4240    1.6925 H   0  0  0  0  0  0  0  0  0  0  0  0
   -0.6899    2.5549    0.8462 H   0  0  0  0  0  0  0  0  0  0  0  0
   -1.4079    1.7761   -0.5445 H   0  0  0  0  0  0  0  0  0  0  0  0
   -2.4141   -0.1059   -1.0146 H   0  0  0  0  0  0  0  0  0  0  0  0
   -4.4093   -1.3128   -1.7283 H   0  0  0  0  0  0  0  0  0  0  0  0
   -6.4666   -0.1366    1.8589 H   0  0  0  0  0  0  0  0  0  0  0  0
    2.7311    0.4028   -2.2048 H   0  0  0  0  0  0  0  0  0  0  0  0
    3.8534    0.9073   -0.9420 H   0  0  0  0  0  0  0  0  0  0  0  0
    3.4194   -1.9914   -1.8960 H   0  0  0  0  0  0  0  0  0  0  0  0
    5.7870   -2.3532   -1.0103 H   0  0  0  0  0  0  0  0  0  0  0  0
    5.8267   -0.6390   -0.3902 H   0  0  0  0  0  0  0  0  0  0  0  0
  1  2  1  0
  2  3  1  0
  3  4  1  0
  4  5  1  0
  5  6  1  0
  6  7  1  0
  7  8  2  0
  8  9  1  0
  9 10  2  0
 10 11  1  0
 10 12  1  0
 12 13  2  0
 13 14  1  0
  2 15  1  0
 15 16  1  0
 16 17  1  0
 17 18  1  0
 13  7  1  0
 18 16  1  0
  1 19  1  0
  1 20  1  0
  1 21  1  0
  3 22  1  0
  3 23  1  0
  4 24  1  0
  4 25  1  0
  5 26  1  0
  5 27  1  0
  8 28  1  0
  9 29  1  0
 12 30  1  0
 15 31  1  0
 15 32  1  0
 16 33  1  0
 17 34  1  0
 17 35  1  0
M  END
$$$$
