
     RDKit          3D

 37 38  0  0  0  0  0  0  0  0999 V2000
    0.6718   -2.3420    0.5085 O   0  0  0  0  0  0  0  0  0  0  0  0
    0.4575   -1.2190    0.9500 C   0  0  0  0  0  0  0  0  0  0  0  0
   -0.7276   -0.9244    1.8573 C   0  0  0  0  0  0  0  0  0  0  0  0
   -1.8707   -1.9317    1.7126 C   0  0  0  0  0  0  0  0  0  0  0  0
   -2.5059   -1.9778    0.3156 C   0  0  0  0  0  0  0  0  0  0  0  0
   -3.0236   -0.6430   -0.1613 C   0  0  0  0  0  0  0  0  0  0  0  0
   -4.1542   -0.0628    0.4288 C   0  0  0  0  0  0  0  0  0  0  0  0
   -4.6169    1.1813   -0.0026 C   0  0  0  0  0  0  0  0  0  0  0  0
   -3.9556    1.8557   -1.0274 C   0  0  0  0  0  0  0  0  0  0  0  0
   -2.8323    1.2860   -1.6238 C   0  0  0  0  0  0  0  0  0  0  0  0
   -2.3681    0.0421   -1.1940 C   0  0  0  0  0  0  0  0  0  0  0  0
    1.2385   -0.0927    0.7440 N   0  0  0  0  0  0  0  0  0  0  0  0
    2.4104    0.0112   -0.0339 C   0  0  0  0  0  0  0  0  0  0  0  0
    2.9887   -1.0585   -0.7234 C   0  0  0  0  0  0  0  0  0  0  0  0
    4.1540   -0.8807   -1.4788 C   0  0  0  0  0  0  0  0  0  0  0  0
    4.7579    0.3719   -1.5552 C   0  0  0  0  0  0  0  0  0  0  0  0
    4.1840    1.4456   -0.8673 C   0  0  0  0  0  0  0  0  0  0  0  0
    4.8089    2.7715   -0.9388 N   0  0  0  0  0  4  0  0  0  0  0  0
    5.8368    2.8904   -1.6203 O   0  0  0  0  0  0  0  0  0  0  0  0
    4.2701    3.6957   -0.3124 O   0  0  0  0  0  1  0  0  0  0  0  0
    3.0158    1.2714   -0.1087 C   0  0  0  0  0  0  0  0  0  0  0  0
   -1.0944    0.0922    1.6780 H   0  0  0  0  0  0  0  0  0  0  0  0
   -0.3562   -0.9549    2.8888 H   0  0  0  0  0  0  0  0  0  0  0  0
   -1.5095   -2.9371    1.9624 H   0  0  0  0  0  0  0  0  0  0  0  0
   -2.6402   -1.6864    2.4553 H   0  0  0  0  0  0  0  0  0  0  0  0
   -3.3418   -2.6893    0.3264 H   0  0  0  0  0  0  0  0  0  0  0  0
   -1.7913   -2.3822   -0.4110 H   0  0  0  0  0  0  0  0  0  0  0  0
   -4.6832   -0.5791    1.2267 H   0  0  0  0  0  0  0  0  0  0  0  0
   -5.4966    1.6227    0.4585 H   0  0  0  0  0  0  0  0  0  0  0  0
   -4.3194    2.8223   -1.3655 H   0  0  0  0  0  0  0  0  0  0  0  0
   -2.3204    1.8079   -2.4281 H   0  0  0  0  0  0  0  0  0  0  0  0
   -1.4916   -0.3913   -1.6720 H   0  0  0  0  0  0  0  0  0  0  0  0
    0.9187    0.7609    1.1870 H   0  0  0  0  0  0  0  0  0  0  0  0
    2.5572   -2.0552   -0.6948 H   0  0  0  0  0  0  0  0  0  0  0  0
    4.5862   -1.7285   -2.0067 H   0  0  0  0  0  0  0  0  0  0  0  0
    5.6630    0.4918   -2.1468 H   0  0  0  0  0  0  0  0  0  0  0  0
    2.5801    2.1158    0.4208 H   0  0  0  0  0  0  0  0  0  0  0  0
  1  2  2  0
  2  3  1  0
  3  4  1  0
  4  5  1  0
  5  6  1  0
  6  7  2  0
  7  8  1  0
  8  9  2  0
  9 10  1  0
 10 11  2  0
  2 12  1  0
 12 13  1  0
 13 14  2  0
 14 15  1  0
 15 16  2  0
 16 17  1  0
 17 18  1  0
 18 19  2  0
 18 20  1  0
 17 21  2  0
 11  6  1  0
 21 13  1  0
  3 22  1  0
  3 23  1  0
  4 24  1  0
  4 25  1  0
  5 26  1  0
  5 27  1  0
  7 28  1  0
  8 29  1  0
  9 30  1  0
 10 31  1  0
 11 32  1  0
 12 33  1  0
 14 34  1  0
 15 35  1  0
 16 36  1  0
 21 37  1  0
M  CHG  2  18   1  20  -1
M  END
$$$$
