
     RDKit          3D

 44 47  0  0  0  0  0  0  0  0999 V2000
   -4.4292    3.5315    0.0988 N   0  0  0  0  0  0  0  0  0  0  0  0
   -4.7420    2.2481    0.3556 C   0  0  0  0  0  0  0  0  0  0  0  0
   -5.9870    1.7904    0.4815 N   0  0  0  0  0  0  0  0  0  0  0  0
   -5.8597    0.4310    0.7341 O   0  0  0  0  0  0  0  0  0  0  0  0
   -4.5217    0.0449    0.7648 N   0  0  0  0  0  0  0  0  0  0  0  0
   -3.8498    1.1720    0.5279 C   0  0  0  0  0  0  0  0  0  0  0  0
   -2.4305    1.1992    0.5018 N   0  0  0  0  0  0  0  0  0  0  0  0
   -1.7565    2.3857    0.4171 N   0  0  0  0  0  0  0  0  0  0  0  0
   -0.4590    2.1593    0.4995 N   0  0  0  0  0  0  0  0  0  0  0  0
   -0.2665    0.8106    0.6199 C   0  0  0  0  0  0  0  0  0  0  0  0
    1.0664    0.2226    0.7466 C   0  0  0  0  0  0  0  0  0  0  0  0
    1.2319   -0.9613    1.0243 O   0  0  0  0  0  0  0  0  0  0  0  0
    2.0784    1.1587    0.5501 N   0  0  0  0  0  0  0  0  0  0  0  0
    3.4157    0.9611    0.7856 N   0  0  0  0  0  0  0  0  0  0  0  0
    3.9145   -0.2059    0.5254 C   0  0  0  0  0  0  0  0  0  0  0  0
    5.3342   -0.5211    0.7874 C   0  0  0  0  0  0  0  0  0  0  0  0
    6.0494   -1.2666   -0.1642 C   0  0  0  0  0  0  0  0  0  0  0  0
    5.3508   -1.8014   -1.6552 Cl  0  0  0  0  0  0  0  0  0  0  0  0
    7.3963   -1.5829    0.0502 C   0  0  0  0  0  0  0  0  0  0  0  0
    8.0389   -1.1649    1.2128 C   0  0  0  0  0  0  0  0  0  0  0  0
    7.3331   -0.4342    2.1666 C   0  0  0  0  0  0  0  0  0  0  0  0
    5.9837   -0.1141    1.9634 C   0  0  0  0  0  0  0  0  0  0  0  0
    5.1922    0.7218    3.2546 Cl  0  0  0  0  0  0  0  0  0  0  0  0
   -1.4969    0.1658    0.5959 C   0  0  0  0  0  0  0  0  0  0  0  0
   -1.8016   -1.2894    0.6292 C   0  0  0  0  0  0  0  0  0  0  0  0
   -1.4845   -2.0926   -0.9662 S   0  0  0  0  0  0  0  0  0  0  0  0
   -2.9099   -1.6281   -1.8223 C   0  0  0  0  0  0  0  0  0  0  0  0
   -3.1464   -0.4074   -2.1688 N   0  0  0  0  0  0  0  0  0  0  0  0
   -4.4033   -0.3732   -2.9490 C   0  0  0  0  0  0  0  0  0  0  0  0
   -5.2814   -1.5591   -2.5804 C   0  0  0  0  0  0  0  0  0  0  0  0
   -4.0760   -2.8492   -2.2264 S   0  0  0  0  0  0  0  0  0  0  0  0
   -5.1404    4.2474    0.1961 H   0  0  0  0  0  0  0  0  0  0  0  0
   -3.4710    3.8679    0.1865 H   0  0  0  0  0  0  0  0  0  0  0  0
    1.7951    2.1368    0.5500 H   0  0  0  0  0  0  0  0  0  0  0  0
    3.3267   -1.0024    0.0387 H   0  0  0  0  0  0  0  0  0  0  0  0
    7.9529   -2.1516   -0.6926 H   0  0  0  0  0  0  0  0  0  0  0  0
    9.0857   -1.4103    1.3777 H   0  0  0  0  0  0  0  0  0  0  0  0
    7.8385   -0.1218    3.0789 H   0  0  0  0  0  0  0  0  0  0  0  0
   -1.1465   -1.7706    1.3639 H   0  0  0  0  0  0  0  0  0  0  0  0
   -2.8076   -1.5344    0.9665 H   0  0  0  0  0  0  0  0  0  0  0  0
   -4.1566   -0.3849   -4.0178 H   0  0  0  0  0  0  0  0  0  0  0  0
   -4.9352    0.5634   -2.7490 H   0  0  0  0  0  0  0  0  0  0  0  0
   -5.9656   -1.8384   -3.3851 H   0  0  0  0  0  0  0  0  0  0  0  0
   -5.8589   -1.3522   -1.6745 H   0  0  0  0  0  0  0  0  0  0  0  0
  1  2  1  0
  2  3  2  0
  3  4  1  0
  4  5  1  0
  5  6  2  0
  6  7  1  0
  7  8  1  0
  8  9  2  0
  9 10  1  0
 10 11  1  0
 11 12  2  0
 11 13  1  0
 13 14  1  0
 14 15  2  3
 15 16  1  0
 16 17  2  0
 17 18  1  0
 17 19  1  0
 19 20  2  0
 20 21  1  0
 21 22  2  0
 22 23  1  0
 10 24  2  0
 24 25  1  0
 25 26  1  0
 26 27  1  0
 27 28  2  0
 28 29  1  0
 29 30  1  0
 30 31  1  0
  6  2  1  0
 24  7  1  0
 31 27  1  0
 22 16  1  0
  1 32  1  0
  1 33  1  0
 13 34  1  0
 15 35  1  0
 19 36  1  0
 20 37  1  0
 21 38  1  0
 25 39  1  0
 25 40  1  0
 29 41  1  0
 29 42  1  0
 30 43  1  0
 30 44  1  0
M  END
$$$$
