
     RDKit          3D

 37 39  0  0  0  0  0  0  0  0999 V2000
   -0.4173    4.2735    2.1465 C   0  0  0  0  0  0  0  0  0  0  0  0
    1.1632    3.7703    1.4066 S   0  0  0  0  0  0  0  0  0  0  0  0
    0.6761    2.2407    0.6188 C   0  0  0  0  0  0  0  0  0  0  0  0
    1.4844    1.7157   -0.3675 C   0  0  0  0  0  0  0  0  0  0  0  0
    1.1069    0.5139   -0.9356 C   0  0  0  0  0  0  0  0  0  0  0  0
    1.8677   -0.0491   -1.9730 N   0  0  0  0  0  0  0  0  0  0  0  0
    3.3036   -0.2653   -1.6734 C   0  0  0  0  0  0  0  0  0  0  0  0
    3.5085   -1.5659   -0.8774 C   0  0  0  0  0  0  0  0  0  0  0  0
    2.9745   -2.6966   -1.5856 O   0  0  0  0  0  0  0  0  0  0  0  0
    1.5596   -2.5258   -1.7977 C   0  0  0  0  0  0  0  0  0  0  0  0
    1.2683   -1.2498   -2.6087 C   0  0  0  0  0  0  0  0  0  0  0  0
   -0.0177   -0.0952   -0.5375 N   0  0  0  0  0  0  0  0  0  0  0  0
   -0.7401    0.4807    0.4406 C   0  0  0  0  0  0  0  0  0  0  0  0
   -1.9716   -0.1853    0.8505 C   0  0  0  0  0  0  0  0  0  0  0  0
   -3.2111    0.4461    0.6137 C   0  0  0  0  0  0  0  0  0  0  0  0
   -4.4147   -0.1578    0.9828 C   0  0  0  0  0  0  0  0  0  0  0  0
   -4.4053   -1.4057    1.5970 C   0  0  0  0  0  0  0  0  0  0  0  0
   -3.1915   -2.0429    1.8543 C   0  0  0  0  0  0  0  0  0  0  0  0
   -1.9834   -1.4360    1.4898 C   0  0  0  0  0  0  0  0  0  0  0  0
   -0.5275   -2.2697    1.9122 Cl  0  0  0  0  0  0  0  0  0  0  0  0
   -0.4509    1.6442    1.0351 N   0  0  0  0  0  0  0  0  0  0  0  0
   -1.1819    4.3962    1.3735 H   0  0  0  0  0  0  0  0  0  0  0  0
   -0.2836    5.2362    2.6492 H   0  0  0  0  0  0  0  0  0  0  0  0
   -0.7508    3.5440    2.8898 H   0  0  0  0  0  0  0  0  0  0  0  0
    2.3623    2.2472   -0.7035 H   0  0  0  0  0  0  0  0  0  0  0  0
    3.8266   -0.3552   -2.6345 H   0  0  0  0  0  0  0  0  0  0  0  0
    3.7620    0.5790   -1.1485 H   0  0  0  0  0  0  0  0  0  0  0  0
    3.0438   -1.5081    0.1154 H   0  0  0  0  0  0  0  0  0  0  0  0
    4.5779   -1.7470   -0.7306 H   0  0  0  0  0  0  0  0  0  0  0  0
    1.0561   -2.5236   -0.8246 H   0  0  0  0  0  0  0  0  0  0  0  0
    1.2037   -3.4021   -2.3491 H   0  0  0  0  0  0  0  0  0  0  0  0
    1.7325   -1.3560   -3.6001 H   0  0  0  0  0  0  0  0  0  0  0  0
    0.1941   -1.1302   -2.7875 H   0  0  0  0  0  0  0  0  0  0  0  0
   -3.2344    1.4226    0.1312 H   0  0  0  0  0  0  0  0  0  0  0  0
   -5.3583    0.3487    0.7932 H   0  0  0  0  0  0  0  0  0  0  0  0
   -5.3421   -1.8790    1.8846 H   0  0  0  0  0  0  0  0  0  0  0  0
   -3.1896   -3.0127    2.3498 H   0  0  0  0  0  0  0  0  0  0  0  0
  1  2  1  0
  2  3  1  0
  3  4  2  0
  4  5  1  0
  5  6  1  0
  6  7  1  0
  7  8  1  0
  8  9  1  0
  9 10  1  0
 10 11  1  0
  5 12  2  0
 12 13  1  0
 13 14  1  0
 14 15  2  0
 15 16  1  0
 16 17  2  0
 17 18  1  0
 18 19  2  0
 19 20  1  0
 13 21  2  0
 21  3  1  0
 11  6  1  0
 19 14  1  0
  1 22  1  0
  1 23  1  0
  1 24  1  0
  4 25  1  0
  7 26  1  0
  7 27  1  0
  8 28  1  0
  8 29  1  0
 10 30  1  0
 10 31  1  0
 11 32  1  0
 11 33  1  0
 15 34  1  0
 16 35  1  0
 17 36  1  0
 18 37  1  0
M  END
$$$$
