
     RDKit          3D

 55 60  0  0  0  0  0  0  0  0999 V2000
    7.3205    2.3083   -0.2337 C   0  0  0  0  0  0  0  0  0  0  0  0
    7.4195    0.9691   -0.6118 C   0  0  0  0  0  0  0  0  0  0  0  0
    6.2877    0.1528   -0.5902 C   0  0  0  0  0  0  0  0  0  0  0  0
    5.0510    0.6812   -0.2018 C   0  0  0  0  0  0  0  0  0  0  0  0
    3.8656   -0.2159   -0.1738 C   0  0  0  0  0  0  0  0  0  0  0  0
    3.9993   -1.4032    0.3400 N   0  0  0  0  0  0  0  0  0  0  0  0
    2.8875   -2.2682    0.3734 C   0  0  0  0  0  0  0  0  0  0  0  0
    3.0867   -3.5633    0.8601 C   0  0  0  0  0  0  0  0  0  0  0  0
    2.0395   -4.4856    0.8867 C   0  0  0  0  0  0  0  0  0  0  0  0
    0.7820   -4.1219    0.4099 C   0  0  0  0  0  0  0  0  0  0  0  0
    0.5629   -2.8318   -0.0771 C   0  0  0  0  0  0  0  0  0  0  0  0
    1.6046   -1.8999   -0.0672 C   0  0  0  0  0  0  0  0  0  0  0  0
    1.4686   -0.5759   -0.5516 N   0  0  0  0  0  0  0  0  0  0  0  0
    0.3500    0.1521   -0.9659 C   0  0  0  0  0  0  0  0  0  0  0  0
   -0.9475   -0.2123   -0.7032 N   0  0  0  0  0  0  0  0  0  0  0  0
   -1.3646   -0.2081    0.7297 C   0  0  0  0  0  0  0  0  0  0  0  0
   -2.5773    0.7114    1.0043 C   0  0  0  0  0  0  0  0  0  0  0  0
   -3.7302    0.3487    0.1599 N   0  0  0  0  0  0  0  0  0  0  0  0
   -5.0308    0.6640    0.5152 C   0  0  0  0  0  0  0  0  0  0  0  0
   -6.1324    0.0351   -0.0892 C   0  0  0  0  0  0  0  0  0  0  0  0
   -7.4522    0.3419    0.2653 C   0  0  0  0  0  0  0  0  0  0  0  0
   -7.7068    1.2938    1.2441 C   0  0  0  0  0  0  0  0  0  0  0  0
   -6.6411    1.9320    1.8657 C   0  0  0  0  0  0  0  0  0  0  0  0
   -5.3247    1.6164    1.5047 C   0  0  0  0  0  0  0  0  0  0  0  0
   -3.4122   -0.2016   -1.1724 C   0  0  0  0  0  0  0  0  0  0  0  0
   -2.0052    0.2334   -1.6400 C   0  0  0  0  0  0  0  0  0  0  0  0
    0.8283    1.2603   -1.6429 C   0  0  0  0  0  0  0  0  0  0  0  0
    2.2283    1.3138   -1.4656 C   0  0  0  0  0  0  0  0  0  0  0  0
    2.5921    0.2200   -0.7052 C   0  0  0  0  0  0  0  0  0  0  0  0
    4.9584    2.0196    0.1974 C   0  0  0  0  0  0  0  0  0  0  0  0
    6.0934    2.8325    0.1747 C   0  0  0  0  0  0  0  0  0  0  0  0
    8.2041    2.9419   -0.2471 H   0  0  0  0  0  0  0  0  0  0  0  0
    8.3783    0.5586   -0.9179 H   0  0  0  0  0  0  0  0  0  0  0  0
    6.3694   -0.8934   -0.8764 H   0  0  0  0  0  0  0  0  0  0  0  0
    4.0732   -3.8531    1.2126 H   0  0  0  0  0  0  0  0  0  0  0  0
    2.2116   -5.4902    1.2635 H   0  0  0  0  0  0  0  0  0  0  0  0
   -0.0281   -4.8470    0.4054 H   0  0  0  0  0  0  0  0  0  0  0  0
   -0.4129   -2.5936   -0.4857 H   0  0  0  0  0  0  0  0  0  0  0  0
   -1.6388   -1.2332    1.0056 H   0  0  0  0  0  0  0  0  0  0  0  0
   -0.5386    0.0940    1.3857 H   0  0  0  0  0  0  0  0  0  0  0  0
   -2.3023    1.7561    0.8148 H   0  0  0  0  0  0  0  0  0  0  0  0
   -2.8284    0.6096    2.0669 H   0  0  0  0  0  0  0  0  0  0  0  0
   -5.9816   -0.7358   -0.8399 H   0  0  0  0  0  0  0  0  0  0  0  0
   -8.2759   -0.1718   -0.2228 H   0  0  0  0  0  0  0  0  0  0  0  0
   -8.7286    1.5347    1.5226 H   0  0  0  0  0  0  0  0  0  0  0  0
   -6.8262    2.6801    2.6317 H   0  0  0  0  0  0  0  0  0  0  0  0
   -4.5275    2.1568    2.0066 H   0  0  0  0  0  0  0  0  0  0  0  0
   -4.1282    0.1501   -1.9249 H   0  0  0  0  0  0  0  0  0  0  0  0
   -3.4688   -1.2959   -1.1289 H   0  0  0  0  0  0  0  0  0  0  0  0
   -1.8119   -0.1926   -2.6318 H   0  0  0  0  0  0  0  0  0  0  0  0
   -1.9932    1.3270   -1.7331 H   0  0  0  0  0  0  0  0  0  0  0  0
    0.2261    2.0068   -2.1423 H   0  0  0  0  0  0  0  0  0  0  0  0
    2.8885    2.0884   -1.8339 H   0  0  0  0  0  0  0  0  0  0  0  0
    4.0151    2.4318    0.5452 H   0  0  0  0  0  0  0  0  0  0  0  0
    6.0236    3.8722    0.4847 H   0  0  0  0  0  0  0  0  0  0  0  0
  1  2  2  0
  2  3  1  0
  3  4  2  0
  4  5  1  0
  5  6  2  0
  6  7  1  0
  7  8  2  0
  8  9  1  0
  9 10  2  0
 10 11  1  0
 11 12  2  0
 12 13  1  0
 13 14  1  0
 14 15  1  0
 15 16  1  0
 16 17  1  0
 17 18  1  0
 18 19  1  0
 19 20  2  0
 20 21  1  0
 21 22  2  0
 22 23  1  0
 23 24  2  0
 18 25  1  0
 25 26  1  0
 14 27  2  0
 27 28  1  0
 28 29  2  0
  4 30  1  0
 30 31  2  0
 31  1  1  0
 29  5  1  0
 12  7  1  0
 29 13  1  0
 26 15  1  0
 24 19  1  0
  1 32  1  0
  2 33  1  0
  3 34  1  0
  8 35  1  0
  9 36  1  0
 10 37  1  0
 11 38  1  0
 16 39  1  0
 16 40  1  0
 17 41  1  0
 17 42  1  0
 20 43  1  0
 21 44  1  0
 22 45  1  0
 23 46  1  0
 24 47  1  0
 25 48  1  0
 25 49  1  0
 26 50  1  0
 26 51  1  0
 27 52  1  0
 28 53  1  0
 30 54  1  0
 31 55  1  0
M  END
$$$$
