
     RDKit          3D

 59 61  0  0  0  0  0  0  0  0999 V2000
   -6.2342   -2.7620   -1.3982 C   0  0  0  0  0  0  0  0  0  0  0  0
   -6.2696   -1.7043   -2.2242 C   0  0  0  0  0  0  0  0  0  0  0  0
   -5.2728   -0.5420   -2.2769 C   0  0  0  0  0  0  0  0  0  0  0  0
   -4.3147   -0.8919   -3.4481 C   0  0  0  0  0  0  0  0  0  0  0  0
   -5.9960    0.7542   -2.7227 C   0  0  0  0  0  0  0  0  0  0  0  0
   -4.5520   -0.2907   -0.9299 C   0  0  0  0  0  0  0  0  0  0  0  0
   -3.1607   -0.4668   -0.8008 C   0  0  0  0  0  0  0  0  0  0  0  0
   -2.4676   -0.2261    0.4035 C   0  0  0  0  0  0  0  0  0  0  0  0
   -0.9756   -0.4623    0.4141 C   0  0  2  0  0  0  0  0  0  0  0  0
   -0.6049   -1.8268    0.9901 C   0  0  0  0  0  0  0  0  0  0  0  0
    0.8817   -1.9853    0.8150 C   0  0  0  0  0  0  0  0  0  0  0  0
    1.4299   -3.0862    0.7908 O   0  0  0  0  0  0  0  0  0  0  0  0
    1.6880   -0.7437    0.7318 C   0  0  0  0  0  0  0  0  0  0  0  0
    1.0460    0.4760    0.9890 C   0  0  0  0  0  0  0  0  0  0  0  0
    1.7758    1.6599    1.0238 C   0  0  0  0  0  0  0  0  0  0  0  0
    3.1428    1.6319    0.7388 C   0  0  0  0  0  0  0  0  0  0  0  0
    3.7779    2.8432    0.8246 O   0  0  0  0  0  0  0  0  0  0  0  0
    3.8015    0.4348    0.3895 C   0  0  0  0  0  0  0  0  0  0  0  0
    5.2839    0.3990    0.0723 C   0  0  0  0  0  0  0  0  0  0  0  0
    6.0937    0.4249    1.3425 C   0  0  0  0  0  0  0  0  0  0  0  0
    7.0901    1.2530    1.7013 C   0  0  0  0  0  0  0  0  0  0  0  0
    7.6536    2.3645    0.8646 C   0  0  0  0  0  0  0  0  0  0  0  0
    7.7385    1.0901    3.0522 C   0  0  0  0  0  0  0  0  0  0  0  0
    3.0480   -0.7574    0.4017 C   0  0  0  0  0  0  0  0  0  0  0  0
    3.6646   -1.9249    0.0408 O   0  0  0  0  0  0  0  0  0  0  0  0
   -0.3136    0.5672    1.1878 O   0  0  0  0  0  0  0  0  0  0  0  0
   -3.2033    0.1817    1.5142 C   0  0  0  0  0  0  0  0  0  0  0  0
   -2.6165    0.4638    2.7126 O   0  0  0  0  0  0  0  0  0  0  0  0
   -4.5822    0.3255    1.4431 C   0  0  0  0  0  0  0  0  0  0  0  0
   -5.2426    0.0952    0.2331 C   0  0  0  0  0  0  0  0  0  0  0  0
   -6.6046    0.2509    0.1959 O   0  0  0  0  0  0  0  0  0  0  0  0
   -6.9902   -3.5351   -1.4601 H   0  0  0  0  0  0  0  0  0  0  0  0
   -5.4653   -2.8825   -0.6421 H   0  0  0  0  0  0  0  0  0  0  0  0
   -7.0726   -1.6646   -2.9596 H   0  0  0  0  0  0  0  0  0  0  0  0
   -3.5852   -0.0930   -3.6172 H   0  0  0  0  0  0  0  0  0  0  0  0
   -3.7634   -1.8227   -3.2730 H   0  0  0  0  0  0  0  0  0  0  0  0
   -4.8674   -1.0247   -4.3840 H   0  0  0  0  0  0  0  0  0  0  0  0
   -6.7864    1.0712   -2.0355 H   0  0  0  0  0  0  0  0  0  0  0  0
   -6.4707    0.6269   -3.7088 H   0  0  0  0  0  0  0  0  0  0  0  0
   -5.2812    1.5844   -2.8076 H   0  0  0  0  0  0  0  0  0  0  0  0
   -2.5789   -0.7990   -1.6553 H   0  0  0  0  0  0  0  0  0  0  0  0
   -0.6274   -0.3722   -0.6302 H   0  0  0  0  0  0  0  0  0  0  0  0
   -0.8259   -1.8925    2.0619 H   0  0  0  0  0  0  0  0  0  0  0  0
   -1.1194   -2.6381    0.4619 H   0  0  0  0  0  0  0  0  0  0  0  0
    1.2875    2.6063    1.2529 H   0  0  0  0  0  0  0  0  0  0  0  0
    4.7428    2.7055    0.8191 H   0  0  0  0  0  0  0  0  0  0  0  0
    5.5480   -0.5132   -0.4864 H   0  0  0  0  0  0  0  0  0  0  0  0
    5.5205    1.2254   -0.6094 H   0  0  0  0  0  0  0  0  0  0  0  0
    5.8056   -0.3525    2.0559 H   0  0  0  0  0  0  0  0  0  0  0  0
    8.6971    2.1453    0.6150 H   0  0  0  0  0  0  0  0  0  0  0  0
    7.1190    2.5210   -0.0691 H   0  0  0  0  0  0  0  0  0  0  0  0
    7.6236    3.3155    1.4071 H   0  0  0  0  0  0  0  0  0  0  0  0
    7.2342    0.3448    3.6678 H   0  0  0  0  0  0  0  0  0  0  0  0
    7.6974    2.0346    3.6094 H   0  0  0  0  0  0  0  0  0  0  0  0
    8.7831    0.7850    2.9321 H   0  0  0  0  0  0  0  0  0  0  0  0
    3.4139   -2.6313    0.7079 H   0  0  0  0  0  0  0  0  0  0  0  0
   -1.6860    0.7241    2.5182 H   0  0  0  0  0  0  0  0  0  0  0  0
   -5.1250    0.6377    2.3306 H   0  0  0  0  0  0  0  0  0  0  0  0
   -6.9331    0.3483    1.1079 H   0  0  0  0  0  0  0  0  0  0  0  0
  1  2  2  0
  2  3  1  0
  3  4  1  0
  3  5  1  0
  3  6  1  0
  6  7  2  0
  7  8  1  0
  8  9  1  0
  9 10  1  0
 10 11  1  0
 11 12  2  0
 11 13  1  0
 13 14  2  0
 14 15  1  0
 15 16  2  0
 16 17  1  0
 16 18  1  0
 18 19  1  0
 19 20  1  0
 20 21  2  3
 21 22  1  0
 21 23  1  0
 18 24  2  0
 24 25  1  0
 14 26  1  0
  8 27  2  0
 27 28  1  0
 27 29  1  0
 29 30  2  0
 30 31  1  0
 30  6  1  0
 26  9  1  0
 24 13  1  0
  1 32  1  0
  1 33  1  0
  2 34  1  0
  4 35  1  0
  4 36  1  0
  4 37  1  0
  5 38  1  0
  5 39  1  0
  5 40  1  0
  7 41  1  0
  9 42  1  6
 10 43  1  0
 10 44  1  0
 15 45  1  0
 17 46  1  0
 19 47  1  0
 19 48  1  0
 20 49  1  0
 22 50  1  0
 22 51  1  0
 22 52  1  0
 23 53  1  0
 23 54  1  0
 23 55  1  0
 25 56  1  0
 28 57  1  0
 29 58  1  0
 31 59  1  0
M  END
$$$$
