
     RDKit          3D

 40 42  0  0  0  0  0  0  0  0999 V2000
    4.5550    0.7982    1.3735 N   0  0  0  0  0  0  0  0  0  0  0  0
    3.7417   -0.2717    0.8087 C   0  0  0  0  0  0  0  0  0  0  0  0
    2.5851    0.3175    0.0019 C   0  0  0  0  0  0  0  0  0  0  0  0
    1.7437   -0.7858   -0.6422 C   0  0  0  0  0  0  0  0  0  0  0  0
    0.5721   -0.2723   -1.4976 C   0  0  0  0  0  0  0  0  0  0  0  0
   -0.5358    0.2900   -0.6843 N   0  0  0  0  0  0  0  0  0  0  0  0
   -0.6327    1.7131   -0.5818 C   0  0  0  0  0  0  0  0  0  0  0  0
    0.3258    2.5914   -1.1411 C   0  0  0  0  0  0  0  0  0  0  0  0
    0.2361    3.9874   -1.0439 C   0  0  0  0  0  0  0  0  0  0  0  0
   -0.8249    4.5680   -0.3761 C   0  0  0  0  0  0  0  0  0  0  0  0
   -1.7859    3.7454    0.1943 C   0  0  0  0  0  0  0  0  0  0  0  0
   -1.6975    2.3393    0.0999 C   0  0  0  0  0  0  0  0  0  0  0  0
   -3.0176    1.4664    0.9002 S   0  0  0  0  0  0  0  0  0  0  0  0
   -2.5947   -0.2287    0.6054 C   0  0  0  0  0  0  0  0  0  0  0  0
   -3.4979   -1.1628    1.1546 C   0  0  0  0  0  0  0  0  0  0  0  0
   -3.3053   -2.5308    1.0042 C   0  0  0  0  0  0  0  0  0  0  0  0
   -2.1965   -2.9902    0.3028 C   0  0  0  0  0  0  0  0  0  0  0  0
   -1.9608   -4.4669    0.1030 C   0  0  0  0  0  0  0  0  0  0  0  0
   -2.3877   -4.8983   -1.1154 F   0  0  0  0  0  0  0  0  0  0  0  0
   -0.6427   -4.8050    0.1774 F   0  0  0  0  0  0  0  0  0  0  0  0
   -2.5960   -5.2462    1.0217 F   0  0  0  0  0  0  0  0  0  0  0  0
   -1.3037   -2.0485   -0.2518 C   0  0  0  0  0  0  0  0  0  0  0  0
   -1.4623   -0.6461   -0.1210 C   0  0  0  0  0  0  0  0  0  0  0  0
    3.9798    1.3778    1.9849 H   0  0  0  0  0  0  0  0  0  0  0  0
    5.2796    0.3949    1.9664 H   0  0  0  0  0  0  0  0  0  0  0  0
    4.3715   -0.8968    0.1669 H   0  0  0  0  0  0  0  0  0  0  0  0
    3.3569   -0.9030    1.6172 H   0  0  0  0  0  0  0  0  0  0  0  0
    2.9838    0.9754   -0.7796 H   0  0  0  0  0  0  0  0  0  0  0  0
    1.9590    0.9259    0.6643 H   0  0  0  0  0  0  0  0  0  0  0  0
    1.3869   -1.4591    0.1446 H   0  0  0  0  0  0  0  0  0  0  0  0
    2.3945   -1.3850   -1.2918 H   0  0  0  0  0  0  0  0  0  0  0  0
    0.9424    0.4133   -2.2649 H   0  0  0  0  0  0  0  0  0  0  0  0
    0.1949   -1.0903   -2.1249 H   0  0  0  0  0  0  0  0  0  0  0  0
    1.2020    2.2336   -1.6679 H   0  0  0  0  0  0  0  0  0  0  0  0
    1.0060    4.6110   -1.4918 H   0  0  0  0  0  0  0  0  0  0  0  0
   -0.9046    5.6479   -0.2942 H   0  0  0  0  0  0  0  0  0  0  0  0
   -2.6176    4.2082    0.7228 H   0  0  0  0  0  0  0  0  0  0  0  0
   -4.3702   -0.8189    1.7092 H   0  0  0  0  0  0  0  0  0  0  0  0
   -4.0215   -3.2265    1.4374 H   0  0  0  0  0  0  0  0  0  0  0  0
   -0.4609   -2.4717   -0.7914 H   0  0  0  0  0  0  0  0  0  0  0  0
  1  2  1  0
  2  3  1  0
  3  4  1  0
  4  5  1  0
  5  6  1  0
  6  7  1  0
  7  8  2  0
  8  9  1  0
  9 10  2  0
 10 11  1  0
 11 12  2  0
 12 13  1  0
 13 14  1  0
 14 15  2  0
 15 16  1  0
 16 17  2  0
 17 18  1  0
 18 19  1  0
 18 20  1  0
 18 21  1  0
 17 22  1  0
 22 23  2  0
 23  6  1  0
 12  7  1  0
 23 14  1  0
  1 24  1  0
  1 25  1  0
  2 26  1  0
  2 27  1  0
  3 28  1  0
  3 29  1  0
  4 30  1  0
  4 31  1  0
  5 32  1  0
  5 33  1  0
  8 34  1  0
  9 35  1  0
 10 36  1  0
 11 37  1  0
 15 38  1  0
 16 39  1  0
 22 40  1  0
M  END
$$$$
