
     RDKit          3D

 32 33  0  0  0  0  0  0  0  0999 V2000
   -4.5908    1.3293    0.6635 C   0  0  0  0  0  0  0  0  0  0  0  0
   -3.6121    0.4858   -0.1392 C   0  0  0  0  0  0  0  0  0  0  0  0
   -3.0931   -0.6973    0.6800 C   0  0  0  0  0  0  0  0  0  0  0  0
   -2.1892   -1.6427   -0.1209 C   0  0  0  0  0  0  0  0  0  0  0  0
   -0.9230   -1.0364   -0.5325 N   0  0  0  0  0  0  0  0  0  0  0  0
   -0.7812   -0.4637   -1.7575 C   0  0  0  0  0  0  0  0  0  0  0  0
   -1.5848   -0.3718   -2.6628 O   0  0  0  0  0  0  0  0  0  0  0  0
    0.6415    0.0804   -1.8043 C   0  0  0  0  0  0  0  0  0  0  0  0
    1.0865    0.6529   -2.7803 O   0  0  0  0  0  0  0  0  0  0  0  0
    1.2086   -0.2568   -0.6001 N   0  0  0  0  0  0  0  0  0  0  0  0
    2.5720    0.0443   -0.2965 C   0  0  0  0  0  0  0  0  0  0  0  0
    3.1789    1.1982   -0.8224 C   0  0  0  0  0  0  0  0  0  0  0  0
    4.5145    1.5111   -0.5463 C   0  0  0  0  0  0  0  0  0  0  0  0
    5.2770    0.6685    0.2534 C   0  0  0  0  0  0  0  0  0  0  0  0
    4.7057   -0.4898    0.7674 C   0  0  0  0  0  0  0  0  0  0  0  0
    3.3687   -0.8002    0.4899 C   0  0  0  0  0  0  0  0  0  0  0  0
    0.2532   -0.9043    0.1955 C   0  0  0  0  0  0  0  0  0  0  0  0
    0.3958   -1.3919    1.7963 S   0  0  0  0  0  0  0  0  0  0  0  0
   -4.9467    2.1717    0.0621 H   0  0  0  0  0  0  0  0  0  0  0  0
   -5.4605    0.7384    0.9682 H   0  0  0  0  0  0  0  0  0  0  0  0
   -4.1153    1.7313    1.5639 H   0  0  0  0  0  0  0  0  0  0  0  0
   -2.7786    1.1229   -0.4540 H   0  0  0  0  0  0  0  0  0  0  0  0
   -4.1104    0.1234   -1.0455 H   0  0  0  0  0  0  0  0  0  0  0  0
   -2.5653   -0.3202    1.5628 H   0  0  0  0  0  0  0  0  0  0  0  0
   -3.9489   -1.2774    1.0473 H   0  0  0  0  0  0  0  0  0  0  0  0
   -1.9708   -2.5296    0.4834 H   0  0  0  0  0  0  0  0  0  0  0  0
   -2.7224   -1.9879   -1.0148 H   0  0  0  0  0  0  0  0  0  0  0  0
    2.6215    1.8992   -1.4403 H   0  0  0  0  0  0  0  0  0  0  0  0
    4.9544    2.4157   -0.9594 H   0  0  0  0  0  0  0  0  0  0  0  0
    6.3153    0.9084    0.4670 H   0  0  0  0  0  0  0  0  0  0  0  0
    5.3019   -1.1643    1.3775 H   0  0  0  0  0  0  0  0  0  0  0  0
    2.9974   -1.7474    0.8684 H   0  0  0  0  0  0  0  0  0  0  0  0
  1  2  1  0
  2  3  1  0
  3  4  1  0
  4  5  1  0
  5  6  1  0
  6  7  2  0
  6  8  1  0
  8  9  2  0
  8 10  1  0
 10 11  1  0
 11 12  2  0
 12 13  1  0
 13 14  2  0
 14 15  1  0
 15 16  2  0
 10 17  1  0
 17 18  2  0
 17  5  1  0
 16 11  1  0
  1 19  1  0
  1 20  1  0
  1 21  1  0
  2 22  1  0
  2 23  1  0
  3 24  1  0
  3 25  1  0
  4 26  1  0
  4 27  1  0
 12 28  1  0
 13 29  1  0
 14 30  1  0
 15 31  1  0
 16 32  1  0
M  END
$$$$
