
     RDKit          3D

 33 34  0  0  0  0  0  0  0  0999 V2000
   -6.1705    0.9559   -1.0919 C   0  0  0  0  0  0  0  0  0  0  0  0
   -4.6552    0.8607   -1.0866 C   0  0  0  0  0  0  0  0  0  0  0  0
   -4.2770   -0.0536   -0.0587 O   0  0  0  0  0  0  0  0  0  0  0  0
   -2.9462   -0.3378    0.0662 C   0  0  0  0  0  0  0  0  0  0  0  0
   -1.9066    0.2696   -0.6391 C   0  0  0  0  0  0  0  0  0  0  0  0
   -0.5786   -0.1167   -0.4131 C   0  0  0  0  0  0  0  0  0  0  0  0
   -0.2830   -1.1120    0.5271 C   0  0  0  0  0  0  0  0  0  0  0  0
    1.1119   -1.5607    0.7983 C   0  0  0  0  0  0  0  0  0  0  0  0
    1.3263   -2.6723    1.2690 O   0  0  0  0  0  0  0  0  0  0  0  0
    2.1116   -0.6556    0.5220 N   0  0  0  0  0  0  0  0  0  0  0  0
    3.4753   -0.9457    0.8998 C   0  0  0  0  0  0  0  0  0  0  0  0
    4.3632    0.0575    0.2650 C   0  0  0  0  0  0  0  0  0  0  0  0
    5.3836   -0.0293   -0.6598 C   0  0  0  0  0  0  0  0  0  0  0  0
    5.8465    1.2922   -0.8697 C   0  0  0  0  0  0  0  0  0  0  0  0
    5.0804    2.1001   -0.0637 C   0  0  0  0  0  0  0  0  0  0  0  0
    4.1731    1.3619    0.6260 O   0  0  0  0  0  0  0  0  0  0  0  0
   -1.3274   -1.7273    1.2247 C   0  0  0  0  0  0  0  0  0  0  0  0
   -2.6491   -1.3362    0.9965 C   0  0  0  0  0  0  0  0  0  0  0  0
   -6.6186   -0.0315   -1.2469 H   0  0  0  0  0  0  0  0  0  0  0  0
   -6.5166    1.6296   -1.8808 H   0  0  0  0  0  0  0  0  0  0  0  0
   -6.5362    1.3245   -0.1276 H   0  0  0  0  0  0  0  0  0  0  0  0
   -4.2356    1.8526   -0.8833 H   0  0  0  0  0  0  0  0  0  0  0  0
   -4.3158    0.4990   -2.0643 H   0  0  0  0  0  0  0  0  0  0  0  0
   -2.0932    1.0454   -1.3747 H   0  0  0  0  0  0  0  0  0  0  0  0
    0.2072    0.3517   -0.9992 H   0  0  0  0  0  0  0  0  0  0  0  0
    1.8759    0.3238    0.4322 H   0  0  0  0  0  0  0  0  0  0  0  0
    3.7323   -1.9623    0.5842 H   0  0  0  0  0  0  0  0  0  0  0  0
    3.5486   -0.8944    1.9915 H   0  0  0  0  0  0  0  0  0  0  0  0
    5.7462   -0.9369   -1.1235 H   0  0  0  0  0  0  0  0  0  0  0  0
    6.6415    1.6157   -1.5264 H   0  0  0  0  0  0  0  0  0  0  0  0
    5.0577    3.1643    0.1259 H   0  0  0  0  0  0  0  0  0  0  0  0
   -1.1172   -2.5127    1.9477 H   0  0  0  0  0  0  0  0  0  0  0  0
   -3.4543   -1.8193    1.5448 H   0  0  0  0  0  0  0  0  0  0  0  0
  1  2  1  0
  2  3  1  0
  3  4  1  0
  4  5  2  0
  5  6  1  0
  6  7  2  0
  7  8  1  0
  8  9  2  0
  8 10  1  0
 10 11  1  0
 11 12  1  0
 12 13  2  0
 13 14  1  0
 14 15  2  0
 15 16  1  0
  7 17  1  0
 17 18  2  0
 18  4  1  0
 16 12  1  0
  1 19  1  0
  1 20  1  0
  1 21  1  0
  2 22  1  0
  2 23  1  0
  5 24  1  0
  6 25  1  0
 10 26  1  0
 11 27  1  0
 11 28  1  0
 13 29  1  0
 14 30  1  0
 15 31  1  0
 17 32  1  0
 18 33  1  0
M  END
$$$$
