
     RDKit          3D

 40 42  0  0  0  0  0  0  0  0999 V2000
    1.3022   -2.5479    1.3053 O   0  0  0  0  0  0  0  0  0  0  0  0
    1.5734   -1.3492    1.3367 C   0  0  0  0  0  0  0  0  0  0  0  0
    2.9289   -0.8335    1.7851 C   0  0  0  0  0  0  0  0  0  0  0  0
    3.9220   -0.7535    0.6529 C   0  0  0  0  0  0  0  0  0  0  0  0
    4.2830    0.4837    0.1024 C   0  0  0  0  0  0  0  0  0  0  0  0
    5.1955    0.5477   -0.9520 C   0  0  0  0  0  0  0  0  0  0  0  0
    5.7522   -0.6218   -1.4675 C   0  0  0  0  0  0  0  0  0  0  0  0
    5.3970   -1.8574   -0.9303 C   0  0  0  0  0  0  0  0  0  0  0  0
    4.4855   -1.9238    0.1239 C   0  0  0  0  0  0  0  0  0  0  0  0
    0.6875   -0.3645    0.9561 N   0  0  0  0  0  0  0  0  0  0  0  0
   -0.7007   -0.6834    0.6513 C   0  0  0  0  0  0  0  0  0  0  0  0
   -1.4044    0.4750   -0.0855 C   0  0  0  0  0  0  0  0  0  0  0  0
   -1.2146    1.6520    0.7416 O   0  0  0  0  0  0  0  0  0  0  0  0
   -2.0399    2.7366    0.3211 C   0  0  0  0  0  0  0  0  0  0  0  0
   -3.4926    2.3984    0.6237 C   0  0  0  0  0  0  0  0  0  0  0  0
   -3.8701    1.1102   -0.0584 C   0  0  0  0  0  0  0  0  0  0  0  0
   -5.2150    0.8249   -0.3276 C   0  0  0  0  0  0  0  0  0  0  0  0
   -5.5677   -0.3627   -0.9641 C   0  0  0  0  0  0  0  0  0  0  0  0
   -4.5803   -1.2708   -1.3368 C   0  0  0  0  0  0  0  0  0  0  0  0
   -3.2399   -1.0006   -1.0569 C   0  0  0  0  0  0  0  0  0  0  0  0
   -2.8679    0.1770   -0.3888 C   0  0  0  0  0  0  0  0  0  0  0  0
    3.3109   -1.5030    2.5665 H   0  0  0  0  0  0  0  0  0  0  0  0
    2.8099    0.1442    2.2671 H   0  0  0  0  0  0  0  0  0  0  0  0
    3.8561    1.4076    0.4872 H   0  0  0  0  0  0  0  0  0  0  0  0
    5.4708    1.5107   -1.3731 H   0  0  0  0  0  0  0  0  0  0  0  0
    6.4601   -0.5708   -2.2896 H   0  0  0  0  0  0  0  0  0  0  0  0
    5.8263   -2.7719   -1.3335 H   0  0  0  0  0  0  0  0  0  0  0  0
    4.2076   -2.8968    0.5267 H   0  0  0  0  0  0  0  0  0  0  0  0
    0.8567    0.5854    1.2641 H   0  0  0  0  0  0  0  0  0  0  0  0
   -0.7249   -1.6109    0.0706 H   0  0  0  0  0  0  0  0  0  0  0  0
   -1.1901   -0.8749    1.6138 H   0  0  0  0  0  0  0  0  0  0  0  0
   -0.8893    0.6680   -1.0353 H   0  0  0  0  0  0  0  0  0  0  0  0
   -1.8719    2.9382   -0.7444 H   0  0  0  0  0  0  0  0  0  0  0  0
   -1.7387    3.6273    0.8810 H   0  0  0  0  0  0  0  0  0  0  0  0
   -4.1395    3.2173    0.2911 H   0  0  0  0  0  0  0  0  0  0  0  0
   -3.6279    2.2605    1.7024 H   0  0  0  0  0  0  0  0  0  0  0  0
   -5.9947    1.5297   -0.0449 H   0  0  0  0  0  0  0  0  0  0  0  0
   -6.6116   -0.5788   -1.1743 H   0  0  0  0  0  0  0  0  0  0  0  0
   -4.8537   -2.1934   -1.8431 H   0  0  0  0  0  0  0  0  0  0  0  0
   -2.4903   -1.7246   -1.3710 H   0  0  0  0  0  0  0  0  0  0  0  0
  1  2  2  0
  2  3  1  0
  3  4  1  0
  4  5  2  0
  5  6  1  0
  6  7  2  0
  7  8  1  0
  8  9  2  0
  2 10  1  0
 10 11  1  0
 11 12  1  0
 12 13  1  0
 13 14  1  0
 14 15  1  0
 15 16  1  0
 16 17  2  0
 17 18  1  0
 18 19  2  0
 19 20  1  0
 20 21  2  0
  9  4  1  0
 21 12  1  0
 21 16  1  0
  3 22  1  0
  3 23  1  0
  5 24  1  0
  6 25  1  0
  7 26  1  0
  8 27  1  0
  9 28  1  0
 10 29  1  0
 11 30  1  0
 11 31  1  0
 12 32  1  0
 14 33  1  0
 14 34  1  0
 15 35  1  0
 15 36  1  0
 17 37  1  0
 18 38  1  0
 19 39  1  0
 20 40  1  0
M  END
$$$$
