
     RDKit          3D

 48 50  0  0  0  0  0  0  0  0999 V2000
   -5.3052   -0.0223    2.2829 C   0  0  0  0  0  0  0  0  0  0  0  0
   -5.5180    0.1780    0.8926 O   0  0  0  0  0  0  0  0  0  0  0  0
   -4.4122    0.3850    0.1085 C   0  0  0  0  0  0  0  0  0  0  0  0
   -3.1286    0.6450    0.5939 C   0  0  0  0  0  0  0  0  0  0  0  0
   -2.0602    0.8409   -0.2933 C   0  0  0  0  0  0  0  0  0  0  0  0
   -0.7265    1.1247    0.2533 C   0  0  0  0  0  0  0  0  0  0  0  0
    0.3436    0.3084    0.1675 C   0  0  0  0  0  0  0  0  0  0  0  0
    0.2949   -0.9516   -0.4878 C   0  0  0  0  0  0  0  0  0  0  0  0
    0.3501   -1.9906   -1.0015 N   0  0  0  0  0  0  0  0  0  0  0  0
    1.6261    0.7744    0.8128 C   0  0  0  0  0  0  0  0  0  0  0  0
    1.6751    1.8925    1.3164 O   0  0  0  0  0  0  0  0  0  0  0  0
    2.6669   -0.1406    0.7762 N   0  0  0  0  0  0  0  0  0  0  0  0
    3.9849    0.0026    1.2993 C   0  0  0  0  0  0  0  0  0  0  0  0
    4.3941    1.1733    1.9473 C   0  0  0  0  0  0  0  0  0  0  0  0
    5.6827    1.2885    2.4572 C   0  0  0  0  0  0  0  0  0  0  0  0
    6.5771    0.2322    2.3239 C   0  0  0  0  0  0  0  0  0  0  0  0
    6.2238   -0.9438    1.6875 C   0  0  0  0  0  0  0  0  0  0  0  0
    7.1644   -1.9010    1.6090 N   0  0  0  0  0  0  0  0  0  0  0  0
    6.8550   -3.0572    0.9916 C   0  0  0  0  0  0  0  0  0  0  0  0
    5.6237   -3.3127    0.4332 C   0  0  0  0  0  0  0  0  0  0  0  0
    4.6510   -2.3202    0.5181 C   0  0  0  0  0  0  0  0  0  0  0  0
    4.9162   -1.0818    1.1580 C   0  0  0  0  0  0  0  0  0  0  0  0
   -2.2756    0.7866   -1.6772 C   0  0  0  0  0  0  0  0  0  0  0  0
   -3.5515    0.5244   -2.1813 C   0  0  0  0  0  0  0  0  0  0  0  0
   -3.8615    0.4557   -3.5142 O   0  0  0  0  0  0  0  0  0  0  0  0
   -2.7788    0.2786   -4.4230 C   0  0  0  0  0  0  0  0  0  0  0  0
   -4.6166    0.3487   -1.2811 C   0  0  0  0  0  0  0  0  0  0  0  0
   -5.8700    0.0516   -1.7705 O   0  0  0  0  0  0  0  0  0  0  0  0
   -6.6078    1.2562   -1.9715 C   0  0  0  0  0  0  0  0  0  0  0  0
   -4.9587    0.8991    2.7617 H   0  0  0  0  0  0  0  0  0  0  0  0
   -4.6099   -0.8486    2.4656 H   0  0  0  0  0  0  0  0  0  0  0  0
   -6.2663   -0.2893    2.7335 H   0  0  0  0  0  0  0  0  0  0  0  0
   -2.9379    0.7034    1.6610 H   0  0  0  0  0  0  0  0  0  0  0  0
   -0.6570    2.0753    0.7824 H   0  0  0  0  0  0  0  0  0  0  0  0
    2.4881   -1.0319    0.3380 H   0  0  0  0  0  0  0  0  0  0  0  0
    3.7371    2.0272    2.0773 H   0  0  0  0  0  0  0  0  0  0  0  0
    5.9907    2.2027    2.9594 H   0  0  0  0  0  0  0  0  0  0  0  0
    7.5828    0.3309    2.7270 H   0  0  0  0  0  0  0  0  0  0  0  0
    7.6531   -3.7935    0.9579 H   0  0  0  0  0  0  0  0  0  0  0  0
    5.4211   -4.2584   -0.0567 H   0  0  0  0  0  0  0  0  0  0  0  0
    3.6888   -2.5431    0.0691 H   0  0  0  0  0  0  0  0  0  0  0  0
   -1.4410    0.9670   -2.3475 H   0  0  0  0  0  0  0  0  0  0  0  0
   -2.1776    1.1928   -4.4972 H   0  0  0  0  0  0  0  0  0  0  0  0
   -2.1584   -0.5829   -4.1463 H   0  0  0  0  0  0  0  0  0  0  0  0
   -3.2016    0.0804   -5.4126 H   0  0  0  0  0  0  0  0  0  0  0  0
   -7.5921    0.9830   -2.3640 H   0  0  0  0  0  0  0  0  0  0  0  0
   -6.7584    1.7956   -1.0294 H   0  0  0  0  0  0  0  0  0  0  0  0
   -6.1202    1.9069   -2.7068 H   0  0  0  0  0  0  0  0  0  0  0  0
  1  2  1  0
  2  3  1  0
  3  4  2  0
  4  5  1  0
  5  6  1  0
  6  7  2  3
  7  8  1  0
  8  9  3  0
  7 10  1  0
 10 11  2  0
 10 12  1  0
 12 13  1  0
 13 14  2  0
 14 15  1  0
 15 16  2  0
 16 17  1  0
 17 18  2  0
 18 19  1  0
 19 20  2  0
 20 21  1  0
 21 22  2  0
  5 23  2  0
 23 24  1  0
 24 25  1  0
 25 26  1  0
 24 27  2  0
 27 28  1  0
 28 29  1  0
 27  3  1  0
 22 13  1  0
 22 17  1  0
  1 30  1  0
  1 31  1  0
  1 32  1  0
  4 33  1  0
  6 34  1  0
 12 35  1  0
 14 36  1  0
 15 37  1  0
 16 38  1  0
 19 39  1  0
 20 40  1  0
 21 41  1  0
 23 42  1  0
 26 43  1  0
 26 44  1  0
 26 45  1  0
 29 46  1  0
 29 47  1  0
 29 48  1  0
M  END
$$$$
