
     RDKit          3D

 40 41  0  0  0  0  0  0  0  0999 V2000
    5.7005   -1.5636   -4.2183 C   0  0  0  0  0  0  0  0  0  0  0  0
    5.1137   -0.3171   -4.8659 C   0  0  0  0  0  0  0  0  0  0  0  0
    4.4440    0.6097   -3.8531 C   0  0  0  0  0  0  0  0  0  0  0  0
    3.1016    0.0992   -3.3438 C   0  0  0  0  0  0  0  0  0  0  0  0
    2.5545   -0.8898   -3.8155 O   0  0  0  0  0  0  0  0  0  0  0  0
    2.6106    0.9053   -2.3273 N   0  0  0  0  0  0  0  0  0  0  0  0
    1.4021    0.7531   -1.6174 C   0  0  0  0  0  0  0  0  0  0  0  0
    1.1197    1.7025   -0.6260 C   0  0  0  0  0  0  0  0  0  0  0  0
   -0.0569    1.6261    0.1299 C   0  0  0  0  0  0  0  0  0  0  0  0
   -0.9668    0.5880   -0.0951 C   0  0  0  0  0  0  0  0  0  0  0  0
   -2.2334    0.4564    0.6766 C   0  0  0  0  0  0  0  0  0  0  0  0
   -3.1796   -0.1959    0.2410 O   0  0  0  0  0  0  0  0  0  0  0  0
   -2.2737    1.0747    1.9133 N   0  0  0  0  0  0  0  0  0  0  0  0
   -3.3663    0.7446    2.7438 N   0  0  0  0  0  0  0  0  0  0  0  0
   -3.1046    0.5493    4.0938 C   0  0  0  0  0  0  0  0  0  0  0  0
   -2.0055    0.8668    4.5562 O   0  0  0  0  0  0  0  0  0  0  0  0
   -4.1923   -0.0473    4.8576 C   0  0  0  0  0  0  0  0  0  0  0  0
   -5.5016   -0.3163    4.4936 C   0  0  0  0  0  0  0  0  0  0  0  0
   -6.2535   -0.9161    5.5477 C   0  0  0  0  0  0  0  0  0  0  0  0
   -5.5007   -1.0833    6.6865 C   0  0  0  0  0  0  0  0  0  0  0  0
   -3.9021   -0.5173    6.4853 S   0  0  0  0  0  0  0  0  0  0  0  0
   -0.6951   -0.3524   -1.0939 C   0  0  0  0  0  0  0  0  0  0  0  0
    0.4836   -0.2722   -1.8463 C   0  0  0  0  0  0  0  0  0  0  0  0
    6.4420   -1.2974   -3.4581 H   0  0  0  0  0  0  0  0  0  0  0  0
    6.1980   -2.1809   -4.9731 H   0  0  0  0  0  0  0  0  0  0  0  0
    4.9265   -2.1732   -3.7428 H   0  0  0  0  0  0  0  0  0  0  0  0
    4.4049   -0.6107   -5.6486 H   0  0  0  0  0  0  0  0  0  0  0  0
    5.9260    0.2300   -5.3589 H   0  0  0  0  0  0  0  0  0  0  0  0
    4.2569    1.5778   -4.3341 H   0  0  0  0  0  0  0  0  0  0  0  0
    5.1118    0.7810   -3.0007 H   0  0  0  0  0  0  0  0  0  0  0  0
    3.1850    1.6954   -2.0621 H   0  0  0  0  0  0  0  0  0  0  0  0
    1.8079    2.5214   -0.4298 H   0  0  0  0  0  0  0  0  0  0  0  0
   -0.2496    2.3990    0.8687 H   0  0  0  0  0  0  0  0  0  0  0  0
   -1.4159    1.3047    2.4154 H   0  0  0  0  0  0  0  0  0  0  0  0
   -4.1132    0.2340    2.2762 H   0  0  0  0  0  0  0  0  0  0  0  0
   -5.9229   -0.0931    3.5210 H   0  0  0  0  0  0  0  0  0  0  0  0
   -7.2948   -1.2067    5.4737 H   0  0  0  0  0  0  0  0  0  0  0  0
   -5.8119   -1.5081    7.6313 H   0  0  0  0  0  0  0  0  0  0  0  0
   -1.3975   -1.1599   -1.2945 H   0  0  0  0  0  0  0  0  0  0  0  0
    0.6484   -1.0303   -2.6061 H   0  0  0  0  0  0  0  0  0  0  0  0
  1  2  1  0
  2  3  1  0
  3  4  1  0
  4  5  2  0
  4  6  1  0
  6  7  1  0
  7  8  2  0
  8  9  1  0
  9 10  2  0
 10 11  1  0
 11 12  2  0
 11 13  1  0
 13 14  1  0
 14 15  1  0
 15 16  2  0
 15 17  1  0
 17 18  2  0
 18 19  1  0
 19 20  2  0
 20 21  1  0
 10 22  1  0
 22 23  2  0
 23  7  1  0
 21 17  1  0
  1 24  1  0
  1 25  1  0
  1 26  1  0
  2 27  1  0
  2 28  1  0
  3 29  1  0
  3 30  1  0
  6 31  1  0
  8 32  1  0
  9 33  1  0
 13 34  1  0
 14 35  1  0
 18 36  1  0
 19 37  1  0
 20 38  1  0
 22 39  1  0
 23 40  1  0
M  END
$$$$
