
     RDKit          3D

 52 55  0  0  0  0  0  0  0  0999 V2000
    7.5771   -0.2893   -0.7746 C   0  0  0  0  0  0  0  0  0  0  0  0
    6.1662   -0.3659   -0.3284 C   0  0  0  0  0  0  0  0  0  0  0  0
    5.3846    0.6422    0.2720 C   0  0  0  0  0  0  0  0  0  0  0  0
    4.1328    0.0857    0.4654 C   0  0  0  0  0  0  0  0  0  0  0  0
    2.9692    0.7178    1.0315 C   0  0  0  0  0  0  0  0  0  0  0  0
    3.0261    1.5123    1.9638 O   0  0  0  0  0  0  0  0  0  0  0  0
    1.7834    0.4042    0.4090 N   0  0  0  0  0  0  0  0  0  0  0  0
    0.5271    0.9794    0.8479 C   0  0  0  0  0  0  0  0  0  0  0  0
    0.0093    0.2458    2.1093 C   0  0  0  0  0  0  0  0  0  0  0  0
   -1.5122    0.4386    2.3755 C   0  0  0  0  0  0  0  0  0  0  0  0
   -1.8287    1.9203    2.6641 C   0  0  0  0  0  0  0  0  0  0  0  0
   -1.9061   -0.3816    3.6187 C   0  0  0  0  0  0  0  0  0  0  0  0
   -2.3445   -0.0710    1.1567 C   0  0  0  0  0  0  0  0  0  0  0  0
   -1.7448    0.3776   -0.1355 C   0  0  0  0  0  0  0  0  0  0  0  0
   -0.4570    0.8680   -0.2669 C   0  0  0  0  0  0  0  0  0  0  0  0
   -0.3799    1.3056   -1.5934 C   0  0  0  0  0  0  0  0  0  0  0  0
   -1.4984    1.0650   -2.2707 N   0  0  0  0  0  0  0  0  0  0  0  0
   -2.3370    0.4441   -1.3908 N   0  0  0  0  0  0  0  0  0  0  0  0
   -3.6061   -0.0159   -1.8606 C   0  0  0  0  0  0  0  0  0  0  0  0
   -4.4258   -0.8759   -1.1172 C   0  0  0  0  0  0  0  0  0  0  0  0
   -5.6605   -1.3001   -1.6268 C   0  0  0  0  0  0  0  0  0  0  0  0
   -6.0836   -0.8763   -2.8833 C   0  0  0  0  0  0  0  0  0  0  0  0
   -5.2667   -0.0376   -3.6278 C   0  0  0  0  0  0  0  0  0  0  0  0
   -5.6688    0.3646   -4.8406 F   0  0  0  0  0  0  0  0  0  0  0  0
   -4.0381    0.3902   -3.1358 C   0  0  0  0  0  0  0  0  0  0  0  0
    4.2683   -1.2197    0.0639 N   0  0  0  0  0  0  0  0  0  0  0  0
    3.3199   -2.2994    0.2160 C   0  0  0  0  0  0  0  0  0  0  0  0
    5.4693   -1.4965   -0.4797 N   0  0  0  0  0  0  0  0  0  0  0  0
    8.1656   -1.1022   -0.3375 H   0  0  0  0  0  0  0  0  0  0  0  0
    7.6376   -0.3646   -1.8650 H   0  0  0  0  0  0  0  0  0  0  0  0
    8.0349    0.6584   -0.4735 H   0  0  0  0  0  0  0  0  0  0  0  0
    5.6771    1.6549    0.5153 H   0  0  0  0  0  0  0  0  0  0  0  0
    1.8028   -0.1110   -0.4597 H   0  0  0  0  0  0  0  0  0  0  0  0
    0.6861    2.0397    1.0804 H   0  0  0  0  0  0  0  0  0  0  0  0
    0.5923    0.5695    2.9816 H   0  0  0  0  0  0  0  0  0  0  0  0
    0.2072   -0.8315    2.0039 H   0  0  0  0  0  0  0  0  0  0  0  0
   -2.8854    2.0516    2.9238 H   0  0  0  0  0  0  0  0  0  0  0  0
   -1.6238    2.5667    1.8052 H   0  0  0  0  0  0  0  0  0  0  0  0
   -1.2330    2.2905    3.5061 H   0  0  0  0  0  0  0  0  0  0  0  0
   -2.9769   -0.2873    3.8313 H   0  0  0  0  0  0  0  0  0  0  0  0
   -1.6874   -1.4461    3.4780 H   0  0  0  0  0  0  0  0  0  0  0  0
   -1.3574   -0.0446    4.5053 H   0  0  0  0  0  0  0  0  0  0  0  0
   -2.3549   -1.1681    1.1644 H   0  0  0  0  0  0  0  0  0  0  0  0
   -3.3760    0.2855    1.2545 H   0  0  0  0  0  0  0  0  0  0  0  0
    0.4410    1.8004   -2.0977 H   0  0  0  0  0  0  0  0  0  0  0  0
   -4.1353   -1.2721   -0.1532 H   0  0  0  0  0  0  0  0  0  0  0  0
   -6.2882   -1.9695   -1.0426 H   0  0  0  0  0  0  0  0  0  0  0  0
   -7.0369   -1.1985   -3.2896 H   0  0  0  0  0  0  0  0  0  0  0  0
   -3.4377    1.0472   -3.7606 H   0  0  0  0  0  0  0  0  0  0  0  0
    2.7425   -2.1484    1.1309 H   0  0  0  0  0  0  0  0  0  0  0  0
    3.8629   -3.2460    0.2883 H   0  0  0  0  0  0  0  0  0  0  0  0
    2.6680   -2.3067   -0.6607 H   0  0  0  0  0  0  0  0  0  0  0  0
  1  2  1  0
  2  3  1  0
  3  4  2  0
  4  5  1  0
  5  6  2  0
  5  7  1  0
  7  8  1  0
  8  9  1  0
  9 10  1  0
 10 11  1  0
 10 12  1  0
 10 13  1  0
 13 14  1  0
 14 15  2  0
 15 16  1  0
 16 17  2  0
 17 18  1  0
 18 19  1  0
 19 20  2  0
 20 21  1  0
 21 22  2  0
 22 23  1  0
 23 24  1  0
 23 25  2  0
  4 26  1  0
 26 27  1  0
 26 28  1  0
 28  2  2  0
 15  8  1  0
 25 19  1  0
 18 14  1  0
  1 29  1  0
  1 30  1  0
  1 31  1  0
  3 32  1  0
  7 33  1  0
  8 34  1  0
  9 35  1  0
  9 36  1  0
 11 37  1  0
 11 38  1  0
 11 39  1  0
 12 40  1  0
 12 41  1  0
 12 42  1  0
 13 43  1  0
 13 44  1  0
 16 45  1  0
 20 46  1  0
 21 47  1  0
 22 48  1  0
 25 49  1  0
 27 50  1  0
 27 51  1  0
 27 52  1  0
M  END
$$$$
