
     RDKit          3D

 36 37  0  0  0  0  0  0  0  0999 V2000
    6.5031    0.6074    1.4871 C   0  0  0  0  0  0  0  0  0  0  0  0
    5.1039    0.4931    1.2259 O   0  0  0  0  0  0  0  0  0  0  0  0
    4.8075    0.1824   -0.0612 C   0  0  0  0  0  0  0  0  0  0  0  0
    5.6191    0.0051   -0.9566 O   0  0  0  0  0  0  0  0  0  0  0  0
    3.3352    0.0811   -0.2544 C   0  0  0  0  0  0  0  0  0  0  0  0
    2.8564   -0.2346   -1.5328 C   0  0  0  0  0  0  0  0  0  0  0  0
    1.4822   -0.3420   -1.7686 C   0  0  0  0  0  0  0  0  0  0  0  0
    0.5624   -0.1356   -0.7301 C   0  0  0  0  0  0  0  0  0  0  0  0
   -0.9261   -0.2506   -0.9793 C   0  0  0  0  0  0  0  0  0  0  0  0
   -1.4366   -1.2879   -0.1444 O   0  0  0  0  0  0  0  0  0  0  0  0
   -2.8403   -1.4445   -0.3239 C   0  0  0  0  0  0  0  0  0  0  0  0
   -3.5813   -0.1317   -0.0319 C   0  0  0  0  0  0  0  0  0  0  0  0
   -5.0663   -0.2709   -0.3861 C   0  0  0  0  0  0  0  0  0  0  0  0
   -3.4462    0.2209    1.4616 C   0  0  0  0  0  0  0  0  0  0  0  0
   -2.9325    0.9678   -0.8852 C   0  0  0  0  0  0  0  0  0  0  0  0
   -1.5244    1.0085   -0.6787 O   0  0  0  0  0  0  0  0  0  0  0  0
    1.0503    0.1805    0.5487 C   0  0  0  0  0  0  0  0  0  0  0  0
    2.4236    0.2886    0.7874 C   0  0  0  0  0  0  0  0  0  0  0  0
    7.0085   -0.3439    1.2934 H   0  0  0  0  0  0  0  0  0  0  0  0
    6.6309    0.8581    2.5438 H   0  0  0  0  0  0  0  0  0  0  0  0
    6.9414    1.4099    0.8855 H   0  0  0  0  0  0  0  0  0  0  0  0
    3.5532   -0.3987   -2.3528 H   0  0  0  0  0  0  0  0  0  0  0  0
    1.1375   -0.5883   -2.7705 H   0  0  0  0  0  0  0  0  0  0  0  0
   -1.1065   -0.5026   -2.0331 H   0  0  0  0  0  0  0  0  0  0  0  0
   -3.0283   -1.7921   -1.3478 H   0  0  0  0  0  0  0  0  0  0  0  0
   -3.1757   -2.2405    0.3503 H   0  0  0  0  0  0  0  0  0  0  0  0
   -5.6072    0.6626   -0.1951 H   0  0  0  0  0  0  0  0  0  0  0  0
   -5.1999   -0.5222   -1.4442 H   0  0  0  0  0  0  0  0  0  0  0  0
   -5.5413   -1.0611    0.2059 H   0  0  0  0  0  0  0  0  0  0  0  0
   -2.4000    0.3318    1.7659 H   0  0  0  0  0  0  0  0  0  0  0  0
   -3.9575    1.1630    1.6896 H   0  0  0  0  0  0  0  0  0  0  0  0
   -3.8917   -0.5585    2.0901 H   0  0  0  0  0  0  0  0  0  0  0  0
   -3.1280    0.8138   -1.9541 H   0  0  0  0  0  0  0  0  0  0  0  0
   -3.3361    1.9529   -0.6253 H   0  0  0  0  0  0  0  0  0  0  0  0
    0.3478    0.3434    1.3646 H   0  0  0  0  0  0  0  0  0  0  0  0
    2.7627    0.5348    1.7901 H   0  0  0  0  0  0  0  0  0  0  0  0
  1  2  1  0
  2  3  1  0
  3  4  2  0
  3  5  1  0
  5  6  2  0
  6  7  1  0
  7  8  2  0
  8  9  1  0
  9 10  1  0
 10 11  1  0
 11 12  1  0
 12 13  1  0
 12 14  1  0
 12 15  1  0
 15 16  1  0
  8 17  1  0
 17 18  2  0
 18  5  1  0
 16  9  1  0
  1 19  1  0
  1 20  1  0
  1 21  1  0
  6 22  1  0
  7 23  1  0
  9 24  1  0
 11 25  1  0
 11 26  1  0
 13 27  1  0
 13 28  1  0
 13 29  1  0
 14 30  1  0
 14 31  1  0
 14 32  1  0
 15 33  1  0
 15 34  1  0
 17 35  1  0
 18 36  1  0
M  END
$$$$
