
     RDKit          3D

 61 65  0  0  0  0  0  0  0  0999 V2000
   -5.0129   -3.2858   -4.4225 C   0  0  0  0  0  0  0  0  0  0  0  0
   -4.4410   -2.4815   -3.2890 C   0  0  0  0  0  0  0  0  0  0  0  0
   -5.2780   -1.7329   -2.4560 C   0  0  0  0  0  0  0  0  0  0  0  0
   -4.7514   -1.0209   -1.3706 C   0  0  0  0  0  0  0  0  0  0  0  0
   -3.3758   -1.0358   -1.0971 C   0  0  0  0  0  0  0  0  0  0  0  0
   -2.8157   -0.3054    0.0103 N   0  0  0  0  0  0  0  0  0  0  0  0
   -3.1327    1.0238    0.3039 C   0  0  0  0  0  0  0  0  0  0  0  0
   -4.0835    2.0098   -0.8025 S   0  0  0  0  0  0  0  0  0  0  0  0
   -2.8559    2.3277   -2.1014 C   0  0  0  0  0  0  0  0  0  0  0  0
   -1.4634    2.5579   -1.5335 C   0  0  0  0  0  0  0  0  0  0  0  0
   -1.1517    3.6210   -1.0095 O   0  0  0  0  0  0  0  0  0  0  0  0
   -0.6428    1.4477   -1.6767 N   0  0  0  0  0  0  0  0  0  0  0  0
    0.5782    1.2059   -1.0160 C   0  0  0  0  0  0  0  0  0  0  0  0
    1.0416    1.9639    0.0573 C   0  0  0  0  0  0  0  0  0  0  0  0
    2.2309    1.6136    0.7152 C   0  0  0  0  0  0  0  0  0  0  0  0
    2.9975    0.5144    0.3087 C   0  0  0  0  0  0  0  0  0  0  0  0
    4.1899    0.1149    0.9327 N   0  0  0  0  0  0  0  0  0  0  0  0
    5.3896    0.3547    0.0915 C   0  0  0  0  0  0  0  0  0  0  0  0
    6.6219   -0.3004    0.7428 C   0  0  0  0  0  0  0  0  0  0  0  0
    6.8240    0.1618    2.0902 O   0  0  0  0  0  0  0  0  0  0  0  0
    5.6666   -0.1353    2.8921 C   0  0  0  0  0  0  0  0  0  0  0  0
    4.4093    0.5503    2.3297 C   0  0  0  0  0  0  0  0  0  0  0  0
    2.5195   -0.2312   -0.7782 C   0  0  0  0  0  0  0  0  0  0  0  0
    1.3226    0.0996   -1.4258 C   0  0  0  0  0  0  0  0  0  0  0  0
   -2.7064    1.6685    1.3392 N   0  0  0  0  0  0  0  0  0  0  0  0
   -1.8196    1.0387    2.2117 C   0  0  0  0  0  0  0  0  0  0  0  0
   -1.3213    1.7571    3.3028 C   0  0  0  0  0  0  0  0  0  0  0  0
   -0.3954    1.1773    4.1736 C   0  0  0  0  0  0  0  0  0  0  0  0
    0.0423   -0.1293    3.9571 C   0  0  0  0  0  0  0  0  0  0  0  0
   -0.4451   -0.8519    2.8679 C   0  0  0  0  0  0  0  0  0  0  0  0
   -1.3769   -0.2609    2.0033 C   0  0  0  0  0  0  0  0  0  0  0  0
   -1.9250   -0.9974    0.8509 C   0  0  0  0  0  0  0  0  0  0  0  0
   -1.5901   -2.1765    0.7244 O   0  0  0  0  0  0  0  0  0  0  0  0
   -2.5484   -1.8228   -1.9158 C   0  0  0  0  0  0  0  0  0  0  0  0
   -3.0731   -2.5360   -2.9984 C   0  0  0  0  0  0  0  0  0  0  0  0
   -5.8592   -2.7661   -4.8804 H   0  0  0  0  0  0  0  0  0  0  0  0
   -5.3495   -4.2620   -4.0603 H   0  0  0  0  0  0  0  0  0  0  0  0
   -4.2637   -3.4431   -5.2055 H   0  0  0  0  0  0  0  0  0  0  0  0
   -6.3527   -1.7104   -2.6309 H   0  0  0  0  0  0  0  0  0  0  0  0
   -5.4461   -0.4934   -0.7188 H   0  0  0  0  0  0  0  0  0  0  0  0
   -3.1513    3.2216   -2.6569 H   0  0  0  0  0  0  0  0  0  0  0  0
   -2.8560    1.4972   -2.8127 H   0  0  0  0  0  0  0  0  0  0  0  0
   -0.9251    0.7440   -2.3494 H   0  0  0  0  0  0  0  0  0  0  0  0
    0.4869    2.8182    0.4370 H   0  0  0  0  0  0  0  0  0  0  0  0
    2.5406    2.2349    1.5526 H   0  0  0  0  0  0  0  0  0  0  0  0
    5.5578    1.4357    0.0052 H   0  0  0  0  0  0  0  0  0  0  0  0
    5.2677   -0.0563   -0.9174 H   0  0  0  0  0  0  0  0  0  0  0  0
    6.5272   -1.3926    0.7557 H   0  0  0  0  0  0  0  0  0  0  0  0
    7.5203   -0.0505    0.1696 H   0  0  0  0  0  0  0  0  0  0  0  0
    5.5377   -1.2239    2.9430 H   0  0  0  0  0  0  0  0  0  0  0  0
    5.8644    0.2273    3.9081 H   0  0  0  0  0  0  0  0  0  0  0  0
    3.5482    0.2839    2.9555 H   0  0  0  0  0  0  0  0  0  0  0  0
    4.5556    1.6372    2.3675 H   0  0  0  0  0  0  0  0  0  0  0  0
    3.0729   -1.1057   -1.1172 H   0  0  0  0  0  0  0  0  0  0  0  0
    0.9931   -0.5262   -2.2505 H   0  0  0  0  0  0  0  0  0  0  0  0
   -1.6526    2.7814    3.4629 H   0  0  0  0  0  0  0  0  0  0  0  0
   -0.0173    1.7480    5.0192 H   0  0  0  0  0  0  0  0  0  0  0  0
    0.7604   -0.5863    4.6350 H   0  0  0  0  0  0  0  0  0  0  0  0
   -0.1012   -1.8710    2.6959 H   0  0  0  0  0  0  0  0  0  0  0  0
   -1.4802   -1.8989   -1.7173 H   0  0  0  0  0  0  0  0  0  0  0  0
   -2.4056   -3.1476   -3.6022 H   0  0  0  0  0  0  0  0  0  0  0  0
  1  2  1  0
  2  3  2  0
  3  4  1  0
  4  5  2  0
  5  6  1  0
  6  7  1  0
  7  8  1  0
  8  9  1  0
  9 10  1  0
 10 11  2  0
 10 12  1  0
 12 13  1  0
 13 14  2  0
 14 15  1  0
 15 16  2  0
 16 17  1  0
 17 18  1  0
 18 19  1  0
 19 20  1  0
 20 21  1  0
 21 22  1  0
 16 23  1  0
 23 24  2  0
  7 25  2  0
 25 26  1  0
 26 27  2  0
 27 28  1  0
 28 29  2  0
 29 30  1  0
 30 31  2  0
 31 32  1  0
 32 33  2  0
  5 34  1  0
 34 35  2  0
 35  2  1  0
 32  6  1  0
 24 13  1  0
 31 26  1  0
 22 17  1  0
  1 36  1  0
  1 37  1  0
  1 38  1  0
  3 39  1  0
  4 40  1  0
  9 41  1  0
  9 42  1  0
 12 43  1  0
 14 44  1  0
 15 45  1  0
 18 46  1  0
 18 47  1  0
 19 48  1  0
 19 49  1  0
 21 50  1  0
 21 51  1  0
 22 52  1  0
 22 53  1  0
 23 54  1  0
 24 55  1  0
 27 56  1  0
 28 57  1  0
 29 58  1  0
 30 59  1  0
 34 60  1  0
 35 61  1  0
M  END
$$$$
