
     RDKit          3D

 43 45  0  0  0  0  0  0  0  0999 V2000
    7.4437   -2.0461   -1.6187 O   0  0  0  0  0  0  0  0  0  0  0  0
    8.0079   -1.4658   -0.7070 C   0  0  0  0  0  0  0  0  0  0  0  0
    9.3582   -1.4149   -0.6785 O   0  0  0  0  0  0  0  0  0  0  0  0
    7.3977   -0.7816    0.4918 C   0  0  0  0  0  0  0  0  0  0  0  0
    5.9033   -0.5895    0.3969 C   0  0  0  0  0  0  0  0  0  0  0  0
    5.3649    0.6519    0.0386 C   0  0  0  0  0  0  0  0  0  0  0  0
    3.9795    0.8313   -0.0548 C   0  0  0  0  0  0  0  0  0  0  0  0
    3.1086   -0.2277    0.1991 C   0  0  0  0  0  0  0  0  0  0  0  0
    1.7028   -0.1294    0.1293 N   0  0  0  0  0  0  0  0  0  0  0  0
    0.9557    0.9689   -0.2555 C   0  0  0  0  0  0  0  0  0  0  0  0
    1.3790    2.0435   -0.6644 O   0  0  0  0  0  0  0  0  0  0  0  0
   -0.5216    0.7769   -0.1921 C   0  0  0  0  0  0  0  0  0  0  0  0
   -1.3202    1.4167   -1.1443 C   0  0  0  0  0  0  0  0  0  0  0  0
   -2.7099    1.2604   -1.1169 C   0  0  0  0  0  0  0  0  0  0  0  0
   -3.3232    0.4703   -0.1353 C   0  0  0  0  0  0  0  0  0  0  0  0
   -4.7296    0.3674   -0.1840 N   0  0  0  0  0  0  0  0  0  0  0  0
   -5.5600   -0.3829    0.6405 C   0  0  0  0  0  0  0  0  0  0  0  0
   -5.1554   -1.1081    1.5447 O   0  0  0  0  0  0  0  0  0  0  0  0
   -6.9800   -0.2470    0.3339 C   0  0  0  0  0  0  0  0  0  0  0  0
   -7.7010    0.5252   -0.5648 C   0  0  0  0  0  0  0  0  0  0  0  0
   -9.0704    0.2062   -0.3825 C   0  0  0  0  0  0  0  0  0  0  0  0
   -9.1120   -0.7373    0.6133 C   0  0  0  0  0  0  0  0  0  0  0  0
   -7.8610   -1.0169    1.0524 O   0  0  0  0  0  0  0  0  0  0  0  0
   -2.5212   -0.1486    0.8265 C   0  0  0  0  0  0  0  0  0  0  0  0
   -1.1284    0.0057    0.8042 C   0  0  0  0  0  0  0  0  0  0  0  0
    3.6460   -1.4709    0.5538 C   0  0  0  0  0  0  0  0  0  0  0  0
    5.0293   -1.6522    0.6510 C   0  0  0  0  0  0  0  0  0  0  0  0
    9.6244   -1.8917   -1.4932 H   0  0  0  0  0  0  0  0  0  0  0  0
    7.8815    0.1951    0.6138 H   0  0  0  0  0  0  0  0  0  0  0  0
    7.6290   -1.3761    1.3835 H   0  0  0  0  0  0  0  0  0  0  0  0
    6.0152    1.4982   -0.1731 H   0  0  0  0  0  0  0  0  0  0  0  0
    3.6142    1.8155   -0.3305 H   0  0  0  0  0  0  0  0  0  0  0  0
    1.1990   -0.9847    0.3223 H   0  0  0  0  0  0  0  0  0  0  0  0
   -0.8613    2.0376   -1.9118 H   0  0  0  0  0  0  0  0  0  0  0  0
   -3.2991    1.7686   -1.8762 H   0  0  0  0  0  0  0  0  0  0  0  0
   -5.1768    0.8891   -0.9228 H   0  0  0  0  0  0  0  0  0  0  0  0
   -7.3054    1.2414   -1.2700 H   0  0  0  0  0  0  0  0  0  0  0  0
   -9.9216    0.6149   -0.9091 H   0  0  0  0  0  0  0  0  0  0  0  0
   -9.9098   -1.2809    1.1009 H   0  0  0  0  0  0  0  0  0  0  0  0
   -2.9457   -0.7511    1.6241 H   0  0  0  0  0  0  0  0  0  0  0  0
   -0.5431   -0.4594    1.5930 H   0  0  0  0  0  0  0  0  0  0  0  0
    2.9989   -2.3206    0.7546 H   0  0  0  0  0  0  0  0  0  0  0  0
    5.4178   -2.6329    0.9172 H   0  0  0  0  0  0  0  0  0  0  0  0
  1  2  2  0
  2  3  1  0
  2  4  1  0
  4  5  1  0
  5  6  2  0
  6  7  1  0
  7  8  2  0
  8  9  1  0
  9 10  1  0
 10 11  2  0
 10 12  1  0
 12 13  2  0
 13 14  1  0
 14 15  2  0
 15 16  1  0
 16 17  1  0
 17 18  2  0
 17 19  1  0
 19 20  2  0
 20 21  1  0
 21 22  2  0
 22 23  1  0
 15 24  1  0
 24 25  2  0
  8 26  1  0
 26 27  2  0
 27  5  1  0
 25 12  1  0
 23 19  1  0
  3 28  1  0
  4 29  1  0
  4 30  1  0
  6 31  1  0
  7 32  1  0
  9 33  1  0
 13 34  1  0
 14 35  1  0
 16 36  1  0
 20 37  1  0
 21 38  1  0
 22 39  1  0
 24 40  1  0
 25 41  1  0
 26 42  1  0
 27 43  1  0
M  END
$$$$
