
     RDKit          3D

 43 45  0  0  0  0  0  0  0  0999 V2000
    6.1395   -1.6685   -1.4131 C   0  0  0  0  0  0  0  0  0  0  0  0
    4.9348   -1.0918   -0.9071 O   0  0  0  0  0  0  0  0  0  0  0  0
    5.0683   -0.5307    0.3213 C   0  0  0  0  0  0  0  0  0  0  0  0
    6.0962   -0.4908    0.9789 O   0  0  0  0  0  0  0  0  0  0  0  0
    3.7741    0.0445    0.7796 C   0  0  0  0  0  0  0  0  0  0  0  0
    3.7253    0.6435    2.0428 C   0  0  0  0  0  0  0  0  0  0  0  0
    2.5303    1.1958    2.5119 C   0  0  0  0  0  0  0  0  0  0  0  0
    1.3706    1.1577    1.7334 C   0  0  0  0  0  0  0  0  0  0  0  0
    0.2787    1.7367    2.3180 O   0  0  0  0  0  0  0  0  0  0  0  0
   -0.9780    1.6168    1.6567 C   0  0  0  0  0  0  0  0  0  0  0  0
   -1.6035    0.2134    1.7528 C   0  0  0  0  0  0  0  0  0  0  0  0
   -1.4352   -0.4712    2.7679 O   0  0  0  0  0  0  0  0  0  0  0  0
   -2.2518   -0.2995    0.6252 N   0  0  0  0  0  0  0  0  0  0  0  0
   -2.3153   -1.7579    0.5057 C   0  0  0  0  0  0  0  0  0  0  0  0
   -1.8639   -2.1909   -0.8781 C   0  0  0  0  0  0  0  0  0  0  0  0
   -2.8020   -1.6109   -1.9232 C   0  0  0  0  0  0  0  0  0  0  0  0
   -3.1592   -0.1699   -1.6511 C   0  0  0  0  0  0  0  0  0  0  0  0
   -3.8082    0.5482   -2.6712 C   0  0  0  0  0  0  0  0  0  0  0  0
   -4.2286    1.8577   -2.4611 C   0  0  0  0  0  0  0  0  0  0  0  0
   -4.0314    2.4508   -1.2209 C   0  0  0  0  0  0  0  0  0  0  0  0
   -3.3915    1.7439   -0.1981 C   0  0  0  0  0  0  0  0  0  0  0  0
   -2.9128    0.4426   -0.4036 C   0  0  0  0  0  0  0  0  0  0  0  0
    1.4179    0.5655    0.4707 C   0  0  0  0  0  0  0  0  0  0  0  0
    2.6136    0.0097   -0.0043 C   0  0  0  0  0  0  0  0  0  0  0  0
    5.9247   -2.0904   -2.3989 H   0  0  0  0  0  0  0  0  0  0  0  0
    6.4830   -2.4756   -0.7585 H   0  0  0  0  0  0  0  0  0  0  0  0
    6.9136   -0.9029   -1.5254 H   0  0  0  0  0  0  0  0  0  0  0  0
    4.6137    0.6819    2.6701 H   0  0  0  0  0  0  0  0  0  0  0  0
    2.5016    1.6543    3.4981 H   0  0  0  0  0  0  0  0  0  0  0  0
   -1.6563    2.2965    2.1836 H   0  0  0  0  0  0  0  0  0  0  0  0
   -0.8867    1.9781    0.6289 H   0  0  0  0  0  0  0  0  0  0  0  0
   -3.3450   -2.0740    0.7142 H   0  0  0  0  0  0  0  0  0  0  0  0
   -1.6698   -2.2379    1.2492 H   0  0  0  0  0  0  0  0  0  0  0  0
   -1.8458   -3.2834   -0.9560 H   0  0  0  0  0  0  0  0  0  0  0  0
   -0.8418   -1.8341   -1.0596 H   0  0  0  0  0  0  0  0  0  0  0  0
   -2.3373   -1.7041   -2.9120 H   0  0  0  0  0  0  0  0  0  0  0  0
   -3.7321   -2.1931   -1.9366 H   0  0  0  0  0  0  0  0  0  0  0  0
   -3.9988    0.0791   -3.6346 H   0  0  0  0  0  0  0  0  0  0  0  0
   -4.7329    2.4034   -3.2545 H   0  0  0  0  0  0  0  0  0  0  0  0
   -4.3942    3.4596   -1.0384 H   0  0  0  0  0  0  0  0  0  0  0  0
   -3.3361    2.2263    0.7714 H   0  0  0  0  0  0  0  0  0  0  0  0
    0.5503    0.5175   -0.1785 H   0  0  0  0  0  0  0  0  0  0  0  0
    2.6217   -0.4463   -0.9914 H   0  0  0  0  0  0  0  0  0  0  0  0
  1  2  1  0
  2  3  1  0
  3  4  2  0
  3  5  1  0
  5  6  2  0
  6  7  1  0
  7  8  2  0
  8  9  1  0
  9 10  1  0
 10 11  1  0
 11 12  2  0
 11 13  1  0
 13 14  1  0
 14 15  1  0
 15 16  1  0
 16 17  1  0
 17 18  2  0
 18 19  1  0
 19 20  2  0
 20 21  1  0
 21 22  2  0
  8 23  1  0
 23 24  2  0
 24  5  1  0
 22 13  1  0
 22 17  1  0
  1 25  1  0
  1 26  1  0
  1 27  1  0
  6 28  1  0
  7 29  1  0
 10 30  1  0
 10 31  1  0
 14 32  1  0
 14 33  1  0
 15 34  1  0
 15 35  1  0
 16 36  1  0
 16 37  1  0
 18 38  1  0
 19 39  1  0
 20 40  1  0
 21 41  1  0
 23 42  1  0
 24 43  1  0
M  END
$$$$
