
     RDKit          3D

 60 62  0  0  0  0  0  0  0  0999 V2000
   -4.1254    4.1311   -0.5290 C   0  0  0  0  0  0  0  0  0  0  0  0
   -4.3861    3.0759    0.5398 C   0  0  0  0  0  0  0  0  0  0  0  0
   -3.4404    1.9032    0.4445 C   0  0  0  0  0  0  0  0  0  0  0  0
   -2.4864    1.6668    1.4491 C   0  0  0  0  0  0  0  0  0  0  0  0
   -1.6316    0.5629    1.3690 C   0  0  0  0  0  0  0  0  0  0  0  0
   -1.7061   -0.3202    0.2928 C   0  0  0  0  0  0  0  0  0  0  0  0
   -0.9009   -1.4662    0.1572 N   0  0  0  0  0  0  0  0  0  0  0  0
    0.1236   -1.8736    0.9947 C   0  0  0  0  0  0  0  0  0  0  0  0
    0.4987   -1.3123    2.0208 O   0  0  0  0  0  0  0  0  0  0  0  0
    0.8181   -3.1597    0.5117 C   0  0  0  0  0  0  0  0  0  0  0  0
    2.2141   -3.1600    0.9964 N   0  0  0  0  0  0  0  0  0  0  0  0
    3.4326   -2.5821   -0.0044 S   0  0  0  0  0  6  0  0  0  0  0  0
    4.6365   -2.5390    0.8011 O   0  0  0  0  0  0  0  0  0  0  0  0
    3.3610   -3.3220   -1.2471 O   0  0  0  0  0  0  0  0  0  0  0  0
    2.9251   -0.9159   -0.3342 C   0  0  0  0  0  0  0  0  0  0  0  0
    3.1189    0.0678    0.6417 C   0  0  0  0  0  0  0  0  0  0  0  0
    2.6232    1.3669    0.4407 C   0  0  0  0  0  0  0  0  0  0  0  0
    1.9506    1.6599   -0.7318 C   0  0  0  0  0  0  0  0  0  0  0  0
    1.8136    0.6801   -1.7211 C   0  0  0  0  0  0  0  0  0  0  0  0
    2.2971   -0.6118   -1.5433 C   0  0  0  0  0  0  0  0  0  0  0  0
    1.0521    1.1930   -2.9014 C   0  0  0  0  0  0  0  0  0  0  0  0
    0.9237    2.6728   -2.5621 C   0  0  0  0  0  0  0  0  0  0  0  0
    1.3460    2.8479   -1.1680 N   0  0  0  0  0  0  0  0  0  0  0  0
    1.1380    4.0627   -0.5539 C   0  0  0  0  0  0  0  0  0  0  0  0
    1.4553    4.2228    0.9055 C   0  0  0  0  0  0  0  0  0  0  0  0
    0.6758    5.0235   -1.1787 O   0  0  0  0  0  0  0  0  0  0  0  0
    0.0602   -4.4140    1.0097 C   0  0  0  0  0  0  0  0  0  0  0  0
    0.0982   -4.5923    2.5386 C   0  0  0  0  0  0  0  0  0  0  0  0
    0.6017   -5.6779    0.3266 C   0  0  0  0  0  0  0  0  0  0  0  0
   -2.6289   -0.0673   -0.7247 C   0  0  0  0  0  0  0  0  0  0  0  0
   -3.4970    1.0282   -0.6462 C   0  0  0  0  0  0  0  0  0  0  0  0
   -4.8207    4.9635   -0.4088 H   0  0  0  0  0  0  0  0  0  0  0  0
   -3.1005    4.5242   -0.4599 H   0  0  0  0  0  0  0  0  0  0  0  0
   -4.2621    3.7218   -1.5373 H   0  0  0  0  0  0  0  0  0  0  0  0
   -5.4128    2.7111    0.4499 H   0  0  0  0  0  0  0  0  0  0  0  0
   -4.3090    3.5405    1.5308 H   0  0  0  0  0  0  0  0  0  0  0  0
   -2.4207    2.3125    2.3222 H   0  0  0  0  0  0  0  0  0  0  0  0
   -0.9423    0.4100    2.2037 H   0  0  0  0  0  0  0  0  0  0  0  0
   -1.0908   -2.0384   -0.6569 H   0  0  0  0  0  0  0  0  0  0  0  0
    0.8055   -3.1656   -0.5871 H   0  0  0  0  0  0  0  0  0  0  0  0
    2.3194   -2.8352    1.9617 H   0  0  0  0  0  0  0  0  0  0  0  0
    3.6184   -0.1778    1.5693 H   0  0  0  0  0  0  0  0  0  0  0  0
    2.7852    2.0893    1.2267 H   0  0  0  0  0  0  0  0  0  0  0  0
    2.1617   -1.3592   -2.3127 H   0  0  0  0  0  0  0  0  0  0  0  0
    0.0713    0.7194   -2.9596 H   0  0  0  0  0  0  0  0  0  0  0  0
    1.5890    1.0444   -3.8426 H   0  0  0  0  0  0  0  0  0  0  0  0
   -0.0961    3.0281   -2.6946 H   0  0  0  0  0  0  0  0  0  0  0  0
    1.5815    3.2752   -3.1892 H   0  0  0  0  0  0  0  0  0  0  0  0
    0.9733    3.4353    1.4882 H   0  0  0  0  0  0  0  0  0  0  0  0
    1.0486    5.1768    1.2577 H   0  0  0  0  0  0  0  0  0  0  0  0
    2.5373    4.2461    1.0574 H   0  0  0  0  0  0  0  0  0  0  0  0
   -0.9994   -4.3180    0.7223 H   0  0  0  0  0  0  0  0  0  0  0  0
   -0.3887   -3.7574    3.0424 H   0  0  0  0  0  0  0  0  0  0  0  0
   -0.4369   -5.5059    2.8255 H   0  0  0  0  0  0  0  0  0  0  0  0
    1.1256   -4.6749    2.9185 H   0  0  0  0  0  0  0  0  0  0  0  0
    0.5774   -5.5697   -0.7686 H   0  0  0  0  0  0  0  0  0  0  0  0
    1.6373   -5.8814    0.6276 H   0  0  0  0  0  0  0  0  0  0  0  0
   -0.0031   -6.5553    0.5877 H   0  0  0  0  0  0  0  0  0  0  0  0
   -2.6930   -0.7052   -1.6060 H   0  0  0  0  0  0  0  0  0  0  0  0
   -4.2166    1.1947   -1.4533 H   0  0  0  0  0  0  0  0  0  0  0  0
  1  2  1  0
  2  3  1  0
  3  4  2  0
  4  5  1  0
  5  6  2  0
  6  7  1  0
  7  8  1  0
  8  9  2  0
  8 10  1  0
 10 11  1  0
 11 12  1  0
 12 13  2  0
 12 14  2  0
 12 15  1  0
 15 16  2  0
 16 17  1  0
 17 18  2  0
 18 19  1  0
 19 20  2  0
 19 21  1  0
 21 22  1  0
 22 23  1  0
 23 24  1  0
 24 25  1  0
 24 26  2  0
 10 27  1  0
 27 28  1  0
 27 29  1  0
  6 30  1  0
 30 31  2  0
 31  3  1  0
 20 15  1  0
 23 18  1  0
  1 32  1  0
  1 33  1  0
  1 34  1  0
  2 35  1  0
  2 36  1  0
  4 37  1  0
  5 38  1  0
  7 39  1  0
 10 40  1  0
 11 41  1  0
 16 42  1  0
 17 43  1  0
 20 44  1  0
 21 45  1  0
 21 46  1  0
 22 47  1  0
 22 48  1  0
 25 49  1  0
 25 50  1  0
 25 51  1  0
 27 52  1  0
 28 53  1  0
 28 54  1  0
 28 55  1  0
 29 56  1  0
 29 57  1  0
 29 58  1  0
 30 59  1  0
 31 60  1  0
M  END
$$$$
