
     RDKit          3D

 47 50  0  0  0  0  0  0  0  0999 V2000
   -2.2904   -3.1473    1.1695 C   0  0  0  0  0  0  0  0  0  0  0  0
   -1.5066   -2.0499    0.5079 C   0  0  0  0  0  0  0  0  0  0  0  0
   -0.3079   -2.3218    0.0720 N   0  0  0  0  0  0  0  0  0  0  0  0
    0.4707   -1.3365   -0.5444 N   0  0  0  0  0  0  0  0  0  0  0  0
    1.8159   -1.7172   -0.9386 C   0  0  0  0  0  0  0  0  0  0  0  0
    2.8415   -1.2042    0.0757 C   0  0  0  0  0  0  0  0  0  0  0  0
    2.5972   -1.0199    1.2658 O   0  0  0  0  0  0  0  0  0  0  0  0
    4.1052   -1.0237   -0.4567 N   0  0  0  0  0  0  0  0  0  0  0  0
    5.1420   -0.4276    0.3544 C   0  0  0  0  0  0  0  0  0  0  0  0
    6.4421   -0.5804   -0.3654 C   0  0  0  0  0  0  0  0  0  0  0  0
    7.3333   -1.6348   -0.3057 C   0  0  0  0  0  0  0  0  0  0  0  0
    8.4708   -1.4320   -1.1390 C   0  0  0  0  0  0  0  0  0  0  0  0
    8.4108   -0.2304   -1.8085 C   0  0  0  0  0  0  0  0  0  0  0  0
    6.9902    0.6439   -1.4331 S   0  0  0  0  0  0  0  0  0  0  0  0
    0.0678   -0.0093   -0.7854 C   0  0  0  0  0  0  0  0  0  0  0  0
    0.7807    0.8167   -1.3537 O   0  0  0  0  0  0  0  0  0  0  0  0
   -1.2765    0.2659   -0.2987 C   0  0  0  0  0  0  0  0  0  0  0  0
   -1.9206    1.4325   -0.3656 N   0  0  0  0  0  0  0  0  0  0  0  0
   -3.1559    1.1858    0.1503 N   0  0  0  0  0  0  0  0  0  0  0  0
   -4.1589    2.1981    0.0300 C   0  0  0  0  0  0  0  0  0  0  0  0
   -3.7612    3.5121   -0.2745 C   0  0  0  0  0  0  0  0  0  0  0  0
   -4.7074    4.5312   -0.4070 C   0  0  0  0  0  0  0  0  0  0  0  0
   -6.0613    4.2483   -0.2528 C   0  0  0  0  0  0  0  0  0  0  0  0
   -6.4696    2.9453    0.0224 C   0  0  0  0  0  0  0  0  0  0  0  0
   -5.5253    1.9211    0.1575 C   0  0  0  0  0  0  0  0  0  0  0  0
   -3.2129   -0.0917    0.7223 C   0  0  0  0  0  0  0  0  0  0  0  0
   -4.3055   -0.5761    1.6049 C   0  0  0  0  0  0  0  0  0  0  0  0
   -2.0389   -0.7189    0.3386 C   0  0  0  0  0  0  0  0  0  0  0  0
   -3.3028   -3.1907    0.7596 H   0  0  0  0  0  0  0  0  0  0  0  0
   -1.8062   -4.1141    1.0022 H   0  0  0  0  0  0  0  0  0  0  0  0
   -2.3352   -2.9648    2.2465 H   0  0  0  0  0  0  0  0  0  0  0  0
    2.0295   -1.3023   -1.9297 H   0  0  0  0  0  0  0  0  0  0  0  0
    1.8906   -2.8086   -0.9909 H   0  0  0  0  0  0  0  0  0  0  0  0
    4.1781   -0.8795   -1.4559 H   0  0  0  0  0  0  0  0  0  0  0  0
    5.1745   -0.9299    1.3279 H   0  0  0  0  0  0  0  0  0  0  0  0
    4.8844    0.6232    0.5285 H   0  0  0  0  0  0  0  0  0  0  0  0
    7.1738   -2.5132    0.3091 H   0  0  0  0  0  0  0  0  0  0  0  0
    9.2915   -2.1315   -1.2418 H   0  0  0  0  0  0  0  0  0  0  0  0
    9.1332    0.1788   -2.5014 H   0  0  0  0  0  0  0  0  0  0  0  0
   -2.7085    3.7628   -0.4011 H   0  0  0  0  0  0  0  0  0  0  0  0
   -4.3828    5.5436   -0.6338 H   0  0  0  0  0  0  0  0  0  0  0  0
   -6.7978    5.0404   -0.3601 H   0  0  0  0  0  0  0  0  0  0  0  0
   -7.5296    2.7215    0.1181 H   0  0  0  0  0  0  0  0  0  0  0  0
   -5.9032    0.9181    0.3128 H   0  0  0  0  0  0  0  0  0  0  0  0
   -5.0763   -1.0899    1.0230 H   0  0  0  0  0  0  0  0  0  0  0  0
   -4.7593    0.2366    2.1795 H   0  0  0  0  0  0  0  0  0  0  0  0
   -3.9232   -1.2799    2.3495 H   0  0  0  0  0  0  0  0  0  0  0  0
  1  2  1  0
  2  3  2  0
  3  4  1  0
  4  5  1  0
  5  6  1  0
  6  7  2  0
  6  8  1  0
  8  9  1  0
  9 10  1  0
 10 11  2  0
 11 12  1  0
 12 13  2  0
 13 14  1  0
  4 15  1  0
 15 16  2  0
 15 17  1  0
 17 18  2  0
 18 19  1  0
 19 20  1  0
 20 21  2  0
 21 22  1  0
 22 23  2  0
 23 24  1  0
 24 25  2  0
 19 26  1  0
 26 27  1  0
 26 28  2  0
 28  2  1  0
 14 10  1  0
 28 17  1  0
 25 20  1  0
  1 29  1  0
  1 30  1  0
  1 31  1  0
  5 32  1  0
  5 33  1  0
  8 34  1  0
  9 35  1  0
  9 36  1  0
 11 37  1  0
 12 38  1  0
 13 39  1  0
 21 40  1  0
 22 41  1  0
 23 42  1  0
 24 43  1  0
 25 44  1  0
 27 45  1  0
 27 46  1  0
 27 47  1  0
M  END
$$$$
