
     RDKit          3D

 44 46  0  0  0  0  0  0  0  0999 V2000
    5.1224    2.0041   -2.3931 C   0  0  0  0  0  0  0  0  0  0  0  0
    4.1121    1.2403   -1.5806 C   0  0  0  0  0  0  0  0  0  0  0  0
    2.8746    1.8329   -1.2888 C   0  0  0  0  0  0  0  0  0  0  0  0
    1.9114    1.1562   -0.5348 C   0  0  0  0  0  0  0  0  0  0  0  0
    2.1717   -0.1311   -0.0579 C   0  0  0  0  0  0  0  0  0  0  0  0
    1.1800   -0.9054    0.7530 C   0  0  0  0  0  0  0  0  0  0  0  0
    1.4944   -2.0179    1.1756 O   0  0  0  0  0  0  0  0  0  0  0  0
   -0.1862   -0.2727    1.0147 C   0  0  0  0  0  0  0  0  0  0  0  0
   -1.0290   -1.0951    1.8224 O   0  0  0  0  0  0  0  0  0  0  0  0
   -1.9769   -1.7387    1.0657 C   0  0  0  0  0  0  0  0  0  0  0  0
   -1.7387   -3.0854    0.7771 C   0  0  0  0  0  0  0  0  0  0  0  0
   -2.6617   -3.8103    0.0284 C   0  0  0  0  0  0  0  0  0  0  0  0
   -3.8274   -3.1931   -0.4174 C   0  0  0  0  0  0  0  0  0  0  0  0
   -4.0730   -1.8510   -0.1092 C   0  0  0  0  0  0  0  0  0  0  0  0
   -3.1576   -1.0938    0.6454 C   0  0  0  0  0  0  0  0  0  0  0  0
   -3.4565    0.3146    0.9681 C   0  0  0  0  0  0  0  0  0  0  0  0
   -3.4631    0.7697    2.2967 C   0  0  0  0  0  0  0  0  0  0  0  0
   -3.7400    2.1051    2.6006 C   0  0  0  0  0  0  0  0  0  0  0  0
   -4.0179    3.0094    1.5790 C   0  0  0  0  0  0  0  0  0  0  0  0
   -4.0192    2.5796    0.2544 C   0  0  0  0  0  0  0  0  0  0  0  0
   -3.7416    1.2437   -0.0476 C   0  0  0  0  0  0  0  0  0  0  0  0
    3.4085   -0.7266   -0.3449 C   0  0  0  0  0  0  0  0  0  0  0  0
    4.3844   -0.0549   -1.1010 C   0  0  0  0  0  0  0  0  0  0  0  0
    5.6955   -0.7379   -1.3813 C   0  0  0  0  0  0  0  0  0  0  0  0
    6.0272    2.1820   -1.8033 H   0  0  0  0  0  0  0  0  0  0  0  0
    5.3799    1.4492   -3.3007 H   0  0  0  0  0  0  0  0  0  0  0  0
    4.7334    2.9796   -2.7041 H   0  0  0  0  0  0  0  0  0  0  0  0
    2.6504    2.8354   -1.6495 H   0  0  0  0  0  0  0  0  0  0  0  0
    0.9728    1.6655   -0.3381 H   0  0  0  0  0  0  0  0  0  0  0  0
   -0.0272    0.6511    1.5816 H   0  0  0  0  0  0  0  0  0  0  0  0
   -0.6474   -0.0198    0.0516 H   0  0  0  0  0  0  0  0  0  0  0  0
   -0.8288   -3.5622    1.1350 H   0  0  0  0  0  0  0  0  0  0  0  0
   -2.4729   -4.8558   -0.2004 H   0  0  0  0  0  0  0  0  0  0  0  0
   -4.5542   -3.7582   -0.9956 H   0  0  0  0  0  0  0  0  0  0  0  0
   -5.0034   -1.3994   -0.4488 H   0  0  0  0  0  0  0  0  0  0  0  0
   -3.2512    0.0762    3.1091 H   0  0  0  0  0  0  0  0  0  0  0  0
   -3.7407    2.4344    3.6364 H   0  0  0  0  0  0  0  0  0  0  0  0
   -4.2366    4.0473    1.8160 H   0  0  0  0  0  0  0  0  0  0  0  0
   -4.2382    3.2825   -0.5451 H   0  0  0  0  0  0  0  0  0  0  0  0
   -3.7417    0.9300   -1.0896 H   0  0  0  0  0  0  0  0  0  0  0  0
    3.6154   -1.7300    0.0271 H   0  0  0  0  0  0  0  0  0  0  0  0
    5.8311   -0.8711   -2.4592 H   0  0  0  0  0  0  0  0  0  0  0  0
    6.5253   -0.1488   -0.9779 H   0  0  0  0  0  0  0  0  0  0  0  0
    5.7407   -1.7293   -0.9181 H   0  0  0  0  0  0  0  0  0  0  0  0
  1  2  1  0
  2  3  2  0
  3  4  1  0
  4  5  2  0
  5  6  1  0
  6  7  2  0
  6  8  1  0
  8  9  1  0
  9 10  1  0
 10 11  2  0
 11 12  1  0
 12 13  2  0
 13 14  1  0
 14 15  2  0
 15 16  1  0
 16 17  2  0
 17 18  1  0
 18 19  2  0
 19 20  1  0
 20 21  2  0
  5 22  1  0
 22 23  2  0
 23 24  1  0
 23  2  1  0
 15 10  1  0
 21 16  1  0
  1 25  1  0
  1 26  1  0
  1 27  1  0
  3 28  1  0
  4 29  1  0
  8 30  1  0
  8 31  1  0
 11 32  1  0
 12 33  1  0
 13 34  1  0
 14 35  1  0
 17 36  1  0
 18 37  1  0
 19 38  1  0
 20 39  1  0
 21 40  1  0
 22 41  1  0
 24 42  1  0
 24 43  1  0
 24 44  1  0
M  END
$$$$
