
     RDKit          3D

 57 61  0  0  0  0  0  0  0  0999 V2000
   -6.6487    3.6533   -2.6458 C   0  0  0  0  0  0  0  0  0  0  0  0
   -6.1467    2.6056   -1.6971 C   0  0  0  0  0  0  0  0  0  0  0  0
   -5.0583    2.8724   -0.8595 C   0  0  0  0  0  0  0  0  0  0  0  0
   -4.6052    1.9076    0.0432 C   0  0  0  0  0  0  0  0  0  0  0  0
   -5.2439    0.6635    0.1356 C   0  0  0  0  0  0  0  0  0  0  0  0
   -4.7471   -0.3845    1.0991 C   0  0  0  0  0  0  0  0  0  0  0  0
   -3.8661   -1.3301    0.4474 N   0  0  0  0  0  0  0  0  0  0  0  0
   -4.3356   -2.5181   -0.0097 N   0  0  0  0  0  0  0  0  0  0  0  0
   -3.3093   -3.1810   -0.5436 N   0  0  0  0  0  0  0  0  0  0  0  0
   -2.2025   -2.4034   -0.3919 C   0  0  0  0  0  0  0  0  0  0  0  0
   -0.8355   -2.6240   -0.7802 C   0  0  0  0  0  0  0  0  0  0  0  0
   -0.4115   -3.6170   -1.3587 O   0  0  0  0  0  0  0  0  0  0  0  0
   -0.0169   -1.5602   -0.4192 N   0  0  0  0  0  0  0  0  0  0  0  0
   -0.4575   -0.4153    0.2332 C   0  0  0  0  0  0  0  0  0  0  0  0
    0.5924    0.6472    0.5522 C   0  0  0  0  0  0  0  0  0  0  0  0
    1.4972    0.2029    1.7052 C   0  0  0  0  0  0  0  0  0  0  0  0
    2.5007   -0.8871    1.3228 C   0  0  0  0  0  0  0  0  0  0  0  0
    2.8217   -0.8366   -0.1288 N   0  0  0  0  0  0  0  0  0  0  0  0
    4.0677   -1.8925   -0.6522 S   0  0  0  0  0  6  0  0  0  0  0  0
    4.1975   -1.7640   -2.0858 O   0  0  0  0  0  0  0  0  0  0  0  0
    3.7762   -3.1780   -0.0510 O   0  0  0  0  0  0  0  0  0  0  0  0
    5.5367   -1.2772    0.1090 C   0  0  0  0  0  0  0  0  0  0  0  0
    6.0966   -1.9588    1.1973 C   0  0  0  0  0  0  0  0  0  0  0  0
    7.2801   -1.4921    1.7730 C   0  0  0  0  0  0  0  0  0  0  0  0
    7.9082   -0.3578    1.2573 C   0  0  0  0  0  0  0  0  0  0  0  0
    7.3549    0.3081    0.1633 C   0  0  0  0  0  0  0  0  0  0  0  0
    6.1743   -0.1585   -0.4108 C   0  0  0  0  0  0  0  0  0  0  0  0
    5.6673    0.5186   -1.4485 F   0  0  0  0  0  0  0  0  0  0  0  0
    2.8259    0.5321   -0.6884 C   0  0  0  0  0  0  0  0  0  0  0  0
    1.3925    1.0615   -0.6925 C   0  0  0  0  0  0  0  0  0  0  0  0
   -1.6943   -0.2120    0.5991 N   0  0  0  0  0  0  0  0  0  0  0  0
   -2.5183   -1.2315    0.2520 C   0  0  0  0  0  0  0  0  0  0  0  0
   -6.3375    0.4007   -0.7005 C   0  0  0  0  0  0  0  0  0  0  0  0
   -6.7890    1.3664   -1.6028 C   0  0  0  0  0  0  0  0  0  0  0  0
   -7.1470    3.1964   -3.5073 H   0  0  0  0  0  0  0  0  0  0  0  0
   -5.8204    4.2563   -3.0328 H   0  0  0  0  0  0  0  0  0  0  0  0
   -7.3591    4.3109   -2.1354 H   0  0  0  0  0  0  0  0  0  0  0  0
   -4.5510    3.8333   -0.9098 H   0  0  0  0  0  0  0  0  0  0  0  0
   -3.7444    2.1326    0.6698 H   0  0  0  0  0  0  0  0  0  0  0  0
   -5.5862   -0.9393    1.5354 H   0  0  0  0  0  0  0  0  0  0  0  0
   -4.1992    0.0704    1.9324 H   0  0  0  0  0  0  0  0  0  0  0  0
    0.9601   -1.6632   -0.6754 H   0  0  0  0  0  0  0  0  0  0  0  0
    0.0311    1.5300    0.8899 H   0  0  0  0  0  0  0  0  0  0  0  0
    0.9020   -0.1369    2.5614 H   0  0  0  0  0  0  0  0  0  0  0  0
    2.0575    1.0803    2.0557 H   0  0  0  0  0  0  0  0  0  0  0  0
    2.0649   -1.8671    1.5481 H   0  0  0  0  0  0  0  0  0  0  0  0
    3.4025   -0.7713    1.9318 H   0  0  0  0  0  0  0  0  0  0  0  0
    5.6269   -2.8564    1.5964 H   0  0  0  0  0  0  0  0  0  0  0  0
    7.7196   -2.0204    2.6169 H   0  0  0  0  0  0  0  0  0  0  0  0
    8.8339    0.0014    1.7018 H   0  0  0  0  0  0  0  0  0  0  0  0
    7.8411    1.1871   -0.2504 H   0  0  0  0  0  0  0  0  0  0  0  0
    3.4696    1.1809   -0.0835 H   0  0  0  0  0  0  0  0  0  0  0  0
    3.1995    0.5491   -1.7163 H   0  0  0  0  0  0  0  0  0  0  0  0
    0.8819    0.7332   -1.6066 H   0  0  0  0  0  0  0  0  0  0  0  0
    1.4351    2.1564   -0.7534 H   0  0  0  0  0  0  0  0  0  0  0  0
   -6.8421   -0.5635   -0.6607 H   0  0  0  0  0  0  0  0  0  0  0  0
   -7.6425    1.1398   -2.2382 H   0  0  0  0  0  0  0  0  0  0  0  0
  1  2  1  0
  2  3  2  0
  3  4  1  0
  4  5  2  0
  5  6  1  0
  6  7  1  0
  7  8  1  0
  8  9  2  0
  9 10  1  0
 10 11  1  0
 11 12  2  0
 11 13  1  0
 13 14  1  0
 14 15  1  0
 15 16  1  0
 16 17  1  0
 17 18  1  0
 18 19  1  0
 19 20  2  0
 19 21  2  0
 19 22  1  0
 22 23  2  0
 23 24  1  0
 24 25  2  0
 25 26  1  0
 26 27  2  0
 27 28  1  0
 18 29  1  0
 29 30  1  0
 14 31  2  0
 31 32  1  0
  5 33  1  0
 33 34  2  0
 34  2  1  0
 32  7  1  0
 32 10  2  0
 30 15  1  0
 27 22  1  0
  1 35  1  0
  1 36  1  0
  1 37  1  0
  3 38  1  0
  4 39  1  0
  6 40  1  0
  6 41  1  0
 13 42  1  0
 15 43  1  0
 16 44  1  0
 16 45  1  0
 17 46  1  0
 17 47  1  0
 23 48  1  0
 24 49  1  0
 25 50  1  0
 26 51  1  0
 29 52  1  0
 29 53  1  0
 30 54  1  0
 30 55  1  0
 33 56  1  0
 34 57  1  0
M  END
$$$$
