
     RDKit          3D

 53 55  0  0  0  0  0  0  0  0999 V2000
    8.7693   -1.0817   -0.7351 C   0  0  0  0  0  0  0  0  0  0  0  0
    8.4348   -0.0926    0.2304 O   0  0  0  0  0  0  0  0  0  0  0  0
    7.1515   -0.0967    0.7045 C   0  0  0  0  0  0  0  0  0  0  0  0
    6.8819    0.8881    1.6637 C   0  0  0  0  0  0  0  0  0  0  0  0
    5.6144    0.9963    2.2400 C   0  0  0  0  0  0  0  0  0  0  0  0
    4.6093    0.1132    1.8430 C   0  0  0  0  0  0  0  0  0  0  0  0
    2.9949    0.2153    2.5709 S   0  0  0  0  0  6  0  0  0  0  0  0
    3.0123    1.2326    3.5988 O   0  0  0  0  0  0  0  0  0  0  0  0
    2.5616   -1.1346    2.8610 O   0  0  0  0  0  0  0  0  0  0  0  0
    2.0575    0.7852    1.2933 N   0  0  0  0  0  0  0  0  0  0  0  0
    2.3534    2.1208    0.7533 C   0  0  0  0  0  0  0  0  0  0  0  0
    1.0525    2.4709    0.0696 C   0  0  0  0  0  0  0  0  0  0  0  0
    0.0551    1.9616    0.9579 O   0  0  0  0  0  0  0  0  0  0  0  0
    0.6010    0.7694    1.5613 C   0  0  0  0  0  0  0  0  0  0  0  0
   -0.0380   -0.4948    0.9394 C   0  0  0  0  0  0  0  0  0  0  0  0
   -1.4807   -0.5449    1.0906 N   0  0  0  0  0  0  0  0  0  0  0  0
   -2.3288   -0.0153    0.1436 C   0  0  0  0  0  0  0  0  0  0  0  0
   -2.0166    0.3926   -0.9681 O   0  0  0  0  0  0  0  0  0  0  0  0
   -3.8088    0.0104    0.5879 C   0  0  0  0  0  0  0  0  0  0  0  0
   -4.1041   -0.2399    1.7478 O   0  0  0  0  0  0  0  0  0  0  0  0
   -4.6718    0.3132   -0.4336 N   0  0  0  0  0  0  0  0  0  0  0  0
   -6.1005    0.3804   -0.2670 C   0  0  0  0  0  0  0  0  0  0  0  0
   -6.7940   -0.3958   -1.3570 C   0  0  0  0  0  0  0  0  0  0  0  0
   -7.0545    0.2382   -2.5858 C   0  0  0  0  0  0  0  0  0  0  0  0
   -7.6592   -0.4531   -3.6369 C   0  0  0  0  0  0  0  0  0  0  0  0
   -8.0092   -1.7899   -3.4811 C   0  0  0  0  0  0  0  0  0  0  0  0
   -7.7515   -2.4368   -2.2742 C   0  0  0  0  0  0  0  0  0  0  0  0
   -7.1429   -1.7492   -1.2188 C   0  0  0  0  0  0  0  0  0  0  0  0
   -6.8325   -2.6385    0.2354 Cl  0  0  0  0  0  0  0  0  0  0  0  0
    4.8649   -0.8759    0.8902 C   0  0  0  0  0  0  0  0  0  0  0  0
    6.1378   -0.9773    0.3189 C   0  0  0  0  0  0  0  0  0  0  0  0
    8.6519   -2.0915   -0.3252 H   0  0  0  0  0  0  0  0  0  0  0  0
    9.8231   -0.9495   -0.9964 H   0  0  0  0  0  0  0  0  0  0  0  0
    8.1801   -0.9531   -1.6484 H   0  0  0  0  0  0  0  0  0  0  0  0
    7.6730    1.5704    1.9707 H   0  0  0  0  0  0  0  0  0  0  0  0
    5.4293    1.7566    2.9951 H   0  0  0  0  0  0  0  0  0  0  0  0
    3.1910    2.1118    0.0530 H   0  0  0  0  0  0  0  0  0  0  0  0
    2.5547    2.8318    1.5619 H   0  0  0  0  0  0  0  0  0  0  0  0
    0.9480    1.9662   -0.8975 H   0  0  0  0  0  0  0  0  0  0  0  0
    0.9206    3.5464   -0.0717 H   0  0  0  0  0  0  0  0  0  0  0  0
    0.3694    0.8288    2.6304 H   0  0  0  0  0  0  0  0  0  0  0  0
    0.3623   -1.4008    1.4062 H   0  0  0  0  0  0  0  0  0  0  0  0
    0.1970   -0.5395   -0.1319 H   0  0  0  0  0  0  0  0  0  0  0  0
   -1.8948   -0.7483    1.9969 H   0  0  0  0  0  0  0  0  0  0  0  0
   -4.2519    0.5392   -1.3317 H   0  0  0  0  0  0  0  0  0  0  0  0
   -6.3815    1.4396   -0.3247 H   0  0  0  0  0  0  0  0  0  0  0  0
   -6.3993    0.0448    0.7326 H   0  0  0  0  0  0  0  0  0  0  0  0
   -6.7771    1.2788   -2.7327 H   0  0  0  0  0  0  0  0  0  0  0  0
   -7.8506    0.0482   -4.5813 H   0  0  0  0  0  0  0  0  0  0  0  0
   -8.4764   -2.3314   -4.3000 H   0  0  0  0  0  0  0  0  0  0  0  0
   -8.0201   -3.4846   -2.1609 H   0  0  0  0  0  0  0  0  0  0  0  0
    4.0842   -1.5758    0.5976 H   0  0  0  0  0  0  0  0  0  0  0  0
    6.3079   -1.7595   -0.4138 H   0  0  0  0  0  0  0  0  0  0  0  0
  1  2  1  0
  2  3  1  0
  3  4  2  0
  4  5  1  0
  5  6  2  0
  6  7  1  0
  7  8  2  0
  7  9  2  0
  7 10  1  0
 10 11  1  0
 11 12  1  0
 12 13  1  0
 13 14  1  0
 14 15  1  0
 15 16  1  0
 16 17  1  0
 17 18  2  0
 17 19  1  0
 19 20  2  0
 19 21  1  0
 21 22  1  0
 22 23  1  0
 23 24  2  0
 24 25  1  0
 25 26  2  0
 26 27  1  0
 27 28  2  0
 28 29  1  0
  6 30  1  0
 30 31  2  0
 31  3  1  0
 14 10  1  0
 28 23  1  0
  1 32  1  0
  1 33  1  0
  1 34  1  0
  4 35  1  0
  5 36  1  0
 11 37  1  0
 11 38  1  0
 12 39  1  0
 12 40  1  0
 14 41  1  0
 15 42  1  0
 15 43  1  0
 16 44  1  0
 21 45  1  0
 22 46  1  0
 22 47  1  0
 24 48  1  0
 25 49  1  0
 26 50  1  0
 27 51  1  0
 30 52  1  0
 31 53  1  0
M  END
$$$$
