
     RDKit          3D

 35 37  0  0  0  0  0  0  0  0999 V2000
    7.5374    0.1459    0.5151 C   0  0  0  0  0  0  0  0  0  0  0  0
    6.3926    0.9183    0.8554 O   0  0  0  0  0  0  0  0  0  0  0  0
    5.1737    0.3953    0.5252 C   0  0  0  0  0  0  0  0  0  0  0  0
    4.9475   -0.8216   -0.1148 C   0  0  0  0  0  0  0  0  0  0  0  0
    3.6386   -1.2368   -0.3938 C   0  0  0  0  0  0  0  0  0  0  0  0
    2.5354   -0.4458   -0.0396 C   0  0  0  0  0  0  0  0  0  0  0  0
    1.1883   -0.9093   -0.3457 C   0  0  0  0  0  0  0  0  0  0  0  0
    0.7884   -2.0172   -0.9349 N   0  0  0  0  0  0  0  0  0  0  0  0
   -0.5908   -1.9610   -0.9762 N   0  0  0  0  0  0  0  0  0  0  0  0
   -0.9364   -0.8279   -0.4109 C   0  0  0  0  0  0  0  0  0  0  0  0
   -2.1494   -0.2495   -0.1821 N   0  0  0  0  0  0  0  0  0  0  0  0
   -3.3227   -0.8871   -0.5023 C   0  0  0  0  0  0  0  0  0  0  0  0
   -3.4401   -2.0126   -0.9688 O   0  0  0  0  0  0  0  0  0  0  0  0
   -4.5618   -0.1141   -0.1999 C   0  0  0  0  0  0  0  0  0  0  0  0
   -5.7103   -0.8233    0.1839 C   0  0  0  0  0  0  0  0  0  0  0  0
   -6.8921   -0.1400    0.4765 C   0  0  0  0  0  0  0  0  0  0  0  0
   -6.9244    1.2457    0.3739 C   0  0  0  0  0  0  0  0  0  0  0  0
   -8.0575    1.9022    0.6528 F   0  0  0  0  0  0  0  0  0  0  0  0
   -5.7994    1.9621   -0.0227 C   0  0  0  0  0  0  0  0  0  0  0  0
   -4.6133    1.2837   -0.3158 C   0  0  0  0  0  0  0  0  0  0  0  0
    0.1406   -0.0999    0.0149 O   0  0  0  0  0  0  0  0  0  0  0  0
    2.7745    0.7756    0.6035 C   0  0  0  0  0  0  0  0  0  0  0  0
    4.0819    1.1890    0.8815 C   0  0  0  0  0  0  0  0  0  0  0  0
    8.4230    0.6978    0.8446 H   0  0  0  0  0  0  0  0  0  0  0  0
    7.5326   -0.8175    1.0357 H   0  0  0  0  0  0  0  0  0  0  0  0
    7.6139    0.0100   -0.5688 H   0  0  0  0  0  0  0  0  0  0  0  0
    5.7620   -1.4742   -0.4117 H   0  0  0  0  0  0  0  0  0  0  0  0
    3.4858   -2.1925   -0.8950 H   0  0  0  0  0  0  0  0  0  0  0  0
   -2.1333    0.6335    0.3010 H   0  0  0  0  0  0  0  0  0  0  0  0
   -5.6846   -1.9099    0.2544 H   0  0  0  0  0  0  0  0  0  0  0  0
   -7.7848   -0.6800    0.7768 H   0  0  0  0  0  0  0  0  0  0  0  0
   -5.8598    3.0427   -0.1125 H   0  0  0  0  0  0  0  0  0  0  0  0
   -3.7576    1.8559   -0.6628 H   0  0  0  0  0  0  0  0  0  0  0  0
    1.9512    1.4222    0.8976 H   0  0  0  0  0  0  0  0  0  0  0  0
    4.2509    2.1401    1.3816 H   0  0  0  0  0  0  0  0  0  0  0  0
  1  2  1  0
  2  3  1  0
  3  4  2  0
  4  5  1  0
  5  6  2  0
  6  7  1  0
  7  8  2  0
  8  9  1  0
  9 10  2  0
 10 11  1  0
 11 12  1  0
 12 13  2  0
 12 14  1  0
 14 15  2  0
 15 16  1  0
 16 17  2  0
 17 18  1  0
 17 19  1  0
 19 20  2  0
 10 21  1  0
  6 22  1  0
 22 23  2  0
 23  3  1  0
 21  7  1  0
 20 14  1  0
  1 24  1  0
  1 25  1  0
  1 26  1  0
  4 27  1  0
  5 28  1  0
 11 29  1  0
 15 30  1  0
 16 31  1  0
 19 32  1  0
 20 33  1  0
 22 34  1  0
 23 35  1  0
M  END
$$$$
