
     RDKit          3D

 60 65  0  0  0  0  0  0  0  0999 V2000
    3.8361    2.8479   -1.7859 C   0  0  0  0  0  0  0  0  0  0  0  0
    4.5694    1.7684   -1.0884 C   0  0  0  0  0  0  0  0  0  0  0  0
    5.6595    2.0508   -0.3658 N   0  0  0  0  0  0  0  0  0  0  0  0
    6.1263    0.8356    0.0987 O   0  0  0  0  0  0  0  0  0  0  0  0
    5.3075   -0.1615   -0.3290 C   0  0  0  0  0  0  0  0  0  0  0  0
    5.7133   -1.5278    0.0427 C   0  0  0  0  0  0  0  0  0  0  0  0
    4.2640    0.3824   -1.0487 C   0  0  0  0  0  0  0  0  0  0  0  0
    3.1731   -0.3076   -1.7004 C   0  0  0  0  0  0  0  0  0  0  0  0
    2.8827   -0.0405   -2.8670 O   0  0  0  0  0  0  0  0  0  0  0  0
    2.4685   -1.2670   -0.9601 N   0  0  0  0  0  0  0  0  0  0  0  0
    2.2596   -1.1738    0.4832 C   0  0  0  0  0  0  0  0  0  0  0  0
    0.9215   -0.4845    0.7656 C   0  0  0  0  0  0  0  0  0  0  0  0
   -0.2641   -1.2004    0.0603 C   0  0  0  0  0  0  0  0  0  0  0  0
    0.0674   -1.3833   -1.4490 C   0  0  0  0  0  0  0  0  0  0  0  0
    1.4373   -2.0311   -1.6525 C   0  0  0  0  0  0  0  0  0  0  0  0
   -0.3424   -2.5620    0.5616 O   0  0  0  0  0  0  0  0  0  0  0  0
   -1.0163   -2.7798    1.7249 C   0  0  0  0  0  0  0  0  0  0  0  0
   -0.8573   -4.0431    2.2962 C   0  0  0  0  0  0  0  0  0  0  0  0
   -1.4883   -4.3482    3.5031 C   0  0  0  0  0  0  0  0  0  0  0  0
   -2.2763   -3.3882    4.1288 C   0  0  0  0  0  0  0  0  0  0  0  0
   -2.8730   -3.6837    5.2899 F   0  0  0  0  0  0  0  0  0  0  0  0
   -2.4539   -2.1319    3.5670 C   0  0  0  0  0  0  0  0  0  0  0  0
   -1.8266   -1.8403    2.3537 C   0  0  0  0  0  0  0  0  0  0  0  0
   -2.0033   -0.5292    1.7200 C   0  0  0  0  0  0  0  0  0  0  0  0
   -2.4331    0.4113    2.3808 O   0  0  0  0  0  0  0  0  0  0  0  0
   -1.6064   -0.4397    0.2505 C   0  0  0  0  0  0  0  0  0  0  0  0
   -1.6170    1.0054   -0.2281 C   0  0  0  0  0  0  0  0  0  0  0  0
   -3.0031    1.0502   -0.7794 C   0  0  0  0  0  0  0  0  0  0  0  0
   -3.6784    2.3249   -1.1208 C   0  0  0  0  0  0  0  0  0  0  0  0
   -5.0164    2.2900   -1.5366 C   0  0  0  0  0  0  0  0  0  0  0  0
   -5.6856    3.4733   -1.8620 C   0  0  0  0  0  0  0  0  0  0  0  0
   -5.0172    4.6929   -1.7736 C   0  0  0  0  0  0  0  0  0  0  0  0
   -5.8385    6.1512   -2.1724 Cl  0  0  0  0  0  0  0  0  0  0  0  0
   -3.6853    4.7387   -1.3646 C   0  0  0  0  0  0  0  0  0  0  0  0
   -3.0134    3.5550   -1.0382 C   0  0  0  0  0  0  0  0  0  0  0  0
   -3.5516   -0.1091   -0.9594 N   0  0  0  0  0  0  0  0  0  0  0  0
   -2.6394   -1.0883   -0.5096 O   0  0  0  0  0  0  0  0  0  0  0  0
    3.8759    2.6955   -2.8661 H   0  0  0  0  0  0  0  0  0  0  0  0
    4.2603    3.8321   -1.5688 H   0  0  0  0  0  0  0  0  0  0  0  0
    2.7915    2.8611   -1.4780 H   0  0  0  0  0  0  0  0  0  0  0  0
    6.7866   -1.6643   -0.0954 H   0  0  0  0  0  0  0  0  0  0  0  0
    5.4781   -1.7229    1.0917 H   0  0  0  0  0  0  0  0  0  0  0  0
    5.2025   -2.2738   -0.5710 H   0  0  0  0  0  0  0  0  0  0  0  0
    3.0513   -0.6075    0.9784 H   0  0  0  0  0  0  0  0  0  0  0  0
    2.2770   -2.1902    0.8943 H   0  0  0  0  0  0  0  0  0  0  0  0
    0.9852    0.5567    0.4265 H   0  0  0  0  0  0  0  0  0  0  0  0
    0.7765   -0.4636    1.8514 H   0  0  0  0  0  0  0  0  0  0  0  0
   -0.6814   -2.0239   -1.9304 H   0  0  0  0  0  0  0  0  0  0  0  0
    0.0595   -0.4210   -1.9691 H   0  0  0  0  0  0  0  0  0  0  0  0
    1.6625   -2.1015   -2.7213 H   0  0  0  0  0  0  0  0  0  0  0  0
    1.4535   -3.0522   -1.2565 H   0  0  0  0  0  0  0  0  0  0  0  0
   -0.2389   -4.7901    1.8049 H   0  0  0  0  0  0  0  0  0  0  0  0
   -1.3702   -5.3255    3.9607 H   0  0  0  0  0  0  0  0  0  0  0  0
   -3.0809   -1.4005    4.0680 H   0  0  0  0  0  0  0  0  0  0  0  0
   -1.4503    1.7379    0.5644 H   0  0  0  0  0  0  0  0  0  0  0  0
   -0.9248    1.2062   -1.0486 H   0  0  0  0  0  0  0  0  0  0  0  0
   -5.5484    1.3420   -1.6060 H   0  0  0  0  0  0  0  0  0  0  0  0
   -6.7239    3.4341   -2.1805 H   0  0  0  0  0  0  0  0  0  0  0  0
   -3.1650    5.6920   -1.2960 H   0  0  0  0  0  0  0  0  0  0  0  0
   -1.9761    3.6227   -0.7251 H   0  0  0  0  0  0  0  0  0  0  0  0
  1  2  1  0
  2  3  2  0
  3  4  1  0
  4  5  1  0
  5  6  1  0
  5  7  2  0
  7  8  1  0
  8  9  2  0
  8 10  1  0
 10 11  1  0
 11 12  1  0
 12 13  1  0
 13 14  1  0
 14 15  1  0
 13 16  1  0
 16 17  1  0
 17 18  2  0
 18 19  1  0
 19 20  2  0
 20 21  1  0
 20 22  1  0
 22 23  2  0
 23 24  1  0
 24 25  2  0
 24 26  1  0
 26 27  1  0
 27 28  1  0
 28 29  1  0
 29 30  2  0
 30 31  1  0
 31 32  2  0
 32 33  1  0
 32 34  1  0
 34 35  2  0
 28 36  2  0
 36 37  1  0
  7  2  1  0
 15 10  1  0
 23 17  1  0
 37 26  1  0
 26 13  1  0
 35 29  1  0
  1 38  1  0
  1 39  1  0
  1 40  1  0
  6 41  1  0
  6 42  1  0
  6 43  1  0
 11 44  1  0
 11 45  1  0
 12 46  1  0
 12 47  1  0
 14 48  1  0
 14 49  1  0
 15 50  1  0
 15 51  1  0
 18 52  1  0
 19 53  1  0
 22 54  1  0
 27 55  1  0
 27 56  1  0
 30 57  1  0
 31 58  1  0
 34 59  1  0
 35 60  1  0
M  END
$$$$
