
     RDKit          3D

 51 54  0  0  0  0  0  0  0  0999 V2000
    3.9793    1.7102   -2.0721 O   0  0  0  0  0  0  0  0  0  0  0  0
    3.2837    0.8530   -1.5334 C   0  0  0  0  0  0  0  0  0  0  0  0
    2.2311    0.0810   -2.3455 C   0  0  0  0  0  0  0  0  0  0  0  0
    0.9938   -0.1942   -1.6352 N   0  0  0  0  0  0  0  0  0  0  0  0
    0.8593   -1.2276   -0.7423 C   0  0  0  0  0  0  0  0  0  0  0  0
    1.7707   -1.9581   -0.3881 O   0  0  0  0  0  0  0  0  0  0  0  0
   -0.5393   -1.3492   -0.1528 C   0  0  0  0  0  0  0  0  0  0  0  0
   -1.0671   -0.2357    0.2611 N   0  0  0  0  0  0  0  0  0  0  0  0
   -2.3450   -0.2586    0.7751 N   0  0  0  0  0  0  0  0  0  0  0  0
   -2.9033    1.0324    1.1751 C   0  0  0  0  0  0  0  0  0  0  0  0
   -3.4086    1.8233   -0.0109 C   0  0  0  0  0  0  0  0  0  0  0  0
   -2.6017    2.8015   -0.6136 C   0  0  0  0  0  0  0  0  0  0  0  0
   -3.0669    3.5198   -1.7174 C   0  0  0  0  0  0  0  0  0  0  0  0
   -4.3384    3.2626   -2.2333 C   0  0  0  0  0  0  0  0  0  0  0  0
   -5.1451    2.2871   -1.6482 C   0  0  0  0  0  0  0  0  0  0  0  0
   -4.6825    1.5680   -0.5443 C   0  0  0  0  0  0  0  0  0  0  0  0
   -3.1351   -1.4027    0.8560 C   0  0  0  0  0  0  0  0  0  0  0  0
   -4.2870   -1.4209    1.2825 O   0  0  0  0  0  0  0  0  0  0  0  0
   -2.5187   -2.6613    0.3930 C   0  0  0  0  0  0  0  0  0  0  0  0
   -3.2413   -3.8616    0.4544 C   0  0  0  0  0  0  0  0  0  0  0  0
   -2.6599   -5.0492    0.0111 C   0  0  0  0  0  0  0  0  0  0  0  0
   -1.3626   -5.0387   -0.4994 C   0  0  0  0  0  0  0  0  0  0  0  0
   -0.6431   -3.8418   -0.5668 C   0  0  0  0  0  0  0  0  0  0  0  0
   -1.2225   -2.6497   -0.1122 C   0  0  0  0  0  0  0  0  0  0  0  0
    3.4726    0.3490   -0.2564 N   0  0  0  0  0  0  0  0  0  0  0  0
    4.3336    0.8617    0.7376 C   0  0  0  0  0  0  0  0  0  0  0  0
    4.7287   -0.0337    1.7448 C   0  0  0  0  0  0  0  0  0  0  0  0
    5.5922    0.3769    2.7649 C   0  0  0  0  0  0  0  0  0  0  0  0
    6.0464    1.6905    2.7910 C   0  0  0  0  0  0  0  0  0  0  0  0
    6.8681    2.0806    3.7777 F   0  0  0  0  0  0  0  0  0  0  0  0
    5.6376    2.5960    1.8224 C   0  0  0  0  0  0  0  0  0  0  0  0
    6.0497    3.8703    1.8850 F   0  0  0  0  0  0  0  0  0  0  0  0
    4.7787    2.1905    0.8040 C   0  0  0  0  0  0  0  0  0  0  0  0
    4.3262    3.1238   -0.0464 F   0  0  0  0  0  0  0  0  0  0  0  0
    1.9686    0.6695   -3.2304 H   0  0  0  0  0  0  0  0  0  0  0  0
    2.6767   -0.8672   -2.6634 H   0  0  0  0  0  0  0  0  0  0  0  0
    0.2384    0.4872   -1.6737 H   0  0  0  0  0  0  0  0  0  0  0  0
   -3.7191    0.8873    1.8927 H   0  0  0  0  0  0  0  0  0  0  0  0
   -2.1227    1.5919    1.7063 H   0  0  0  0  0  0  0  0  0  0  0  0
   -1.6053    3.0078   -0.2235 H   0  0  0  0  0  0  0  0  0  0  0  0
   -2.4386    4.2799   -2.1754 H   0  0  0  0  0  0  0  0  0  0  0  0
   -4.7007    3.8236   -3.0915 H   0  0  0  0  0  0  0  0  0  0  0  0
   -6.1354    2.0836   -2.0509 H   0  0  0  0  0  0  0  0  0  0  0  0
   -5.3198    0.8044   -0.0992 H   0  0  0  0  0  0  0  0  0  0  0  0
   -4.2563   -3.8727    0.8480 H   0  0  0  0  0  0  0  0  0  0  0  0
   -3.2191   -5.9811    0.0633 H   0  0  0  0  0  0  0  0  0  0  0  0
   -0.9091   -5.9665   -0.8460 H   0  0  0  0  0  0  0  0  0  0  0  0
    0.3651   -3.8734   -0.9726 H   0  0  0  0  0  0  0  0  0  0  0  0
    3.0995   -0.5883   -0.1023 H   0  0  0  0  0  0  0  0  0  0  0  0
    4.3844   -1.0655    1.7345 H   0  0  0  0  0  0  0  0  0  0  0  0
    5.9099   -0.3160    3.5367 H   0  0  0  0  0  0  0  0  0  0  0  0
  1  2  2  0
  2  3  1  0
  3  4  1  0
  4  5  1  0
  5  6  2  0
  5  7  1  0
  7  8  2  0
  8  9  1  0
  9 10  1  0
 10 11  1  0
 11 12  2  0
 12 13  1  0
 13 14  2  0
 14 15  1  0
 15 16  2  0
  9 17  1  0
 17 18  2  0
 17 19  1  0
 19 20  2  0
 20 21  1  0
 21 22  2  0
 22 23  1  0
 23 24  2  0
  2 25  1  0
 25 26  1  0
 26 27  2  0
 27 28  1  0
 28 29  2  0
 29 30  1  0
 29 31  1  0
 31 32  1  0
 31 33  2  0
 33 34  1  0
 24  7  1  0
 33 26  1  0
 16 11  1  0
 24 19  1  0
  3 35  1  0
  3 36  1  0
  4 37  1  0
 10 38  1  0
 10 39  1  0
 12 40  1  0
 13 41  1  0
 14 42  1  0
 15 43  1  0
 16 44  1  0
 20 45  1  0
 21 46  1  0
 22 47  1  0
 23 48  1  0
 25 49  1  0
 27 50  1  0
 28 51  1  0
M  END
$$$$
