
     RDKit          3D

 53 55  0  0  0  0  0  0  0  0999 V2000
   -6.3892   -2.0333   -3.6073 C   0  0  0  0  0  0  0  0  0  0  0  0
   -5.2001   -1.5308   -3.0102 O   0  0  0  0  0  0  0  0  0  0  0  0
   -5.3223   -0.9407   -1.7820 C   0  0  0  0  0  0  0  0  0  0  0  0
   -4.1222   -0.4689   -1.2389 C   0  0  0  0  0  0  0  0  0  0  0  0
   -4.0960    0.1462    0.0140 C   0  0  0  0  0  0  0  0  0  0  0  0
   -2.9228    0.6414    0.6258 N   0  0  0  0  0  0  0  0  0  0  0  0
   -1.6326    0.6239    0.1180 C   0  0  0  0  0  0  0  0  0  0  0  0
   -1.2771    0.1792   -0.9668 O   0  0  0  0  0  0  0  0  0  0  0  0
   -0.6463    1.2576    1.0803 C   0  0  0  0  0  0  0  0  0  0  0  0
    0.7688    1.2018    0.5247 C   0  0  0  0  0  0  0  0  0  0  0  0
    1.7057    1.8342    1.4550 N   0  0  0  0  0  0  0  0  0  0  0  0
    2.5322    0.9285    2.5894 S   0  0  0  0  0  6  0  0  0  0  0  0
    1.6272   -0.0740    3.1045 O   0  0  0  0  0  0  0  0  0  0  0  0
    3.1934    1.8757    3.4590 O   0  0  0  0  0  0  0  0  0  0  0  0
    3.7766    0.1338    1.6033 C   0  0  0  0  0  0  0  0  0  0  0  0
    3.6508   -1.2213    1.2798 C   0  0  0  0  0  0  0  0  0  0  0  0
    4.6428   -1.8430    0.5194 C   0  0  0  0  0  0  0  0  0  0  0  0
    5.7449   -1.1062    0.0833 C   0  0  0  0  0  0  0  0  0  0  0  0
    5.8824    0.2470    0.4188 C   0  0  0  0  0  0  0  0  0  0  0  0
    4.8964    0.8672    1.1943 C   0  0  0  0  0  0  0  0  0  0  0  0
    7.1410    0.9732    0.0357 C   0  0  0  0  0  0  0  0  0  0  0  0
    7.7158    0.4355   -1.2636 C   0  0  0  0  0  0  0  0  0  0  0  0
    7.7727   -1.0748   -1.2810 C   0  0  0  0  0  0  0  0  0  0  0  0
    8.6444   -1.6928   -1.8883 O   0  0  0  0  0  0  0  0  0  0  0  0
    6.7368   -1.7332   -0.6748 N   0  0  0  0  0  0  0  0  0  0  0  0
   -5.2964    0.2896    0.7262 C   0  0  0  0  0  0  0  0  0  0  0  0
   -6.5013   -0.1713    0.1903 C   0  0  0  0  0  0  0  0  0  0  0  0
   -7.7317   -0.0831    0.7854 O   0  0  0  0  0  0  0  0  0  0  0  0
   -7.8027    0.5838    2.0387 C   0  0  0  0  0  0  0  0  0  0  0  0
   -6.5075   -0.7877   -1.0640 C   0  0  0  0  0  0  0  0  0  0  0  0
   -6.8382   -2.8209   -2.9933 H   0  0  0  0  0  0  0  0  0  0  0  0
   -6.1185   -2.4769   -4.5701 H   0  0  0  0  0  0  0  0  0  0  0  0
   -7.1037   -1.2264   -3.8016 H   0  0  0  0  0  0  0  0  0  0  0  0
   -3.2196   -0.6072   -1.8252 H   0  0  0  0  0  0  0  0  0  0  0  0
   -3.0399    1.0439    1.5478 H   0  0  0  0  0  0  0  0  0  0  0  0
   -0.9419    2.2983    1.2515 H   0  0  0  0  0  0  0  0  0  0  0  0
   -0.7066    0.7301    2.0385 H   0  0  0  0  0  0  0  0  0  0  0  0
    0.8264    1.7430   -0.4268 H   0  0  0  0  0  0  0  0  0  0  0  0
    1.0670    0.1690    0.3135 H   0  0  0  0  0  0  0  0  0  0  0  0
    1.6870    2.8394    1.6141 H   0  0  0  0  0  0  0  0  0  0  0  0
    2.7894   -1.7966    1.6136 H   0  0  0  0  0  0  0  0  0  0  0  0
    4.5407   -2.8957    0.2686 H   0  0  0  0  0  0  0  0  0  0  0  0
    5.0017    1.9111    1.4856 H   0  0  0  0  0  0  0  0  0  0  0  0
    6.9469    2.0466   -0.0743 H   0  0  0  0  0  0  0  0  0  0  0  0
    7.8663    0.8474    0.8476 H   0  0  0  0  0  0  0  0  0  0  0  0
    7.1022    0.7491   -2.1155 H   0  0  0  0  0  0  0  0  0  0  0  0
    8.7250    0.8314   -1.4100 H   0  0  0  0  0  0  0  0  0  0  0  0
    6.7189   -2.7362   -0.8092 H   0  0  0  0  0  0  0  0  0  0  0  0
   -5.2771    0.7634    1.7018 H   0  0  0  0  0  0  0  0  0  0  0  0
   -7.2277    0.0514    2.8025 H   0  0  0  0  0  0  0  0  0  0  0  0
   -8.8500    0.5925    2.3549 H   0  0  0  0  0  0  0  0  0  0  0  0
   -7.4743    1.6248    1.9490 H   0  0  0  0  0  0  0  0  0  0  0  0
   -7.4574   -1.1389   -1.4529 H   0  0  0  0  0  0  0  0  0  0  0  0
  1  2  1  0
  2  3  1  0
  3  4  2  0
  4  5  1  0
  5  6  1  0
  6  7  1  0
  7  8  2  0
  7  9  1  0
  9 10  1  0
 10 11  1  0
 11 12  1  0
 12 13  2  0
 12 14  2  0
 12 15  1  0
 15 16  2  0
 16 17  1  0
 17 18  2  0
 18 19  1  0
 19 20  2  0
 19 21  1  0
 21 22  1  0
 22 23  1  0
 23 24  2  0
 23 25  1  0
  5 26  2  0
 26 27  1  0
 27 28  1  0
 28 29  1  0
 27 30  2  0
 30  3  1  0
 20 15  1  0
 25 18  1  0
  1 31  1  0
  1 32  1  0
  1 33  1  0
  4 34  1  0
  6 35  1  0
  9 36  1  0
  9 37  1  0
 10 38  1  0
 10 39  1  0
 11 40  1  0
 16 41  1  0
 17 42  1  0
 20 43  1  0
 21 44  1  0
 21 45  1  0
 22 46  1  0
 22 47  1  0
 25 48  1  0
 26 49  1  0
 29 50  1  0
 29 51  1  0
 29 52  1  0
 30 53  1  0
M  END
$$$$
