
     RDKit          3D

 61 66  0  0  0  0  0  0  0  0999 V2000
   -6.5898    1.6343   -3.1774 F   0  0  0  0  0  0  0  0  0  0  0  0
   -6.8133    0.7161   -2.2273 C   0  0  0  0  0  0  0  0  0  0  0  0
   -8.0959    0.5630   -1.7130 C   0  0  0  0  0  0  0  0  0  0  0  0
   -8.3275   -0.3885   -0.7216 C   0  0  0  0  0  0  0  0  0  0  0  0
   -7.2739   -1.1800   -0.2544 C   0  0  0  0  0  0  0  0  0  0  0  0
   -5.9786   -1.0291   -0.7759 C   0  0  0  0  0  0  0  0  0  0  0  0
   -4.8401   -1.8801   -0.2618 C   0  0  0  0  0  0  0  0  0  0  0  0
   -3.9555   -1.1614    0.7763 C   0  0  0  0  0  0  0  0  0  0  0  0
   -3.0572   -0.1494    0.1962 N   0  0  0  0  0  0  0  0  0  0  0  0
   -2.6149    0.8110    1.2350 C   0  0  0  0  0  0  0  0  0  0  0  0
   -1.3044    1.5389    0.8680 C   0  0  0  0  0  0  0  0  0  0  0  0
   -0.1828    0.5749    0.7993 N   0  0  0  0  0  0  0  0  0  0  0  0
    1.0518    1.0383    0.4156 C   0  0  0  0  0  0  0  0  0  0  0  0
    1.3721    2.1224   -0.3829 C   0  0  0  0  0  0  0  0  0  0  0  0
    2.7519    2.0594   -0.6779 C   0  0  0  0  0  0  0  0  0  0  0  0
    3.2638    0.9502   -0.0326 C   0  0  0  0  0  0  0  0  0  0  0  0
    4.5835    0.3554   -0.0119 C   0  0  0  0  0  0  0  0  0  0  0  0
    5.6315    0.7823   -0.9780 C   0  0  0  0  0  0  0  0  0  0  0  0
    5.3396    0.9627   -2.3352 C   0  0  0  0  0  0  0  0  0  0  0  0
    6.3486    1.3469   -3.2205 C   0  0  0  0  0  0  0  0  0  0  0  0
    7.6501    1.5370   -2.7562 C   0  0  0  0  0  0  0  0  0  0  0  0
    7.9502    1.3340   -1.4085 C   0  0  0  0  0  0  0  0  0  0  0  0
    6.9442    0.9514   -0.5201 C   0  0  0  0  0  0  0  0  0  0  0  0
    4.8791   -0.5706    0.8523 N   0  0  0  0  0  0  0  0  0  0  0  0
    3.9004   -0.9918    1.7741 C   0  0  0  0  0  0  0  0  0  0  0  0
    4.2769   -1.9304    2.7393 C   0  0  0  0  0  0  0  0  0  0  0  0
    3.3690   -2.3648    3.7064 C   0  0  0  0  0  0  0  0  0  0  0  0
    2.0751   -1.8488    3.7253 C   0  0  0  0  0  0  0  0  0  0  0  0
    1.6796   -0.9134    2.7669 C   0  0  0  0  0  0  0  0  0  0  0  0
    2.5804   -0.5105    1.7771 C   0  0  0  0  0  0  0  0  0  0  0  0
    2.2617    0.4396    0.7763 N   0  0  0  0  0  0  0  0  0  0  0  0
   -0.5752   -0.7719    0.2996 C   0  0  0  0  0  0  0  0  0  0  0  0
   -1.8932   -0.7344   -0.5098 C   0  0  0  0  0  0  0  0  0  0  0  0
   -5.7579   -0.0673   -1.7703 C   0  0  0  0  0  0  0  0  0  0  0  0
   -8.9028    1.1863   -2.0849 H   0  0  0  0  0  0  0  0  0  0  0  0
   -9.3262   -0.5145   -0.3110 H   0  0  0  0  0  0  0  0  0  0  0  0
   -7.4717   -1.9162    0.5221 H   0  0  0  0  0  0  0  0  0  0  0  0
   -5.2591   -2.7790    0.2097 H   0  0  0  0  0  0  0  0  0  0  0  0
   -4.2540   -2.2500   -1.1109 H   0  0  0  0  0  0  0  0  0  0  0  0
   -3.3672   -1.9061    1.3273 H   0  0  0  0  0  0  0  0  0  0  0  0
   -4.6216   -0.6862    1.5088 H   0  0  0  0  0  0  0  0  0  0  0  0
   -3.4087    1.5518    1.3841 H   0  0  0  0  0  0  0  0  0  0  0  0
   -2.4608    0.2960    2.1934 H   0  0  0  0  0  0  0  0  0  0  0  0
   -1.4377    2.0591   -0.0889 H   0  0  0  0  0  0  0  0  0  0  0  0
   -1.0862    2.2917    1.6342 H   0  0  0  0  0  0  0  0  0  0  0  0
    0.6710    2.8380   -0.7900 H   0  0  0  0  0  0  0  0  0  0  0  0
    3.2975    2.7386   -1.3204 H   0  0  0  0  0  0  0  0  0  0  0  0
    4.3377    0.7873   -2.7171 H   0  0  0  0  0  0  0  0  0  0  0  0
    6.1217    1.4873   -4.2749 H   0  0  0  0  0  0  0  0  0  0  0  0
    8.4352    1.8320   -3.4481 H   0  0  0  0  0  0  0  0  0  0  0  0
    8.9682    1.4661   -1.0514 H   0  0  0  0  0  0  0  0  0  0  0  0
    7.1837    0.7842    0.5282 H   0  0  0  0  0  0  0  0  0  0  0  0
    5.2926   -2.3170    2.7373 H   0  0  0  0  0  0  0  0  0  0  0  0
    3.6790   -3.0913    4.4529 H   0  0  0  0  0  0  0  0  0  0  0  0
    1.3755   -2.1650    4.4951 H   0  0  0  0  0  0  0  0  0  0  0  0
    0.6828   -0.4917    2.8349 H   0  0  0  0  0  0  0  0  0  0  0  0
   -0.7081   -1.4406    1.1580 H   0  0  0  0  0  0  0  0  0  0  0  0
    0.2096   -1.2078   -0.3309 H   0  0  0  0  0  0  0  0  0  0  0  0
   -2.1089   -1.7429   -0.8807 H   0  0  0  0  0  0  0  0  0  0  0  0
   -1.7242   -0.1226   -1.4057 H   0  0  0  0  0  0  0  0  0  0  0  0
   -4.7667    0.0868   -2.1874 H   0  0  0  0  0  0  0  0  0  0  0  0
  1  2  1  0
  2  3  2  0
  3  4  1  0
  4  5  2  0
  5  6  1  0
  6  7  1  0
  7  8  1  0
  8  9  1  0
  9 10  1  0
 10 11  1  0
 11 12  1  0
 12 13  1  0
 13 14  2  0
 14 15  1  0
 15 16  2  0
 16 17  1  0
 17 18  1  0
 18 19  2  0
 19 20  1  0
 20 21  2  0
 21 22  1  0
 22 23  2  0
 17 24  2  0
 24 25  1  0
 25 26  2  0
 26 27  1  0
 27 28  2  0
 28 29  1  0
 29 30  2  0
 30 31  1  0
 12 32  1  0
 32 33  1  0
  6 34  2  0
 34  2  1  0
 33  9  1  0
 31 13  1  0
 31 16  1  0
 23 18  1  0
 30 25  1  0
  3 35  1  0
  4 36  1  0
  5 37  1  0
  7 38  1  0
  7 39  1  0
  8 40  1  0
  8 41  1  0
 10 42  1  0
 10 43  1  0
 11 44  1  0
 11 45  1  0
 14 46  1  0
 15 47  1  0
 19 48  1  0
 20 49  1  0
 21 50  1  0
 22 51  1  0
 23 52  1  0
 26 53  1  0
 27 54  1  0
 28 55  1  0
 29 56  1  0
 32 57  1  0
 32 58  1  0
 33 59  1  0
 33 60  1  0
 34 61  1  0
M  END
$$$$
