
     RDKit          3D

 52 54  0  0  0  0  0  0  0  0999 V2000
    4.5985   -4.4148   -3.8191 C   0  0  0  0  0  0  0  0  0  0  0  0
    4.7627   -3.2398   -2.9017 C   0  0  0  0  0  0  0  0  0  0  0  0
    4.5681   -3.3836   -1.5238 C   0  0  0  0  0  0  0  0  0  0  0  0
    4.7502   -2.2968   -0.6657 C   0  0  0  0  0  0  0  0  0  0  0  0
    5.1480   -1.0507   -1.1682 C   0  0  0  0  0  0  0  0  0  0  0  0
    5.3176    0.1244   -0.2418 C   0  0  0  0  0  0  0  0  0  0  0  0
    4.0671    0.8108   -0.0499 N   0  0  0  0  0  0  0  0  0  0  0  0
    3.2355    0.5393    1.0098 C   0  0  0  0  0  0  0  0  0  0  0  0
    3.4897   -0.1707    1.9726 O   0  0  0  0  0  0  0  0  0  0  0  0
    1.8531    1.2212    0.8934 C   0  0  0  0  0  0  0  0  0  0  0  0
    1.5626    1.8605   -0.1075 O   0  0  0  0  0  0  0  0  0  0  0  0
    1.0334    1.0058    1.9760 N   0  0  0  0  0  0  0  0  0  0  0  0
   -0.3651    1.4000    1.9627 C   0  0  0  0  0  0  0  0  0  0  0  0
   -1.2342    0.5546    1.0115 C   0  0  0  0  0  0  0  0  0  0  0  0
   -1.1179   -0.8362    1.3817 O   0  0  0  0  0  0  0  0  0  0  0  0
   -2.3264   -1.4358    0.9133 C   0  0  0  0  0  0  0  0  0  0  0  0
   -3.3826   -0.4132    1.2661 C   0  0  0  0  0  0  0  0  0  0  0  0
   -2.6733    0.8811    1.1663 N   0  0  0  0  0  0  0  0  0  0  0  0
   -3.2367    1.9857    0.0199 S   0  0  0  0  0  6  0  0  0  0  0  0
   -2.4403    3.1873    0.1201 O   0  0  0  0  0  0  0  0  0  0  0  0
   -3.3829    1.2703   -1.2298 O   0  0  0  0  0  0  0  0  0  0  0  0
   -4.8561    2.3773    0.6371 C   0  0  0  0  0  0  0  0  0  0  0  0
   -4.9702    3.0376    1.8653 C   0  0  0  0  0  0  0  0  0  0  0  0
   -6.2364    3.3503    2.3621 C   0  0  0  0  0  0  0  0  0  0  0  0
   -7.3723    3.0061    1.6272 C   0  0  0  0  0  0  0  0  0  0  0  0
   -9.0866    3.4294    2.3027 Br  0  0  0  0  0  0  0  0  0  0  0  0
   -7.2564    2.3548    0.3976 C   0  0  0  0  0  0  0  0  0  0  0  0
   -5.9921    2.0394   -0.1042 C   0  0  0  0  0  0  0  0  0  0  0  0
    5.3463   -0.9096   -2.5477 C   0  0  0  0  0  0  0  0  0  0  0  0
    5.1639   -1.9974   -3.4053 C   0  0  0  0  0  0  0  0  0  0  0  0
    3.8401   -5.1062   -3.4367 H   0  0  0  0  0  0  0  0  0  0  0  0
    5.5484   -4.9495   -3.9158 H   0  0  0  0  0  0  0  0  0  0  0  0
    4.2710   -4.0918   -4.8129 H   0  0  0  0  0  0  0  0  0  0  0  0
    4.2680   -4.3427   -1.1078 H   0  0  0  0  0  0  0  0  0  0  0  0
    4.5777   -2.4255    0.4018 H   0  0  0  0  0  0  0  0  0  0  0  0
    6.0270    0.8441   -0.6649 H   0  0  0  0  0  0  0  0  0  0  0  0
    5.7239   -0.2050    0.7214 H   0  0  0  0  0  0  0  0  0  0  0  0
    3.6480    1.3109   -0.8288 H   0  0  0  0  0  0  0  0  0  0  0  0
    1.3457    0.2960    2.6343 H   0  0  0  0  0  0  0  0  0  0  0  0
   -0.4185    2.4592    1.6917 H   0  0  0  0  0  0  0  0  0  0  0  0
   -0.7197    1.2945    2.9940 H   0  0  0  0  0  0  0  0  0  0  0  0
   -0.8982    0.6435   -0.0283 H   0  0  0  0  0  0  0  0  0  0  0  0
   -2.4872   -2.3999    1.4026 H   0  0  0  0  0  0  0  0  0  0  0  0
   -2.2502   -1.5890   -0.1691 H   0  0  0  0  0  0  0  0  0  0  0  0
   -3.7045   -0.5313    2.3068 H   0  0  0  0  0  0  0  0  0  0  0  0
   -4.2632   -0.5038    0.6262 H   0  0  0  0  0  0  0  0  0  0  0  0
   -4.0815    3.3112    2.4303 H   0  0  0  0  0  0  0  0  0  0  0  0
   -6.3275    3.8644    3.3158 H   0  0  0  0  0  0  0  0  0  0  0  0
   -8.1422    2.0948   -0.1770 H   0  0  0  0  0  0  0  0  0  0  0  0
   -5.9040    1.5398   -1.0666 H   0  0  0  0  0  0  0  0  0  0  0  0
    5.6462    0.0487   -2.9657 H   0  0  0  0  0  0  0  0  0  0  0  0
    5.3333   -1.8672   -4.4719 H   0  0  0  0  0  0  0  0  0  0  0  0
  1  2  1  0
  2  3  2  0
  3  4  1  0
  4  5  2  0
  5  6  1  0
  6  7  1  0
  7  8  1  0
  8  9  2  0
  8 10  1  0
 10 11  2  0
 10 12  1  0
 12 13  1  0
 13 14  1  0
 14 15  1  0
 15 16  1  0
 16 17  1  0
 17 18  1  0
 18 19  1  0
 19 20  2  0
 19 21  2  0
 19 22  1  0
 22 23  2  0
 23 24  1  0
 24 25  2  0
 25 26  1  0
 25 27  1  0
 27 28  2  0
  5 29  1  0
 29 30  2  0
 30  2  1  0
 18 14  1  0
 28 22  1  0
  1 31  1  0
  1 32  1  0
  1 33  1  0
  3 34  1  0
  4 35  1  0
  6 36  1  0
  6 37  1  0
  7 38  1  0
 12 39  1  0
 13 40  1  0
 13 41  1  0
 14 42  1  0
 16 43  1  0
 16 44  1  0
 17 45  1  0
 17 46  1  0
 23 47  1  0
 24 48  1  0
 27 49  1  0
 28 50  1  0
 29 51  1  0
 30 52  1  0
M  END
$$$$
