
     RDKit          3D

 61 66  0  0  0  0  0  0  0  0999 V2000
    8.7518    3.0917    1.1918 F   0  0  0  0  0  0  0  0  0  0  0  0
    7.8082    2.5099    1.9853 C   0  0  0  0  0  0  0  0  0  0  0  0
    7.1253    3.5359    2.5650 F   0  0  0  0  0  0  0  0  0  0  0  0
    8.4962    1.9022    2.9926 F   0  0  0  0  0  0  0  0  0  0  0  0
    6.9005    1.5693    1.2329 C   0  0  0  0  0  0  0  0  0  0  0  0
    6.3160    0.4716    1.8807 C   0  0  0  0  0  0  0  0  0  0  0  0
    5.4576   -0.3852    1.1887 C   0  0  0  0  0  0  0  0  0  0  0  0
    5.1577   -0.1581   -0.1621 C   0  0  0  0  0  0  0  0  0  0  0  0
    4.2292   -1.0946   -0.9081 C   0  0  0  0  0  0  0  0  0  0  0  0
    2.8795   -1.1623   -0.3273 N   0  0  0  0  0  0  0  0  0  0  0  0
    2.1831    0.1429   -0.4086 C   0  0  0  0  0  0  0  0  0  0  0  0
    0.6514    0.0370   -0.2444 C   0  0  0  0  0  0  0  0  0  0  0  0
    0.0315   -0.8411   -1.2663 N   0  0  0  0  0  0  0  0  0  0  0  0
   -1.2298   -1.3590   -0.9630 C   0  0  0  0  0  0  0  0  0  0  0  0
   -1.3838   -2.6574   -0.8860 N   0  0  0  0  0  0  0  0  0  0  0  0
   -2.6297   -3.2143   -0.5377 C   0  0  0  0  0  0  0  0  0  0  0  0
   -2.7350   -4.6041   -0.4561 C   0  0  0  0  0  0  0  0  0  0  0  0
   -3.9444   -5.2090   -0.1035 C   0  0  0  0  0  0  0  0  0  0  0  0
   -5.0648   -4.4246    0.1729 C   0  0  0  0  0  0  0  0  0  0  0  0
   -4.9828   -3.0337    0.0976 C   0  0  0  0  0  0  0  0  0  0  0  0
   -3.7660   -2.4431   -0.2561 C   0  0  0  0  0  0  0  0  0  0  0  0
   -3.5980   -1.0532   -0.3683 N   0  0  0  0  0  0  0  0  0  0  0  0
   -4.5141   -0.0449   -0.1827 C   0  0  0  0  0  0  0  0  0  0  0  0
   -3.9070    1.1616   -0.4785 C   0  0  0  0  0  0  0  0  0  0  0  0
   -4.5765    2.4531   -0.4099 C   0  0  0  0  0  0  0  0  0  0  0  0
   -3.8606    3.5951   -0.0255 C   0  0  0  0  0  0  0  0  0  0  0  0
   -4.4898    4.8413    0.0401 C   0  0  0  0  0  0  0  0  0  0  0  0
   -5.8402    4.9592   -0.2813 C   0  0  0  0  0  0  0  0  0  0  0  0
   -6.5623    3.8326   -0.6689 C   0  0  0  0  0  0  0  0  0  0  0  0
   -5.9340    2.5858   -0.7335 C   0  0  0  0  0  0  0  0  0  0  0  0
   -2.5636    0.8581   -0.8326 C   0  0  0  0  0  0  0  0  0  0  0  0
   -2.3858   -0.5092   -0.7249 C   0  0  0  0  0  0  0  0  0  0  0  0
    1.0034   -1.7236   -1.9457 C   0  0  0  0  0  0  0  0  0  0  0  0
    2.0712   -2.2338   -0.9590 C   0  0  0  0  0  0  0  0  0  0  0  0
    5.7360    0.9419   -0.8089 C   0  0  0  0  0  0  0  0  0  0  0  0
    6.5956    1.7993   -0.1171 C   0  0  0  0  0  0  0  0  0  0  0  0
    6.5265    0.2774    2.9314 H   0  0  0  0  0  0  0  0  0  0  0  0
    5.0088   -1.2310    1.7074 H   0  0  0  0  0  0  0  0  0  0  0  0
    4.1790   -0.8188   -1.9698 H   0  0  0  0  0  0  0  0  0  0  0  0
    4.6993   -2.0867   -0.8708 H   0  0  0  0  0  0  0  0  0  0  0  0
    2.5661    0.8062    0.3756 H   0  0  0  0  0  0  0  0  0  0  0  0
    2.3877    0.6289   -1.3725 H   0  0  0  0  0  0  0  0  0  0  0  0
    0.2294    1.0435   -0.3184 H   0  0  0  0  0  0  0  0  0  0  0  0
    0.4261   -0.3468    0.7593 H   0  0  0  0  0  0  0  0  0  0  0  0
   -1.8633   -5.2175   -0.6679 H   0  0  0  0  0  0  0  0  0  0  0  0
   -4.0095   -6.2924   -0.0441 H   0  0  0  0  0  0  0  0  0  0  0  0
   -6.0038   -4.8996    0.4471 H   0  0  0  0  0  0  0  0  0  0  0  0
   -5.8680   -2.4456    0.3150 H   0  0  0  0  0  0  0  0  0  0  0  0
   -5.5235   -0.2571    0.1378 H   0  0  0  0  0  0  0  0  0  0  0  0
   -2.8086    3.5250    0.2394 H   0  0  0  0  0  0  0  0  0  0  0  0
   -3.9246    5.7185    0.3443 H   0  0  0  0  0  0  0  0  0  0  0  0
   -6.3294    5.9285   -0.2312 H   0  0  0  0  0  0  0  0  0  0  0  0
   -7.6147    3.9228   -0.9252 H   0  0  0  0  0  0  0  0  0  0  0  0
   -6.5143    1.7241   -1.0535 H   0  0  0  0  0  0  0  0  0  0  0  0
   -1.8099    1.5656   -1.1496 H   0  0  0  0  0  0  0  0  0  0  0  0
    1.4838   -1.1554   -2.7524 H   0  0  0  0  0  0  0  0  0  0  0  0
    0.5116   -2.5706   -2.4379 H   0  0  0  0  0  0  0  0  0  0  0  0
    1.5686   -2.7769   -0.1486 H   0  0  0  0  0  0  0  0  0  0  0  0
    2.7076   -2.9716   -1.4626 H   0  0  0  0  0  0  0  0  0  0  0  0
    5.5189    1.1414   -1.8561 H   0  0  0  0  0  0  0  0  0  0  0  0
    7.0306    2.6511   -0.6383 H   0  0  0  0  0  0  0  0  0  0  0  0
  1  2  1  0
  2  3  1  0
  2  4  1  0
  2  5  1  0
  5  6  2  0
  6  7  1  0
  7  8  2  0
  8  9  1  0
  9 10  1  0
 10 11  1  0
 11 12  1  0
 12 13  1  0
 13 14  1  0
 14 15  2  0
 15 16  1  0
 16 17  2  0
 17 18  1  0
 18 19  2  0
 19 20  1  0
 20 21  2  0
 21 22  1  0
 22 23  1  0
 23 24  2  0
 24 25  1  0
 25 26  2  0
 26 27  1  0
 27 28  2  0
 28 29  1  0
 29 30  2  0
 24 31  1  0
 31 32  2  0
 13 33  1  0
 33 34  1  0
  8 35  1  0
 35 36  2  0
 36  5  1  0
 34 10  1  0
 32 14  1  0
 21 16  1  0
 32 22  1  0
 30 25  1  0
  6 37  1  0
  7 38  1  0
  9 39  1  0
  9 40  1  0
 11 41  1  0
 11 42  1  0
 12 43  1  0
 12 44  1  0
 17 45  1  0
 18 46  1  0
 19 47  1  0
 20 48  1  0
 23 49  1  0
 26 50  1  0
 27 51  1  0
 28 52  1  0
 29 53  1  0
 30 54  1  0
 31 55  1  0
 33 56  1  0
 33 57  1  0
 34 58  1  0
 34 59  1  0
 35 60  1  0
 36 61  1  0
M  END
$$$$
