
     RDKit          3D

 50 53  0  0  0  0  0  0  0  0999 V2000
    7.9225    2.8578    0.0085 C   0  0  0  0  0  0  0  0  0  0  0  0
    7.4788    1.7794   -0.8047 O   0  0  0  0  0  0  0  0  0  0  0  0
    6.2555    1.2460   -0.5093 C   0  0  0  0  0  0  0  0  0  0  0  0
    5.4026    1.6596    0.5108 C   0  0  0  0  0  0  0  0  0  0  0  0
    4.1665    1.0230    0.7011 C   0  0  0  0  0  0  0  0  0  0  0  0
    3.7493   -0.0389   -0.1216 C   0  0  0  0  0  0  0  0  0  0  0  0
    2.4473   -0.7129    0.0624 C   0  0  0  0  0  0  0  0  0  0  0  0
    1.3158   -0.0555    0.5107 C   0  0  0  0  0  0  0  0  0  0  0  0
    0.1310   -0.7815    0.6412 C   0  0  0  0  0  0  0  0  0  0  0  0
   -1.0611   -0.0100    1.0630 C   0  0  0  0  0  0  0  0  0  0  0  0
   -0.9940    0.6229    2.1078 O   0  0  0  0  0  0  0  0  0  0  0  0
   -2.1074   -0.0583    0.1625 N   0  0  0  0  0  0  0  0  0  0  0  0
   -3.3750    0.5477    0.2883 C   0  0  0  0  0  0  0  0  0  0  0  0
   -3.7797    1.2782    1.4007 C   0  0  0  0  0  0  0  0  0  0  0  0
   -5.0710    1.8100    1.4602 C   0  0  0  0  0  0  0  0  0  0  0  0
   -5.9755    1.6353    0.4015 C   0  0  0  0  0  0  0  0  0  0  0  0
   -7.3671    2.1904    0.5305 C   0  0  0  0  0  0  0  0  0  0  0  0
   -5.5548    0.9572   -0.7540 C   0  0  0  0  0  0  0  0  0  0  0  0
   -6.4485    0.6569   -1.7955 N   0  0  0  0  0  0  0  0  0  0  0  0
   -4.2762    0.3777   -0.7720 C   0  0  0  0  0  0  0  0  0  0  0  0
    0.0861   -2.1663    0.3734 C   0  0  0  0  0  0  0  0  0  0  0  0
   -1.0487   -2.9999    0.5551 C   0  0  0  0  0  0  0  0  0  0  0  0
   -0.9995   -4.3582    0.2489 C   0  0  0  0  0  0  0  0  0  0  0  0
    0.1806   -4.9057   -0.2316 C   0  0  0  0  0  0  0  0  0  0  0  0
    1.3051   -4.0927   -0.3923 C   0  0  0  0  0  0  0  0  0  0  0  0
    1.2837   -2.7375   -0.0916 C   0  0  0  0  0  0  0  0  0  0  0  0
    2.4146   -2.0310   -0.2570 N   0  0  0  0  0  0  0  0  0  0  0  0
    4.6320   -0.4463   -1.1361 C   0  0  0  0  0  0  0  0  0  0  0  0
    5.8640    0.1885   -1.3287 C   0  0  0  0  0  0  0  0  0  0  0  0
    8.0409    2.5433    1.0502 H   0  0  0  0  0  0  0  0  0  0  0  0
    7.2483    3.7169   -0.0713 H   0  0  0  0  0  0  0  0  0  0  0  0
    8.9051    3.1704   -0.3577 H   0  0  0  0  0  0  0  0  0  0  0  0
    5.6651    2.4699    1.1828 H   0  0  0  0  0  0  0  0  0  0  0  0
    3.5396    1.3642    1.5229 H   0  0  0  0  0  0  0  0  0  0  0  0
    1.3282    1.0067    0.7356 H   0  0  0  0  0  0  0  0  0  0  0  0
   -1.9487   -0.5738   -0.6952 H   0  0  0  0  0  0  0  0  0  0  0  0
   -3.1239    1.4381    2.2508 H   0  0  0  0  0  0  0  0  0  0  0  0
   -5.3695    2.3520    2.3552 H   0  0  0  0  0  0  0  0  0  0  0  0
   -7.5394    2.9590   -0.2296 H   0  0  0  0  0  0  0  0  0  0  0  0
   -8.1083    1.3923    0.4190 H   0  0  0  0  0  0  0  0  0  0  0  0
   -7.5279    2.6527    1.5108 H   0  0  0  0  0  0  0  0  0  0  0  0
   -5.9965    0.4627   -2.6829 H   0  0  0  0  0  0  0  0  0  0  0  0
   -7.2028    1.3281   -1.8960 H   0  0  0  0  0  0  0  0  0  0  0  0
   -3.9858   -0.2133   -1.6362 H   0  0  0  0  0  0  0  0  0  0  0  0
   -1.9783   -2.6013    0.9582 H   0  0  0  0  0  0  0  0  0  0  0  0
   -1.8756   -4.9855    0.3954 H   0  0  0  0  0  0  0  0  0  0  0  0
    0.2377   -5.9645   -0.4706 H   0  0  0  0  0  0  0  0  0  0  0  0
    2.2318   -4.5333   -0.7551 H   0  0  0  0  0  0  0  0  0  0  0  0
    4.3608   -1.2713   -1.7932 H   0  0  0  0  0  0  0  0  0  0  0  0
    6.5221   -0.1497   -2.1251 H   0  0  0  0  0  0  0  0  0  0  0  0
  1  2  1  0
  2  3  1  0
  3  4  2  0
  4  5  1  0
  5  6  2  0
  6  7  1  0
  7  8  2  0
  8  9  1  0
  9 10  1  0
 10 11  2  0
 10 12  1  0
 12 13  1  0
 13 14  2  0
 14 15  1  0
 15 16  2  0
 16 17  1  0
 16 18  1  0
 18 19  1  0
 18 20  2  0
  9 21  2  0
 21 22  1  0
 22 23  2  0
 23 24  1  0
 24 25  2  0
 25 26  1  0
 26 27  2  0
  6 28  1  0
 28 29  2  0
 29  3  1  0
 27  7  1  0
 20 13  1  0
 26 21  1  0
  1 30  1  0
  1 31  1  0
  1 32  1  0
  4 33  1  0
  5 34  1  0
  8 35  1  0
 12 36  1  0
 14 37  1  0
 15 38  1  0
 17 39  1  0
 17 40  1  0
 17 41  1  0
 19 42  1  0
 19 43  1  0
 20 44  1  0
 22 45  1  0
 23 46  1  0
 24 47  1  0
 25 48  1  0
 28 49  1  0
 29 50  1  0
M  END
$$$$
