
     RDKit          3D

 56 59  0  0  0  0  0  0  0  0999 V2000
   -2.4376   -3.3975    3.2181 C   0  0  0  0  0  0  0  0  0  0  0  0
   -3.3076   -2.7019    2.1821 C   0  0  0  0  0  0  0  0  0  0  0  0
   -2.8947   -1.2389    1.9521 C   0  0  0  0  0  0  0  0  0  0  0  0
   -3.9269   -0.5576    1.0243 C   0  0  0  0  0  0  0  0  0  0  0  0
   -5.0411   -0.2524    1.4431 O   0  0  0  0  0  0  0  0  0  0  0  0
   -3.5288   -0.5293   -0.3015 N   0  0  0  0  0  0  0  0  0  0  0  0
   -4.1828    0.0533   -1.4042 C   0  0  0  0  0  0  0  0  0  0  0  0
   -3.7280   -0.3355   -2.6709 C   0  0  0  0  0  0  0  0  0  0  0  0
   -4.3131    0.1915   -3.8193 C   0  0  0  0  0  0  0  0  0  0  0  0
   -3.8716   -0.2022   -5.0208 F   0  0  0  0  0  0  0  0  0  0  0  0
   -5.3448    1.1165   -3.7407 C   0  0  0  0  0  0  0  0  0  0  0  0
   -5.7895    1.5296   -2.4881 C   0  0  0  0  0  0  0  0  0  0  0  0
   -5.2084    1.0054   -1.3301 C   0  0  0  0  0  0  0  0  0  0  0  0
   -5.6195    1.5147   -0.1638 F   0  0  0  0  0  0  0  0  0  0  0  0
   -1.5292   -1.0988    1.4011 N   0  0  0  0  0  0  0  0  0  0  0  0
   -1.1539   -1.9938    0.3791 N   0  0  0  0  0  0  0  0  0  0  0  0
    0.0296   -1.9359   -0.1691 C   0  0  0  0  0  0  0  0  0  0  0  0
    0.3729   -2.9447   -1.2279 C   0  0  0  0  0  0  0  0  0  0  0  0
    0.9502   -0.9083    0.2441 C   0  0  0  0  0  0  0  0  0  0  0  0
    2.2598   -0.5979   -0.0833 C   0  0  0  0  0  0  0  0  0  0  0  0
    3.2396   -1.3525   -0.9062 C   0  0  0  0  0  0  0  0  0  0  0  0
    2.5375    0.6002    0.5879 N   0  0  0  0  0  0  0  0  0  0  0  0
    3.6418    1.5024    0.4713 C   0  0  0  0  0  0  0  0  0  0  0  0
    4.4973    1.5056   -0.6357 C   0  0  0  0  0  0  0  0  0  0  0  0
    5.5589    2.4180   -0.7075 C   0  0  0  0  0  0  0  0  0  0  0  0
    5.7663    3.3575    0.3054 C   0  0  0  0  0  0  0  0  0  0  0  0
    6.9204    4.3124    0.2294 C   0  0  0  0  0  0  0  0  0  0  0  0
    4.9052    3.3653    1.4052 C   0  0  0  0  0  0  0  0  0  0  0  0
    3.8495    2.4529    1.4848 C   0  0  0  0  0  0  0  0  0  0  0  0
    1.5474    0.8962    1.4734 N   0  0  0  0  0  0  0  0  0  0  0  0
    0.5710    0.0258    1.2125 C   0  0  0  0  0  0  0  0  0  0  0  0
   -0.7384   -0.0171    1.8489 C   0  0  0  0  0  0  0  0  0  0  0  0
   -1.1141    0.7965    2.6882 O   0  0  0  0  0  0  0  0  0  0  0  0
   -1.4007   -3.4761    2.8804 H   0  0  0  0  0  0  0  0  0  0  0  0
   -2.8072   -4.4116    3.4025 H   0  0  0  0  0  0  0  0  0  0  0  0
   -2.4511   -2.8562    4.1705 H   0  0  0  0  0  0  0  0  0  0  0  0
   -4.3479   -2.7338    2.5290 H   0  0  0  0  0  0  0  0  0  0  0  0
   -3.2838   -3.2685    1.2435 H   0  0  0  0  0  0  0  0  0  0  0  0
   -2.9423   -0.7007    2.9074 H   0  0  0  0  0  0  0  0  0  0  0  0
   -2.6938   -1.0822   -0.4861 H   0  0  0  0  0  0  0  0  0  0  0  0
   -2.9292   -1.0594   -2.7881 H   0  0  0  0  0  0  0  0  0  0  0  0
   -5.7868    1.5173   -4.6478 H   0  0  0  0  0  0  0  0  0  0  0  0
   -6.5750    2.2754   -2.3948 H   0  0  0  0  0  0  0  0  0  0  0  0
    1.0878   -3.6664   -0.8244 H   0  0  0  0  0  0  0  0  0  0  0  0
   -0.5256   -3.4845   -1.5414 H   0  0  0  0  0  0  0  0  0  0  0  0
    0.8025   -2.4477   -2.1010 H   0  0  0  0  0  0  0  0  0  0  0  0
    3.1860   -1.0457   -1.9544 H   0  0  0  0  0  0  0  0  0  0  0  0
    4.2615   -1.2299   -0.5390 H   0  0  0  0  0  0  0  0  0  0  0  0
    3.0419   -2.4260   -0.8614 H   0  0  0  0  0  0  0  0  0  0  0  0
    4.3504    0.8532   -1.4878 H   0  0  0  0  0  0  0  0  0  0  0  0
    6.2138    2.4031   -1.5777 H   0  0  0  0  0  0  0  0  0  0  0  0
    6.7343    5.2053    0.8356 H   0  0  0  0  0  0  0  0  0  0  0  0
    7.8316    3.8262    0.5913 H   0  0  0  0  0  0  0  0  0  0  0  0
    7.0797    4.6466   -0.8018 H   0  0  0  0  0  0  0  0  0  0  0  0
    5.0408    4.0871    2.2078 H   0  0  0  0  0  0  0  0  0  0  0  0
    3.1957    2.4953    2.3559 H   0  0  0  0  0  0  0  0  0  0  0  0
  1  2  1  0
  2  3  1  0
  3  4  1  0
  4  5  2  0
  4  6  1  0
  6  7  1  0
  7  8  2  0
  8  9  1  0
  9 10  1  0
  9 11  2  0
 11 12  1  0
 12 13  2  0
 13 14  1  0
  3 15  1  0
 15 16  1  0
 16 17  2  0
 17 18  1  0
 17 19  1  0
 19 20  2  0
 20 21  1  0
 20 22  1  0
 22 23  1  0
 23 24  2  0
 24 25  1  0
 25 26  2  0
 26 27  1  0
 26 28  1  0
 28 29  2  0
 22 30  1  0
 30 31  2  0
 31 32  1  0
 32 33  2  0
 13  7  1  0
 32 15  1  0
 31 19  1  0
 29 23  1  0
  1 34  1  0
  1 35  1  0
  1 36  1  0
  2 37  1  0
  2 38  1  0
  3 39  1  0
  6 40  1  0
  8 41  1  0
 11 42  1  0
 12 43  1  0
 18 44  1  0
 18 45  1  0
 18 46  1  0
 21 47  1  0
 21 48  1  0
 21 49  1  0
 24 50  1  0
 25 51  1  0
 27 52  1  0
 27 53  1  0
 27 54  1  0
 28 55  1  0
 29 56  1  0
M  END
$$$$
