
     RDKit          3D

 39 40  0  0  0  0  0  0  0  0999 V2000
    3.9115   -0.0708    4.6089 C   0  0  0  0  0  0  0  0  0  0  0  0
    3.4011   -0.4178    3.2414 C   0  0  0  0  0  0  0  0  0  0  0  0
    4.1349   -1.2843    2.4224 C   0  0  0  0  0  0  0  0  0  0  0  0
    3.6630   -1.6265    1.1530 C   0  0  0  0  0  0  0  0  0  0  0  0
    2.4501   -1.1045    0.6848 C   0  0  0  0  0  0  0  0  0  0  0  0
    1.9881   -1.5076   -0.6699 C   0  0  0  0  0  0  0  0  0  0  0  0
    2.5112   -2.3944   -1.3260 O   0  0  0  0  0  0  0  0  0  0  0  0
    0.9406   -0.7449   -1.0695 O   0  0  0  0  0  0  0  0  0  0  0  0
    0.4167   -1.1214   -2.3453 C   0  0  0  0  0  0  0  0  0  0  0  0
   -0.7172   -0.1887   -2.7623 C   0  0  0  0  0  0  0  0  0  0  0  0
   -1.6090   -0.5433   -3.5288 O   0  0  0  0  0  0  0  0  0  0  0  0
   -0.6182    1.0879   -2.2450 N   0  0  0  0  0  0  0  0  0  0  0  0
   -1.6477    2.0926   -2.4551 C   0  0  0  0  0  0  0  0  0  0  0  0
   -2.6158    2.2293   -1.2702 C   0  0  0  0  0  0  0  0  0  0  0  0
   -3.2716    0.9843   -0.9161 N   0  0  0  0  0  0  0  0  0  0  0  0
   -4.3212    0.4578   -1.6258 C   0  0  0  0  0  0  0  0  0  0  0  0
   -4.8550    1.1847   -2.6466 O   0  0  0  0  0  0  0  0  0  0  0  0
   -4.7043   -0.7610   -1.2291 C   0  0  0  0  0  0  0  0  0  0  0  0
   -3.7310   -1.3267    0.0959 S   0  0  0  0  0  0  0  0  0  0  0  0
   -2.7525    0.1507    0.0601 C   0  0  0  0  0  0  0  0  0  0  0  0
   -1.7877    0.3431    0.7827 O   0  0  0  0  0  0  0  0  0  0  0  0
    1.7107   -0.2442    1.5048 C   0  0  0  0  0  0  0  0  0  0  0  0
    2.1848    0.0960    2.7752 C   0  0  0  0  0  0  0  0  0  0  0  0
    3.9339   -0.9659    5.2395 H   0  0  0  0  0  0  0  0  0  0  0  0
    3.2749    0.6730    5.0995 H   0  0  0  0  0  0  0  0  0  0  0  0
    4.9213    0.3473    4.5412 H   0  0  0  0  0  0  0  0  0  0  0  0
    5.0776   -1.7030    2.7711 H   0  0  0  0  0  0  0  0  0  0  0  0
    4.2449   -2.3065    0.5325 H   0  0  0  0  0  0  0  0  0  0  0  0
    1.1957   -1.0598   -3.1124 H   0  0  0  0  0  0  0  0  0  0  0  0
    0.0120   -2.1375   -2.2846 H   0  0  0  0  0  0  0  0  0  0  0  0
    0.0384    1.2113   -1.4799 H   0  0  0  0  0  0  0  0  0  0  0  0
   -1.1316    3.0456   -2.6097 H   0  0  0  0  0  0  0  0  0  0  0  0
   -2.1996    1.8595   -3.3715 H   0  0  0  0  0  0  0  0  0  0  0  0
   -3.3768    2.9882   -1.4870 H   0  0  0  0  0  0  0  0  0  0  0  0
   -2.0545    2.5815   -0.3960 H   0  0  0  0  0  0  0  0  0  0  0  0
   -5.4628    0.6070   -3.1388 H   0  0  0  0  0  0  0  0  0  0  0  0
   -5.4996   -1.3518   -1.6572 H   0  0  0  0  0  0  0  0  0  0  0  0
    0.7549    0.1596    1.1792 H   0  0  0  0  0  0  0  0  0  0  0  0
    1.5901    0.7611    3.3985 H   0  0  0  0  0  0  0  0  0  0  0  0
  1  2  1  0
  2  3  2  0
  3  4  1  0
  4  5  2  0
  5  6  1  0
  6  7  2  0
  6  8  1  0
  8  9  1  0
  9 10  1  0
 10 11  2  0
 10 12  1  0
 12 13  1  0
 13 14  1  0
 14 15  1  0
 15 16  1  0
 16 17  1  0
 16 18  2  0
 18 19  1  0
 19 20  1  0
 20 21  2  0
  5 22  1  0
 22 23  2  0
 23  2  1  0
 20 15  1  0
  1 24  1  0
  1 25  1  0
  1 26  1  0
  3 27  1  0
  4 28  1  0
  9 29  1  0
  9 30  1  0
 12 31  1  0
 13 32  1  0
 13 33  1  0
 14 34  1  0
 14 35  1  0
 17 36  1  0
 18 37  1  0
 22 38  1  0
 23 39  1  0
M  END
$$$$
