
     RDKit          3D

 38 40  0  0  0  0  0  0  0  0999 V2000
    1.1580   -2.5698   -2.1955 C   0  0  0  0  0  0  0  0  0  0  0  0
   -0.0226   -1.8596   -1.5947 C   0  0  0  0  0  0  0  0  0  0  0  0
   -0.7694   -2.5083   -0.6004 C   0  0  0  0  0  0  0  0  0  0  0  0
   -1.8543   -1.8736    0.0009 C   0  0  0  0  0  0  0  0  0  0  0  0
   -2.4900   -2.5776    0.9873 O   0  0  0  0  0  0  0  0  0  0  0  0
   -2.2443   -0.5912   -0.3977 C   0  0  0  0  0  0  0  0  0  0  0  0
   -3.6238    0.2799    0.3261 S   0  0  0  0  0  0  0  0  0  0  0  0
   -3.0387    0.5011    1.9510 C   0  0  0  0  0  0  0  0  0  0  0  0
   -2.3633    1.6096    2.3771 N   0  0  0  0  0  0  0  0  0  0  0  0
   -2.0978    1.3265    3.6308 C   0  0  0  0  0  0  0  0  0  0  0  0
   -2.5809    0.0918    3.9314 N   0  0  0  0  0  0  0  0  0  0  0  0
   -3.1779   -0.4682    2.8642 N   0  0  0  0  0  0  0  0  0  0  0  0
   -1.5244    0.0434   -1.4168 C   0  0  0  0  0  0  0  0  0  0  0  0
   -0.3992   -0.5631   -1.9868 C   0  0  0  0  0  0  0  0  0  0  0  0
    0.3806    0.1373   -2.9560 N   0  0  0  0  0  0  0  0  0  0  0  0
    1.0033    1.6686   -2.6120 S   0  0  0  0  0  6  0  0  0  0  0  0
   -0.0821    2.6217   -2.5374 O   0  0  0  0  0  0  0  0  0  0  0  0
    2.1080    1.8632   -3.5279 O   0  0  0  0  0  0  0  0  0  0  0  0
    1.6917    1.4824   -0.9799 C   0  0  0  0  0  0  0  0  0  0  0  0
    2.9573    0.9071   -0.8261 C   0  0  0  0  0  0  0  0  0  0  0  0
    3.4894    0.7542    0.4564 C   0  0  0  0  0  0  0  0  0  0  0  0
    2.7616    1.1848    1.5678 C   0  0  0  0  0  0  0  0  0  0  0  0
    3.4145    0.9830    3.1468 Cl  0  0  0  0  0  0  0  0  0  0  0  0
    1.5097    1.7792    1.4102 C   0  0  0  0  0  0  0  0  0  0  0  0
    0.9735    1.9379    0.1318 C   0  0  0  0  0  0  0  0  0  0  0  0
    2.0733   -1.9910   -2.0365 H   0  0  0  0  0  0  0  0  0  0  0  0
    1.0028   -2.7216   -3.2684 H   0  0  0  0  0  0  0  0  0  0  0  0
    1.3106   -3.5549   -1.7418 H   0  0  0  0  0  0  0  0  0  0  0  0
   -0.5023   -3.5102   -0.2709 H   0  0  0  0  0  0  0  0  0  0  0  0
   -3.0487   -1.9564    1.5005 H   0  0  0  0  0  0  0  0  0  0  0  0
   -1.5775    1.9518    4.3426 H   0  0  0  0  0  0  0  0  0  0  0  0
   -2.5388   -0.4177    4.8078 H   0  0  0  0  0  0  0  0  0  0  0  0
   -1.8399    1.0280   -1.7559 H   0  0  0  0  0  0  0  0  0  0  0  0
    1.0016   -0.3958   -3.5607 H   0  0  0  0  0  0  0  0  0  0  0  0
    3.5287    0.5785   -1.6912 H   0  0  0  0  0  0  0  0  0  0  0  0
    4.4701    0.3025    0.5838 H   0  0  0  0  0  0  0  0  0  0  0  0
    0.9445    2.1218    2.2731 H   0  0  0  0  0  0  0  0  0  0  0  0
   -0.0035    2.4048    0.0171 H   0  0  0  0  0  0  0  0  0  0  0  0
  1  2  1  0
  2  3  2  0
  3  4  1  0
  4  5  1  0
  4  6  2  0
  6  7  1  0
  7  8  1  0
  8  9  1  0
  9 10  2  0
 10 11  1  0
 11 12  1  0
  6 13  1  0
 13 14  2  0
 14 15  1  0
 15 16  1  0
 16 17  2  0
 16 18  2  0
 16 19  1  0
 19 20  2  0
 20 21  1  0
 21 22  2  0
 22 23  1  0
 22 24  1  0
 24 25  2  0
 14  2  1  0
 25 19  1  0
 12  8  2  0
  1 26  1  0
  1 27  1  0
  1 28  1  0
  3 29  1  0
  5 30  1  0
 10 31  1  0
 11 32  1  0
 13 33  1  0
 15 34  1  0
 20 35  1  0
 21 36  1  0
 24 37  1  0
 25 38  1  0
M  END
$$$$
