
     RDKit          3D

 44 46  0  0  0  0  0  0  0  0999 V2000
   -3.3851   -3.0741    1.4619 C   0  0  0  0  0  0  0  0  0  0  0  0
   -2.7239   -2.1884    0.4492 C   0  0  0  0  0  0  0  0  0  0  0  0
   -1.3551   -1.9126    0.5382 C   0  0  0  0  0  0  0  0  0  0  0  0
   -0.7363   -1.1120   -0.4198 C   0  0  0  0  0  0  0  0  0  0  0  0
   -1.4884   -0.5769   -1.4699 C   0  0  0  0  0  0  0  0  0  0  0  0
   -0.6832    0.4219   -2.7037 S   0  0  0  0  0  6  0  0  0  0  0  0
    0.6786   -0.0500   -2.8381 O   0  0  0  0  0  0  0  0  0  0  0  0
   -1.5613    0.4848   -3.8553 O   0  0  0  0  0  0  0  0  0  0  0  0
   -0.6970    1.9740   -2.0327 N   0  0  0  0  0  0  0  0  0  0  0  0
   -0.1274    2.1964   -0.7490 C   0  0  0  0  0  0  0  0  0  0  0  0
   -0.9588    2.5809    0.3049 C   0  0  0  0  0  0  0  0  0  0  0  0
   -0.4365    2.7338    1.5967 C   0  0  0  0  0  0  0  0  0  0  0  0
   -1.3282    3.1406    2.7316 C   0  0  0  0  0  0  0  0  0  0  0  0
    0.9282    2.4882    1.8087 C   0  0  0  0  0  0  0  0  0  0  0  0
    1.4100    2.6284    3.0853 O   0  0  0  0  0  0  0  0  0  0  0  0
    1.7748    2.1078    0.7555 C   0  0  0  0  0  0  0  0  0  0  0  0
    3.5119    1.7952    1.0564 S   0  0  0  0  0  0  0  0  0  0  0  0
    3.7559    0.3142    0.1614 C   0  0  0  0  0  0  0  0  0  0  0  0
    4.7135    0.2020   -0.7601 N   0  0  0  0  0  0  0  0  0  0  0  0
    4.4506   -1.0096   -1.2679 N   0  0  0  0  0  0  0  0  0  0  0  0
    3.3893   -1.5944   -0.6393 C   0  0  0  0  0  0  0  0  0  0  0  0
    2.8634   -2.9202   -1.0153 C   0  0  0  0  0  0  0  0  0  0  0  0
    2.9417   -0.7777    0.2903 N   0  0  0  0  0  0  0  0  0  0  0  0
    1.2363    1.9893   -0.5318 C   0  0  0  0  0  0  0  0  0  0  0  0
   -2.8448   -0.8713   -1.5885 C   0  0  0  0  0  0  0  0  0  0  0  0
   -3.4584   -1.6786   -0.6301 C   0  0  0  0  0  0  0  0  0  0  0  0
   -2.9196   -2.9549    2.4444 H   0  0  0  0  0  0  0  0  0  0  0  0
   -3.3042   -4.1192    1.1519 H   0  0  0  0  0  0  0  0  0  0  0  0
   -4.4455   -2.8185    1.5740 H   0  0  0  0  0  0  0  0  0  0  0  0
   -0.7617   -2.3189    1.3543 H   0  0  0  0  0  0  0  0  0  0  0  0
    0.3274   -0.9104   -0.3362 H   0  0  0  0  0  0  0  0  0  0  0  0
   -1.5217    2.5102   -2.2998 H   0  0  0  0  0  0  0  0  0  0  0  0
   -2.0200    2.7476    0.1290 H   0  0  0  0  0  0  0  0  0  0  0  0
   -1.0066    4.1028    3.1380 H   0  0  0  0  0  0  0  0  0  0  0  0
   -2.3692    3.2435    2.4050 H   0  0  0  0  0  0  0  0  0  0  0  0
   -1.3056    2.3868    3.5247 H   0  0  0  0  0  0  0  0  0  0  0  0
    2.3433    2.3518    3.0704 H   0  0  0  0  0  0  0  0  0  0  0  0
    5.0133   -1.3621   -2.0326 H   0  0  0  0  0  0  0  0  0  0  0  0
    3.6345   -3.6873   -0.9108 H   0  0  0  0  0  0  0  0  0  0  0  0
    2.0182   -3.1951   -0.3773 H   0  0  0  0  0  0  0  0  0  0  0  0
    2.5131   -2.9152   -2.0524 H   0  0  0  0  0  0  0  0  0  0  0  0
    1.8749    1.7206   -1.3690 H   0  0  0  0  0  0  0  0  0  0  0  0
   -3.4274   -0.4903   -2.4214 H   0  0  0  0  0  0  0  0  0  0  0  0
   -4.5127   -1.9132   -0.7307 H   0  0  0  0  0  0  0  0  0  0  0  0
  1  2  1  0
  2  3  2  0
  3  4  1  0
  4  5  2  0
  5  6  1  0
  6  7  2  0
  6  8  2  0
  6  9  1  0
  9 10  1  0
 10 11  2  0
 11 12  1  0
 12 13  1  0
 12 14  2  0
 14 15  1  0
 14 16  1  0
 16 17  1  0
 17 18  1  0
 18 19  2  0
 19 20  1  0
 20 21  1  0
 21 22  1  0
 21 23  2  0
 16 24  2  0
  5 25  1  0
 25 26  2  0
 26  2  1  0
 24 10  1  0
 23 18  1  0
  1 27  1  0
  1 28  1  0
  1 29  1  0
  3 30  1  0
  4 31  1  0
  9 32  1  0
 11 33  1  0
 13 34  1  0
 13 35  1  0
 13 36  1  0
 15 37  1  0
 20 38  1  0
 22 39  1  0
 22 40  1  0
 22 41  1  0
 24 42  1  0
 25 43  1  0
 26 44  1  0
M  END
$$$$
