
     RDKit          3D

 48 50  0  0  0  0  0  0  0  0999 V2000
   -5.0111   -2.9159   -0.6133 C   0  0  0  0  0  0  0  0  0  0  0  0
   -5.3397   -1.5554   -0.8587 O   0  0  0  0  0  0  0  0  0  0  0  0
   -4.3038   -0.6600   -0.9372 C   0  0  0  0  0  0  0  0  0  0  0  0
   -2.9544   -1.0085   -1.0257 C   0  0  0  0  0  0  0  0  0  0  0  0
   -1.9674   -0.0143   -1.0996 C   0  0  0  0  0  0  0  0  0  0  0  0
   -0.5588   -0.4205   -1.2008 C   0  0  0  0  0  0  0  0  0  0  0  0
    0.3880   -0.2030   -0.2658 C   0  0  0  0  0  0  0  0  0  0  0  0
    0.1179    0.4714    0.9550 C   0  0  0  0  0  0  0  0  0  0  0  0
   -0.0061    1.0177    1.9712 N   0  0  0  0  0  0  0  0  0  0  0  0
    1.7769   -0.7221   -0.5492 C   0  0  0  0  0  0  0  0  0  0  0  0
    2.0051   -1.2809   -1.6186 O   0  0  0  0  0  0  0  0  0  0  0  0
    2.6993   -0.5122    0.4648 N   0  0  0  0  0  0  0  0  0  0  0  0
    4.0754   -0.8818    0.4948 C   0  0  0  0  0  0  0  0  0  0  0  0
    4.6802   -1.5468   -0.5773 C   0  0  0  0  0  0  0  0  0  0  0  0
    6.0250   -1.8976   -0.5272 C   0  0  0  0  0  0  0  0  0  0  0  0
    6.7796   -1.5873    0.5978 C   0  0  0  0  0  0  0  0  0  0  0  0
    6.2288   -0.9335    1.6848 C   0  0  0  0  0  0  0  0  0  0  0  0
    7.0447   -0.6846    2.7243 N   0  0  0  0  0  0  0  0  0  0  0  0
    6.5397   -0.0528    3.8016 C   0  0  0  0  0  0  0  0  0  0  0  0
    5.2294    0.3572    3.8949 C   0  0  0  0  0  0  0  0  0  0  0  0
    4.3878    0.1005    2.8158 C   0  0  0  0  0  0  0  0  0  0  0  0
    4.8604   -0.5654    1.6548 C   0  0  0  0  0  0  0  0  0  0  0  0
   -2.3310    1.3404   -1.0989 C   0  0  0  0  0  0  0  0  0  0  0  0
   -3.6750    1.7095   -1.0068 C   0  0  0  0  0  0  0  0  0  0  0  0
   -4.1297    3.0034   -0.9927 O   0  0  0  0  0  0  0  0  0  0  0  0
   -3.1702    4.0309   -0.7714 C   0  0  0  0  0  0  0  0  0  0  0  0
   -4.6543    0.7014   -0.9491 C   0  0  0  0  0  0  0  0  0  0  0  0
   -5.9796    1.0556   -0.8175 O   0  0  0  0  0  0  0  0  0  0  0  0
   -6.5788    1.1755   -2.1069 C   0  0  0  0  0  0  0  0  0  0  0  0
   -4.4169   -3.0239    0.3003 H   0  0  0  0  0  0  0  0  0  0  0  0
   -4.4969   -3.3548   -1.4746 H   0  0  0  0  0  0  0  0  0  0  0  0
   -5.9463   -3.4658   -0.4691 H   0  0  0  0  0  0  0  0  0  0  0  0
   -2.6478   -2.0500   -1.0402 H   0  0  0  0  0  0  0  0  0  0  0  0
   -0.3184   -0.9619   -2.1159 H   0  0  0  0  0  0  0  0  0  0  0  0
    2.3767   -0.0423    1.2980 H   0  0  0  0  0  0  0  0  0  0  0  0
    4.1373   -1.8148   -1.4769 H   0  0  0  0  0  0  0  0  0  0  0  0
    6.4849   -2.4152   -1.3649 H   0  0  0  0  0  0  0  0  0  0  0  0
    7.8308   -1.8664    0.6286 H   0  0  0  0  0  0  0  0  0  0  0  0
    7.2432    0.1187    4.6122 H   0  0  0  0  0  0  0  0  0  0  0  0
    4.8667    0.8635    4.7832 H   0  0  0  0  0  0  0  0  0  0  0  0
    3.3597    0.4331    2.9123 H   0  0  0  0  0  0  0  0  0  0  0  0
   -1.5541    2.0941   -1.1827 H   0  0  0  0  0  0  0  0  0  0  0  0
   -2.5070    4.1384   -1.6372 H   0  0  0  0  0  0  0  0  0  0  0  0
   -3.7110    4.9746   -0.6500 H   0  0  0  0  0  0  0  0  0  0  0  0
   -2.5986    3.8545    0.1472 H   0  0  0  0  0  0  0  0  0  0  0  0
   -6.5292    0.2323   -2.6631 H   0  0  0  0  0  0  0  0  0  0  0  0
   -7.6343    1.4253   -1.9627 H   0  0  0  0  0  0  0  0  0  0  0  0
   -6.1169    1.9818   -2.6875 H   0  0  0  0  0  0  0  0  0  0  0  0
  1  2  1  0
  2  3  1  0
  3  4  2  0
  4  5  1  0
  5  6  1  0
  6  7  2  3
  7  8  1  0
  8  9  3  0
  7 10  1  0
 10 11  2  0
 10 12  1  0
 12 13  1  0
 13 14  2  0
 14 15  1  0
 15 16  2  0
 16 17  1  0
 17 18  2  0
 18 19  1  0
 19 20  2  0
 20 21  1  0
 21 22  2  0
  5 23  2  0
 23 24  1  0
 24 25  1  0
 25 26  1  0
 24 27  2  0
 27 28  1  0
 28 29  1  0
 27  3  1  0
 22 13  1  0
 22 17  1  0
  1 30  1  0
  1 31  1  0
  1 32  1  0
  4 33  1  0
  6 34  1  0
 12 35  1  0
 14 36  1  0
 15 37  1  0
 16 38  1  0
 19 39  1  0
 20 40  1  0
 21 41  1  0
 23 42  1  0
 26 43  1  0
 26 44  1  0
 26 45  1  0
 29 46  1  0
 29 47  1  0
 29 48  1  0
M  END
$$$$
