
     RDKit          3D

 53 56  0  0  0  0  0  0  0  0999 V2000
    9.2398   -1.0895    1.4001 C   0  0  0  0  0  0  0  0  0  0  0  0
    8.2026   -1.8317    0.7706 O   0  0  0  0  0  0  0  0  0  0  0  0
    7.0721   -1.1430    0.4306 C   0  0  0  0  0  0  0  0  0  0  0  0
    6.0786   -1.9117   -0.1754 C   0  0  0  0  0  0  0  0  0  0  0  0
    4.8691   -1.3310   -0.5696 C   0  0  0  0  0  0  0  0  0  0  0  0
    4.6334    0.0317   -0.3608 C   0  0  0  0  0  0  0  0  0  0  0  0
    3.3885    0.5403   -0.7784 N   0  0  0  0  0  0  0  0  0  0  0  0
    2.8917    1.8240   -0.6091 C   0  0  0  0  0  0  0  0  0  0  0  0
    3.4763    2.7627   -0.0751 O   0  0  0  0  0  0  0  0  0  0  0  0
    1.5109    2.0161   -1.2202 C   0  0  0  0  0  0  0  0  0  0  0  0
    0.3331    0.8186   -0.5172 S   0  0  0  0  0  0  0  0  0  0  0  0
   -1.1013    1.2339   -1.4014 C   0  0  0  0  0  0  0  0  0  0  0  0
   -1.1198    2.0546   -2.4253 N   0  0  0  0  0  0  0  0  0  0  0  0
   -2.3834    2.0514   -2.9437 N   0  0  0  0  0  0  0  0  0  0  0  0
   -3.1289    1.2368   -2.2197 C   0  0  0  0  0  0  0  0  0  0  0  0
   -4.6126    1.1077   -2.3609 C   0  0  0  0  0  0  0  0  0  0  0  0
   -5.3729    1.6697   -1.1896 C   0  0  0  0  0  0  0  0  0  0  0  0
   -6.0615    0.9887   -0.2030 C   0  0  0  0  0  0  0  0  0  0  0  0
   -6.6601    1.8654    0.7475 C   0  0  0  0  0  0  0  0  0  0  0  0
   -6.4216    3.1879    0.4496 C   0  0  0  0  0  0  0  0  0  0  0  0
   -5.4798    3.3683   -0.9640 S   0  0  0  0  0  0  0  0  0  0  0  0
   -2.3407    0.6364   -1.2430 N   0  0  0  0  0  0  0  0  0  0  0  0
   -2.7258   -0.3678   -0.3191 C   0  0  0  0  0  0  0  0  0  0  0  0
   -2.4022   -0.2410    1.0355 C   0  0  0  0  0  0  0  0  0  0  0  0
   -2.7881   -1.2340    1.9394 C   0  0  0  0  0  0  0  0  0  0  0  0
   -3.4824   -2.3674    1.5000 C   0  0  0  0  0  0  0  0  0  0  0  0
   -3.9180   -3.4176    2.4793 C   0  0  0  0  0  0  0  0  0  0  0  0
   -3.8096   -2.4828    0.1441 C   0  0  0  0  0  0  0  0  0  0  0  0
   -3.4313   -1.4915   -0.7651 C   0  0  0  0  0  0  0  0  0  0  0  0
    5.6301    0.7994    0.2420 C   0  0  0  0  0  0  0  0  0  0  0  0
    6.8435    0.2160    0.6354 C   0  0  0  0  0  0  0  0  0  0  0  0
    9.6257   -0.3102    0.7351 H   0  0  0  0  0  0  0  0  0  0  0  0
    8.9021   -0.6667    2.3520 H   0  0  0  0  0  0  0  0  0  0  0  0
   10.0609   -1.7798    1.6159 H   0  0  0  0  0  0  0  0  0  0  0  0
    6.2451   -2.9732   -0.3383 H   0  0  0  0  0  0  0  0  0  0  0  0
    4.1188   -1.9643   -1.0337 H   0  0  0  0  0  0  0  0  0  0  0  0
    2.7473   -0.1299   -1.1885 H   0  0  0  0  0  0  0  0  0  0  0  0
    1.5934    1.8924   -2.3055 H   0  0  0  0  0  0  0  0  0  0  0  0
    1.1696    3.0341   -1.0034 H   0  0  0  0  0  0  0  0  0  0  0  0
   -4.8975    0.0657   -2.5328 H   0  0  0  0  0  0  0  0  0  0  0  0
   -4.9239    1.6394   -3.2702 H   0  0  0  0  0  0  0  0  0  0  0  0
   -6.1338   -0.0913   -0.1577 H   0  0  0  0  0  0  0  0  0  0  0  0
   -7.2405    1.5421    1.6028 H   0  0  0  0  0  0  0  0  0  0  0  0
   -6.7570    4.0609    0.9935 H   0  0  0  0  0  0  0  0  0  0  0  0
   -1.8891    0.6375    1.4208 H   0  0  0  0  0  0  0  0  0  0  0  0
   -2.5439   -1.1145    2.9937 H   0  0  0  0  0  0  0  0  0  0  0  0
   -4.9152   -3.1803    2.8624 H   0  0  0  0  0  0  0  0  0  0  0  0
   -3.2211   -3.4788    3.3221 H   0  0  0  0  0  0  0  0  0  0  0  0
   -3.9440   -4.4051    2.0068 H   0  0  0  0  0  0  0  0  0  0  0  0
   -4.3519   -3.3558   -0.2143 H   0  0  0  0  0  0  0  0  0  0  0  0
   -3.6587   -1.6431   -1.8173 H   0  0  0  0  0  0  0  0  0  0  0  0
    5.5000    1.8619    0.4232 H   0  0  0  0  0  0  0  0  0  0  0  0
    7.5837    0.8587    1.1008 H   0  0  0  0  0  0  0  0  0  0  0  0
  1  2  1  0
  2  3  1  0
  3  4  2  0
  4  5  1  0
  5  6  2  0
  6  7  1  0
  7  8  1  0
  8  9  2  0
  8 10  1  0
 10 11  1  0
 11 12  1  0
 12 13  2  0
 13 14  1  0
 14 15  2  0
 15 16  1  0
 16 17  1  0
 17 18  2  0
 18 19  1  0
 19 20  2  0
 20 21  1  0
 15 22  1  0
 22 23  1  0
 23 24  2  0
 24 25  1  0
 25 26  2  0
 26 27  1  0
 26 28  1  0
 28 29  2  0
  6 30  1  0
 30 31  2  0
 31  3  1  0
 22 12  1  0
 29 23  1  0
 21 17  1  0
  1 32  1  0
  1 33  1  0
  1 34  1  0
  4 35  1  0
  5 36  1  0
  7 37  1  0
 10 38  1  0
 10 39  1  0
 16 40  1  0
 16 41  1  0
 18 42  1  0
 19 43  1  0
 20 44  1  0
 24 45  1  0
 25 46  1  0
 27 47  1  0
 27 48  1  0
 27 49  1  0
 28 50  1  0
 29 51  1  0
 30 52  1  0
 31 53  1  0
M  END
$$$$
