
     RDKit          3D

 44 47  0  0  0  0  0  0  0  0999 V2000
   -5.3388   -3.0218    1.3196 C   0  0  0  0  0  0  0  0  0  0  0  0
   -4.3746   -2.0809    0.6179 C   0  0  0  0  0  0  0  0  0  0  0  0
   -4.5380   -0.7798    1.1960 O   0  0  0  0  0  0  0  0  0  0  0  0
   -3.3911   -0.0340    1.1392 C   0  0  0  0  0  0  0  0  0  0  0  0
   -2.9306    0.4750    2.3533 C   0  0  0  0  0  0  0  0  0  0  0  0
   -1.7583    1.2344    2.3978 C   0  0  0  0  0  0  0  0  0  0  0  0
   -1.0368    1.4907    1.2257 C   0  0  0  0  0  0  0  0  0  0  0  0
    0.1790    2.3054    1.2986 C   0  0  0  0  0  0  0  0  0  0  0  0
    1.4245    1.9069    0.9985 C   0  0  0  0  0  0  0  0  0  0  0  0
    2.7946    3.0139    1.1304 S   0  0  0  0  0  0  0  0  0  0  0  0
    3.8448    1.7713    0.5961 C   0  0  0  0  0  0  0  0  0  0  0  0
    5.1221    1.6776    0.3654 N   0  0  0  0  0  0  0  0  0  0  0  0
    5.2278    0.3571   -0.0514 C   0  0  0  0  0  0  0  0  0  0  0  0
    6.5964   -0.2714   -0.4719 C   0  0  0  0  0  0  0  0  0  0  0  0
    7.8125    0.3852   -0.4694 C   0  0  0  0  0  0  0  0  0  0  0  0
    8.7795   -0.5450   -0.9223 C   0  0  0  0  0  0  0  0  0  0  0  0
    8.0960   -1.7103   -1.1755 C   0  0  0  0  0  0  0  0  0  0  0  0
    6.7748   -1.5558   -0.9047 O   0  0  0  0  0  0  0  0  0  0  0  0
    4.0697   -0.3331   -0.0720 N   0  0  0  0  0  0  0  0  0  0  0  0
    3.2102    0.6093    0.3493 N   0  0  0  0  0  0  0  0  0  0  0  0
    1.8461    0.5397    0.5423 C   0  0  0  0  0  0  0  0  0  0  0  0
    1.1956   -0.4704    0.3567 O   0  0  0  0  0  0  0  0  0  0  0  0
   -1.5230    1.0138    0.0033 C   0  0  0  0  0  0  0  0  0  0  0  0
   -2.7092    0.2761   -0.0413 C   0  0  0  0  0  0  0  0  0  0  0  0
   -3.1356   -0.1479   -1.2723 O   0  0  0  0  0  0  0  0  0  0  0  0
   -4.2138    0.6737   -1.7366 C   0  0  0  0  0  0  0  0  0  0  0  0
   -4.5893    0.2030   -3.1299 C   0  0  0  0  0  0  0  0  0  0  0  0
   -5.2643   -4.0340    0.9119 H   0  0  0  0  0  0  0  0  0  0  0  0
   -6.3697   -2.6705    1.2078 H   0  0  0  0  0  0  0  0  0  0  0  0
   -5.1285   -3.0553    2.3941 H   0  0  0  0  0  0  0  0  0  0  0  0
   -3.3516   -2.4581    0.7428 H   0  0  0  0  0  0  0  0  0  0  0  0
   -4.6245   -2.0446   -0.4471 H   0  0  0  0  0  0  0  0  0  0  0  0
   -3.4774    0.2651    3.2685 H   0  0  0  0  0  0  0  0  0  0  0  0
   -1.4117    1.6104    3.3578 H   0  0  0  0  0  0  0  0  0  0  0  0
    0.0026    3.3220    1.6473 H   0  0  0  0  0  0  0  0  0  0  0  0
    7.9725    1.4130   -0.1742 H   0  0  0  0  0  0  0  0  0  0  0  0
    9.8409   -0.3855   -1.0510 H   0  0  0  0  0  0  0  0  0  0  0  0
    8.3860   -2.6879   -1.5343 H   0  0  0  0  0  0  0  0  0  0  0  0
   -0.9912    1.2076   -0.9235 H   0  0  0  0  0  0  0  0  0  0  0  0
   -5.0852    0.5852   -1.0779 H   0  0  0  0  0  0  0  0  0  0  0  0
   -3.8991    1.7235   -1.7814 H   0  0  0  0  0  0  0  0  0  0  0  0
   -4.9158   -0.8421   -3.1075 H   0  0  0  0  0  0  0  0  0  0  0  0
   -3.7236    0.2523   -3.7991 H   0  0  0  0  0  0  0  0  0  0  0  0
   -5.3939    0.8161   -3.5465 H   0  0  0  0  0  0  0  0  0  0  0  0
  1  2  1  0
  2  3  1  0
  3  4  1  0
  4  5  2  0
  5  6  1  0
  6  7  2  0
  7  8  1  0
  8  9  2  3
  9 10  1  0
 10 11  1  0
 11 12  2  0
 12 13  1  0
 13 14  1  0
 14 15  2  0
 15 16  1  0
 16 17  2  0
 17 18  1  0
 13 19  2  0
 19 20  1  0
 20 21  1  0
 21 22  2  0
  7 23  1  0
 23 24  2  0
 24 25  1  0
 25 26  1  0
 26 27  1  0
 24  4  1  0
 21  9  1  0
 20 11  1  0
 18 14  1  0
  1 28  1  0
  1 29  1  0
  1 30  1  0
  2 31  1  0
  2 32  1  0
  5 33  1  0
  6 34  1  0
  8 35  1  0
 15 36  1  0
 16 37  1  0
 17 38  1  0
 23 39  1  0
 26 40  1  0
 26 41  1  0
 27 42  1  0
 27 43  1  0
 27 44  1  0
M  END
$$$$
