
     RDKit          3D

 60 63  0  0  0  0  0  0  0  0999 V2000
    7.7314   -2.5191   -1.9723 C   0  0  0  0  0  0  0  0  0  0  0  0
    8.1192   -2.6576   -0.5113 C   0  0  0  0  0  0  0  0  0  0  0  0
    8.1759   -1.3783    0.1173 O   0  0  0  0  0  0  0  0  0  0  0  0
    7.0571   -0.9031    0.7420 C   0  0  0  0  0  0  0  0  0  0  0  0
    5.7786   -1.4558    0.6849 C   0  0  0  0  0  0  0  0  0  0  0  0
    4.7209   -0.8579    1.3804 C   0  0  0  0  0  0  0  0  0  0  0  0
    4.9254    0.3006    2.1429 C   0  0  0  0  0  0  0  0  0  0  0  0
    3.7736    0.9415    2.8734 C   0  0  0  0  0  0  0  0  0  0  0  0
    3.0030    1.7796    1.9831 N   0  0  0  0  0  0  0  0  0  0  0  0
    1.8444    1.3251    1.3770 C   0  0  0  0  0  0  0  0  0  0  0  0
    1.3618    0.2198    1.6101 O   0  0  0  0  0  0  0  0  0  0  0  0
    1.2467    2.3353    0.3935 C   0  0  0  0  0  0  0  0  0  0  0  0
   -0.0033    1.8489   -0.1657 N   0  0  0  0  0  0  0  0  0  0  0  0
    0.0833    1.1804   -1.3934 N   0  0  0  0  0  0  0  0  0  0  0  0
   -0.9707    0.6306   -1.9297 C   0  0  0  0  0  0  0  0  0  0  0  0
   -0.8108   -0.0897   -3.2385 C   0  0  0  0  0  0  0  0  0  0  0  0
   -2.2448    0.7353   -1.2606 C   0  0  0  0  0  0  0  0  0  0  0  0
   -3.5355    0.3451   -1.5777 C   0  0  0  0  0  0  0  0  0  0  0  0
   -4.0769   -0.2235   -2.8389 C   0  0  0  0  0  0  0  0  0  0  0  0
   -4.3034    0.6554   -0.4479 N   0  0  0  0  0  0  0  0  0  0  0  0
   -5.6413    0.2864   -0.1038 C   0  0  0  0  0  0  0  0  0  0  0  0
   -6.3028    0.9994    0.9094 C   0  0  0  0  0  0  0  0  0  0  0  0
   -7.6097    0.6678    1.2794 C   0  0  0  0  0  0  0  0  0  0  0  0
   -8.2782   -0.3870    0.6516 C   0  0  0  0  0  0  0  0  0  0  0  0
   -9.6652   -0.7656    1.0792 C   0  0  0  0  0  0  0  0  0  0  0  0
   -7.6065   -1.1246   -0.3282 C   0  0  0  0  0  0  0  0  0  0  0  0
   -6.2982   -0.7935   -0.7037 C   0  0  0  0  0  0  0  0  0  0  0  0
   -3.5984    1.4344    0.4177 N   0  0  0  0  0  0  0  0  0  0  0  0
   -2.3426    1.4041   -0.0350 C   0  0  0  0  0  0  0  0  0  0  0  0
   -1.1783    2.0132    0.5946 C   0  0  0  0  0  0  0  0  0  0  0  0
   -1.2137    2.6223    1.6630 O   0  0  0  0  0  0  0  0  0  0  0  0
    6.2064    0.8634    2.1808 C   0  0  0  0  0  0  0  0  0  0  0  0
    7.2602    0.2626    1.4860 C   0  0  0  0  0  0  0  0  0  0  0  0
    6.7292   -2.0949   -2.0816 H   0  0  0  0  0  0  0  0  0  0  0  0
    7.7545   -3.4911   -2.4727 H   0  0  0  0  0  0  0  0  0  0  0  0
    8.4204   -1.8415   -2.4888 H   0  0  0  0  0  0  0  0  0  0  0  0
    9.1319   -3.0713   -0.4613 H   0  0  0  0  0  0  0  0  0  0  0  0
    7.4795   -3.3666    0.0257 H   0  0  0  0  0  0  0  0  0  0  0  0
    5.5604   -2.3449    0.1035 H   0  0  0  0  0  0  0  0  0  0  0  0
    3.7260   -1.3008    1.3222 H   0  0  0  0  0  0  0  0  0  0  0  0
    4.1440    1.5818    3.6821 H   0  0  0  0  0  0  0  0  0  0  0  0
    3.1399    0.1748    3.3333 H   0  0  0  0  0  0  0  0  0  0  0  0
    3.4465    2.6178    1.6342 H   0  0  0  0  0  0  0  0  0  0  0  0
    1.0729    3.2812    0.9192 H   0  0  0  0  0  0  0  0  0  0  0  0
    1.9607    2.5082   -0.4199 H   0  0  0  0  0  0  0  0  0  0  0  0
   -1.2498    0.5093   -4.0407 H   0  0  0  0  0  0  0  0  0  0  0  0
   -1.3004   -1.0661   -3.1961 H   0  0  0  0  0  0  0  0  0  0  0  0
    0.2498   -0.2425   -3.4611 H   0  0  0  0  0  0  0  0  0  0  0  0
   -5.1127    0.0805   -3.0158 H   0  0  0  0  0  0  0  0  0  0  0  0
   -4.0109   -1.3152   -2.8326 H   0  0  0  0  0  0  0  0  0  0  0  0
   -3.5149    0.1415   -3.7033 H   0  0  0  0  0  0  0  0  0  0  0  0
   -5.8143    1.8284    1.4206 H   0  0  0  0  0  0  0  0  0  0  0  0
   -8.0971    1.2390    2.0666 H   0  0  0  0  0  0  0  0  0  0  0  0
   -9.6197   -1.4304    1.9475 H   0  0  0  0  0  0  0  0  0  0  0  0
  -10.2474    0.1249    1.3419 H   0  0  0  0  0  0  0  0  0  0  0  0
  -10.2002   -1.2772    0.2709 H   0  0  0  0  0  0  0  0  0  0  0  0
   -8.0930   -1.9768   -0.7990 H   0  0  0  0  0  0  0  0  0  0  0  0
   -5.8144   -1.4369   -1.4285 H   0  0  0  0  0  0  0  0  0  0  0  0
    6.3983    1.7680    2.7531 H   0  0  0  0  0  0  0  0  0  0  0  0
    8.2533    0.7051    1.5273 H   0  0  0  0  0  0  0  0  0  0  0  0
  1  2  1  0
  2  3  1  0
  3  4  1  0
  4  5  2  0
  5  6  1  0
  6  7  2  0
  7  8  1  0
  8  9  1  0
  9 10  1  0
 10 11  2  0
 10 12  1  0
 12 13  1  0
 13 14  1  0
 14 15  2  0
 15 16  1  0
 15 17  1  0
 17 18  2  0
 18 19  1  0
 18 20  1  0
 20 21  1  0
 21 22  2  0
 22 23  1  0
 23 24  2  0
 24 25  1  0
 24 26  1  0
 26 27  2  0
 20 28  1  0
 28 29  2  0
 29 30  1  0
 30 31  2  0
  7 32  1  0
 32 33  2  0
 33  4  1  0
 30 13  1  0
 29 17  1  0
 27 21  1  0
  1 34  1  0
  1 35  1  0
  1 36  1  0
  2 37  1  0
  2 38  1  0
  5 39  1  0
  6 40  1  0
  8 41  1  0
  8 42  1  0
  9 43  1  0
 12 44  1  0
 12 45  1  0
 16 46  1  0
 16 47  1  0
 16 48  1  0
 19 49  1  0
 19 50  1  0
 19 51  1  0
 22 52  1  0
 23 53  1  0
 25 54  1  0
 25 55  1  0
 25 56  1  0
 26 57  1  0
 27 58  1  0
 32 59  1  0
 33 60  1  0
M  END
$$$$
