
     RDKit          3D

 56 59  0  0  0  0  0  0  0  0999 V2000
   -5.9120    4.5730   -0.0590 C   0  0  0  0  0  0  0  0  0  0  0  0
   -5.6819    3.0747    0.0291 C   0  0  0  0  0  0  0  0  0  0  0  0
   -4.2376    2.7304    1.0909 S   0  0  0  0  0  0  0  0  0  0  0  0
   -4.0376    0.9772    0.8131 C   0  0  0  0  0  0  0  0  0  0  0  0
   -5.0955    0.0863    0.9249 C   0  0  0  0  0  0  0  0  0  0  0  0
   -4.8787   -1.2681    0.6895 C   0  0  0  0  0  0  0  0  0  0  0  0
   -3.6011   -1.7541    0.3529 C   0  0  0  0  0  0  0  0  0  0  0  0
   -2.4964   -0.8854    0.2662 C   0  0  0  0  0  0  0  0  0  0  0  0
   -2.7599    0.4856    0.5016 C   0  0  0  0  0  0  0  0  0  0  0  0
   -1.1938   -1.3611   -0.0679 N   0  0  0  0  0  0  0  0  0  0  0  0
   -0.0487   -0.4686    0.2436 C   0  0  0  0  0  0  0  0  0  0  0  0
    0.3204    0.4171   -0.9568 C   0  0  0  0  0  0  0  0  0  0  0  0
    1.3399    1.4987   -0.5804 C   0  0  0  0  0  0  0  0  0  0  0  0
    2.5969    0.9570   -0.0442 N   0  0  0  0  0  0  0  0  0  0  0  0
    3.4342    0.3491   -1.1026 C   0  0  0  0  0  0  0  0  0  0  0  0
    4.7932   -0.1557   -0.5619 C   0  0  0  0  0  0  0  0  0  0  0  0
    5.5610    0.9138    0.1024 N   0  0  0  0  0  0  0  0  0  0  0  0
    6.8058    0.3890    0.6583 C   0  0  0  0  0  0  0  0  0  0  0  0
    4.7317    1.5218    1.1599 C   0  0  0  0  0  0  0  0  0  0  0  0
    3.3774    2.0290    0.6149 C   0  0  0  0  0  0  0  0  0  0  0  0
   -0.8874   -2.6726   -0.5347 C   0  0  0  0  0  0  0  0  0  0  0  0
    0.3846   -3.0100   -1.0513 C   0  0  0  0  0  0  0  0  0  0  0  0
    0.6918   -4.2900   -1.5288 C   0  0  0  0  0  0  0  0  0  0  0  0
   -0.2704   -5.2848   -1.5088 C   0  0  0  0  0  0  0  0  0  0  0  0
   -1.5347   -4.9917   -1.0126 C   0  0  0  0  0  0  0  0  0  0  0  0
   -1.8484   -3.7039   -0.5330 C   0  0  0  0  0  0  0  0  0  0  0  0
   -3.4979   -3.5085    0.0978 S   0  0  0  0  0  0  0  0  0  0  0  0
   -5.0522    5.0884   -0.5012 H   0  0  0  0  0  0  0  0  0  0  0  0
   -6.1142    5.0081    0.9263 H   0  0  0  0  0  0  0  0  0  0  0  0
   -6.7817    4.7774   -0.6934 H   0  0  0  0  0  0  0  0  0  0  0  0
   -5.5031    2.6705   -0.9727 H   0  0  0  0  0  0  0  0  0  0  0  0
   -6.5720    2.5935    0.4468 H   0  0  0  0  0  0  0  0  0  0  0  0
   -6.0899    0.4211    1.2021 H   0  0  0  0  0  0  0  0  0  0  0  0
   -5.7195   -1.9537    0.7769 H   0  0  0  0  0  0  0  0  0  0  0  0
   -1.9663    1.2217    0.4265 H   0  0  0  0  0  0  0  0  0  0  0  0
    0.8200   -1.0486    0.5803 H   0  0  0  0  0  0  0  0  0  0  0  0
   -0.2690    0.1504    1.1234 H   0  0  0  0  0  0  0  0  0  0  0  0
    0.6938   -0.1890   -1.7885 H   0  0  0  0  0  0  0  0  0  0  0  0
   -0.5732    0.9169   -1.3490 H   0  0  0  0  0  0  0  0  0  0  0  0
    0.8659    2.1366    0.1775 H   0  0  0  0  0  0  0  0  0  0  0  0
    1.5296    2.1421   -1.4492 H   0  0  0  0  0  0  0  0  0  0  0  0
    3.6171    1.0708   -1.9101 H   0  0  0  0  0  0  0  0  0  0  0  0
    2.9165   -0.5091   -1.5436 H   0  0  0  0  0  0  0  0  0  0  0  0
    5.3720   -0.5496   -1.4060 H   0  0  0  0  0  0  0  0  0  0  0  0
    4.6135   -0.9902    0.1294 H   0  0  0  0  0  0  0  0  0  0  0  0
    7.3828    1.1911    1.1316 H   0  0  0  0  0  0  0  0  0  0  0  0
    6.6316   -0.3955    1.4038 H   0  0  0  0  0  0  0  0  0  0  0  0
    7.4351   -0.0253   -0.1370 H   0  0  0  0  0  0  0  0  0  0  0  0
    5.2654    2.3736    1.5985 H   0  0  0  0  0  0  0  0  0  0  0  0
    4.5445    0.8014    1.9679 H   0  0  0  0  0  0  0  0  0  0  0  0
    3.5567    2.8588   -0.0826 H   0  0  0  0  0  0  0  0  0  0  0  0
    2.8028    2.4292    1.4594 H   0  0  0  0  0  0  0  0  0  0  0  0
    1.1830   -2.2787   -1.1124 H   0  0  0  0  0  0  0  0  0  0  0  0
    1.6846   -4.4989   -1.9182 H   0  0  0  0  0  0  0  0  0  0  0  0
   -0.0430   -6.2813   -1.8759 H   0  0  0  0  0  0  0  0  0  0  0  0
   -2.2853   -5.7798   -0.9978 H   0  0  0  0  0  0  0  0  0  0  0  0
  1  2  1  0
  2  3  1  0
  3  4  1  0
  4  5  2  0
  5  6  1  0
  6  7  2  0
  7  8  1  0
  8  9  2  0
  8 10  1  0
 10 11  1  0
 11 12  1  0
 12 13  1  0
 13 14  1  0
 14 15  1  0
 15 16  1  0
 16 17  1  0
 17 18  1  0
 17 19  1  0
 19 20  1  0
 10 21  1  0
 21 22  2  0
 22 23  1  0
 23 24  2  0
 24 25  1  0
 25 26  2  0
 26 27  1  0
  9  4  1  0
 20 14  1  0
 26 21  1  0
 27  7  1  0
  1 28  1  0
  1 29  1  0
  1 30  1  0
  2 31  1  0
  2 32  1  0
  5 33  1  0
  6 34  1  0
  9 35  1  0
 11 36  1  0
 11 37  1  0
 12 38  1  0
 12 39  1  0
 13 40  1  0
 13 41  1  0
 15 42  1  0
 15 43  1  0
 16 44  1  0
 16 45  1  0
 18 46  1  0
 18 47  1  0
 18 48  1  0
 19 49  1  0
 19 50  1  0
 20 51  1  0
 20 52  1  0
 22 53  1  0
 23 54  1  0
 24 55  1  0
 25 56  1  0
M  END
$$$$
