
     RDKit          3D

 29 29  0  0  0  0  0  0  0  0999 V2000
   -2.2152   -3.9918   -0.6838 C   0  0  0  0  0  0  0  0  0  0  0  0
   -2.3768   -2.8887   -0.2365 C   0  0  0  0  0  0  0  0  0  0  0  0
   -2.5708   -1.5375    0.3080 C   0  0  0  0  0  0  0  0  0  0  0  0
   -2.4401   -0.5579   -0.7657 N   0  0  0  0  0  0  0  0  0  0  0  0
   -2.7592    0.8013   -0.3460 C   0  0  0  0  0  0  0  0  0  0  0  0
   -1.8102    1.4360    0.6799 C   0  0  0  0  0  0  0  0  0  0  0  0
   -0.3548    1.5201    0.2171 C   0  0  0  0  0  0  0  0  0  0  0  0
    0.3047    0.2753    0.4837 O   0  0  0  0  0  0  0  0  0  0  0  0
    1.6245    0.3403    0.1223 C   0  0  0  0  0  0  0  0  0  0  0  0
    2.5460    0.7538    1.0877 C   0  0  0  0  0  0  0  0  0  0  0  0
    3.9053    0.7968    0.7761 C   0  0  0  0  0  0  0  0  0  0  0  0
    4.3366    0.4105   -0.4931 C   0  0  0  0  0  0  0  0  0  0  0  0
    6.0140    0.4651   -0.8738 Cl  0  0  0  0  0  0  0  0  0  0  0  0
    3.4245   -0.0255   -1.4530 C   0  0  0  0  0  0  0  0  0  0  0  0
    2.0644   -0.0692   -1.1417 C   0  0  0  0  0  0  0  0  0  0  0  0
    0.9671   -0.6353   -2.3459 Cl  0  0  0  0  0  0  0  0  0  0  0  0
   -2.0607   -4.9657   -1.0868 H   0  0  0  0  0  0  0  0  0  0  0  0
   -1.8278   -1.3617    1.0922 H   0  0  0  0  0  0  0  0  0  0  0  0
   -3.5652   -1.4755    0.7653 H   0  0  0  0  0  0  0  0  0  0  0  0
   -3.0569   -0.8332   -1.5288 H   0  0  0  0  0  0  0  0  0  0  0  0
   -3.7848    0.8391    0.0420 H   0  0  0  0  0  0  0  0  0  0  0  0
   -2.7553    1.4317   -1.2438 H   0  0  0  0  0  0  0  0  0  0  0  0
   -2.1700    2.4567    0.8607 H   0  0  0  0  0  0  0  0  0  0  0  0
   -1.8738    0.9016    1.6347 H   0  0  0  0  0  0  0  0  0  0  0  0
    0.1394    2.3152    0.7905 H   0  0  0  0  0  0  0  0  0  0  0  0
   -0.3015    1.7757   -0.8482 H   0  0  0  0  0  0  0  0  0  0  0  0
    2.2050    1.0356    2.0802 H   0  0  0  0  0  0  0  0  0  0  0  0
    4.6210    1.1234    1.5262 H   0  0  0  0  0  0  0  0  0  0  0  0
    3.7706   -0.3363   -2.4348 H   0  0  0  0  0  0  0  0  0  0  0  0
  1  2  3  0
  2  3  1  0
  3  4  1  0
  4  5  1  0
  5  6  1  0
  6  7  1  0
  7  8  1  0
  8  9  1  0
  9 10  2  0
 10 11  1  0
 11 12  2  0
 12 13  1  0
 12 14  1  0
 14 15  2  0
 15 16  1  0
 15  9  1  0
  1 17  1  0
  3 18  1  0
  3 19  1  0
  4 20  1  0
  5 21  1  0
  5 22  1  0
  6 23  1  0
  6 24  1  0
  7 25  1  0
  7 26  1  0
 10 27  1  0
 11 28  1  0
 14 29  1  0
M  END
$$$$
