
     RDKit          3D

 38 39  0  0  0  0  0  0  0  0999 V2000
    4.6527    2.3235   -0.9782 C   0  0  0  0  0  0  0  0  0  0  0  0
    4.2138    0.9195   -0.7949 C   0  0  0  0  0  0  0  0  0  0  0  0
    4.5374   -0.2046   -1.5848 C   0  0  0  0  0  0  0  0  0  0  0  0
    3.8820   -1.2683   -1.0015 C   0  0  0  0  0  0  0  0  0  0  0  0
    3.8335   -2.6987   -1.3901 C   0  0  0  0  0  0  0  0  0  0  0  0
    3.2294   -0.7436    0.0833 N   0  0  0  0  0  0  0  0  0  0  0  0
    2.3850   -1.4241    1.0477 C   0  0  0  0  0  0  0  0  0  0  0  0
    0.9097   -1.1616    0.8283 C   0  0  0  0  0  0  0  0  0  0  0  0
    0.0814   -2.0458    1.0544 O   0  0  0  0  0  0  0  0  0  0  0  0
    0.6027    0.1439    0.4495 N   0  0  0  0  0  0  0  0  0  0  0  0
   -0.6533    0.6883    0.3873 N   0  0  0  0  0  0  0  0  0  0  0  0
   -1.6310   -0.0722    0.0031 C   0  0  0  0  0  0  0  0  0  0  0  0
   -3.0199    0.4362   -0.0313 C   0  0  0  0  0  0  0  0  0  0  0  0
   -4.0260   -0.4353   -0.4628 C   0  0  0  0  0  0  0  0  0  0  0  0
   -5.3531    0.0181   -0.5061 C   0  0  0  0  0  0  0  0  0  0  0  0
   -6.4144   -0.8893   -0.9613 N   0  0  0  0  0  4  0  0  0  0  0  0
   -6.0783   -2.0189   -1.3437 O   0  0  0  0  0  0  0  0  0  0  0  0
   -7.5803   -0.4716   -0.9385 O   0  0  0  0  0  1  0  0  0  0  0  0
   -5.6783    1.3268   -0.1225 C   0  0  0  0  0  0  0  0  0  0  0  0
   -4.6672    2.1877    0.3077 C   0  0  0  0  0  0  0  0  0  0  0  0
   -3.3464    1.7440    0.3530 C   0  0  0  0  0  0  0  0  0  0  0  0
   -2.4180    2.6493    0.7867 O   0  0  0  0  0  0  0  0  0  0  0  0
    3.4027    0.5909    0.2175 N   0  0  0  0  0  0  0  0  0  0  0  0
    5.3098    2.4214   -1.8482 H   0  0  0  0  0  0  0  0  0  0  0  0
    5.2021    2.6720   -0.0977 H   0  0  0  0  0  0  0  0  0  0  0  0
    3.7890    2.9787   -1.1303 H   0  0  0  0  0  0  0  0  0  0  0  0
    5.1638   -0.2341   -2.4661 H   0  0  0  0  0  0  0  0  0  0  0  0
    2.7991   -3.0299   -1.5259 H   0  0  0  0  0  0  0  0  0  0  0  0
    4.3646   -2.8650   -2.3331 H   0  0  0  0  0  0  0  0  0  0  0  0
    4.3048   -3.3230   -0.6245 H   0  0  0  0  0  0  0  0  0  0  0  0
    2.5770   -2.4986    0.9799 H   0  0  0  0  0  0  0  0  0  0  0  0
    2.6705   -1.0809    2.0476 H   0  0  0  0  0  0  0  0  0  0  0  0
    1.3677    0.8289    0.4868 H   0  0  0  0  0  0  0  0  0  0  0  0
   -1.4851   -1.1094   -0.3433 H   0  0  0  0  0  0  0  0  0  0  0  0
   -3.7763   -1.4528   -0.7570 H   0  0  0  0  0  0  0  0  0  0  0  0
   -6.7041    1.6894   -0.1518 H   0  0  0  0  0  0  0  0  0  0  0  0
   -4.9056    3.2054    0.6091 H   0  0  0  0  0  0  0  0  0  0  0  0
   -1.5413    2.2038    0.7779 H   0  0  0  0  0  0  0  0  0  0  0  0
  1  2  1  0
  2  3  1  0
  3  4  2  0
  4  5  1  0
  4  6  1  0
  6  7  1  0
  7  8  1  0
  8  9  2  0
  8 10  1  0
 10 11  1  0
 11 12  2  3
 12 13  1  0
 13 14  2  0
 14 15  1  0
 15 16  1  0
 16 17  2  0
 16 18  1  0
 15 19  2  0
 19 20  1  0
 20 21  2  0
 21 22  1  0
  6 23  1  0
 23  2  2  0
 21 13  1  0
  1 24  1  0
  1 25  1  0
  1 26  1  0
  3 27  1  0
  5 28  1  0
  5 29  1  0
  5 30  1  0
  7 31  1  0
  7 32  1  0
 10 33  1  0
 12 34  1  0
 14 35  1  0
 19 36  1  0
 20 37  1  0
 22 38  1  0
M  CHG  2  16   1  18  -1
M  END
$$$$
