
     RDKit          3D

 49 52  0  0  0  0  0  0  0  0999 V2000
   -0.4003    3.1772    2.3324 O   0  0  0  0  0  0  0  0  0  0  0  0
   -1.1165    2.7559    1.4430 C   0  0  0  0  0  0  0  0  0  0  0  0
   -1.2410    3.4079    0.2742 O   0  0  0  0  0  0  0  0  0  0  0  0
   -2.0099    1.5825    1.5299 C   0  0  0  0  0  0  0  0  0  0  0  0
   -2.7514    1.4971    2.7243 C   0  0  0  0  0  0  0  0  0  0  0  0
   -3.7265    0.5183    2.8842 C   0  0  0  0  0  0  0  0  0  0  0  0
   -3.9824   -0.3632    1.8414 C   0  0  0  0  0  0  0  0  0  0  0  0
   -3.2326   -0.2898    0.6565 C   0  0  0  0  0  0  0  0  0  0  0  0
   -3.5689   -1.2171   -0.4473 C   0  0  0  0  0  0  0  0  0  0  0  0
   -4.4172   -2.0918   -0.3001 O   0  0  0  0  0  0  0  0  0  0  0  0
   -2.8897   -1.0464   -1.7462 C   0  0  0  0  0  0  0  0  0  0  0  0
   -3.3089   -1.7983   -2.8522 C   0  0  0  0  0  0  0  0  0  0  0  0
   -2.6794   -1.6317   -4.0828 C   0  0  0  0  0  0  0  0  0  0  0  0
   -1.6426   -0.7110   -4.2076 C   0  0  0  0  0  0  0  0  0  0  0  0
   -1.2232    0.0314   -3.0983 C   0  0  0  0  0  0  0  0  0  0  0  0
   -1.8239   -0.1400   -1.8402 C   0  0  0  0  0  0  0  0  0  0  0  0
   -1.3992    0.5982   -0.7008 N   0  0  0  0  0  0  0  0  0  0  0  0
    0.0746    0.4742   -0.4454 C   0  0  0  0  0  0  0  0  0  0  0  0
    0.4828   -0.9159    0.0945 C   0  0  0  0  0  0  0  0  0  0  0  0
    0.2637   -0.9803    1.5150 O   0  0  0  0  0  0  0  0  0  0  0  0
    1.9626   -1.2719   -0.1803 C   0  0  0  0  0  0  0  0  0  0  0  0
    2.9021   -0.5731    0.7177 N   0  0  0  0  0  0  0  0  0  0  0  0
    3.3115    0.7525    0.2403 C   0  0  0  0  0  0  0  0  0  0  0  0
    4.5859    1.0493    1.0216 C   0  0  0  0  0  0  0  0  0  0  0  0
    5.0879   -0.3051    1.5018 C   0  0  0  0  0  0  0  0  0  0  0  0
    4.1658   -1.3139    0.8414 C   0  0  0  0  0  0  0  0  0  0  0  0
   -2.1883    0.6436    0.4884 C   0  0  0  0  0  0  0  0  0  0  0  0
   -0.6739    4.1990    0.3753 H   0  0  0  0  0  0  0  0  0  0  0  0
   -2.5799    2.2142    3.5257 H   0  0  0  0  0  0  0  0  0  0  0  0
   -4.3006    0.4586    3.8052 H   0  0  0  0  0  0  0  0  0  0  0  0
   -4.7663   -1.1108    1.9474 H   0  0  0  0  0  0  0  0  0  0  0  0
   -4.1292   -2.5061   -2.7533 H   0  0  0  0  0  0  0  0  0  0  0  0
   -3.0079   -2.2080   -4.9441 H   0  0  0  0  0  0  0  0  0  0  0  0
   -1.1660   -0.5593   -5.1732 H   0  0  0  0  0  0  0  0  0  0  0  0
   -0.4413    0.7721   -3.2420 H   0  0  0  0  0  0  0  0  0  0  0  0
    0.3978    1.2401    0.2609 H   0  0  0  0  0  0  0  0  0  0  0  0
    0.6267    0.6906   -1.3662 H   0  0  0  0  0  0  0  0  0  0  0  0
   -0.1373   -1.6985   -0.3554 H   0  0  0  0  0  0  0  0  0  0  0  0
    1.1158   -0.7056    1.9156 H   0  0  0  0  0  0  0  0  0  0  0  0
    2.0477   -2.3477    0.0284 H   0  0  0  0  0  0  0  0  0  0  0  0
    2.2166   -1.1407   -1.2392 H   0  0  0  0  0  0  0  0  0  0  0  0
    2.5602    1.5213    0.4337 H   0  0  0  0  0  0  0  0  0  0  0  0
    3.5343    0.7454   -0.8342 H   0  0  0  0  0  0  0  0  0  0  0  0
    4.3811    1.6985    1.8805 H   0  0  0  0  0  0  0  0  0  0  0  0
    5.3267    1.5507    0.3901 H   0  0  0  0  0  0  0  0  0  0  0  0
    5.0050   -0.3645    2.5937 H   0  0  0  0  0  0  0  0  0  0  0  0
    6.1358   -0.4727    1.2348 H   0  0  0  0  0  0  0  0  0  0  0  0
    4.5630   -1.5995   -0.1413 H   0  0  0  0  0  0  0  0  0  0  0  0
    4.0564   -2.2154    1.4525 H   0  0  0  0  0  0  0  0  0  0  0  0
  1  2  2  0
  2  3  1  0
  2  4  1  0
  4  5  2  0
  5  6  1  0
  6  7  2  0
  7  8  1  0
  8  9  1  0
  9 10  2  0
  9 11  1  0
 11 12  2  0
 12 13  1  0
 13 14  2  0
 14 15  1  0
 15 16  2  0
 16 17  1  0
 17 18  1  0
 18 19  1  0
 19 20  1  0
 19 21  1  0
 21 22  1  0
 22 23  1  0
 23 24  1  0
 24 25  1  0
 25 26  1  0
 17 27  1  0
 27  4  1  0
 27  8  2  0
 16 11  1  0
 26 22  1  0
  3 28  1  0
  5 29  1  0
  6 30  1  0
  7 31  1  0
 12 32  1  0
 13 33  1  0
 14 34  1  0
 15 35  1  0
 18 36  1  0
 18 37  1  0
 19 38  1  0
 20 39  1  0
 21 40  1  0
 21 41  1  0
 23 42  1  0
 23 43  1  0
 24 44  1  0
 24 45  1  0
 25 46  1  0
 25 47  1  0
 26 48  1  0
 26 49  1  0
M  END
$$$$
