
     RDKit          3D

 57 62  0  0  0  0  0  0  0  0999 V2000
    4.7032   -2.4449   -3.2466 C   0  0  0  0  0  0  0  0  0  0  0  0
    3.4497   -2.0070   -2.7387 O   0  0  0  0  0  0  0  0  0  0  0  0
    3.3631   -1.7928   -1.3897 C   0  0  0  0  0  0  0  0  0  0  0  0
    4.4077   -1.9706   -0.4620 C   0  0  0  0  0  0  0  0  0  0  0  0
    4.2091   -1.7255    0.9027 C   0  0  0  0  0  0  0  0  0  0  0  0
    2.9597   -1.3010    1.2987 C   0  0  0  0  0  0  0  0  0  0  0  0
    1.9122   -1.1108    0.3952 C   0  0  0  0  0  0  0  0  0  0  0  0
    2.1036   -1.3616   -0.9549 C   0  0  0  0  0  0  0  0  0  0  0  0
    0.7022   -0.6455    1.1457 C   0  0  0  0  0  0  0  0  0  0  0  0
   -0.5153   -1.4849    0.9575 N   0  0  0  0  0  0  0  0  0  0  0  0
   -1.7062   -0.5878    0.7545 C   0  0  2  0  0  0  0  0  0  0  0  0
   -2.6052   -1.1272   -0.3681 C   0  0  0  0  0  0  0  0  0  0  0  0
   -3.3629   -2.3723    0.0342 C   0  0  0  0  0  0  0  0  0  0  0  0
   -2.8396   -3.6417   -0.2462 C   0  0  0  0  0  0  0  0  0  0  0  0
   -3.5283   -4.7921    0.1400 C   0  0  0  0  0  0  0  0  0  0  0  0
   -4.7443   -4.6848    0.8119 C   0  0  0  0  0  0  0  0  0  0  0  0
   -5.2718   -3.4273    1.0996 C   0  0  0  0  0  0  0  0  0  0  0  0
   -4.5845   -2.2751    0.7146 C   0  0  0  0  0  0  0  0  0  0  0  0
   -1.0770    0.7211    0.4489 C   0  0  0  0  0  0  0  0  0  0  0  0
    0.2992    0.6825    0.6565 C   0  0  0  0  0  0  0  0  0  0  0  0
    0.8281    1.9123    0.3577 C   0  0  0  0  0  0  0  0  0  0  0  0
    2.0871    2.3369    0.4458 O   0  0  0  0  0  0  0  0  0  0  0  0
   -0.2409    2.7507   -0.0322 N   0  0  0  0  0  0  0  0  0  0  0  0
   -0.1386    4.1284   -0.4370 C   0  0  0  0  0  0  0  0  0  0  0  0
   -1.2311    4.9995   -0.3140 C   0  0  0  0  0  0  0  0  0  0  0  0
   -1.1285    6.3381   -0.7090 C   0  0  0  0  0  0  0  0  0  0  0  0
    0.0647    6.8245   -1.2336 C   0  0  0  0  0  0  0  0  0  0  0  0
    1.1571    5.9727   -1.3633 C   0  0  0  0  0  0  0  0  0  0  0  0
    1.0577    4.6343   -0.9676 C   0  0  0  0  0  0  0  0  0  0  0  0
   -1.4276    1.9858    0.0520 C   0  0  0  0  0  0  0  0  0  0  0  0
   -2.6251    2.4730   -0.2638 O   0  0  0  0  0  0  0  0  0  0  0  0
    1.1960   -0.6491    2.6211 C   0  0  0  0  0  0  0  0  0  0  0  0
    0.5511   -0.4221    3.6335 O   0  0  0  0  0  0  0  0  0  0  0  0
    2.5442   -1.0138    2.5922 N   0  0  0  0  0  0  0  0  0  0  0  0
    4.9807   -3.4177   -2.8277 H   0  0  0  0  0  0  0  0  0  0  0  0
    5.4842   -1.6987   -3.0669 H   0  0  0  0  0  0  0  0  0  0  0  0
    4.6015   -2.5658   -4.3294 H   0  0  0  0  0  0  0  0  0  0  0  0
    5.3908   -2.3065   -0.7775 H   0  0  0  0  0  0  0  0  0  0  0  0
    5.0148   -1.8721    1.6134 H   0  0  0  0  0  0  0  0  0  0  0  0
    1.2915   -1.2253   -1.6637 H   0  0  0  0  0  0  0  0  0  0  0  0
   -0.6751   -2.0260    1.8070 H   0  0  0  0  0  0  0  0  0  0  0  0
   -2.2569   -0.5056    1.7004 H   0  0  0  0  0  0  0  0  0  0  0  0
   -3.3367   -0.3665   -0.6693 H   0  0  0  0  0  0  0  0  0  0  0  0
   -2.0179   -1.3272   -1.2752 H   0  0  0  0  0  0  0  0  0  0  0  0
   -1.8865   -3.7387   -0.7628 H   0  0  0  0  0  0  0  0  0  0  0  0
   -3.1141   -5.7719   -0.0827 H   0  0  0  0  0  0  0  0  0  0  0  0
   -5.2802   -5.5813    1.1122 H   0  0  0  0  0  0  0  0  0  0  0  0
   -6.2198   -3.3444    1.6248 H   0  0  0  0  0  0  0  0  0  0  0  0
   -5.0111   -1.3028    0.9489 H   0  0  0  0  0  0  0  0  0  0  0  0
    2.6497    1.5780    0.6779 H   0  0  0  0  0  0  0  0  0  0  0  0
   -2.1716    4.6785    0.1220 H   0  0  0  0  0  0  0  0  0  0  0  0
   -1.9838    6.9994   -0.5986 H   0  0  0  0  0  0  0  0  0  0  0  0
    0.1430    7.8637   -1.5404 H   0  0  0  0  0  0  0  0  0  0  0  0
    2.0902    6.3439   -1.7787 H   0  0  0  0  0  0  0  0  0  0  0  0
    1.9260    4.0015   -1.1222 H   0  0  0  0  0  0  0  0  0  0  0  0
   -3.2863    1.7769   -0.1174 H   0  0  0  0  0  0  0  0  0  0  0  0
    3.0988   -1.1133    3.4297 H   0  0  0  0  0  0  0  0  0  0  0  0
  1  2  1  0
  2  3  1  0
  3  4  2  0
  4  5  1  0
  5  6  2  0
  6  7  1  0
  7  8  2  0
  7  9  1  0
  9 10  1  0
 10 11  1  0
 11 12  1  0
 12 13  1  0
 13 14  2  0
 14 15  1  0
 15 16  2  0
 16 17  1  0
 17 18  2  0
 11 19  1  0
 19 20  1  0
 20 21  2  0
 21 22  1  0
 21 23  1  0
 23 24  1  0
 24 25  2  0
 25 26  1  0
 26 27  2  0
 27 28  1  0
 28 29  2  0
 23 30  1  0
 30 31  1  0
  9 32  1  0
 32 33  2  0
 32 34  1  0
  8  3  1  0
 20  9  1  0
 29 24  1  0
 34  6  1  0
 18 13  1  0
 30 19  2  0
  1 35  1  0
  1 36  1  0
  1 37  1  0
  4 38  1  0
  5 39  1  0
  8 40  1  0
 10 41  1  0
 11 42  1  1
 12 43  1  0
 12 44  1  0
 14 45  1  0
 15 46  1  0
 16 47  1  0
 17 48  1  0
 18 49  1  0
 22 50  1  0
 25 51  1  0
 26 52  1  0
 27 53  1  0
 28 54  1  0
 29 55  1  0
 31 56  1  0
 34 57  1  0
M  END
$$$$
