
     RDKit          3D

 35 36  0  0  0  0  0  0  0  0999 V2000
    6.2393   -0.6905   -0.4744 C   0  0  0  0  0  0  0  0  0  0  0  0
    5.1199   -0.2525    0.4217 C   0  0  0  0  0  0  0  0  0  0  0  0
    5.3951    0.2238    1.6974 C   0  0  0  0  0  0  0  0  0  0  0  0
    4.3330    0.6207    2.4998 C   0  0  0  0  0  0  0  0  0  0  0  0
    3.0325    0.5318    2.0097 C   0  0  0  0  0  0  0  0  0  0  0  0
    2.8380    0.0462    0.7265 C   0  0  0  0  0  0  0  0  0  0  0  0
    1.5931   -0.0947    0.1146 N   0  0  0  0  0  0  0  0  0  0  0  0
    0.3455    0.2031    0.6259 C   0  0  0  0  0  0  0  0  0  0  0  0
    0.1229    0.6571    1.7438 O   0  0  0  0  0  0  0  0  0  0  0  0
   -0.7669   -0.1040   -0.3852 C   0  0  0  0  0  0  0  0  0  0  0  0
   -2.0465    0.2032    0.1436 O   0  0  0  0  0  0  0  0  0  0  0  0
   -3.1376   -0.0220   -0.6533 C   0  0  0  0  0  0  0  0  0  0  0  0
   -3.0894   -0.5337   -1.9541 C   0  0  0  0  0  0  0  0  0  0  0  0
   -4.2666   -0.7253   -2.6824 C   0  0  0  0  0  0  0  0  0  0  0  0
   -5.4982   -0.4079   -2.1178 C   0  0  0  0  0  0  0  0  0  0  0  0
   -5.5566    0.1024   -0.8225 C   0  0  0  0  0  0  0  0  0  0  0  0
   -4.3821    0.2995   -0.0808 C   0  0  0  0  0  0  0  0  0  0  0  0
   -4.4647    0.8514    1.3163 C   0  0  0  0  0  0  0  0  0  0  0  0
    3.8594   -0.3444   -0.0677 N   0  0  0  0  0  0  0  0  0  0  0  0
    6.9232    0.1434   -0.6604 H   0  0  0  0  0  0  0  0  0  0  0  0
    6.7927   -1.5144   -0.0132 H   0  0  0  0  0  0  0  0  0  0  0  0
    5.8537   -1.0366   -1.4388 H   0  0  0  0  0  0  0  0  0  0  0  0
    6.4145    0.2866    2.0638 H   0  0  0  0  0  0  0  0  0  0  0  0
    4.5114    0.9982    3.5028 H   0  0  0  0  0  0  0  0  0  0  0  0
    2.2109    0.8437    2.6428 H   0  0  0  0  0  0  0  0  0  0  0  0
    1.6798   -0.4668   -0.8211 H   0  0  0  0  0  0  0  0  0  0  0  0
   -0.7052   -1.1731   -0.6228 H   0  0  0  0  0  0  0  0  0  0  0  0
   -0.5731    0.5038   -1.2775 H   0  0  0  0  0  0  0  0  0  0  0  0
   -2.1536   -0.7951   -2.4351 H   0  0  0  0  0  0  0  0  0  0  0  0
   -4.2210   -1.1234   -3.6929 H   0  0  0  0  0  0  0  0  0  0  0  0
   -6.4133   -0.5572   -2.6848 H   0  0  0  0  0  0  0  0  0  0  0  0
   -6.5252    0.3467   -0.3921 H   0  0  0  0  0  0  0  0  0  0  0  0
   -3.9164    1.7967    1.3837 H   0  0  0  0  0  0  0  0  0  0  0  0
   -5.5013    1.0477    1.6100 H   0  0  0  0  0  0  0  0  0  0  0  0
   -4.0472    0.1358    2.0321 H   0  0  0  0  0  0  0  0  0  0  0  0
  1  2  1  0
  2  3  2  0
  3  4  1  0
  4  5  2  0
  5  6  1  0
  6  7  1  0
  7  8  1  0
  8  9  2  0
  8 10  1  0
 10 11  1  0
 11 12  1  0
 12 13  2  0
 13 14  1  0
 14 15  2  0
 15 16  1  0
 16 17  2  0
 17 18  1  0
  6 19  2  0
 19  2  1  0
 17 12  1  0
  1 20  1  0
  1 21  1  0
  1 22  1  0
  3 23  1  0
  4 24  1  0
  5 25  1  0
  7 26  1  0
 10 27  1  0
 10 28  1  0
 13 29  1  0
 14 30  1  0
 15 31  1  0
 16 32  1  0
 18 33  1  0
 18 34  1  0
 18 35  1  0
M  END
$$$$
