
     RDKit          3D

 40 41  0  0  0  0  0  0  0  0999 V2000
    6.0334    0.8345   -4.2077 C   0  0  0  0  0  0  0  0  0  0  0  0
    5.5889   -0.6187   -4.1160 C   0  0  0  0  0  0  0  0  0  0  0  0
    4.0690   -0.7692   -4.1382 C   0  0  0  0  0  0  0  0  0  0  0  0
    3.3898   -0.3557   -2.8384 C   0  0  0  0  0  0  0  0  0  0  0  0
    4.0226   -0.0702   -1.8293 O   0  0  0  0  0  0  0  0  0  0  0  0
    2.0087   -0.3759   -2.9644 N   0  0  0  0  0  0  0  0  0  0  0  0
    1.0508   -0.0588   -1.9800 C   0  0  0  0  0  0  0  0  0  0  0  0
   -0.2973   -0.1609   -2.3446 C   0  0  0  0  0  0  0  0  0  0  0  0
   -1.3101    0.1363   -1.4265 C   0  0  0  0  0  0  0  0  0  0  0  0
   -0.9888    0.5337   -0.1244 C   0  0  0  0  0  0  0  0  0  0  0  0
   -2.1017    0.8410    0.8155 C   0  0  0  0  0  0  0  0  0  0  0  0
   -3.2309    1.0918    0.3987 O   0  0  0  0  0  0  0  0  0  0  0  0
   -1.8080    0.7956    2.1661 N   0  0  0  0  0  0  0  0  0  0  0  0
   -2.9091    0.8396    3.0488 N   0  0  0  0  0  0  0  0  0  0  0  0
   -2.9005   -0.0406    4.1234 C   0  0  0  0  0  0  0  0  0  0  0  0
   -1.8729   -0.6661    4.3963 O   0  0  0  0  0  0  0  0  0  0  0  0
   -4.1629   -0.1531    4.8423 C   0  0  0  0  0  0  0  0  0  0  0  0
   -5.3247    0.5940    4.7359 C   0  0  0  0  0  0  0  0  0  0  0  0
   -6.3459    0.1532    5.6298 C   0  0  0  0  0  0  0  0  0  0  0  0
   -5.9347   -0.9125    6.3958 C   0  0  0  0  0  0  0  0  0  0  0  0
   -4.3288   -1.3732    6.0414 S   0  0  0  0  0  0  0  0  0  0  0  0
    0.3561    0.6504    0.2406 C   0  0  0  0  0  0  0  0  0  0  0  0
    1.3672    0.3520   -0.6835 C   0  0  0  0  0  0  0  0  0  0  0  0
    5.6584    1.3011   -5.1243 H   0  0  0  0  0  0  0  0  0  0  0  0
    7.1264    0.8932   -4.2222 H   0  0  0  0  0  0  0  0  0  0  0  0
    5.6769    1.4196   -3.3550 H   0  0  0  0  0  0  0  0  0  0  0  0
    6.0080   -1.1619   -4.9712 H   0  0  0  0  0  0  0  0  0  0  0  0
    6.0090   -1.0733   -3.2115 H   0  0  0  0  0  0  0  0  0  0  0  0
    3.6455   -0.1897   -4.9668 H   0  0  0  0  0  0  0  0  0  0  0  0
    3.8237   -1.8252   -4.3059 H   0  0  0  0  0  0  0  0  0  0  0  0
    1.6419   -0.6545   -3.8660 H   0  0  0  0  0  0  0  0  0  0  0  0
   -0.5836   -0.4708   -3.3466 H   0  0  0  0  0  0  0  0  0  0  0  0
   -2.3516    0.0535   -1.7324 H   0  0  0  0  0  0  0  0  0  0  0  0
   -1.0061    0.2687    2.5139 H   0  0  0  0  0  0  0  0  0  0  0  0
   -3.7861    1.1206    2.6147 H   0  0  0  0  0  0  0  0  0  0  0  0
   -5.4526    1.4297    4.0588 H   0  0  0  0  0  0  0  0  0  0  0  0
   -7.3304    0.5988    5.7085 H   0  0  0  0  0  0  0  0  0  0  0  0
   -6.4977   -1.4430    7.1517 H   0  0  0  0  0  0  0  0  0  0  0  0
    0.6509    0.9934    1.2286 H   0  0  0  0  0  0  0  0  0  0  0  0
    2.3971    0.4598   -0.3556 H   0  0  0  0  0  0  0  0  0  0  0  0
  1  2  1  0
  2  3  1  0
  3  4  1  0
  4  5  2  0
  4  6  1  0
  6  7  1  0
  7  8  2  0
  8  9  1  0
  9 10  2  0
 10 11  1  0
 11 12  2  0
 11 13  1  0
 13 14  1  0
 14 15  1  0
 15 16  2  0
 15 17  1  0
 17 18  2  0
 18 19  1  0
 19 20  2  0
 20 21  1  0
 10 22  1  0
 22 23  2  0
 23  7  1  0
 21 17  1  0
  1 24  1  0
  1 25  1  0
  1 26  1  0
  2 27  1  0
  2 28  1  0
  3 29  1  0
  3 30  1  0
  6 31  1  0
  8 32  1  0
  9 33  1  0
 13 34  1  0
 14 35  1  0
 18 36  1  0
 19 37  1  0
 20 38  1  0
 22 39  1  0
 23 40  1  0
M  END
$$$$
