
     RDKit          3D

 36 38  0  0  0  0  0  0  0  0999 V2000
   -2.7060    0.8708   -2.2513 C   0  0  0  0  0  0  0  0  0  0  0  0
   -2.2757    0.2466   -0.9603 C   0  0  0  0  0  0  0  0  0  0  0  0
   -0.9532    0.2283   -0.6820 N   0  0  0  0  0  0  0  0  0  0  0  0
   -0.6046   -0.3553    0.4948 C   0  0  0  0  0  0  0  0  0  0  0  0
    1.1457   -0.3857    0.8715 S   0  0  0  0  0  6  0  0  0  0  0  0
    1.5735   -1.7776    0.8564 O   0  0  0  0  0  0  0  0  0  0  0  0
    1.3575    0.4604    2.0375 O   0  0  0  0  0  0  0  0  0  0  0  0
    1.8714    0.4320   -0.5433 C   0  0  0  0  0  0  0  0  0  0  0  0
    3.3712    0.4939   -0.3801 C   0  0  0  0  0  0  0  0  0  0  0  0
    3.9742    1.5923    0.2518 C   0  0  0  0  0  0  0  0  0  0  0  0
    5.3615    1.6483    0.4042 C   0  0  0  0  0  0  0  0  0  0  0  0
    6.1535    0.6060   -0.0711 C   0  0  0  0  0  0  0  0  0  0  0  0
    7.8626    0.6766    0.1149 Cl  0  0  0  0  0  0  0  0  0  0  0  0
    5.5698   -0.4939   -0.6948 C   0  0  0  0  0  0  0  0  0  0  0  0
    4.1826   -0.5511   -0.8480 C   0  0  0  0  0  0  0  0  0  0  0  0
   -1.4104   -0.9208    1.4165 N   0  0  0  0  0  0  0  0  0  0  0  0
   -2.7004   -0.8584    1.0839 C   0  0  0  0  0  0  0  0  0  0  0  0
   -3.1874   -0.2871   -0.0798 C   0  0  0  0  0  0  0  0  0  0  0  0
   -4.6698   -0.4184   -0.1664 C   0  0  0  0  0  0  0  0  0  0  0  0
   -5.0281   -0.7282    1.2960 C   0  0  0  0  0  0  0  0  0  0  0  0
   -3.8150   -1.4467    1.9021 C   0  0  0  0  0  0  0  0  0  0  0  0
   -1.8377    1.1915   -2.8357 H   0  0  0  0  0  0  0  0  0  0  0  0
   -3.2711    0.1523   -2.8531 H   0  0  0  0  0  0  0  0  0  0  0  0
   -3.3291    1.7494   -2.0587 H   0  0  0  0  0  0  0  0  0  0  0  0
    1.4542    1.4414   -0.6150 H   0  0  0  0  0  0  0  0  0  0  0  0
    1.6093   -0.1283   -1.4462 H   0  0  0  0  0  0  0  0  0  0  0  0
    3.3679    2.4079    0.6428 H   0  0  0  0  0  0  0  0  0  0  0  0
    5.8151    2.5023    0.9000 H   0  0  0  0  0  0  0  0  0  0  0  0
    6.1860   -1.3128   -1.0565 H   0  0  0  0  0  0  0  0  0  0  0  0
    3.7405   -1.4252   -1.3235 H   0  0  0  0  0  0  0  0  0  0  0  0
   -5.1571    0.4994   -0.5066 H   0  0  0  0  0  0  0  0  0  0  0  0
   -4.9384   -1.2517   -0.8240 H   0  0  0  0  0  0  0  0  0  0  0  0
   -5.9490   -1.3130    1.3862 H   0  0  0  0  0  0  0  0  0  0  0  0
   -5.1914    0.2165    1.8331 H   0  0  0  0  0  0  0  0  0  0  0  0
   -3.7041   -1.2344    2.9687 H   0  0  0  0  0  0  0  0  0  0  0  0
   -3.8681   -2.5273    1.7357 H   0  0  0  0  0  0  0  0  0  0  0  0
  1  2  1  0
  2  3  2  0
  3  4  1  0
  4  5  1  0
  5  6  2  0
  5  7  2  0
  5  8  1  0
  8  9  1  0
  9 10  2  0
 10 11  1  0
 11 12  2  0
 12 13  1  0
 12 14  1  0
 14 15  2  0
  4 16  2  0
 16 17  1  0
 17 18  2  0
 18 19  1  0
 19 20  1  0
 20 21  1  0
 18  2  1  0
 15  9  1  0
 21 17  1  0
  1 22  1  0
  1 23  1  0
  1 24  1  0
  8 25  1  0
  8 26  1  0
 10 27  1  0
 11 28  1  0
 14 29  1  0
 15 30  1  0
 19 31  1  0
 19 32  1  0
 20 33  1  0
 20 34  1  0
 21 35  1  0
 21 36  1  0
M  END
$$$$
