
     RDKit          3D

 36 37  0  0  0  0  0  0  0  0999 V2000
   -1.2415   -0.6154    0.2507 O   0  0  0  0  0  0  0  0  0  0  0  0
   -1.0449   -1.1582   -0.8262 C   0  0  0  0  0  0  0  0  0  0  0  0
   -2.0819   -1.3075   -1.8815 C   0  0  0  0  0  0  0  0  0  0  0  0
   -3.2352   -0.6240   -1.9571 C   0  0  0  0  0  0  0  0  0  0  0  0
   -3.7041    0.4419   -1.0587 C   0  0  0  0  0  0  0  0  0  0  0  0
   -2.9994    1.6547   -1.0056 C   0  0  0  0  0  0  0  0  0  0  0  0
   -3.4356    2.6986   -0.1858 C   0  0  0  0  0  0  0  0  0  0  0  0
   -4.5860    2.5478    0.5849 C   0  0  0  0  0  0  0  0  0  0  0  0
   -5.3028    1.3526    0.5359 C   0  0  0  0  0  0  0  0  0  0  0  0
   -4.8678    0.3051   -0.2831 C   0  0  0  0  0  0  0  0  0  0  0  0
   -5.8141   -1.1447   -0.3039 Cl  0  0  0  0  0  0  0  0  0  0  0  0
    0.1644   -1.6960   -1.2011 N   0  0  0  0  0  0  0  0  0  0  0  0
    1.3218   -1.6245   -0.3280 C   0  0  0  0  0  0  0  0  0  0  0  0
    1.9865   -0.2463   -0.3617 C   0  0  0  0  0  0  0  0  0  0  0  0
    3.2134   -0.1971    0.5137 C   0  0  0  0  0  0  0  0  0  0  0  0
    4.4871   -0.4180   -0.0263 C   0  0  0  0  0  0  0  0  0  0  0  0
    5.6160   -0.3901    0.7942 C   0  0  0  0  0  0  0  0  0  0  0  0
    5.4816   -0.1454    2.1598 C   0  0  0  0  0  0  0  0  0  0  0  0
    4.2183    0.0711    2.7069 C   0  0  0  0  0  0  0  0  0  0  0  0
    3.0885    0.0440    1.8886 C   0  0  0  0  0  0  0  0  0  0  0  0
   -1.8899   -2.0694   -2.6292 H   0  0  0  0  0  0  0  0  0  0  0  0
   -3.9329   -0.8675   -2.7564 H   0  0  0  0  0  0  0  0  0  0  0  0
   -2.0947    1.7907   -1.5937 H   0  0  0  0  0  0  0  0  0  0  0  0
   -2.8703    3.6263   -0.1445 H   0  0  0  0  0  0  0  0  0  0  0  0
   -4.9215    3.3580    1.2271 H   0  0  0  0  0  0  0  0  0  0  0  0
   -6.1986    1.2403    1.1409 H   0  0  0  0  0  0  0  0  0  0  0  0
    0.2889   -2.0739   -2.1297 H   0  0  0  0  0  0  0  0  0  0  0  0
    1.0054   -1.8761    0.6912 H   0  0  0  0  0  0  0  0  0  0  0  0
    2.0207   -2.4003   -0.6602 H   0  0  0  0  0  0  0  0  0  0  0  0
    1.2817    0.5316   -0.0415 H   0  0  0  0  0  0  0  0  0  0  0  0
    2.2568    0.0126   -1.3937 H   0  0  0  0  0  0  0  0  0  0  0  0
    4.6094   -0.6114   -1.0894 H   0  0  0  0  0  0  0  0  0  0  0  0
    6.6014   -0.5592    0.3681 H   0  0  0  0  0  0  0  0  0  0  0  0
    6.3609   -0.1235    2.7979 H   0  0  0  0  0  0  0  0  0  0  0  0
    4.1116    0.2609    3.7718 H   0  0  0  0  0  0  0  0  0  0  0  0
    2.1069    0.2122    2.3287 H   0  0  0  0  0  0  0  0  0  0  0  0
  1  2  2  0
  2  3  1  0
  3  4  2  3
  4  5  1  0
  5  6  2  0
  6  7  1  0
  7  8  2  0
  8  9  1  0
  9 10  2  0
 10 11  1  0
  2 12  1  0
 12 13  1  0
 13 14  1  0
 14 15  1  0
 15 16  2  0
 16 17  1  0
 17 18  2  0
 18 19  1  0
 19 20  2  0
 10  5  1  0
 20 15  1  0
  3 21  1  0
  4 22  1  0
  6 23  1  0
  7 24  1  0
  8 25  1  0
  9 26  1  0
 12 27  1  0
 13 28  1  0
 13 29  1  0
 14 30  1  0
 14 31  1  0
 16 32  1  0
 17 33  1  0
 18 34  1  0
 19 35  1  0
 20 36  1  0
M  END
$$$$
