
     RDKit          3D

 74 79  0  0  0  0  0  0  0  0999 V2000
    7.5938   -0.3784   -5.4458 C   0  0  0  0  0  0  0  0  0  0  0  0
    7.8970   -0.4672   -4.0592 O   0  0  0  0  0  0  0  0  0  0  0  0
    6.8401   -0.5830   -3.2016 C   0  0  0  0  0  0  0  0  0  0  0  0
    7.1843   -0.6829   -1.8569 C   0  0  0  0  0  0  0  0  0  0  0  0
    6.1946   -0.8081   -0.8738 C   0  0  0  0  0  0  0  0  0  0  0  0
    4.8228   -0.8387   -1.1939 C   0  0  0  0  0  0  0  0  0  0  0  0
    3.7985   -0.9796   -0.1236 C   0  0  0  0  0  0  0  0  0  0  0  0
    2.4352   -1.0571   -0.3531 C   0  0  0  0  0  0  0  0  0  0  0  0
    1.5720   -1.1849    0.7393 C   0  0  0  0  0  0  0  0  0  0  0  0
    0.1224   -1.2051    0.4316 C   0  0  0  0  0  0  0  0  0  0  0  0
   -0.2928   -2.0021   -0.4012 O   0  0  0  0  0  0  0  0  0  0  0  0
   -0.6042   -0.2419    1.0908 N   0  0  0  0  0  0  0  0  0  0  0  0
   -1.9989   -0.0431    1.0824 C   0  0  0  0  0  0  0  0  0  0  0  0
   -2.8995   -0.9291    0.4946 C   0  0  0  0  0  0  0  0  0  0  0  0
   -4.2635   -0.6300    0.5055 C   0  0  0  0  0  0  0  0  0  0  0  0
   -5.4146   -1.7706   -0.2360 S   0  0  0  0  0  6  0  0  0  0  0  0
   -6.7389   -1.3968    0.2176 O   0  0  0  0  0  0  0  0  0  0  0  0
   -4.9035   -3.1056   -0.0198 O   0  0  0  0  0  0  0  0  0  0  0  0
   -5.3250   -1.4167   -1.8864 N   0  0  0  0  0  0  0  0  0  0  0  0
   -4.0996   -1.8078   -2.6402 C   0  0  0  0  0  0  0  0  0  0  0  0
   -3.3723   -0.5674   -3.1714 C   0  0  0  0  0  0  0  0  0  0  0  0
   -4.1743    0.2452   -4.0438 O   0  0  0  0  0  0  0  0  0  0  0  0
   -5.5833    0.1119   -3.8148 C   0  0  0  0  0  0  0  0  0  0  0  0
   -5.9258   -0.1337   -2.3420 C   0  0  0  0  0  0  0  0  0  0  0  0
   -4.7373    0.5164    1.1494 C   0  0  0  0  0  0  0  0  0  0  0  0
   -3.8358    1.3868    1.7674 C   0  0  0  0  0  0  0  0  0  0  0  0
   -2.4588    1.1264    1.7380 C   0  0  0  0  0  0  0  0  0  0  0  0
   -1.5062    1.9600    2.3693 N   0  0  0  0  0  0  0  0  0  0  0  0
   -1.4632    1.7829    3.8446 C   0  0  0  0  0  0  0  0  0  0  0  0
   -1.9420    3.0445    4.5785 C   0  0  0  0  0  0  0  0  0  0  0  0
   -1.1882    4.2209    4.2467 O   0  0  0  0  0  0  0  0  0  0  0  0
   -0.6945    4.2256    2.8969 C   0  0  0  0  0  0  0  0  0  0  0  0
   -1.5457    3.3779    1.9394 C   0  0  0  0  0  0  0  0  0  0  0  0
    2.0662   -1.2859    2.0578 C   0  0  0  0  0  0  0  0  0  0  0  0
    1.2791   -1.5021    3.2203 C   0  0  0  0  0  0  0  0  0  0  0  0
    1.8638   -1.5772    4.4828 C   0  0  0  0  0  0  0  0  0  0  0  0
    3.2389   -1.4468    4.6046 C   0  0  0  0  0  0  0  0  0  0  0  0
    4.0183   -1.2561    3.4618 C   0  0  0  0  0  0  0  0  0  0  0  0
    3.4594   -1.1837    2.1925 C   0  0  0  0  0  0  0  0  0  0  0  0
    4.2838   -1.0242    1.1443 N   0  0  0  0  0  0  0  0  0  0  0  0
    4.5030   -0.7323   -2.5607 C   0  0  0  0  0  0  0  0  0  0  0  0
    5.4935   -0.6069   -3.5506 C   0  0  0  0  0  0  0  0  0  0  0  0
    7.0789   -1.2794   -5.7969 H   0  0  0  0  0  0  0  0  0  0  0  0
    8.5400   -0.3013   -5.9901 H   0  0  0  0  0  0  0  0  0  0  0  0
    7.0111    0.5226   -5.6646 H   0  0  0  0  0  0  0  0  0  0  0  0
    8.2311   -0.6660   -1.5634 H   0  0  0  0  0  0  0  0  0  0  0  0
    6.5149   -0.8856    0.1647 H   0  0  0  0  0  0  0  0  0  0  0  0
    2.0156   -1.0174   -1.3513 H   0  0  0  0  0  0  0  0  0  0  0  0
   -0.1111    0.4802    1.6134 H   0  0  0  0  0  0  0  0  0  0  0  0
   -2.5585   -1.8548    0.0433 H   0  0  0  0  0  0  0  0  0  0  0  0
   -3.4203   -2.4107   -2.0334 H   0  0  0  0  0  0  0  0  0  0  0  0
   -4.4241   -2.4375   -3.4774 H   0  0  0  0  0  0  0  0  0  0  0  0
   -3.0429    0.0714   -2.3451 H   0  0  0  0  0  0  0  0  0  0  0  0
   -2.4779   -0.8626   -3.7286 H   0  0  0  0  0  0  0  0  0  0  0  0
   -6.0623    1.0307   -4.1663 H   0  0  0  0  0  0  0  0  0  0  0  0
   -5.9527   -0.7084   -4.4417 H   0  0  0  0  0  0  0  0  0  0  0  0
   -5.5394    0.6925   -1.7384 H   0  0  0  0  0  0  0  0  0  0  0  0
   -7.0124   -0.1861   -2.2292 H   0  0  0  0  0  0  0  0  0  0  0  0
   -5.8031    0.7311    1.1905 H   0  0  0  0  0  0  0  0  0  0  0  0
   -4.2259    2.2590    2.2839 H   0  0  0  0  0  0  0  0  0  0  0  0
   -0.4161    1.5950    4.1104 H   0  0  0  0  0  0  0  0  0  0  0  0
   -2.0398    0.9099    4.1757 H   0  0  0  0  0  0  0  0  0  0  0  0
   -1.8630    2.9009    5.6607 H   0  0  0  0  0  0  0  0  0  0  0  0
   -2.9957    3.2457    4.3541 H   0  0  0  0  0  0  0  0  0  0  0  0
   -0.6705    5.2677    2.5607 H   0  0  0  0  0  0  0  0  0  0  0  0
    0.3389    3.8609    2.9189 H   0  0  0  0  0  0  0  0  0  0  0  0
   -2.5683    3.7731    1.9429 H   0  0  0  0  0  0  0  0  0  0  0  0
   -1.1490    3.4568    0.9213 H   0  0  0  0  0  0  0  0  0  0  0  0
    0.2016   -1.6369    3.1486 H   0  0  0  0  0  0  0  0  0  0  0  0
    1.2493   -1.7494    5.3627 H   0  0  0  0  0  0  0  0  0  0  0  0
    3.7126   -1.5068    5.5813 H   0  0  0  0  0  0  0  0  0  0  0  0
    5.0984   -1.1702    3.5633 H   0  0  0  0  0  0  0  0  0  0  0  0
    3.4711   -0.7456   -2.9001 H   0  0  0  0  0  0  0  0  0  0  0  0
    5.1708   -0.5319   -4.5838 H   0  0  0  0  0  0  0  0  0  0  0  0
  1  2  1  0
  2  3  1  0
  3  4  2  0
  4  5  1  0
  5  6  2  0
  6  7  1  0
  7  8  2  0
  8  9  1  0
  9 10  1  0
 10 11  2  0
 10 12  1  0
 12 13  1  0
 13 14  2  0
 14 15  1  0
 15 16  1  0
 16 17  2  0
 16 18  2  0
 16 19  1  0
 19 20  1  0
 20 21  1  0
 21 22  1  0
 22 23  1  0
 23 24  1  0
 15 25  2  0
 25 26  1  0
 26 27  2  0
 27 28  1  0
 28 29  1  0
 29 30  1  0
 30 31  1  0
 31 32  1  0
 32 33  1  0
  9 34  2  0
 34 35  1  0
 35 36  2  0
 36 37  1  0
 37 38  2  0
 38 39  1  0
 39 40  2  0
  6 41  1  0
 41 42  2  0
 42  3  1  0
 40  7  1  0
 27 13  1  0
 33 28  1  0
 39 34  1  0
 24 19  1  0
  1 43  1  0
  1 44  1  0
  1 45  1  0
  4 46  1  0
  5 47  1  0
  8 48  1  0
 12 49  1  0
 14 50  1  0
 20 51  1  0
 20 52  1  0
 21 53  1  0
 21 54  1  0
 23 55  1  0
 23 56  1  0
 24 57  1  0
 24 58  1  0
 25 59  1  0
 26 60  1  0
 29 61  1  0
 29 62  1  0
 30 63  1  0
 30 64  1  0
 32 65  1  0
 32 66  1  0
 33 67  1  0
 33 68  1  0
 35 69  1  0
 36 70  1  0
 37 71  1  0
 38 72  1  0
 41 73  1  0
 42 74  1  0
M  END
$$$$
