
     RDKit          3D

 97 99  0  0  0  0  0  0  0  0999 V2000
   -2.1250    0.5660   -2.3095 C   0  0  0  0  0  0  0  0  0  0  0  0
   -1.7547    0.2748   -1.0484 C   0  0  0  0  0  0  0  0  0  0  0  0
   -2.5850   -0.6201   -0.1278 C   0  0  1  0  0  0  0  0  0  0  0  0
   -3.6533    0.2238    0.3488 O   0  0  0  0  0  0  0  0  0  0  0  0
   -4.1532   -0.0836    1.5770 C   0  0  0  0  0  0  0  0  0  0  0  0
   -3.8519   -1.0902    2.2059 O   0  0  0  0  0  0  0  0  0  0  0  0
   -5.0910    0.9992    2.1042 C   0  0  0  0  0  0  0  0  0  0  0  0
   -5.7080    1.8524    1.0015 C   0  0  0  0  0  0  0  0  0  0  0  0
   -6.1944    0.3695    2.9533 C   0  0  0  0  0  0  0  0  0  0  0  0
   -3.1107   -1.9695   -0.6884 C   0  0  0  0  0  0  0  0  0  0  0  0
   -3.9705   -1.8114   -1.8416 O   0  0  0  0  0  0  0  0  0  0  0  0
   -5.2895   -1.5965   -1.6096 C   0  0  0  0  0  0  0  0  0  0  0  0
   -6.0264   -1.4963   -2.9100 C   0  0  0  0  0  0  0  0  0  0  0  0
   -5.8255   -1.5163   -0.5155 O   0  0  0  0  0  0  0  0  0  0  0  0
   -1.9224   -2.8539   -1.1113 C   0  0  0  0  0  0  0  0  0  0  0  0
   -1.6065   -2.9527   -2.3058 O   0  0  0  0  0  0  0  0  0  0  0  0
   -1.0806   -3.5825   -0.0300 C   0  0  0  0  0  0  0  0  0  0  0  0
   -1.9045   -3.9423    1.2149 C   0  0  0  0  0  0  0  0  0  0  0  0
   -0.5988   -4.9240   -0.6323 C   0  0  0  0  0  0  0  0  0  0  0  0
    0.1582   -2.7257    0.2333 C   0  0  0  0  0  0  0  0  0  0  0  0
    0.4624   -2.0619    1.3640 C   0  0  0  0  0  0  0  0  0  0  0  0
    1.7242   -1.2829    1.6875 C   0  0  2  0  0  0  0  0  0  0  0  0
    1.4536   -0.3224    2.8551 C   0  0  0  0  0  0  0  0  0  0  0  0
    2.5690   -0.6404    0.5433 C   0  0  2  0  0  0  0  0  0  0  0  0
    3.8620   -0.3179    1.1554 O   0  0  0  0  0  0  0  0  0  0  0  0
    4.8311   -1.2611    1.0519 C   0  0  0  0  0  0  0  0  0  0  0  0
    4.7330   -2.3268    0.4671 O   0  0  0  0  0  0  0  0  0  0  0  0
    6.0728   -0.8057    1.7326 C   0  0  0  0  0  0  0  0  0  0  0  0
    7.2661   -1.4854    1.4488 C   0  0  0  0  0  0  0  0  0  0  0  0
    8.4572   -1.1012    2.0651 C   0  0  0  0  0  0  0  0  0  0  0  0
    8.4592   -0.0423    2.9726 C   0  0  0  0  0  0  0  0  0  0  0  0
    7.2750    0.6342    3.2674 C   0  0  0  0  0  0  0  0  0  0  0  0
    6.0827    0.2543    2.6507 C   0  0  0  0  0  0  0  0  0  0  0  0
    2.0855    0.6804   -0.1486 C   0  0  1  0  0  0  0  0  0  0  0  0
    1.9052    1.7115    0.8232 O   0  0  0  0  0  0  0  0  0  0  0  0
    3.1813    1.2041   -1.1245 C   0  0  0  0  0  0  0  0  0  0  0  0
    2.6782    0.8348   -2.5160 C   0  0  2  0  0  0  0  0  0  0  0  0
    3.4096    1.5816   -3.6189 C   0  0  0  0  0  0  0  0  0  0  0  0
    1.1858    1.1674   -2.3939 C   0  0  2  0  0  0  0  0  0  0  0  0
    1.0290    2.5950   -2.3326 O   0  0  0  0  0  0  0  0  0  0  0  0
    0.4646    3.2063   -3.4093 C   0  0  0  0  0  0  0  0  0  0  0  0
    0.3720    4.6886   -3.1900 C   0  0  0  0  0  0  0  0  0  0  0  0
    0.0669    2.6401   -4.4136 O   0  0  0  0  0  0  0  0  0  0  0  0
    0.8132    0.4979   -1.0496 C   0  0  2  0  0  0  0  0  0  0  0  0
   -0.5252    0.9149   -0.3933 C   0  0  1  0  0  0  0  0  0  0  0  0
   -0.7061    2.3407   -0.3847 O   0  0  0  0  0  0  0  0  0  0  0  0
   -1.3282    2.8564    0.7040 C   0  0  0  0  0  0  0  0  0  0  0  0
   -1.4164    4.3489    0.5792 C   0  0  0  0  0  0  0  0  0  0  0  0
   -1.7483    2.2257    1.6654 O   0  0  0  0  0  0  0  0  0  0  0  0
   -1.5679    1.2558   -2.9299 H   0  0  0  0  0  0  0  0  0  0  0  0
   -3.0194    0.1612   -2.7690 H   0  0  0  0  0  0  0  0  0  0  0  0
   -1.9578   -0.8675    0.7329 H   0  0  0  0  0  0  0  0  0  0  0  0
   -4.4871    1.6486    2.7471 H   0  0  0  0  0  0  0  0  0  0  0  0
   -6.2626    1.2391    0.2812 H   0  0  0  0  0  0  0  0  0  0  0  0
   -4.9406    2.4012    0.4456 H   0  0  0  0  0  0  0  0  0  0  0  0
   -6.3999    2.5915    1.4218 H   0  0  0  0  0  0  0  0  0  0  0  0
   -6.8159    1.1449    3.4122 H   0  0  0  0  0  0  0  0  0  0  0  0
   -6.8357   -0.2796    2.3481 H   0  0  0  0  0  0  0  0  0  0  0  0
   -5.7734   -0.2395    3.7667 H   0  0  0  0  0  0  0  0  0  0  0  0
   -3.6860   -2.5107    0.0673 H   0  0  0  0  0  0  0  0  0  0  0  0
   -7.0471   -1.1526   -2.7249 H   0  0  0  0  0  0  0  0  0  0  0  0
   -5.5420   -0.7684   -3.5650 H   0  0  0  0  0  0  0  0  0  0  0  0
   -6.0704   -2.4795   -3.3848 H   0  0  0  0  0  0  0  0  0  0  0  0
   -2.8117   -4.4944    0.9425 H   0  0  0  0  0  0  0  0  0  0  0  0
   -2.2271   -3.0586    1.7708 H   0  0  0  0  0  0  0  0  0  0  0  0
   -1.3275   -4.5677    1.9096 H   0  0  0  0  0  0  0  0  0  0  0  0
   -1.4527   -5.5500   -0.9179 H   0  0  0  0  0  0  0  0  0  0  0  0
    0.0056   -4.7762   -1.5371 H   0  0  0  0  0  0  0  0  0  0  0  0
    0.0148   -5.4854    0.0823 H   0  0  0  0  0  0  0  0  0  0  0  0
    0.8653   -2.7126   -0.5971 H   0  0  0  0  0  0  0  0  0  0  0  0
   -0.2317   -2.1301    2.2009 H   0  0  0  0  0  0  0  0  0  0  0  0
    2.3789   -2.0477    2.1351 H   0  0  0  0  0  0  0  0  0  0  0  0
    2.3659    0.1885    3.1798 H   0  0  0  0  0  0  0  0  0  0  0  0
    0.7069    0.4372    2.6097 H   0  0  0  0  0  0  0  0  0  0  0  0
    1.0679   -0.8704    3.7219 H   0  0  0  0  0  0  0  0  0  0  0  0
    2.7288   -1.3798   -0.2512 H   0  0  0  0  0  0  0  0  0  0  0  0
    7.2702   -2.3146    0.7464 H   0  0  0  0  0  0  0  0  0  0  0  0
    9.3866   -1.6226    1.8392 H   0  0  0  0  0  0  0  0  0  0  0  0
    9.3834    0.2524    3.4588 H   0  0  0  0  0  0  0  0  0  0  0  0
    7.2795    1.4509    3.9856 H   0  0  0  0  0  0  0  0  0  0  0  0
    5.1691    0.7796    2.9102 H   0  0  0  0  0  0  0  0  0  0  0  0
    2.7233    1.7453    1.3561 H   0  0  0  0  0  0  0  0  0  0  0  0
    4.1758    0.7939   -0.9440 H   0  0  0  0  0  0  0  0  0  0  0  0
    3.2828    2.2922   -1.0287 H   0  0  0  0  0  0  0  0  0  0  0  0
    2.8043   -0.2465   -2.6715 H   0  0  0  0  0  0  0  0  0  0  0  0
    4.4672    1.3056   -3.6339 H   0  0  0  0  0  0  0  0  0  0  0  0
    3.3554    2.6656   -3.4857 H   0  0  0  0  0  0  0  0  0  0  0  0
    2.9808    1.3321   -4.5940 H   0  0  0  0  0  0  0  0  0  0  0  0
    0.6304    0.7175   -3.2216 H   0  0  0  0  0  0  0  0  0  0  0  0
   -0.6792    4.9800   -3.1450 H   0  0  0  0  0  0  0  0  0  0  0  0
    0.8514    4.9779   -2.2515 H   0  0  0  0  0  0  0  0  0  0  0  0
    0.8877    5.2065   -4.0018 H   0  0  0  0  0  0  0  0  0  0  0  0
    0.7468   -0.5706   -1.2902 H   0  0  0  0  0  0  0  0  0  0  0  0
   -0.4678    0.5634    0.6398 H   0  0  0  0  0  0  0  0  0  0  0  0
   -1.7969    4.6178   -0.4105 H   0  0  0  0  0  0  0  0  0  0  0  0
   -0.4326    4.7892    0.7490 H   0  0  0  0  0  0  0  0  0  0  0  0
   -2.1171    4.7314    1.3279 H   0  0  0  0  0  0  0  0  0  0  0  0
  1  2  2  0
  2  3  1  0
  3  4  1  0
  4  5  1  0
  5  6  2  0
  5  7  1  0
  7  8  1  0
  7  9  1  0
  3 10  1  0
 10 11  1  0
 11 12  1  0
 12 13  1  0
 12 14  2  0
 10 15  1  0
 15 16  2  0
 15 17  1  0
 17 18  1  0
 17 19  1  0
 17 20  1  0
 20 21  2  0
 21 22  1  0
 22 23  1  0
 22 24  1  0
 24 25  1  0
 25 26  1  0
 26 27  2  0
 26 28  1  0
 28 29  2  0
 29 30  1  0
 30 31  2  0
 31 32  1  0
 32 33  2  0
 24 34  1  0
 34 35  1  1
 34 36  1  0
 36 37  1  0
 37 38  1  0
 37 39  1  0
 39 40  1  0
 40 41  1  0
 41 42  1  0
 41 43  2  0
 39 44  1  0
 44 45  1  0
 45 46  1  0
 46 47  1  0
 47 48  1  0
 47 49  2  0
 45  2  1  0
 33 28  1  0
 44 34  1  0
  1 50  1  0
  1 51  1  0
  3 52  1  1
  7 53  1  0
  8 54  1  0
  8 55  1  0
  8 56  1  0
  9 57  1  0
  9 58  1  0
  9 59  1  0
 10 60  1  0
 13 61  1  0
 13 62  1  0
 13 63  1  0
 18 64  1  0
 18 65  1  0
 18 66  1  0
 19 67  1  0
 19 68  1  0
 19 69  1  0
 20 70  1  0
 21 71  1  0
 22 72  1  1
 23 73  1  0
 23 74  1  0
 23 75  1  0
 24 76  1  6
 29 77  1  0
 30 78  1  0
 31 79  1  0
 32 80  1  0
 33 81  1  0
 35 82  1  0
 36 83  1  0
 36 84  1  0
 37 85  1  6
 38 86  1  0
 38 87  1  0
 38 88  1  0
 39 89  1  6
 42 90  1  0
 42 91  1  0
 42 92  1  0
 44 93  1  6
 45 94  1  1
 48 95  1  0
 48 96  1  0
 48 97  1  0
M  END
$$$$
