
     RDKit          3D

 63 67  0  0  0  0  0  0  0  0999 V2000
    9.0595    0.2238   -2.8124 C   0  0  0  0  0  0  0  0  0  0  0  0
    7.6686    0.7142   -3.1668 C   0  0  0  0  0  0  0  0  0  0  0  0
    6.7917    0.3949   -2.0813 O   0  0  0  0  0  0  0  0  0  0  0  0
    5.5055    0.8168   -2.2598 C   0  0  0  0  0  0  0  0  0  0  0  0
    5.1058    1.4202   -3.2486 O   0  0  0  0  0  0  0  0  0  0  0  0
    4.6396    0.4703   -1.1397 C   0  0  0  0  0  0  0  0  0  0  0  0
    3.2583    0.7897   -0.9960 C   0  0  0  0  0  0  0  0  0  0  0  0
    2.8092    0.2618    0.2006 C   0  0  0  0  0  0  0  0  0  0  0  0
    1.5037    0.2862    0.8438 C   0  0  0  0  0  0  0  0  0  0  0  0
    0.3706    0.8178    0.2252 N   0  0  0  0  0  0  0  0  0  0  0  0
   -0.0365    0.2204   -1.0690 C   0  0  0  0  0  0  0  0  0  0  0  0
   -1.5341    0.4370   -1.3769 C   0  0  0  0  0  0  0  0  0  0  0  0
   -2.4309   -0.1106   -0.3364 N   0  0  0  0  0  0  0  0  0  0  0  0
   -3.8040    0.3838   -0.5210 C   0  0  0  0  0  0  0  0  0  0  0  0
   -4.8414   -0.5176    0.1740 C   0  0  0  0  0  0  0  0  0  0  0  0
   -6.2507    0.0223    0.0182 C   0  0  0  0  0  0  0  0  0  0  0  0
   -6.6820    1.0131    0.9214 C   0  0  0  0  0  0  0  0  0  0  0  0
   -7.9579    1.5660    0.8267 C   0  0  0  0  0  0  0  0  0  0  0  0
   -8.8247    1.1405   -0.1721 C   0  0  0  0  0  0  0  0  0  0  0  0
   -8.4148    0.1607   -1.0769 C   0  0  0  0  0  0  0  0  0  0  0  0
   -7.1282   -0.4105   -1.0023 C   0  0  0  0  0  0  0  0  0  0  0  0
   -6.7424   -1.4786   -2.0060 C   0  0  0  0  0  0  0  0  0  0  0  0
   -6.5752   -2.7031   -1.4336 F   0  0  0  0  0  0  0  0  0  0  0  0
   -7.6709   -1.6599   -2.9892 F   0  0  0  0  0  0  0  0  0  0  0  0
   -5.5790   -1.1997   -2.6579 F   0  0  0  0  0  0  0  0  0  0  0  0
   -1.8968    0.1577    1.0221 C   0  0  0  0  0  0  0  0  0  0  0  0
   -0.7723    1.2122    1.0735 C   0  0  0  0  0  0  0  0  0  0  0  0
    1.3968   -0.2093    2.0515 N   0  0  0  0  0  0  0  0  0  0  0  0
    2.5069   -0.7923    2.6927 C   0  0  0  0  0  0  0  0  0  0  0  0
    2.3312   -1.3176    3.9742 C   0  0  0  0  0  0  0  0  0  0  0  0
    3.3965   -1.9164    4.6519 C   0  0  0  0  0  0  0  0  0  0  0  0
    4.6530   -1.9961    4.0500 C   0  0  0  0  0  0  0  0  0  0  0  0
    4.8518   -1.4774    2.7700 C   0  0  0  0  0  0  0  0  0  0  0  0
    3.7763   -0.8814    2.1046 C   0  0  0  0  0  0  0  0  0  0  0  0
    3.8899   -0.3220    0.8214 N   0  0  0  0  0  0  0  0  0  0  0  0
    4.9913   -0.2279    0.0049 C   0  0  0  0  0  0  0  0  0  0  0  0
    9.0517   -0.8542   -2.6200 H   0  0  0  0  0  0  0  0  0  0  0  0
    9.4169    0.7085   -1.8977 H   0  0  0  0  0  0  0  0  0  0  0  0
    9.7653    0.4335   -3.6210 H   0  0  0  0  0  0  0  0  0  0  0  0
    7.6895    1.7988   -3.3233 H   0  0  0  0  0  0  0  0  0  0  0  0
    7.3223    0.2153   -4.0790 H   0  0  0  0  0  0  0  0  0  0  0  0
    2.6687    1.3585   -1.7035 H   0  0  0  0  0  0  0  0  0  0  0  0
    0.5466    0.6664   -1.8808 H   0  0  0  0  0  0  0  0  0  0  0  0
    0.1705   -0.8584   -1.0591 H   0  0  0  0  0  0  0  0  0  0  0  0
   -1.7115    1.5137   -1.5076 H   0  0  0  0  0  0  0  0  0  0  0  0
   -1.7657   -0.0446   -2.3348 H   0  0  0  0  0  0  0  0  0  0  0  0
   -3.8888    1.4226   -0.1736 H   0  0  0  0  0  0  0  0  0  0  0  0
   -4.0441    0.4007   -1.5919 H   0  0  0  0  0  0  0  0  0  0  0  0
   -4.6264   -0.6057    1.2469 H   0  0  0  0  0  0  0  0  0  0  0  0
   -4.7748   -1.5409   -0.2142 H   0  0  0  0  0  0  0  0  0  0  0  0
   -6.0191    1.3593    1.7126 H   0  0  0  0  0  0  0  0  0  0  0  0
   -8.2746    2.3279    1.5352 H   0  0  0  0  0  0  0  0  0  0  0  0
   -9.8216    1.5687   -0.2465 H   0  0  0  0  0  0  0  0  0  0  0  0
   -9.1128   -0.1601   -1.8500 H   0  0  0  0  0  0  0  0  0  0  0  0
   -1.5061   -0.7928    1.4068 H   0  0  0  0  0  0  0  0  0  0  0  0
   -2.6887    0.4644    1.7156 H   0  0  0  0  0  0  0  0  0  0  0  0
   -0.4689    1.3861    2.1123 H   0  0  0  0  0  0  0  0  0  0  0  0
   -1.1532    2.1776    0.7167 H   0  0  0  0  0  0  0  0  0  0  0  0
    1.3529   -1.2595    4.4441 H   0  0  0  0  0  0  0  0  0  0  0  0
    3.2432   -2.3205    5.6494 H   0  0  0  0  0  0  0  0  0  0  0  0
    5.4789   -2.4626    4.5817 H   0  0  0  0  0  0  0  0  0  0  0  0
    5.8383   -1.5488    2.3246 H   0  0  0  0  0  0  0  0  0  0  0  0
    5.9471   -0.6429    0.2920 H   0  0  0  0  0  0  0  0  0  0  0  0
  1  2  1  0
  2  3  1  0
  3  4  1  0
  4  5  2  0
  4  6  1  0
  6  7  1  0
  7  8  2  0
  8  9  1  0
  9 10  1  0
 10 11  1  0
 11 12  1  0
 12 13  1  0
 13 14  1  0
 14 15  1  0
 15 16  1  0
 16 17  2  0
 17 18  1  0
 18 19  2  0
 19 20  1  0
 20 21  2  0
 21 22  1  0
 22 23  1  0
 22 24  1  0
 22 25  1  0
 13 26  1  0
 26 27  1  0
  9 28  2  0
 28 29  1  0
 29 30  2  0
 30 31  1  0
 31 32  2  0
 32 33  1  0
 33 34  2  0
 34 35  1  0
 35 36  1  0
 36  6  2  0
 35  8  1  0
 27 10  1  0
 34 29  1  0
 21 16  1  0
  1 37  1  0
  1 38  1  0
  1 39  1  0
  2 40  1  0
  2 41  1  0
  7 42  1  0
 11 43  1  0
 11 44  1  0
 12 45  1  0
 12 46  1  0
 14 47  1  0
 14 48  1  0
 15 49  1  0
 15 50  1  0
 17 51  1  0
 18 52  1  0
 19 53  1  0
 20 54  1  0
 26 55  1  0
 26 56  1  0
 27 57  1  0
 27 58  1  0
 30 59  1  0
 31 60  1  0
 32 61  1  0
 33 62  1  0
 36 63  1  0
M  END
$$$$
