
     RDKit          3D

 61 66  0  0  0  0  0  0  0  0999 V2000
    3.1659    4.4026   -1.6795 F   0  0  0  0  0  0  0  0  0  0  0  0
    4.3470    4.1097   -1.0672 C   0  0  0  0  0  0  0  0  0  0  0  0
    5.3230    4.4196   -1.9662 F   0  0  0  0  0  0  0  0  0  0  0  0
    4.4751    5.0137   -0.0546 F   0  0  0  0  0  0  0  0  0  0  0  0
    4.4127    2.6750   -0.6057 C   0  0  0  0  0  0  0  0  0  0  0  0
    4.1438    2.3318    0.7254 C   0  0  0  0  0  0  0  0  0  0  0  0
    4.1995    0.9977    1.1406 C   0  0  0  0  0  0  0  0  0  0  0  0
    4.5090   -0.0259    0.2322 C   0  0  0  0  0  0  0  0  0  0  0  0
    4.5718   -1.4733    0.6793 C   0  0  0  0  0  0  0  0  0  0  0  0
    3.3311   -2.2477    0.6144 N   0  0  0  0  0  0  0  0  0  0  0  0
    2.2432   -1.7823    1.4858 C   0  0  0  0  0  0  0  0  0  0  0  0
    1.0810   -1.0704    0.7572 C   0  0  0  0  0  0  0  0  0  0  0  0
    0.5130   -1.8934   -0.3234 N   0  0  0  0  0  0  0  0  0  0  0  0
   -0.8611   -1.9775   -0.5320 C   0  0  0  0  0  0  0  0  0  0  0  0
   -1.3582   -3.1372   -0.8876 N   0  0  0  0  0  0  0  0  0  0  0  0
   -2.7444   -3.3061   -1.0652 C   0  0  0  0  0  0  0  0  0  0  0  0
   -3.2163   -4.5683   -1.4311 C   0  0  0  0  0  0  0  0  0  0  0  0
   -4.5846   -4.7958   -1.6041 C   0  0  0  0  0  0  0  0  0  0  0  0
   -5.4977   -3.7583   -1.4106 C   0  0  0  0  0  0  0  0  0  0  0  0
   -5.0477   -2.4889   -1.0447 C   0  0  0  0  0  0  0  0  0  0  0  0
   -3.6754   -2.2763   -0.8745 C   0  0  0  0  0  0  0  0  0  0  0  0
   -3.1349   -1.0289   -0.5218 N   0  0  0  0  0  0  0  0  0  0  0  0
   -3.7781    0.1627   -0.2824 C   0  0  0  0  0  0  0  0  0  0  0  0
   -2.8255    1.1367   -0.0539 C   0  0  0  0  0  0  0  0  0  0  0  0
   -3.1325    2.5336    0.2104 C   0  0  0  0  0  0  0  0  0  0  0  0
   -2.3194    3.5449   -0.3209 C   0  0  0  0  0  0  0  0  0  0  0  0
   -2.5927    4.8877   -0.0503 C   0  0  0  0  0  0  0  0  0  0  0  0
   -3.6788    5.2309    0.7556 C   0  0  0  0  0  0  0  0  0  0  0  0
   -4.4956    4.2347    1.2879 C   0  0  0  0  0  0  0  0  0  0  0  0
   -4.2221    2.8915    1.0181 C   0  0  0  0  0  0  0  0  0  0  0  0
   -1.5620    0.4951   -0.1548 C   0  0  0  0  0  0  0  0  0  0  0  0
   -1.7760   -0.8534   -0.3823 C   0  0  0  0  0  0  0  0  0  0  0  0
    1.3843   -2.9830   -0.7997 C   0  0  0  0  0  0  0  0  0  0  0  0
    2.8655   -2.5492   -0.7505 C   0  0  0  0  0  0  0  0  0  0  0  0
    4.7797    0.3218   -1.0988 C   0  0  0  0  0  0  0  0  0  0  0  0
    4.7267    1.6548   -1.5150 C   0  0  0  0  0  0  0  0  0  0  0  0
    3.8931    3.1047    1.4512 H   0  0  0  0  0  0  0  0  0  0  0  0
    4.0005    0.7633    2.1848 H   0  0  0  0  0  0  0  0  0  0  0  0
    4.9546   -1.5022    1.7084 H   0  0  0  0  0  0  0  0  0  0  0  0
    5.3456   -1.9892    0.0954 H   0  0  0  0  0  0  0  0  0  0  0  0
    1.8309   -2.6739    1.9775 H   0  0  0  0  0  0  0  0  0  0  0  0
    2.6134   -1.1572    2.3058 H   0  0  0  0  0  0  0  0  0  0  0  0
    1.4355   -0.1261    0.3313 H   0  0  0  0  0  0  0  0  0  0  0  0
    0.3167   -0.8389    1.5074 H   0  0  0  0  0  0  0  0  0  0  0  0
   -2.5076   -5.3788   -1.5794 H   0  0  0  0  0  0  0  0  0  0  0  0
   -4.9364   -5.7836   -1.8883 H   0  0  0  0  0  0  0  0  0  0  0  0
   -6.5616   -3.9393   -1.5486 H   0  0  0  0  0  0  0  0  0  0  0  0
   -5.7763   -1.6975   -0.9051 H   0  0  0  0  0  0  0  0  0  0  0  0
   -4.8553    0.2384   -0.3183 H   0  0  0  0  0  0  0  0  0  0  0  0
   -1.4727    3.2981   -0.9585 H   0  0  0  0  0  0  0  0  0  0  0  0
   -1.9555    5.6639   -0.4663 H   0  0  0  0  0  0  0  0  0  0  0  0
   -3.8871    6.2762    0.9688 H   0  0  0  0  0  0  0  0  0  0  0  0
   -5.3399    4.5000    1.9220 H   0  0  0  0  0  0  0  0  0  0  0  0
   -4.8577    2.1286    1.4601 H   0  0  0  0  0  0  0  0  0  0  0  0
   -0.5982    0.9734   -0.0497 H   0  0  0  0  0  0  0  0  0  0  0  0
    1.1317   -3.2351   -1.8360 H   0  0  0  0  0  0  0  0  0  0  0  0
    1.2310   -3.8788   -0.1874 H   0  0  0  0  0  0  0  0  0  0  0  0
    3.4894   -3.3458   -1.1715 H   0  0  0  0  0  0  0  0  0  0  0  0
    2.9644   -1.6760   -1.4049 H   0  0  0  0  0  0  0  0  0  0  0  0
    5.0363   -0.4495   -1.8231 H   0  0  0  0  0  0  0  0  0  0  0  0
    4.9357    1.8971   -2.5558 H   0  0  0  0  0  0  0  0  0  0  0  0
  1  2  1  0
  2  3  1  0
  2  4  1  0
  2  5  1  0
  5  6  2  0
  6  7  1  0
  7  8  2  0
  8  9  1  0
  9 10  1  0
 10 11  1  0
 11 12  1  0
 12 13  1  0
 13 14  1  0
 14 15  2  0
 15 16  1  0
 16 17  2  0
 17 18  1  0
 18 19  2  0
 19 20  1  0
 20 21  2  0
 21 22  1  0
 22 23  1  0
 23 24  2  0
 24 25  1  0
 25 26  2  0
 26 27  1  0
 27 28  2  0
 28 29  1  0
 29 30  2  0
 24 31  1  0
 31 32  2  0
 13 33  1  0
 33 34  1  0
  8 35  1  0
 35 36  2  0
 36  5  1  0
 34 10  1  0
 32 14  1  0
 21 16  1  0
 32 22  1  0
 30 25  1  0
  6 37  1  0
  7 38  1  0
  9 39  1  0
  9 40  1  0
 11 41  1  0
 11 42  1  0
 12 43  1  0
 12 44  1  0
 17 45  1  0
 18 46  1  0
 19 47  1  0
 20 48  1  0
 23 49  1  0
 26 50  1  0
 27 51  1  0
 28 52  1  0
 29 53  1  0
 30 54  1  0
 31 55  1  0
 33 56  1  0
 33 57  1  0
 34 58  1  0
 34 59  1  0
 35 60  1  0
 36 61  1  0
M  END
$$$$
