
     RDKit          3D

 40 42  0  0  0  0  0  0  0  0999 V2000
   -6.1695    1.1143   -1.0419 C   0  0  0  0  0  0  0  0  0  0  0  0
   -5.0984    0.3111   -0.9868 C   0  0  0  0  0  0  0  0  0  0  0  0
   -4.5693   -0.3153    0.2707 C   0  0  0  0  0  0  0  0  0  0  0  0
   -3.1584   -0.0012    0.4815 N   0  0  0  0  0  0  0  0  0  0  0  0
   -2.1219   -0.8306    0.1290 C   0  0  0  0  0  0  0  0  0  0  0  0
   -0.9421   -0.2161    0.4865 C   0  0  0  0  0  0  0  0  0  0  0  0
    0.3342   -0.8084    0.2399 C   0  0  0  0  0  0  0  0  0  0  0  0
    1.4521   -0.1325   -0.0743 C   0  0  0  0  0  0  0  0  0  0  0  0
    2.7518   -0.7608   -0.3341 C   0  0  0  0  0  0  0  0  0  0  0  0
    2.8785   -1.9391   -1.0682 C   0  0  0  0  0  0  0  0  0  0  0  0
    4.1408   -2.4710   -1.3073 C   0  0  0  0  0  0  0  0  0  0  0  0
    5.2488   -1.8494   -0.8462 N   0  0  0  0  0  4  0  0  0  0  0  0
    6.5744   -2.4384   -1.1010 C   0  0  0  0  0  0  0  0  0  0  0  0
    5.1519   -0.7022   -0.1382 C   0  0  0  0  0  0  0  0  0  0  0  0
    3.9100   -0.1338    0.1222 C   0  0  0  0  0  0  0  0  0  0  0  0
   -1.2734    1.0209    1.1231 C   0  0  0  0  0  0  0  0  0  0  0  0
   -0.5320    2.0536    1.7413 C   0  0  0  0  0  0  0  0  0  0  0  0
   -1.1906    3.1661    2.2762 C   0  0  0  0  0  0  0  0  0  0  0  0
   -2.5750    3.2647    2.2108 C   0  0  0  0  0  0  0  0  0  0  0  0
   -3.3377    2.2538    1.6220 C   0  0  0  0  0  0  0  0  0  0  0  0
   -2.6694    1.1370    1.0923 C   0  0  0  0  0  0  0  0  0  0  0  0
   -6.4987    1.5363   -1.9874 H   0  0  0  0  0  0  0  0  0  0  0  0
   -6.7410    1.3740   -0.1558 H   0  0  0  0  0  0  0  0  0  0  0  0
   -4.5644    0.0854   -1.9076 H   0  0  0  0  0  0  0  0  0  0  0  0
   -5.1184    0.0037    1.1634 H   0  0  0  0  0  0  0  0  0  0  0  0
   -4.6570   -1.4058    0.2045 H   0  0  0  0  0  0  0  0  0  0  0  0
   -2.3148   -1.7765   -0.3605 H   0  0  0  0  0  0  0  0  0  0  0  0
    0.3611   -1.8945    0.2966 H   0  0  0  0  0  0  0  0  0  0  0  0
    1.4247    0.9527   -0.1521 H   0  0  0  0  0  0  0  0  0  0  0  0
    2.0024   -2.4460   -1.4682 H   0  0  0  0  0  0  0  0  0  0  0  0
    4.2739   -3.3911   -1.8695 H   0  0  0  0  0  0  0  0  0  0  0  0
    6.7975   -3.1128   -0.2706 H   0  0  0  0  0  0  0  0  0  0  0  0
    7.3163   -1.6381   -1.1636 H   0  0  0  0  0  0  0  0  0  0  0  0
    6.5490   -2.9822   -2.0488 H   0  0  0  0  0  0  0  0  0  0  0  0
    6.0725   -0.2464    0.2153 H   0  0  0  0  0  0  0  0  0  0  0  0
    3.8532    0.7926    0.6914 H   0  0  0  0  0  0  0  0  0  0  0  0
    0.5479    1.9906    1.8175 H   0  0  0  0  0  0  0  0  0  0  0  0
   -0.6158    3.9584    2.7492 H   0  0  0  0  0  0  0  0  0  0  0  0
   -3.0742    4.1364    2.6284 H   0  0  0  0  0  0  0  0  0  0  0  0
   -4.4191    2.3405    1.5811 H   0  0  0  0  0  0  0  0  0  0  0  0
  1  2  2  0
  2  3  1  0
  3  4  1  0
  4  5  1  0
  5  6  2  0
  6  7  1  0
  7  8  2  3
  8  9  1  0
  9 10  2  0
 10 11  1  0
 11 12  2  0
 12 13  1  0
 12 14  1  0
 14 15  2  0
  6 16  1  0
 16 17  2  0
 17 18  1  0
 18 19  2  0
 19 20  1  0
 20 21  2  0
 21  4  1  0
 15  9  1  0
 21 16  1  0
  1 22  1  0
  1 23  1  0
  2 24  1  0
  3 25  1  0
  3 26  1  0
  5 27  1  0
  7 28  1  0
  8 29  1  0
 10 30  1  0
 11 31  1  0
 13 32  1  0
 13 33  1  0
 13 34  1  0
 14 35  1  0
 15 36  1  0
 17 37  1  0
 18 38  1  0
 19 39  1  0
 20 40  1  0
M  CHG  1  12   1
M  END
$$$$
