
     RDKit          3D

 36 37  0  0  0  0  0  0  0  0999 V2000
   -7.0508    0.0895   -0.4834 C   0  0  0  0  0  0  0  0  0  0  0  0
   -6.4393    0.2575    0.7894 O   0  0  0  0  0  0  0  0  0  0  0  0
   -5.0733    0.2237    0.8306 C   0  0  0  0  0  0  0  0  0  0  0  0
   -4.2228    0.0428   -0.2608 C   0  0  0  0  0  0  0  0  0  0  0  0
   -2.8335    0.0287   -0.0785 C   0  0  0  0  0  0  0  0  0  0  0  0
   -2.2836    0.1957    1.1994 C   0  0  0  0  0  0  0  0  0  0  0  0
   -0.8161    0.1886    1.4479 C   0  0  0  0  0  0  0  0  0  0  0  0
   -0.3175    0.3273    2.5533 O   0  0  0  0  0  0  0  0  0  0  0  0
   -0.1357    0.0105    0.2881 O   0  0  0  0  0  0  0  0  0  0  0  0
    1.2922   -0.0120    0.4402 C   0  0  0  0  0  0  0  0  0  0  0  0
    1.9142   -0.1906   -0.9420 C   0  0  0  0  0  0  0  0  0  0  0  0
    3.4189   -0.2305   -0.8911 C   0  0  0  0  0  0  0  0  0  0  0  0
    4.1645    0.9552   -0.9630 C   0  0  0  0  0  0  0  0  0  0  0  0
    5.5593    0.9213   -0.8966 C   0  0  0  0  0  0  0  0  0  0  0  0
    6.2078   -0.3008   -0.7542 C   0  0  0  0  0  0  0  0  0  0  0  0
    7.5672   -0.3803   -0.6847 O   0  0  0  0  0  0  0  0  0  0  0  0
    5.4853   -1.4848   -0.6761 C   0  0  0  0  0  0  0  0  0  0  0  0
    4.0917   -1.4511   -0.7419 C   0  0  0  0  0  0  0  0  0  0  0  0
   -3.1392    0.3767    2.2917 C   0  0  0  0  0  0  0  0  0  0  0  0
   -4.5241    0.3901    2.1043 C   0  0  0  0  0  0  0  0  0  0  0  0
   -8.1348    0.1400   -0.3428 H   0  0  0  0  0  0  0  0  0  0  0  0
   -6.7657    0.8954   -1.1676 H   0  0  0  0  0  0  0  0  0  0  0  0
   -6.8154   -0.8921   -0.9078 H   0  0  0  0  0  0  0  0  0  0  0  0
   -4.6055   -0.0903   -1.2675 H   0  0  0  0  0  0  0  0  0  0  0  0
   -2.1944   -0.1145   -0.9464 H   0  0  0  0  0  0  0  0  0  0  0  0
    1.6270    0.9308    0.8898 H   0  0  0  0  0  0  0  0  0  0  0  0
    1.5747   -0.8442    1.0966 H   0  0  0  0  0  0  0  0  0  0  0  0
    1.5291   -1.1071   -1.4078 H   0  0  0  0  0  0  0  0  0  0  0  0
    1.5834    0.6182   -1.6068 H   0  0  0  0  0  0  0  0  0  0  0  0
    3.6617    1.9140   -1.0710 H   0  0  0  0  0  0  0  0  0  0  0  0
    6.1163    1.8508   -0.9559 H   0  0  0  0  0  0  0  0  0  0  0  0
    7.9320    0.5177   -0.7427 H   0  0  0  0  0  0  0  0  0  0  0  0
    6.0052   -2.4317   -0.5623 H   0  0  0  0  0  0  0  0  0  0  0  0
    3.5365   -2.3840   -0.6757 H   0  0  0  0  0  0  0  0  0  0  0  0
   -2.7346    0.5080    3.2936 H   0  0  0  0  0  0  0  0  0  0  0  0
   -5.1808    0.5315    2.9599 H   0  0  0  0  0  0  0  0  0  0  0  0
  1  2  1  0
  2  3  1  0
  3  4  2  0
  4  5  1  0
  5  6  2  0
  6  7  1  0
  7  8  2  0
  7  9  1  0
  9 10  1  0
 10 11  1  0
 11 12  1  0
 12 13  2  0
 13 14  1  0
 14 15  2  0
 15 16  1  0
 15 17  1  0
 17 18  2  0
  6 19  1  0
 19 20  2  0
 20  3  1  0
 18 12  1  0
  1 21  1  0
  1 22  1  0
  1 23  1  0
  4 24  1  0
  5 25  1  0
 10 26  1  0
 10 27  1  0
 11 28  1  0
 11 29  1  0
 13 30  1  0
 14 31  1  0
 16 32  1  0
 17 33  1  0
 18 34  1  0
 19 35  1  0
 20 36  1  0
M  END
$$$$
