
     RDKit          3D

 36 37  0  0  0  0  0  0  0  0999 V2000
   -0.0087    1.8593    1.1902 O   0  0  0  0  0  0  0  0  0  0  0  0
   -0.4767    1.0393    0.4093 C   0  0  0  0  0  0  0  0  0  0  0  0
   -1.9448    0.8330    0.3483 C   0  0  0  0  0  0  0  0  0  0  0  0
   -2.6069    0.3934   -0.7337 C   0  0  0  0  0  0  0  0  0  0  0  0
   -4.0737    0.2449   -0.7736 C   0  0  0  0  0  0  0  0  0  0  0  0
   -4.7378   -0.3950    0.2873 C   0  0  0  0  0  0  0  0  0  0  0  0
   -6.1235   -0.5759    0.2634 C   0  0  0  0  0  0  0  0  0  0  0  0
   -6.8675   -0.1292   -0.8249 C   0  0  0  0  0  0  0  0  0  0  0  0
   -6.2260    0.4956   -1.8931 C   0  0  0  0  0  0  0  0  0  0  0  0
   -4.8384    0.6782   -1.8728 C   0  0  0  0  0  0  0  0  0  0  0  0
   -4.1217    1.4657   -3.2384 Cl  0  0  0  0  0  0  0  0  0  0  0  0
    0.2750    0.2202   -0.3920 N   0  0  0  0  0  0  0  0  0  0  0  0
    1.7253    0.2665   -0.3712 C   0  0  0  0  0  0  0  0  0  0  0  0
    2.3108   -0.4928    0.8216 C   0  0  0  0  0  0  0  0  0  0  0  0
    3.8186   -0.4823    0.8041 C   0  0  0  0  0  0  0  0  0  0  0  0
    4.5222    0.6096    1.3303 C   0  0  0  0  0  0  0  0  0  0  0  0
    5.9170    0.6331    1.2989 C   0  0  0  0  0  0  0  0  0  0  0  0
    6.6205   -0.4318    0.7392 C   0  0  0  0  0  0  0  0  0  0  0  0
    5.9299   -1.5204    0.2094 C   0  0  0  0  0  0  0  0  0  0  0  0
    4.5346   -1.5459    0.2393 C   0  0  0  0  0  0  0  0  0  0  0  0
   -2.4633    1.1477    1.2489 H   0  0  0  0  0  0  0  0  0  0  0  0
   -2.0875    0.1678   -1.6607 H   0  0  0  0  0  0  0  0  0  0  0  0
   -4.1815   -0.7689    1.1448 H   0  0  0  0  0  0  0  0  0  0  0  0
   -6.6203   -1.0696    1.0956 H   0  0  0  0  0  0  0  0  0  0  0  0
   -7.9456   -0.2692   -0.8435 H   0  0  0  0  0  0  0  0  0  0  0  0
   -6.8126    0.8403   -2.7413 H   0  0  0  0  0  0  0  0  0  0  0  0
   -0.1686   -0.5386   -0.8893 H   0  0  0  0  0  0  0  0  0  0  0  0
    2.0405    1.3166   -0.3523 H   0  0  0  0  0  0  0  0  0  0  0  0
    2.0715   -0.1682   -1.3156 H   0  0  0  0  0  0  0  0  0  0  0  0
    1.9475   -1.5287    0.8196 H   0  0  0  0  0  0  0  0  0  0  0  0
    1.9560   -0.0616    1.7663 H   0  0  0  0  0  0  0  0  0  0  0  0
    3.9846    1.4489    1.7682 H   0  0  0  0  0  0  0  0  0  0  0  0
    6.4539    1.4832    1.7115 H   0  0  0  0  0  0  0  0  0  0  0  0
    7.7068   -0.4128    0.7159 H   0  0  0  0  0  0  0  0  0  0  0  0
    6.4791   -2.3504   -0.2273 H   0  0  0  0  0  0  0  0  0  0  0  0
    4.0113   -2.4022   -0.1794 H   0  0  0  0  0  0  0  0  0  0  0  0
  1  2  2  0
  2  3  1  0
  3  4  2  3
  4  5  1  0
  5  6  2  0
  6  7  1  0
  7  8  2  0
  8  9  1  0
  9 10  2  0
 10 11  1  0
  2 12  1  0
 12 13  1  0
 13 14  1  0
 14 15  1  0
 15 16  2  0
 16 17  1  0
 17 18  2  0
 18 19  1  0
 19 20  2  0
 10  5  1  0
 20 15  1  0
  3 21  1  0
  4 22  1  0
  6 23  1  0
  7 24  1  0
  8 25  1  0
  9 26  1  0
 12 27  1  0
 13 28  1  0
 13 29  1  0
 14 30  1  0
 14 31  1  0
 16 32  1  0
 17 33  1  0
 18 34  1  0
 19 35  1  0
 20 36  1  0
M  END
$$$$
