
     RDKit          3D

 40 42  0  0  0  0  0  0  0  0999 V2000
   -2.5218    0.0162    1.7784 C   0  0  0  0  0  0  0  0  0  0  0  0
   -2.9399    0.2744    0.3981 N   0  0  0  0  0  0  0  0  0  0  0  0
   -2.0623    0.9260   -0.4895 C   0  0  0  0  0  0  0  0  0  0  0  0
   -2.3870    1.6599   -1.4210 O   0  0  0  0  0  0  0  0  0  0  0  0
   -0.6011    0.7226   -0.3075 C   0  0  0  0  0  0  0  0  0  0  0  0
    0.2522    1.8266   -0.3635 C   0  0  0  0  0  0  0  0  0  0  0  0
    1.6311    1.6478   -0.2187 C   0  0  0  0  0  0  0  0  0  0  0  0
    2.1717    0.3679   -0.0303 C   0  0  0  0  0  0  0  0  0  0  0  0
    3.5682    0.2793    0.1094 N   0  0  0  0  0  0  0  0  0  0  0  0
    4.3434   -0.8469    0.3246 C   0  0  0  0  0  0  0  0  0  0  0  0
    3.9192   -1.9913    0.4451 O   0  0  0  0  0  0  0  0  0  0  0  0
    5.7609   -0.5385    0.4048 C   0  0  0  0  0  0  0  0  0  0  0  0
    6.8601   -1.3527    0.6029 C   0  0  0  0  0  0  0  0  0  0  0  0
    7.9989   -0.5125    0.5908 C   0  0  0  0  0  0  0  0  0  0  0  0
    7.5307    0.7637    0.3869 C   0  0  0  0  0  0  0  0  0  0  0  0
    6.1773    0.7636    0.2730 O   0  0  0  0  0  0  0  0  0  0  0  0
    1.3122   -0.7336   -0.0025 C   0  0  0  0  0  0  0  0  0  0  0  0
   -0.0691   -0.5609   -0.1499 C   0  0  0  0  0  0  0  0  0  0  0  0
   -4.3124   -0.0167    0.0438 C   0  0  0  0  0  0  0  0  0  0  0  0
   -5.2291   -0.4947    0.9989 C   0  0  0  0  0  0  0  0  0  0  0  0
   -6.5535   -0.8019    0.6596 C   0  0  0  0  0  0  0  0  0  0  0  0
   -6.9927   -0.6504   -0.6492 C   0  0  0  0  0  0  0  0  0  0  0  0
   -6.1044   -0.1995   -1.6168 C   0  0  0  0  0  0  0  0  0  0  0  0
   -4.7808    0.1066   -1.2736 C   0  0  0  0  0  0  0  0  0  0  0  0
   -1.5129    0.3787    1.9875 H   0  0  0  0  0  0  0  0  0  0  0  0
   -3.1794    0.5571    2.4668 H   0  0  0  0  0  0  0  0  0  0  0  0
   -2.5587   -1.0598    1.9740 H   0  0  0  0  0  0  0  0  0  0  0  0
   -0.1544    2.8228   -0.5242 H   0  0  0  0  0  0  0  0  0  0  0  0
    2.2743    2.5235   -0.2616 H   0  0  0  0  0  0  0  0  0  0  0  0
    4.0953    1.1446    0.0492 H   0  0  0  0  0  0  0  0  0  0  0  0
    6.8280   -2.4258    0.7379 H   0  0  0  0  0  0  0  0  0  0  0  0
    9.0333   -0.8013    0.7149 H   0  0  0  0  0  0  0  0  0  0  0  0
    8.0082    1.7305    0.3025 H   0  0  0  0  0  0  0  0  0  0  0  0
    1.6843   -1.7464    0.1190 H   0  0  0  0  0  0  0  0  0  0  0  0
   -0.7186   -1.4331   -0.1537 H   0  0  0  0  0  0  0  0  0  0  0  0
   -4.9502   -0.6426    2.0370 H   0  0  0  0  0  0  0  0  0  0  0  0
   -7.2385   -1.1611    1.4233 H   0  0  0  0  0  0  0  0  0  0  0  0
   -8.0189   -0.8870   -0.9157 H   0  0  0  0  0  0  0  0  0  0  0  0
   -6.4313   -0.0851   -2.6473 H   0  0  0  0  0  0  0  0  0  0  0  0
   -4.1320    0.4299   -2.0819 H   0  0  0  0  0  0  0  0  0  0  0  0
  1  2  1  0
  2  3  1  0
  3  4  2  0
  3  5  1  0
  5  6  2  0
  6  7  1  0
  7  8  2  0
  8  9  1  0
  9 10  1  0
 10 11  2  0
 10 12  1  0
 12 13  2  0
 13 14  1  0
 14 15  2  0
 15 16  1  0
  8 17  1  0
 17 18  2  0
  2 19  1  0
 19 20  2  0
 20 21  1  0
 21 22  2  0
 22 23  1  0
 23 24  2  0
 18  5  1  0
 24 19  1  0
 16 12  1  0
  1 25  1  0
  1 26  1  0
  1 27  1  0
  6 28  1  0
  7 29  1  0
  9 30  1  0
 13 31  1  0
 14 32  1  0
 15 33  1  0
 17 34  1  0
 18 35  1  0
 20 36  1  0
 21 37  1  0
 22 38  1  0
 23 39  1  0
 24 40  1  0
M  END
$$$$
