
     RDKit          3D

 47 50  0  0  0  0  0  0  0  0999 V2000
   -5.0231    2.4079   -1.4410 C   0  0  0  0  0  0  0  0  0  0  0  0
   -4.2657    1.8717   -0.2239 C   0  0  0  0  0  0  0  0  0  0  0  0
   -2.7964    1.6622   -0.5553 C   0  0  0  0  0  0  0  0  0  0  0  0
   -2.0282    1.1542    0.6434 C   0  0  0  0  0  0  0  0  0  0  0  0
   -1.3498    1.9410    1.3113 O   0  0  0  0  0  0  0  0  0  0  0  0
   -2.0301   -0.2090    0.9011 N   0  0  0  0  0  0  0  0  0  0  0  0
   -1.2095   -0.7052    2.0150 C   0  0  0  0  0  0  0  0  0  0  0  0
    0.2737   -0.8886    1.6687 C   0  0  0  0  0  0  0  0  0  0  0  0
    0.8109   -1.9869    1.8044 O   0  0  0  0  0  0  0  0  0  0  0  0
    0.8970    0.2787    1.2713 N   0  0  0  0  0  0  0  0  0  0  0  0
    2.2309    0.4555    0.8558 C   0  0  0  0  0  0  0  0  0  0  0  0
    2.6143    1.7553    0.4883 C   0  0  0  0  0  0  0  0  0  0  0  0
    3.9117    2.0183    0.0365 C   0  0  0  0  0  0  0  0  0  0  0  0
    4.8363    0.9857   -0.0440 C   0  0  0  0  0  0  0  0  0  0  0  0
    4.4720   -0.3049    0.3552 C   0  0  0  0  0  0  0  0  0  0  0  0
    3.1691   -0.5734    0.7832 C   0  0  0  0  0  0  0  0  0  0  0  0
    5.3507   -1.3605    0.3458 O   0  0  0  0  0  0  0  0  0  0  0  0
    6.7027   -0.8879    0.3356 C   0  0  0  0  0  0  0  0  0  0  0  0
    6.8795    0.1391   -0.7722 C   0  0  0  0  0  0  0  0  0  0  0  0
    6.0837    1.3077   -0.5172 O   0  0  0  0  0  0  0  0  0  0  0  0
   -2.7790   -1.1591    0.1347 C   0  0  0  0  0  0  0  0  0  0  0  0
   -2.1512   -2.3456   -0.2798 C   0  0  0  0  0  0  0  0  0  0  0  0
   -2.8193   -3.2676   -1.0950 C   0  0  0  0  0  0  0  0  0  0  0  0
   -4.1350   -3.0350   -1.4830 C   0  0  0  0  0  0  0  0  0  0  0  0
   -4.7889   -1.8829   -1.0416 C   0  0  0  0  0  0  0  0  0  0  0  0
   -4.1252   -0.9422   -0.2374 C   0  0  0  0  0  0  0  0  0  0  0  0
   -5.1315    0.3879    0.4184 S   0  0  0  0  0  0  0  0  0  0  0  0
   -4.9759    1.7185   -2.2926 H   0  0  0  0  0  0  0  0  0  0  0  0
   -4.5863    3.3663   -1.7610 H   0  0  0  0  0  0  0  0  0  0  0  0
   -6.0764    2.5976   -1.2033 H   0  0  0  0  0  0  0  0  0  0  0  0
   -4.3414    2.6222    0.5760 H   0  0  0  0  0  0  0  0  0  0  0  0
   -2.6397    1.0125   -1.4250 H   0  0  0  0  0  0  0  0  0  0  0  0
   -2.3463    2.6287   -0.8448 H   0  0  0  0  0  0  0  0  0  0  0  0
   -1.2718    0.0004    2.8482 H   0  0  0  0  0  0  0  0  0  0  0  0
   -1.6108   -1.6531    2.3846 H   0  0  0  0  0  0  0  0  0  0  0  0
    0.3185    1.1173    1.2980 H   0  0  0  0  0  0  0  0  0  0  0  0
    1.9076    2.5817    0.5463 H   0  0  0  0  0  0  0  0  0  0  0  0
    4.1935    3.0250   -0.2536 H   0  0  0  0  0  0  0  0  0  0  0  0
    2.9275   -1.5890    1.0613 H   0  0  0  0  0  0  0  0  0  0  0  0
    6.9355   -0.4590    1.3225 H   0  0  0  0  0  0  0  0  0  0  0  0
    7.3651   -1.7501    0.1758 H   0  0  0  0  0  0  0  0  0  0  0  0
    7.9253    0.4584   -0.8300 H   0  0  0  0  0  0  0  0  0  0  0  0
    6.5919   -0.2726   -1.7505 H   0  0  0  0  0  0  0  0  0  0  0  0
   -1.1166   -2.5600   -0.0194 H   0  0  0  0  0  0  0  0  0  0  0  0
   -2.3076   -4.1712   -1.4289 H   0  0  0  0  0  0  0  0  0  0  0  0
   -4.6594   -3.7559   -2.1163 H   0  0  0  0  0  0  0  0  0  0  0  0
   -5.8320   -1.7343   -1.3200 H   0  0  0  0  0  0  0  0  0  0  0  0
  1  2  1  0
  2  3  1  0
  3  4  1  0
  4  5  2  0
  4  6  1  0
  6  7  1  0
  7  8  1  0
  8  9  2  0
  8 10  1  0
 10 11  1  0
 11 12  2  0
 12 13  1  0
 13 14  2  0
 14 15  1  0
 15 16  2  0
 15 17  1  0
 17 18  1  0
 18 19  1  0
 19 20  1  0
  6 21  1  0
 21 22  2  0
 22 23  1  0
 23 24  2  0
 24 25  1  0
 25 26  2  0
 26 27  1  0
 27  2  1  0
 16 11  1  0
 26 21  1  0
 20 14  1  0
  1 28  1  0
  1 29  1  0
  1 30  1  0
  2 31  1  0
  3 32  1  0
  3 33  1  0
  7 34  1  0
  7 35  1  0
 10 36  1  0
 12 37  1  0
 13 38  1  0
 16 39  1  0
 18 40  1  0
 18 41  1  0
 19 42  1  0
 19 43  1  0
 22 44  1  0
 23 45  1  0
 24 46  1  0
 25 47  1  0
M  END
$$$$
