
     RDKit          3D

 41 43  0  0  0  0  0  0  0  0999 V2000
    5.7777    2.7073    3.6846 C   0  0  0  0  0  0  0  0  0  0  0  0
    4.9702    1.9114    2.9671 C   0  0  0  0  0  0  0  0  0  0  0  0
    5.4725    0.6570    2.4203 C   0  0  0  0  0  0  0  0  0  0  0  0
    4.6661   -0.1428    1.6989 C   0  0  0  0  0  0  0  0  0  0  0  0
    3.2555    0.2221    1.4389 C   0  0  0  0  0  0  0  0  0  0  0  0
    2.4442   -0.5834    0.7083 C   0  0  0  0  0  0  0  0  0  0  0  0
    2.8210   -1.7783    0.1514 N   0  0  0  0  0  0  0  0  0  0  0  0
    1.8883   -2.4835   -0.5616 C   0  0  0  0  0  0  0  0  0  0  0  0
    2.0886   -3.5579   -1.1039 O   0  0  0  0  0  0  0  0  0  0  0  0
    0.6119   -1.7272   -0.5615 C   0  0  0  0  0  0  0  0  0  0  0  0
   -0.4759   -2.2043   -1.1824 C   0  0  0  0  0  0  0  0  0  0  0  0
   -1.7910   -1.5574   -1.2433 C   0  0  0  0  0  0  0  0  0  0  0  0
   -2.8894   -2.1909   -0.6594 C   0  0  0  0  0  0  0  0  0  0  0  0
   -4.1571   -1.6055   -0.7183 C   0  0  0  0  0  0  0  0  0  0  0  0
   -4.3413   -0.3804   -1.3672 C   0  0  0  0  0  0  0  0  0  0  0  0
   -5.5470    0.2680   -1.4729 O   0  0  0  0  0  0  0  0  0  0  0  0
   -6.6808   -0.3476   -0.8798 C   0  0  0  0  0  0  0  0  0  0  0  0
   -3.2377    0.2614   -1.9651 C   0  0  0  0  0  0  0  0  0  0  0  0
   -3.5008    1.4574   -2.5879 O   0  0  0  0  0  0  0  0  0  0  0  0
   -2.3982    2.1840   -3.1105 C   0  0  0  0  0  0  0  0  0  0  0  0
   -1.9724   -0.3364   -1.9053 C   0  0  0  0  0  0  0  0  0  0  0  0
    0.7651   -0.2570    0.3340 S   0  0  0  0  0  0  0  0  0  0  0  0
    2.7731    1.4993    2.0100 C   0  0  0  0  0  0  0  0  0  0  0  0
    3.5841    2.2944    2.7304 C   0  0  0  0  0  0  0  0  0  0  0  0
    6.8140    2.4479    3.8776 H   0  0  0  0  0  0  0  0  0  0  0  0
    5.4299    3.6464    4.1040 H   0  0  0  0  0  0  0  0  0  0  0  0
    6.5050    0.3758    2.6025 H   0  0  0  0  0  0  0  0  0  0  0  0
    5.0775   -1.0658    1.3108 H   0  0  0  0  0  0  0  0  0  0  0  0
    3.7440   -2.1718    0.2387 H   0  0  0  0  0  0  0  0  0  0  0  0
   -0.4237   -3.1697   -1.6842 H   0  0  0  0  0  0  0  0  0  0  0  0
   -2.7694   -3.1440   -0.1484 H   0  0  0  0  0  0  0  0  0  0  0  0
   -4.9795   -2.1326   -0.2469 H   0  0  0  0  0  0  0  0  0  0  0  0
   -7.5444    0.3005   -1.0572 H   0  0  0  0  0  0  0  0  0  0  0  0
   -6.5562   -0.4452    0.2037 H   0  0  0  0  0  0  0  0  0  0  0  0
   -6.8923   -1.3166   -1.3437 H   0  0  0  0  0  0  0  0  0  0  0  0
   -1.6753    2.4290   -2.3252 H   0  0  0  0  0  0  0  0  0  0  0  0
   -1.9222    1.6393   -3.9324 H   0  0  0  0  0  0  0  0  0  0  0  0
   -2.7802    3.1263   -3.5151 H   0  0  0  0  0  0  0  0  0  0  0  0
   -1.1120    0.1302   -2.3733 H   0  0  0  0  0  0  0  0  0  0  0  0
    1.7464    1.8131    1.8540 H   0  0  0  0  0  0  0  0  0  0  0  0
    3.2119    3.2273    3.1420 H   0  0  0  0  0  0  0  0  0  0  0  0
  1  2  2  0
  2  3  1  0
  3  4  2  0
  4  5  1  0
  5  6  2  3
  6  7  1  0
  7  8  1  0
  8  9  2  0
  8 10  1  0
 10 11  2  3
 11 12  1  0
 12 13  2  0
 13 14  1  0
 14 15  2  0
 15 16  1  0
 16 17  1  0
 15 18  1  0
 18 19  1  0
 19 20  1  0
 18 21  2  0
 10 22  1  0
  5 23  1  0
 23 24  2  0
 24  2  1  0
 22  6  1  0
 21 12  1  0
  1 25  1  0
  1 26  1  0
  3 27  1  0
  4 28  1  0
  7 29  1  0
 11 30  1  0
 13 31  1  0
 14 32  1  0
 17 33  1  0
 17 34  1  0
 17 35  1  0
 20 36  1  0
 20 37  1  0
 20 38  1  0
 21 39  1  0
 23 40  1  0
 24 41  1  0
M  END
$$$$
