
     RDKit          3D

 56 59  0  0  0  0  0  0  0  0999 V2000
   -2.7023    4.0433   -1.2955 C   0  0  0  0  0  0  0  0  0  0  0  0
   -2.1633    3.5267    0.0271 C   0  0  0  0  0  0  0  0  0  0  0  0
   -3.4263    2.5925    0.9566 S   0  0  0  0  0  0  0  0  0  0  0  0
   -3.5130    1.1045   -0.0242 C   0  0  0  0  0  0  0  0  0  0  0  0
   -4.6931    0.7919   -0.6827 C   0  0  0  0  0  0  0  0  0  0  0  0
   -4.7587   -0.3641   -1.4532 C   0  0  0  0  0  0  0  0  0  0  0  0
   -3.6505   -1.2257   -1.5689 C   0  0  0  0  0  0  0  0  0  0  0  0
   -2.4443   -0.9526   -0.8935 C   0  0  0  0  0  0  0  0  0  0  0  0
   -2.4174    0.2335   -0.1222 C   0  0  0  0  0  0  0  0  0  0  0  0
   -1.3115   -1.8128   -1.0050 N   0  0  0  0  0  0  0  0  0  0  0  0
   -0.2176   -1.6258   -0.0183 C   0  0  0  0  0  0  0  0  0  0  0  0
    0.8523   -0.6575   -0.5475 C   0  0  0  0  0  0  0  0  0  0  0  0
    2.0658   -0.5632    0.3859 C   0  0  0  0  0  0  0  0  0  0  0  0
    1.7261   -0.1236    1.7461 N   0  0  0  0  0  0  0  0  0  0  0  0
    1.3868    1.3158    1.8276 C   0  0  0  0  0  0  0  0  0  0  0  0
    2.5855    2.2847    1.6793 C   0  0  0  0  0  0  0  0  0  0  0  0
    3.6715    1.9823    2.6270 N   0  0  0  0  0  0  0  0  0  0  0  0
    4.8210    2.8547    2.4066 C   0  0  0  0  0  0  0  0  0  0  0  0
    4.0556    0.5634    2.5326 C   0  0  0  0  0  0  0  0  0  0  0  0
    2.8401   -0.3811    2.6889 C   0  0  0  0  0  0  0  0  0  0  0  0
   -1.1862   -2.9007   -1.9187 C   0  0  0  0  0  0  0  0  0  0  0  0
    0.0400   -3.5741   -2.1278 C   0  0  0  0  0  0  0  0  0  0  0  0
    0.1763   -4.6359   -3.0310 C   0  0  0  0  0  0  0  0  0  0  0  0
   -0.9156   -5.0631   -3.7659 C   0  0  0  0  0  0  0  0  0  0  0  0
   -2.1367   -4.4226   -3.5944 C   0  0  0  0  0  0  0  0  0  0  0  0
   -2.2779   -3.3521   -2.6880 C   0  0  0  0  0  0  0  0  0  0  0  0
   -3.9119   -2.6646   -2.5761 S   0  0  0  0  0  0  0  0  0  0  0  0
   -1.9393    4.6502   -1.7944 H   0  0  0  0  0  0  0  0  0  0  0  0
   -2.9662    3.2272   -1.9754 H   0  0  0  0  0  0  0  0  0  0  0  0
   -3.5845    4.6759   -1.1503 H   0  0  0  0  0  0  0  0  0  0  0  0
   -1.2721    2.9126   -0.1329 H   0  0  0  0  0  0  0  0  0  0  0  0
   -1.8625    4.3761    0.6491 H   0  0  0  0  0  0  0  0  0  0  0  0
   -5.5632    1.4390   -0.6094 H   0  0  0  0  0  0  0  0  0  0  0  0
   -5.6897   -0.5949   -1.9677 H   0  0  0  0  0  0  0  0  0  0  0  0
   -1.5270    0.5154    0.4280 H   0  0  0  0  0  0  0  0  0  0  0  0
    0.2367   -2.5885    0.2495 H   0  0  0  0  0  0  0  0  0  0  0  0
   -0.6147   -1.2855    0.9459 H   0  0  0  0  0  0  0  0  0  0  0  0
    0.4269    0.3354   -0.7254 H   0  0  0  0  0  0  0  0  0  0  0  0
    1.2082   -0.9920   -1.5292 H   0  0  0  0  0  0  0  0  0  0  0  0
    2.5085   -1.5672    0.4316 H   0  0  0  0  0  0  0  0  0  0  0  0
    2.8226    0.0816   -0.0750 H   0  0  0  0  0  0  0  0  0  0  0  0
    0.9188    1.4918    2.8059 H   0  0  0  0  0  0  0  0  0  0  0  0
    0.6174    1.5781    1.0946 H   0  0  0  0  0  0  0  0  0  0  0  0
    2.9535    2.2537    0.6458 H   0  0  0  0  0  0  0  0  0  0  0  0
    2.2222    3.3037    1.8600 H   0  0  0  0  0  0  0  0  0  0  0  0
    5.2533    2.7271    1.4076 H   0  0  0  0  0  0  0  0  0  0  0  0
    5.6026    2.6550    3.1479 H   0  0  0  0  0  0  0  0  0  0  0  0
    4.5344    3.9053    2.5262 H   0  0  0  0  0  0  0  0  0  0  0  0
    4.7731    0.3288    3.3282 H   0  0  0  0  0  0  0  0  0  0  0  0
    4.5550    0.3597    1.5765 H   0  0  0  0  0  0  0  0  0  0  0  0
    2.4476   -0.2815    3.7100 H   0  0  0  0  0  0  0  0  0  0  0  0
    3.1715   -1.4237    2.6069 H   0  0  0  0  0  0  0  0  0  0  0  0
    0.9442   -3.2850   -1.6029 H   0  0  0  0  0  0  0  0  0  0  0  0
    1.1410   -5.1210   -3.1559 H   0  0  0  0  0  0  0  0  0  0  0  0
   -0.8217   -5.8862   -4.4684 H   0  0  0  0  0  0  0  0  0  0  0  0
   -2.9914   -4.7648   -4.1751 H   0  0  0  0  0  0  0  0  0  0  0  0
  1  2  1  0
  2  3  1  0
  3  4  1  0
  4  5  2  0
  5  6  1  0
  6  7  2  0
  7  8  1  0
  8  9  2  0
  8 10  1  0
 10 11  1  0
 11 12  1  0
 12 13  1  0
 13 14  1  0
 14 15  1  0
 15 16  1  0
 16 17  1  0
 17 18  1  0
 17 19  1  0
 19 20  1  0
 10 21  1  0
 21 22  2  0
 22 23  1  0
 23 24  2  0
 24 25  1  0
 25 26  2  0
 26 27  1  0
  9  4  1  0
 20 14  1  0
 26 21  1  0
 27  7  1  0
  1 28  1  0
  1 29  1  0
  1 30  1  0
  2 31  1  0
  2 32  1  0
  5 33  1  0
  6 34  1  0
  9 35  1  0
 11 36  1  0
 11 37  1  0
 12 38  1  0
 12 39  1  0
 13 40  1  0
 13 41  1  0
 15 42  1  0
 15 43  1  0
 16 44  1  0
 16 45  1  0
 18 46  1  0
 18 47  1  0
 18 48  1  0
 19 49  1  0
 19 50  1  0
 20 51  1  0
 20 52  1  0
 22 53  1  0
 23 54  1  0
 24 55  1  0
 25 56  1  0
M  END
$$$$
