
     RDKit          3D

 72 77  0  0  0  0  0  0  0  0999 V2000
  -10.4781   -0.2243    0.2661 C   0  0  0  0  0  0  0  0  0  0  0  0
   -9.0936   -0.0112   -0.2708 C   0  0  0  0  0  0  0  0  0  0  0  0
   -8.7872    1.1299   -1.0114 C   0  0  0  0  0  0  0  0  0  0  0  0
   -7.5038    1.3097   -1.5298 C   0  0  0  0  0  0  0  0  0  0  0  0
   -6.4983    0.3484   -1.3331 C   0  0  0  0  0  0  0  0  0  0  0  0
   -5.1341    0.6112   -1.9101 C   0  0  0  0  0  0  0  0  0  0  0  0
   -6.7973   -0.8155   -0.5942 C   0  0  0  0  0  0  0  0  0  0  0  0
   -5.7791   -1.9021   -0.3180 C   0  0  0  0  0  0  0  0  0  0  0  0
   -5.2779   -1.8432    1.0418 N   0  0  0  0  0  0  0  0  0  0  0  0
   -5.9605   -2.4280    2.0609 N   0  0  0  0  0  0  0  0  0  0  0  0
   -5.2663   -2.2342    3.1818 N   0  0  0  0  0  0  0  0  0  0  0  0
   -4.1333   -1.5638    2.8424 C   0  0  0  0  0  0  0  0  0  0  0  0
   -3.0313   -1.1138    3.6467 C   0  0  0  0  0  0  0  0  0  0  0  0
   -2.9170   -1.2548    4.8592 O   0  0  0  0  0  0  0  0  0  0  0  0
   -2.0552   -0.4788    2.8883 N   0  0  0  0  0  0  0  0  0  0  0  0
   -2.1199   -0.3151    1.5089 C   0  0  0  0  0  0  0  0  0  0  0  0
   -0.9408    0.3884    0.8528 C   0  0  0  0  0  0  0  0  0  0  0  0
    0.3700   -0.3902    1.0570 C   0  0  0  0  0  0  0  0  0  0  0  0
    1.5090    0.4966    1.5550 C   0  0  0  0  0  0  0  0  0  0  0  0
    1.5818    1.6935    0.6892 N   0  0  0  0  0  0  0  0  0  0  0  0
    3.0371    2.5893    0.7747 S   0  0  0  0  0  6  0  0  0  0  0  0
    3.3037    2.8251    2.1784 O   0  0  0  0  0  0  0  0  0  0  0  0
    2.9510    3.6784   -0.1735 O   0  0  0  0  0  0  0  0  0  0  0  0
    4.2455    1.4462    0.1516 C   0  0  0  0  0  0  0  0  0  0  0  0
    4.1319    0.9949   -1.1692 C   0  0  0  0  0  0  0  0  0  0  0  0
    5.0710    0.0928   -1.6709 C   0  0  0  0  0  0  0  0  0  0  0  0
    6.1194   -0.3371   -0.8489 C   0  0  0  0  0  0  0  0  0  0  0  0
    7.3090   -1.5068   -1.4632 S   0  0  0  0  0  6  0  0  0  0  0  0
    6.8299   -2.0168   -2.7299 O   0  0  0  0  0  0  0  0  0  0  0  0
    7.6647   -2.3823   -0.3680 O   0  0  0  0  0  0  0  0  0  0  0  0
    8.6081   -0.4726   -1.8298 N   0  0  0  0  0  0  0  0  0  0  0  0
    9.9243   -0.9511   -1.3823 C   0  0  0  0  0  0  0  0  0  0  0  0
   10.7835   -1.8269   -2.2489 C   0  0  0  0  0  0  0  0  0  0  0  0
   11.1763   -0.3965   -2.0039 C   0  0  0  0  0  0  0  0  0  0  0  0
    6.2311    0.1139    0.4723 C   0  0  0  0  0  0  0  0  0  0  0  0
    5.2919    1.0151    0.9744 C   0  0  0  0  0  0  0  0  0  0  0  0
    0.3624    2.5519    0.7258 C   0  0  0  0  0  0  0  0  0  0  0  0
   -0.8368    1.8353    1.3404 C   0  0  0  0  0  0  0  0  0  0  0  0
   -3.1162   -0.7212    0.7709 N   0  0  0  0  0  0  0  0  0  0  0  0
   -4.0950   -1.3255    1.4893 C   0  0  0  0  0  0  0  0  0  0  0  0
   -8.1012   -0.9793   -0.0798 C   0  0  0  0  0  0  0  0  0  0  0  0
  -11.0921   -0.7391   -0.4795 H   0  0  0  0  0  0  0  0  0  0  0  0
  -10.4550   -0.8255    1.1813 H   0  0  0  0  0  0  0  0  0  0  0  0
  -10.9515    0.7313    0.5169 H   0  0  0  0  0  0  0  0  0  0  0  0
   -9.5445    1.8906   -1.1870 H   0  0  0  0  0  0  0  0  0  0  0  0
   -7.2939    2.2161   -2.0951 H   0  0  0  0  0  0  0  0  0  0  0  0
   -4.4083    0.7709   -1.1086 H   0  0  0  0  0  0  0  0  0  0  0  0
   -4.8141   -0.2217   -2.5438 H   0  0  0  0  0  0  0  0  0  0  0  0
   -5.1310    1.5073   -2.5405 H   0  0  0  0  0  0  0  0  0  0  0  0
   -4.9228   -1.8580   -0.9970 H   0  0  0  0  0  0  0  0  0  0  0  0
   -6.2332   -2.8903   -0.4627 H   0  0  0  0  0  0  0  0  0  0  0  0
   -1.2657   -0.1499    3.4232 H   0  0  0  0  0  0  0  0  0  0  0  0
   -1.1467    0.4153   -0.2270 H   0  0  0  0  0  0  0  0  0  0  0  0
    0.6603   -0.8260    0.0914 H   0  0  0  0  0  0  0  0  0  0  0  0
    0.2487   -1.2399    1.7381 H   0  0  0  0  0  0  0  0  0  0  0  0
    2.4366   -0.0811    1.5077 H   0  0  0  0  0  0  0  0  0  0  0  0
    1.3517    0.7874    2.5997 H   0  0  0  0  0  0  0  0  0  0  0  0
    3.3179    1.3434   -1.8024 H   0  0  0  0  0  0  0  0  0  0  0  0
    4.9802   -0.2656   -2.6945 H   0  0  0  0  0  0  0  0  0  0  0  0
    8.5861   -0.2885   -2.8360 H   0  0  0  0  0  0  0  0  0  0  0  0
    9.9622   -1.1182   -0.3075 H   0  0  0  0  0  0  0  0  0  0  0  0
   10.4188   -2.0993   -3.2322 H   0  0  0  0  0  0  0  0  0  0  0  0
   11.3578   -2.6062   -1.7587 H   0  0  0  0  0  0  0  0  0  0  0  0
   12.0247   -0.2099   -1.3557 H   0  0  0  0  0  0  0  0  0  0  0  0
   11.0846    0.3035   -2.8258 H   0  0  0  0  0  0  0  0  0  0  0  0
    7.0453   -0.2310    1.1072 H   0  0  0  0  0  0  0  0  0  0  0  0
    5.3818    1.3728    1.9982 H   0  0  0  0  0  0  0  0  0  0  0  0
    0.1279    2.8340   -0.3075 H   0  0  0  0  0  0  0  0  0  0  0  0
    0.5450    3.4724    1.2920 H   0  0  0  0  0  0  0  0  0  0  0  0
   -0.7499    1.8661    2.4339 H   0  0  0  0  0  0  0  0  0  0  0  0
   -1.7559    2.3849    1.1020 H   0  0  0  0  0  0  0  0  0  0  0  0
   -8.3436   -1.8755    0.4930 H   0  0  0  0  0  0  0  0  0  0  0  0
  1  2  1  0
  2  3  2  0
  3  4  1  0
  4  5  2  0
  5  6  1  0
  5  7  1  0
  7  8  1  0
  8  9  1  0
  9 10  1  0
 10 11  2  0
 11 12  1  0
 12 13  1  0
 13 14  2  0
 13 15  1  0
 15 16  1  0
 16 17  1  0
 17 18  1  0
 18 19  1  0
 19 20  1  0
 20 21  1  0
 21 22  2  0
 21 23  2  0
 21 24  1  0
 24 25  2  0
 25 26  1  0
 26 27  2  0
 27 28  1  0
 28 29  2  0
 28 30  2  0
 28 31  1  0
 31 32  1  0
 32 33  1  0
 33 34  1  0
 27 35  1  0
 35 36  2  0
 20 37  1  0
 37 38  1  0
 16 39  2  0
 39 40  1  0
  7 41  2  0
 41  2  1  0
 40  9  1  0
 40 12  2  0
 38 17  1  0
 36 24  1  0
 34 32  1  0
  1 42  1  0
  1 43  1  0
  1 44  1  0
  3 45  1  0
  4 46  1  0
  6 47  1  0
  6 48  1  0
  6 49  1  0
  8 50  1  0
  8 51  1  0
 15 52  1  0
 17 53  1  0
 18 54  1  0
 18 55  1  0
 19 56  1  0
 19 57  1  0
 25 58  1  0
 26 59  1  0
 31 60  1  0
 32 61  1  0
 33 62  1  0
 33 63  1  0
 34 64  1  0
 34 65  1  0
 35 66  1  0
 36 67  1  0
 37 68  1  0
 37 69  1  0
 38 70  1  0
 38 71  1  0
 41 72  1  0
M  END
$$$$
