
     RDKit          3D

 50 53  0  0  0  0  0  0  0  0999 V2000
   -4.8156   -4.2259   -1.2407 C   0  0  0  0  0  0  0  0  0  0  0  0
   -4.2634   -3.0275   -0.4900 C   0  0  0  0  0  0  0  0  0  0  0  0
   -3.4178   -2.3019   -1.3808 O   0  0  0  0  0  0  0  0  0  0  0  0
   -2.8366   -1.1619   -0.9005 C   0  0  0  0  0  0  0  0  0  0  0  0
   -2.0599   -0.4680   -1.8314 C   0  0  0  0  0  0  0  0  0  0  0  0
   -1.4073    0.7152   -1.4780 C   0  0  0  0  0  0  0  0  0  0  0  0
   -1.5281    1.2183   -0.1800 C   0  0  0  0  0  0  0  0  0  0  0  0
   -0.8133    2.4274    0.2072 C   0  0  0  0  0  0  0  0  0  0  0  0
    0.5322    2.6325    0.5083 C   0  0  0  0  0  0  0  0  0  0  0  0
    1.6739    1.7078    0.5546 C   0  0  0  0  0  0  0  0  0  0  0  0
    2.8233    2.1398    0.6205 O   0  0  0  0  0  0  0  0  0  0  0  0
    1.3554    0.3492    0.5438 N   0  0  0  0  0  0  0  0  0  0  0  0
    2.2439   -0.6867    0.7139 N   0  0  0  0  0  0  0  0  0  0  0  0
    3.4318   -0.5677    0.2101 C   0  0  0  0  0  0  0  0  0  0  0  0
    4.4577   -1.6167    0.3882 C   0  0  0  0  0  0  0  0  0  0  0  0
    5.7305   -1.4105   -0.1557 C   0  0  0  0  0  0  0  0  0  0  0  0
    6.7187   -2.3868   -0.0043 C   0  0  0  0  0  0  0  0  0  0  0  0
    6.4231   -3.5578    0.6888 C   0  0  0  0  0  0  0  0  0  0  0  0
    7.3574   -4.5357    0.8596 O   0  0  0  0  0  0  0  0  0  0  0  0
    5.1601   -3.7689    1.2324 C   0  0  0  0  0  0  0  0  0  0  0  0
    4.1712   -2.7953    1.0839 C   0  0  0  0  0  0  0  0  0  0  0  0
    0.7244    3.9650    0.7758 N   0  0  0  0  0  0  0  0  0  0  0  0
   -0.4287    4.5942    0.6613 N   0  0  0  0  0  0  0  0  0  0  0  0
   -1.3882    3.7039    0.2902 N   0  0  0  0  0  0  0  0  0  0  0  0
   -2.7247    4.1211    0.0588 C   0  0  0  0  0  0  0  0  0  0  0  0
   -3.6783    3.2495   -0.2710 N   0  0  0  0  0  0  0  0  0  0  0  0
   -4.8259    4.0298   -0.3951 O   0  0  0  0  0  0  0  0  0  0  0  0
   -4.5564    5.3687   -0.1334 N   0  0  0  0  0  0  0  0  0  0  0  0
   -3.2529    5.4242    0.1368 C   0  0  0  0  0  0  0  0  0  0  0  0
   -2.5862    6.5554    0.4298 N   0  0  0  0  0  0  0  0  0  0  0  0
   -2.2997    0.5206    0.7572 C   0  0  0  0  0  0  0  0  0  0  0  0
   -2.9536   -0.6632    0.3968 C   0  0  0  0  0  0  0  0  0  0  0  0
   -5.4770   -4.8161   -0.6006 H   0  0  0  0  0  0  0  0  0  0  0  0
   -5.3747   -3.9027   -2.1250 H   0  0  0  0  0  0  0  0  0  0  0  0
   -4.0017   -4.8670   -1.5950 H   0  0  0  0  0  0  0  0  0  0  0  0
   -3.6901   -3.3804    0.3749 H   0  0  0  0  0  0  0  0  0  0  0  0
   -5.0969   -2.3977   -0.1583 H   0  0  0  0  0  0  0  0  0  0  0  0
   -1.9642   -0.8541   -2.8441 H   0  0  0  0  0  0  0  0  0  0  0  0
   -0.8094    1.2308   -2.2263 H   0  0  0  0  0  0  0  0  0  0  0  0
    0.4037    0.0777    0.7622 H   0  0  0  0  0  0  0  0  0  0  0  0
    3.7373    0.2976   -0.4024 H   0  0  0  0  0  0  0  0  0  0  0  0
    5.9629   -0.4942   -0.6927 H   0  0  0  0  0  0  0  0  0  0  0  0
    7.7034   -2.2171   -0.4288 H   0  0  0  0  0  0  0  0  0  0  0  0
    8.1901   -4.2485    0.4499 H   0  0  0  0  0  0  0  0  0  0  0  0
    4.9461   -4.6877    1.7710 H   0  0  0  0  0  0  0  0  0  0  0  0
    3.1854   -2.9616    1.5099 H   0  0  0  0  0  0  0  0  0  0  0  0
   -3.0997    7.4089    0.6211 H   0  0  0  0  0  0  0  0  0  0  0  0
   -1.6275    6.5421    0.7754 H   0  0  0  0  0  0  0  0  0  0  0  0
   -2.4080    0.8909    1.7749 H   0  0  0  0  0  0  0  0  0  0  0  0
   -3.5467   -1.1689    1.1519 H   0  0  0  0  0  0  0  0  0  0  0  0
  1  2  1  0
  2  3  1  0
  3  4  1  0
  4  5  2  0
  5  6  1  0
  6  7  2  0
  7  8  1  0
  8  9  2  0
  9 10  1  0
 10 11  2  0
 10 12  1  0
 12 13  1  0
 13 14  2  3
 14 15  1  0
 15 16  2  0
 16 17  1  0
 17 18  2  0
 18 19  1  0
 18 20  1  0
 20 21  2  0
  9 22  1  0
 22 23  2  0
 23 24  1  0
 24 25  1  0
 25 26  2  0
 26 27  1  0
 27 28  1  0
 28 29  2  0
 29 30  1  0
  7 31  1  0
 31 32  2  0
 32  4  1  0
 24  8  1  0
 29 25  1  0
 21 15  1  0
  1 33  1  0
  1 34  1  0
  1 35  1  0
  2 36  1  0
  2 37  1  0
  5 38  1  0
  6 39  1  0
 12 40  1  0
 14 41  1  0
 16 42  1  0
 17 43  1  0
 19 44  1  0
 20 45  1  0
 21 46  1  0
 30 47  1  0
 30 48  1  0
 31 49  1  0
 32 50  1  0
M  END
$$$$
