
     RDKit          3D

 52 54  0  0  0  0  0  0  0  0999 V2000
   -5.2903   -0.9461    1.2217 C   0  0  0  0  0  0  0  0  0  0  0  0
   -4.1513   -1.0728    0.3218 N   0  0  0  0  0  0  0  0  0  0  0  0
   -4.3581   -1.8742   -0.8862 C   0  0  0  0  0  0  0  0  0  0  0  0
   -5.3538   -1.2708   -1.8509 C   0  0  0  0  0  0  0  0  0  0  0  0
   -6.3857   -2.0628   -2.3777 C   0  0  0  0  0  0  0  0  0  0  0  0
   -7.2984   -1.5285   -3.2893 C   0  0  0  0  0  0  0  0  0  0  0  0
   -7.1874   -0.1992   -3.6904 C   0  0  0  0  0  0  0  0  0  0  0  0
   -6.1626    0.5965   -3.1828 C   0  0  0  0  0  0  0  0  0  0  0  0
   -5.2482    0.0637   -2.2721 C   0  0  0  0  0  0  0  0  0  0  0  0
   -3.0094   -0.3264    0.5929 C   0  0  0  0  0  0  0  0  0  0  0  0
   -2.9466    0.4519    1.5493 O   0  0  0  0  0  0  0  0  0  0  0  0
   -1.8068   -0.4894   -0.3493 C   0  0  0  0  0  0  0  0  0  0  0  0
   -0.6699    0.2541    0.0996 O   0  0  0  0  0  0  0  0  0  0  0  0
   -0.0150   -0.3163    1.1509 C   0  0  0  0  0  0  0  0  0  0  0  0
   -0.2467   -1.4331    1.6014 O   0  0  0  0  0  0  0  0  0  0  0  0
    1.0284    0.6374    1.6987 C   0  0  0  0  0  0  0  0  0  0  0  0
    1.9273   -0.0805    2.6123 N   0  0  0  0  0  0  0  0  0  0  0  0
    3.2166    0.7406    3.2765 S   0  0  0  0  0  6  0  0  0  0  0  0
    2.8401    2.1297    3.4130 O   0  0  0  0  0  0  0  0  0  0  0  0
    3.6755   -0.0431    4.4008 O   0  0  0  0  0  0  0  0  0  0  0  0
    4.4338    0.6000    1.9946 C   0  0  0  0  0  0  0  0  0  0  0  0
    5.0529   -0.6316    1.7765 C   0  0  0  0  0  0  0  0  0  0  0  0
    6.0138   -0.7474    0.7714 C   0  0  0  0  0  0  0  0  0  0  0  0
    6.3664    0.3621   -0.0156 C   0  0  0  0  0  0  0  0  0  0  0  0
    7.3309    0.2588   -1.0303 C   0  0  0  0  0  0  0  0  0  0  0  0
    7.6759    1.3692   -1.8026 C   0  0  0  0  0  0  0  0  0  0  0  0
    7.0626    2.5969   -1.5701 C   0  0  0  0  0  0  0  0  0  0  0  0
    6.1016    2.7182   -0.5652 C   0  0  0  0  0  0  0  0  0  0  0  0
    5.7416    1.6113    0.2196 C   0  0  0  0  0  0  0  0  0  0  0  0
    4.7767    1.7203    1.2323 C   0  0  0  0  0  0  0  0  0  0  0  0
   -4.9954   -0.5401    2.1934 H   0  0  0  0  0  0  0  0  0  0  0  0
   -5.7361   -1.9326    1.3809 H   0  0  0  0  0  0  0  0  0  0  0  0
   -6.0292   -0.2759    0.7727 H   0  0  0  0  0  0  0  0  0  0  0  0
   -3.4233   -2.0358   -1.4280 H   0  0  0  0  0  0  0  0  0  0  0  0
   -4.6968   -2.8627   -0.5525 H   0  0  0  0  0  0  0  0  0  0  0  0
   -6.4905   -3.1043   -2.0804 H   0  0  0  0  0  0  0  0  0  0  0  0
   -8.0970   -2.1502   -3.6869 H   0  0  0  0  0  0  0  0  0  0  0  0
   -7.8993    0.2172   -4.3984 H   0  0  0  0  0  0  0  0  0  0  0  0
   -6.0762    1.6345   -3.4947 H   0  0  0  0  0  0  0  0  0  0  0  0
   -4.4608    0.7065   -1.8864 H   0  0  0  0  0  0  0  0  0  0  0  0
   -1.5438   -1.5461   -0.4668 H   0  0  0  0  0  0  0  0  0  0  0  0
   -2.0797   -0.0870   -1.3296 H   0  0  0  0  0  0  0  0  0  0  0  0
    1.6021    1.0512    0.8645 H   0  0  0  0  0  0  0  0  0  0  0  0
    0.4996    1.4284    2.2385 H   0  0  0  0  0  0  0  0  0  0  0  0
    1.5111   -0.7941    3.2149 H   0  0  0  0  0  0  0  0  0  0  0  0
    4.7938   -1.4974    2.3823 H   0  0  0  0  0  0  0  0  0  0  0  0
    6.4907   -1.7119    0.6077 H   0  0  0  0  0  0  0  0  0  0  0  0
    7.8246   -0.6907   -1.2264 H   0  0  0  0  0  0  0  0  0  0  0  0
    8.4259    1.2750   -2.5838 H   0  0  0  0  0  0  0  0  0  0  0  0
    7.3334    3.4626   -2.1694 H   0  0  0  0  0  0  0  0  0  0  0  0
    5.6366    3.6877   -0.3979 H   0  0  0  0  0  0  0  0  0  0  0  0
    4.2964    2.6775    1.4265 H   0  0  0  0  0  0  0  0  0  0  0  0
  1  2  1  0
  2  3  1  0
  3  4  1  0
  4  5  2  0
  5  6  1  0
  6  7  2  0
  7  8  1  0
  8  9  2  0
  2 10  1  0
 10 11  2  0
 10 12  1  0
 12 13  1  0
 13 14  1  0
 14 15  2  0
 14 16  1  0
 16 17  1  0
 17 18  1  0
 18 19  2  0
 18 20  2  0
 18 21  1  0
 21 22  2  0
 22 23  1  0
 23 24  2  0
 24 25  1  0
 25 26  2  0
 26 27  1  0
 27 28  2  0
 28 29  1  0
 29 30  2  0
  9  4  1  0
 30 21  1  0
 29 24  1  0
  1 31  1  0
  1 32  1  0
  1 33  1  0
  3 34  1  0
  3 35  1  0
  5 36  1  0
  6 37  1  0
  7 38  1  0
  8 39  1  0
  9 40  1  0
 12 41  1  0
 12 42  1  0
 16 43  1  0
 16 44  1  0
 17 45  1  0
 22 46  1  0
 23 47  1  0
 25 48  1  0
 26 49  1  0
 27 50  1  0
 28 51  1  0
 30 52  1  0
M  END
$$$$
