
     RDKit          3D

 52 55  0  0  0  0  0  0  0  0999 V2000
    5.8336    3.3324    1.9949 C   0  0  0  0  0  0  0  0  0  0  0  0
    5.8611    2.1205    1.2478 O   0  0  0  0  0  0  0  0  0  0  0  0
    4.7464    1.3305    1.3161 C   0  0  0  0  0  0  0  0  0  0  0  0
    3.5693    1.6232    2.0064 C   0  0  0  0  0  0  0  0  0  0  0  0
    2.4926    0.7244    1.9859 C   0  0  0  0  0  0  0  0  0  0  0  0
    2.5782   -0.4713    1.2706 C   0  0  0  0  0  0  0  0  0  0  0  0
    1.5298   -1.4080    1.1669 N   0  0  0  0  0  0  0  0  0  0  0  0
    0.2345   -1.2797    1.6367 C   0  0  0  0  0  0  0  0  0  0  0  0
   -0.2075   -0.3637    2.3235 O   0  0  0  0  0  0  0  0  0  0  0  0
   -0.6715   -2.4335    1.2283 C   0  0  0  0  0  0  0  0  0  0  0  0
   -0.8457   -2.5921   -0.5734 S   0  0  0  0  0  0  0  0  0  0  0  0
   -0.9145   -0.8822   -1.0075 C   0  0  0  0  0  0  0  0  0  0  0  0
    0.2068   -0.4145   -1.4658 N   0  0  0  0  0  0  0  0  0  0  0  0
    0.2716    0.9352   -1.6311 C   0  0  0  0  0  0  0  0  0  0  0  0
   -0.7084    1.7909   -1.3437 C   0  0  0  0  0  0  0  0  0  0  0  0
   -2.0102    1.2750   -0.8694 C   0  0  0  0  0  0  0  0  0  0  0  0
   -2.9453    2.0436   -0.6492 O   0  0  0  0  0  0  0  0  0  0  0  0
   -2.0552   -0.1206   -0.7420 N   0  0  0  0  0  0  0  0  0  0  0  0
   -3.3222   -0.7099   -0.4239 C   0  0  0  0  0  0  0  0  0  0  0  0
   -3.9787   -0.3218    0.7524 C   0  0  0  0  0  0  0  0  0  0  0  0
   -5.1968   -0.9012    1.1054 C   0  0  0  0  0  0  0  0  0  0  0  0
   -5.7746   -1.8603    0.2793 C   0  0  0  0  0  0  0  0  0  0  0  0
   -5.1492   -2.2290   -0.9149 C   0  0  0  0  0  0  0  0  0  0  0  0
   -3.9319   -1.6489   -1.2849 C   0  0  0  0  0  0  0  0  0  0  0  0
   -3.2911   -1.8883   -2.4744 O   0  0  0  0  0  0  0  0  0  0  0  0
   -3.8729   -2.8413   -3.3578 C   0  0  0  0  0  0  0  0  0  0  0  0
   -0.3296    3.4509   -1.5781 S   0  0  0  0  0  0  0  0  0  0  0  0
    1.4496    3.0704   -1.7610 C   0  0  0  0  0  0  0  0  0  0  0  0
    1.5359    1.5810   -2.1131 C   0  0  0  0  0  0  0  0  0  0  0  0
    3.7637   -0.7644    0.5865 C   0  0  0  0  0  0  0  0  0  0  0  0
    4.8378    0.1304    0.6103 C   0  0  0  0  0  0  0  0  0  0  0  0
    5.0347    3.9972    1.6479 H   0  0  0  0  0  0  0  0  0  0  0  0
    6.7848    3.8477    1.8311 H   0  0  0  0  0  0  0  0  0  0  0  0
    5.7455    3.1287    3.0662 H   0  0  0  0  0  0  0  0  0  0  0  0
    3.4486    2.5421    2.5724 H   0  0  0  0  0  0  0  0  0  0  0  0
    1.5960    0.9997    2.5368 H   0  0  0  0  0  0  0  0  0  0  0  0
    1.6904   -2.1717    0.5199 H   0  0  0  0  0  0  0  0  0  0  0  0
   -0.2622   -3.3664    1.6292 H   0  0  0  0  0  0  0  0  0  0  0  0
   -1.6606   -2.2841    1.6766 H   0  0  0  0  0  0  0  0  0  0  0  0
   -3.5362    0.4227    1.4121 H   0  0  0  0  0  0  0  0  0  0  0  0
   -5.6932   -0.6050    2.0262 H   0  0  0  0  0  0  0  0  0  0  0  0
   -6.7245   -2.3156    0.5567 H   0  0  0  0  0  0  0  0  0  0  0  0
   -5.6506   -2.9610   -1.5393 H   0  0  0  0  0  0  0  0  0  0  0  0
   -4.8478   -2.4980   -3.7180 H   0  0  0  0  0  0  0  0  0  0  0  0
   -3.9485   -3.8287   -2.8884 H   0  0  0  0  0  0  0  0  0  0  0  0
   -3.2122   -2.9372   -4.2243 H   0  0  0  0  0  0  0  0  0  0  0  0
    1.9152    3.6973   -2.5264 H   0  0  0  0  0  0  0  0  0  0  0  0
    1.9446    3.2704   -0.8044 H   0  0  0  0  0  0  0  0  0  0  0  0
    2.4218    1.1364   -1.6504 H   0  0  0  0  0  0  0  0  0  0  0  0
    1.6255    1.4466   -3.1979 H   0  0  0  0  0  0  0  0  0  0  0  0
    3.8697   -1.6858    0.0193 H   0  0  0  0  0  0  0  0  0  0  0  0
    5.7530   -0.1130    0.0744 H   0  0  0  0  0  0  0  0  0  0  0  0
  1  2  1  0
  2  3  1  0
  3  4  2  0
  4  5  1  0
  5  6  2  0
  6  7  1  0
  7  8  1  0
  8  9  2  0
  8 10  1  0
 10 11  1  0
 11 12  1  0
 12 13  2  0
 13 14  1  0
 14 15  2  0
 15 16  1  0
 16 17  2  0
 16 18  1  0
 18 19  1  0
 19 20  2  0
 20 21  1  0
 21 22  2  0
 22 23  1  0
 23 24  2  0
 24 25  1  0
 25 26  1  0
 15 27  1  0
 27 28  1  0
 28 29  1  0
  6 30  1  0
 30 31  2  0
 31  3  1  0
 18 12  1  0
 24 19  1  0
 29 14  1  0
  1 32  1  0
  1 33  1  0
  1 34  1  0
  4 35  1  0
  5 36  1  0
  7 37  1  0
 10 38  1  0
 10 39  1  0
 20 40  1  0
 21 41  1  0
 22 42  1  0
 23 43  1  0
 26 44  1  0
 26 45  1  0
 26 46  1  0
 28 47  1  0
 28 48  1  0
 29 49  1  0
 29 50  1  0
 30 51  1  0
 31 52  1  0
M  END
$$$$
