
     RDKit          3D

 31 33  0  0  0  0  0  0  0  0999 V2000
   -1.0501   -2.8099   -4.5902 C   0  0  0  0  0  0  0  0  0  0  0  0
   -1.5981   -2.7636   -3.2551 N   0  0  0  0  0  0  0  0  0  0  0  0
   -2.6262   -3.5104   -2.7688 C   0  0  0  0  0  0  0  0  0  0  0  0
   -2.7812   -3.1147   -1.4653 C   0  0  0  0  0  0  0  0  0  0  0  0
   -4.0470   -3.7844   -0.2615 Br  0  0  0  0  0  0  0  0  0  0  0  0
   -1.8054   -2.1183   -1.2310 C   0  0  0  0  0  0  0  0  0  0  0  0
   -1.5169   -1.3458   -0.0047 C   0  0  0  0  0  0  0  0  0  0  0  0
   -2.1507   -1.5025    1.0304 O   0  0  0  0  0  0  0  0  0  0  0  0
   -0.4677   -0.4672   -0.2198 N   0  0  0  0  0  0  0  0  0  0  0  0
    0.1013    0.4253    0.6709 C   0  0  0  0  0  0  0  0  0  0  0  0
   -0.4759    0.5617    2.2858 S   0  0  0  0  0  0  0  0  0  0  0  0
    0.6522    1.7415    2.6287 C   0  0  0  0  0  0  0  0  0  0  0  0
    1.4650    2.0559    1.5770 C   0  0  0  0  0  0  0  0  0  0  0  0
    1.1574    1.2974    0.4248 C   0  0  0  0  0  0  0  0  0  0  0  0
    1.8349    1.4056   -0.8304 C   0  0  0  0  0  0  0  0  0  0  0  0
    2.3781    1.4856   -1.8529 N   0  0  0  0  0  0  0  0  0  0  0  0
    2.4384    3.1124    1.9520 C   0  0  0  0  0  0  0  0  0  0  0  0
    2.3129    3.1409    3.5086 C   0  0  0  0  0  0  0  0  0  0  0  0
    0.9305    2.5104    3.8633 C   0  0  0  0  0  0  0  0  0  0  0  0
   -1.0744   -1.9086   -2.3545 N   0  0  0  0  0  0  0  0  0  0  0  0
    0.0050   -3.0855   -4.5192 H   0  0  0  0  0  0  0  0  0  0  0  0
   -1.5918   -3.5531   -5.1803 H   0  0  0  0  0  0  0  0  0  0  0  0
   -1.1608   -1.8208   -5.0416 H   0  0  0  0  0  0  0  0  0  0  0  0
   -3.1483   -4.2405   -3.3710 H   0  0  0  0  0  0  0  0  0  0  0  0
   -0.0941   -0.5146   -1.1676 H   0  0  0  0  0  0  0  0  0  0  0  0
    2.1401    4.0763    1.5266 H   0  0  0  0  0  0  0  0  0  0  0  0
    3.4606    2.8783    1.6424 H   0  0  0  0  0  0  0  0  0  0  0  0
    3.1089    2.5197    3.9407 H   0  0  0  0  0  0  0  0  0  0  0  0
    2.4268    4.1501    3.9162 H   0  0  0  0  0  0  0  0  0  0  0  0
    0.9974    1.8863    4.7584 H   0  0  0  0  0  0  0  0  0  0  0  0
    0.1791    3.2924    4.0132 H   0  0  0  0  0  0  0  0  0  0  0  0
  1  2  1  0
  2  3  1  0
  3  4  2  0
  4  5  1  0
  4  6  1  0
  6  7  1  0
  7  8  2  0
  7  9  1  0
  9 10  1  0
 10 11  1  0
 11 12  1  0
 12 13  2  0
 13 14  1  0
 14 15  1  0
 15 16  3  0
 13 17  1  0
 17 18  1  0
 18 19  1  0
  6 20  2  0
 20  2  1  0
 14 10  2  0
 19 12  1  0
  1 21  1  0
  1 22  1  0
  1 23  1  0
  3 24  1  0
  9 25  1  0
 17 26  1  0
 17 27  1  0
 18 28  1  0
 18 29  1  0
 19 30  1  0
 19 31  1  0
M  END
$$$$
