
     RDKit          3D

114117  0  0  0  0  0  0  0  0999 V2000
   -1.8933   -5.5746   -2.5133 C   0  0  0  0  0  0  0  0  0  0  0  0
   -0.6996   -4.9223   -1.8027 C   0  0  0  0  0  0  0  0  0  0  0  0
    0.5903   -5.5532   -2.3278 C   0  0  0  0  0  0  0  0  0  0  0  0
   -0.7310   -3.3796   -1.9469 C   0  0  0  0  0  0  0  0  0  0  0  0
   -2.0037   -2.9242   -1.4275 O   0  0  0  0  0  0  0  0  0  0  0  0
   -2.2385   -1.5893   -1.5961 C   0  0  0  0  0  0  0  0  0  0  0  0
   -1.4994   -0.8395   -2.2238 O   0  0  0  0  0  0  0  0  0  0  0  0
   -3.5151   -1.1879   -0.8476 C   0  0  0  0  0  0  0  0  0  0  0  0
   -4.7455   -1.2780   -1.7718 C   0  0  0  0  0  0  0  0  0  0  0  0
   -5.2989   -2.6814   -1.8938 C   0  0  0  0  0  0  0  0  0  0  0  0
   -5.9543   -3.2865   -0.8111 C   0  0  0  0  0  0  0  0  0  0  0  0
   -6.4517   -4.5857   -0.9155 C   0  0  0  0  0  0  0  0  0  0  0  0
   -6.3100   -5.2896   -2.1086 C   0  0  0  0  0  0  0  0  0  0  0  0
   -5.6723   -4.6978   -3.1965 C   0  0  0  0  0  0  0  0  0  0  0  0
   -5.1710   -3.3995   -3.0901 C   0  0  0  0  0  0  0  0  0  0  0  0
   -3.3160    0.1239   -0.1655 N   0  0  0  0  0  0  0  0  0  0  0  0
   -2.6873    0.0158    1.1447 C   0  0  0  0  0  0  0  0  0  0  0  0
   -3.3998    1.2962   -0.9138 C   0  0  0  0  0  0  0  0  0  0  0  0
   -3.7346    1.2616   -2.1043 O   0  0  0  0  0  0  0  0  0  0  0  0
   -3.1671    2.6889   -0.2790 C   0  0  0  0  0  0  0  0  0  0  0  0
   -4.3918    3.2108    0.5271 C   0  0  0  0  0  0  0  0  0  0  0  0
   -5.7137    3.0170   -0.2228 C   0  0  0  0  0  0  0  0  0  0  0  0
   -4.5221    2.6820    1.9534 C   0  0  0  0  0  0  0  0  0  0  0  0
   -1.9080    2.7583    0.4157 O   0  0  0  0  0  0  0  0  0  0  0  0
   -1.3686    4.0034    0.5518 C   0  0  0  0  0  0  0  0  0  0  0  0
   -1.9742    5.0436    0.3073 O   0  0  0  0  0  0  0  0  0  0  0  0
    0.0260    3.9824    1.1899 C   0  0  0  0  0  0  0  0  0  0  0  0
   -0.1415    4.2088    2.7084 C   0  0  0  0  0  0  0  0  0  0  0  0
    1.1632    4.3474    3.4613 C   0  0  0  0  0  0  0  0  0  0  0  0
    1.4979    3.4356    4.4735 C   0  0  0  0  0  0  0  0  0  0  0  0
    2.7034    3.5622    5.1670 C   0  0  0  0  0  0  0  0  0  0  0  0
    3.5810    4.6036    4.8613 C   0  0  0  0  0  0  0  0  0  0  0  0
    3.2504    5.5253    3.8693 C   0  0  0  0  0  0  0  0  0  0  0  0
    2.0447    5.4005    3.1762 C   0  0  0  0  0  0  0  0  0  0  0  0
    0.8802    2.8229    0.8157 N   0  0  0  0  0  0  0  0  0  0  0  0
    0.6215    1.5219    1.4059 C   0  0  0  0  0  0  0  0  0  0  0  0
    1.6439    2.9698   -0.3395 C   0  0  0  0  0  0  0  0  0  0  0  0
    1.5117    3.9800   -1.0462 O   0  0  0  0  0  0  0  0  0  0  0  0
    2.7538    1.9468   -0.7093 C   0  0  0  0  0  0  0  0  0  0  0  0
    4.1169    2.3125   -0.0646 C   0  0  0  0  0  0  0  0  0  0  0  0
    4.1660    2.0750    1.4482 C   0  0  0  0  0  0  0  0  0  0  0  0
    4.5607    3.7420   -0.3860 C   0  0  0  0  0  0  0  0  0  0  0  0
    2.4389    0.5784   -0.4352 O   0  0  0  0  0  0  0  0  0  0  0  0
    2.9953   -0.3534   -1.2598 C   0  0  0  0  0  0  0  0  0  0  0  0
    3.6763   -0.1006   -2.2465 O   0  0  0  0  0  0  0  0  0  0  0  0
    2.6311   -1.7685   -0.7983 C   0  0  0  0  0  0  0  0  0  0  0  0
    3.8986   -2.6451   -0.7359 C   0  0  0  0  0  0  0  0  0  0  0  0
    4.8498   -2.2315    0.3631 C   0  0  0  0  0  0  0  0  0  0  0  0
    5.9226   -1.3715    0.0891 C   0  0  0  0  0  0  0  0  0  0  0  0
    6.7862   -0.9723    1.1077 C   0  0  0  0  0  0  0  0  0  0  0  0
    6.5832   -1.4285    2.4077 C   0  0  0  0  0  0  0  0  0  0  0  0
    5.5214   -2.2878    2.6909 C   0  0  0  0  0  0  0  0  0  0  0  0
    4.6502   -2.6788    1.6755 C   0  0  0  0  0  0  0  0  0  0  0  0
    1.6024   -2.3942   -1.6721 N   0  0  0  0  0  0  0  0  0  0  0  0
    1.8290   -2.3476   -3.1178 C   0  0  0  0  0  0  0  0  0  0  0  0
    0.3931   -2.7456   -1.0843 C   0  0  0  0  0  0  0  0  0  0  0  0
    0.1971   -2.5841    0.1267 O   0  0  0  0  0  0  0  0  0  0  0  0
   -1.8772   -5.3669   -3.5920 H   0  0  0  0  0  0  0  0  0  0  0  0
   -1.8815   -6.6633   -2.3807 H   0  0  0  0  0  0  0  0  0  0  0  0
   -2.8430   -5.2176   -2.1102 H   0  0  0  0  0  0  0  0  0  0  0  0
   -0.7914   -5.1742   -0.7376 H   0  0  0  0  0  0  0  0  0  0  0  0
    0.7422   -5.3383   -3.3873 H   0  0  0  0  0  0  0  0  0  0  0  0
    1.4627   -5.1988   -1.7762 H   0  0  0  0  0  0  0  0  0  0  0  0
    0.5664   -6.6414   -2.2141 H   0  0  0  0  0  0  0  0  0  0  0  0
   -0.6780   -3.0923   -3.0051 H   0  0  0  0  0  0  0  0  0  0  0  0
   -3.6425   -1.9100   -0.0303 H   0  0  0  0  0  0  0  0  0  0  0  0
   -4.5046   -0.9069   -2.7729 H   0  0  0  0  0  0  0  0  0  0  0  0
   -5.5500   -0.6430   -1.3860 H   0  0  0  0  0  0  0  0  0  0  0  0
   -6.0795   -2.7456    0.1229 H   0  0  0  0  0  0  0  0  0  0  0  0
   -6.9533   -5.0433   -0.0678 H   0  0  0  0  0  0  0  0  0  0  0  0
   -6.7036   -6.2997   -2.1895 H   0  0  0  0  0  0  0  0  0  0  0  0
   -5.5709   -5.2465   -4.1282 H   0  0  0  0  0  0  0  0  0  0  0  0
   -4.6789   -2.9525   -3.9524 H   0  0  0  0  0  0  0  0  0  0  0  0
   -2.5691    0.9665    1.6528 H   0  0  0  0  0  0  0  0  0  0  0  0
   -1.6987   -0.4370    1.0236 H   0  0  0  0  0  0  0  0  0  0  0  0
   -3.3065   -0.6249    1.7842 H   0  0  0  0  0  0  0  0  0  0  0  0
   -3.0635    3.3443   -1.1564 H   0  0  0  0  0  0  0  0  0  0  0  0
   -4.2590    4.2933    0.6388 H   0  0  0  0  0  0  0  0  0  0  0  0
   -5.9828    1.9581   -0.2999 H   0  0  0  0  0  0  0  0  0  0  0  0
   -6.5293    3.5291    0.3005 H   0  0  0  0  0  0  0  0  0  0  0  0
   -5.6515    3.4320   -1.2313 H   0  0  0  0  0  0  0  0  0  0  0  0
   -3.6103    2.8620    2.5315 H   0  0  0  0  0  0  0  0  0  0  0  0
   -5.3361    3.1980    2.4724 H   0  0  0  0  0  0  0  0  0  0  0  0
   -4.7574    1.6163    1.9712 H   0  0  0  0  0  0  0  0  0  0  0  0
    0.5165    4.8821    0.7905 H   0  0  0  0  0  0  0  0  0  0  0  0
   -0.7226    5.1272    2.8902 H   0  0  0  0  0  0  0  0  0  0  0  0
   -0.7409    3.4073    3.1558 H   0  0  0  0  0  0  0  0  0  0  0  0
    0.8224    2.6228    4.7394 H   0  0  0  0  0  0  0  0  0  0  0  0
    2.9602    2.8485    5.9471 H   0  0  0  0  0  0  0  0  0  0  0  0
    4.5119    4.7063    5.4126 H   0  0  0  0  0  0  0  0  0  0  0  0
    3.9287    6.3421    3.6375 H   0  0  0  0  0  0  0  0  0  0  0  0
    1.7980    6.1357    2.4143 H   0  0  0  0  0  0  0  0  0  0  0  0
    0.2451    0.8448    0.6344 H   0  0  0  0  0  0  0  0  0  0  0  0
    1.5393    1.1154    1.8304 H   0  0  0  0  0  0  0  0  0  0  0  0
   -0.1190    1.5808    2.2036 H   0  0  0  0  0  0  0  0  0  0  0  0
    2.8468    2.0643   -1.7957 H   0  0  0  0  0  0  0  0  0  0  0  0
    4.8726    1.6422   -0.4960 H   0  0  0  0  0  0  0  0  0  0  0  0
    3.9565    1.0299    1.6884 H   0  0  0  0  0  0  0  0  0  0  0  0
    5.1636    2.3051    1.8387 H   0  0  0  0  0  0  0  0  0  0  0  0
    3.4477    2.7074    1.9777 H   0  0  0  0  0  0  0  0  0  0  0  0
    3.9301    4.4863    0.1131 H   0  0  0  0  0  0  0  0  0  0  0  0
    5.5879    3.9112   -0.0504 H   0  0  0  0  0  0  0  0  0  0  0  0
    4.5362    3.9281   -1.4632 H   0  0  0  0  0  0  0  0  0  0  0  0
    2.2385   -1.6794    0.2217 H   0  0  0  0  0  0  0  0  0  0  0  0
    4.4304   -2.6367   -1.6978 H   0  0  0  0  0  0  0  0  0  0  0  0
    3.6054   -3.6941   -0.5758 H   0  0  0  0  0  0  0  0  0  0  0  0
    6.0878   -0.9982   -0.9218 H   0  0  0  0  0  0  0  0  0  0  0  0
    7.6104   -0.3019    0.8880 H   0  0  0  0  0  0  0  0  0  0  0  0
    7.2495   -1.1087    3.2059 H   0  0  0  0  0  0  0  0  0  0  0  0
    5.3676   -2.6463    3.7043 H   0  0  0  0  0  0  0  0  0  0  0  0
    3.8177   -3.3356    1.9124 H   0  0  0  0  0  0  0  0  0  0  0  0
    2.8549   -2.6527   -3.3368 H   0  0  0  0  0  0  0  0  0  0  0  0
    1.6561   -1.3302   -3.4672 H   0  0  0  0  0  0  0  0  0  0  0  0
    1.1700   -3.0194   -3.6719 H   0  0  0  0  0  0  0  0  0  0  0  0
  1  2  1  0
  2  3  1  0
  2  4  1  0
  4  5  1  0
  5  6  1  0
  6  7  2  0
  6  8  1  0
  8  9  1  0
  9 10  1  0
 10 11  2  0
 11 12  1  0
 12 13  2  0
 13 14  1  0
 14 15  2  0
  8 16  1  0
 16 17  1  0
 16 18  1  0
 18 19  2  0
 18 20  1  0
 20 21  1  0
 21 22  1  0
 21 23  1  0
 20 24  1  0
 24 25  1  0
 25 26  2  0
 25 27  1  0
 27 28  1  0
 28 29  1  0
 29 30  2  0
 30 31  1  0
 31 32  2  0
 32 33  1  0
 33 34  2  0
 27 35  1  0
 35 36  1  0
 35 37  1  0
 37 38  2  0
 37 39  1  0
 39 40  1  0
 40 41  1  0
 40 42  1  0
 39 43  1  0
 43 44  1  0
 44 45  2  0
 44 46  1  0
 46 47  1  0
 47 48  1  0
 48 49  2  0
 49 50  1  0
 50 51  2  0
 51 52  1  0
 52 53  2  0
 46 54  1  0
 54 55  1  0
 54 56  1  0
 56 57  2  0
 56  4  1  0
 15 10  1  0
 34 29  1  0
 53 48  1  0
  1 58  1  0
  1 59  1  0
  1 60  1  0
  2 61  1  0
  3 62  1  0
  3 63  1  0
  3 64  1  0
  4 65  1  0
  8 66  1  0
  9 67  1  0
  9 68  1  0
 11 69  1  0
 12 70  1  0
 13 71  1  0
 14 72  1  0
 15 73  1  0
 17 74  1  0
 17 75  1  0
 17 76  1  0
 20 77  1  0
 21 78  1  0
 22 79  1  0
 22 80  1  0
 22 81  1  0
 23 82  1  0
 23 83  1  0
 23 84  1  0
 27 85  1  0
 28 86  1  0
 28 87  1  0
 30 88  1  0
 31 89  1  0
 32 90  1  0
 33 91  1  0
 34 92  1  0
 36 93  1  0
 36 94  1  0
 36 95  1  0
 39 96  1  0
 40 97  1  0
 41 98  1  0
 41 99  1  0
 41100  1  0
 42101  1  0
 42102  1  0
 42103  1  0
 46104  1  0
 47105  1  0
 47106  1  0
 49107  1  0
 50108  1  0
 51109  1  0
 52110  1  0
 53111  1  0
 55112  1  0
 55113  1  0
 55114  1  0
M  END
$$$$
