
     RDKit          3D

 31 32  0  0  0  0  0  0  0  0999 V2000
    3.8445    2.3629   -0.0117 O   0  0  0  0  0  0  0  0  0  0  0  0
    4.3853    1.2609   -0.0964 C   0  0  0  0  0  0  0  0  0  0  0  0
    3.7257    0.0409   -0.1985 N   0  0  0  0  0  0  0  0  0  0  0  0
    2.3373   -0.1939   -0.2280 C   0  0  0  0  0  0  0  0  0  0  0  0
    1.9173   -1.5235   -0.3315 C   0  0  0  0  0  0  0  0  0  0  0  0
    0.5541   -1.8419   -0.3670 C   0  0  0  0  0  0  0  0  0  0  0  0
   -0.4238   -0.8427   -0.3051 C   0  0  0  0  0  0  0  0  0  0  0  0
   -1.7781   -1.2141   -0.3013 N   0  0  0  0  0  0  0  0  0  0  0  0
   -2.9257   -0.5856    0.2134 C   0  0  0  0  0  0  0  0  0  0  0  0
   -2.8848    0.3272    1.2733 C   0  0  0  0  0  0  0  0  0  0  0  0
   -4.0475    0.9565    1.7290 C   0  0  0  0  0  0  0  0  0  0  0  0
   -5.2711    0.6864    1.1226 C   0  0  0  0  0  0  0  0  0  0  0  0
   -5.3316   -0.2133    0.0624 C   0  0  0  0  0  0  0  0  0  0  0  0
   -4.1669   -0.8412   -0.3883 C   0  0  0  0  0  0  0  0  0  0  0  0
    0.0065    0.4817   -0.1950 C   0  0  0  0  0  0  0  0  0  0  0  0
    1.3706    0.8065   -0.1615 C   0  0  0  0  0  0  0  0  0  0  0  0
    5.9105    1.1495   -0.0948 C   0  0  0  0  0  0  0  0  0  0  0  0
    6.4523    0.4020   -1.6145 Cl  0  0  0  0  0  0  0  0  0  0  0  0
    6.4321    0.1675    1.2930 Cl  0  0  0  0  0  0  0  0  0  0  0  0
    4.3176   -0.7819   -0.2564 H   0  0  0  0  0  0  0  0  0  0  0  0
    2.6382   -2.3354   -0.3806 H   0  0  0  0  0  0  0  0  0  0  0  0
    0.2623   -2.8873   -0.4304 H   0  0  0  0  0  0  0  0  0  0  0  0
   -1.9682   -2.0905   -0.7731 H   0  0  0  0  0  0  0  0  0  0  0  0
   -1.9480    0.5367    1.7823 H   0  0  0  0  0  0  0  0  0  0  0  0
   -3.9934    1.6543    2.5604 H   0  0  0  0  0  0  0  0  0  0  0  0
   -6.1745    1.1765    1.4755 H   0  0  0  0  0  0  0  0  0  0  0  0
   -6.2828   -0.4240   -0.4189 H   0  0  0  0  0  0  0  0  0  0  0  0
   -4.2356   -1.5276   -1.2284 H   0  0  0  0  0  0  0  0  0  0  0  0
   -0.7158    1.2936   -0.1674 H   0  0  0  0  0  0  0  0  0  0  0  0
    1.6334    1.8567   -0.0868 H   0  0  0  0  0  0  0  0  0  0  0  0
    6.3602    2.1427   -0.0115 H   0  0  0  0  0  0  0  0  0  0  0  0
  1  2  2  0
  2  3  1  0
  3  4  1  0
  4  5  2  0
  5  6  1  0
  6  7  2  0
  7  8  1  0
  8  9  1  0
  9 10  2  0
 10 11  1  0
 11 12  2  0
 12 13  1  0
 13 14  2  0
  7 15  1  0
 15 16  2  0
  2 17  1  0
 17 18  1  0
 17 19  1  0
 16  4  1  0
 14  9  1  0
  3 20  1  0
  5 21  1  0
  6 22  1  0
  8 23  1  0
 10 24  1  0
 11 25  1  0
 12 26  1  0
 13 27  1  0
 14 28  1  0
 15 29  1  0
 16 30  1  0
 17 31  1  0
M  END
$$$$
