
     RDKit          3D

 36 37  0  0  0  0  0  0  0  0999 V2000
    6.4892    0.9411    1.1512 C   0  0  0  0  0  0  0  0  0  0  0  0
    5.2012    0.6973    0.5844 O   0  0  0  0  0  0  0  0  0  0  0  0
    4.3816   -0.0385    1.3770 C   0  0  0  0  0  0  0  0  0  0  0  0
    4.6639   -0.4785    2.4805 O   0  0  0  0  0  0  0  0  0  0  0  0
    3.0630   -0.2491    0.7194 C   0  0  0  0  0  0  0  0  0  0  0  0
    2.0943   -0.9940    1.4024 C   0  0  0  0  0  0  0  0  0  0  0  0
    0.8390   -1.2198    0.8283 C   0  0  0  0  0  0  0  0  0  0  0  0
    0.5221   -0.6997   -0.4362 C   0  0  0  0  0  0  0  0  0  0  0  0
   -0.8279   -0.9522   -1.0933 C   0  0  0  0  0  0  0  0  0  0  0  0
   -1.7675   -1.5021   -0.1621 O   0  0  0  0  0  0  0  0  0  0  0  0
   -3.1001   -1.2974   -0.6193 C   0  0  0  0  0  0  0  0  0  0  0  0
   -3.4252    0.2052   -0.5726 C   0  0  0  0  0  0  0  0  0  0  0  0
   -4.4903    0.5201   -1.6342 C   0  0  0  0  0  0  0  0  0  0  0  0
   -3.9689    0.6002    0.8092 C   0  0  0  0  0  0  0  0  0  0  0  0
   -2.1336    0.9949   -0.8463 C   0  0  0  0  0  0  0  0  0  0  0  0
   -1.3012    0.2453   -1.7277 O   0  0  0  0  0  0  0  0  0  0  0  0
    1.5060    0.0371   -1.1183 C   0  0  0  0  0  0  0  0  0  0  0  0
    2.7625    0.2651   -0.5472 C   0  0  0  0  0  0  0  0  0  0  0  0
    6.3973    1.5088    2.0825 H   0  0  0  0  0  0  0  0  0  0  0  0
    7.0655    1.5371    0.4382 H   0  0  0  0  0  0  0  0  0  0  0  0
    7.0181   -0.0019    1.3214 H   0  0  0  0  0  0  0  0  0  0  0  0
    2.3111   -1.4052    2.3868 H   0  0  0  0  0  0  0  0  0  0  0  0
    0.1072   -1.8067    1.3811 H   0  0  0  0  0  0  0  0  0  0  0  0
   -0.6704   -1.6964   -1.8836 H   0  0  0  0  0  0  0  0  0  0  0  0
   -3.7748   -1.8701    0.0263 H   0  0  0  0  0  0  0  0  0  0  0  0
   -3.1967   -1.7154   -1.6298 H   0  0  0  0  0  0  0  0  0  0  0  0
   -4.1250    0.2936   -2.6421 H   0  0  0  0  0  0  0  0  0  0  0  0
   -4.7693    1.5796   -1.6135 H   0  0  0  0  0  0  0  0  0  0  0  0
   -5.3999   -0.0679   -1.4674 H   0  0  0  0  0  0  0  0  0  0  0  0
   -3.2552    0.3506    1.6025 H   0  0  0  0  0  0  0  0  0  0  0  0
   -4.9061    0.0772    1.0306 H   0  0  0  0  0  0  0  0  0  0  0  0
   -4.1666    1.6767    0.8628 H   0  0  0  0  0  0  0  0  0  0  0  0
   -2.3508    1.9578   -1.3214 H   0  0  0  0  0  0  0  0  0  0  0  0
   -1.5772    1.2166    0.0734 H   0  0  0  0  0  0  0  0  0  0  0  0
    1.2907    0.4452   -2.1051 H   0  0  0  0  0  0  0  0  0  0  0  0
    3.4938    0.8453   -1.1043 H   0  0  0  0  0  0  0  0  0  0  0  0
  1  2  1  0
  2  3  1  0
  3  4  2  0
  3  5  1  0
  5  6  2  0
  6  7  1  0
  7  8  2  0
  8  9  1  0
  9 10  1  0
 10 11  1  0
 11 12  1  0
 12 13  1  0
 12 14  1  0
 12 15  1  0
 15 16  1  0
  8 17  1  0
 17 18  2  0
 18  5  1  0
 16  9  1  0
  1 19  1  0
  1 20  1  0
  1 21  1  0
  6 22  1  0
  7 23  1  0
  9 24  1  0
 11 25  1  0
 11 26  1  0
 13 27  1  0
 13 28  1  0
 13 29  1  0
 14 30  1  0
 14 31  1  0
 14 32  1  0
 15 33  1  0
 15 34  1  0
 17 35  1  0
 18 36  1  0
M  END
$$$$
