
     RDKit          3D

 53 55  0  0  0  0  0  0  0  0999 V2000
   -7.0189    0.5203    1.3619 C   0  0  0  0  0  0  0  0  0  0  0  0
   -6.0974    0.1263    0.3619 O   0  0  0  0  0  0  0  0  0  0  0  0
   -5.6227   -1.1515    0.4110 C   0  0  0  0  0  0  0  0  0  0  0  0
   -5.9367   -2.0764    1.4079 C   0  0  0  0  0  0  0  0  0  0  0  0
   -5.3752   -3.3481    1.3923 C   0  0  0  0  0  0  0  0  0  0  0  0
   -4.4920   -3.7046    0.3842 C   0  0  0  0  0  0  0  0  0  0  0  0
   -4.1772   -2.7944   -0.6171 C   0  0  0  0  0  0  0  0  0  0  0  0
   -4.7450   -1.5155   -0.6238 C   0  0  0  0  0  0  0  0  0  0  0  0
   -4.3612   -0.5500   -1.7138 C   0  0  0  0  0  0  0  0  0  0  0  0
   -3.2321    0.2594   -1.3236 N   0  0  0  0  0  0  0  0  0  0  0  0
   -1.9343   -0.1032   -1.6057 C   0  0  0  0  0  0  0  0  0  0  0  0
   -1.5756   -1.0348   -2.3123 O   0  0  0  0  0  0  0  0  0  0  0  0
   -0.8766    0.7950   -0.9229 C   0  0  0  0  0  0  0  0  0  0  0  0
   -1.2212    1.7003   -0.1765 O   0  0  0  0  0  0  0  0  0  0  0  0
    0.4179    0.4360   -1.2094 N   0  0  0  0  0  0  0  0  0  0  0  0
    1.5531    1.0221   -0.5157 C   0  0  0  0  0  0  0  0  0  0  0  0
    1.6253    0.6429    0.9806 C   0  0  0  0  0  0  0  0  0  0  0  0
    1.6068   -0.8172    1.0657 O   0  0  0  0  0  0  0  0  0  0  0  0
    2.8834   -1.2197    1.5802 C   0  0  0  0  0  0  0  0  0  0  0  0
    3.3262   -0.0758    2.4588 C   0  0  0  0  0  0  0  0  0  0  0  0
    2.8062    1.0760    1.7382 N   0  0  0  0  0  0  0  0  0  0  0  0
    3.7392    2.4166    1.4378 S   0  0  0  0  0  6  0  0  0  0  0  0
    4.5049    2.6977    2.6371 O   0  0  0  0  0  0  0  0  0  0  0  0
    2.9117    3.4338    0.8281 O   0  0  0  0  0  0  0  0  0  0  0  0
    4.9161    1.8698    0.2061 C   0  0  0  0  0  0  0  0  0  0  0  0
    6.0669    1.1854    0.6118 C   0  0  0  0  0  0  0  0  0  0  0  0
    7.0004    0.7746   -0.3442 C   0  0  0  0  0  0  0  0  0  0  0  0
    6.7919    1.0697   -1.6938 C   0  0  0  0  0  0  0  0  0  0  0  0
    8.0533    0.5057   -2.9874 Br  0  0  0  0  0  0  0  0  0  0  0  0
    5.6653    1.7833   -2.0946 C   0  0  0  0  0  0  0  0  0  0  0  0
    4.7307    2.2006   -1.1409 C   0  0  0  0  0  0  0  0  0  0  0  0
   -6.5656    0.4808    2.3507 H   0  0  0  0  0  0  0  0  0  0  0  0
   -7.2905    1.5519    1.1673 H   0  0  0  0  0  0  0  0  0  0  0  0
   -7.9375   -0.0810    1.3213 H   0  0  0  0  0  0  0  0  0  0  0  0
   -6.6110   -1.8369    2.2200 H   0  0  0  0  0  0  0  0  0  0  0  0
   -5.6131   -4.0585    2.1772 H   0  0  0  0  0  0  0  0  0  0  0  0
   -4.0444   -4.6893    0.3831 H   0  0  0  0  0  0  0  0  0  0  0  0
   -3.4767   -3.0803   -1.3961 H   0  0  0  0  0  0  0  0  0  0  0  0
   -4.1292   -1.0932   -2.6321 H   0  0  0  0  0  0  0  0  0  0  0  0
   -5.1874    0.1222   -1.9494 H   0  0  0  0  0  0  0  0  0  0  0  0
   -3.3665    0.9571   -0.5975 H   0  0  0  0  0  0  0  0  0  0  0  0
    0.5265   -0.4630   -1.6683 H   0  0  0  0  0  0  0  0  0  0  0  0
    2.4281    0.6428   -1.0443 H   0  0  0  0  0  0  0  0  0  0  0  0
    1.4885    2.1051   -0.6508 H   0  0  0  0  0  0  0  0  0  0  0  0
    0.7265    0.9898    1.5100 H   0  0  0  0  0  0  0  0  0  0  0  0
    2.7942   -2.1652    2.1273 H   0  0  0  0  0  0  0  0  0  0  0  0
    3.5641   -1.3561    0.7232 H   0  0  0  0  0  0  0  0  0  0  0  0
    2.8336   -0.1166    3.4352 H   0  0  0  0  0  0  0  0  0  0  0  0
    4.4018   -0.0699    2.6152 H   0  0  0  0  0  0  0  0  0  0  0  0
    6.2514    0.9809    1.6667 H   0  0  0  0  0  0  0  0  0  0  0  0
    7.8901    0.2402   -0.0281 H   0  0  0  0  0  0  0  0  0  0  0  0
    5.5120    2.0299   -3.1444 H   0  0  0  0  0  0  0  0  0  0  0  0
    3.8722    2.7848   -1.4613 H   0  0  0  0  0  0  0  0  0  0  0  0
  1  2  1  0
  2  3  1  0
  3  4  2  0
  4  5  1  0
  5  6  2  0
  6  7  1  0
  7  8  2  0
  8  9  1  0
  9 10  1  0
 10 11  1  0
 11 12  2  0
 11 13  1  0
 13 14  2  0
 13 15  1  0
 15 16  1  0
 16 17  1  0
 17 18  1  0
 18 19  1  0
 19 20  1  0
 20 21  1  0
 21 22  1  0
 22 23  2  0
 22 24  2  0
 22 25  1  0
 25 26  2  0
 26 27  1  0
 27 28  2  0
 28 29  1  0
 28 30  1  0
 30 31  2  0
  8  3  1  0
 21 17  1  0
 31 25  1  0
  1 32  1  0
  1 33  1  0
  1 34  1  0
  4 35  1  0
  5 36  1  0
  6 37  1  0
  7 38  1  0
  9 39  1  0
  9 40  1  0
 10 41  1  0
 15 42  1  0
 16 43  1  0
 16 44  1  0
 17 45  1  0
 19 46  1  0
 19 47  1  0
 20 48  1  0
 20 49  1  0
 26 50  1  0
 27 51  1  0
 30 52  1  0
 31 53  1  0
M  END
$$$$
