
     RDKit          3D

 54 57  0  0  0  0  0  0  0  0999 V2000
   -5.5468    0.6824    3.1611 C   0  0  0  0  0  0  0  0  0  0  0  0
   -5.3859    0.4020    1.6968 C   0  0  0  0  0  0  0  0  0  0  0  0
   -6.5009    0.1638    0.8936 C   0  0  0  0  0  0  0  0  0  0  0  0
   -6.3479   -0.0594   -0.4747 C   0  0  0  0  0  0  0  0  0  0  0  0
   -5.0758   -0.0487   -1.0721 C   0  0  0  0  0  0  0  0  0  0  0  0
   -4.9759   -0.2907   -2.5558 C   0  0  0  0  0  0  0  0  0  0  0  0
   -3.9344    0.2163   -0.2807 C   0  0  0  0  0  0  0  0  0  0  0  0
   -2.5740    0.2664   -0.8449 C   0  0  0  0  0  0  0  0  0  0  0  0
   -1.5549   -0.5400   -0.3730 C   0  0  0  0  0  0  0  0  0  0  0  0
   -0.2920   -0.4149   -0.9512 C   0  0  0  0  0  0  0  0  0  0  0  0
    0.7744   -1.2690   -0.3769 C   0  0  0  0  0  0  0  0  0  0  0  0
    0.5798   -2.4767   -0.3570 O   0  0  0  0  0  0  0  0  0  0  0  0
    1.8419   -0.5555    0.1276 N   0  0  0  0  0  0  0  0  0  0  0  0
    3.0069   -1.0613    0.6882 C   0  0  0  0  0  0  0  0  0  0  0  0
    3.2958   -2.7235    0.7740 S   0  0  0  0  0  0  0  0  0  0  0  0
    4.8352   -2.5062    1.4694 C   0  0  0  0  0  0  0  0  0  0  0  0
    5.6653   -3.7080    1.7883 C   0  0  0  0  0  0  0  0  0  0  0  0
    5.1527   -1.1646    1.6317 C   0  0  0  0  0  0  0  0  0  0  0  0
    6.4809   -0.6886    2.1364 C   0  0  0  0  0  0  0  0  0  0  0  0
    4.0440   -0.3089    1.2263 C   0  0  0  0  0  0  0  0  0  0  0  0
    3.9484    1.1511    1.2965 C   0  0  0  0  0  0  0  0  0  0  0  0
    4.6627    1.7667    2.2831 N   0  0  0  0  0  0  0  0  0  0  0  0
    3.2061    1.8095    0.5719 O   0  0  0  0  0  0  0  0  0  0  0  0
   -0.0624    0.4785   -2.0208 C   0  0  0  0  0  0  0  0  0  0  0  0
    1.1654    0.6239   -2.7176 C   0  0  0  0  0  0  0  0  0  0  0  0
    1.2987    1.5423   -3.7572 C   0  0  0  0  0  0  0  0  0  0  0  0
    0.2108    2.3205   -4.1236 C   0  0  0  0  0  0  0  0  0  0  0  0
   -1.0050    2.1672   -3.4540 C   0  0  0  0  0  0  0  0  0  0  0  0
   -1.1650    1.2582   -2.4169 C   0  0  0  0  0  0  0  0  0  0  0  0
   -2.3747    1.1621   -1.8411 N   0  0  0  0  0  0  0  0  0  0  0  0
   -4.1177    0.4405    1.1010 C   0  0  0  0  0  0  0  0  0  0  0  0
   -5.6619    1.7581    3.3258 H   0  0  0  0  0  0  0  0  0  0  0  0
   -4.6766    0.3283    3.7238 H   0  0  0  0  0  0  0  0  0  0  0  0
   -6.4249    0.1669    3.5642 H   0  0  0  0  0  0  0  0  0  0  0  0
   -7.4992    0.1531    1.3251 H   0  0  0  0  0  0  0  0  0  0  0  0
   -7.2341   -0.2425   -1.0790 H   0  0  0  0  0  0  0  0  0  0  0  0
   -4.1622   -0.9859   -2.7863 H   0  0  0  0  0  0  0  0  0  0  0  0
   -5.8946   -0.7428   -2.9457 H   0  0  0  0  0  0  0  0  0  0  0  0
   -4.8150    0.6542   -3.0838 H   0  0  0  0  0  0  0  0  0  0  0  0
   -1.7307   -1.2564    0.4240 H   0  0  0  0  0  0  0  0  0  0  0  0
    1.8046    0.4634    0.0777 H   0  0  0  0  0  0  0  0  0  0  0  0
    5.0705   -4.6266    1.8259 H   0  0  0  0  0  0  0  0  0  0  0  0
    6.1483   -3.5915    2.7642 H   0  0  0  0  0  0  0  0  0  0  0  0
    6.4454   -3.8374    1.0309 H   0  0  0  0  0  0  0  0  0  0  0  0
    6.4321   -0.4976    3.2128 H   0  0  0  0  0  0  0  0  0  0  0  0
    7.2657   -1.4314    1.9601 H   0  0  0  0  0  0  0  0  0  0  0  0
    6.7930    0.2263    1.6235 H   0  0  0  0  0  0  0  0  0  0  0  0
    4.9705    1.2405    3.0875 H   0  0  0  0  0  0  0  0  0  0  0  0
    4.4489    2.7448    2.4272 H   0  0  0  0  0  0  0  0  0  0  0  0
    2.0292    0.0116   -2.4650 H   0  0  0  0  0  0  0  0  0  0  0  0
    2.2472    1.6441   -4.2785 H   0  0  0  0  0  0  0  0  0  0  0  0
    0.2981    3.0410   -4.9325 H   0  0  0  0  0  0  0  0  0  0  0  0
   -1.8574    2.7733   -3.7540 H   0  0  0  0  0  0  0  0  0  0  0  0
   -3.2525    0.6657    1.7235 H   0  0  0  0  0  0  0  0  0  0  0  0
  1  2  1  0
  2  3  2  0
  3  4  1  0
  4  5  2  0
  5  6  1  0
  5  7  1  0
  7  8  1  0
  8  9  2  0
  9 10  1  0
 10 11  1  0
 11 12  2  0
 11 13  1  0
 13 14  1  0
 14 15  1  0
 15 16  1  0
 16 17  1  0
 16 18  2  0
 18 19  1  0
 18 20  1  0
 20 21  1  0
 21 22  1  0
 21 23  2  0
 10 24  2  0
 24 25  1  0
 25 26  2  0
 26 27  1  0
 27 28  2  0
 28 29  1  0
 29 30  2  0
  7 31  2  0
 31  2  1  0
 30  8  1  0
 20 14  2  0
 29 24  1  0
  1 32  1  0
  1 33  1  0
  1 34  1  0
  3 35  1  0
  4 36  1  0
  6 37  1  0
  6 38  1  0
  6 39  1  0
  9 40  1  0
 13 41  1  0
 17 42  1  0
 17 43  1  0
 17 44  1  0
 19 45  1  0
 19 46  1  0
 19 47  1  0
 22 48  1  0
 22 49  1  0
 25 50  1  0
 26 51  1  0
 27 52  1  0
 28 53  1  0
 31 54  1  0
M  END
$$$$
