
     RDKit          3D

 37 38  0  0  0  0  0  0  0  0999 V2000
   -7.6992    0.3600   -0.3864 C   0  0  0  0  0  0  0  0  0  0  0  0
   -6.3318    0.8041    0.0703 C   0  0  0  0  0  0  0  0  0  0  0  0
   -6.1877    1.8484    0.6950 O   0  0  0  0  0  0  0  0  0  0  0  0
   -5.3469   -0.1038   -0.2758 N   0  0  0  0  0  0  0  0  0  0  0  0
   -3.9644   -0.0108   -0.0157 C   0  0  0  0  0  0  0  0  0  0  0  0
   -3.3608    1.0728    0.6245 C   0  0  0  0  0  0  0  0  0  0  0  0
   -1.9772    1.0899    0.8422 C   0  0  0  0  0  0  0  0  0  0  0  0
   -1.1795    0.0187    0.4268 C   0  0  0  0  0  0  0  0  0  0  0  0
    0.2837    0.0858    0.6805 C   0  0  0  0  0  0  0  0  0  0  0  0
    0.8645    1.0946    1.0493 O   0  0  0  0  0  0  0  0  0  0  0  0
    0.8588   -1.1273    0.4799 O   0  0  0  0  0  0  0  0  0  0  0  0
    2.2828   -1.1212    0.6034 C   0  0  0  0  0  0  0  0  0  0  0  0
    2.9570   -0.5676   -0.6489 C   0  0  0  0  0  0  0  0  0  0  0  0
    2.3486   -0.4159   -1.7085 O   0  0  0  0  0  0  0  0  0  0  0  0
    4.4099   -0.2234   -0.5883 C   0  0  0  0  0  0  0  0  0  0  0  0
    5.2221   -0.5745    0.4997 C   0  0  0  0  0  0  0  0  0  0  0  0
    6.5776   -0.2299    0.5004 C   0  0  0  0  0  0  0  0  0  0  0  0
    7.1170    0.4579   -0.5809 C   0  0  0  0  0  0  0  0  0  0  0  0
    8.4159    0.7824   -0.5737 F   0  0  0  0  0  0  0  0  0  0  0  0
    6.3281    0.8097   -1.6682 C   0  0  0  0  0  0  0  0  0  0  0  0
    4.9740    0.4681   -1.6732 C   0  0  0  0  0  0  0  0  0  0  0  0
   -1.7785   -1.0664   -0.2212 C   0  0  0  0  0  0  0  0  0  0  0  0
   -3.1613   -1.0780   -0.4394 C   0  0  0  0  0  0  0  0  0  0  0  0
   -8.0918   -0.3837    0.3120 H   0  0  0  0  0  0  0  0  0  0  0  0
   -7.6526   -0.0658   -1.3930 H   0  0  0  0  0  0  0  0  0  0  0  0
   -8.3721    1.2221   -0.4131 H   0  0  0  0  0  0  0  0  0  0  0  0
   -5.6513   -0.9379   -0.7617 H   0  0  0  0  0  0  0  0  0  0  0  0
   -3.9355    1.9291    0.9648 H   0  0  0  0  0  0  0  0  0  0  0  0
   -1.5293    1.9491    1.3387 H   0  0  0  0  0  0  0  0  0  0  0  0
    2.5962   -2.1633    0.7234 H   0  0  0  0  0  0  0  0  0  0  0  0
    2.5835   -0.5647    1.4977 H   0  0  0  0  0  0  0  0  0  0  0  0
    4.8343   -1.1188    1.3555 H   0  0  0  0  0  0  0  0  0  0  0  0
    7.2176   -0.4944    1.3370 H   0  0  0  0  0  0  0  0  0  0  0  0
    6.7674    1.3459   -2.5035 H   0  0  0  0  0  0  0  0  0  0  0  0
    4.3581    0.7478   -2.5270 H   0  0  0  0  0  0  0  0  0  0  0  0
   -1.1815   -1.9046   -0.5724 H   0  0  0  0  0  0  0  0  0  0  0  0
   -3.5959   -1.9346   -0.9487 H   0  0  0  0  0  0  0  0  0  0  0  0
  1  2  1  0
  2  3  2  0
  2  4  1  0
  4  5  1  0
  5  6  2  0
  6  7  1  0
  7  8  2  0
  8  9  1  0
  9 10  2  0
  9 11  1  0
 11 12  1  0
 12 13  1  0
 13 14  2  0
 13 15  1  0
 15 16  2  0
 16 17  1  0
 17 18  2  0
 18 19  1  0
 18 20  1  0
 20 21  2  0
  8 22  1  0
 22 23  2  0
 23  5  1  0
 21 15  1  0
  1 24  1  0
  1 25  1  0
  1 26  1  0
  4 27  1  0
  6 28  1  0
  7 29  1  0
 12 30  1  0
 12 31  1  0
 16 32  1  0
 17 33  1  0
 20 34  1  0
 21 35  1  0
 22 36  1  0
 23 37  1  0
M  END
$$$$
