
     RDKit          3D

 51 54  0  0  0  0  0  0  0  0999 V2000
    7.5962   -1.3425   -1.8617 N   0  0  0  0  0  0  0  0  0  0  0  0
    6.6756   -0.1008   -2.5344 S   0  0  0  0  0  6  0  0  0  0  0  0
    7.5465    1.0520   -2.5482 O   0  0  0  0  0  0  0  0  0  0  0  0
    6.0343   -0.6047   -3.7262 O   0  0  0  0  0  0  0  0  0  0  0  0
    5.4301    0.1346   -1.2911 C   0  0  0  0  0  0  0  0  0  0  0  0
    5.4848    1.2389   -0.4403 C   0  0  0  0  0  0  0  0  0  0  0  0
    4.4913    1.4161    0.5289 C   0  0  0  0  0  0  0  0  0  0  0  0
    3.4457    0.4959    0.6509 C   0  0  0  0  0  0  0  0  0  0  0  0
    2.4114    0.5965    1.6017 N   0  0  0  0  0  0  0  0  0  0  0  0
    2.1446    1.6468    2.4633 C   0  0  0  0  0  0  0  0  0  0  0  0
    2.7844    2.6938    2.5466 O   0  0  0  0  0  0  0  0  0  0  0  0
    0.9423    1.3963    3.3650 C   0  0  0  0  0  0  0  0  0  0  0  0
   -0.6119    1.7884    2.5112 S   0  0  0  0  0  0  0  0  0  0  0  0
   -0.8768    0.3460    1.5808 C   0  0  0  0  0  0  0  0  0  0  0  0
   -0.0372   -0.6647    1.5574 N   0  0  0  0  0  0  0  0  0  0  0  0
   -0.4487   -1.5340    0.5962 N   0  0  0  0  0  0  0  0  0  0  0  0
   -1.5791   -1.0779    0.0782 C   0  0  0  0  0  0  0  0  0  0  0  0
   -2.4597   -1.8749   -0.8305 C   0  0  0  0  0  0  0  0  0  0  0  0
   -3.6675   -2.4304   -0.1256 C   0  0  0  0  0  0  0  0  0  0  0  0
   -4.9813   -2.0076   -0.2034 C   0  0  0  0  0  0  0  0  0  0  0  0
   -5.8550   -2.7945    0.6063 C   0  0  0  0  0  0  0  0  0  0  0  0
   -5.1792   -3.7886    1.2769 C   0  0  0  0  0  0  0  0  0  0  0  0
   -3.5042   -3.7793    0.9245 S   0  0  0  0  0  0  0  0  0  0  0  0
   -1.8786    0.1625    0.6394 N   0  0  0  0  0  0  0  0  0  0  0  0
   -2.9645    1.0178    0.3188 C   0  0  0  0  0  0  0  0  0  0  0  0
   -3.7160    1.6165    1.3379 C   0  0  0  0  0  0  0  0  0  0  0  0
   -4.7930    2.4442    1.0156 C   0  0  0  0  0  0  0  0  0  0  0  0
   -5.1212    2.6809   -0.3199 C   0  0  0  0  0  0  0  0  0  0  0  0
   -4.3701    2.0957   -1.3369 C   0  0  0  0  0  0  0  0  0  0  0  0
   -3.2909    1.2662   -1.0220 C   0  0  0  0  0  0  0  0  0  0  0  0
    3.4028   -0.6091   -0.2117 C   0  0  0  0  0  0  0  0  0  0  0  0
    4.3874   -0.7895   -1.1874 C   0  0  0  0  0  0  0  0  0  0  0  0
    7.1755   -1.7419   -1.0237 H   0  0  0  0  0  0  0  0  0  0  0  0
    8.5395   -0.9879   -1.6793 H   0  0  0  0  0  0  0  0  0  0  0  0
    6.2860    1.9709   -0.5215 H   0  0  0  0  0  0  0  0  0  0  0  0
    4.5617    2.2861    1.1765 H   0  0  0  0  0  0  0  0  0  0  0  0
    1.7140   -0.1522    1.5784 H   0  0  0  0  0  0  0  0  0  0  0  0
    1.0312    2.0576    4.2341 H   0  0  0  0  0  0  0  0  0  0  0  0
    0.9505    0.3700    3.7485 H   0  0  0  0  0  0  0  0  0  0  0  0
   -2.7685   -1.2950   -1.7051 H   0  0  0  0  0  0  0  0  0  0  0  0
   -1.8718   -2.7091   -1.2411 H   0  0  0  0  0  0  0  0  0  0  0  0
   -5.3099   -1.1728   -0.8145 H   0  0  0  0  0  0  0  0  0  0  0  0
   -6.9235   -2.6385    0.6886 H   0  0  0  0  0  0  0  0  0  0  0  0
   -5.5868   -4.5299    1.9554 H   0  0  0  0  0  0  0  0  0  0  0  0
   -3.5106    1.4266    2.3890 H   0  0  0  0  0  0  0  0  0  0  0  0
   -5.3803    2.9028    1.8076 H   0  0  0  0  0  0  0  0  0  0  0  0
   -5.9588    3.3294   -0.5663 H   0  0  0  0  0  0  0  0  0  0  0  0
   -4.6190    2.2966   -2.3765 H   0  0  0  0  0  0  0  0  0  0  0  0
   -2.6926    0.8725   -1.8392 H   0  0  0  0  0  0  0  0  0  0  0  0
    2.5916   -1.3348   -0.1426 H   0  0  0  0  0  0  0  0  0  0  0  0
    4.3292   -1.6409   -1.8629 H   0  0  0  0  0  0  0  0  0  0  0  0
  1  2  1  0
  2  3  2  0
  2  4  2  0
  2  5  1  0
  5  6  2  0
  6  7  1  0
  7  8  2  0
  8  9  1  0
  9 10  1  0
 10 11  2  0
 10 12  1  0
 12 13  1  0
 13 14  1  0
 14 15  2  0
 15 16  1  0
 16 17  2  0
 17 18  1  0
 18 19  1  0
 19 20  2  0
 20 21  1  0
 21 22  2  0
 22 23  1  0
 17 24  1  0
 24 25  1  0
 25 26  2  0
 26 27  1  0
 27 28  2  0
 28 29  1  0
 29 30  2  0
  8 31  1  0
 31 32  2  0
 32  5  1  0
 24 14  1  0
 30 25  1  0
 23 19  1  0
  1 33  1  0
  1 34  1  0
  6 35  1  0
  7 36  1  0
  9 37  1  0
 12 38  1  0
 12 39  1  0
 18 40  1  0
 18 41  1  0
 20 42  1  0
 21 43  1  0
 22 44  1  0
 26 45  1  0
 27 46  1  0
 28 47  1  0
 29 48  1  0
 30 49  1  0
 31 50  1  0
 32 51  1  0
M  END
$$$$
