
     RDKit          3D

 33 33  0  0  0  0  0  0  0  0999 V2000
   -2.4139    1.2885   -2.2739 C   0  0  0  0  0  0  0  0  0  0  0  0
   -2.5330    1.3919   -0.7738 C   0  0  0  0  0  0  0  0  0  0  0  0
   -3.1073    2.3428   -0.2536 O   0  0  0  0  0  0  0  0  0  0  0  0
   -1.9092    0.3469   -0.1260 N   0  0  0  0  0  0  0  0  0  0  0  0
   -1.8217    0.1091    1.2624 C   0  0  0  0  0  0  0  0  0  0  0  0
   -2.4379    0.9078    2.2270 C   0  0  0  0  0  0  0  0  0  0  0  0
   -2.3210    0.5965    3.5872 C   0  0  0  0  0  0  0  0  0  0  0  0
   -1.5949   -0.5208    3.9975 C   0  0  0  0  0  0  0  0  0  0  0  0
   -0.9738   -1.3279    3.0484 C   0  0  0  0  0  0  0  0  0  0  0  0
   -1.0730   -0.9996    1.6943 C   0  0  0  0  0  0  0  0  0  0  0  0
   -0.4700   -1.8255    0.7777 O   0  0  0  0  0  0  0  0  0  0  0  0
    0.9055   -1.4839    0.6021 C   0  0  0  0  0  0  0  0  0  0  0  0
    1.1497   -0.8881   -0.7867 C   0  0  0  0  0  0  0  0  0  0  0  0
    0.2560   -0.7084   -1.6121 O   0  0  0  0  0  0  0  0  0  0  0  0
    2.4670   -0.5626   -1.0380 N   0  0  0  0  0  0  0  0  0  0  0  0
    2.8368    0.1270   -2.2788 C   0  0  0  0  0  0  0  0  0  0  0  0
    4.3330    0.1370   -2.5802 C   0  0  0  0  0  0  0  0  0  0  0  0
    4.6082    0.8714   -3.6784 F   0  0  0  0  0  0  0  0  0  0  0  0
    4.8048   -1.1121   -2.7841 F   0  0  0  0  0  0  0  0  0  0  0  0
    5.0214    0.6691   -1.5425 F   0  0  0  0  0  0  0  0  0  0  0  0
   -3.2238    1.8552   -2.7423 H   0  0  0  0  0  0  0  0  0  0  0  0
   -2.4953    0.2482   -2.6018 H   0  0  0  0  0  0  0  0  0  0  0  0
   -1.4520    1.7004   -2.5902 H   0  0  0  0  0  0  0  0  0  0  0  0
   -1.4105   -0.3237   -0.7135 H   0  0  0  0  0  0  0  0  0  0  0  0
   -3.0281    1.7770    1.9534 H   0  0  0  0  0  0  0  0  0  0  0  0
   -2.8130    1.2266    4.3247 H   0  0  0  0  0  0  0  0  0  0  0  0
   -1.5239   -0.7650    5.0542 H   0  0  0  0  0  0  0  0  0  0  0  0
   -0.4241   -2.2107    3.3606 H   0  0  0  0  0  0  0  0  0  0  0  0
    1.4853   -2.4102    0.6784 H   0  0  0  0  0  0  0  0  0  0  0  0
    1.2795   -0.7813    1.3588 H   0  0  0  0  0  0  0  0  0  0  0  0
    3.1076   -0.4942   -0.2533 H   0  0  0  0  0  0  0  0  0  0  0  0
    2.2968   -0.3382   -3.1107 H   0  0  0  0  0  0  0  0  0  0  0  0
    2.4746    1.1569   -2.1866 H   0  0  0  0  0  0  0  0  0  0  0  0
  1  2  1  0
  2  3  2  0
  2  4  1  0
  4  5  1  0
  5  6  2  0
  6  7  1  0
  7  8  2  0
  8  9  1  0
  9 10  2  0
 10 11  1  0
 11 12  1  0
 12 13  1  0
 13 14  2  0
 13 15  1  0
 15 16  1  0
 16 17  1  0
 17 18  1  0
 17 19  1  0
 17 20  1  0
 10  5  1  0
  1 21  1  0
  1 22  1  0
  1 23  1  0
  4 24  1  0
  6 25  1  0
  7 26  1  0
  8 27  1  0
  9 28  1  0
 12 29  1  0
 12 30  1  0
 15 31  1  0
 16 32  1  0
 16 33  1  0
M  END
$$$$
