
     RDKit          3D

 56 59  0  0  0  0  0  0  0  0999 V2000
   -2.6951   -2.2459    3.8083 C   0  0  0  0  0  0  0  0  0  0  0  0
   -3.0686   -2.6694    2.3945 C   0  0  0  0  0  0  0  0  0  0  0  0
   -3.1422   -1.4857    1.4185 C   0  0  0  0  0  0  0  0  0  0  0  0
   -3.6050   -1.9025    0.0042 C   0  0  0  0  0  0  0  0  0  0  0  0
   -4.2287   -2.9398   -0.2023 O   0  0  0  0  0  0  0  0  0  0  0  0
   -3.3914   -0.9019   -0.9326 N   0  0  0  0  0  0  0  0  0  0  0  0
   -3.6895   -0.9131   -2.3087 C   0  0  0  0  0  0  0  0  0  0  0  0
   -4.2663   -1.9895   -2.9809 C   0  0  0  0  0  0  0  0  0  0  0  0
   -4.5124   -1.8921   -4.3504 C   0  0  0  0  0  0  0  0  0  0  0  0
   -5.0678   -2.9273   -4.9938 F   0  0  0  0  0  0  0  0  0  0  0  0
   -4.1936   -0.7420   -5.0680 C   0  0  0  0  0  0  0  0  0  0  0  0
   -3.6151    0.3371   -4.4062 C   0  0  0  0  0  0  0  0  0  0  0  0
   -3.3684    0.2420   -3.0386 C   0  0  0  0  0  0  0  0  0  0  0  0
   -2.8060    1.2862   -2.4077 F   0  0  0  0  0  0  0  0  0  0  0  0
   -1.9167   -0.6673    1.3282 N   0  0  0  0  0  0  0  0  0  0  0  0
   -2.1063    0.7137    1.5016 N   0  0  0  0  0  0  0  0  0  0  0  0
   -1.1049    1.5483    1.4471 C   0  0  0  0  0  0  0  0  0  0  0  0
   -1.3825    3.0106    1.6502 C   0  0  0  0  0  0  0  0  0  0  0  0
    0.2204    1.0446    1.1911 C   0  0  0  0  0  0  0  0  0  0  0  0
    1.4791    1.6207    1.1426 C   0  0  0  0  0  0  0  0  0  0  0  0
    1.9102    2.9981    1.4958 C   0  0  0  0  0  0  0  0  0  0  0  0
    2.3418    0.5947    0.7347 N   0  0  0  0  0  0  0  0  0  0  0  0
    3.7088    0.6360    0.3180 C   0  0  0  0  0  0  0  0  0  0  0  0
    4.4419   -0.5620    0.2818 C   0  0  0  0  0  0  0  0  0  0  0  0
    5.7800   -0.5697   -0.1231 C   0  0  0  0  0  0  0  0  0  0  0  0
    6.4110    0.6166   -0.5049 C   0  0  0  0  0  0  0  0  0  0  0  0
    7.8353    0.6022   -0.9744 C   0  0  0  0  0  0  0  0  0  0  0  0
    5.6718    1.8036   -0.5095 C   0  0  0  0  0  0  0  0  0  0  0  0
    4.3312    1.8156   -0.1032 C   0  0  0  0  0  0  0  0  0  0  0  0
    1.7053   -0.6079    0.7567 N   0  0  0  0  0  0  0  0  0  0  0  0
    0.4202   -0.3206    0.9677 C   0  0  0  0  0  0  0  0  0  0  0  0
   -0.6821   -1.2729    1.0020 C   0  0  0  0  0  0  0  0  0  0  0  0
   -0.5524   -2.4683    0.7572 O   0  0  0  0  0  0  0  0  0  0  0  0
   -2.7244   -3.1099    4.4797 H   0  0  0  0  0  0  0  0  0  0  0  0
   -1.6851   -1.8267    3.8477 H   0  0  0  0  0  0  0  0  0  0  0  0
   -3.3953   -1.4965    4.1910 H   0  0  0  0  0  0  0  0  0  0  0  0
   -2.3664   -3.4336    2.0462 H   0  0  0  0  0  0  0  0  0  0  0  0
   -4.0481   -3.1631    2.4310 H   0  0  0  0  0  0  0  0  0  0  0  0
   -3.9365   -0.8197    1.7872 H   0  0  0  0  0  0  0  0  0  0  0  0
   -2.9507   -0.0537   -0.5792 H   0  0  0  0  0  0  0  0  0  0  0  0
   -4.5322   -2.9139   -2.4810 H   0  0  0  0  0  0  0  0  0  0  0  0
   -4.3975   -0.7003   -6.1334 H   0  0  0  0  0  0  0  0  0  0  0  0
   -3.3543    1.2441   -4.9414 H   0  0  0  0  0  0  0  0  0  0  0  0
   -1.0258    3.3149    2.6378 H   0  0  0  0  0  0  0  0  0  0  0  0
   -2.4581    3.2037    1.5955 H   0  0  0  0  0  0  0  0  0  0  0  0
   -0.8840    3.6028    0.8784 H   0  0  0  0  0  0  0  0  0  0  0  0
    1.8657    3.6550    0.6222 H   0  0  0  0  0  0  0  0  0  0  0  0
    1.2635    3.4238    2.2681 H   0  0  0  0  0  0  0  0  0  0  0  0
    2.9189    3.0159    1.9187 H   0  0  0  0  0  0  0  0  0  0  0  0
    3.9859   -1.5069    0.5758 H   0  0  0  0  0  0  0  0  0  0  0  0
    6.3218   -1.5131   -0.1390 H   0  0  0  0  0  0  0  0  0  0  0  0
    8.4092   -0.1728   -0.4555 H   0  0  0  0  0  0  0  0  0  0  0  0
    8.3243    1.5603   -0.7688 H   0  0  0  0  0  0  0  0  0  0  0  0
    7.8727    0.4099   -2.0511 H   0  0  0  0  0  0  0  0  0  0  0  0
    6.1329    2.7308   -0.8443 H   0  0  0  0  0  0  0  0  0  0  0  0
    3.8018    2.7571   -0.1813 H   0  0  0  0  0  0  0  0  0  0  0  0
  1  2  1  0
  2  3  1  0
  3  4  1  0
  4  5  2  0
  4  6  1  0
  6  7  1  0
  7  8  2  0
  8  9  1  0
  9 10  1  0
  9 11  2  0
 11 12  1  0
 12 13  2  0
 13 14  1  0
  3 15  1  0
 15 16  1  0
 16 17  2  0
 17 18  1  0
 17 19  1  0
 19 20  2  0
 20 21  1  0
 20 22  1  0
 22 23  1  0
 23 24  2  0
 24 25  1  0
 25 26  2  0
 26 27  1  0
 26 28  1  0
 28 29  2  0
 22 30  1  0
 30 31  2  0
 31 32  1  0
 32 33  2  0
 13  7  1  0
 32 15  1  0
 31 19  1  0
 29 23  1  0
  1 34  1  0
  1 35  1  0
  1 36  1  0
  2 37  1  0
  2 38  1  0
  3 39  1  0
  6 40  1  0
  8 41  1  0
 11 42  1  0
 12 43  1  0
 18 44  1  0
 18 45  1  0
 18 46  1  0
 21 47  1  0
 21 48  1  0
 21 49  1  0
 24 50  1  0
 25 51  1  0
 27 52  1  0
 27 53  1  0
 27 54  1  0
 28 55  1  0
 29 56  1  0
M  END
$$$$
