
     RDKit          3D

 72 74  0  0  0  0  0  0  0  0999 V2000
   -3.4165    6.5143   -0.9514 C   0  0  0  0  0  0  0  0  0  0  0  0
   -3.7767    5.2418   -1.4744 O   0  0  0  0  0  0  0  0  0  0  0  0
   -2.9743    4.1862   -1.1425 C   0  0  0  0  0  0  0  0  0  0  0  0
   -1.8097    4.2428   -0.3814 C   0  0  0  0  0  0  0  0  0  0  0  0
   -1.0816    3.0743   -0.1195 C   0  0  0  0  0  0  0  0  0  0  0  0
   -1.5127    1.8171   -0.5841 C   0  0  0  0  0  0  0  0  0  0  0  0
   -0.6564    0.5699   -0.3380 C   0  0  0  0  0  0  0  0  0  0  0  0
   -1.3216   -0.8101   -0.6121 C   0  0  0  0  0  0  0  0  0  0  0  0
   -0.7062   -1.6850   -1.2253 O   0  0  0  0  0  0  0  0  0  0  0  0
   -2.5817   -1.0185   -0.0861 N   0  0  0  0  0  0  0  0  0  0  0  0
   -3.3488   -2.2668   -0.2330 C   0  0  0  0  0  0  0  0  0  0  0  0
   -3.4844   -2.6773   -1.7102 C   0  0  0  0  0  0  0  0  0  0  0  0
   -2.6995   -3.4048    0.5679 C   0  0  0  0  0  0  0  0  0  0  0  0
   -4.7667   -2.0197    0.3115 C   0  0  0  0  0  0  0  0  0  0  0  0
    0.0624    0.5385    0.9661 N   0  0  0  0  0  0  0  0  0  0  0  0
   -0.6751    0.7709    2.2202 C   0  0  0  0  0  0  0  0  0  0  0  0
   -1.2162   -0.5072    2.8698 C   0  0  0  0  0  0  0  0  0  0  0  0
   -0.9704   -0.5864    4.3687 C   0  0  0  0  0  0  0  0  0  0  0  0
   -2.1087   -1.4657    4.8191 C   0  0  0  0  0  0  0  0  0  0  0  0
   -3.2425   -0.9701    3.9488 C   0  0  0  0  0  0  0  0  0  0  0  0
   -2.6576   -0.5427    2.7057 O   0  0  0  0  0  0  0  0  0  0  0  0
    1.3588    0.0427    1.1054 C   0  0  0  0  0  0  0  0  0  0  0  0
    1.8331   -0.2002    2.2177 O   0  0  0  0  0  0  0  0  0  0  0  0
    2.1892   -0.1558   -0.1495 C   0  0  0  0  0  0  0  0  0  0  0  0
    3.6111   -0.5996    0.1839 C   0  0  0  0  0  0  0  0  0  0  0  0
    4.4930   -0.6350   -1.0476 C   0  0  0  0  0  0  0  0  0  0  0  0
    4.0686   -0.3774   -2.1694 O   0  0  0  0  0  0  0  0  0  0  0  0
    5.7900   -0.9775   -0.7380 N   0  0  0  0  0  0  0  0  0  0  0  0
    6.8224   -1.0720   -1.6440 C   0  0  0  0  0  0  0  0  0  0  0  0
    6.8113   -0.8827   -3.0431 C   0  0  0  0  0  0  0  0  0  0  0  0
    8.1113   -1.0900   -3.4315 C   0  0  0  0  0  0  0  0  0  0  0  0
    8.8174   -1.0492   -4.7229 C   0  0  0  0  0  0  0  0  0  0  0  0
    8.8589   -1.3888   -2.3365 O   0  0  0  0  0  0  0  0  0  0  0  0
    8.0507   -1.3811   -1.2142 N   0  0  0  0  0  0  0  0  0  0  0  0
   -2.6626    1.7888   -1.3891 C   0  0  0  0  0  0  0  0  0  0  0  0
   -3.3896    2.9560   -1.6500 C   0  0  0  0  0  0  0  0  0  0  0  0
   -4.1702    7.2333   -1.2808 H   0  0  0  0  0  0  0  0  0  0  0  0
   -2.4474    6.8402   -1.3432 H   0  0  0  0  0  0  0  0  0  0  0  0
   -3.4171    6.5086    0.1431 H   0  0  0  0  0  0  0  0  0  0  0  0
   -1.4334    5.1789    0.0158 H   0  0  0  0  0  0  0  0  0  0  0  0
   -0.1613    3.1588    0.4569 H   0  0  0  0  0  0  0  0  0  0  0  0
    0.0954    0.6500   -1.1323 H   0  0  0  0  0  0  0  0  0  0  0  0
   -2.8023   -0.4710    0.7430 H   0  0  0  0  0  0  0  0  0  0  0  0
   -3.8463   -1.8411   -2.3186 H   0  0  0  0  0  0  0  0  0  0  0  0
   -2.5347   -3.0087   -2.1373 H   0  0  0  0  0  0  0  0  0  0  0  0
   -4.1910   -3.5090   -1.8265 H   0  0  0  0  0  0  0  0  0  0  0  0
   -2.6154   -3.1467    1.6298 H   0  0  0  0  0  0  0  0  0  0  0  0
   -1.6895   -3.6306    0.2062 H   0  0  0  0  0  0  0  0  0  0  0  0
   -3.2898   -4.3256    0.4956 H   0  0  0  0  0  0  0  0  0  0  0  0
   -5.3948   -2.9123    0.2145 H   0  0  0  0  0  0  0  0  0  0  0  0
   -4.7474   -1.7443    1.3702 H   0  0  0  0  0  0  0  0  0  0  0  0
   -5.2575   -1.1998   -0.2280 H   0  0  0  0  0  0  0  0  0  0  0  0
    0.0278    1.2622    2.9051 H   0  0  0  0  0  0  0  0  0  0  0  0
   -1.4835    1.4845    2.0465 H   0  0  0  0  0  0  0  0  0  0  0  0
   -0.8250   -1.4086    2.3763 H   0  0  0  0  0  0  0  0  0  0  0  0
   -1.0618    0.4023    4.8380 H   0  0  0  0  0  0  0  0  0  0  0  0
    0.0147   -0.9922    4.6162 H   0  0  0  0  0  0  0  0  0  0  0  0
   -2.3246   -1.3905    5.8880 H   0  0  0  0  0  0  0  0  0  0  0  0
   -1.8885   -2.5145    4.5794 H   0  0  0  0  0  0  0  0  0  0  0  0
   -3.9918   -1.7407    3.7556 H   0  0  0  0  0  0  0  0  0  0  0  0
   -3.7363   -0.1014    4.3987 H   0  0  0  0  0  0  0  0  0  0  0  0
    1.7180   -0.9123   -0.7845 H   0  0  0  0  0  0  0  0  0  0  0  0
    2.2263    0.7958   -0.6924 H   0  0  0  0  0  0  0  0  0  0  0  0
    4.0638    0.0914    0.9062 H   0  0  0  0  0  0  0  0  0  0  0  0
    3.5968   -1.5996    0.6334 H   0  0  0  0  0  0  0  0  0  0  0  0
    6.0619   -1.1624    0.2187 H   0  0  0  0  0  0  0  0  0  0  0  0
    5.9798   -0.6277   -3.6820 H   0  0  0  0  0  0  0  0  0  0  0  0
    8.1252   -0.8237   -5.5383 H   0  0  0  0  0  0  0  0  0  0  0  0
    9.2890   -2.0132   -4.9372 H   0  0  0  0  0  0  0  0  0  0  0  0
    9.5939   -0.2782   -4.7123 H   0  0  0  0  0  0  0  0  0  0  0  0
   -3.0151    0.8651   -1.8437 H   0  0  0  0  0  0  0  0  0  0  0  0
   -4.2864    2.9030   -2.2649 H   0  0  0  0  0  0  0  0  0  0  0  0
  1  2  1  0
  2  3  1  0
  3  4  2  0
  4  5  1  0
  5  6  2  0
  6  7  1  0
  7  8  1  0
  8  9  2  0
  8 10  1  0
 10 11  1  0
 11 12  1  0
 11 13  1  0
 11 14  1  0
  7 15  1  0
 15 16  1  0
 16 17  1  0
 17 18  1  0
 18 19  1  0
 19 20  1  0
 20 21  1  0
 15 22  1  0
 22 23  2  0
 22 24  1  0
 24 25  1  0
 25 26  1  0
 26 27  2  0
 26 28  1  0
 28 29  1  0
 29 30  1  0
 30 31  2  0
 31 32  1  0
 31 33  1  0
 33 34  1  0
  6 35  1  0
 35 36  2  0
 36  3  1  0
 21 17  1  0
 34 29  2  0
  1 37  1  0
  1 38  1  0
  1 39  1  0
  4 40  1  0
  5 41  1  0
  7 42  1  0
 10 43  1  0
 12 44  1  0
 12 45  1  0
 12 46  1  0
 13 47  1  0
 13 48  1  0
 13 49  1  0
 14 50  1  0
 14 51  1  0
 14 52  1  0
 16 53  1  0
 16 54  1  0
 17 55  1  0
 18 56  1  0
 18 57  1  0
 19 58  1  0
 19 59  1  0
 20 60  1  0
 20 61  1  0
 24 62  1  0
 24 63  1  0
 25 64  1  0
 25 65  1  0
 28 66  1  0
 30 67  1  0
 32 68  1  0
 32 69  1  0
 32 70  1  0
 35 71  1  0
 36 72  1  0
M  END
$$$$
