
     RDKit          3D

 31 32  0  0  0  0  0  0  0  0999 V2000
    2.4091   -1.2011    1.8953 C   0  0  0  0  0  0  0  0  0  0  0  0
    2.2432   -1.5616    0.4260 C   0  0  0  0  0  0  0  0  0  0  0  0
    2.6592   -0.4763   -0.4572 N   0  0  0  0  0  0  0  0  0  0  0  0
    1.8926    0.4031   -1.1662 C   0  0  0  0  0  0  0  0  0  0  0  0
    0.4454    0.4998   -1.0998 C   0  0  0  0  0  0  0  0  0  0  0  0
   -0.3077    0.8703   -2.2013 C   0  0  0  0  0  0  0  0  0  0  0  0
   -1.9844    0.9109   -1.8950 S   0  0  0  0  0  0  0  0  0  0  0  0
   -1.7598    0.4806   -0.2541 C   0  0  0  0  0  0  0  0  0  0  0  0
   -2.9236    0.3438    0.7037 C   0  0  0  0  0  0  0  0  0  0  0  0
   -3.6683    1.6656    0.8968 C   0  0  0  0  0  0  0  0  0  0  0  0
   -3.8804   -0.7749    0.2894 C   0  0  0  0  0  0  0  0  0  0  0  0
   -0.4174    0.3024    0.0301 C   0  0  0  0  0  0  0  0  0  0  0  0
    2.5644    1.1829   -1.9687 N   0  0  0  0  0  0  0  0  0  0  0  0
    3.8636    0.8206   -1.7810 N   0  0  0  0  0  0  0  0  0  0  0  0
    3.9477   -0.2161   -0.8667 C   0  0  0  0  0  0  0  0  0  0  0  0
    5.3778   -0.9383   -0.4412 S   0  0  0  0  0  0  0  0  0  0  0  0
    2.0268   -2.0080    2.5281 H   0  0  0  0  0  0  0  0  0  0  0  0
    1.8737   -0.2815    2.1478 H   0  0  0  0  0  0  0  0  0  0  0  0
    3.4613   -1.0438    2.1512 H   0  0  0  0  0  0  0  0  0  0  0  0
    1.2045   -1.8297    0.2168 H   0  0  0  0  0  0  0  0  0  0  0  0
    2.8477   -2.4475    0.2029 H   0  0  0  0  0  0  0  0  0  0  0  0
    0.0577    1.1119   -3.1913 H   0  0  0  0  0  0  0  0  0  0  0  0
   -2.5108    0.0640    1.6830 H   0  0  0  0  0  0  0  0  0  0  0  0
   -2.9809    2.4631    1.2004 H   0  0  0  0  0  0  0  0  0  0  0  0
   -4.1724    1.9895   -0.0202 H   0  0  0  0  0  0  0  0  0  0  0  0
   -4.4313    1.5663    1.6765 H   0  0  0  0  0  0  0  0  0  0  0  0
   -4.6484   -0.9272    1.0556 H   0  0  0  0  0  0  0  0  0  0  0  0
   -4.3927   -0.5482   -0.6520 H   0  0  0  0  0  0  0  0  0  0  0  0
   -3.3447   -1.7219    0.1592 H   0  0  0  0  0  0  0  0  0  0  0  0
   -0.0782    0.0557    1.0267 H   0  0  0  0  0  0  0  0  0  0  0  0
    4.6262    1.2457   -2.2948 H   0  0  0  0  0  0  0  0  0  0  0  0
  1  2  1  0
  2  3  1  0
  3  4  1  0
  4  5  1  0
  5  6  2  0
  6  7  1  0
  7  8  1  0
  8  9  1  0
  9 10  1  0
  9 11  1  0
  8 12  2  0
  4 13  2  0
 13 14  1  0
 14 15  1  0
 15 16  2  0
 15  3  1  0
 12  5  1  0
  1 17  1  0
  1 18  1  0
  1 19  1  0
  2 20  1  0
  2 21  1  0
  6 22  1  0
  9 23  1  0
 10 24  1  0
 10 25  1  0
 10 26  1  0
 11 27  1  0
 11 28  1  0
 11 29  1  0
 12 30  1  0
 14 31  1  0
M  END
$$$$
