
     RDKit          3D

 50 53  0  0  0  0  0  0  0  0999 V2000
    7.7475   -0.6609    1.1324 C   0  0  0  0  0  0  0  0  0  0  0  0
    6.3782   -0.1797    0.7534 C   0  0  0  0  0  0  0  0  0  0  0  0
    6.0707    1.1801    0.7669 C   0  0  0  0  0  0  0  0  0  0  0  0
    4.7918    1.6095    0.4056 C   0  0  0  0  0  0  0  0  0  0  0  0
    3.7869    0.6945    0.0231 C   0  0  0  0  0  0  0  0  0  0  0  0
    2.5289    1.2824   -0.2594 N   0  0  0  0  0  0  0  0  0  0  0  0
    1.2726    0.7148   -0.1066 C   0  0  0  0  0  0  0  0  0  0  0  0
    1.0164   -0.4000    0.3406 O   0  0  0  0  0  0  0  0  0  0  0  0
    0.1446    1.6494   -0.5653 C   0  0  0  0  0  0  0  0  0  0  0  0
   -1.1806    1.0201   -0.4470 N   0  0  0  0  0  4  0  0  0  0  0  0
   -2.2023    1.3666    0.4390 C   0  0  0  0  0  0  0  0  0  0  0  0
   -3.2830    0.5118    0.2385 C   0  0  0  0  0  0  0  0  0  0  0  0
   -4.6688    0.5749    0.9796 C   0  0  0  0  0  0  0  0  0  0  0  0
   -4.8804    1.5322    1.9841 C   0  0  0  0  0  0  0  0  0  0  0  0
   -6.1145    1.6075    2.6347 C   0  0  0  0  0  0  0  0  0  0  0  0
   -7.1419    0.7310    2.2916 C   0  0  0  0  0  0  0  0  0  0  0  0
   -6.9348   -0.2259    1.2982 C   0  0  0  0  0  0  0  0  0  0  0  0
   -5.7025   -0.3024    0.6384 C   0  0  0  0  0  0  0  0  0  0  0  0
   -2.8275   -0.3542   -0.7448 N   0  0  0  0  0  0  0  0  0  0  0  0
   -1.5858   -0.0574   -1.1181 C   0  0  0  0  0  0  0  0  0  0  0  0
   -1.0567   -0.9719   -2.1586 C   0  0  0  0  0  0  0  0  0  0  0  0
   -2.0944   -2.1143   -2.1502 C   0  0  0  0  0  0  0  0  0  0  0  0
   -3.3463   -1.5196   -1.4482 C   0  0  0  0  0  0  0  0  0  0  0  0
    4.1159   -0.6688   -0.0849 C   0  0  0  0  0  0  0  0  0  0  0  0
    3.2196   -1.7405   -0.6515 C   0  0  0  0  0  0  0  0  0  0  0  0
    5.4055   -1.0868    0.3128 C   0  0  0  0  0  0  0  0  0  0  0  0
    8.2413    0.0493    1.8041 H   0  0  0  0  0  0  0  0  0  0  0  0
    8.3625   -0.7869    0.2353 H   0  0  0  0  0  0  0  0  0  0  0  0
    7.6874   -1.6192    1.6631 H   0  0  0  0  0  0  0  0  0  0  0  0
    6.8185    1.9149    1.0701 H   0  0  0  0  0  0  0  0  0  0  0  0
    4.5924    2.6803    0.4605 H   0  0  0  0  0  0  0  0  0  0  0  0
    2.5632    2.2947   -0.3461 H   0  0  0  0  0  0  0  0  0  0  0  0
    0.2989    1.9131   -1.6174 H   0  0  0  0  0  0  0  0  0  0  0  0
    0.1649    2.5605    0.0431 H   0  0  0  0  0  0  0  0  0  0  0  0
   -2.0357    2.2006    1.1043 H   0  0  0  0  0  0  0  0  0  0  0  0
   -4.1074    2.2330    2.2885 H   0  0  0  0  0  0  0  0  0  0  0  0
   -6.2788    2.3524    3.4083 H   0  0  0  0  0  0  0  0  0  0  0  0
   -8.1038    0.7923    2.7990 H   0  0  0  0  0  0  0  0  0  0  0  0
   -7.7408   -0.9076    1.0315 H   0  0  0  0  0  0  0  0  0  0  0  0
   -5.5928   -1.0526   -0.1377 H   0  0  0  0  0  0  0  0  0  0  0  0
   -0.0564   -1.3034   -1.8839 H   0  0  0  0  0  0  0  0  0  0  0  0
   -1.0551   -0.4127   -3.0986 H   0  0  0  0  0  0  0  0  0  0  0  0
   -2.3135   -2.4953   -3.1520 H   0  0  0  0  0  0  0  0  0  0  0  0
   -1.7104   -2.9471   -1.5485 H   0  0  0  0  0  0  0  0  0  0  0  0
   -3.7835   -2.2410   -0.7542 H   0  0  0  0  0  0  0  0  0  0  0  0
   -4.0852   -1.1875   -2.1818 H   0  0  0  0  0  0  0  0  0  0  0  0
    2.6447   -2.2246    0.1433 H   0  0  0  0  0  0  0  0  0  0  0  0
    3.8120   -2.5161   -1.1525 H   0  0  0  0  0  0  0  0  0  0  0  0
    2.5546   -1.3433   -1.4222 H   0  0  0  0  0  0  0  0  0  0  0  0
    5.6637   -2.1459    0.2561 H   0  0  0  0  0  0  0  0  0  0  0  0
  1  2  1  0
  2  3  2  0
  3  4  1  0
  4  5  2  0
  5  6  1  0
  6  7  1  0
  7  8  2  0
  7  9  1  0
  9 10  1  0
 10 11  1  0
 11 12  2  0
 12 13  1  0
 13 14  2  0
 14 15  1  0
 15 16  2  0
 16 17  1  0
 17 18  2  0
 12 19  1  0
 19 20  1  0
 20 21  1  0
 21 22  1  0
 22 23  1  0
  5 24  1  0
 24 25  1  0
 24 26  2  0
 26  2  1  0
 20 10  2  0
 18 13  1  0
 23 19  1  0
  1 27  1  0
  1 28  1  0
  1 29  1  0
  3 30  1  0
  4 31  1  0
  6 32  1  0
  9 33  1  0
  9 34  1  0
 11 35  1  0
 14 36  1  0
 15 37  1  0
 16 38  1  0
 17 39  1  0
 18 40  1  0
 21 41  1  0
 21 42  1  0
 22 43  1  0
 22 44  1  0
 23 45  1  0
 23 46  1  0
 25 47  1  0
 25 48  1  0
 25 49  1  0
 26 50  1  0
M  CHG  1  10   1
M  END
$$$$
