
     RDKit          3D

 60 62  0  0  0  0  0  0  0  0999 V2000
   -1.5145    5.0355    0.4792 C   0  0  0  0  0  0  0  0  0  0  0  0
   -2.0426    3.6391    0.3257 C   0  0  0  0  0  0  0  0  0  0  0  0
   -1.7317    2.6668    1.2766 C   0  0  0  0  0  0  0  0  0  0  0  0
   -2.1936    1.3609    1.1200 C   0  0  0  0  0  0  0  0  0  0  0  0
   -2.9530    1.0035   -0.0033 C   0  0  0  0  0  0  0  0  0  0  0  0
   -3.4589   -0.7069   -0.1337 S   0  0  0  0  0  6  0  0  0  0  0  0
   -4.8420   -0.7395   -0.5655 O   0  0  0  0  0  0  0  0  0  0  0  0
   -3.0531   -1.3998    1.0704 O   0  0  0  0  0  0  0  0  0  0  0  0
   -2.5568   -1.3179   -1.4177 N   0  0  0  0  0  0  0  0  0  0  0  0
   -1.1604   -1.0259   -1.5848 C   0  0  0  0  0  0  0  0  0  0  0  0
   -0.2993   -1.1262   -0.4852 C   0  0  0  0  0  0  0  0  0  0  0  0
    1.0531   -0.7796   -0.5843 C   0  0  0  0  0  0  0  0  0  0  0  0
    1.9615   -0.8175    0.6397 C   0  0  0  0  0  0  0  0  0  0  0  0
    2.2107   -2.2080    1.1789 C   0  0  0  0  0  0  0  0  0  0  0  0
    1.8602   -3.2546    0.6527 O   0  0  0  0  0  0  0  0  0  0  0  0
    2.9653   -2.1288    2.3136 O   0  0  0  0  0  0  0  0  0  0  0  0
    3.2764   -3.3759    2.9639 C   0  0  0  0  0  0  0  0  0  0  0  0
    2.1067   -3.7939    3.8480 C   0  0  0  0  0  0  0  0  0  0  0  0
    4.5278   -3.1417    3.8016 C   0  0  0  0  0  0  0  0  0  0  0  0
    1.4553    0.1248    1.7095 C   0  0  0  0  0  0  0  0  0  0  0  0
    0.5749   -0.2015    2.5105 O   0  0  0  0  0  0  0  0  0  0  0  0
    2.0973    1.4914    1.7035 C   0  0  0  0  0  0  0  0  0  0  0  0
    1.9546    2.1281    0.5113 F   0  0  0  0  0  0  0  0  0  0  0  0
    1.5863    2.3325    2.6454 F   0  0  0  0  0  0  0  0  0  0  0  0
    3.4340    1.4198    1.9376 F   0  0  0  0  0  0  0  0  0  0  0  0
    1.5404   -0.3884   -1.8364 C   0  0  0  0  0  0  0  0  0  0  0  0
    2.8832   -0.1078   -1.9064 O   0  0  0  0  0  0  0  0  0  0  0  0
    0.7143   -0.3020   -2.9824 C   0  0  0  0  0  0  0  0  0  0  0  0
    1.2005    0.1397   -4.2365 C   0  0  0  0  0  0  0  0  0  0  0  0
    0.3847    0.1982   -5.3649 C   0  0  0  0  0  0  0  0  0  0  0  0
   -0.9411   -0.1794   -5.2677 C   0  0  0  0  0  0  0  0  0  0  0  0
   -1.4530   -0.5881   -4.0372 C   0  0  0  0  0  0  0  0  0  0  0  0
   -0.6567   -0.6494   -2.8634 C   0  0  0  0  0  0  0  0  0  0  0  0
   -3.2950    1.9707   -0.9664 C   0  0  0  0  0  0  0  0  0  0  0  0
   -4.1501    1.6821   -2.1666 C   0  0  0  0  0  0  0  0  0  0  0  0
   -2.8194    3.2841   -0.7867 C   0  0  0  0  0  0  0  0  0  0  0  0
   -1.5620    5.3498    1.5239 H   0  0  0  0  0  0  0  0  0  0  0  0
   -2.1066    5.7456   -0.1003 H   0  0  0  0  0  0  0  0  0  0  0  0
   -0.4745    5.0882    0.1362 H   0  0  0  0  0  0  0  0  0  0  0  0
   -1.1321    2.9196    2.1482 H   0  0  0  0  0  0  0  0  0  0  0  0
   -1.9486    0.6256    1.8838 H   0  0  0  0  0  0  0  0  0  0  0  0
   -3.1378   -1.4596   -2.2371 H   0  0  0  0  0  0  0  0  0  0  0  0
   -0.6807   -1.4875    0.4679 H   0  0  0  0  0  0  0  0  0  0  0  0
    2.9678   -0.4678    0.3681 H   0  0  0  0  0  0  0  0  0  0  0  0
    3.4948   -4.1525    2.2227 H   0  0  0  0  0  0  0  0  0  0  0  0
    1.2104   -3.9840    3.2478 H   0  0  0  0  0  0  0  0  0  0  0  0
    1.8463   -2.9973    4.5526 H   0  0  0  0  0  0  0  0  0  0  0  0
    2.3412   -4.7019    4.4143 H   0  0  0  0  0  0  0  0  0  0  0  0
    5.3595   -2.8258    3.1615 H   0  0  0  0  0  0  0  0  0  0  0  0
    4.3683   -2.3393    4.5277 H   0  0  0  0  0  0  0  0  0  0  0  0
    4.8247   -4.0503    4.3377 H   0  0  0  0  0  0  0  0  0  0  0  0
    3.2039   -0.4007   -2.7775 H   0  0  0  0  0  0  0  0  0  0  0  0
    2.2298    0.4683   -4.3549 H   0  0  0  0  0  0  0  0  0  0  0  0
    0.7889    0.5360   -6.3124 H   0  0  0  0  0  0  0  0  0  0  0  0
   -1.5852   -0.1468   -6.1436 H   0  0  0  0  0  0  0  0  0  0  0  0
   -2.5008   -0.8694   -4.0220 H   0  0  0  0  0  0  0  0  0  0  0  0
   -4.2194    2.5563   -2.8280 H   0  0  0  0  0  0  0  0  0  0  0  0
   -3.7246    0.8725   -2.7628 H   0  0  0  0  0  0  0  0  0  0  0  0
   -5.1689    1.4276   -1.8658 H   0  0  0  0  0  0  0  0  0  0  0  0
   -3.0606    4.0489   -1.5239 H   0  0  0  0  0  0  0  0  0  0  0  0
  1  2  1  0
  2  3  2  0
  3  4  1  0
  4  5  2  0
  5  6  1  0
  6  7  2  0
  6  8  2  0
  6  9  1  0
  9 10  1  0
 10 11  2  0
 11 12  1  0
 12 13  1  0
 13 14  1  0
 14 15  2  0
 14 16  1  0
 16 17  1  0
 17 18  1  0
 17 19  1  0
 13 20  1  0
 20 21  2  0
 20 22  1  0
 22 23  1  0
 22 24  1  0
 22 25  1  0
 12 26  2  0
 26 27  1  0
 26 28  1  0
 28 29  2  0
 29 30  1  0
 30 31  2  0
 31 32  1  0
 32 33  2  0
  5 34  1  0
 34 35  1  0
 34 36  2  0
 36  2  1  0
 33 10  1  0
 33 28  1  0
  1 37  1  0
  1 38  1  0
  1 39  1  0
  3 40  1  0
  4 41  1  0
  9 42  1  0
 11 43  1  0
 13 44  1  0
 17 45  1  0
 18 46  1  0
 18 47  1  0
 18 48  1  0
 19 49  1  0
 19 50  1  0
 19 51  1  0
 27 52  1  0
 29 53  1  0
 30 54  1  0
 31 55  1  0
 32 56  1  0
 35 57  1  0
 35 58  1  0
 35 59  1  0
 36 60  1  0
M  END
$$$$
