
     RDKit          3D

 37 40  0  0  0  0  0  0  0  0999 V2000
   -2.1268    2.4835    0.4906 C   0  0  0  0  0  0  0  0  0  0  0  0
   -2.4780    2.4310   -0.9864 C   0  0  0  0  0  0  0  0  0  0  0  0
   -2.1042    1.1813   -1.5638 O   0  0  0  0  0  0  0  0  0  0  0  0
   -2.9156    0.0890   -1.3874 C   0  0  0  0  0  0  0  0  0  0  0  0
   -4.2082    0.1240   -0.8573 C   0  0  0  0  0  0  0  0  0  0  0  0
   -4.9576   -1.0508   -0.7382 C   0  0  0  0  0  0  0  0  0  0  0  0
   -4.4255   -2.2695   -1.1498 C   0  0  0  0  0  0  0  0  0  0  0  0
   -3.1382   -2.3197   -1.6805 C   0  0  0  0  0  0  0  0  0  0  0  0
   -2.3770   -1.1485   -1.7972 C   0  0  0  0  0  0  0  0  0  0  0  0
   -1.0262   -1.2532   -2.3644 C   0  0  0  0  0  0  0  0  0  0  0  0
    0.1124   -1.0932   -1.6746 C   0  0  0  0  0  0  0  0  0  0  0  0
    1.6858   -1.1517   -2.4710 S   0  0  0  0  0  0  0  0  0  0  0  0
    2.4465   -0.7888   -0.9802 C   0  0  0  0  0  0  0  0  0  0  0  0
    3.6743   -0.6150   -0.5869 N   0  0  0  0  0  0  0  0  0  0  0  0
    3.4992   -0.3755    0.7674 C   0  0  0  0  0  0  0  0  0  0  0  0
    4.7033   -0.0967    1.7263 C   0  0  0  0  0  0  0  0  0  0  0  0
    4.6158    0.1486    3.0837 C   0  0  0  0  0  0  0  0  0  0  0  0
    5.9385    0.3453    3.5493 C   0  0  0  0  0  0  0  0  0  0  0  0
    6.7522    0.2085    2.4502 C   0  0  0  0  0  0  0  0  0  0  0  0
    6.0154   -0.0589    1.3421 O   0  0  0  0  0  0  0  0  0  0  0  0
    2.2195   -0.4026    1.1964 N   0  0  0  0  0  0  0  0  0  0  0  0
    1.5788   -0.6663    0.0423 N   0  0  0  0  0  0  0  0  0  0  0  0
    0.2315   -0.8340   -0.1995 C   0  0  0  0  0  0  0  0  0  0  0  0
   -0.6097   -0.7897    0.6779 O   0  0  0  0  0  0  0  0  0  0  0  0
   -2.3376    3.4748    0.9020 H   0  0  0  0  0  0  0  0  0  0  0  0
   -2.6920    1.7432    1.0645 H   0  0  0  0  0  0  0  0  0  0  0  0
   -1.0654    2.2593    0.6402 H   0  0  0  0  0  0  0  0  0  0  0  0
   -1.8872    3.1950   -1.5047 H   0  0  0  0  0  0  0  0  0  0  0  0
   -3.5248    2.6855   -1.1812 H   0  0  0  0  0  0  0  0  0  0  0  0
   -4.6686    1.0463   -0.5222 H   0  0  0  0  0  0  0  0  0  0  0  0
   -5.9605   -1.0116   -0.3197 H   0  0  0  0  0  0  0  0  0  0  0  0
   -5.0111   -3.1801   -1.0531 H   0  0  0  0  0  0  0  0  0  0  0  0
   -2.7318   -3.2782   -1.9942 H   0  0  0  0  0  0  0  0  0  0  0  0
   -1.0071   -1.4425   -3.4352 H   0  0  0  0  0  0  0  0  0  0  0  0
    3.7008    0.1793    3.6597 H   0  0  0  0  0  0  0  0  0  0  0  0
    6.2586    0.5596    4.5592 H   0  0  0  0  0  0  0  0  0  0  0  0
    7.8207    0.2686    2.2958 H   0  0  0  0  0  0  0  0  0  0  0  0
  1  2  1  0
  2  3  1  0
  3  4  1  0
  4  5  2  0
  5  6  1  0
  6  7  2  0
  7  8  1  0
  8  9  2  0
  9 10  1  0
 10 11  2  3
 11 12  1  0
 12 13  1  0
 13 14  2  0
 14 15  1  0
 15 16  1  0
 16 17  2  0
 17 18  1  0
 18 19  2  0
 19 20  1  0
 15 21  2  0
 21 22  1  0
 22 23  1  0
 23 24  2  0
  9  4  1  0
 23 11  1  0
 22 13  1  0
 20 16  1  0
  1 25  1  0
  1 26  1  0
  1 27  1  0
  2 28  1  0
  2 29  1  0
  5 30  1  0
  6 31  1  0
  7 32  1  0
  8 33  1  0
 10 34  1  0
 17 35  1  0
 18 36  1  0
 19 37  1  0
M  END
$$$$
