
     RDKit          3D

 42 44  0  0  0  0  0  0  0  0999 V2000
   -8.5042   -0.3261   -0.3393 C   0  0  0  0  0  0  0  0  0  0  0  0
   -7.5523   -0.3849    0.8266 C   0  0  0  0  0  0  0  0  0  0  0  0
   -7.9638   -0.5136    1.9781 O   0  0  0  0  0  0  0  0  0  0  0  0
   -6.0851   -0.2847    0.5688 C   0  0  0  0  0  0  0  0  0  0  0  0
   -5.2093   -0.3328    1.6591 C   0  0  0  0  0  0  0  0  0  0  0  0
   -3.8271   -0.2421    1.4626 C   0  0  0  0  0  0  0  0  0  0  0  0
   -3.2968   -0.0994    0.1753 C   0  0  0  0  0  0  0  0  0  0  0  0
   -1.8935   -0.0196    0.0611 N   0  0  0  0  0  0  0  0  0  0  0  0
   -1.1570    0.1984   -1.0896 C   0  0  0  0  0  0  0  0  0  0  0  0
   -1.5965    0.4306   -2.2094 O   0  0  0  0  0  0  0  0  0  0  0  0
    0.3220    0.1853   -0.9019 C   0  0  0  0  0  0  0  0  0  0  0  0
    0.9463   -0.6709    0.0113 C   0  0  0  0  0  0  0  0  0  0  0  0
    2.3397   -0.6507    0.1570 C   0  0  0  0  0  0  0  0  0  0  0  0
    3.1232    0.2132   -0.6116 C   0  0  0  0  0  0  0  0  0  0  0  0
    4.5243    0.2935   -0.5234 N   0  0  0  0  0  0  0  0  0  0  0  0
    5.3768   -0.4063    0.3128 C   0  0  0  0  0  0  0  0  0  0  0  0
    5.0316   -1.2350    1.1487 O   0  0  0  0  0  0  0  0  0  0  0  0
    6.7709   -0.0538    0.1066 C   0  0  0  0  0  0  0  0  0  0  0  0
    7.9250   -0.5078    0.7169 C   0  0  0  0  0  0  0  0  0  0  0  0
    9.0040    0.1848    0.1177 C   0  0  0  0  0  0  0  0  0  0  0  0
    8.4481    1.0201   -0.8217 C   0  0  0  0  0  0  0  0  0  0  0  0
    7.0965    0.8868   -0.8395 O   0  0  0  0  0  0  0  0  0  0  0  0
    2.4939    1.0528   -1.5393 C   0  0  0  0  0  0  0  0  0  0  0  0
    1.1035    1.0371   -1.6882 C   0  0  0  0  0  0  0  0  0  0  0  0
   -4.1728   -0.0565   -0.9107 C   0  0  0  0  0  0  0  0  0  0  0  0
   -5.5587   -0.1470   -0.7184 C   0  0  0  0  0  0  0  0  0  0  0  0
   -8.4061    0.6293   -0.8611 H   0  0  0  0  0  0  0  0  0  0  0  0
   -8.3237   -1.1633   -1.0184 H   0  0  0  0  0  0  0  0  0  0  0  0
   -9.5311   -0.4053    0.0312 H   0  0  0  0  0  0  0  0  0  0  0  0
   -5.5981   -0.4412    2.6704 H   0  0  0  0  0  0  0  0  0  0  0  0
   -3.1782   -0.2828    2.3339 H   0  0  0  0  0  0  0  0  0  0  0  0
   -1.3813   -0.0614    0.9327 H   0  0  0  0  0  0  0  0  0  0  0  0
    0.3745   -1.3848    0.5981 H   0  0  0  0  0  0  0  0  0  0  0  0
    2.7824   -1.3358    0.8740 H   0  0  0  0  0  0  0  0  0  0  0  0
    4.9910    0.9467   -1.1445 H   0  0  0  0  0  0  0  0  0  0  0  0
    7.9675   -1.2523    1.5010 H   0  0  0  0  0  0  0  0  0  0  0  0
   10.0570    0.0870    0.3425 H   0  0  0  0  0  0  0  0  0  0  0  0
    8.8580    1.7347   -1.5225 H   0  0  0  0  0  0  0  0  0  0  0  0
    3.0740    1.7297   -2.1622 H   0  0  0  0  0  0  0  0  0  0  0  0
    0.6319    1.6924   -2.4183 H   0  0  0  0  0  0  0  0  0  0  0  0
   -3.8096    0.0433   -1.9295 H   0  0  0  0  0  0  0  0  0  0  0  0
   -6.1968   -0.1077   -1.5965 H   0  0  0  0  0  0  0  0  0  0  0  0
  1  2  1  0
  2  3  2  0
  2  4  1  0
  4  5  2  0
  5  6  1  0
  6  7  2  0
  7  8  1  0
  8  9  1  0
  9 10  2  0
  9 11  1  0
 11 12  2  0
 12 13  1  0
 13 14  2  0
 14 15  1  0
 15 16  1  0
 16 17  2  0
 16 18  1  0
 18 19  2  0
 19 20  1  0
 20 21  2  0
 21 22  1  0
 14 23  1  0
 23 24  2  0
  7 25  1  0
 25 26  2  0
 26  4  1  0
 24 11  1  0
 22 18  1  0
  1 27  1  0
  1 28  1  0
  1 29  1  0
  5 30  1  0
  6 31  1  0
  8 32  1  0
 12 33  1  0
 13 34  1  0
 15 35  1  0
 19 36  1  0
 20 37  1  0
 21 38  1  0
 23 39  1  0
 24 40  1  0
 25 41  1  0
 26 42  1  0
M  END
$$$$
