
     RDKit          3D

 61 66  0  0  0  0  0  0  0  0999 V2000
   -5.3813   -0.0790    0.2361 C   0  0  0  0  0  0  0  0  0  0  0  0
   -4.0445   -0.7212    0.6257 C   0  0  0  0  0  0  0  0  0  0  0  0
   -4.2132   -1.6024    1.8689 C   0  0  0  0  0  0  0  0  0  0  0  0
   -3.4187   -1.5191   -0.5149 C   0  0  0  0  0  0  0  0  0  0  0  0
   -4.1692   -2.5439   -1.1250 C   0  0  0  0  0  0  0  0  0  0  0  0
   -3.6138   -3.3783   -2.0987 C   0  0  0  0  0  0  0  0  0  0  0  0
   -2.2867   -3.2215   -2.4809 C   0  0  0  0  0  0  0  0  0  0  0  0
   -1.5143   -2.2207   -1.8994 C   0  0  0  0  0  0  0  0  0  0  0  0
   -2.0788   -1.3670   -0.9341 C   0  0  0  0  0  0  0  0  0  0  0  0
   -1.2516   -0.3354   -0.4309 N   0  0  0  0  0  0  0  0  0  0  0  0
   -0.0844   -0.4732    0.2945 C   0  0  0  0  0  0  0  0  0  0  0  0
    0.5662   -1.9914    0.8289 S   0  0  0  0  0  0  0  0  0  0  0  0
    2.2736   -1.5114    1.2606 C   0  0  0  0  0  0  0  0  0  0  0  0
    3.1513   -1.1416    0.0810 C   0  0  0  0  0  0  0  0  0  0  0  0
    2.9981   -1.7210   -1.1236 C   0  0  0  0  0  0  0  0  0  0  0  0
    3.6119   -1.2183   -2.3557 C   0  0  0  0  0  0  0  0  0  0  0  0
    3.5118   -1.8405   -3.4068 O   0  0  0  0  0  0  0  0  0  0  0  0
    4.2004    0.0236   -2.2726 O   0  0  0  0  0  0  0  0  0  0  0  0
    4.5175    0.5765   -1.0156 C   0  0  0  0  0  0  0  0  0  0  0  0
    5.2816    1.7369   -1.0738 C   0  0  0  0  0  0  0  0  0  0  0  0
    5.7391    2.3036    0.1049 C   0  0  0  0  0  0  0  0  0  0  0  0
    5.5014    1.6783    1.3335 C   0  0  0  0  0  0  0  0  0  0  0  0
    6.0560    2.2486    2.4915 C   0  0  0  0  0  0  0  0  0  0  0  0
    5.9184    1.6373    3.7326 C   0  0  0  0  0  0  0  0  0  0  0  0
    5.2410    0.4336    3.8249 C   0  0  0  0  0  0  0  0  0  0  0  0
    4.6732   -0.1375    2.6808 C   0  0  0  0  0  0  0  0  0  0  0  0
    4.7358    0.4762    1.4011 C   0  0  0  0  0  0  0  0  0  0  0  0
    4.1465   -0.0345    0.1939 C   0  0  0  0  0  0  0  0  0  0  0  0
    0.3987    0.7057    0.6025 N   0  0  0  0  0  0  0  0  0  0  0  0
   -0.4321    1.6500    0.0625 N   0  0  0  0  0  0  0  0  0  0  0  0
   -1.4047    1.0398   -0.5973 C   0  0  0  0  0  0  0  0  0  0  0  0
   -2.4343    1.7419   -1.3648 C   0  0  0  0  0  0  0  0  0  0  0  0
   -2.9396    2.9591   -0.8935 C   0  0  0  0  0  0  0  0  0  0  0  0
   -3.9083    3.6463   -1.6218 C   0  0  0  0  0  0  0  0  0  0  0  0
   -4.3417    3.0973   -2.8152 C   0  0  0  0  0  0  0  0  0  0  0  0
   -3.8734    1.9356   -3.3159 N   0  0  0  0  0  0  0  0  0  0  0  0
   -2.9264    1.2933   -2.5870 C   0  0  0  0  0  0  0  0  0  0  0  0
   -5.2823    0.5244   -0.6716 H   0  0  0  0  0  0  0  0  0  0  0  0
   -6.1620   -0.8238    0.0557 H   0  0  0  0  0  0  0  0  0  0  0  0
   -5.7365    0.5778    1.0380 H   0  0  0  0  0  0  0  0  0  0  0  0
   -3.3826    0.0977    0.9201 H   0  0  0  0  0  0  0  0  0  0  0  0
   -4.5955   -1.0135    2.7097 H   0  0  0  0  0  0  0  0  0  0  0  0
   -4.9132   -2.4268    1.6942 H   0  0  0  0  0  0  0  0  0  0  0  0
   -3.2542   -2.0369    2.1727 H   0  0  0  0  0  0  0  0  0  0  0  0
   -5.2020   -2.7222   -0.8303 H   0  0  0  0  0  0  0  0  0  0  0  0
   -4.2198   -4.1610   -2.5499 H   0  0  0  0  0  0  0  0  0  0  0  0
   -1.8561   -3.8757   -3.2352 H   0  0  0  0  0  0  0  0  0  0  0  0
   -0.4842   -2.0998   -2.2304 H   0  0  0  0  0  0  0  0  0  0  0  0
    2.1747   -0.6832    1.9681 H   0  0  0  0  0  0  0  0  0  0  0  0
    2.7205   -2.3604    1.7879 H   0  0  0  0  0  0  0  0  0  0  0  0
    2.3313   -2.5594   -1.2907 H   0  0  0  0  0  0  0  0  0  0  0  0
    5.5225    2.1903   -2.0313 H   0  0  0  0  0  0  0  0  0  0  0  0
    6.3275    3.2174    0.0492 H   0  0  0  0  0  0  0  0  0  0  0  0
    6.6205    3.1776    2.4325 H   0  0  0  0  0  0  0  0  0  0  0  0
    6.3598    2.0892    4.6166 H   0  0  0  0  0  0  0  0  0  0  0  0
    5.1582   -0.0737    4.7828 H   0  0  0  0  0  0  0  0  0  0  0  0
    4.2112   -1.1084    2.8164 H   0  0  0  0  0  0  0  0  0  0  0  0
   -2.5763    3.3786    0.0428 H   0  0  0  0  0  0  0  0  0  0  0  0
   -4.3085    4.5893   -1.2672 H   0  0  0  0  0  0  0  0  0  0  0  0
   -5.0946    3.5935   -3.4207 H   0  0  0  0  0  0  0  0  0  0  0  0
   -2.5636    0.3833   -3.0562 H   0  0  0  0  0  0  0  0  0  0  0  0
  1  2  1  0
  2  3  1  0
  2  4  1  0
  4  5  2  0
  5  6  1  0
  6  7  2  0
  7  8  1  0
  8  9  2  0
  9 10  1  0
 10 11  1  0
 11 12  1  0
 12 13  1  0
 13 14  1  0
 14 15  2  0
 15 16  1  0
 16 17  2  0
 16 18  1  0
 18 19  1  0
 19 20  2  0
 20 21  1  0
 21 22  2  0
 22 23  1  0
 23 24  2  0
 24 25  1  0
 25 26  2  0
 26 27  1  0
 27 28  2  0
 11 29  2  0
 29 30  1  0
 30 31  2  0
 31 32  1  0
 32 33  2  0
 33 34  1  0
 34 35  2  0
 35 36  1  0
 36 37  2  0
  9  4  1  0
 31 10  1  0
 37 32  1  0
 28 14  1  0
 28 19  1  0
 27 22  1  0
  1 38  1  0
  1 39  1  0
  1 40  1  0
  2 41  1  0
  3 42  1  0
  3 43  1  0
  3 44  1  0
  5 45  1  0
  6 46  1  0
  7 47  1  0
  8 48  1  0
 13 49  1  0
 13 50  1  0
 15 51  1  0
 20 52  1  0
 21 53  1  0
 23 54  1  0
 24 55  1  0
 25 56  1  0
 26 57  1  0
 33 58  1  0
 34 59  1  0
 35 60  1  0
 37 61  1  0
M  END
$$$$
