
     RDKit          3D

 60 65  0  0  0  0  0  0  0  0999 V2000
    5.0009   -2.4249    0.1458 C   0  0  0  0  0  0  0  0  0  0  0  0
    5.2116   -1.4460   -0.9460 C   0  0  0  0  0  0  0  0  0  0  0  0
    6.4242   -0.9030   -1.1133 N   0  0  0  0  0  0  0  0  0  0  0  0
    6.3329   -0.1190   -2.2465 O   0  0  0  0  0  0  0  0  0  0  0  0
    5.0691   -0.1800   -2.7403 C   0  0  0  0  0  0  0  0  0  0  0  0
    4.8110    0.5836   -3.9756 C   0  0  0  0  0  0  0  0  0  0  0  0
    4.2950   -0.9782   -1.9257 C   0  0  0  0  0  0  0  0  0  0  0  0
    2.8982   -1.2850   -2.1399 C   0  0  0  0  0  0  0  0  0  0  0  0
    2.5003   -1.6488   -3.2444 O   0  0  0  0  0  0  0  0  0  0  0  0
    2.0227   -1.1419   -1.0581 N   0  0  0  0  0  0  0  0  0  0  0  0
    2.2994   -0.2977    0.1076 C   0  0  0  0  0  0  0  0  0  0  0  0
    1.0582    0.4882    0.5225 C   0  0  0  0  0  0  0  0  0  0  0  0
   -0.0949   -0.4649    0.9402 C   0  0  0  0  0  0  0  0  0  0  0  0
   -0.0931   -1.7529    0.0699 C   0  0  0  0  0  0  0  0  0  0  0  0
    0.6479   -1.5840   -1.2505 C   0  0  0  0  0  0  0  0  0  0  0  0
    0.2907   -0.8587    2.2897 O   0  0  0  0  0  0  0  0  0  0  0  0
   -0.6769   -1.3438    3.1171 C   0  0  0  0  0  0  0  0  0  0  0  0
   -0.2291   -1.9501    4.2927 C   0  0  0  0  0  0  0  0  0  0  0  0
   -1.1473   -2.4957    5.1917 C   0  0  0  0  0  0  0  0  0  0  0  0
   -2.5079   -2.4284    4.9098 C   0  0  0  0  0  0  0  0  0  0  0  0
   -3.3852   -2.9571    5.7719 F   0  0  0  0  0  0  0  0  0  0  0  0
   -2.9689   -1.8186    3.7509 C   0  0  0  0  0  0  0  0  0  0  0  0
   -2.0422   -1.2666    2.8625 C   0  0  0  0  0  0  0  0  0  0  0  0
   -2.4933   -0.5940    1.6388 C   0  0  0  0  0  0  0  0  0  0  0  0
   -3.6410   -0.7681    1.2366 O   0  0  0  0  0  0  0  0  0  0  0  0
   -1.4605    0.2794    0.9334 C   0  0  0  0  0  0  0  0  0  0  0  0
   -1.9636    0.7117   -0.4374 C   0  0  0  0  0  0  0  0  0  0  0  0
   -2.5489    2.0304   -0.0585 C   0  0  0  0  0  0  0  0  0  0  0  0
   -3.4472    2.7853   -0.9639 C   0  0  0  0  0  0  0  0  0  0  0  0
   -4.0198    3.9808   -0.5074 C   0  0  0  0  0  0  0  0  0  0  0  0
   -4.8680    4.7198   -1.3368 C   0  0  0  0  0  0  0  0  0  0  0  0
   -5.1438    4.2652   -2.6240 C   0  0  0  0  0  0  0  0  0  0  0  0
   -6.1858    5.1727   -3.6477 Cl  0  0  0  0  0  0  0  0  0  0  0  0
   -4.5781    3.0786   -3.0885 C   0  0  0  0  0  0  0  0  0  0  0  0
   -3.7287    2.3370   -2.2601 C   0  0  0  0  0  0  0  0  0  0  0  0
   -2.1797    2.4733    1.1012 N   0  0  0  0  0  0  0  0  0  0  0  0
   -1.3439    1.4980    1.6861 O   0  0  0  0  0  0  0  0  0  0  0  0
    4.9411   -1.9133    1.1117 H   0  0  0  0  0  0  0  0  0  0  0  0
    4.0792   -2.9963    0.0004 H   0  0  0  0  0  0  0  0  0  0  0  0
    5.8283   -3.1417    0.1888 H   0  0  0  0  0  0  0  0  0  0  0  0
    3.7896    0.9768   -3.9870 H   0  0  0  0  0  0  0  0  0  0  0  0
    4.9436   -0.0574   -4.8526 H   0  0  0  0  0  0  0  0  0  0  0  0
    5.4966    1.4321   -4.0643 H   0  0  0  0  0  0  0  0  0  0  0  0
    2.6262   -0.9538    0.9211 H   0  0  0  0  0  0  0  0  0  0  0  0
    3.1098    0.4039   -0.1115 H   0  0  0  0  0  0  0  0  0  0  0  0
    1.3270    1.1471    1.3579 H   0  0  0  0  0  0  0  0  0  0  0  0
    0.7674    1.1335   -0.3128 H   0  0  0  0  0  0  0  0  0  0  0  0
    0.3829   -2.5735    0.6242 H   0  0  0  0  0  0  0  0  0  0  0  0
   -1.1145   -2.0906   -0.1393 H   0  0  0  0  0  0  0  0  0  0  0  0
    0.1479   -0.8504   -1.8924 H   0  0  0  0  0  0  0  0  0  0  0  0
    0.6516   -2.5352   -1.7959 H   0  0  0  0  0  0  0  0  0  0  0  0
    0.8355   -2.0033    4.5080 H   0  0  0  0  0  0  0  0  0  0  0  0
   -0.8113   -2.9726    6.1076 H   0  0  0  0  0  0  0  0  0  0  0  0
   -4.0365   -1.7684    3.5567 H   0  0  0  0  0  0  0  0  0  0  0  0
   -2.6947    0.0320   -0.8808 H   0  0  0  0  0  0  0  0  0  0  0  0
   -1.1684    0.9011   -1.1616 H   0  0  0  0  0  0  0  0  0  0  0  0
   -3.8120    4.3445    0.4977 H   0  0  0  0  0  0  0  0  0  0  0  0
   -5.3072    5.6444   -0.9708 H   0  0  0  0  0  0  0  0  0  0  0  0
   -4.7946    2.7254   -4.0939 H   0  0  0  0  0  0  0  0  0  0  0  0
   -3.3018    1.4188   -2.6520 H   0  0  0  0  0  0  0  0  0  0  0  0
  1  2  1  0
  2  3  2  0
  3  4  1  0
  4  5  1  0
  5  6  1  0
  5  7  2  0
  7  8  1  0
  8  9  2  0
  8 10  1  0
 10 11  1  0
 11 12  1  0
 12 13  1  0
 13 14  1  0
 14 15  1  0
 13 16  1  0
 16 17  1  0
 17 18  2  0
 18 19  1  0
 19 20  2  0
 20 21  1  0
 20 22  1  0
 22 23  2  0
 23 24  1  0
 24 25  2  0
 24 26  1  0
 26 27  1  0
 27 28  1  0
 28 29  1  0
 29 30  2  0
 30 31  1  0
 31 32  2  0
 32 33  1  0
 32 34  1  0
 34 35  2  0
 28 36  2  0
 36 37  1  0
  7  2  1  0
 15 10  1  0
 23 17  1  0
 37 26  1  0
 26 13  1  0
 35 29  1  0
  1 38  1  0
  1 39  1  0
  1 40  1  0
  6 41  1  0
  6 42  1  0
  6 43  1  0
 11 44  1  0
 11 45  1  0
 12 46  1  0
 12 47  1  0
 14 48  1  0
 14 49  1  0
 15 50  1  0
 15 51  1  0
 18 52  1  0
 19 53  1  0
 22 54  1  0
 27 55  1  0
 27 56  1  0
 30 57  1  0
 31 58  1  0
 34 59  1  0
 35 60  1  0
M  END
$$$$
