
     RDKit          3D

 58 61  0  0  0  0  0  0  0  0999 V2000
   -5.0334    5.6474   -0.4867 C   0  0  0  0  0  0  0  0  0  0  0  0
   -3.9832    4.6967   -0.6085 O   0  0  0  0  0  0  0  0  0  0  0  0
   -3.9817    3.6567    0.2808 C   0  0  0  0  0  0  0  0  0  0  0  0
   -4.8945    3.4591    1.3077 C   0  0  0  0  0  0  0  0  0  0  0  0
   -4.7861    2.3503    2.1550 C   0  0  0  0  0  0  0  0  0  0  0  0
   -3.7364    1.4325    1.9582 C   0  0  0  0  0  0  0  0  0  0  0  0
   -3.4208    0.0155    2.8766 S   0  0  0  0  0  0  0  0  0  0  0  0
   -2.0512   -0.3915    1.9382 C   0  0  0  0  0  0  0  0  0  0  0  0
   -1.2935   -1.5973    2.2988 C   0  0  0  0  0  0  0  0  0  0  0  0
   -0.1548   -1.4572    3.1093 C   0  0  0  0  0  0  0  0  0  0  0  0
    0.6018   -2.5714    3.4668 C   0  0  0  0  0  0  0  0  0  0  0  0
    0.2282   -3.8336    3.0156 C   0  0  0  0  0  0  0  0  0  0  0  0
   -0.9000   -3.9869    2.2043 C   0  0  0  0  0  0  0  0  0  0  0  0
   -1.6684   -2.8759    1.8367 C   0  0  0  0  0  0  0  0  0  0  0  0
   -2.7796   -2.9335    1.0329 O   0  0  0  0  0  0  0  0  0  0  0  0
   -3.1807   -4.2093    0.5547 C   0  0  0  0  0  0  0  0  0  0  0  0
   -1.8215    0.5367    0.9359 C   0  0  0  0  0  0  0  0  0  0  0  0
   -0.6942    0.4106    0.0190 C   0  0  0  0  0  0  0  0  0  0  0  0
    0.3790    1.3035    0.1027 C   0  0  0  0  0  0  0  0  0  0  0  0
    1.4632    1.1940   -0.7768 C   0  0  0  0  0  0  0  0  0  0  0  0
    1.4815    0.1931   -1.7481 C   0  0  0  0  0  0  0  0  0  0  0  0
    2.4651   -0.0318   -2.6685 O   0  0  0  0  0  0  0  0  0  0  0  0
    3.6123    0.8185   -2.6877 C   0  0  0  0  0  0  0  0  0  0  0  0
    4.7003    0.3705   -1.6893 C   0  0  0  0  0  0  0  0  0  0  0  0
    5.2383   -0.9910   -1.8959 N   0  0  0  0  0  0  0  0  0  0  0  0
    6.1232   -1.3570   -0.7886 C   0  0  0  0  0  0  0  0  0  0  0  0
    5.9450   -1.1250   -3.1686 C   0  0  0  0  0  0  0  0  0  0  0  0
    0.4051   -0.6955   -1.8293 C   0  0  0  0  0  0  0  0  0  0  0  0
   -0.6795   -0.5894   -0.9556 C   0  0  0  0  0  0  0  0  0  0  0  0
   -2.7994    1.6024    0.9383 C   0  0  0  0  0  0  0  0  0  0  0  0
   -2.9431    2.7363    0.0958 C   0  0  0  0  0  0  0  0  0  0  0  0
   -4.8978    6.3976   -1.2717 H   0  0  0  0  0  0  0  0  0  0  0  0
   -4.9883    6.1633    0.4780 H   0  0  0  0  0  0  0  0  0  0  0  0
   -6.0110    5.1783   -0.6399 H   0  0  0  0  0  0  0  0  0  0  0  0
   -5.7136    4.1485    1.4850 H   0  0  0  0  0  0  0  0  0  0  0  0
   -5.5055    2.2001    2.9552 H   0  0  0  0  0  0  0  0  0  0  0  0
    0.1455   -0.4729    3.4614 H   0  0  0  0  0  0  0  0  0  0  0  0
    1.4823   -2.4530    4.0926 H   0  0  0  0  0  0  0  0  0  0  0  0
    0.8191   -4.7038    3.2908 H   0  0  0  0  0  0  0  0  0  0  0  0
   -1.1480   -4.9892    1.8719 H   0  0  0  0  0  0  0  0  0  0  0  0
   -3.4449   -4.8766    1.3815 H   0  0  0  0  0  0  0  0  0  0  0  0
   -4.0765   -4.0696   -0.0581 H   0  0  0  0  0  0  0  0  0  0  0  0
   -2.4086   -4.6525   -0.0827 H   0  0  0  0  0  0  0  0  0  0  0  0
    0.3806    2.0881    0.8559 H   0  0  0  0  0  0  0  0  0  0  0  0
    2.2730    1.9054   -0.6668 H   0  0  0  0  0  0  0  0  0  0  0  0
    4.0080    0.7904   -3.7086 H   0  0  0  0  0  0  0  0  0  0  0  0
    3.3393    1.8680   -2.5271 H   0  0  0  0  0  0  0  0  0  0  0  0
    5.5172    1.1034   -1.7125 H   0  0  0  0  0  0  0  0  0  0  0  0
    4.2639    0.4103   -0.6842 H   0  0  0  0  0  0  0  0  0  0  0  0
    5.5846   -1.3221    0.1649 H   0  0  0  0  0  0  0  0  0  0  0  0
    6.9930   -0.6939   -0.7192 H   0  0  0  0  0  0  0  0  0  0  0  0
    6.4817   -2.3860   -0.9046 H   0  0  0  0  0  0  0  0  0  0  0  0
    6.7641   -0.4034   -3.2637 H   0  0  0  0  0  0  0  0  0  0  0  0
    5.2649   -0.9962   -4.0160 H   0  0  0  0  0  0  0  0  0  0  0  0
    6.3641   -2.1327   -3.2725 H   0  0  0  0  0  0  0  0  0  0  0  0
    0.4131   -1.4810   -2.5811 H   0  0  0  0  0  0  0  0  0  0  0  0
   -1.5059   -1.2911   -1.0397 H   0  0  0  0  0  0  0  0  0  0  0  0
   -2.2353    2.8933   -0.7153 H   0  0  0  0  0  0  0  0  0  0  0  0
  1  2  1  0
  2  3  1  0
  3  4  2  0
  4  5  1  0
  5  6  2  0
  6  7  1  0
  7  8  1  0
  8  9  1  0
  9 10  2  0
 10 11  1  0
 11 12  2  0
 12 13  1  0
 13 14  2  0
 14 15  1  0
 15 16  1  0
  8 17  2  0
 17 18  1  0
 18 19  2  0
 19 20  1  0
 20 21  2  0
 21 22  1  0
 22 23  1  0
 23 24  1  0
 24 25  1  0
 25 26  1  0
 25 27  1  0
 21 28  1  0
 28 29  2  0
 17 30  1  0
 30 31  2  0
 31  3  1  0
 30  6  1  0
 14  9  1  0
 29 18  1  0
  1 32  1  0
  1 33  1  0
  1 34  1  0
  4 35  1  0
  5 36  1  0
 10 37  1  0
 11 38  1  0
 12 39  1  0
 13 40  1  0
 16 41  1  0
 16 42  1  0
 16 43  1  0
 19 44  1  0
 20 45  1  0
 23 46  1  0
 23 47  1  0
 24 48  1  0
 24 49  1  0
 26 50  1  0
 26 51  1  0
 26 52  1  0
 27 53  1  0
 27 54  1  0
 27 55  1  0
 28 56  1  0
 29 57  1  0
 31 58  1  0
M  END
$$$$
