
     RDKit          3D

 42 46  0  0  0  0  0  0  0  0999 V2000
    1.8528   -0.5108    1.4763 O   0  0  0  0  0  0  0  0  0  0  0  0
    2.0663   -0.3492    0.2792 C   0  0  0  0  0  0  0  0  0  0  0  0
    1.1029   -0.3146   -0.7056 O   0  0  0  0  0  0  0  0  0  0  0  0
   -0.2098   -0.3339   -0.2030 C   0  0  0  0  0  0  0  0  0  0  0  0
   -0.8672    0.7886    0.1804 C   0  0  0  0  0  0  0  0  0  0  0  0
   -0.1965    2.0979    0.0998 C   0  0  0  0  0  0  0  0  0  0  0  0
   -0.1318    2.7874   -1.1181 C   0  0  0  0  0  0  0  0  0  0  0  0
    0.5390    4.0090   -1.1995 C   0  0  0  0  0  0  0  0  0  0  0  0
    1.1502    4.5463   -0.0673 C   0  0  0  0  0  0  0  0  0  0  0  0
    1.0896    3.8657    1.1480 C   0  0  0  0  0  0  0  0  0  0  0  0
    0.4178    2.6453    1.2329 C   0  0  0  0  0  0  0  0  0  0  0  0
   -2.2911    0.7123    0.6979 C   0  0  0  0  0  0  0  0  0  0  0  0
   -2.9014    1.7131    1.0645 O   0  0  0  0  0  0  0  0  0  0  0  0
   -2.8436   -0.5415    0.7135 N   0  0  0  0  0  0  0  0  0  0  0  0
   -2.1656   -1.6688    0.2878 C   0  0  0  0  0  0  0  0  0  0  0  0
   -2.9518   -2.8044    0.3915 C   0  0  0  0  0  0  0  0  0  0  0  0
   -2.4296   -4.0206    0.0005 C   0  0  0  0  0  0  0  0  0  0  0  0
   -1.1137   -4.0486   -0.4894 C   0  0  0  0  0  0  0  0  0  0  0  0
   -0.3372   -2.8716   -0.5823 C   0  0  0  0  0  0  0  0  0  0  0  0
   -0.8698   -1.6456   -0.1836 C   0  0  0  0  0  0  0  0  0  0  0  0
   -4.2985   -2.4510    0.9455 C   0  0  0  0  0  0  0  0  0  0  0  0
   -4.1868   -0.9188    1.1487 C   0  0  0  0  0  0  0  0  0  0  0  0
    3.3658   -0.1847   -0.3330 C   0  0  0  0  0  0  0  0  0  0  0  0
    3.7657    0.0559   -1.6375 C   0  0  0  0  0  0  0  0  0  0  0  0
    5.1801    0.1240   -1.6295 C   0  0  0  0  0  0  0  0  0  0  0  0
    5.5635   -0.0782   -0.3261 C   0  0  0  0  0  0  0  0  0  0  0  0
    4.4778   -0.2663    0.4651 O   0  0  0  0  0  0  0  0  0  0  0  0
   -0.6073    2.3805   -2.0074 H   0  0  0  0  0  0  0  0  0  0  0  0
    0.5806    4.5441   -2.1445 H   0  0  0  0  0  0  0  0  0  0  0  0
    1.6696    5.4991   -0.1298 H   0  0  0  0  0  0  0  0  0  0  0  0
    1.5630    4.2850    2.0321 H   0  0  0  0  0  0  0  0  0  0  0  0
    0.3807    2.1215    2.1865 H   0  0  0  0  0  0  0  0  0  0  0  0
   -3.0131   -4.9333    0.0685 H   0  0  0  0  0  0  0  0  0  0  0  0
   -0.6802   -4.9972   -0.8012 H   0  0  0  0  0  0  0  0  0  0  0  0
    0.6777   -2.9402   -0.9644 H   0  0  0  0  0  0  0  0  0  0  0  0
   -5.0956   -2.6938    0.2364 H   0  0  0  0  0  0  0  0  0  0  0  0
   -4.4818   -2.9589    1.8972 H   0  0  0  0  0  0  0  0  0  0  0  0
   -4.3159   -0.6341    2.1987 H   0  0  0  0  0  0  0  0  0  0  0  0
   -4.9240   -0.3714    0.5513 H   0  0  0  0  0  0  0  0  0  0  0  0
    3.1105    0.1745   -2.4899 H   0  0  0  0  0  0  0  0  0  0  0  0
    5.8389    0.3019   -2.4681 H   0  0  0  0  0  0  0  0  0  0  0  0
    6.5197   -0.1146    0.1779 H   0  0  0  0  0  0  0  0  0  0  0  0
  1  2  2  0
  2  3  1  0
  3  4  1  0
  4  5  2  0
  5  6  1  0
  6  7  2  0
  7  8  1  0
  8  9  2  0
  9 10  1  0
 10 11  2  0
  5 12  1  0
 12 13  2  0
 12 14  1  0
 14 15  1  0
 15 16  2  0
 16 17  1  0
 17 18  2  0
 18 19  1  0
 19 20  2  0
 16 21  1  0
 21 22  1  0
  2 23  1  0
 23 24  2  0
 24 25  1  0
 25 26  2  0
 26 27  1  0
 20  4  1  0
 27 23  1  0
 11  6  1  0
 22 14  1  0
 20 15  1  0
  7 28  1  0
  8 29  1  0
  9 30  1  0
 10 31  1  0
 11 32  1  0
 17 33  1  0
 18 34  1  0
 19 35  1  0
 21 36  1  0
 21 37  1  0
 22 38  1  0
 22 39  1  0
 24 40  1  0
 25 41  1  0
 26 42  1  0
M  END
$$$$
