
     RDKit          3D

 71 73  0  0  0  0  0  0  0  0999 V2000
   -6.8569    1.3349   -1.9315 C   0  0  0  0  0  0  0  0  0  0  0  0
   -6.7097    0.8219   -0.6150 O   0  0  0  0  0  0  0  0  0  0  0  0
   -5.5023    0.2625   -0.2769 C   0  0  0  0  0  0  0  0  0  0  0  0
   -4.3739    0.2614   -1.1066 C   0  0  0  0  0  0  0  0  0  0  0  0
   -3.1830   -0.3265   -0.6713 C   0  0  0  0  0  0  0  0  0  0  0  0
   -1.9837   -0.3299   -1.5081 C   0  0  0  0  0  0  0  0  0  0  0  0
   -0.8318   -0.8711   -1.0700 C   0  0  0  0  0  0  0  0  0  0  0  0
    0.4336   -0.8816   -1.8782 C   0  0  0  0  0  0  0  0  0  0  0  0
    1.3734    0.1591   -1.4161 N   0  0  0  0  0  0  0  0  0  0  0  0
    0.9768    1.5559   -1.7085 C   0  0  0  0  0  0  0  0  0  0  0  0
    0.5632    2.3247   -0.4442 C   0  0  0  0  0  0  0  0  0  0  0  0
   -0.1049    3.6418   -0.7780 C   0  0  0  0  0  0  0  0  0  0  0  0
   -1.5078    3.6711   -0.8829 C   0  0  0  0  0  0  0  0  0  0  0  0
   -2.1788    4.8479   -1.2122 C   0  0  0  0  0  0  0  0  0  0  0  0
   -1.4576    6.0134   -1.4434 C   0  0  0  0  0  0  0  0  0  0  0  0
   -0.0661    6.0022   -1.3419 C   0  0  0  0  0  0  0  0  0  0  0  0
    0.6260    4.8256   -1.0095 C   0  0  0  0  0  0  0  0  0  0  0  0
    2.1268    4.8737   -0.8958 C   0  0  0  0  0  0  0  0  0  0  0  0
    2.6320   -0.1563   -0.8666 C   0  0  0  0  0  0  0  0  0  0  0  0
    3.9299    0.9130   -0.7976 S   0  0  0  0  0  0  0  0  0  0  0  0
    2.7146   -1.4565   -0.4035 N   0  0  0  0  0  0  0  0  0  0  0  0
    3.8854   -2.0759    0.2164 C   0  0  0  0  0  0  0  0  0  0  0  0
    3.7027   -3.5835    0.3302 C   0  0  0  0  0  0  0  0  0  0  0  0
    4.9629   -4.3420    0.7650 C   0  0  0  0  0  0  0  0  0  0  0  0
    5.3827   -4.0121    2.1371 N   0  0  0  0  0  0  0  0  0  0  0  0
    5.7898   -5.2208    2.8594 C   0  0  0  0  0  0  0  0  0  0  0  0
    6.4952   -3.0559    2.1441 C   0  0  0  0  0  0  0  0  0  0  0  0
   -0.7910   -1.5484    0.2596 C   0  0  0  0  0  0  0  0  0  0  0  0
    0.2162   -2.1277    0.6570 O   0  0  0  0  0  0  0  0  0  0  0  0
   -1.9284   -1.5034    1.0198 N   0  0  0  0  0  0  0  0  0  0  0  0
   -3.1245   -0.9110    0.5966 C   0  0  0  0  0  0  0  0  0  0  0  0
   -4.2392   -0.9158    1.4353 C   0  0  0  0  0  0  0  0  0  0  0  0
   -5.4331   -0.3268    1.0048 C   0  0  0  0  0  0  0  0  0  0  0  0
   -6.5873   -0.2838    1.7479 O   0  0  0  0  0  0  0  0  0  0  0  0
   -6.5293   -0.7503    3.0890 C   0  0  0  0  0  0  0  0  0  0  0  0
   -7.8894    1.6806   -2.0421 H   0  0  0  0  0  0  0  0  0  0  0  0
   -6.6863    0.5552   -2.6817 H   0  0  0  0  0  0  0  0  0  0  0  0
   -6.1984    2.1938   -2.0936 H   0  0  0  0  0  0  0  0  0  0  0  0
   -4.4010    0.7195   -2.0884 H   0  0  0  0  0  0  0  0  0  0  0  0
   -2.0436    0.1426   -2.4845 H   0  0  0  0  0  0  0  0  0  0  0  0
    0.2237   -0.6738   -2.9357 H   0  0  0  0  0  0  0  0  0  0  0  0
    0.8867   -1.8781   -1.8770 H   0  0  0  0  0  0  0  0  0  0  0  0
    0.1504    1.5415   -2.4292 H   0  0  0  0  0  0  0  0  0  0  0  0
    1.7941    2.0676   -2.2263 H   0  0  0  0  0  0  0  0  0  0  0  0
   -0.1253    1.7172    0.1562 H   0  0  0  0  0  0  0  0  0  0  0  0
    1.4202    2.4950    0.2151 H   0  0  0  0  0  0  0  0  0  0  0  0
   -2.0893    2.7718   -0.6944 H   0  0  0  0  0  0  0  0  0  0  0  0
   -3.2628    4.8552   -1.2779 H   0  0  0  0  0  0  0  0  0  0  0  0
   -1.9753    6.9350   -1.6951 H   0  0  0  0  0  0  0  0  0  0  0  0
    0.4796    6.9275   -1.5192 H   0  0  0  0  0  0  0  0  0  0  0  0
    2.5123    5.8782   -1.1015 H   0  0  0  0  0  0  0  0  0  0  0  0
    2.5899    4.1958   -1.6185 H   0  0  0  0  0  0  0  0  0  0  0  0
    2.4416    4.6050    0.1178 H   0  0  0  0  0  0  0  0  0  0  0  0
    1.8397   -1.7827    0.0083 H   0  0  0  0  0  0  0  0  0  0  0  0
    4.7660   -1.8500   -0.3927 H   0  0  0  0  0  0  0  0  0  0  0  0
    4.0080   -1.6186    1.2034 H   0  0  0  0  0  0  0  0  0  0  0  0
    2.8779   -3.8040    1.0200 H   0  0  0  0  0  0  0  0  0  0  0  0
    3.3905   -3.9779   -0.6455 H   0  0  0  0  0  0  0  0  0  0  0  0
    5.7738   -4.1851    0.0422 H   0  0  0  0  0  0  0  0  0  0  0  0
    4.7106   -5.4086    0.6930 H   0  0  0  0  0  0  0  0  0  0  0  0
    6.0820   -4.9768    3.8872 H   0  0  0  0  0  0  0  0  0  0  0  0
    6.6298   -5.7302    2.3722 H   0  0  0  0  0  0  0  0  0  0  0  0
    4.9537   -5.9256    2.9357 H   0  0  0  0  0  0  0  0  0  0  0  0
    7.3912   -3.4623    1.6594 H   0  0  0  0  0  0  0  0  0  0  0  0
    6.7573   -2.7831    3.1731 H   0  0  0  0  0  0  0  0  0  0  0  0
    6.2293   -2.1242    1.6371 H   0  0  0  0  0  0  0  0  0  0  0  0
   -1.8691   -1.9485    1.9264 H   0  0  0  0  0  0  0  0  0  0  0  0
   -4.1608   -1.3820    2.4104 H   0  0  0  0  0  0  0  0  0  0  0  0
   -5.7953   -0.1871    3.6746 H   0  0  0  0  0  0  0  0  0  0  0  0
   -7.5115   -0.5875    3.5435 H   0  0  0  0  0  0  0  0  0  0  0  0
   -6.3220   -1.8252    3.1234 H   0  0  0  0  0  0  0  0  0  0  0  0
  1  2  1  0
  2  3  1  0
  3  4  2  0
  4  5  1  0
  5  6  1  0
  6  7  2  0
  7  8  1  0
  8  9  1  0
  9 10  1  0
 10 11  1  0
 11 12  1  0
 12 13  2  0
 13 14  1  0
 14 15  2  0
 15 16  1  0
 16 17  2  0
 17 18  1  0
  9 19  1  0
 19 20  2  0
 19 21  1  0
 21 22  1  0
 22 23  1  0
 23 24  1  0
 24 25  1  0
 25 26  1  0
 25 27  1  0
  7 28  1  0
 28 29  2  0
 28 30  1  0
 30 31  1  0
 31 32  1  0
 32 33  2  0
 33 34  1  0
 34 35  1  0
 33  3  1  0
 31  5  2  0
 17 12  1  0
  1 36  1  0
  1 37  1  0
  1 38  1  0
  4 39  1  0
  6 40  1  0
  8 41  1  0
  8 42  1  0
 10 43  1  0
 10 44  1  0
 11 45  1  0
 11 46  1  0
 13 47  1  0
 14 48  1  0
 15 49  1  0
 16 50  1  0
 18 51  1  0
 18 52  1  0
 18 53  1  0
 21 54  1  0
 22 55  1  0
 22 56  1  0
 23 57  1  0
 23 58  1  0
 24 59  1  0
 24 60  1  0
 26 61  1  0
 26 62  1  0
 26 63  1  0
 27 64  1  0
 27 65  1  0
 27 66  1  0
 30 67  1  0
 32 68  1  0
 35 69  1  0
 35 70  1  0
 35 71  1  0
M  END
$$$$
