
     RDKit          3D

 61 66  0  0  0  0  0  0  0  0999 V2000
    8.9599    2.6918    1.2342 F   0  0  0  0  0  0  0  0  0  0  0  0
    8.0470    1.7113    1.1628 C   0  0  0  0  0  0  0  0  0  0  0  0
    8.2157    0.6829    0.2436 C   0  0  0  0  0  0  0  0  0  0  0  0
    7.2681   -0.3402    0.1722 C   0  0  0  0  0  0  0  0  0  0  0  0
    6.1527   -0.3362    1.0255 C   0  0  0  0  0  0  0  0  0  0  0  0
    5.1285   -1.4451    0.9496 C   0  0  0  0  0  0  0  0  0  0  0  0
    3.9579   -1.1452   -0.0066 C   0  0  0  0  0  0  0  0  0  0  0  0
    3.0059   -0.1275    0.4760 N   0  0  0  0  0  0  0  0  0  0  0  0
    2.2893   -0.5712    1.6975 C   0  0  0  0  0  0  0  0  0  0  0  0
    0.9100    0.1008    1.8791 C   0  0  0  0  0  0  0  0  0  0  0  0
   -0.0024   -0.2821    0.7779 N   0  0  0  0  0  0  0  0  0  0  0  0
   -1.2467    0.2969    0.7361 C   0  0  0  0  0  0  0  0  0  0  0  0
   -1.6468    1.5467    1.1764 C   0  0  0  0  0  0  0  0  0  0  0  0
   -2.9635    1.7729    0.7215 C   0  0  0  0  0  0  0  0  0  0  0  0
   -3.3606    0.6473    0.0250 C   0  0  0  0  0  0  0  0  0  0  0  0
   -4.5720    0.3294   -0.6998 C   0  0  0  0  0  0  0  0  0  0  0  0
   -5.5757    1.3827   -1.0026 C   0  0  0  0  0  0  0  0  0  0  0  0
   -5.1878    2.6245   -1.5183 C   0  0  0  0  0  0  0  0  0  0  0  0
   -6.1531    3.5931   -1.7980 C   0  0  0  0  0  0  0  0  0  0  0  0
   -7.5032    3.3198   -1.5750 C   0  0  0  0  0  0  0  0  0  0  0  0
   -7.8931    2.0759   -1.0822 C   0  0  0  0  0  0  0  0  0  0  0  0
   -6.9320    1.1034   -0.8018 C   0  0  0  0  0  0  0  0  0  0  0  0
   -4.8073   -0.8858   -1.0987 N   0  0  0  0  0  0  0  0  0  0  0  0
   -3.8635   -1.8949   -0.8242 C   0  0  0  0  0  0  0  0  0  0  0  0
   -4.1827   -3.2019   -1.2038 C   0  0  0  0  0  0  0  0  0  0  0  0
   -3.3100   -4.2572   -0.9354 C   0  0  0  0  0  0  0  0  0  0  0  0
   -2.1105   -4.0134   -0.2673 C   0  0  0  0  0  0  0  0  0  0  0  0
   -1.7722   -2.7141    0.1158 C   0  0  0  0  0  0  0  0  0  0  0  0
   -2.6341   -1.6557   -0.1855 C   0  0  0  0  0  0  0  0  0  0  0  0
   -2.3742   -0.3126    0.1811 N   0  0  0  0  0  0  0  0  0  0  0  0
    0.6813   -0.4670   -0.5328 C   0  0  0  0  0  0  0  0  0  0  0  0
    2.0434    0.2629   -0.5820 C   0  0  0  0  0  0  0  0  0  0  0  0
    5.9984    0.7153    1.9396 C   0  0  0  0  0  0  0  0  0  0  0  0
    6.9471    1.7374    2.0097 C   0  0  0  0  0  0  0  0  0  0  0  0
    9.0825    0.6846   -0.4086 H   0  0  0  0  0  0  0  0  0  0  0  0
    7.4072   -1.1414   -0.5500 H   0  0  0  0  0  0  0  0  0  0  0  0
    4.7717   -1.6897    1.9559 H   0  0  0  0  0  0  0  0  0  0  0  0
    5.6331   -2.3562    0.6004 H   0  0  0  0  0  0  0  0  0  0  0  0
    3.4240   -2.0821   -0.2142 H   0  0  0  0  0  0  0  0  0  0  0  0
    4.3865   -0.8136   -0.9612 H   0  0  0  0  0  0  0  0  0  0  0  0
    2.1333   -1.6585    1.6782 H   0  0  0  0  0  0  0  0  0  0  0  0
    2.9063   -0.3436    2.5737 H   0  0  0  0  0  0  0  0  0  0  0  0
    0.4769   -0.2246    2.8322 H   0  0  0  0  0  0  0  0  0  0  0  0
    1.0450    1.1886    1.9234 H   0  0  0  0  0  0  0  0  0  0  0  0
   -1.0276    2.2635    1.6987 H   0  0  0  0  0  0  0  0  0  0  0  0
   -3.5402    2.6775    0.8647 H   0  0  0  0  0  0  0  0  0  0  0  0
   -4.1411    2.8422   -1.7205 H   0  0  0  0  0  0  0  0  0  0  0  0
   -5.8511    4.5598   -2.1943 H   0  0  0  0  0  0  0  0  0  0  0  0
   -8.2533    4.0757   -1.7941 H   0  0  0  0  0  0  0  0  0  0  0  0
   -8.9439    1.8629   -0.9162 H   0  0  0  0  0  0  0  0  0  0  0  0
   -7.2386    0.1328   -0.4237 H   0  0  0  0  0  0  0  0  0  0  0  0
   -5.1275   -3.3930   -1.7058 H   0  0  0  0  0  0  0  0  0  0  0  0
   -3.5748   -5.2686   -1.2326 H   0  0  0  0  0  0  0  0  0  0  0  0
   -1.4419   -4.8380   -0.0333 H   0  0  0  0  0  0  0  0  0  0  0  0
   -0.8540   -2.5627    0.6729 H   0  0  0  0  0  0  0  0  0  0  0  0
    0.0580   -0.1091   -1.3617 H   0  0  0  0  0  0  0  0  0  0  0  0
    0.8451   -1.5383   -0.6940 H   0  0  0  0  0  0  0  0  0  0  0  0
    1.8600    1.3398   -0.4657 H   0  0  0  0  0  0  0  0  0  0  0  0
    2.4828    0.1496   -1.5824 H   0  0  0  0  0  0  0  0  0  0  0  0
    5.1348    0.7468    2.5994 H   0  0  0  0  0  0  0  0  0  0  0  0
    6.8326    2.5507    2.7185 H   0  0  0  0  0  0  0  0  0  0  0  0
  1  2  1  0
  2  3  2  0
  3  4  1  0
  4  5  2  0
  5  6  1  0
  6  7  1  0
  7  8  1  0
  8  9  1  0
  9 10  1  0
 10 11  1  0
 11 12  1  0
 12 13  2  0
 13 14  1  0
 14 15  2  0
 15 16  1  0
 16 17  1  0
 17 18  2  0
 18 19  1  0
 19 20  2  0
 20 21  1  0
 21 22  2  0
 16 23  2  0
 23 24  1  0
 24 25  2  0
 25 26  1  0
 26 27  2  0
 27 28  1  0
 28 29  2  0
 29 30  1  0
 11 31  1  0
 31 32  1  0
  5 33  1  0
 33 34  2  0
 34  2  1  0
 32  8  1  0
 30 12  1  0
 30 15  1  0
 22 17  1  0
 29 24  1  0
  3 35  1  0
  4 36  1  0
  6 37  1  0
  6 38  1  0
  7 39  1  0
  7 40  1  0
  9 41  1  0
  9 42  1  0
 10 43  1  0
 10 44  1  0
 13 45  1  0
 14 46  1  0
 18 47  1  0
 19 48  1  0
 20 49  1  0
 21 50  1  0
 22 51  1  0
 25 52  1  0
 26 53  1  0
 27 54  1  0
 28 55  1  0
 31 56  1  0
 31 57  1  0
 32 58  1  0
 32 59  1  0
 33 60  1  0
 34 61  1  0
M  END
$$$$
