
     RDKit          3D

 36 35  0  0  0  0  0  0  0  0999 V2000
    0.3038   -1.6552   -1.6792 C   0  0  0  0  0  0  0  0  0  0  0  0
    1.5842   -1.0243   -2.2027 C   0  0  0  0  0  0  0  0  0  0  0  0
    2.5066   -0.6132   -1.1288 N   0  0  0  0  0  0  0  0  0  0  0  0
    3.4189   -1.6718   -0.6588 C   0  0  0  0  0  0  0  0  0  0  0  0
    4.6581   -1.8113   -1.5328 C   0  0  0  0  0  0  0  0  0  0  0  0
    2.5763    0.6993   -0.6119 C   0  0  0  0  0  0  0  0  0  0  0  0
    3.8680    1.3083    0.2929 S   0  0  0  0  0  0  0  0  0  0  0  0
    1.2132    1.7700   -1.0193 S   0  0  0  0  0  0  0  0  0  0  0  0
    0.4616    2.2998    0.8345 S   0  0  0  0  0  0  0  0  0  0  0  0
   -0.5377    0.8898    1.2368 C   0  0  0  0  0  0  0  0  0  0  0  0
    0.1413   -0.2909    2.2351 S   0  0  0  0  0  0  0  0  0  0  0  0
   -1.8484    0.8569    0.7082 N   0  0  0  0  0  0  0  0  0  0  0  0
   -2.7123   -0.3269    0.8774 C   0  0  0  0  0  0  0  0  0  0  0  0
   -3.6092   -0.2534    2.1030 C   0  0  0  0  0  0  0  0  0  0  0  0
   -2.4917    2.0197    0.0655 C   0  0  0  0  0  0  0  0  0  0  0  0
   -2.9809    3.0640    1.0604 C   0  0  0  0  0  0  0  0  0  0  0  0
    0.5148   -2.5129   -1.0333 H   0  0  0  0  0  0  0  0  0  0  0  0
   -0.3132   -2.0025   -2.5140 H   0  0  0  0  0  0  0  0  0  0  0  0
   -0.2875   -0.9409   -1.1038 H   0  0  0  0  0  0  0  0  0  0  0  0
    1.3458   -0.1738   -2.8479 H   0  0  0  0  0  0  0  0  0  0  0  0
    2.1042   -1.7442   -2.8449 H   0  0  0  0  0  0  0  0  0  0  0  0
    2.8691   -2.6198   -0.6451 H   0  0  0  0  0  0  0  0  0  0  0  0
    3.7160   -1.4818    0.3771 H   0  0  0  0  0  0  0  0  0  0  0  0
    5.2318   -0.8809   -1.5739 H   0  0  0  0  0  0  0  0  0  0  0  0
    5.3106   -2.5964   -1.1382 H   0  0  0  0  0  0  0  0  0  0  0  0
    4.3923   -2.0795   -2.5600 H   0  0  0  0  0  0  0  0  0  0  0  0
   -2.0995   -1.2317    0.9322 H   0  0  0  0  0  0  0  0  0  0  0  0
   -3.3217   -0.4438   -0.0264 H   0  0  0  0  0  0  0  0  0  0  0  0
   -4.3676    0.5261    1.9909 H   0  0  0  0  0  0  0  0  0  0  0  0
   -4.1345   -1.2037    2.2415 H   0  0  0  0  0  0  0  0  0  0  0  0
   -3.0388   -0.0411    3.0120 H   0  0  0  0  0  0  0  0  0  0  0  0
   -3.3369    1.6693   -0.5379 H   0  0  0  0  0  0  0  0  0  0  0  0
   -1.7987    2.4831   -0.6414 H   0  0  0  0  0  0  0  0  0  0  0  0
   -3.7475    2.6573    1.7245 H   0  0  0  0  0  0  0  0  0  0  0  0
   -3.4192    3.9130    0.5261 H   0  0  0  0  0  0  0  0  0  0  0  0
   -2.1713    3.4433    1.6898 H   0  0  0  0  0  0  0  0  0  0  0  0
  1  2  1  0
  2  3  1  0
  3  4  1  0
  4  5  1  0
  3  6  1  0
  6  7  2  0
  6  8  1  0
  8  9  1  0
  9 10  1  0
 10 11  2  0
 10 12  1  0
 12 13  1  0
 13 14  1  0
 12 15  1  0
 15 16  1  0
  1 17  1  0
  1 18  1  0
  1 19  1  0
  2 20  1  0
  2 21  1  0
  4 22  1  0
  4 23  1  0
  5 24  1  0
  5 25  1  0
  5 26  1  0
 13 27  1  0
 13 28  1  0
 14 29  1  0
 14 30  1  0
 14 31  1  0
 15 32  1  0
 15 33  1  0
 16 34  1  0
 16 35  1  0
 16 36  1  0
M  END
$$$$
