
     RDKit          3D

 68 71  0  0  0  0  0  0  0  0999 V2000
    9.0238    0.9382    1.7644 C   0  0  0  0  0  0  0  0  0  0  0  0
    7.8843    0.0467    2.0397 C   0  0  0  0  0  0  0  0  0  0  0  0
    6.5369    0.1096    1.7805 C   0  0  0  0  0  0  0  0  0  0  0  0
    6.0165   -1.0922    2.3086 C   0  0  0  0  0  0  0  0  0  0  0  0
    4.7211   -1.5582    2.3158 N   0  0  0  0  0  0  0  0  0  0  0  0
    3.6395   -0.9148    1.7582 C   0  0  0  0  0  0  0  0  0  0  0  0
    3.6637    0.1699    1.1849 O   0  0  0  0  0  0  0  0  0  0  0  0
    2.3628   -1.7105    1.9361 C   0  0  0  0  0  0  0  0  0  0  0  0
    1.1775   -1.0417    1.2451 C   0  0  0  0  0  0  0  0  0  0  0  0
   -0.1062   -1.8230    1.4637 C   0  0  0  0  0  0  0  0  0  0  0  0
   -0.0909   -2.8462    2.1502 O   0  0  0  0  0  0  0  0  0  0  0  0
   -1.2671   -1.3290    0.8742 N   0  0  0  0  0  0  0  0  0  0  0  0
   -2.4887   -2.1151    1.0644 C   0  0  0  0  0  0  0  0  0  0  0  0
   -3.3306   -1.5313    2.1492 C   0  0  0  0  0  0  0  0  0  0  0  0
   -4.6678   -1.1939    2.2233 C   0  0  0  0  0  0  0  0  0  0  0  0
   -4.8822   -0.6758    3.5231 C   0  0  0  0  0  0  0  0  0  0  0  0
   -3.6675   -0.7368    4.1634 C   0  0  0  0  0  0  0  0  0  0  0  0
   -2.7215   -1.2572    3.3413 O   0  0  0  0  0  0  0  0  0  0  0  0
   -1.2731   -0.2357   -0.1245 C   0  0  0  0  0  0  0  0  0  0  0  0
   -1.0142   -0.8093   -1.5517 C   0  0  0  0  0  0  0  0  0  0  0  0
   -1.1451   -1.9977   -1.8397 O   0  0  0  0  0  0  0  0  0  0  0  0
   -0.6243    0.1421   -2.4828 N   0  0  0  0  0  0  0  0  0  0  0  0
   -0.4196   -0.2081   -3.8816 C   0  0  0  0  0  0  0  0  0  0  0  0
    0.3925    0.8700   -4.5984 C   0  0  0  0  0  0  0  0  0  0  0  0
   -0.6625    1.8415   -5.1044 C   0  0  0  0  0  0  0  0  0  0  0  0
   -1.7699    0.9233   -5.5929 C   0  0  0  0  0  0  0  0  0  0  0  0
   -1.7522   -0.2760   -4.6441 C   0  0  0  0  0  0  0  0  0  0  0  0
   -2.4999    0.6811   -0.0601 C   0  0  0  0  0  0  0  0  0  0  0  0
   -3.5923    0.4807   -0.9306 C   0  0  0  0  0  0  0  0  0  0  0  0
   -4.7111    1.3130   -0.8937 C   0  0  0  0  0  0  0  0  0  0  0  0
   -4.7677    2.3566    0.0204 C   0  0  0  0  0  0  0  0  0  0  0  0
   -3.7104    2.5637    0.9038 C   0  0  0  0  0  0  0  0  0  0  0  0
   -2.5766    1.7332    0.8841 C   0  0  0  0  0  0  0  0  0  0  0  0
   -1.4768    2.0000    1.8779 C   0  0  0  0  0  0  0  0  0  0  0  0
    6.9869   -1.8312    2.8595 N   0  0  0  0  0  0  0  0  0  0  0  0
    8.1573   -1.1160    2.6877 O   0  0  0  0  0  0  0  0  0  0  0  0
    8.7875    1.9655    2.0584 H   0  0  0  0  0  0  0  0  0  0  0  0
    9.9167    0.6266    2.3155 H   0  0  0  0  0  0  0  0  0  0  0  0
    9.2631    0.9326    0.6962 H   0  0  0  0  0  0  0  0  0  0  0  0
    6.0138    0.9054    1.2728 H   0  0  0  0  0  0  0  0  0  0  0  0
    4.6089   -2.4568    2.7665 H   0  0  0  0  0  0  0  0  0  0  0  0
    2.5167   -2.7157    1.5246 H   0  0  0  0  0  0  0  0  0  0  0  0
    2.1695   -1.8097    3.0116 H   0  0  0  0  0  0  0  0  0  0  0  0
    1.3807   -0.9745    0.1708 H   0  0  0  0  0  0  0  0  0  0  0  0
    1.0435   -0.0323    1.6499 H   0  0  0  0  0  0  0  0  0  0  0  0
   -3.0430   -2.1666    0.1217 H   0  0  0  0  0  0  0  0  0  0  0  0
   -2.2471   -3.1497    1.3329 H   0  0  0  0  0  0  0  0  0  0  0  0
   -5.3939   -1.2985    1.4296 H   0  0  0  0  0  0  0  0  0  0  0  0
   -5.8064   -0.3015    3.9411 H   0  0  0  0  0  0  0  0  0  0  0  0
   -3.3261   -0.4625    5.1508 H   0  0  0  0  0  0  0  0  0  0  0  0
   -0.4029    0.4032    0.0552 H   0  0  0  0  0  0  0  0  0  0  0  0
   -0.7872    1.1167   -2.2547 H   0  0  0  0  0  0  0  0  0  0  0  0
    0.0977   -1.1732   -3.9140 H   0  0  0  0  0  0  0  0  0  0  0  0
    1.1295    1.3604   -3.9549 H   0  0  0  0  0  0  0  0  0  0  0  0
    0.9220    0.4296   -5.4523 H   0  0  0  0  0  0  0  0  0  0  0  0
   -0.2837    2.4919   -5.8978 H   0  0  0  0  0  0  0  0  0  0  0  0
   -1.0264    2.4749   -4.2870 H   0  0  0  0  0  0  0  0  0  0  0  0
   -1.5529    0.5864   -6.6138 H   0  0  0  0  0  0  0  0  0  0  0  0
   -2.7431    1.4244   -5.6086 H   0  0  0  0  0  0  0  0  0  0  0  0
   -1.8219   -1.2052   -5.2232 H   0  0  0  0  0  0  0  0  0  0  0  0
   -2.6173   -0.2477   -3.9730 H   0  0  0  0  0  0  0  0  0  0  0  0
   -3.5930   -0.3388   -1.6481 H   0  0  0  0  0  0  0  0  0  0  0  0
   -5.5407    1.1413   -1.5748 H   0  0  0  0  0  0  0  0  0  0  0  0
   -5.6388    3.0054    0.0551 H   0  0  0  0  0  0  0  0  0  0  0  0
   -3.7818    3.3782    1.6223 H   0  0  0  0  0  0  0  0  0  0  0  0
   -0.5799    2.3565    1.3622 H   0  0  0  0  0  0  0  0  0  0  0  0
   -1.7683    2.7669    2.6037 H   0  0  0  0  0  0  0  0  0  0  0  0
   -1.2391    1.0968    2.4467 H   0  0  0  0  0  0  0  0  0  0  0  0
  1  2  1  0
  2  3  2  0
  3  4  1  0
  4  5  1  0
  5  6  1  0
  6  7  2  0
  6  8  1  0
  8  9  1  0
  9 10  1  0
 10 11  2  0
 10 12  1  0
 12 13  1  0
 13 14  1  0
 14 15  2  0
 15 16  1  0
 16 17  2  0
 17 18  1  0
 12 19  1  0
 19 20  1  0
 20 21  2  0
 20 22  1  0
 22 23  1  0
 23 24  1  0
 24 25  1  0
 25 26  1  0
 26 27  1  0
 19 28  1  0
 28 29  2  0
 29 30  1  0
 30 31  2  0
 31 32  1  0
 32 33  2  0
 33 34  1  0
  4 35  2  0
 35 36  1  0
 36  2  1  0
 18 14  1  0
 27 23  1  0
 33 28  1  0
  1 37  1  0
  1 38  1  0
  1 39  1  0
  3 40  1  0
  5 41  1  0
  8 42  1  0
  8 43  1  0
  9 44  1  0
  9 45  1  0
 13 46  1  0
 13 47  1  0
 15 48  1  0
 16 49  1  0
 17 50  1  0
 19 51  1  0
 22 52  1  0
 23 53  1  0
 24 54  1  0
 24 55  1  0
 25 56  1  0
 25 57  1  0
 26 58  1  0
 26 59  1  0
 27 60  1  0
 27 61  1  0
 29 62  1  0
 30 63  1  0
 31 64  1  0
 32 65  1  0
 34 66  1  0
 34 67  1  0
 34 68  1  0
M  END
$$$$
