
     RDKit          3D

 42 44  0  0  0  0  0  0  0  0999 V2000
   -4.5970   -2.1970   -0.0916 C   0  0  0  0  0  0  0  0  0  0  0  0
   -4.2816   -0.8838    0.6258 C   0  0  0  0  0  0  0  0  0  0  0  0
   -4.3151   -1.0540    2.1454 C   0  0  0  0  0  0  0  0  0  0  0  0
   -3.0095   -0.3151    0.1738 N   0  0  0  0  0  0  0  0  0  0  0  0
   -1.7862   -0.9203    0.3408 C   0  0  0  0  0  0  0  0  0  0  0  0
   -0.8187   -0.0955   -0.1863 C   0  0  0  0  0  0  0  0  0  0  0  0
    0.5698   -0.4289   -0.1554 C   0  0  0  0  0  0  0  0  0  0  0  0
    1.5733    0.4516   -0.0036 C   0  0  0  0  0  0  0  0  0  0  0  0
    2.9932    0.0857    0.0356 C   0  0  0  0  0  0  0  0  0  0  0  0
    3.4555   -1.0408    0.7144 C   0  0  0  0  0  0  0  0  0  0  0  0
    4.8174   -1.3199    0.7410 C   0  0  0  0  0  0  0  0  0  0  0  0
    5.6993   -0.5074    0.1175 N   0  0  0  0  0  4  0  0  0  0  0  0
    7.1379   -0.8190    0.1667 C   0  0  0  0  0  0  0  0  0  0  0  0
    5.2775    0.6030   -0.5270 C   0  0  0  0  0  0  0  0  0  0  0  0
    3.9250    0.9218   -0.5771 C   0  0  0  0  0  0  0  0  0  0  0  0
   -1.4782    1.0444   -0.7391 C   0  0  0  0  0  0  0  0  0  0  0  0
   -1.0512    2.1912   -1.4475 C   0  0  0  0  0  0  0  0  0  0  0  0
   -1.9816    3.1506   -1.8584 C   0  0  0  0  0  0  0  0  0  0  0  0
   -3.3318    2.9831   -1.5818 C   0  0  0  0  0  0  0  0  0  0  0  0
   -3.7884    1.8533   -0.8983 C   0  0  0  0  0  0  0  0  0  0  0  0
   -2.8496    0.8892   -0.4887 C   0  0  0  0  0  0  0  0  0  0  0  0
   -3.8747   -2.9812    0.1597 H   0  0  0  0  0  0  0  0  0  0  0  0
   -4.5776   -2.0622   -1.1787 H   0  0  0  0  0  0  0  0  0  0  0  0
   -5.5930   -2.5583    0.1857 H   0  0  0  0  0  0  0  0  0  0  0  0
   -5.0680   -0.1699    0.3616 H   0  0  0  0  0  0  0  0  0  0  0  0
   -3.5844   -1.7944    2.4882 H   0  0  0  0  0  0  0  0  0  0  0  0
   -5.3059   -1.3852    2.4743 H   0  0  0  0  0  0  0  0  0  0  0  0
   -4.0916   -0.1070    2.6491 H   0  0  0  0  0  0  0  0  0  0  0  0
   -1.7078   -1.8795    0.8357 H   0  0  0  0  0  0  0  0  0  0  0  0
    0.7944   -1.4900   -0.2408 H   0  0  0  0  0  0  0  0  0  0  0  0
    1.3517    1.5118    0.1024 H   0  0  0  0  0  0  0  0  0  0  0  0
    2.7661   -1.7006    1.2377 H   0  0  0  0  0  0  0  0  0  0  0  0
    5.2109   -2.1870    1.2640 H   0  0  0  0  0  0  0  0  0  0  0  0
    7.6165   -0.4455   -0.7422 H   0  0  0  0  0  0  0  0  0  0  0  0
    7.5485   -0.3293    1.0532 H   0  0  0  0  0  0  0  0  0  0  0  0
    7.2681   -1.9027    0.2244 H   0  0  0  0  0  0  0  0  0  0  0  0
    6.0288    1.2316   -0.9968 H   0  0  0  0  0  0  0  0  0  0  0  0
    3.6050    1.8199   -1.1029 H   0  0  0  0  0  0  0  0  0  0  0  0
   -0.0036    2.3329   -1.6902 H   0  0  0  0  0  0  0  0  0  0  0  0
   -1.6472    4.0304   -2.4024 H   0  0  0  0  0  0  0  0  0  0  0  0
   -4.0466    3.7356   -1.9079 H   0  0  0  0  0  0  0  0  0  0  0  0
   -4.8499    1.7384   -0.7034 H   0  0  0  0  0  0  0  0  0  0  0  0
  1  2  1  0
  2  3  1  0
  2  4  1  0
  4  5  1  0
  5  6  2  0
  6  7  1  0
  7  8  2  3
  8  9  1  0
  9 10  2  0
 10 11  1  0
 11 12  2  0
 12 13  1  0
 12 14  1  0
 14 15  2  0
  6 16  1  0
 16 17  2  0
 17 18  1  0
 18 19  2  0
 19 20  1  0
 20 21  2  0
 21  4  1  0
 15  9  1  0
 21 16  1  0
  1 22  1  0
  1 23  1  0
  1 24  1  0
  2 25  1  0
  3 26  1  0
  3 27  1  0
  3 28  1  0
  5 29  1  0
  7 30  1  0
  8 31  1  0
 10 32  1  0
 11 33  1  0
 13 34  1  0
 13 35  1  0
 13 36  1  0
 14 37  1  0
 15 38  1  0
 17 39  1  0
 18 40  1  0
 19 41  1  0
 20 42  1  0
M  CHG  1  12   1
M  END
$$$$
