
     RDKit          3D

 62 67  0  0  0  0  0  0  0  0999 V2000
   -2.5270   -0.6388    4.8729 C   0  0  0  0  0  0  0  0  0  0  0  0
   -2.7168   -0.5297    3.4692 O   0  0  0  0  0  0  0  0  0  0  0  0
   -2.4954   -1.6531    2.7120 C   0  0  0  0  0  0  0  0  0  0  0  0
   -1.9091   -2.8281    3.1976 C   0  0  0  0  0  0  0  0  0  0  0  0
   -1.6962   -3.9187    2.3493 C   0  0  0  0  0  0  0  0  0  0  0  0
   -2.0616   -3.8463    1.0085 C   0  0  0  0  0  0  0  0  0  0  0  0
   -2.6441   -2.6818    0.5119 C   0  0  0  0  0  0  0  0  0  0  0  0
   -2.8692   -1.5804    1.3540 C   0  0  0  0  0  0  0  0  0  0  0  0
   -3.4801   -0.3722    0.7829 C   0  0  0  0  0  0  0  0  0  0  0  0
   -5.1622   -0.1464    0.9779 S   0  0  0  0  0  0  0  0  0  0  0  0
   -5.1573    1.3331    0.1012 C   0  0  0  0  0  0  0  0  0  0  0  0
   -6.2776    2.1526   -0.1606 C   0  0  0  0  0  0  0  0  0  0  0  0
   -6.0457    3.3026   -0.8863 C   0  0  0  0  0  0  0  0  0  0  0  0
   -4.7997    3.6448   -1.3350 C   0  0  0  0  0  0  0  0  0  0  0  0
   -3.6908    2.8586   -1.0909 C   0  0  0  0  0  0  0  0  0  0  0  0
   -3.8673    1.6569   -0.3496 C   0  0  0  0  0  0  0  0  0  0  0  0
   -2.9045    0.6533    0.0517 C   0  0  0  0  0  0  0  0  0  0  0  0
   -1.4792    0.6636   -0.2580 C   0  0  0  0  0  0  0  0  0  0  0  0
   -0.5366    0.8976    0.7486 C   0  0  0  0  0  0  0  0  0  0  0  0
    0.8304    0.9087    0.4497 C   0  0  0  0  0  0  0  0  0  0  0  0
    1.2633    0.6880   -0.8582 C   0  0  0  0  0  0  0  0  0  0  0  0
    2.5618    0.6733   -1.2848 O   0  0  0  0  0  0  0  0  0  0  0  0
    3.5774    0.7685   -0.2850 C   0  0  0  0  0  0  0  0  0  0  0  0
    4.9650    0.6448   -0.9470 C   0  0  0  0  0  0  0  0  0  0  0  0
    5.2383   -0.6468   -1.6053 N   0  0  0  0  0  0  0  0  0  0  0  0
    6.5438   -0.6511   -2.2978 C   0  0  0  0  0  0  0  0  0  0  0  0
    7.6501   -1.3682   -1.5081 C   0  0  0  0  0  0  0  0  0  0  0  0
    7.3457   -2.7394   -1.2177 O   0  0  0  0  0  0  0  0  0  0  0  0
    5.9364   -3.0039   -1.1680 C   0  0  0  0  0  0  0  0  0  0  0  0
    5.1279   -1.7925   -0.6797 C   0  0  0  0  0  0  0  0  0  0  0  0
    0.3188    0.4651   -1.8637 C   0  0  0  0  0  0  0  0  0  0  0  0
   -1.0466    0.4517   -1.5696 C   0  0  0  0  0  0  0  0  0  0  0  0
   -4.7979    4.8170   -2.0260 O   0  0  0  0  0  0  0  0  0  0  0  0
   -6.1933    5.1737   -1.9582 C   0  0  0  0  0  0  0  0  0  0  0  0
   -6.9933    4.2149   -1.2367 O   0  0  0  0  0  0  0  0  0  0  0  0
   -3.1498   -1.4323    5.2991 H   0  0  0  0  0  0  0  0  0  0  0  0
   -2.8381    0.3073    5.3262 H   0  0  0  0  0  0  0  0  0  0  0  0
   -1.4702   -0.7906    5.1145 H   0  0  0  0  0  0  0  0  0  0  0  0
   -1.5971   -2.9258    4.2319 H   0  0  0  0  0  0  0  0  0  0  0  0
   -1.2389   -4.8256    2.7375 H   0  0  0  0  0  0  0  0  0  0  0  0
   -1.8915   -4.6930    0.3486 H   0  0  0  0  0  0  0  0  0  0  0  0
   -2.9237   -2.6313   -0.5382 H   0  0  0  0  0  0  0  0  0  0  0  0
   -7.2684    1.8918    0.1919 H   0  0  0  0  0  0  0  0  0  0  0  0
   -2.7125    3.1560   -1.4542 H   0  0  0  0  0  0  0  0  0  0  0  0
   -0.8616    1.0707    1.7725 H   0  0  0  0  0  0  0  0  0  0  0  0
    1.5253    1.0954    1.2608 H   0  0  0  0  0  0  0  0  0  0  0  0
    3.4486   -0.0085    0.4773 H   0  0  0  0  0  0  0  0  0  0  0  0
    3.5192    1.7530    0.1954 H   0  0  0  0  0  0  0  0  0  0  0  0
    5.7345    0.8519   -0.1927 H   0  0  0  0  0  0  0  0  0  0  0  0
    5.0290    1.4326   -1.7085 H   0  0  0  0  0  0  0  0  0  0  0  0
    6.8670    0.3627   -2.5621 H   0  0  0  0  0  0  0  0  0  0  0  0
    6.3991   -1.1824   -3.2470 H   0  0  0  0  0  0  0  0  0  0  0  0
    8.5856   -1.3554   -2.0767 H   0  0  0  0  0  0  0  0  0  0  0  0
    7.8407   -0.8551   -0.5583 H   0  0  0  0  0  0  0  0  0  0  0  0
    5.7874   -3.8524   -0.4924 H   0  0  0  0  0  0  0  0  0  0  0  0
    5.6082   -3.3208   -2.1650 H   0  0  0  0  0  0  0  0  0  0  0  0
    5.5027   -1.5148    0.3142 H   0  0  0  0  0  0  0  0  0  0  0  0
    4.0752   -2.0782   -0.5810 H   0  0  0  0  0  0  0  0  0  0  0  0
    0.6518    0.2954   -2.8848 H   0  0  0  0  0  0  0  0  0  0  0  0
   -1.7631    0.2706   -2.3668 H   0  0  0  0  0  0  0  0  0  0  0  0
   -6.2831    6.1481   -1.4644 H   0  0  0  0  0  0  0  0  0  0  0  0
   -6.5837    5.2593   -2.9789 H   0  0  0  0  0  0  0  0  0  0  0  0
  1  2  1  0
  2  3  1  0
  3  4  2  0
  4  5  1  0
  5  6  2  0
  6  7  1  0
  7  8  2  0
  8  9  1  0
  9 10  1  0
 10 11  1  0
 11 12  2  0
 12 13  1  0
 13 14  2  0
 14 15  1  0
 15 16  2  0
 16 17  1  0
 17 18  1  0
 18 19  2  0
 19 20  1  0
 20 21  2  0
 21 22  1  0
 22 23  1  0
 23 24  1  0
 24 25  1  0
 25 26  1  0
 26 27  1  0
 27 28  1  0
 28 29  1  0
 29 30  1  0
 21 31  1  0
 31 32  2  0
 14 33  1  0
 33 34  1  0
 34 35  1  0
  8  3  1  0
 17  9  2  0
 32 18  1  0
 16 11  1  0
 30 25  1  0
 35 13  1  0
  1 36  1  0
  1 37  1  0
  1 38  1  0
  4 39  1  0
  5 40  1  0
  6 41  1  0
  7 42  1  0
 12 43  1  0
 15 44  1  0
 19 45  1  0
 20 46  1  0
 23 47  1  0
 23 48  1  0
 24 49  1  0
 24 50  1  0
 26 51  1  0
 26 52  1  0
 27 53  1  0
 27 54  1  0
 29 55  1  0
 29 56  1  0
 30 57  1  0
 30 58  1  0
 31 59  1  0
 32 60  1  0
 34 61  1  0
 34 62  1  0
M  END
$$$$
