
     RDKit          3D

 37 37  0  0  0  0  0  0  0  0999 V2000
   -3.2707   -3.6663   -0.6131 C   0  0  0  0  0  0  0  0  0  0  0  0
   -2.6676   -2.5124   -0.0268 O   0  0  0  0  0  0  0  0  0  0  0  0
   -1.9208   -1.7764   -0.8977 C   0  0  0  0  0  0  0  0  0  0  0  0
   -1.7946   -2.0112   -2.0949 O   0  0  0  0  0  0  0  0  0  0  0  0
   -1.3064   -0.5655   -0.1881 C   0  0  0  0  0  0  0  0  0  0  0  0
   -2.3271    0.5761   -0.1682 C   0  0  0  0  0  0  0  0  0  0  0  0
   -1.8355    1.7460    0.6816 C   0  0  0  0  0  0  0  0  0  0  0  0
   -3.0393    3.1167    0.7044 S   0  0  0  0  0  0  0  0  0  0  0  0
   -4.2611    2.4294    1.8497 C   0  0  0  0  0  0  0  0  0  0  0  0
   -0.0918   -0.1776   -0.9093 N   0  0  0  0  0  0  0  0  0  0  0  0
    1.0971   -0.7840   -0.5888 C   0  0  0  0  0  0  0  0  0  0  0  0
    1.2393   -1.5566    0.3478 O   0  0  0  0  0  0  0  0  0  0  0  0
    2.0885   -0.4082   -1.4523 N   0  0  0  0  0  0  0  0  0  0  0  0
    3.4552   -0.8314   -1.2421 C   0  0  0  0  0  0  0  0  0  0  0  0
    4.1573    0.2033   -0.4194 C   0  0  0  0  0  0  0  0  0  0  0  0
    4.1713    0.3325    0.9564 C   0  0  0  0  0  0  0  0  0  0  0  0
    4.9478    1.4448    1.3898 C   0  0  0  0  0  0  0  0  0  0  0  0
    5.5012    2.1294    0.3313 C   0  0  0  0  0  0  0  0  0  0  0  0
    5.0823    1.4335   -1.1735 S   0  0  0  0  0  0  0  0  0  0  0  0
   -2.5059   -4.3361   -1.0188 H   0  0  0  0  0  0  0  0  0  0  0  0
   -3.8161   -4.1988    0.1709 H   0  0  0  0  0  0  0  0  0  0  0  0
   -3.9818   -3.3718   -1.3911 H   0  0  0  0  0  0  0  0  0  0  0  0
   -1.0371   -0.8620    0.8326 H   0  0  0  0  0  0  0  0  0  0  0  0
   -3.2764    0.1964    0.2282 H   0  0  0  0  0  0  0  0  0  0  0  0
   -2.5257    0.9133   -1.1944 H   0  0  0  0  0  0  0  0  0  0  0  0
   -1.6258    1.4315    1.7093 H   0  0  0  0  0  0  0  0  0  0  0  0
   -0.9048    2.1481    0.2681 H   0  0  0  0  0  0  0  0  0  0  0  0
   -3.7881    2.1582    2.7970 H   0  0  0  0  0  0  0  0  0  0  0  0
   -5.0255    3.1852    2.0498 H   0  0  0  0  0  0  0  0  0  0  0  0
   -4.7513    1.5546    1.4165 H   0  0  0  0  0  0  0  0  0  0  0  0
   -0.2139   -0.0798   -1.9106 H   0  0  0  0  0  0  0  0  0  0  0  0
    1.9669    0.4957   -1.8841 H   0  0  0  0  0  0  0  0  0  0  0  0
    3.4812   -1.8061   -0.7429 H   0  0  0  0  0  0  0  0  0  0  0  0
    3.9173   -0.9440   -2.2285 H   0  0  0  0  0  0  0  0  0  0  0  0
    3.6391   -0.3423    1.6184 H   0  0  0  0  0  0  0  0  0  0  0  0
    5.0912    1.7284    2.4251 H   0  0  0  0  0  0  0  0  0  0  0  0
    6.1314    3.0074    0.3676 H   0  0  0  0  0  0  0  0  0  0  0  0
  1  2  1  0
  2  3  1  0
  3  4  2  0
  3  5  1  0
  5  6  1  0
  6  7  1  0
  7  8  1  0
  8  9  1  0
  5 10  1  0
 10 11  1  0
 11 12  2  0
 11 13  1  0
 13 14  1  0
 14 15  1  0
 15 16  2  0
 16 17  1  0
 17 18  2  0
 18 19  1  0
 19 15  1  0
  1 20  1  0
  1 21  1  0
  1 22  1  0
  5 23  1  0
  6 24  1  0
  6 25  1  0
  7 26  1  0
  7 27  1  0
  9 28  1  0
  9 29  1  0
  9 30  1  0
 10 31  1  0
 13 32  1  0
 14 33  1  0
 14 34  1  0
 16 35  1  0
 17 36  1  0
 18 37  1  0
M  END
$$$$
