
     RDKit          3D

 59 63  0  0  0  0  0  0  0  0999 V2000
   -5.3106   -3.1521    1.8491 C   0  0  0  0  0  0  0  0  0  0  0  0
   -4.9123   -2.3400    0.6230 C   0  0  0  0  0  0  0  0  0  0  0  0
   -3.4553   -1.8554    0.6704 C   0  0  0  0  0  0  0  0  0  0  0  0
   -3.2965   -0.8603    1.7291 N   0  0  0  0  0  0  0  0  0  0  0  0
   -1.9950   -0.3491    1.7800 C   0  0  0  0  0  0  0  0  0  0  0  0
   -1.5639   -0.0271    3.0059 N   0  0  0  0  0  0  0  0  0  0  0  0
   -0.3473    0.5137    3.0630 C   0  0  0  0  0  0  0  0  0  0  0  0
    0.4847    0.6917    2.0314 N   0  0  0  0  0  0  0  0  0  0  0  0
    0.0592    0.3186    0.8069 C   0  0  0  0  0  0  0  0  0  0  0  0
    1.0150    0.3212   -0.2276 N   0  0  0  0  0  0  0  0  0  0  0  0
    1.4263   -1.0543   -0.6328 C   0  0  0  0  0  0  0  0  0  0  0  0
    2.8897   -1.3767   -0.2503 C   0  0  0  0  0  0  0  0  0  0  0  0
    3.8480   -0.4062   -0.8450 N   0  0  0  0  0  0  0  0  0  0  0  0
    5.0589   -0.4073   -0.1164 C   0  0  0  0  0  0  0  0  0  0  0  0
    5.8617   -1.5516   -0.1391 C   0  0  0  0  0  0  0  0  0  0  0  0
    7.0549   -1.5798    0.5810 C   0  0  0  0  0  0  0  0  0  0  0  0
    7.4284   -0.4619    1.3111 C   0  0  0  0  0  0  0  0  0  0  0  0
    6.5885    0.6362    1.2828 C   0  0  0  0  0  0  0  0  0  0  0  0
    5.4266    0.6831    0.5916 N   0  0  0  0  0  0  0  0  0  0  0  0
    3.2753    0.9513   -1.0429 C   0  0  0  0  0  0  0  0  0  0  0  0
    2.1623    1.2485   -0.0167 C   0  0  0  0  0  0  0  0  0  0  0  0
   -1.2473   -0.1587    0.6099 C   0  0  0  0  0  0  0  0  0  0  0  0
   -1.8586   -0.4747   -0.6588 N   0  0  0  0  0  0  0  0  0  0  0  0
   -1.5296    0.2887   -1.8619 C   0  0  0  0  0  0  0  0  0  0  0  0
   -2.2023    1.6480   -1.8906 C   0  0  0  0  0  0  0  0  0  0  0  0
   -3.5105    1.7863   -2.3819 C   0  0  0  0  0  0  0  0  0  0  0  0
   -4.1389    3.0336   -2.3922 C   0  0  0  0  0  0  0  0  0  0  0  0
   -3.4641    4.1506   -1.9052 C   0  0  0  0  0  0  0  0  0  0  0  0
   -4.3135    5.8396   -1.9161 Br  0  0  0  0  0  0  0  0  0  0  0  0
   -2.1674    4.0320   -1.4094 C   0  0  0  0  0  0  0  0  0  0  0  0
   -1.5397    2.7841   -1.4024 C   0  0  0  0  0  0  0  0  0  0  0  0
   -3.0316   -1.2465   -0.6901 C   0  0  0  0  0  0  0  0  0  0  0  0
   -3.6409   -1.4924   -1.7331 O   0  0  0  0  0  0  0  0  0  0  0  0
   -5.2849   -2.5469    2.7600 H   0  0  0  0  0  0  0  0  0  0  0  0
   -4.6441   -4.0098    1.9846 H   0  0  0  0  0  0  0  0  0  0  0  0
   -6.3309   -3.5317    1.7319 H   0  0  0  0  0  0  0  0  0  0  0  0
   -5.5931   -1.4854    0.5192 H   0  0  0  0  0  0  0  0  0  0  0  0
   -5.0648   -2.9716   -0.2610 H   0  0  0  0  0  0  0  0  0  0  0  0
   -2.7993   -2.7180    0.8552 H   0  0  0  0  0  0  0  0  0  0  0  0
   -3.5693   -1.1220    2.6711 H   0  0  0  0  0  0  0  0  0  0  0  0
    0.0084    0.8256    4.0384 H   0  0  0  0  0  0  0  0  0  0  0  0
    1.3278   -1.1216   -1.7235 H   0  0  0  0  0  0  0  0  0  0  0  0
    0.7731   -1.8285   -0.2108 H   0  0  0  0  0  0  0  0  0  0  0  0
    3.1285   -2.3859   -0.6061 H   0  0  0  0  0  0  0  0  0  0  0  0
    2.9647   -1.3788    0.8463 H   0  0  0  0  0  0  0  0  0  0  0  0
    5.5704   -2.4118   -0.7332 H   0  0  0  0  0  0  0  0  0  0  0  0
    7.6852   -2.4642    0.5618 H   0  0  0  0  0  0  0  0  0  0  0  0
    8.3498   -0.4433    1.8813 H   0  0  0  0  0  0  0  0  0  0  0  0
    6.8332    1.5412    1.8325 H   0  0  0  0  0  0  0  0  0  0  0  0
    2.8423    0.9753   -2.0517 H   0  0  0  0  0  0  0  0  0  0  0  0
    4.0349    1.7425   -1.0365 H   0  0  0  0  0  0  0  0  0  0  0  0
    2.5867    1.1568    0.9908 H   0  0  0  0  0  0  0  0  0  0  0  0
    1.8136    2.2789   -0.1483 H   0  0  0  0  0  0  0  0  0  0  0  0
   -1.8588   -0.2753   -2.7448 H   0  0  0  0  0  0  0  0  0  0  0  0
   -0.4576    0.4009   -2.0124 H   0  0  0  0  0  0  0  0  0  0  0  0
   -4.0508    0.9180   -2.7574 H   0  0  0  0  0  0  0  0  0  0  0  0
   -5.1517    3.1191   -2.7769 H   0  0  0  0  0  0  0  0  0  0  0  0
   -1.6385    4.8998   -1.0238 H   0  0  0  0  0  0  0  0  0  0  0  0
   -0.5289    2.7038   -1.0092 H   0  0  0  0  0  0  0  0  0  0  0  0
  1  2  1  0
  2  3  1  0
  3  4  1  0
  4  5  1  0
  5  6  2  0
  6  7  1  0
  7  8  2  0
  8  9  1  0
  9 10  1  0
 10 11  1  0
 11 12  1  0
 12 13  1  0
 13 14  1  0
 14 15  2  0
 15 16  1  0
 16 17  2  0
 17 18  1  0
 18 19  2  0
 13 20  1  0
 20 21  1  0
  9 22  2  0
 22 23  1  0
 23 24  1  0
 24 25  1  0
 25 26  2  0
 26 27  1  0
 27 28  2  0
 28 29  1  0
 28 30  1  0
 30 31  2  0
 23 32  1  0
 32 33  2  0
 32  3  1  0
 22  5  1  0
 31 25  1  0
 21 10  1  0
 19 14  1  0
  1 34  1  0
  1 35  1  0
  1 36  1  0
  2 37  1  0
  2 38  1  0
  3 39  1  0
  4 40  1  0
  7 41  1  0
 11 42  1  0
 11 43  1  0
 12 44  1  0
 12 45  1  0
 15 46  1  0
 16 47  1  0
 17 48  1  0
 18 49  1  0
 20 50  1  0
 20 51  1  0
 21 52  1  0
 21 53  1  0
 24 54  1  0
 24 55  1  0
 26 56  1  0
 27 57  1  0
 30 58  1  0
 31 59  1  0
M  END
$$$$
