
     RDKit          3D

 68 74  0  0  0  0  0  0  0  0999 V2000
   -3.9318   -4.2282   -2.6762 C   0  0  0  0  0  0  0  0  0  0  0  0
   -3.2716   -3.4495   -1.5779 C   0  0  0  0  0  0  0  0  0  0  0  0
   -3.2275   -3.9346   -0.2572 C   0  0  0  0  0  0  0  0  0  0  0  0
   -3.9330   -5.4576    0.1630 Cl  0  0  0  0  0  0  0  0  0  0  0  0
   -2.6142   -3.2023    0.7775 C   0  0  0  0  0  0  0  0  0  0  0  0
   -2.0201   -1.9657    0.5242 C   0  0  0  0  0  0  0  0  0  0  0  0
   -2.0445   -1.4809   -0.7751 C   0  0  0  0  0  0  0  0  0  0  0  0
   -2.6714   -2.2145   -1.7944 C   0  0  0  0  0  0  0  0  0  0  0  0
   -2.6022   -1.5044   -2.9896 N   0  0  0  0  0  0  0  0  0  0  0  0
   -1.9366   -0.2854   -2.8400 C   0  0  0  0  0  0  0  0  0  0  0  0
   -1.7726    0.5186   -3.7445 O   0  0  0  0  0  0  0  0  0  0  0  0
   -1.4944   -0.1985   -1.3554 C   0  0  1  0  0  0  0  0  0  0  0  0
   -2.1136    0.9139   -0.6005 C   0  0  0  0  0  0  0  0  0  0  0  0
   -1.1312    1.7148   -0.0189 C   0  0  0  0  0  0  0  0  0  0  0  0
   -1.7327    2.6865    0.7294 C   0  0  0  0  0  0  0  0  0  0  0  0
   -1.1520    3.5520    1.5586 O   0  0  0  0  0  0  0  0  0  0  0  0
   -3.1215    2.5737    0.5162 N   0  0  0  0  0  0  0  0  0  0  0  0
   -4.1170    3.4880    0.9860 C   0  0  0  0  0  0  0  0  0  0  0  0
   -5.3994    3.0398    1.3242 C   0  0  0  0  0  0  0  0  0  0  0  0
   -6.3591    3.9413    1.7933 C   0  0  0  0  0  0  0  0  0  0  0  0
   -6.0506    5.2942    1.9171 C   0  0  0  0  0  0  0  0  0  0  0  0
   -4.7835    5.7522    1.5635 C   0  0  0  0  0  0  0  0  0  0  0  0
   -3.8193    4.8552    1.0973 C   0  0  0  0  0  0  0  0  0  0  0  0
   -3.3454    1.4137   -0.2537 C   0  0  0  0  0  0  0  0  0  0  0  0
   -4.5649    0.9963   -0.5855 O   0  0  0  0  0  0  0  0  0  0  0  0
    0.2326    1.2489   -0.3371 C   0  0  1  0  0  0  0  0  0  0  0  0
    1.0934    0.8970    0.8895 C   0  0  0  0  0  0  0  0  0  0  0  0
    2.3247    0.1919    0.5192 N   0  0  0  0  0  0  0  0  0  0  0  0
    3.4432    0.3059    1.3160 C   0  0  0  0  0  0  0  0  0  0  0  0
    3.4744    0.9258    2.3717 O   0  0  0  0  0  0  0  0  0  0  0  0
    4.5098   -0.3512    0.7941 O   0  0  0  0  0  0  0  0  0  0  0  0
    5.6956   -0.2588    1.5845 C   0  0  0  0  0  0  0  0  0  0  0  0
    6.7677   -1.0589    0.8909 C   0  0  0  0  0  0  0  0  0  0  0  0
    7.5160   -0.4884   -0.1482 C   0  0  0  0  0  0  0  0  0  0  0  0
    8.4940   -1.2341   -0.8071 C   0  0  0  0  0  0  0  0  0  0  0  0
    8.7234   -2.5603   -0.4448 C   0  0  0  0  0  0  0  0  0  0  0  0
    7.9761   -3.1419    0.5770 C   0  0  0  0  0  0  0  0  0  0  0  0
    7.0018   -2.3958    1.2422 C   0  0  0  0  0  0  0  0  0  0  0  0
    2.3044   -0.5864   -0.7240 C   0  0  0  0  0  0  0  0  0  0  0  0
    0.8805   -1.0418   -1.0935 C   0  0  0  0  0  0  0  0  0  0  0  0
   -0.0342    0.0840   -1.2485 N   0  0  0  0  0  0  0  0  0  0  0  0
   -4.9912   -4.3831   -2.4482 H   0  0  0  0  0  0  0  0  0  0  0  0
   -3.4408   -5.1984   -2.8022 H   0  0  0  0  0  0  0  0  0  0  0  0
   -3.8827   -3.7169   -3.6407 H   0  0  0  0  0  0  0  0  0  0  0  0
   -2.6008   -3.6007    1.7901 H   0  0  0  0  0  0  0  0  0  0  0  0
   -1.5533   -1.4020    1.3269 H   0  0  0  0  0  0  0  0  0  0  0  0
   -2.9731   -1.7942   -3.8824 H   0  0  0  0  0  0  0  0  0  0  0  0
   -1.8183    3.8802    2.1889 H   0  0  0  0  0  0  0  0  0  0  0  0
   -5.6701    1.9898    1.2617 H   0  0  0  0  0  0  0  0  0  0  0  0
   -7.3498    3.5834    2.0629 H   0  0  0  0  0  0  0  0  0  0  0  0
   -6.8011    5.9928    2.2778 H   0  0  0  0  0  0  0  0  0  0  0  0
   -4.5490    6.8109    1.6376 H   0  0  0  0  0  0  0  0  0  0  0  0
   -2.8600    5.2555    0.7757 H   0  0  0  0  0  0  0  0  0  0  0  0
   -4.4763    0.2317   -1.1805 H   0  0  0  0  0  0  0  0  0  0  0  0
    0.7530    2.0103   -0.9318 H   0  0  0  0  0  0  0  0  0  0  0  0
    1.3393    1.8026    1.4571 H   0  0  0  0  0  0  0  0  0  0  0  0
    0.5469    0.2336    1.5727 H   0  0  0  0  0  0  0  0  0  0  0  0
    5.5174   -0.6611    2.5894 H   0  0  0  0  0  0  0  0  0  0  0  0
    6.0114    0.7880    1.6755 H   0  0  0  0  0  0  0  0  0  0  0  0
    7.3350    0.5405   -0.4521 H   0  0  0  0  0  0  0  0  0  0  0  0
    9.0729   -0.7810   -1.6071 H   0  0  0  0  0  0  0  0  0  0  0  0
    9.4806   -3.1429   -0.9622 H   0  0  0  0  0  0  0  0  0  0  0  0
    8.1490   -4.1784    0.8538 H   0  0  0  0  0  0  0  0  0  0  0  0
    6.4229   -2.8660    2.0342 H   0  0  0  0  0  0  0  0  0  0  0  0
    2.7229    0.0503   -1.5128 H   0  0  0  0  0  0  0  0  0  0  0  0
    2.9531   -1.4633   -0.6249 H   0  0  0  0  0  0  0  0  0  0  0  0
    0.9163   -1.6180   -2.0247 H   0  0  0  0  0  0  0  0  0  0  0  0
    0.5527   -1.7184   -0.2978 H   0  0  0  0  0  0  0  0  0  0  0  0
  1  2  1  0
  2  3  2  0
  3  4  1  0
  3  5  1  0
  5  6  2  0
  6  7  1  0
  7  8  2  0
  8  9  1  0
  9 10  1  0
 10 11  2  0
 10 12  1  0
 12 13  1  0
 13 14  1  0
 14 15  2  0
 15 16  1  0
 15 17  1  0
 17 18  1  0
 18 19  2  0
 19 20  1  0
 20 21  2  0
 21 22  1  0
 22 23  2  0
 17 24  1  0
 24 25  1  0
 14 26  1  0
 26 27  1  0
 27 28  1  0
 28 29  1  0
 29 30  2  0
 29 31  1  0
 31 32  1  0
 32 33  1  0
 33 34  2  0
 34 35  1  0
 35 36  2  0
 36 37  1  0
 37 38  2  0
 28 39  1  0
 39 40  1  0
 40 41  1  0
  8  2  1  0
 12 41  1  6
 12  7  1  0
 24 13  2  0
 41 26  1  0
 23 18  1  0
 38 33  1  0
  1 42  1  0
  1 43  1  0
  1 44  1  0
  5 45  1  0
  6 46  1  0
  9 47  1  0
 16 48  1  0
 19 49  1  0
 20 50  1  0
 21 51  1  0
 22 52  1  0
 23 53  1  0
 25 54  1  0
 26 55  1  6
 27 56  1  0
 27 57  1  0
 32 58  1  0
 32 59  1  0
 34 60  1  0
 35 61  1  0
 36 62  1  0
 37 63  1  0
 38 64  1  0
 39 65  1  0
 39 66  1  0
 40 67  1  0
 40 68  1  0
M  END
$$$$
