
     RDKit          3D

 23 23  0  0  0  0  0  0  0  0999 V2000
   -0.0304    2.4637   -0.3065 O   0  0  0  0  0  0  0  0  0  0  0  0
   -1.0781    1.9360   -0.6316 C   0  0  0  0  0  0  0  0  0  0  0  0
   -2.1040    2.6723   -1.1026 O   0  0  0  0  0  0  0  0  0  0  0  0
   -1.4220    0.4935   -0.5686 C   0  0  0  0  0  0  0  0  0  0  0  0
   -2.7577    0.1152   -0.3441 C   0  0  0  0  0  0  0  0  0  0  0  0
   -3.1065   -1.2333   -0.2616 C   0  0  0  0  0  0  0  0  0  0  0  0
   -2.1279   -2.2119   -0.4070 C   0  0  0  0  0  0  0  0  0  0  0  0
   -0.8005   -1.8421   -0.6325 C   0  0  0  0  0  0  0  0  0  0  0  0
   -0.4263   -0.4927   -0.7039 C   0  0  0  0  0  0  0  0  0  0  0  0
    0.9240   -0.2107   -0.9828 N   0  0  0  0  0  0  0  0  0  0  0  0
    1.6480    0.1654    0.0243 C   0  0  0  0  0  0  0  0  0  0  0  0
    3.0775    0.5497   -0.1653 C   0  0  0  0  0  0  0  0  0  0  0  0
    3.8613   -0.3414    0.7291 N   0  0  0  0  0  4  0  0  0  0  0  0
    3.8786   -0.0559    1.9343 O   0  0  0  0  0  0  0  0  0  0  0  0
    4.4416   -1.3037    0.2114 O   0  0  0  0  0  1  0  0  0  0  0  0
   -1.7526    3.5870   -1.1207 H   0  0  0  0  0  0  0  0  0  0  0  0
   -3.5333    0.8695   -0.2306 H   0  0  0  0  0  0  0  0  0  0  0  0
   -4.1418   -1.5187   -0.0901 H   0  0  0  0  0  0  0  0  0  0  0  0
   -2.3958   -3.2645   -0.3544 H   0  0  0  0  0  0  0  0  0  0  0  0
   -0.0451   -2.6139   -0.7646 H   0  0  0  0  0  0  0  0  0  0  0  0
    1.2320    0.2518    1.0467 H   0  0  0  0  0  0  0  0  0  0  0  0
    3.4143    0.4051   -1.1944 H   0  0  0  0  0  0  0  0  0  0  0  0
    3.2446    1.5794    0.1593 H   0  0  0  0  0  0  0  0  0  0  0  0
  1  2  2  0
  2  3  1  0
  2  4  1  0
  4  5  2  0
  5  6  1  0
  6  7  2  0
  7  8  1  0
  8  9  2  0
  9 10  1  0
 10 11  2  3
 11 12  1  0
 12 13  1  0
 13 14  2  0
 13 15  1  0
  9  4  1  0
  3 16  1  0
  5 17  1  0
  6 18  1  0
  7 19  1  0
  8 20  1  0
 11 21  1  0
 12 22  1  0
 12 23  1  0
M  CHG  2  13   1  15  -1
M  END
$$$$
