
     RDKit          3D

 33 34  0  0  0  0  0  0  0  0999 V2000
   -6.3298    0.8178   -1.1211 C   0  0  0  0  0  0  0  0  0  0  0  0
   -5.1667    0.0336   -0.5405 C   0  0  0  0  0  0  0  0  0  0  0  0
   -3.9835    0.8130   -0.7081 O   0  0  0  0  0  0  0  0  0  0  0  0
   -2.8145    0.2786   -0.2425 C   0  0  0  0  0  0  0  0  0  0  0  0
   -1.6912    1.0914   -0.4208 C   0  0  0  0  0  0  0  0  0  0  0  0
   -0.4276    0.6723    0.0068 C   0  0  0  0  0  0  0  0  0  0  0  0
   -0.2778   -0.5789    0.6138 C   0  0  0  0  0  0  0  0  0  0  0  0
    1.0428   -1.0772    1.0910 C   0  0  0  0  0  0  0  0  0  0  0  0
    1.1026   -1.9289    1.9709 O   0  0  0  0  0  0  0  0  0  0  0  0
    2.1552   -0.5573    0.4695 N   0  0  0  0  0  0  0  0  0  0  0  0
    3.4640   -1.0978    0.7532 C   0  0  0  0  0  0  0  0  0  0  0  0
    4.4833   -0.2024    0.1563 C   0  0  0  0  0  0  0  0  0  0  0  0
    5.5065    0.5562    0.6862 C   0  0  0  0  0  0  0  0  0  0  0  0
    6.1332    1.2021   -0.4067 C   0  0  0  0  0  0  0  0  0  0  0  0
    5.4534    0.7995   -1.5318 C   0  0  0  0  0  0  0  0  0  0  0  0
    4.4476   -0.0508   -1.2017 O   0  0  0  0  0  0  0  0  0  0  0  0
   -1.4046   -1.3874    0.8063 C   0  0  0  0  0  0  0  0  0  0  0  0
   -2.6673   -0.9628    0.3762 C   0  0  0  0  0  0  0  0  0  0  0  0
   -6.1602    1.0303   -2.1819 H   0  0  0  0  0  0  0  0  0  0  0  0
   -7.2656    0.2614   -1.0174 H   0  0  0  0  0  0  0  0  0  0  0  0
   -6.4345    1.7834   -0.6154 H   0  0  0  0  0  0  0  0  0  0  0  0
   -5.0742   -0.9182   -1.0761 H   0  0  0  0  0  0  0  0  0  0  0  0
   -5.3544   -0.1490    0.5239 H   0  0  0  0  0  0  0  0  0  0  0  0
   -1.8046    2.0662   -0.8904 H   0  0  0  0  0  0  0  0  0  0  0  0
    0.4158    1.3446   -0.1196 H   0  0  0  0  0  0  0  0  0  0  0  0
    2.0489   -0.0997   -0.4262 H   0  0  0  0  0  0  0  0  0  0  0  0
    3.5243   -2.1002    0.3166 H   0  0  0  0  0  0  0  0  0  0  0  0
    3.5947   -1.1852    1.8370 H   0  0  0  0  0  0  0  0  0  0  0  0
    5.7650    0.6326    1.7334 H   0  0  0  0  0  0  0  0  0  0  0  0
    6.9763    1.8779   -0.3788 H   0  0  0  0  0  0  0  0  0  0  0  0
    5.5553    1.0161   -2.5862 H   0  0  0  0  0  0  0  0  0  0  0  0
   -1.3024   -2.3562    1.2924 H   0  0  0  0  0  0  0  0  0  0  0  0
   -3.5102   -1.6250    0.5434 H   0  0  0  0  0  0  0  0  0  0  0  0
  1  2  1  0
  2  3  1  0
  3  4  1  0
  4  5  2  0
  5  6  1  0
  6  7  2  0
  7  8  1  0
  8  9  2  0
  8 10  1  0
 10 11  1  0
 11 12  1  0
 12 13  2  0
 13 14  1  0
 14 15  2  0
 15 16  1  0
  7 17  1  0
 17 18  2  0
 18  4  1  0
 16 12  1  0
  1 19  1  0
  1 20  1  0
  1 21  1  0
  2 22  1  0
  2 23  1  0
  5 24  1  0
  6 25  1  0
 10 26  1  0
 11 27  1  0
 11 28  1  0
 13 29  1  0
 14 30  1  0
 15 31  1  0
 17 32  1  0
 18 33  1  0
M  END
$$$$
