
     RDKit          3D

 57 61  0  0  0  0  0  0  0  0999 V2000
   -3.8174   -3.3869   -1.5309 C   0  0  0  0  0  0  0  0  0  0  0  0
   -3.9596   -2.0947   -2.3338 C   0  0  0  0  0  0  0  0  0  0  0  0
   -5.2720   -2.1233   -3.1213 C   0  0  0  0  0  0  0  0  0  0  0  0
   -3.9081   -0.8742   -1.4086 C   0  0  0  0  0  0  0  0  0  0  0  0
   -4.9347   -0.2407   -1.1482 O   0  0  0  0  0  0  0  0  0  0  0  0
   -2.6868   -0.5112   -0.8454 N   0  0  0  0  0  0  0  0  0  0  0  0
   -1.3906   -1.1122   -1.1419 C   0  0  0  0  0  0  0  0  0  0  0  0
   -0.3283   -0.0493   -1.4020 C   0  0  0  0  0  0  0  0  0  0  0  0
   -0.1949    0.9992   -0.2530 C   0  0  0  0  0  0  0  0  0  0  0  0
   -1.3574    0.8428    0.7603 C   0  0  0  0  0  0  0  0  0  0  0  0
   -2.6897    0.6458    0.0443 C   0  0  0  0  0  0  0  0  0  0  0  0
   -0.3677    2.2728   -0.9383 O   0  0  0  0  0  0  0  0  0  0  0  0
    0.0862    3.4017   -0.3214 C   0  0  0  0  0  0  0  0  0  0  0  0
   -0.3256    4.6132   -0.8792 C   0  0  0  0  0  0  0  0  0  0  0  0
    0.0628    5.8189   -0.2937 C   0  0  0  0  0  0  0  0  0  0  0  0
    0.8658    5.8052    0.8424 C   0  0  0  0  0  0  0  0  0  0  0  0
    1.2293    6.9639    1.4058 F   0  0  0  0  0  0  0  0  0  0  0  0
    1.2938    4.6093    1.4021 C   0  0  0  0  0  0  0  0  0  0  0  0
    0.9066    3.4081    0.8037 C   0  0  0  0  0  0  0  0  0  0  0  0
    1.3498    2.1218    1.3557 C   0  0  0  0  0  0  0  0  0  0  0  0
    1.7892    2.0669    2.5009 O   0  0  0  0  0  0  0  0  0  0  0  0
    1.1995    0.9192    0.4329 C   0  0  0  0  0  0  0  0  0  0  0  0
    1.4816   -0.3836    1.1661 C   0  0  0  0  0  0  0  0  0  0  0  0
    2.9108   -0.5647    0.7831 C   0  0  0  0  0  0  0  0  0  0  0  0
    3.7809   -1.5702    1.4382 C   0  0  0  0  0  0  0  0  0  0  0  0
    3.3024   -2.4048    2.4554 C   0  0  0  0  0  0  0  0  0  0  0  0
    4.1506   -3.3458    3.0452 C   0  0  0  0  0  0  0  0  0  0  0  0
    5.4743   -3.4594    2.6222 C   0  0  0  0  0  0  0  0  0  0  0  0
    5.9553   -2.6319    1.6096 C   0  0  0  0  0  0  0  0  0  0  0  0
    5.1119   -1.6893    1.0188 C   0  0  0  0  0  0  0  0  0  0  0  0
    3.3106    0.1902   -0.1905 N   0  0  0  0  0  0  0  0  0  0  0  0
    2.2334    1.0227   -0.5619 O   0  0  0  0  0  0  0  0  0  0  0  0
   -3.8144   -4.2573   -2.1969 H   0  0  0  0  0  0  0  0  0  0  0  0
   -4.6491   -3.5011   -0.8271 H   0  0  0  0  0  0  0  0  0  0  0  0
   -2.8943   -3.4111   -0.9455 H   0  0  0  0  0  0  0  0  0  0  0  0
   -3.1565   -2.0131   -3.0736 H   0  0  0  0  0  0  0  0  0  0  0  0
   -6.1379   -2.2229   -2.4580 H   0  0  0  0  0  0  0  0  0  0  0  0
   -5.3994   -1.2004   -3.6970 H   0  0  0  0  0  0  0  0  0  0  0  0
   -5.2851   -2.9619   -3.8268 H   0  0  0  0  0  0  0  0  0  0  0  0
   -1.1171   -1.7281   -0.2789 H   0  0  0  0  0  0  0  0  0  0  0  0
   -1.4383   -1.7800   -2.0021 H   0  0  0  0  0  0  0  0  0  0  0  0
    0.6208   -0.5618   -1.5910 H   0  0  0  0  0  0  0  0  0  0  0  0
   -0.5797    0.4585   -2.3433 H   0  0  0  0  0  0  0  0  0  0  0  0
   -1.4454    1.7271    1.4021 H   0  0  0  0  0  0  0  0  0  0  0  0
   -1.1812   -0.0128    1.4229 H   0  0  0  0  0  0  0  0  0  0  0  0
   -3.4900    0.5182    0.7825 H   0  0  0  0  0  0  0  0  0  0  0  0
   -2.9418    1.5278   -0.5564 H   0  0  0  0  0  0  0  0  0  0  0  0
   -0.9588    4.6183   -1.7638 H   0  0  0  0  0  0  0  0  0  0  0  0
   -0.2575    6.7673   -0.7149 H   0  0  0  0  0  0  0  0  0  0  0  0
    1.9274    4.6226    2.2842 H   0  0  0  0  0  0  0  0  0  0  0  0
    1.3352   -0.3265    2.2476 H   0  0  0  0  0  0  0  0  0  0  0  0
    0.9197   -1.2343    0.7714 H   0  0  0  0  0  0  0  0  0  0  0  0
    2.2787   -2.3424    2.8117 H   0  0  0  0  0  0  0  0  0  0  0  0
    3.7804   -3.9899    3.8401 H   0  0  0  0  0  0  0  0  0  0  0  0
    6.1324   -4.1911    3.0841 H   0  0  0  0  0  0  0  0  0  0  0  0
    6.9877   -2.7162    1.2801 H   0  0  0  0  0  0  0  0  0  0  0  0
    5.5022   -1.0485    0.2301 H   0  0  0  0  0  0  0  0  0  0  0  0
  1  2  1  0
  2  3  1  0
  2  4  1  0
  4  5  2  0
  4  6  1  0
  6  7  1  0
  7  8  1  0
  8  9  1  0
  9 10  1  0
 10 11  1  0
  9 12  1  0
 12 13  1  0
 13 14  2  0
 14 15  1  0
 15 16  2  0
 16 17  1  0
 16 18  1  0
 18 19  2  0
 19 20  1  0
 20 21  2  0
 20 22  1  0
 22 23  1  0
 23 24  1  0
 24 25  1  0
 25 26  2  0
 26 27  1  0
 27 28  2  0
 28 29  1  0
 29 30  2  0
 24 31  2  0
 31 32  1  0
 11  6  1  0
 19 13  1  0
 32 22  1  0
 22  9  1  0
 30 25  1  0
  1 33  1  0
  1 34  1  0
  1 35  1  0
  2 36  1  0
  3 37  1  0
  3 38  1  0
  3 39  1  0
  7 40  1  0
  7 41  1  0
  8 42  1  0
  8 43  1  0
 10 44  1  0
 10 45  1  0
 11 46  1  0
 11 47  1  0
 14 48  1  0
 15 49  1  0
 18 50  1  0
 23 51  1  0
 23 52  1  0
 26 53  1  0
 27 54  1  0
 28 55  1  0
 29 56  1  0
 30 57  1  0
M  END
$$$$
