
     RDKit          3D

 57 61  0  0  0  0  0  0  0  0999 V2000
    4.7640    1.3967   -1.6312 C   0  0  0  0  0  0  0  0  0  0  0  0
    4.9342    1.0627   -0.1536 C   0  0  0  0  0  0  0  0  0  0  0  0
    4.6078    2.2227    0.7813 C   0  0  0  0  0  0  0  0  0  0  0  0
    4.2824   -0.2592    0.2670 C   0  0  0  0  0  0  0  0  0  0  0  0
    5.0289   -1.2070    0.5406 O   0  0  0  0  0  0  0  0  0  0  0  0
    2.8972   -0.3887    0.3646 N   0  0  0  0  0  0  0  0  0  0  0  0
    1.9509    0.4274   -0.3858 C   0  0  0  0  0  0  0  0  0  0  0  0
    0.5646    0.4705    0.2568 C   0  0  0  0  0  0  0  0  0  0  0  0
   -0.0139   -0.9410    0.5170 C   0  0  0  0  0  0  0  0  0  0  0  0
    1.0343   -1.6794    1.3891 C   0  0  0  0  0  0  0  0  0  0  0  0
    2.4096   -1.7176    0.7302 C   0  0  0  0  0  0  0  0  0  0  0  0
   -0.1231   -1.5662   -0.7845 O   0  0  0  0  0  0  0  0  0  0  0  0
   -0.7975   -2.7545   -0.8208 C   0  0  0  0  0  0  0  0  0  0  0  0
   -0.5737   -3.5534   -1.9428 C   0  0  0  0  0  0  0  0  0  0  0  0
   -1.2087   -4.7914   -2.0524 C   0  0  0  0  0  0  0  0  0  0  0  0
   -2.0662   -5.2179   -1.0427 C   0  0  0  0  0  0  0  0  0  0  0  0
   -2.6721   -6.4063   -1.1541 F   0  0  0  0  0  0  0  0  0  0  0  0
   -2.3098   -4.4272    0.0728 C   0  0  0  0  0  0  0  0  0  0  0  0
   -1.6767   -3.1860    0.1737 C   0  0  0  0  0  0  0  0  0  0  0  0
   -1.9446   -2.3015    1.3239 C   0  0  0  0  0  0  0  0  0  0  0  0
   -2.6069   -2.7186    2.2683 O   0  0  0  0  0  0  0  0  0  0  0  0
   -1.4099   -0.8788    1.1996 C   0  0  0  0  0  0  0  0  0  0  0  0
   -2.4702   -0.0572    0.4735 C   0  0  0  0  0  0  0  0  0  0  0  0
   -2.4678    1.1554    1.3371 C   0  0  0  0  0  0  0  0  0  0  0  0
   -3.1622    2.4037    0.9441 C   0  0  0  0  0  0  0  0  0  0  0  0
   -3.9538    2.4697   -0.2087 C   0  0  0  0  0  0  0  0  0  0  0  0
   -4.5917    3.6667   -0.5517 C   0  0  0  0  0  0  0  0  0  0  0  0
   -4.4409    4.7934    0.2555 C   0  0  0  0  0  0  0  0  0  0  0  0
   -5.2270    6.2619   -0.1726 Cl  0  0  0  0  0  0  0  0  0  0  0  0
   -3.6589    4.7353    1.4065 C   0  0  0  0  0  0  0  0  0  0  0  0
   -3.0208    3.5407    1.7515 C   0  0  0  0  0  0  0  0  0  0  0  0
   -1.8150    1.0299    2.4467 N   0  0  0  0  0  0  0  0  0  0  0  0
   -1.3106   -0.2896    2.4997 O   0  0  0  0  0  0  0  0  0  0  0  0
    4.8452    0.4962   -2.2493 H   0  0  0  0  0  0  0  0  0  0  0  0
    3.8075    1.8733   -1.8567 H   0  0  0  0  0  0  0  0  0  0  0  0
    5.5457    2.0950   -1.9507 H   0  0  0  0  0  0  0  0  0  0  0  0
    6.0118    0.8797   -0.0195 H   0  0  0  0  0  0  0  0  0  0  0  0
    5.2978    3.0556    0.6074 H   0  0  0  0  0  0  0  0  0  0  0  0
    3.5952    2.6096    0.6484 H   0  0  0  0  0  0  0  0  0  0  0  0
    4.7074    1.9166    1.8285 H   0  0  0  0  0  0  0  0  0  0  0  0
    2.3027    1.4518   -0.4743 H   0  0  0  0  0  0  0  0  0  0  0  0
    1.8995    0.0183   -1.4020 H   0  0  0  0  0  0  0  0  0  0  0  0
   -0.0865    1.0392   -0.4167 H   0  0  0  0  0  0  0  0  0  0  0  0
    0.6375    1.0289    1.1981 H   0  0  0  0  0  0  0  0  0  0  0  0
    1.1233   -1.1812    2.3630 H   0  0  0  0  0  0  0  0  0  0  0  0
    0.7345   -2.7138    1.5891 H   0  0  0  0  0  0  0  0  0  0  0  0
    2.3923   -2.3268   -0.1817 H   0  0  0  0  0  0  0  0  0  0  0  0
    3.1089   -2.1988    1.4237 H   0  0  0  0  0  0  0  0  0  0  0  0
    0.1042   -3.2213   -2.7256 H   0  0  0  0  0  0  0  0  0  0  0  0
   -1.0373   -5.4284   -2.9154 H   0  0  0  0  0  0  0  0  0  0  0  0
   -2.9903   -4.7791    0.8433 H   0  0  0  0  0  0  0  0  0  0  0  0
   -3.4676   -0.5093    0.5121 H   0  0  0  0  0  0  0  0  0  0  0  0
   -2.2174    0.1650   -0.5657 H   0  0  0  0  0  0  0  0  0  0  0  0
   -4.0994    1.6062   -0.8509 H   0  0  0  0  0  0  0  0  0  0  0  0
   -5.2080    3.7132   -1.4464 H   0  0  0  0  0  0  0  0  0  0  0  0
   -3.5434    5.6103    2.0413 H   0  0  0  0  0  0  0  0  0  0  0  0
   -2.4156    3.5048    2.6562 H   0  0  0  0  0  0  0  0  0  0  0  0
  1  2  1  0
  2  3  1  0
  2  4  1  0
  4  5  2  0
  4  6  1  0
  6  7  1  0
  7  8  1  0
  8  9  1  0
  9 10  1  0
 10 11  1  0
  9 12  1  0
 12 13  1  0
 13 14  2  0
 14 15  1  0
 15 16  2  0
 16 17  1  0
 16 18  1  0
 18 19  2  0
 19 20  1  0
 20 21  2  0
 20 22  1  0
 22 23  1  0
 23 24  1  0
 24 25  1  0
 25 26  2  0
 26 27  1  0
 27 28  2  0
 28 29  1  0
 28 30  1  0
 30 31  2  0
 24 32  2  0
 32 33  1  0
 11  6  1  0
 19 13  1  0
 33 22  1  0
 22  9  1  0
 31 25  1  0
  1 34  1  0
  1 35  1  0
  1 36  1  0
  2 37  1  0
  3 38  1  0
  3 39  1  0
  3 40  1  0
  7 41  1  0
  7 42  1  0
  8 43  1  0
  8 44  1  0
 10 45  1  0
 10 46  1  0
 11 47  1  0
 11 48  1  0
 14 49  1  0
 15 50  1  0
 18 51  1  0
 23 52  1  0
 23 53  1  0
 26 54  1  0
 27 55  1  0
 30 56  1  0
 31 57  1  0
M  END
$$$$
