
     RDKit          3D

 44 46  0  0  0  0  0  0  0  0999 V2000
    5.5050   -0.4575   -3.0388 C   0  0  0  0  0  0  0  0  0  0  0  0
    6.2555   -0.6713   -1.8483 O   0  0  0  0  0  0  0  0  0  0  0  0
    5.5578   -0.6363   -0.6680 C   0  0  0  0  0  0  0  0  0  0  0  0
    4.1775   -0.4820   -0.5297 C   0  0  0  0  0  0  0  0  0  0  0  0
    3.5932   -0.4553    0.7481 C   0  0  0  0  0  0  0  0  0  0  0  0
    2.1427   -0.3099    0.9185 C   0  0  0  0  0  0  0  0  0  0  0  0
    1.4071    0.7508    0.5593 C   0  0  0  0  0  0  0  0  0  0  0  0
    1.9397    2.2190   -0.1750 S   0  0  0  0  0  0  0  0  0  0  0  0
    0.3147    2.8999   -0.2416 C   0  0  0  0  0  0  0  0  0  0  0  0
   -0.0262    4.4020   -0.8716 S   0  0  0  0  0  0  0  0  0  0  0  0
   -0.5577    1.9971    0.3269 N   0  0  0  0  0  0  0  0  0  0  0  0
   -2.0618    2.1888    0.3206 N   0  0  0  0  0  0  0  0  0  0  0  0
   -2.8037    1.5774   -1.0997 S   0  0  0  0  0  6  0  0  0  0  0  0
   -3.4292    2.6849   -1.7865 O   0  0  0  0  0  0  0  0  0  0  0  0
   -1.8524    0.7126   -1.7679 O   0  0  0  0  0  0  0  0  0  0  0  0
   -4.0849    0.5639   -0.4063 C   0  0  0  0  0  0  0  0  0  0  0  0
   -5.3725    1.0839   -0.2566 C   0  0  0  0  0  0  0  0  0  0  0  0
   -6.3776    0.2819    0.2862 C   0  0  0  0  0  0  0  0  0  0  0  0
   -6.1009   -1.0336    0.6830 C   0  0  0  0  0  0  0  0  0  0  0  0
   -7.1925   -1.9052    1.2324 C   0  0  0  0  0  0  0  0  0  0  0  0
   -4.8099   -1.5488    0.5021 C   0  0  0  0  0  0  0  0  0  0  0  0
   -3.8000   -0.7537   -0.0416 C   0  0  0  0  0  0  0  0  0  0  0  0
   -0.0614    0.7908    0.7869 C   0  0  0  0  0  0  0  0  0  0  0  0
   -0.7219   -0.0974    1.3106 O   0  0  0  0  0  0  0  0  0  0  0  0
    4.3973   -0.6090    1.8851 C   0  0  0  0  0  0  0  0  0  0  0  0
    5.7758   -0.7688    1.7529 C   0  0  0  0  0  0  0  0  0  0  0  0
    6.3393   -0.7794    0.4840 C   0  0  0  0  0  0  0  0  0  0  0  0
    7.6947   -0.9372    0.3814 O   0  0  0  0  0  0  0  0  0  0  0  0
    4.7739   -1.2582   -3.1913 H   0  0  0  0  0  0  0  0  0  0  0  0
    5.0220    0.5253   -3.0310 H   0  0  0  0  0  0  0  0  0  0  0  0
    6.2029   -0.4791   -3.8814 H   0  0  0  0  0  0  0  0  0  0  0  0
    3.5361   -0.3860   -1.3998 H   0  0  0  0  0  0  0  0  0  0  0  0
    1.6613   -1.1599    1.4014 H   0  0  0  0  0  0  0  0  0  0  0  0
   -2.4986    1.7917    1.1593 H   0  0  0  0  0  0  0  0  0  0  0  0
   -5.6050    2.1019   -0.5635 H   0  0  0  0  0  0  0  0  0  0  0  0
   -7.3822    0.6874    0.3932 H   0  0  0  0  0  0  0  0  0  0  0  0
   -7.9455   -1.3062    1.7553 H   0  0  0  0  0  0  0  0  0  0  0  0
   -6.7907   -2.6237    1.9546 H   0  0  0  0  0  0  0  0  0  0  0  0
   -7.6786   -2.4531    0.4192 H   0  0  0  0  0  0  0  0  0  0  0  0
   -4.5850   -2.5768    0.7808 H   0  0  0  0  0  0  0  0  0  0  0  0
   -2.8035   -1.1701   -0.1755 H   0  0  0  0  0  0  0  0  0  0  0  0
    3.9600   -0.6018    2.8809 H   0  0  0  0  0  0  0  0  0  0  0  0
    6.4064   -0.8841    2.6294 H   0  0  0  0  0  0  0  0  0  0  0  0
    7.8787   -0.9150   -0.5780 H   0  0  0  0  0  0  0  0  0  0  0  0
  1  2  1  0
  2  3  1  0
  3  4  2  0
  4  5  1  0
  5  6  1  0
  6  7  2  3
  7  8  1  0
  8  9  1  0
  9 10  2  0
  9 11  1  0
 11 12  1  0
 12 13  1  0
 13 14  2  0
 13 15  2  0
 13 16  1  0
 16 17  2  0
 17 18  1  0
 18 19  2  0
 19 20  1  0
 19 21  1  0
 21 22  2  0
 11 23  1  0
 23 24  2  0
  5 25  2  0
 25 26  1  0
 26 27  2  0
 27 28  1  0
 27  3  1  0
 23  7  1  0
 22 16  1  0
  1 29  1  0
  1 30  1  0
  1 31  1  0
  4 32  1  0
  6 33  1  0
 12 34  1  0
 17 35  1  0
 18 36  1  0
 20 37  1  0
 20 38  1  0
 20 39  1  0
 21 40  1  0
 22 41  1  0
 25 42  1  0
 26 43  1  0
 28 44  1  0
M  END
$$$$
