
     RDKit          3D

 58 61  0  0  0  0  0  0  0  0999 V2000
   -4.0557    5.1670    2.0275 C   0  0  0  0  0  0  0  0  0  0  0  0
   -4.0855    3.7476    1.9495 O   0  0  0  0  0  0  0  0  0  0  0  0
   -2.8898    3.0957    2.0816 C   0  0  0  0  0  0  0  0  0  0  0  0
   -1.6505    3.6945    2.3084 C   0  0  0  0  0  0  0  0  0  0  0  0
   -0.5017    2.9075    2.4190 C   0  0  0  0  0  0  0  0  0  0  0  0
   -0.5869    1.5197    2.3045 C   0  0  0  0  0  0  0  0  0  0  0  0
   -1.8227    0.9029    2.0780 C   0  0  0  0  0  0  0  0  0  0  0  0
   -1.9084   -0.5563    1.9325 C   0  0  0  0  0  0  0  0  0  0  0  0
   -2.8230   -1.4347    3.0822 S   0  0  0  0  0  0  0  0  0  0  0  0
   -2.4694   -2.9447    2.3478 C   0  0  0  0  0  0  0  0  0  0  0  0
   -2.9131   -4.2129    2.7694 C   0  0  0  0  0  0  0  0  0  0  0  0
   -2.5311   -5.3482    2.0456 C   0  0  0  0  0  0  0  0  0  0  0  0
   -1.7262   -5.2316    0.9211 C   0  0  0  0  0  0  0  0  0  0  0  0
   -1.2895   -6.2614    0.1332 O   0  0  0  0  0  0  0  0  0  0  0  0
   -1.7235   -7.5696    0.4828 C   0  0  0  0  0  0  0  0  0  0  0  0
   -1.2921   -3.9644    0.5133 C   0  0  0  0  0  0  0  0  0  0  0  0
   -1.6537   -2.7909    1.2269 C   0  0  0  0  0  0  0  0  0  0  0  0
   -1.3268   -1.3991    0.9959 C   0  0  0  0  0  0  0  0  0  0  0  0
   -0.4855   -0.8896   -0.0844 C   0  0  0  0  0  0  0  0  0  0  0  0
   -1.0196   -0.0661   -1.0784 C   0  0  0  0  0  0  0  0  0  0  0  0
   -0.1981    0.4176   -2.0997 C   0  0  0  0  0  0  0  0  0  0  0  0
    1.1585    0.0837   -2.1492 C   0  0  0  0  0  0  0  0  0  0  0  0
    1.8328    0.6302   -3.2033 O   0  0  0  0  0  0  0  0  0  0  0  0
    3.2244    0.3538   -3.3633 C   0  0  0  0  0  0  0  0  0  0  0  0
    4.1191    1.2980   -2.5331 C   0  0  0  0  0  0  0  0  0  0  0  0
    3.9671    2.7409   -2.8158 N   0  0  0  0  0  0  0  0  0  0  0  0
    4.7458    3.5282   -1.8583 C   0  0  0  0  0  0  0  0  0  0  0  0
    4.3539    3.0866   -4.1826 C   0  0  0  0  0  0  0  0  0  0  0  0
    1.6893   -0.7441   -1.1608 C   0  0  0  0  0  0  0  0  0  0  0  0
    0.8711   -1.2290   -0.1330 C   0  0  0  0  0  0  0  0  0  0  0  0
   -2.9687    1.7039    1.9685 C   0  0  0  0  0  0  0  0  0  0  0  0
   -3.4425    5.5941    1.2271 H   0  0  0  0  0  0  0  0  0  0  0  0
   -3.7113    5.5008    3.0118 H   0  0  0  0  0  0  0  0  0  0  0  0
   -5.0789    5.5306    1.8925 H   0  0  0  0  0  0  0  0  0  0  0  0
   -1.5420    4.7698    2.4008 H   0  0  0  0  0  0  0  0  0  0  0  0
    0.4636    3.3771    2.5900 H   0  0  0  0  0  0  0  0  0  0  0  0
    0.3182    0.9227    2.3893 H   0  0  0  0  0  0  0  0  0  0  0  0
   -3.5470   -4.3110    3.6466 H   0  0  0  0  0  0  0  0  0  0  0  0
   -2.8884   -6.3112    2.3956 H   0  0  0  0  0  0  0  0  0  0  0  0
   -2.8142   -7.6515    0.4300 H   0  0  0  0  0  0  0  0  0  0  0  0
   -1.3521   -7.8570    1.4719 H   0  0  0  0  0  0  0  0  0  0  0  0
   -1.3017   -8.2678   -0.2466 H   0  0  0  0  0  0  0  0  0  0  0  0
   -0.6683   -3.8815   -0.3742 H   0  0  0  0  0  0  0  0  0  0  0  0
   -2.0713    0.2097   -1.0659 H   0  0  0  0  0  0  0  0  0  0  0  0
   -0.6193    1.0658   -2.8646 H   0  0  0  0  0  0  0  0  0  0  0  0
    3.4481    0.4717   -4.4291 H   0  0  0  0  0  0  0  0  0  0  0  0
    3.4539   -0.6963   -3.1477 H   0  0  0  0  0  0  0  0  0  0  0  0
    5.1655    0.9967   -2.6721 H   0  0  0  0  0  0  0  0  0  0  0  0
    3.8786    1.1371   -1.4755 H   0  0  0  0  0  0  0  0  0  0  0  0
    4.5921    4.6005   -2.0244 H   0  0  0  0  0  0  0  0  0  0  0  0
    5.8194    3.3182   -1.9277 H   0  0  0  0  0  0  0  0  0  0  0  0
    4.4190    3.3234   -0.8327 H   0  0  0  0  0  0  0  0  0  0  0  0
    3.6878    2.6188   -4.9138 H   0  0  0  0  0  0  0  0  0  0  0  0
    5.3848    2.7902   -4.4072 H   0  0  0  0  0  0  0  0  0  0  0  0
    4.2660    4.1670   -4.3466 H   0  0  0  0  0  0  0  0  0  0  0  0
    2.7342   -1.0311   -1.1494 H   0  0  0  0  0  0  0  0  0  0  0  0
    1.3037   -1.8685    0.6335 H   0  0  0  0  0  0  0  0  0  0  0  0
   -3.9381    1.2465    1.7823 H   0  0  0  0  0  0  0  0  0  0  0  0
  1  2  1  0
  2  3  1  0
  3  4  2  0
  4  5  1  0
  5  6  2  0
  6  7  1  0
  7  8  1  0
  8  9  1  0
  9 10  1  0
 10 11  2  0
 11 12  1  0
 12 13  2  0
 13 14  1  0
 14 15  1  0
 13 16  1  0
 16 17  2  0
 17 18  1  0
 18 19  1  0
 19 20  2  0
 20 21  1  0
 21 22  2  0
 22 23  1  0
 23 24  1  0
 24 25  1  0
 25 26  1  0
 26 27  1  0
 26 28  1  0
 22 29  1  0
 29 30  2  0
  7 31  2  0
 31  3  1  0
 18  8  2  0
 30 19  1  0
 17 10  1  0
  1 32  1  0
  1 33  1  0
  1 34  1  0
  4 35  1  0
  5 36  1  0
  6 37  1  0
 11 38  1  0
 12 39  1  0
 15 40  1  0
 15 41  1  0
 15 42  1  0
 16 43  1  0
 20 44  1  0
 21 45  1  0
 24 46  1  0
 24 47  1  0
 25 48  1  0
 25 49  1  0
 27 50  1  0
 27 51  1  0
 27 52  1  0
 28 53  1  0
 28 54  1  0
 28 55  1  0
 29 56  1  0
 30 57  1  0
 31 58  1  0
M  END
$$$$
