
     RDKit          3D

 53 56  0  0  0  0  0  0  0  0999 V2000
   -7.5337    3.2753   -2.0099 C   0  0  0  0  0  0  0  0  0  0  0  0
   -6.4671    2.4762   -1.3215 C   0  0  0  0  0  0  0  0  0  0  0  0
   -5.4369    3.1183   -0.6277 C   0  0  0  0  0  0  0  0  0  0  0  0
   -4.4186    2.3750   -0.0231 C   0  0  0  0  0  0  0  0  0  0  0  0
   -4.4178    0.9717   -0.0926 C   0  0  0  0  0  0  0  0  0  0  0  0
   -3.3541    0.2497    0.5311 N   0  0  0  0  0  0  0  0  0  0  0  0
   -2.2128    0.9174    0.8541 N   0  0  0  0  0  0  0  0  0  0  0  0
   -1.3342   -0.0374    1.1693 C   0  0  0  0  0  0  0  0  0  0  0  0
    0.0715    0.1527    1.4973 C   0  0  0  0  0  0  0  0  0  0  0  0
    0.6422    1.2434    1.4914 O   0  0  0  0  0  0  0  0  0  0  0  0
    0.7165   -1.0519    1.8394 N   0  0  0  0  0  0  0  0  0  0  0  0
    2.1419   -1.0007    2.1126 C   0  0  0  0  0  0  0  0  0  0  0  0
    2.9381   -0.9250    0.8051 C   0  0  0  0  0  0  0  0  0  0  0  0
    2.5306   -1.3631   -0.2687 O   0  0  0  0  0  0  0  0  0  0  0  0
    4.1989   -0.3671    0.9601 N   0  0  0  0  0  0  0  0  0  0  0  0
    5.0379   -0.0947   -0.1977 C   0  0  0  0  0  0  0  0  0  0  0  0
    6.5230   -0.2479    0.1400 C   0  0  0  0  0  0  0  0  0  0  0  0
    7.4072    0.1603   -1.0019 C   0  0  0  0  0  0  0  0  0  0  0  0
    8.0516    1.3678   -1.1942 C   0  0  0  0  0  0  0  0  0  0  0  0
    8.8130    1.3903   -2.3986 C   0  0  0  0  0  0  0  0  0  0  0  0
    8.7176    0.2022   -3.0892 C   0  0  0  0  0  0  0  0  0  0  0  0
    7.7269   -0.9369   -2.2817 S   0  0  0  0  0  0  0  0  0  0  0  0
    0.1130   -2.3135    1.8791 N   0  0  0  0  0  0  0  0  0  0  0  0
   -1.1433   -2.4626    1.5613 C   0  0  0  0  0  0  0  0  0  0  0  0
   -1.7294   -3.8456    1.5938 C   0  0  0  0  0  0  0  0  0  0  0  0
   -1.9262   -1.3050    1.1995 C   0  0  0  0  0  0  0  0  0  0  0  0
   -3.2609   -1.1005    0.8905 C   0  0  0  0  0  0  0  0  0  0  0  0
   -4.4123   -2.0357    0.9649 C   0  0  0  0  0  0  0  0  0  0  0  0
   -5.4303    0.3332   -0.8167 C   0  0  0  0  0  0  0  0  0  0  0  0
   -6.4467    1.0810   -1.4243 C   0  0  0  0  0  0  0  0  0  0  0  0
   -7.2273    3.5030   -3.0359 H   0  0  0  0  0  0  0  0  0  0  0  0
   -7.7219    4.2148   -1.4797 H   0  0  0  0  0  0  0  0  0  0  0  0
   -8.4793    2.7221   -2.0373 H   0  0  0  0  0  0  0  0  0  0  0  0
   -5.4097    4.2042   -0.5598 H   0  0  0  0  0  0  0  0  0  0  0  0
   -3.6314    2.9092    0.5078 H   0  0  0  0  0  0  0  0  0  0  0  0
    2.3564   -0.1230    2.7303 H   0  0  0  0  0  0  0  0  0  0  0  0
    2.4463   -1.8983    2.6604 H   0  0  0  0  0  0  0  0  0  0  0  0
    4.3392    0.2241    1.7707 H   0  0  0  0  0  0  0  0  0  0  0  0
    4.7593   -0.7584   -1.0256 H   0  0  0  0  0  0  0  0  0  0  0  0
    4.8144    0.9328   -0.5130 H   0  0  0  0  0  0  0  0  0  0  0  0
    6.7330   -1.2851    0.4351 H   0  0  0  0  0  0  0  0  0  0  0  0
    6.7646    0.3671    1.0182 H   0  0  0  0  0  0  0  0  0  0  0  0
    7.9833    2.1995   -0.5037 H   0  0  0  0  0  0  0  0  0  0  0  0
    9.3935    2.2364   -2.7442 H   0  0  0  0  0  0  0  0  0  0  0  0
    9.1841   -0.0566   -4.0299 H   0  0  0  0  0  0  0  0  0  0  0  0
   -2.3064   -4.0341    0.6857 H   0  0  0  0  0  0  0  0  0  0  0  0
   -2.3776   -3.9474    2.4691 H   0  0  0  0  0  0  0  0  0  0  0  0
   -0.9338   -4.5939    1.6628 H   0  0  0  0  0  0  0  0  0  0  0  0
   -4.5368   -2.5774    0.0236 H   0  0  0  0  0  0  0  0  0  0  0  0
   -5.3427   -1.5189    1.2160 H   0  0  0  0  0  0  0  0  0  0  0  0
   -4.2640   -2.7738    1.7587 H   0  0  0  0  0  0  0  0  0  0  0  0
   -5.4335   -0.7382   -0.9855 H   0  0  0  0  0  0  0  0  0  0  0  0
   -7.2152    0.5651   -1.9975 H   0  0  0  0  0  0  0  0  0  0  0  0
  1  2  1  0
  2  3  2  0
  3  4  1  0
  4  5  2  0
  5  6  1  0
  6  7  1  0
  7  8  2  0
  8  9  1  0
  9 10  2  0
  9 11  1  0
 11 12  1  0
 12 13  1  0
 13 14  2  0
 13 15  1  0
 15 16  1  0
 16 17  1  0
 17 18  1  0
 18 19  2  0
 19 20  1  0
 20 21  2  0
 21 22  1  0
 11 23  1  0
 23 24  2  0
 24 25  1  0
 24 26  1  0
 26 27  2  0
 27 28  1  0
  5 29  1  0
 29 30  2  0
 30  2  1  0
 27  6  1  0
 26  8  1  0
 22 18  1  0
  1 31  1  0
  1 32  1  0
  1 33  1  0
  3 34  1  0
  4 35  1  0
 12 36  1  0
 12 37  1  0
 15 38  1  0
 16 39  1  0
 16 40  1  0
 17 41  1  0
 17 42  1  0
 19 43  1  0
 20 44  1  0
 21 45  1  0
 25 46  1  0
 25 47  1  0
 25 48  1  0
 28 49  1  0
 28 50  1  0
 28 51  1  0
 29 52  1  0
 30 53  1  0
M  END
$$$$
