
     RDKit          3D

 51 55  0  0  0  0  0  0  0  0999 V2000
    9.1946   -0.4782    2.0518 F   0  0  0  0  0  0  0  0  0  0  0  0
    7.9633   -0.1127    1.6713 C   0  0  0  0  0  0  0  0  0  0  0  0
    7.6856    0.0533    0.3200 C   0  0  0  0  0  0  0  0  0  0  0  0
    6.4030    0.4328   -0.0776 C   0  0  0  0  0  0  0  0  0  0  0  0
    5.4000    0.6497    0.8796 C   0  0  0  0  0  0  0  0  0  0  0  0
    4.0049    1.0417    0.4483 C   0  0  0  0  0  0  0  0  0  0  0  0
    3.1033   -0.1905    0.2624 C   0  0  0  0  0  0  0  0  0  0  0  0
    1.7730    0.1369   -0.2850 N   0  0  0  0  0  0  0  0  0  0  0  0
    1.0633   -1.1080   -0.6656 C   0  0  0  0  0  0  0  0  0  0  0  0
   -0.3592   -0.8479   -1.2035 C   0  0  0  0  0  0  0  0  0  0  0  0
   -1.1611   -0.1068   -0.2099 N   0  0  0  0  0  0  0  0  0  0  0  0
   -2.5420   -0.0732   -0.3955 C   0  0  0  0  0  0  0  0  0  0  0  0
   -3.1293    1.0720   -0.6362 N   0  0  0  0  0  0  0  0  0  0  0  0
   -4.5196    1.1317   -0.8578 C   0  0  0  0  0  0  0  0  0  0  0  0
   -5.0949    2.3749   -1.1278 C   0  0  0  0  0  0  0  0  0  0  0  0
   -6.4675    2.4901   -1.3641 C   0  0  0  0  0  0  0  0  0  0  0  0
   -7.2812    1.3569   -1.3329 C   0  0  0  0  0  0  0  0  0  0  0  0
   -6.7284    0.1040   -1.0650 C   0  0  0  0  0  0  0  0  0  0  0  0
   -5.3536    0.0046   -0.8312 C   0  0  0  0  0  0  0  0  0  0  0  0
   -4.7173   -1.2135   -0.5432 N   0  0  0  0  0  0  0  0  0  0  0  0
   -5.2510   -2.4749   -0.4216 C   0  0  0  0  0  0  0  0  0  0  0  0
   -4.2375   -3.3387   -0.0653 C   0  0  0  0  0  0  0  0  0  0  0  0
   -3.0486   -2.5775    0.0188 C   0  0  0  0  0  0  0  0  0  0  0  0
   -3.3612   -1.2716   -0.3144 C   0  0  0  0  0  0  0  0  0  0  0  0
   -0.4923    1.1548    0.1686 C   0  0  0  0  0  0  0  0  0  0  0  0
    0.9376    0.8824    0.6863 C   0  0  0  0  0  0  0  0  0  0  0  0
    5.6989    0.4720    2.2393 C   0  0  0  0  0  0  0  0  0  0  0  0
    6.9824    0.0924    2.6340 C   0  0  0  0  0  0  0  0  0  0  0  0
    8.4674   -0.1139   -0.4137 H   0  0  0  0  0  0  0  0  0  0  0  0
    6.1894    0.5591   -1.1370 H   0  0  0  0  0  0  0  0  0  0  0  0
    4.0613    1.6126   -0.4875 H   0  0  0  0  0  0  0  0  0  0  0  0
    3.5893    1.7257    1.1975 H   0  0  0  0  0  0  0  0  0  0  0  0
    3.6099   -0.8696   -0.4369 H   0  0  0  0  0  0  0  0  0  0  0  0
    3.0097   -0.7371    1.2106 H   0  0  0  0  0  0  0  0  0  0  0  0
    1.6315   -1.6254   -1.4480 H   0  0  0  0  0  0  0  0  0  0  0  0
    0.9982   -1.7847    0.1972 H   0  0  0  0  0  0  0  0  0  0  0  0
   -0.8171   -1.8113   -1.4476 H   0  0  0  0  0  0  0  0  0  0  0  0
   -0.3082   -0.2714   -2.1363 H   0  0  0  0  0  0  0  0  0  0  0  0
   -4.4635    3.2590   -1.1547 H   0  0  0  0  0  0  0  0  0  0  0  0
   -6.8993    3.4655   -1.5730 H   0  0  0  0  0  0  0  0  0  0  0  0
   -8.3486    1.4518   -1.5170 H   0  0  0  0  0  0  0  0  0  0  0  0
   -7.3809   -0.7623   -1.0435 H   0  0  0  0  0  0  0  0  0  0  0  0
   -6.3026   -2.6661   -0.5776 H   0  0  0  0  0  0  0  0  0  0  0  0
   -4.3474   -4.3988    0.1237 H   0  0  0  0  0  0  0  0  0  0  0  0
   -2.0676   -2.9402    0.2952 H   0  0  0  0  0  0  0  0  0  0  0  0
   -0.4548    1.8348   -0.6923 H   0  0  0  0  0  0  0  0  0  0  0  0
   -1.0558    1.6519    0.9676 H   0  0  0  0  0  0  0  0  0  0  0  0
    0.8718    0.3256    1.6307 H   0  0  0  0  0  0  0  0  0  0  0  0
    1.3944    1.8530    0.9064 H   0  0  0  0  0  0  0  0  0  0  0  0
    4.9344    0.6299    2.9969 H   0  0  0  0  0  0  0  0  0  0  0  0
    7.2230   -0.0445    3.6832 H   0  0  0  0  0  0  0  0  0  0  0  0
  1  2  1  0
  2  3  2  0
  3  4  1  0
  4  5  2  0
  5  6  1  0
  6  7  1  0
  7  8  1  0
  8  9  1  0
  9 10  1  0
 10 11  1  0
 11 12  1  0
 12 13  2  0
 13 14  1  0
 14 15  2  0
 15 16  1  0
 16 17  2  0
 17 18  1  0
 18 19  2  0
 19 20  1  0
 20 21  1  0
 21 22  2  0
 22 23  1  0
 23 24  2  0
 11 25  1  0
 25 26  1  0
  5 27  1  0
 27 28  2  0
 28  2  1  0
 26  8  1  0
 24 12  1  0
 19 14  1  0
 24 20  1  0
  3 29  1  0
  4 30  1  0
  6 31  1  0
  6 32  1  0
  7 33  1  0
  7 34  1  0
  9 35  1  0
  9 36  1  0
 10 37  1  0
 10 38  1  0
 15 39  1  0
 16 40  1  0
 17 41  1  0
 18 42  1  0
 21 43  1  0
 22 44  1  0
 23 45  1  0
 25 46  1  0
 25 47  1  0
 26 48  1  0
 26 49  1  0
 27 50  1  0
 28 51  1  0
M  END
$$$$
