
     RDKit          3D

 67 72  0  0  0  0  0  0  0  0999 V2000
    2.8391    0.2026   -2.6194 O   0  0  0  0  0  0  0  0  0  0  0  0
    2.4095    0.0229   -1.4754 C   0  0  0  0  0  0  0  0  0  0  0  0
    3.3193    0.1722   -0.2360 C   0  0  0  0  0  0  0  0  0  0  0  0
    4.7956    0.0029   -0.6432 C   0  0  0  0  0  0  0  0  0  0  0  0
    5.7598    0.3301    0.4765 C   0  0  0  0  0  0  0  0  0  0  0  0
    6.2330   -0.6791    1.3277 C   0  0  0  0  0  0  0  0  0  0  0  0
    7.0931   -0.3683    2.3810 C   0  0  0  0  0  0  0  0  0  0  0  0
    7.4935    0.9519    2.5902 C   0  0  0  0  0  0  0  0  0  0  0  0
    7.0316    1.9620    1.7477 C   0  0  0  0  0  0  0  0  0  0  0  0
    6.1674    1.6532    0.6961 C   0  0  0  0  0  0  0  0  0  0  0  0
    2.9522   -0.8144    0.7837 N   0  0  0  0  0  0  0  0  0  0  0  0
    1.5974   -0.7513    1.1214 C   0  0  0  0  0  0  0  0  0  0  0  0
    1.3239   -1.0263    2.4037 N   0  0  0  0  0  0  0  0  0  0  0  0
    0.0316   -1.0311    2.7326 C   0  0  0  0  0  0  0  0  0  0  0  0
   -0.9886   -0.7521    1.9163 N   0  0  0  0  0  0  0  0  0  0  0  0
   -0.6965   -0.4497    0.6313 C   0  0  0  0  0  0  0  0  0  0  0  0
   -1.7605    0.0213   -0.1618 N   0  0  0  0  0  0  0  0  0  0  0  0
   -3.0852   -0.5619    0.1761 C   0  0  0  0  0  0  0  0  0  0  0  0
   -4.2071    0.2119   -0.5482 C   0  0  0  0  0  0  0  0  0  0  0  0
   -4.2735    1.6229   -0.0942 N   0  0  0  0  0  0  0  0  0  0  0  0
   -5.3715    2.0291    0.6837 C   0  0  0  0  0  0  0  0  0  0  0  0
   -5.7750    3.3751    0.6327 C   0  0  0  0  0  0  0  0  0  0  0  0
   -6.8491    3.8437    1.3947 C   0  0  0  0  0  0  0  0  0  0  0  0
   -7.5434    2.9712    2.2263 C   0  0  0  0  0  0  0  0  0  0  0  0
   -7.1613    1.6323    2.2959 C   0  0  0  0  0  0  0  0  0  0  0  0
   -6.0833    1.1680    1.5336 C   0  0  0  0  0  0  0  0  0  0  0  0
   -2.9917    2.1499    0.4511 C   0  0  0  0  0  0  0  0  0  0  0  0
   -1.7663    1.5119   -0.2467 C   0  0  0  0  0  0  0  0  0  0  0  0
    0.6249   -0.4765    0.1521 C   0  0  0  0  0  0  0  0  0  0  0  0
    1.0537   -0.2335   -1.2058 N   0  0  0  0  0  0  0  0  0  0  0  0
    0.2056   -0.5705   -2.3475 C   0  0  0  0  0  0  0  0  0  0  0  0
    0.3124   -2.0359   -2.7307 C   0  0  0  0  0  0  0  0  0  0  0  0
    1.2500   -2.4541   -3.6893 C   0  0  0  0  0  0  0  0  0  0  0  0
    1.3748   -3.8038   -4.0259 C   0  0  0  0  0  0  0  0  0  0  0  0
    0.5625   -4.7481   -3.4021 C   0  0  0  0  0  0  0  0  0  0  0  0
    0.7161   -6.4125   -3.8104 Cl  0  0  0  0  0  0  0  0  0  0  0  0
   -0.3733   -4.3521   -2.4468 C   0  0  0  0  0  0  0  0  0  0  0  0
   -0.4967   -3.0010   -2.1120 C   0  0  0  0  0  0  0  0  0  0  0  0
    3.1668    1.1898    0.1535 H   0  0  0  0  0  0  0  0  0  0  0  0
    5.0319    0.6568   -1.4923 H   0  0  0  0  0  0  0  0  0  0  0  0
    4.9808   -1.0178   -1.0012 H   0  0  0  0  0  0  0  0  0  0  0  0
    5.9292   -1.7140    1.1752 H   0  0  0  0  0  0  0  0  0  0  0  0
    7.4530   -1.1546    3.0416 H   0  0  0  0  0  0  0  0  0  0  0  0
    8.1630    1.1901    3.4123 H   0  0  0  0  0  0  0  0  0  0  0  0
    7.3405    2.9910    1.9126 H   0  0  0  0  0  0  0  0  0  0  0  0
    5.8207    2.4525    0.0448 H   0  0  0  0  0  0  0  0  0  0  0  0
    3.4940   -0.7949    1.6442 H   0  0  0  0  0  0  0  0  0  0  0  0
   -0.2167   -1.2665    3.7624 H   0  0  0  0  0  0  0  0  0  0  0  0
   -3.2920   -0.5321    1.2535 H   0  0  0  0  0  0  0  0  0  0  0  0
   -3.1024   -1.6100   -0.1430 H   0  0  0  0  0  0  0  0  0  0  0  0
   -5.1641   -0.3126   -0.4478 H   0  0  0  0  0  0  0  0  0  0  0  0
   -3.9899    0.2273   -1.6225 H   0  0  0  0  0  0  0  0  0  0  0  0
   -5.2569    4.0687   -0.0254 H   0  0  0  0  0  0  0  0  0  0  0  0
   -7.1435    4.8857    1.3306 H   0  0  0  0  0  0  0  0  0  0  0  0
   -8.3801    3.3282    2.8235 H   0  0  0  0  0  0  0  0  0  0  0  0
   -7.7022    0.9506    2.9535 H   0  0  0  0  0  0  0  0  0  0  0  0
   -5.8003    0.1252    1.6393 H   0  0  0  0  0  0  0  0  0  0  0  0
   -2.9443    3.2358    0.3086 H   0  0  0  0  0  0  0  0  0  0  0  0
   -2.9275    1.9465    1.5296 H   0  0  0  0  0  0  0  0  0  0  0  0
   -0.8502    1.9550    0.1662 H   0  0  0  0  0  0  0  0  0  0  0  0
   -1.7905    1.7813   -1.3096 H   0  0  0  0  0  0  0  0  0  0  0  0
   -0.8393   -0.3060   -2.2075 H   0  0  0  0  0  0  0  0  0  0  0  0
    0.5135    0.0401   -3.2071 H   0  0  0  0  0  0  0  0  0  0  0  0
    1.8992   -1.7287   -4.1766 H   0  0  0  0  0  0  0  0  0  0  0  0
    2.1106   -4.1036   -4.7684 H   0  0  0  0  0  0  0  0  0  0  0  0
   -1.0039   -5.0881   -1.9527 H   0  0  0  0  0  0  0  0  0  0  0  0
   -1.2234   -2.7083   -1.3565 H   0  0  0  0  0  0  0  0  0  0  0  0
  1  2  2  0
  2  3  1  0
  3  4  1  0
  4  5  1  0
  5  6  2  0
  6  7  1  0
  7  8  2  0
  8  9  1  0
  9 10  2  0
  3 11  1  0
 11 12  1  0
 12 13  2  0
 13 14  1  0
 14 15  2  0
 15 16  1  0
 16 17  1  0
 17 18  1  0
 18 19  1  0
 19 20  1  0
 20 21  1  0
 21 22  2  0
 22 23  1  0
 23 24  2  0
 24 25  1  0
 25 26  2  0
 20 27  1  0
 27 28  1  0
 16 29  2  0
 29 30  1  0
 30 31  1  0
 31 32  1  0
 32 33  2  0
 33 34  1  0
 34 35  2  0
 35 36  1  0
 35 37  1  0
 37 38  2  0
 30  2  1  0
 38 32  1  0
 10  5  1  0
 29 12  1  0
 28 17  1  0
 26 21  1  0
  3 39  1  0
  4 40  1  0
  4 41  1  0
  6 42  1  0
  7 43  1  0
  8 44  1  0
  9 45  1  0
 10 46  1  0
 11 47  1  0
 14 48  1  0
 18 49  1  0
 18 50  1  0
 19 51  1  0
 19 52  1  0
 22 53  1  0
 23 54  1  0
 24 55  1  0
 25 56  1  0
 26 57  1  0
 27 58  1  0
 27 59  1  0
 28 60  1  0
 28 61  1  0
 31 62  1  0
 31 63  1  0
 33 64  1  0
 34 65  1  0
 37 66  1  0
 38 67  1  0
M  END
$$$$
