
     RDKit          3D

 44 47  0  0  0  0  0  0  0  0999 V2000
   -4.1538    2.5713    1.3189 C   0  0  0  0  0  0  0  0  0  0  0  0
   -3.9477    1.4577    0.2891 C   0  0  0  0  0  0  0  0  0  0  0  0
   -2.5082    1.4214   -0.2073 C   0  0  0  0  0  0  0  0  0  0  0  0
   -1.5390    0.7907    0.7716 C   0  0  0  0  0  0  0  0  0  0  0  0
   -0.8119    1.5041    1.4685 O   0  0  0  0  0  0  0  0  0  0  0  0
   -1.4220   -0.5961    0.7732 N   0  0  0  0  0  0  0  0  0  0  0  0
   -0.3701   -1.1926    1.6065 C   0  0  0  0  0  0  0  0  0  0  0  0
    1.0083   -1.1480    0.9372 C   0  0  0  0  0  0  0  0  0  0  0  0
    1.5363   -2.1783    0.5252 O   0  0  0  0  0  0  0  0  0  0  0  0
    1.5388    0.1298    0.8719 N   0  0  0  0  0  0  0  0  0  0  0  0
    2.7822    0.5199    0.3336 C   0  0  0  0  0  0  0  0  0  0  0  0
    3.0905    1.8986    0.3790 C   0  0  0  0  0  0  0  0  0  0  0  0
    4.3047    2.3869   -0.1192 C   0  0  0  0  0  0  0  0  0  0  0  0
    5.1877    1.4774   -0.6529 C   0  0  0  0  0  0  0  0  0  0  0  0
    4.8927    0.1369   -0.7038 C   0  0  0  0  0  0  0  0  0  0  0  0
    3.7019   -0.3732   -0.2239 C   0  0  0  0  0  0  0  0  0  0  0  0
    5.8985   -0.5933   -1.2596 O   0  0  0  0  0  0  0  0  0  0  0  0
    6.8616    0.4413   -1.5392 C   0  0  0  0  0  0  0  0  0  0  0  0
    6.4111    1.7614   -1.1705 O   0  0  0  0  0  0  0  0  0  0  0  0
   -2.2846   -1.4752    0.0456 C   0  0  0  0  0  0  0  0  0  0  0  0
   -1.7252   -2.5589   -0.6508 C   0  0  0  0  0  0  0  0  0  0  0  0
   -2.5281   -3.4263   -1.3973 C   0  0  0  0  0  0  0  0  0  0  0  0
   -3.9067   -3.2396   -1.4394 C   0  0  0  0  0  0  0  0  0  0  0  0
   -4.4858   -2.1921   -0.7217 C   0  0  0  0  0  0  0  0  0  0  0  0
   -3.6879   -1.3021    0.0139 C   0  0  0  0  0  0  0  0  0  0  0  0
   -4.5511   -0.1042    1.0276 S   0  0  0  0  0  0  0  0  0  0  0  0
   -5.1915    2.6220    1.6598 H   0  0  0  0  0  0  0  0  0  0  0  0
   -3.9106    3.5466    0.8779 H   0  0  0  0  0  0  0  0  0  0  0  0
   -3.5128    2.4343    2.1996 H   0  0  0  0  0  0  0  0  0  0  0  0
   -4.5934    1.6755   -0.5683 H   0  0  0  0  0  0  0  0  0  0  0  0
   -2.1558    2.4366   -0.4279 H   0  0  0  0  0  0  0  0  0  0  0  0
   -2.4434    0.8919   -1.1682 H   0  0  0  0  0  0  0  0  0  0  0  0
   -0.6193   -2.2326    1.8524 H   0  0  0  0  0  0  0  0  0  0  0  0
   -0.3117   -0.6556    2.5627 H   0  0  0  0  0  0  0  0  0  0  0  0
    0.9545    0.8766    1.2550 H   0  0  0  0  0  0  0  0  0  0  0  0
    2.3833    2.6060    0.8077 H   0  0  0  0  0  0  0  0  0  0  0  0
    4.5469    3.4428   -0.0802 H   0  0  0  0  0  0  0  0  0  0  0  0
    3.5242   -1.4385   -0.2884 H   0  0  0  0  0  0  0  0  0  0  0  0
    7.7810    0.2170   -0.9911 H   0  0  0  0  0  0  0  0  0  0  0  0
    7.0806    0.4358   -2.6115 H   0  0  0  0  0  0  0  0  0  0  0  0
   -0.6498   -2.7307   -0.6654 H   0  0  0  0  0  0  0  0  0  0  0  0
   -2.0703   -4.2423   -1.9504 H   0  0  0  0  0  0  0  0  0  0  0  0
   -4.5341   -3.9190   -2.0151 H   0  0  0  0  0  0  0  0  0  0  0  0
   -5.5701   -2.0836   -0.7298 H   0  0  0  0  0  0  0  0  0  0  0  0
  1  2  1  0
  2  3  1  0
  3  4  1  0
  4  5  2  0
  4  6  1  0
  6  7  1  0
  7  8  1  0
  8  9  2  0
  8 10  1  0
 10 11  1  0
 11 12  2  0
 12 13  1  0
 13 14  2  0
 14 15  1  0
 15 16  2  0
 15 17  1  0
 17 18  1  0
 18 19  1  0
  6 20  1  0
 20 21  2  0
 21 22  1  0
 22 23  2  0
 23 24  1  0
 24 25  2  0
 25 26  1  0
 26  2  1  0
 16 11  1  0
 25 20  1  0
 19 14  1  0
  1 27  1  0
  1 28  1  0
  1 29  1  0
  2 30  1  0
  3 31  1  0
  3 32  1  0
  7 33  1  0
  7 34  1  0
 10 35  1  0
 12 36  1  0
 13 37  1  0
 16 38  1  0
 18 39  1  0
 18 40  1  0
 21 41  1  0
 22 42  1  0
 23 43  1  0
 24 44  1  0
M  END
$$$$
