
     RDKit          3D

 43 46  0  0  0  0  0  0  0  0999 V2000
    6.4536    1.3679   -1.5110 C   0  0  0  0  0  0  0  0  0  0  0  0
    5.0168    1.1783   -1.1177 C   0  0  0  0  0  0  0  0  0  0  0  0
    4.6742    0.3303   -0.0596 C   0  0  0  0  0  0  0  0  0  0  0  0
    3.3383    0.1733    0.3264 C   0  0  0  0  0  0  0  0  0  0  0  0
    2.3296    0.8729   -0.3364 C   0  0  0  0  0  0  0  0  0  0  0  0
    0.8232    0.6931    0.0739 C   0  0  0  0  0  0  0  0  0  0  0  0
   -0.2742    1.2895   -0.5370 C   0  0  0  0  0  0  0  0  0  0  0  0
   -1.4414    0.8369    0.0799 N   0  0  0  0  0  4  0  0  0  0  0  0
   -2.8127    1.2052   -0.2642 C   0  0  0  0  0  0  0  0  0  0  0  0
   -3.5456   -0.0227   -0.7391 C   0  0  0  0  0  0  0  0  0  0  0  0
   -3.1725   -0.6642   -1.9331 C   0  0  0  0  0  0  0  0  0  0  0  0
   -3.8330   -1.8217   -2.3564 C   0  0  0  0  0  0  0  0  0  0  0  0
   -4.8701   -2.3546   -1.5933 C   0  0  0  0  0  0  0  0  0  0  0  0
   -5.2552   -1.7193   -0.4120 C   0  0  0  0  0  0  0  0  0  0  0  0
   -6.5286   -2.3768    0.5443 Cl  0  0  0  0  0  0  0  0  0  0  0  0
   -4.6048   -0.5581    0.0139 C   0  0  0  0  0  0  0  0  0  0  0  0
   -1.0756    0.0027    1.0484 C   0  0  0  0  0  0  0  0  0  0  0  0
    0.2518   -0.0685    1.0779 N   0  0  0  0  0  0  0  0  0  0  0  0
    0.7253   -0.9542    2.1326 C   0  0  0  0  0  0  0  0  0  0  0  0
   -0.5412   -1.1964    2.9980 C   0  0  0  0  0  0  0  0  0  0  0  0
   -1.7256   -0.8379    2.0792 C   0  0  0  0  0  0  0  0  0  0  0  0
    2.6686    1.7349   -1.3866 C   0  0  0  0  0  0  0  0  0  0  0  0
    4.0055    1.8906   -1.7678 C   0  0  0  0  0  0  0  0  0  0  0  0
    7.0432    0.4700   -1.2823 H   0  0  0  0  0  0  0  0  0  0  0  0
    6.8805    2.2217   -0.9706 H   0  0  0  0  0  0  0  0  0  0  0  0
    6.5414    1.5472   -2.5910 H   0  0  0  0  0  0  0  0  0  0  0  0
    5.4516   -0.2174    0.4714 H   0  0  0  0  0  0  0  0  0  0  0  0
    3.1301   -0.5059    1.1448 H   0  0  0  0  0  0  0  0  0  0  0  0
   -0.3759    1.9756   -1.3613 H   0  0  0  0  0  0  0  0  0  0  0  0
   -3.2806    1.6381    0.6261 H   0  0  0  0  0  0  0  0  0  0  0  0
   -2.8107    1.9702   -1.0467 H   0  0  0  0  0  0  0  0  0  0  0  0
   -2.3617   -0.2697   -2.5478 H   0  0  0  0  0  0  0  0  0  0  0  0
   -3.5369   -2.3148   -3.2843 H   0  0  0  0  0  0  0  0  0  0  0  0
   -5.3776   -3.2586   -1.9262 H   0  0  0  0  0  0  0  0  0  0  0  0
   -4.9273   -0.0825    0.9371 H   0  0  0  0  0  0  0  0  0  0  0  0
    1.5141   -0.4800    2.7197 H   0  0  0  0  0  0  0  0  0  0  0  0
    1.0786   -1.8851    1.6801 H   0  0  0  0  0  0  0  0  0  0  0  0
   -0.5978   -2.2154    3.3907 H   0  0  0  0  0  0  0  0  0  0  0  0
   -0.5274   -0.5069    3.8501 H   0  0  0  0  0  0  0  0  0  0  0  0
   -2.1257   -1.7115    1.5625 H   0  0  0  0  0  0  0  0  0  0  0  0
   -2.5031   -0.2588    2.5757 H   0  0  0  0  0  0  0  0  0  0  0  0
    1.9228    2.3085   -1.9280 H   0  0  0  0  0  0  0  0  0  0  0  0
    4.2560    2.5743   -2.5757 H   0  0  0  0  0  0  0  0  0  0  0  0
  1  2  1  0
  2  3  2  0
  3  4  1  0
  4  5  2  0
  5  6  1  0
  6  7  2  0
  7  8  1  0
  8  9  1  0
  9 10  1  0
 10 11  2  0
 11 12  1  0
 12 13  2  0
 13 14  1  0
 14 15  1  0
 14 16  2  0
  8 17  2  0
 17 18  1  0
 18 19  1  0
 19 20  1  0
 20 21  1  0
  5 22  1  0
 22 23  2  0
 23  2  1  0
 18  6  1  0
 16 10  1  0
 21 17  1  0
  1 24  1  0
  1 25  1  0
  1 26  1  0
  3 27  1  0
  4 28  1  0
  7 29  1  0
  9 30  1  0
  9 31  1  0
 11 32  1  0
 12 33  1  0
 13 34  1  0
 16 35  1  0
 19 36  1  0
 19 37  1  0
 20 38  1  0
 20 39  1  0
 21 40  1  0
 21 41  1  0
 22 42  1  0
 23 43  1  0
M  CHG  1   8   1
M  END
$$$$
