
     RDKit          3D

 42 44  0  0  0  0  0  0  0  0999 V2000
   -3.2434    4.0003    0.5039 C   0  0  0  0  0  0  0  0  0  0  0  0
   -1.9436    3.2216    0.4470 C   0  0  0  0  0  0  0  0  0  0  0  0
   -2.2636    1.8294    0.3543 O   0  0  0  0  0  0  0  0  0  0  0  0
   -1.1782    1.0039    0.2908 C   0  0  0  0  0  0  0  0  0  0  0  0
   -0.0170    1.3988    0.3074 O   0  0  0  0  0  0  0  0  0  0  0  0
   -1.5457   -0.4063    0.1969 C   0  0  0  0  0  0  0  0  0  0  0  0
   -0.6099   -1.4403    0.0944 C   0  0  0  0  0  0  0  0  0  0  0  0
    0.7667   -1.3024    0.0721 N   0  0  0  0  0  0  0  0  0  0  0  0
    1.7283   -2.2896   -0.0285 C   0  0  0  0  0  0  0  0  0  0  0  0
    1.5573   -3.4997   -0.1181 O   0  0  0  0  0  0  0  0  0  0  0  0
    3.0892   -1.7170   -0.0190 C   0  0  0  0  0  0  0  0  0  0  0  0
    4.3171   -2.4228   -0.1087 C   0  0  0  0  0  0  0  0  0  0  0  0
    5.2970   -1.4609   -0.0597 C   0  0  0  0  0  0  0  0  0  0  0  0
    4.6454   -0.2689    0.0507 N   0  0  0  0  0  0  0  0  0  0  0  0
    5.2521    1.0456    0.1412 C   0  0  0  0  0  0  0  0  0  0  0  0
    5.2567    1.7675   -1.1942 C   0  0  0  0  0  0  0  0  0  0  0  0
    3.3049   -0.3883    0.0818 N   0  0  0  0  0  0  0  0  0  0  0  0
   -1.3405   -2.9901   -0.0128 S   0  0  0  0  0  0  0  0  0  0  0  0
   -2.8607   -2.3179    0.0783 C   0  0  0  0  0  0  0  0  0  0  0  0
   -2.8609   -0.9569    0.1909 C   0  0  0  0  0  0  0  0  0  0  0  0
   -4.2514   -0.4354    0.2660 C   0  0  0  0  0  0  0  0  0  0  0  0
   -5.0833   -1.7307    0.5250 C   0  0  0  0  0  0  0  0  0  0  0  0
   -4.2078   -2.9310    0.0552 C   0  0  0  0  0  0  0  0  0  0  0  0
   -3.0521    5.0744    0.5777 H   0  0  0  0  0  0  0  0  0  0  0  0
   -3.8428    3.6873    1.3653 H   0  0  0  0  0  0  0  0  0  0  0  0
   -3.8465    3.8087   -0.3898 H   0  0  0  0  0  0  0  0  0  0  0  0
   -1.3611    3.4078    1.3562 H   0  0  0  0  0  0  0  0  0  0  0  0
   -1.3666    3.5290   -0.4323 H   0  0  0  0  0  0  0  0  0  0  0  0
    1.1432   -0.3530    0.1383 H   0  0  0  0  0  0  0  0  0  0  0  0
    4.4479   -3.4927   -0.1974 H   0  0  0  0  0  0  0  0  0  0  0  0
    6.3754   -1.5268   -0.0956 H   0  0  0  0  0  0  0  0  0  0  0  0
    6.2755    0.9169    0.5100 H   0  0  0  0  0  0  0  0  0  0  0  0
    4.6938    1.6160    0.8917 H   0  0  0  0  0  0  0  0  0  0  0  0
    4.2378    1.9154   -1.5677 H   0  0  0  0  0  0  0  0  0  0  0  0
    5.7288    2.7496   -1.0939 H   0  0  0  0  0  0  0  0  0  0  0  0
    5.8087    1.1973   -1.9487 H   0  0  0  0  0  0  0  0  0  0  0  0
   -4.5406    0.0217   -0.6861 H   0  0  0  0  0  0  0  0  0  0  0  0
   -4.3940    0.2857    1.0755 H   0  0  0  0  0  0  0  0  0  0  0  0
   -5.2683   -1.8249    1.6033 H   0  0  0  0  0  0  0  0  0  0  0  0
   -6.0573   -1.7055    0.0265 H   0  0  0  0  0  0  0  0  0  0  0  0
   -4.4817   -3.2317   -0.9612 H   0  0  0  0  0  0  0  0  0  0  0  0
   -4.3088   -3.7842    0.7315 H   0  0  0  0  0  0  0  0  0  0  0  0
  1  2  1  0
  2  3  1  0
  3  4  1  0
  4  5  2  0
  4  6  1  0
  6  7  2  0
  7  8  1  0
  8  9  1  0
  9 10  2  0
  9 11  1  0
 11 12  1  0
 12 13  2  0
 13 14  1  0
 14 15  1  0
 15 16  1  0
 14 17  1  0
  7 18  1  0
 18 19  1  0
 19 20  2  0
 20 21  1  0
 21 22  1  0
 22 23  1  0
 20  6  1  0
 17 11  2  0
 23 19  1  0
  1 24  1  0
  1 25  1  0
  1 26  1  0
  2 27  1  0
  2 28  1  0
  8 29  1  0
 12 30  1  0
 13 31  1  0
 15 32  1  0
 15 33  1  0
 16 34  1  0
 16 35  1  0
 16 36  1  0
 21 37  1  0
 21 38  1  0
 22 39  1  0
 22 40  1  0
 23 41  1  0
 23 42  1  0
M  END
$$$$
