
     RDKit          3D

 39 40  0  0  0  0  0  0  0  0999 V2000
   -2.8578    4.4167    1.4303 C   0  0  0  0  0  0  0  0  0  0  0  0
   -1.9413    3.2266    1.3383 C   0  0  0  0  0  0  0  0  0  0  0  0
   -0.9859    3.0929    2.0947 O   0  0  0  0  0  0  0  0  0  0  0  0
   -2.3275    2.3217    0.3805 N   0  0  0  0  0  0  0  0  0  0  0  0
   -1.4061    1.6235   -0.2205 C   0  0  0  0  0  0  0  0  0  0  0  0
   -1.7858    0.6148   -1.2765 C   0  0  0  0  0  0  0  0  0  0  0  0
   -1.7858   -0.8015   -0.7616 C   0  0  0  0  0  0  0  0  0  0  0  0
   -0.7658   -1.6924   -1.1213 C   0  0  0  0  0  0  0  0  0  0  0  0
   -0.7642   -2.9993   -0.6314 C   0  0  0  0  0  0  0  0  0  0  0  0
   -1.7782   -3.4271    0.2229 C   0  0  0  0  0  0  0  0  0  0  0  0
   -2.7953   -2.5482    0.5896 C   0  0  0  0  0  0  0  0  0  0  0  0
   -2.7997   -1.2411    0.1008 C   0  0  0  0  0  0  0  0  0  0  0  0
    0.0830    1.7644    0.0166 C   0  0  0  0  0  0  0  0  0  0  0  0
    0.7348    2.6059   -0.5755 O   0  0  0  0  0  0  0  0  0  0  0  0
    0.4876    0.8312    0.8920 O   0  0  0  0  0  0  0  0  0  0  0  0
    1.8837    0.8461    1.1935 C   0  0  0  0  0  0  0  0  0  0  0  0
    2.5891   -0.1581    0.3191 C   0  0  0  0  0  0  0  0  0  0  0  0
    3.2400    0.2505   -0.8529 C   0  0  0  0  0  0  0  0  0  0  0  0
    3.8679   -0.6856   -1.6759 C   0  0  0  0  0  0  0  0  0  0  0  0
    3.8463   -2.0378   -1.3388 C   0  0  0  0  0  0  0  0  0  0  0  0
    3.1931   -2.4563   -0.1811 C   0  0  0  0  0  0  0  0  0  0  0  0
    2.5630   -1.5220    0.6421 C   0  0  0  0  0  0  0  0  0  0  0  0
   -2.4363    5.1537    2.1195 H   0  0  0  0  0  0  0  0  0  0  0  0
   -2.9628    4.8805    0.4457 H   0  0  0  0  0  0  0  0  0  0  0  0
   -3.8360    4.0987    1.8000 H   0  0  0  0  0  0  0  0  0  0  0  0
   -1.0979    0.7184   -2.1244 H   0  0  0  0  0  0  0  0  0  0  0  0
   -2.7839    0.8557   -1.6631 H   0  0  0  0  0  0  0  0  0  0  0  0
    0.0433   -1.3774   -1.7778 H   0  0  0  0  0  0  0  0  0  0  0  0
    0.0337   -3.6810   -0.9141 H   0  0  0  0  0  0  0  0  0  0  0  0
   -1.7744   -4.4444    0.6050 H   0  0  0  0  0  0  0  0  0  0  0  0
   -3.5850   -2.8797    1.2587 H   0  0  0  0  0  0  0  0  0  0  0  0
   -3.5987   -0.5653    0.4003 H   0  0  0  0  0  0  0  0  0  0  0  0
    1.9993    0.5648    2.2467 H   0  0  0  0  0  0  0  0  0  0  0  0
    2.3243    1.8466    1.0978 H   0  0  0  0  0  0  0  0  0  0  0  0
    3.2572    1.3026   -1.1327 H   0  0  0  0  0  0  0  0  0  0  0  0
    4.3736   -0.3587   -2.5809 H   0  0  0  0  0  0  0  0  0  0  0  0
    4.3370   -2.7655   -1.9797 H   0  0  0  0  0  0  0  0  0  0  0  0
    3.1703   -3.5111    0.0798 H   0  0  0  0  0  0  0  0  0  0  0  0
    2.0411   -1.8628    1.5342 H   0  0  0  0  0  0  0  0  0  0  0  0
  1  2  1  0
  2  3  2  0
  2  4  1  0
  4  5  2  3
  5  6  1  0
  6  7  1  0
  7  8  2  0
  8  9  1  0
  9 10  2  0
 10 11  1  0
 11 12  2  0
  5 13  1  0
 13 14  2  0
 13 15  1  0
 15 16  1  0
 16 17  1  0
 17 18  2  0
 18 19  1  0
 19 20  2  0
 20 21  1  0
 21 22  2  0
 12  7  1  0
 22 17  1  0
  1 23  1  0
  1 24  1  0
  1 25  1  0
  6 26  1  0
  6 27  1  0
  8 28  1  0
  9 29  1  0
 10 30  1  0
 11 31  1  0
 12 32  1  0
 16 33  1  0
 16 34  1  0
 18 35  1  0
 19 36  1  0
 20 37  1  0
 21 38  1  0
 22 39  1  0
M  END
$$$$
