
     RDKit          3D

 36 37  0  0  0  0  0  0  0  0999 V2000
   -0.6911    1.5577    2.5863 O   0  0  0  0  0  0  0  0  0  0  0  0
   -0.4205    0.8238    1.6456 C   0  0  0  0  0  0  0  0  0  0  0  0
   -1.4468    0.3075    0.7061 C   0  0  0  0  0  0  0  0  0  0  0  0
   -2.7092    0.7542    0.7884 C   0  0  0  0  0  0  0  0  0  0  0  0
   -3.7791    0.2900   -0.1077 C   0  0  0  0  0  0  0  0  0  0  0  0
   -4.0491   -1.0855   -0.2022 C   0  0  0  0  0  0  0  0  0  0  0  0
   -5.0730   -1.5594   -1.0265 C   0  0  0  0  0  0  0  0  0  0  0  0
   -5.8462   -0.6657   -1.7629 C   0  0  0  0  0  0  0  0  0  0  0  0
   -5.5988    0.7036   -1.6730 C   0  0  0  0  0  0  0  0  0  0  0  0
   -4.5748    1.1818   -0.8479 C   0  0  0  0  0  0  0  0  0  0  0  0
   -4.3231    2.8933   -0.7981 Cl  0  0  0  0  0  0  0  0  0  0  0  0
    0.8467    0.3953    1.3336 N   0  0  0  0  0  0  0  0  0  0  0  0
    2.0066    0.9463    2.0121 C   0  0  0  0  0  0  0  0  0  0  0  0
    3.2212    0.0157    1.9528 C   0  0  0  0  0  0  0  0  0  0  0  0
    3.6972   -0.2608    0.5449 C   0  0  0  0  0  0  0  0  0  0  0  0
    4.3123    0.7465   -0.2109 C   0  0  0  0  0  0  0  0  0  0  0  0
    4.7340    0.4930   -1.5169 C   0  0  0  0  0  0  0  0  0  0  0  0
    4.5475   -0.7684   -2.0789 C   0  0  0  0  0  0  0  0  0  0  0  0
    3.9410   -1.7785   -1.3350 C   0  0  0  0  0  0  0  0  0  0  0  0
    3.5179   -1.5272   -0.0290 C   0  0  0  0  0  0  0  0  0  0  0  0
   -1.1451   -0.4255   -0.0309 H   0  0  0  0  0  0  0  0  0  0  0  0
   -2.9885    1.5097    1.5212 H   0  0  0  0  0  0  0  0  0  0  0  0
   -3.4709   -1.8018    0.3784 H   0  0  0  0  0  0  0  0  0  0  0  0
   -5.2702   -2.6272   -1.0871 H   0  0  0  0  0  0  0  0  0  0  0  0
   -6.6445   -1.0336   -2.4030 H   0  0  0  0  0  0  0  0  0  0  0  0
   -6.2083    1.3965   -2.2479 H   0  0  0  0  0  0  0  0  0  0  0  0
    1.0048   -0.0222    0.4250 H   0  0  0  0  0  0  0  0  0  0  0  0
    2.2234    1.9135    1.5444 H   0  0  0  0  0  0  0  0  0  0  0  0
    1.7486    1.1402    3.0594 H   0  0  0  0  0  0  0  0  0  0  0  0
    4.0494    0.4587    2.5198 H   0  0  0  0  0  0  0  0  0  0  0  0
    2.9790   -0.9302    2.4537 H   0  0  0  0  0  0  0  0  0  0  0  0
    4.4690    1.7362    0.2128 H   0  0  0  0  0  0  0  0  0  0  0  0
    5.2109    1.2801   -2.0956 H   0  0  0  0  0  0  0  0  0  0  0  0
    4.8792   -0.9651   -3.0951 H   0  0  0  0  0  0  0  0  0  0  0  0
    3.8013   -2.7643   -1.7714 H   0  0  0  0  0  0  0  0  0  0  0  0
    3.0492   -2.3284    0.5386 H   0  0  0  0  0  0  0  0  0  0  0  0
  1  2  2  0
  2  3  1  0
  3  4  2  3
  4  5  1  0
  5  6  2  0
  6  7  1  0
  7  8  2  0
  8  9  1  0
  9 10  2  0
 10 11  1  0
  2 12  1  0
 12 13  1  0
 13 14  1  0
 14 15  1  0
 15 16  2  0
 16 17  1  0
 17 18  2  0
 18 19  1  0
 19 20  2  0
 10  5  1  0
 20 15  1  0
  3 21  1  0
  4 22  1  0
  6 23  1  0
  7 24  1  0
  8 25  1  0
  9 26  1  0
 12 27  1  0
 13 28  1  0
 13 29  1  0
 14 30  1  0
 14 31  1  0
 16 32  1  0
 17 33  1  0
 18 34  1  0
 19 35  1  0
 20 36  1  0
M  END
$$$$
