
     RDKit          3D

 67 72  0  0  0  0  0  0  0  0999 V2000
   -4.0013    5.1915    0.0339 C   0  0  0  0  0  0  0  0  0  0  0  0
   -3.3855    4.0189   -0.6606 C   0  0  0  0  0  0  0  0  0  0  0  0
   -3.5200    3.8427   -2.0462 C   0  0  0  0  0  0  0  0  0  0  0  0
   -2.9301    2.7469   -2.7043 C   0  0  0  0  0  0  0  0  0  0  0  0
   -2.1914    1.7988   -1.9942 C   0  0  0  0  0  0  0  0  0  0  0  0
   -2.0598    1.9648   -0.6247 C   0  0  0  0  0  0  0  0  0  0  0  0
   -2.6432    3.0647    0.0177 C   0  0  0  0  0  0  0  0  0  0  0  0
   -2.3456    3.0379    1.3785 N   0  0  0  0  0  0  0  0  0  0  0  0
   -1.5609    1.9312    1.7103 C   0  0  0  0  0  0  0  0  0  0  0  0
   -1.1340    1.6887    2.8302 O   0  0  0  0  0  0  0  0  0  0  0  0
   -1.3312    1.1425    0.3948 C   0  0  1  0  0  0  0  0  0  0  0  0
   -1.8803   -0.2384    0.4352 C   0  0  0  0  0  0  0  0  0  0  0  0
   -0.8371   -1.1737    0.5496 C   0  0  0  0  0  0  0  0  0  0  0  0
   -1.3697   -2.4345    0.5537 C   0  0  0  0  0  0  0  0  0  0  0  0
   -0.7756   -3.6175    0.6883 O   0  0  0  0  0  0  0  0  0  0  0  0
   -2.7716   -2.2908    0.4832 N   0  0  0  0  0  0  0  0  0  0  0  0
   -3.7329   -3.3485    0.5694 C   0  0  0  0  0  0  0  0  0  0  0  0
   -4.9751   -3.1254    1.1838 C   0  0  0  0  0  0  0  0  0  0  0  0
   -5.9175   -4.1536    1.2634 C   0  0  0  0  0  0  0  0  0  0  0  0
   -5.6270   -5.4102    0.7372 C   0  0  0  0  0  0  0  0  0  0  0  0
   -4.3905   -5.6439    0.1391 C   0  0  0  0  0  0  0  0  0  0  0  0
   -3.4428   -4.6200    0.0591 C   0  0  0  0  0  0  0  0  0  0  0  0
   -3.0660   -0.9164    0.3499 C   0  0  0  0  0  0  0  0  0  0  0  0
   -4.2807   -0.4188    0.1215 O   0  0  0  0  0  0  0  0  0  0  0  0
    0.4542   -0.4643    0.6686 C   0  0  1  0  0  0  0  0  0  0  0  0
    1.6717   -1.0047   -0.0706 C   0  0  0  0  0  0  0  0  0  0  0  0
    2.7861   -0.0429   -0.0123 N   0  0  0  0  0  0  0  0  0  0  0  0
    4.0682   -0.5353   -0.1898 C   0  0  0  0  0  0  0  0  0  0  0  0
    4.3351   -1.7303   -0.1916 O   0  0  0  0  0  0  0  0  0  0  0  0
    4.9788    0.4571   -0.3574 O   0  0  0  0  0  0  0  0  0  0  0  0
    6.3841    0.1591   -0.5572 C   0  0  0  0  0  0  0  0  0  0  0  0
    7.0546    1.5341   -0.7020 C   0  0  0  0  0  0  0  0  0  0  0  0
    6.9833   -0.5503    0.6620 C   0  0  0  0  0  0  0  0  0  0  0  0
    6.6086   -0.6318   -1.8507 C   0  0  0  0  0  0  0  0  0  0  0  0
    2.4564    1.3713   -0.2804 C   0  0  0  0  0  0  0  0  0  0  0  0
    1.1190    1.8423    0.3491 C   0  0  0  0  0  0  0  0  0  0  0  0
    0.0885    0.8570    0.0712 N   0  0  0  0  0  0  0  0  0  0  0  0
   -4.6438    4.8551    0.8542 H   0  0  0  0  0  0  0  0  0  0  0  0
   -4.6212    5.7817   -0.6491 H   0  0  0  0  0  0  0  0  0  0  0  0
   -3.2206    5.8474    0.4324 H   0  0  0  0  0  0  0  0  0  0  0  0
   -4.0886    4.5597   -2.6356 H   0  0  0  0  0  0  0  0  0  0  0  0
   -3.0531    2.6374   -3.7795 H   0  0  0  0  0  0  0  0  0  0  0  0
   -1.7355    0.9523   -2.4982 H   0  0  0  0  0  0  0  0  0  0  0  0
   -2.6480    3.7152    2.0607 H   0  0  0  0  0  0  0  0  0  0  0  0
    0.1748   -3.4703    0.8323 H   0  0  0  0  0  0  0  0  0  0  0  0
   -5.2114   -2.1752    1.6586 H   0  0  0  0  0  0  0  0  0  0  0  0
   -6.8725   -3.9781    1.7526 H   0  0  0  0  0  0  0  0  0  0  0  0
   -6.3588   -6.2111    0.8034 H   0  0  0  0  0  0  0  0  0  0  0  0
   -4.1599   -6.6257   -0.2667 H   0  0  0  0  0  0  0  0  0  0  0  0
   -2.4974   -4.8320   -0.4333 H   0  0  0  0  0  0  0  0  0  0  0  0
   -4.8297   -1.1146   -0.2828 H   0  0  0  0  0  0  0  0  0  0  0  0
    0.6898   -0.3445    1.7360 H   0  0  0  0  0  0  0  0  0  0  0  0
    1.9827   -1.9620    0.3627 H   0  0  0  0  0  0  0  0  0  0  0  0
    1.4527   -1.1881   -1.1306 H   0  0  0  0  0  0  0  0  0  0  0  0
    6.6253    2.0902   -1.5436 H   0  0  0  0  0  0  0  0  0  0  0  0
    6.8844    2.1464    0.1913 H   0  0  0  0  0  0  0  0  0  0  0  0
    8.1345    1.4461   -0.8604 H   0  0  0  0  0  0  0  0  0  0  0  0
    6.7346   -0.0142    1.5848 H   0  0  0  0  0  0  0  0  0  0  0  0
    6.5955   -1.5671    0.7759 H   0  0  0  0  0  0  0  0  0  0  0  0
    8.0735   -0.6234    0.5844 H   0  0  0  0  0  0  0  0  0  0  0  0
    7.6748   -0.7112   -2.0889 H   0  0  0  0  0  0  0  0  0  0  0  0
    6.0979   -0.1520   -2.6931 H   0  0  0  0  0  0  0  0  0  0  0  0
    6.2129   -1.6495   -1.7826 H   0  0  0  0  0  0  0  0  0  0  0  0
    3.2655    2.0172    0.0768 H   0  0  0  0  0  0  0  0  0  0  0  0
    2.4083    1.4772   -1.3716 H   0  0  0  0  0  0  0  0  0  0  0  0
    0.8572    2.8166   -0.0782 H   0  0  0  0  0  0  0  0  0  0  0  0
    1.2569    1.9782    1.4284 H   0  0  0  0  0  0  0  0  0  0  0  0
  1  2  1  0
  2  3  2  0
  3  4  1  0
  4  5  2  0
  5  6  1  0
  6  7  2  0
  7  8  1  0
  8  9  1  0
  9 10  2  0
  9 11  1  0
 11 12  1  0
 12 13  1  0
 13 14  2  0
 14 15  1  0
 14 16  1  0
 16 17  1  0
 17 18  2  0
 18 19  1  0
 19 20  2  0
 20 21  1  0
 21 22  2  0
 16 23  1  0
 23 24  1  0
 13 25  1  0
 25 26  1  0
 26 27  1  0
 27 28  1  0
 28 29  2  0
 28 30  1  0
 30 31  1  0
 31 32  1  0
 31 33  1  0
 31 34  1  0
 27 35  1  0
 35 36  1  0
 36 37  1  0
  7  2  1  0
 11 37  1  6
 11  6  1  0
 23 12  2  0
 37 25  1  0
 22 17  1  0
  1 38  1  0
  1 39  1  0
  1 40  1  0
  3 41  1  0
  4 42  1  0
  5 43  1  0
  8 44  1  0
 15 45  1  0
 18 46  1  0
 19 47  1  0
 20 48  1  0
 21 49  1  0
 22 50  1  0
 24 51  1  0
 25 52  1  1
 26 53  1  0
 26 54  1  0
 32 55  1  0
 32 56  1  0
 32 57  1  0
 33 58  1  0
 33 59  1  0
 33 60  1  0
 34 61  1  0
 34 62  1  0
 34 63  1  0
 35 64  1  0
 35 65  1  0
 36 66  1  0
 36 67  1  0
M  END
$$$$
