
     RDKit          3D

 61 67  0  0  0  0  0  0  0  0999 V2000
    2.9640    0.9076    3.1620 O   0  0  0  0  0  0  0  0  0  0  0  0
    3.0089    0.4106    2.0393 C   0  0  0  0  0  0  0  0  0  0  0  0
    4.3325    0.3103    1.3819 C   0  0  0  0  0  0  0  0  0  0  0  0
    5.1538    1.4571    1.3469 C   0  0  0  0  0  0  0  0  0  0  0  0
    6.4177    1.4031    0.7522 C   0  0  0  0  0  0  0  0  0  0  0  0
    6.8248    0.1955    0.2259 C   0  0  0  0  0  0  0  0  0  0  0  0
    6.0310   -0.9280    0.2820 C   0  0  0  0  0  0  0  0  0  0  0  0
    4.7806   -0.9102    0.8608 C   0  0  0  0  0  0  0  0  0  0  0  0
    6.6262   -2.0113   -0.2850 O   0  0  0  0  0  0  0  0  0  0  0  0
    7.8937   -1.4482   -0.6853 C   0  0  0  0  0  0  0  0  0  0  0  0
    8.0162   -0.0425   -0.3843 O   0  0  0  0  0  0  0  0  0  0  0  0
    1.8780   -0.0528    1.3647 N   0  0  0  0  0  0  0  0  0  0  0  0
    0.6143   -0.0522    2.0898 C   0  0  0  0  0  0  0  0  0  0  0  0
   -0.3893   -1.0381    1.5016 C   0  0  0  0  0  0  0  0  0  0  0  0
   -0.6503   -0.8344   -0.0223 C   0  0  0  0  0  0  0  0  0  0  0  0
    0.4475    0.0663   -0.6452 C   0  0  0  0  0  0  0  0  0  0  0  0
    1.8240   -0.2731   -0.0798 C   0  0  0  0  0  0  0  0  0  0  0  0
   -0.4850   -2.1751   -0.5731 O   0  0  0  0  0  0  0  0  0  0  0  0
   -1.0326   -2.4411   -1.7937 C   0  0  0  0  0  0  0  0  0  0  0  0
   -0.6559   -3.6479   -2.3852 C   0  0  0  0  0  0  0  0  0  0  0  0
   -1.1439   -3.9885   -3.6481 C   0  0  0  0  0  0  0  0  0  0  0  0
   -2.0064   -3.1199   -4.3102 C   0  0  0  0  0  0  0  0  0  0  0  0
   -2.4660   -3.4484   -5.5239 F   0  0  0  0  0  0  0  0  0  0  0  0
   -2.3992   -1.9210   -3.7308 C   0  0  0  0  0  0  0  0  0  0  0  0
   -1.9149   -1.5958   -2.4620 C   0  0  0  0  0  0  0  0  0  0  0  0
   -2.3212   -0.3484   -1.8027 C   0  0  0  0  0  0  0  0  0  0  0  0
   -2.7968    0.5684   -2.4663 O   0  0  0  0  0  0  0  0  0  0  0  0
   -2.0827   -0.2938   -0.2990 C   0  0  0  0  0  0  0  0  0  0  0  0
   -2.3802    1.0856    0.2666 C   0  0  0  0  0  0  0  0  0  0  0  0
   -3.7984    0.8649    0.6727 C   0  0  0  0  0  0  0  0  0  0  0  0
   -4.6985    1.9855    1.0329 C   0  0  0  0  0  0  0  0  0  0  0  0
   -4.2354    3.3043    1.1033 C   0  0  0  0  0  0  0  0  0  0  0  0
   -5.1117    4.3356    1.4525 C   0  0  0  0  0  0  0  0  0  0  0  0
   -6.4484    4.0552    1.7331 C   0  0  0  0  0  0  0  0  0  0  0  0
   -6.9139    2.7434    1.6664 C   0  0  0  0  0  0  0  0  0  0  0  0
   -6.0418    1.7102    1.3182 C   0  0  0  0  0  0  0  0  0  0  0  0
   -4.1600   -0.3782    0.7188 N   0  0  0  0  0  0  0  0  0  0  0  0
   -3.0570   -1.1588    0.3103 O   0  0  0  0  0  0  0  0  0  0  0  0
    4.8026    2.3873    1.7896 H   0  0  0  0  0  0  0  0  0  0  0  0
    7.0598    2.2761    0.7140 H   0  0  0  0  0  0  0  0  0  0  0  0
    4.1824   -1.8114    0.9202 H   0  0  0  0  0  0  0  0  0  0  0  0
    8.0125   -1.5871   -1.7660 H   0  0  0  0  0  0  0  0  0  0  0  0
    8.6965   -1.9889   -0.1704 H   0  0  0  0  0  0  0  0  0  0  0  0
    0.7976   -0.2995    3.1419 H   0  0  0  0  0  0  0  0  0  0  0  0
    0.2250    0.9714    2.0674 H   0  0  0  0  0  0  0  0  0  0  0  0
   -1.3177   -0.9740    2.0799 H   0  0  0  0  0  0  0  0  0  0  0  0
   -0.0063   -2.0526    1.6798 H   0  0  0  0  0  0  0  0  0  0  0  0
    0.4889   -0.0562   -1.7333 H   0  0  0  0  0  0  0  0  0  0  0  0
    0.2367    1.1245   -0.4483 H   0  0  0  0  0  0  0  0  0  0  0  0
    2.0668   -1.3251   -0.2652 H   0  0  0  0  0  0  0  0  0  0  0  0
    2.5790    0.3431   -0.5785 H   0  0  0  0  0  0  0  0  0  0  0  0
    0.0214   -4.3218   -1.8658 H   0  0  0  0  0  0  0  0  0  0  0  0
   -0.8567   -4.9234   -4.1199 H   0  0  0  0  0  0  0  0  0  0  0  0
   -3.0809   -1.2622   -4.2605 H   0  0  0  0  0  0  0  0  0  0  0  0
   -1.8119    1.3153    1.1705 H   0  0  0  0  0  0  0  0  0  0  0  0
   -2.2644    1.8992   -0.4526 H   0  0  0  0  0  0  0  0  0  0  0  0
   -3.2006    3.5572    0.8954 H   0  0  0  0  0  0  0  0  0  0  0  0
   -4.7514    5.3603    1.5063 H   0  0  0  0  0  0  0  0  0  0  0  0
   -7.1282    4.8593    2.0040 H   0  0  0  0  0  0  0  0  0  0  0  0
   -7.9557    2.5224    1.8848 H   0  0  0  0  0  0  0  0  0  0  0  0
   -6.4190    0.6904    1.2694 H   0  0  0  0  0  0  0  0  0  0  0  0
  1  2  2  0
  2  3  1  0
  3  4  2  0
  4  5  1  0
  5  6  2  0
  6  7  1  0
  7  8  2  0
  7  9  1  0
  9 10  1  0
 10 11  1  0
  2 12  1  0
 12 13  1  0
 13 14  1  0
 14 15  1  0
 15 16  1  0
 16 17  1  0
 15 18  1  0
 18 19  1  0
 19 20  2  0
 20 21  1  0
 21 22  2  0
 22 23  1  0
 22 24  1  0
 24 25  2  0
 25 26  1  0
 26 27  2  0
 26 28  1  0
 28 29  1  0
 29 30  1  0
 30 31  1  0
 31 32  2  0
 32 33  1  0
 33 34  2  0
 34 35  1  0
 35 36  2  0
 30 37  2  0
 37 38  1  0
  8  3  1  0
 17 12  1  0
 25 19  1  0
 38 28  1  0
 11  6  1  0
 28 15  1  0
 36 31  1  0
  4 39  1  0
  5 40  1  0
  8 41  1  0
 10 42  1  0
 10 43  1  0
 13 44  1  0
 13 45  1  0
 14 46  1  0
 14 47  1  0
 16 48  1  0
 16 49  1  0
 17 50  1  0
 17 51  1  0
 20 52  1  0
 21 53  1  0
 24 54  1  0
 29 55  1  0
 29 56  1  0
 32 57  1  0
 33 58  1  0
 34 59  1  0
 35 60  1  0
 36 61  1  0
M  END
$$$$
