
     RDKit          3D

 50 53  0  0  0  0  0  0  0  0999 V2000
   -6.1242   -0.0668   -1.3076 C   0  0  0  0  0  0  0  0  0  0  0  0
   -4.9722   -0.6202   -1.9855 N   0  0  0  0  0  0  0  0  0  0  0  0
   -4.9349   -1.8800   -2.5255 C   0  0  0  0  0  0  0  0  0  0  0  0
   -3.7259   -2.0402   -3.1613 C   0  0  0  0  0  0  0  0  0  0  0  0
   -3.0007   -0.8417   -2.9840 C   0  0  0  0  0  0  0  0  0  0  0  0
   -3.7744    0.0217   -2.2230 C   0  0  0  0  0  0  0  0  0  0  0  0
   -3.4590    1.4102   -1.7401 C   0  0  0  0  0  0  0  0  0  0  0  0
   -2.0450    1.5689   -1.2732 C   0  0  0  0  0  0  0  0  0  0  0  0
   -1.1475    2.3332   -1.8690 N   0  0  0  0  0  0  0  0  0  0  0  0
    0.0691    2.0949   -1.2967 N   0  0  0  0  0  0  0  0  0  0  0  0
   -0.0977    1.1998   -0.3511 C   0  0  0  0  0  0  0  0  0  0  0  0
    1.1624    0.6777    0.7207 S   0  0  0  0  0  0  0  0  0  0  0  0
    2.3844    1.9936    0.4487 C   0  0  0  0  0  0  0  0  0  0  0  0
    3.6296    1.6925    1.2663 C   0  0  0  0  0  0  0  0  0  0  0  0
    3.7887    2.1900    2.3774 O   0  0  0  0  0  0  0  0  0  0  0  0
    4.4983    0.8266    0.6172 N   0  0  0  0  0  0  0  0  0  0  0  0
    5.7391    0.3433    1.0800 C   0  0  0  0  0  0  0  0  0  0  0  0
    6.3080    0.6944    2.3053 C   0  0  0  0  0  0  0  0  0  0  0  0
    7.5460    0.1678    2.6890 C   0  0  0  0  0  0  0  0  0  0  0  0
    8.2260   -0.7125    1.8511 C   0  0  0  0  0  0  0  0  0  0  0  0
    7.6683   -1.0685    0.6266 C   0  0  0  0  0  0  0  0  0  0  0  0
    6.4311   -0.5432    0.2435 C   0  0  0  0  0  0  0  0  0  0  0  0
   -1.4328    0.8444   -0.2540 N   0  0  0  0  0  0  0  0  0  0  0  0
   -2.0512   -0.0435    0.6652 C   0  0  0  0  0  0  0  0  0  0  0  0
   -3.2265    0.3446    1.3248 C   0  0  0  0  0  0  0  0  0  0  0  0
   -3.8390   -0.5301    2.2248 C   0  0  0  0  0  0  0  0  0  0  0  0
   -3.2808   -1.7818    2.4567 C   0  0  0  0  0  0  0  0  0  0  0  0
   -3.8749   -2.6182    3.3175 F   0  0  0  0  0  0  0  0  0  0  0  0
   -2.1147   -2.1758    1.8115 C   0  0  0  0  0  0  0  0  0  0  0  0
   -1.4926   -1.3054    0.9138 C   0  0  0  0  0  0  0  0  0  0  0  0
   -5.8710    0.0811   -0.2562 H   0  0  0  0  0  0  0  0  0  0  0  0
   -6.9662   -0.7590   -1.3913 H   0  0  0  0  0  0  0  0  0  0  0  0
   -6.3841    0.8825   -1.7831 H   0  0  0  0  0  0  0  0  0  0  0  0
   -5.7739   -2.5573   -2.4326 H   0  0  0  0  0  0  0  0  0  0  0  0
   -3.4046   -2.9227   -3.6984 H   0  0  0  0  0  0  0  0  0  0  0  0
   -2.0086   -0.6291   -3.3645 H   0  0  0  0  0  0  0  0  0  0  0  0
   -4.1451    1.7353   -0.9536 H   0  0  0  0  0  0  0  0  0  0  0  0
   -3.6263    2.0974   -2.5802 H   0  0  0  0  0  0  0  0  0  0  0  0
    1.9805    2.9601    0.7671 H   0  0  0  0  0  0  0  0  0  0  0  0
    2.6519    2.0678   -0.6106 H   0  0  0  0  0  0  0  0  0  0  0  0
    4.1960    0.4718   -0.2821 H   0  0  0  0  0  0  0  0  0  0  0  0
    5.8153    1.3765    2.9907 H   0  0  0  0  0  0  0  0  0  0  0  0
    7.9756    0.4496    3.6472 H   0  0  0  0  0  0  0  0  0  0  0  0
    9.1874   -1.1190    2.1532 H   0  0  0  0  0  0  0  0  0  0  0  0
    8.1943   -1.7552   -0.0312 H   0  0  0  0  0  0  0  0  0  0  0  0
    6.0197   -0.8388   -0.7180 H   0  0  0  0  0  0  0  0  0  0  0  0
   -3.6543    1.3347    1.1924 H   0  0  0  0  0  0  0  0  0  0  0  0
   -4.7410   -0.2414    2.7556 H   0  0  0  0  0  0  0  0  0  0  0  0
   -1.7005   -3.1604    2.0053 H   0  0  0  0  0  0  0  0  0  0  0  0
   -0.6022   -1.6492    0.3930 H   0  0  0  0  0  0  0  0  0  0  0  0
  1  2  1  0
  2  3  1  0
  3  4  2  0
  4  5  1  0
  5  6  2  0
  6  7  1  0
  7  8  1  0
  8  9  2  0
  9 10  1  0
 10 11  2  0
 11 12  1  0
 12 13  1  0
 13 14  1  0
 14 15  2  0
 14 16  1  0
 16 17  1  0
 17 18  2  0
 18 19  1  0
 19 20  2  0
 20 21  1  0
 21 22  2  0
 11 23  1  0
 23 24  1  0
 24 25  2  0
 25 26  1  0
 26 27  2  0
 27 28  1  0
 27 29  1  0
 29 30  2  0
  6  2  1  0
 23  8  1  0
 30 24  1  0
 22 17  1  0
  1 31  1  0
  1 32  1  0
  1 33  1  0
  3 34  1  0
  4 35  1  0
  5 36  1  0
  7 37  1  0
  7 38  1  0
 13 39  1  0
 13 40  1  0
 16 41  1  0
 18 42  1  0
 19 43  1  0
 20 44  1  0
 21 45  1  0
 22 46  1  0
 25 47  1  0
 26 48  1  0
 29 49  1  0
 30 50  1  0
M  END
$$$$
