
     RDKit          3D

 57 59  0  0  0  0  0  0  0  0999 V2000
    9.3870   -0.9604    0.4080 C   0  0  0  0  0  0  0  0  0  0  0  0
    7.9196   -0.6598    0.2714 C   0  0  0  0  0  0  0  0  0  0  0  0
    7.1076   -1.5195   -0.4846 C   0  0  0  0  0  0  0  0  0  0  0  0
    5.7393   -1.2725   -0.6377 C   0  0  0  0  0  0  0  0  0  0  0  0
    5.1616   -0.1596   -0.0339 C   0  0  0  0  0  0  0  0  0  0  0  0
    3.8430    0.1979   -0.0928 O   0  0  0  0  0  0  0  0  0  0  0  0
    2.9672   -0.6670   -0.8130 C   0  0  0  0  0  0  0  0  0  0  0  0
    1.6001   -0.1141   -0.6659 C   0  0  0  0  0  0  0  0  0  0  0  0
    0.9359    0.5643    0.3259 C   0  0  0  0  0  0  0  0  0  0  0  0
   -0.3686    0.7682   -0.1864 C   0  0  0  0  0  0  0  0  0  0  0  0
   -1.4921    1.4248    0.4857 C   0  0  0  0  0  0  0  0  0  0  0  0
   -1.4226    1.8271    1.6437 O   0  0  0  0  0  0  0  0  0  0  0  0
   -2.6284    1.5256   -0.2850 N   0  0  0  0  0  0  0  0  0  0  0  0
   -3.8943    2.0105    0.2200 C   0  0  0  0  0  0  0  0  0  0  0  0
   -4.8972    0.9122    0.7355 C   0  0  0  0  0  0  0  0  0  0  0  0
   -6.1305    1.7233    1.2294 C   0  0  0  0  0  0  0  0  0  0  0  0
   -4.3216    0.1998    1.9808 C   0  0  0  0  0  0  0  0  0  0  0  0
   -5.2408   -0.0219   -0.3925 N   0  0  0  0  0  0  0  0  0  0  0  0
   -6.6230   -0.5595   -0.3702 C   0  0  0  0  0  0  0  0  0  0  0  0
   -6.9223   -1.4351   -1.6033 C   0  0  0  0  0  0  0  0  0  0  0  0
   -5.9970   -2.5201   -1.7227 O   0  0  0  0  0  0  0  0  0  0  0  0
   -4.6596   -2.0100   -1.7971 C   0  0  0  0  0  0  0  0  0  0  0  0
   -4.3216   -1.1805   -0.5463 C   0  0  0  0  0  0  0  0  0  0  0  0
   -0.4826    0.2390   -1.4190 N   0  0  0  0  0  0  0  0  0  0  0  0
    0.7525   -0.3120   -1.7104 O   0  0  0  0  0  0  0  0  0  0  0  0
    5.9663    0.7061    0.7130 C   0  0  0  0  0  0  0  0  0  0  0  0
    7.3433    0.4761    0.8692 C   0  0  0  0  0  0  0  0  0  0  0  0
    8.1623    1.4409    1.6815 C   0  0  0  0  0  0  0  0  0  0  0  0
    9.9789   -0.1944   -0.1020 H   0  0  0  0  0  0  0  0  0  0  0  0
    9.6412   -1.9289   -0.0345 H   0  0  0  0  0  0  0  0  0  0  0  0
    9.6730   -1.0001    1.4633 H   0  0  0  0  0  0  0  0  0  0  0  0
    7.5384   -2.3961   -0.9644 H   0  0  0  0  0  0  0  0  0  0  0  0
    5.1627   -1.9708   -1.2357 H   0  0  0  0  0  0  0  0  0  0  0  0
    2.9859   -1.6778   -0.3878 H   0  0  0  0  0  0  0  0  0  0  0  0
    3.2495   -0.6938   -1.8722 H   0  0  0  0  0  0  0  0  0  0  0  0
    1.3255    0.8700    1.2857 H   0  0  0  0  0  0  0  0  0  0  0  0
   -2.5959    1.1313   -1.2193 H   0  0  0  0  0  0  0  0  0  0  0  0
   -4.3537    2.5675   -0.6063 H   0  0  0  0  0  0  0  0  0  0  0  0
   -3.6905    2.7340    1.0195 H   0  0  0  0  0  0  0  0  0  0  0  0
   -6.8804    1.0822    1.7065 H   0  0  0  0  0  0  0  0  0  0  0  0
   -5.8362    2.4687    1.9793 H   0  0  0  0  0  0  0  0  0  0  0  0
   -6.6084    2.2688    0.4073 H   0  0  0  0  0  0  0  0  0  0  0  0
   -3.3805   -0.3206    1.7753 H   0  0  0  0  0  0  0  0  0  0  0  0
   -4.1157    0.9193    2.7831 H   0  0  0  0  0  0  0  0  0  0  0  0
   -5.0319   -0.5353    2.3769 H   0  0  0  0  0  0  0  0  0  0  0  0
   -6.7735   -1.1551    0.5406 H   0  0  0  0  0  0  0  0  0  0  0  0
   -7.3623    0.2487   -0.3831 H   0  0  0  0  0  0  0  0  0  0  0  0
   -7.9259   -1.8639   -1.5151 H   0  0  0  0  0  0  0  0  0  0  0  0
   -6.8983   -0.8391   -2.5241 H   0  0  0  0  0  0  0  0  0  0  0  0
   -4.5428   -1.4182   -2.7152 H   0  0  0  0  0  0  0  0  0  0  0  0
   -3.9811   -2.8677   -1.8666 H   0  0  0  0  0  0  0  0  0  0  0  0
   -4.3992   -1.8417    0.3261 H   0  0  0  0  0  0  0  0  0  0  0  0
   -3.2807   -0.8649   -0.6339 H   0  0  0  0  0  0  0  0  0  0  0  0
    5.5060    1.5762    1.1772 H   0  0  0  0  0  0  0  0  0  0  0  0
    9.0111    1.8093    1.0964 H   0  0  0  0  0  0  0  0  0  0  0  0
    7.5725    2.3132    1.9831 H   0  0  0  0  0  0  0  0  0  0  0  0
    8.5290    0.9553    2.5916 H   0  0  0  0  0  0  0  0  0  0  0  0
  1  2  1  0
  2  3  2  0
  3  4  1  0
  4  5  2  0
  5  6  1  0
  6  7  1  0
  7  8  1  0
  8  9  2  0
  9 10  1  0
 10 11  1  0
 11 12  2  0
 11 13  1  0
 13 14  1  0
 14 15  1  0
 15 16  1  0
 15 17  1  0
 15 18  1  0
 18 19  1  0
 19 20  1  0
 20 21  1  0
 21 22  1  0
 22 23  1  0
 10 24  2  0
 24 25  1  0
  5 26  1  0
 26 27  2  0
 27 28  1  0
 27  2  1  0
 25  8  1  0
 23 18  1  0
  1 29  1  0
  1 30  1  0
  1 31  1  0
  3 32  1  0
  4 33  1  0
  7 34  1  0
  7 35  1  0
  9 36  1  0
 13 37  1  0
 14 38  1  0
 14 39  1  0
 16 40  1  0
 16 41  1  0
 16 42  1  0
 17 43  1  0
 17 44  1  0
 17 45  1  0
 19 46  1  0
 19 47  1  0
 20 48  1  0
 20 49  1  0
 22 50  1  0
 22 51  1  0
 23 52  1  0
 23 53  1  0
 26 54  1  0
 28 55  1  0
 28 56  1  0
 28 57  1  0
M  END
$$$$
