
     RDKit          3D

 50 53  0  0  0  0  0  0  0  0999 V2000
    8.9339   -0.2282    1.3948 C   0  0  0  0  0  0  0  0  0  0  0  0
    7.4379   -0.1334    1.6329 C   0  0  0  0  0  0  0  0  0  0  0  0
    6.7937   -0.0729    0.3600 O   0  0  0  0  0  0  0  0  0  0  0  0
    5.4286   -0.0467    0.3320 C   0  0  0  0  0  0  0  0  0  0  0  0
    4.6130    0.0691    1.4596 C   0  0  0  0  0  0  0  0  0  0  0  0
    3.2187    0.1374    1.3250 C   0  0  0  0  0  0  0  0  0  0  0  0
    2.6142    0.1035    0.0616 C   0  0  0  0  0  0  0  0  0  0  0  0
    1.1290    0.1902   -0.0149 C   0  0  0  0  0  0  0  0  0  0  0  0
    0.4834   -0.3221    0.8906 O   0  0  0  0  0  0  0  0  0  0  0  0
    0.6346    0.8755   -1.1097 N   0  0  0  0  0  0  0  0  0  0  0  0
   -0.7207    1.1326   -1.4155 C   0  0  0  0  0  0  0  0  0  0  0  0
   -0.9832    1.8795   -2.5718 C   0  0  0  0  0  0  0  0  0  0  0  0
   -2.2946    2.1875   -2.9418 C   0  0  0  0  0  0  0  0  0  0  0  0
   -3.3603    1.7546   -2.1559 C   0  0  0  0  0  0  0  0  0  0  0  0
   -3.1156    1.0106   -0.9971 C   0  0  0  0  0  0  0  0  0  0  0  0
   -4.2336    0.5472   -0.1603 C   0  0  0  0  0  0  0  0  0  0  0  0
   -4.7715   -0.6549   -0.4232 C   0  0  0  0  0  0  0  0  0  0  0  0
   -5.8610   -1.1637    0.3927 C   0  0  0  0  0  0  0  0  0  0  0  0
   -6.4588   -2.4021    0.1459 C   0  0  0  0  0  0  0  0  0  0  0  0
   -7.4961   -2.8542    0.9682 C   0  0  0  0  0  0  0  0  0  0  0  0
   -7.9354   -2.0754    2.0423 C   0  0  0  0  0  0  0  0  0  0  0  0
   -7.3405   -0.8412    2.2956 C   0  0  0  0  0  0  0  0  0  0  0  0
   -6.3135   -0.4004    1.4649 C   0  0  0  0  0  0  0  0  0  0  0  0
   -5.7482    0.8572    1.7465 O   0  0  0  0  0  0  0  0  0  0  0  0
   -4.7357    1.3954    0.9578 C   0  0  0  0  0  0  0  0  0  0  0  0
   -4.2923    2.5171    1.1786 O   0  0  0  0  0  0  0  0  0  0  0  0
   -1.7949    0.6958   -0.6369 C   0  0  0  0  0  0  0  0  0  0  0  0
    3.4089   -0.0375   -1.0759 C   0  0  0  0  0  0  0  0  0  0  0  0
    4.8014   -0.1118   -0.9199 C   0  0  0  0  0  0  0  0  0  0  0  0
    5.5977   -0.2541   -2.1238 N   0  0  0  0  0  4  0  0  0  0  0  0
    6.2741   -1.2831   -2.2483 O   0  0  0  0  0  0  0  0  0  0  0  0
    5.4842    0.6448   -2.9698 O   0  0  0  0  0  1  0  0  0  0  0  0
    9.2866    0.6287    0.8105 H   0  0  0  0  0  0  0  0  0  0  0  0
    9.1767   -1.1293    0.8203 H   0  0  0  0  0  0  0  0  0  0  0  0
    9.4786   -0.2585    2.3434 H   0  0  0  0  0  0  0  0  0  0  0  0
    7.2235    0.7725    2.2086 H   0  0  0  0  0  0  0  0  0  0  0  0
    7.1054   -1.0200    2.1851 H   0  0  0  0  0  0  0  0  0  0  0  0
    5.0233    0.1192    2.4641 H   0  0  0  0  0  0  0  0  0  0  0  0
    2.5999    0.2252    2.2187 H   0  0  0  0  0  0  0  0  0  0  0  0
    1.3025    1.3160   -1.7283 H   0  0  0  0  0  0  0  0  0  0  0  0
   -0.1721    2.2370   -3.2011 H   0  0  0  0  0  0  0  0  0  0  0  0
   -2.4841    2.7722   -3.8388 H   0  0  0  0  0  0  0  0  0  0  0  0
   -4.3772    2.0092   -2.4460 H   0  0  0  0  0  0  0  0  0  0  0  0
   -4.4055   -1.2775   -1.2350 H   0  0  0  0  0  0  0  0  0  0  0  0
   -6.1241   -3.0273   -0.6781 H   0  0  0  0  0  0  0  0  0  0  0  0
   -7.9569   -3.8212    0.7758 H   0  0  0  0  0  0  0  0  0  0  0  0
   -8.7371   -2.4347    2.6821 H   0  0  0  0  0  0  0  0  0  0  0  0
   -7.6726   -0.2297    3.1310 H   0  0  0  0  0  0  0  0  0  0  0  0
   -1.6332    0.1189    0.2688 H   0  0  0  0  0  0  0  0  0  0  0  0
    2.9691   -0.1170   -2.0654 H   0  0  0  0  0  0  0  0  0  0  0  0
  1  2  1  0
  2  3  1  0
  3  4  1  0
  4  5  2  0
  5  6  1  0
  6  7  2  0
  7  8  1  0
  8  9  2  0
  8 10  1  0
 10 11  1  0
 11 12  2  0
 12 13  1  0
 13 14  2  0
 14 15  1  0
 15 16  1  0
 16 17  2  0
 17 18  1  0
 18 19  2  0
 19 20  1  0
 20 21  2  0
 21 22  1  0
 22 23  2  0
 23 24  1  0
 24 25  1  0
 25 26  2  0
 15 27  2  0
  7 28  1  0
 28 29  2  0
 29 30  1  0
 30 31  2  0
 30 32  1  0
 29  4  1  0
 27 11  1  0
 25 16  1  0
 23 18  1  0
  1 33  1  0
  1 34  1  0
  1 35  1  0
  2 36  1  0
  2 37  1  0
  5 38  1  0
  6 39  1  0
 10 40  1  0
 12 41  1  0
 13 42  1  0
 14 43  1  0
 17 44  1  0
 19 45  1  0
 20 46  1  0
 21 47  1  0
 22 48  1  0
 27 49  1  0
 28 50  1  0
M  CHG  2  30   1  32  -1
M  END
$$$$
