
     RDKit          3D

 59 61  0  0  0  0  0  0  0  0999 V2000
   -6.7541    1.4156   -4.6054 C   0  0  0  0  0  0  0  0  0  0  0  0
   -6.5923    0.3383   -3.5475 C   0  0  0  0  0  0  0  0  0  0  0  0
   -6.0468    0.8906   -2.3525 O   0  0  0  0  0  0  0  0  0  0  0  0
   -4.6936    0.8355   -2.1357 C   0  0  0  0  0  0  0  0  0  0  0  0
   -3.7440    0.5470   -3.1224 C   0  0  0  0  0  0  0  0  0  0  0  0
   -2.3866    0.5333   -2.7981 C   0  0  0  0  0  0  0  0  0  0  0  0
   -1.4408    0.2362   -3.7766 N   0  0  0  0  0  0  0  0  0  0  0  0
   -0.0894    0.2130   -3.5593 C   0  0  0  0  0  0  0  0  0  0  0  0
    0.8599   -0.1958   -4.8806 S   0  0  0  0  0  0  0  0  0  0  0  0
    0.3475    0.5247   -2.2734 N   0  0  0  0  0  0  0  0  0  0  0  0
    1.7793    0.5458   -1.9222 C   0  0  0  0  0  0  0  0  0  0  0  0
    2.2492   -0.8003   -1.3756 C   0  0  0  0  0  0  0  0  0  0  0  0
    3.7176   -0.7580   -1.0175 C   0  0  0  0  0  0  0  0  0  0  0  0
    4.4335    0.2174   -1.2142 O   0  0  0  0  0  0  0  0  0  0  0  0
    4.1676   -1.9367   -0.4640 N   0  0  0  0  0  0  0  0  0  0  0  0
    5.5077   -2.0652    0.0637 C   0  0  0  0  0  0  0  0  0  0  0  0
    5.5076   -1.8983    1.5612 C   0  0  0  0  0  0  0  0  0  0  0  0
    5.5189   -3.0117    2.4090 C   0  0  0  0  0  0  0  0  0  0  0  0
    5.4932   -2.8412    3.7957 C   0  0  0  0  0  0  0  0  0  0  0  0
    5.4483   -1.5635    4.3584 C   0  0  0  0  0  0  0  0  0  0  0  0
    5.4243   -1.5415    5.7259 O   0  0  0  0  0  0  0  0  0  0  0  0
    5.3622   -0.2627    6.3447 C   0  0  0  0  0  0  0  0  0  0  0  0
    5.4302   -0.4507    3.5186 C   0  0  0  0  0  0  0  0  0  0  0  0
    5.4577   -0.6180    2.1297 C   0  0  0  0  0  0  0  0  0  0  0  0
   -0.5285    0.7782   -1.2064 C   0  0  0  0  0  0  0  0  0  0  0  0
   -0.1635    0.9537   -0.0454 O   0  0  0  0  0  0  0  0  0  0  0  0
   -1.9713    0.8089   -1.5061 C   0  0  0  0  0  0  0  0  0  0  0  0
   -2.9074    1.1065   -0.5103 C   0  0  0  0  0  0  0  0  0  0  0  0
   -4.2704    1.1252   -0.8195 C   0  0  0  0  0  0  0  0  0  0  0  0
   -5.2657    1.4035    0.0839 O   0  0  0  0  0  0  0  0  0  0  0  0
   -4.8851    1.7283    1.4189 C   0  0  0  0  0  0  0  0  0  0  0  0
   -6.1497    2.0117    2.2097 C   0  0  0  0  0  0  0  0  0  0  0  0
   -5.7896    1.8482   -4.8873 H   0  0  0  0  0  0  0  0  0  0  0  0
   -7.2301    1.0087   -5.5020 H   0  0  0  0  0  0  0  0  0  0  0  0
   -7.3692    2.2373   -4.2233 H   0  0  0  0  0  0  0  0  0  0  0  0
   -6.0257   -0.5250   -3.9135 H   0  0  0  0  0  0  0  0  0  0  0  0
   -7.5863   -0.0435   -3.2878 H   0  0  0  0  0  0  0  0  0  0  0  0
   -4.0407    0.3463   -4.1450 H   0  0  0  0  0  0  0  0  0  0  0  0
   -1.7442    0.0231   -4.7208 H   0  0  0  0  0  0  0  0  0  0  0  0
    2.3780    0.8408   -2.7900 H   0  0  0  0  0  0  0  0  0  0  0  0
    1.9468    1.3279   -1.1702 H   0  0  0  0  0  0  0  0  0  0  0  0
    1.6789   -1.0676   -0.4785 H   0  0  0  0  0  0  0  0  0  0  0  0
    2.0957   -1.5921   -2.1173 H   0  0  0  0  0  0  0  0  0  0  0  0
    3.4870   -2.6205   -0.1613 H   0  0  0  0  0  0  0  0  0  0  0  0
    6.1828   -1.3370   -0.3996 H   0  0  0  0  0  0  0  0  0  0  0  0
    5.8685   -3.0628   -0.2099 H   0  0  0  0  0  0  0  0  0  0  0  0
    5.5496   -4.0192    2.0013 H   0  0  0  0  0  0  0  0  0  0  0  0
    5.5063   -3.7128    4.4457 H   0  0  0  0  0  0  0  0  0  0  0  0
    5.3466   -0.4162    7.4281 H   0  0  0  0  0  0  0  0  0  0  0  0
    4.4426    0.2643    6.0701 H   0  0  0  0  0  0  0  0  0  0  0  0
    6.2478    0.3352    6.1061 H   0  0  0  0  0  0  0  0  0  0  0  0
    5.3921    0.5615    3.9070 H   0  0  0  0  0  0  0  0  0  0  0  0
    5.4353    0.2616    1.4868 H   0  0  0  0  0  0  0  0  0  0  0  0
   -2.5469    1.3187    0.4913 H   0  0  0  0  0  0  0  0  0  0  0  0
   -4.2505    2.6220    1.4276 H   0  0  0  0  0  0  0  0  0  0  0  0
   -4.3577    0.8851    1.8795 H   0  0  0  0  0  0  0  0  0  0  0  0
   -5.9125    2.2670    3.2462 H   0  0  0  0  0  0  0  0  0  0  0  0
   -6.7080    2.8396    1.7602 H   0  0  0  0  0  0  0  0  0  0  0  0
   -6.8123    1.1397    2.2028 H   0  0  0  0  0  0  0  0  0  0  0  0
  1  2  1  0
  2  3  1  0
  3  4  1  0
  4  5  2  0
  5  6  1  0
  6  7  1  0
  7  8  1  0
  8  9  2  0
  8 10  1  0
 10 11  1  0
 11 12  1  0
 12 13  1  0
 13 14  2  0
 13 15  1  0
 15 16  1  0
 16 17  1  0
 17 18  2  0
 18 19  1  0
 19 20  2  0
 20 21  1  0
 21 22  1  0
 20 23  1  0
 23 24  2  0
 10 25  1  0
 25 26  2  0
 25 27  1  0
 27 28  1  0
 28 29  2  0
 29 30  1  0
 30 31  1  0
 31 32  1  0
 29  4  1  0
 27  6  2  0
 24 17  1  0
  1 33  1  0
  1 34  1  0
  1 35  1  0
  2 36  1  0
  2 37  1  0
  5 38  1  0
  7 39  1  0
 11 40  1  0
 11 41  1  0
 12 42  1  0
 12 43  1  0
 15 44  1  0
 16 45  1  0
 16 46  1  0
 18 47  1  0
 19 48  1  0
 22 49  1  0
 22 50  1  0
 22 51  1  0
 23 52  1  0
 24 53  1  0
 28 54  1  0
 31 55  1  0
 31 56  1  0
 32 57  1  0
 32 58  1  0
 32 59  1  0
M  END
$$$$
