
     RDKit          3D

 72 77  0  0  0  0  0  0  0  0999 V2000
   -8.4425    3.8261   -0.2391 C   0  0  0  0  0  0  0  0  0  0  0  0
   -7.7912    2.5381    0.1709 C   0  0  0  0  0  0  0  0  0  0  0  0
   -8.3026    1.3126   -0.2519 C   0  0  0  0  0  0  0  0  0  0  0  0
   -7.6691    0.1220    0.1089 C   0  0  0  0  0  0  0  0  0  0  0  0
   -6.5087    0.1250    0.9024 C   0  0  0  0  0  0  0  0  0  0  0  0
   -5.8675   -1.1989    1.2209 C   0  0  0  0  0  0  0  0  0  0  0  0
   -5.9692    1.3600    1.3200 C   0  0  0  0  0  0  0  0  0  0  0  0
   -4.7083    1.4757    2.1489 C   0  0  0  0  0  0  0  0  0  0  0  0
   -3.5475    1.7780    1.3361 N   0  0  0  0  0  0  0  0  0  0  0  0
   -3.2389    3.0603    1.0160 N   0  0  0  0  0  0  0  0  0  0  0  0
   -2.0927    3.0481    0.3351 N   0  0  0  0  0  0  0  0  0  0  0  0
   -1.6864    1.7545    0.2567 C   0  0  0  0  0  0  0  0  0  0  0  0
   -0.5103    1.1763   -0.3354 C   0  0  0  0  0  0  0  0  0  0  0  0
    0.3815    1.7939   -0.9088 O   0  0  0  0  0  0  0  0  0  0  0  0
   -0.4746   -0.2003   -0.1663 N   0  0  0  0  0  0  0  0  0  0  0  0
   -1.4243   -0.9345    0.5313 C   0  0  0  0  0  0  0  0  0  0  0  0
   -1.1630   -2.4350    0.6570 C   0  0  0  0  0  0  0  0  0  0  0  0
    0.2025   -2.7069    1.3092 C   0  0  0  0  0  0  0  0  0  0  0  0
    1.2532   -3.1992    0.3180 C   0  0  0  0  0  0  0  0  0  0  0  0
    1.0713   -2.4731   -0.9688 N   0  0  0  0  0  0  0  0  0  0  0  0
    2.4584   -2.5071   -2.0027 S   0  0  0  0  0  6  0  0  0  0  0  0
    2.9966   -3.8492   -1.9591 O   0  0  0  0  0  0  0  0  0  0  0  0
    2.0933   -1.8709   -3.2489 O   0  0  0  0  0  0  0  0  0  0  0  0
    3.5616   -1.4112   -1.1446 C   0  0  0  0  0  0  0  0  0  0  0  0
    3.3239   -0.0332   -1.2052 C   0  0  0  0  0  0  0  0  0  0  0  0
    4.1399    0.8406   -0.4878 C   0  0  0  0  0  0  0  0  0  0  0  0
    5.1945    0.3266    0.2730 C   0  0  0  0  0  0  0  0  0  0  0  0
    6.2022    1.4249    1.2373 S   0  0  0  0  0  6  0  0  0  0  0  0
    5.8953    2.7881    0.8648 O   0  0  0  0  0  0  0  0  0  0  0  0
    6.1205    0.9740    2.6090 O   0  0  0  0  0  0  0  0  0  0  0  0
    7.7682    1.0454    0.7070 N   0  0  0  0  0  0  0  0  0  0  0  0
    8.3563    1.9337   -0.2947 C   0  0  0  0  0  0  0  0  0  0  0  0
    9.6600    1.5687   -0.9491 C   0  0  0  0  0  0  0  0  0  0  0  0
    8.3854    1.5305   -1.7413 C   0  0  0  0  0  0  0  0  0  0  0  0
    5.4548   -1.0489    0.3056 C   0  0  0  0  0  0  0  0  0  0  0  0
    4.6393   -1.9232   -0.4144 C   0  0  0  0  0  0  0  0  0  0  0  0
   -0.1725   -2.9210   -1.6730 C   0  0  0  0  0  0  0  0  0  0  0  0
   -1.3200   -3.1558   -0.6856 C   0  0  0  0  0  0  0  0  0  0  0  0
   -2.4922   -0.4173    1.0751 N   0  0  0  0  0  0  0  0  0  0  0  0
   -2.5748    0.9252    0.8979 C   0  0  0  0  0  0  0  0  0  0  0  0
   -6.6218    2.5523    0.9401 C   0  0  0  0  0  0  0  0  0  0  0  0
   -7.9213    4.2531   -1.1023 H   0  0  0  0  0  0  0  0  0  0  0  0
   -8.4206    4.5474    0.5844 H   0  0  0  0  0  0  0  0  0  0  0  0
   -9.4940    3.6697   -0.5053 H   0  0  0  0  0  0  0  0  0  0  0  0
   -9.1959    1.2733   -0.8715 H   0  0  0  0  0  0  0  0  0  0  0  0
   -8.0951   -0.8171   -0.2386 H   0  0  0  0  0  0  0  0  0  0  0  0
   -6.5764   -2.0212    1.0815 H   0  0  0  0  0  0  0  0  0  0  0  0
   -5.0160   -1.3744    0.5590 H   0  0  0  0  0  0  0  0  0  0  0  0
   -5.5444   -1.2492    2.2633 H   0  0  0  0  0  0  0  0  0  0  0  0
   -4.8127    2.2799    2.8873 H   0  0  0  0  0  0  0  0  0  0  0  0
   -4.4982    0.5696    2.7238 H   0  0  0  0  0  0  0  0  0  0  0  0
    0.3389   -0.6675   -0.5510 H   0  0  0  0  0  0  0  0  0  0  0  0
   -1.9366   -2.8189    1.3364 H   0  0  0  0  0  0  0  0  0  0  0  0
    0.0915   -3.4659    2.0957 H   0  0  0  0  0  0  0  0  0  0  0  0
    0.5740   -1.8053    1.8163 H   0  0  0  0  0  0  0  0  0  0  0  0
    1.1501   -4.2788    0.1548 H   0  0  0  0  0  0  0  0  0  0  0  0
    2.2424   -3.0221    0.7475 H   0  0  0  0  0  0  0  0  0  0  0  0
    2.5017    0.3685   -1.7973 H   0  0  0  0  0  0  0  0  0  0  0  0
    3.9358    1.9094   -0.5163 H   0  0  0  0  0  0  0  0  0  0  0  0
    8.3602    0.8241    1.5098 H   0  0  0  0  0  0  0  0  0  0  0  0
    8.2278    2.9896   -0.0620 H   0  0  0  0  0  0  0  0  0  0  0  0
   10.3601    2.3687   -1.1624 H   0  0  0  0  0  0  0  0  0  0  0  0
   10.1276    0.6264   -0.6897 H   0  0  0  0  0  0  0  0  0  0  0  0
    8.2183    2.3027   -2.4828 H   0  0  0  0  0  0  0  0  0  0  0  0
    7.9912    0.5571   -2.0139 H   0  0  0  0  0  0  0  0  0  0  0  0
    6.2808   -1.4409    0.8970 H   0  0  0  0  0  0  0  0  0  0  0  0
    4.8363   -2.9933   -0.3854 H   0  0  0  0  0  0  0  0  0  0  0  0
    0.0113   -3.8375   -2.2462 H   0  0  0  0  0  0  0  0  0  0  0  0
   -0.4650   -2.1333   -2.3771 H   0  0  0  0  0  0  0  0  0  0  0  0
   -1.3796   -4.2342   -0.4846 H   0  0  0  0  0  0  0  0  0  0  0  0
   -2.2704   -2.8871   -1.1625 H   0  0  0  0  0  0  0  0  0  0  0  0
   -6.2023    3.5126    1.2429 H   0  0  0  0  0  0  0  0  0  0  0  0
  1  2  1  0
  2  3  2  0
  3  4  1  0
  4  5  2  0
  5  6  1  0
  5  7  1  0
  7  8  1  0
  8  9  1  0
  9 10  1  0
 10 11  2  0
 11 12  1  0
 12 13  1  0
 13 14  2  0
 13 15  1  0
 15 16  1  0
 16 17  1  0
 17 18  1  0
 18 19  1  0
 19 20  1  0
 20 21  1  0
 21 22  2  0
 21 23  2  0
 21 24  1  0
 24 25  2  0
 25 26  1  0
 26 27  2  0
 27 28  1  0
 28 29  2  0
 28 30  2  0
 28 31  1  0
 31 32  1  0
 32 33  1  0
 33 34  1  0
 27 35  1  0
 35 36  2  0
 20 37  1  0
 37 38  1  0
 16 39  2  0
 39 40  1  0
  7 41  2  0
 41  2  1  0
 40  9  1  0
 40 12  2  0
 38 17  1  0
 36 24  1  0
 34 32  1  0
  1 42  1  0
  1 43  1  0
  1 44  1  0
  3 45  1  0
  4 46  1  0
  6 47  1  0
  6 48  1  0
  6 49  1  0
  8 50  1  0
  8 51  1  0
 15 52  1  0
 17 53  1  0
 18 54  1  0
 18 55  1  0
 19 56  1  0
 19 57  1  0
 25 58  1  0
 26 59  1  0
 31 60  1  0
 32 61  1  0
 33 62  1  0
 33 63  1  0
 34 64  1  0
 34 65  1  0
 35 66  1  0
 36 67  1  0
 37 68  1  0
 37 69  1  0
 38 70  1  0
 38 71  1  0
 41 72  1  0
M  END
$$$$
