
     RDKit          3D

 29 29  0  0  0  0  0  0  0  0999 V2000
   -4.9963   -2.0370    1.9310 C   0  0  0  0  0  0  0  0  0  0  0  0
   -4.5867   -2.1899    0.8120 C   0  0  0  0  0  0  0  0  0  0  0  0
   -4.0914   -2.3791   -0.5572 C   0  0  0  0  0  0  0  0  0  0  0  0
   -3.2738   -1.2520   -1.0064 N   0  0  0  0  0  0  0  0  0  0  0  0
   -1.9773   -1.1963   -0.3288 C   0  0  0  0  0  0  0  0  0  0  0  0
   -1.1335   -0.0686   -0.9205 C   0  0  0  0  0  0  0  0  0  0  0  0
    0.2090    0.0512   -0.2036 C   0  0  0  0  0  0  0  0  0  0  0  0
    0.9557    1.0861   -0.8421 O   0  0  0  0  0  0  0  0  0  0  0  0
    2.2087    1.3662   -0.3649 C   0  0  0  0  0  0  0  0  0  0  0  0
    2.8004    0.7304    0.7320 C   0  0  0  0  0  0  0  0  0  0  0  0
    4.0882    1.0878    1.1464 C   0  0  0  0  0  0  0  0  0  0  0  0
    4.7896    2.0814    0.4675 C   0  0  0  0  0  0  0  0  0  0  0  0
    6.3723    2.5131    0.9846 Cl  0  0  0  0  0  0  0  0  0  0  0  0
    4.2184    2.7253   -0.6244 C   0  0  0  0  0  0  0  0  0  0  0  0
    2.9325    2.3676   -1.0371 C   0  0  0  0  0  0  0  0  0  0  0  0
    2.2655    3.1958   -2.4024 Cl  0  0  0  0  0  0  0  0  0  0  0  0
   -5.3618   -1.8917    2.9211 H   0  0  0  0  0  0  0  0  0  0  0  0
   -3.5382   -3.3211   -0.6462 H   0  0  0  0  0  0  0  0  0  0  0  0
   -4.9538   -2.4607   -1.2291 H   0  0  0  0  0  0  0  0  0  0  0  0
   -3.1253   -1.3413   -2.0106 H   0  0  0  0  0  0  0  0  0  0  0  0
   -1.4442   -2.1472   -0.4487 H   0  0  0  0  0  0  0  0  0  0  0  0
   -2.1129   -1.0154    0.7435 H   0  0  0  0  0  0  0  0  0  0  0  0
   -0.9594   -0.2392   -1.9909 H   0  0  0  0  0  0  0  0  0  0  0  0
   -1.6653    0.8893   -0.8506 H   0  0  0  0  0  0  0  0  0  0  0  0
    0.0377    0.3053    0.8493 H   0  0  0  0  0  0  0  0  0  0  0  0
    0.7500   -0.8997   -0.2778 H   0  0  0  0  0  0  0  0  0  0  0  0
    2.2881   -0.0467    1.2900 H   0  0  0  0  0  0  0  0  0  0  0  0
    4.5365    0.5863    2.0010 H   0  0  0  0  0  0  0  0  0  0  0  0
    4.7672    3.5001   -1.1523 H   0  0  0  0  0  0  0  0  0  0  0  0
  1  2  3  0
  2  3  1  0
  3  4  1  0
  4  5  1  0
  5  6  1  0
  6  7  1  0
  7  8  1  0
  8  9  1  0
  9 10  2  0
 10 11  1  0
 11 12  2  0
 12 13  1  0
 12 14  1  0
 14 15  2  0
 15 16  1  0
 15  9  1  0
  1 17  1  0
  3 18  1  0
  3 19  1  0
  4 20  1  0
  5 21  1  0
  5 22  1  0
  6 23  1  0
  6 24  1  0
  7 25  1  0
  7 26  1  0
 10 27  1  0
 11 28  1  0
 14 29  1  0
M  END
$$$$
