
     RDKit          3D

 33 34  0  0  0  0  0  0  0  0999 V2000
   -6.5163    1.4821    0.2675 N   0  0  0  0  0  0  0  0  0  0  0  0
   -5.1647    1.2274    0.5193 C   0  0  0  0  0  0  0  0  0  0  0  0
   -4.3840    0.5669   -0.4327 C   0  0  0  0  0  0  0  0  0  0  0  0
   -3.0051    0.4117   -0.2482 C   0  0  0  0  0  0  0  0  0  0  0  0
   -2.3816    0.9566    0.8802 C   0  0  0  0  0  0  0  0  0  0  0  0
   -0.9203    0.8272    1.1301 C   0  0  0  0  0  0  0  0  0  0  0  0
   -0.3576    1.3008    2.1044 O   0  0  0  0  0  0  0  0  0  0  0  0
   -0.3261    0.1189    0.1377 O   0  0  0  0  0  0  0  0  0  0  0  0
    1.0903   -0.0524    0.3018 C   0  0  0  0  0  0  0  0  0  0  0  0
    1.6116   -0.8588   -0.8844 C   0  0  0  0  0  0  0  0  0  0  0  0
    3.0967   -1.0948   -0.8059 C   0  0  0  0  0  0  0  0  0  0  0  0
    3.6029   -2.2230   -0.1468 C   0  0  0  0  0  0  0  0  0  0  0  0
    4.9802   -2.4305   -0.0573 C   0  0  0  0  0  0  0  0  0  0  0  0
    5.8630   -1.5115   -0.6214 C   0  0  0  0  0  0  0  0  0  0  0  0
    5.3697   -0.3835   -1.2743 C   0  0  0  0  0  0  0  0  0  0  0  0
    3.9928   -0.1740   -1.3650 C   0  0  0  0  0  0  0  0  0  0  0  0
   -3.1516    1.6697    1.8063 C   0  0  0  0  0  0  0  0  0  0  0  0
   -4.5288    1.8200    1.6125 C   0  0  0  0  0  0  0  0  0  0  0  0
   -7.0623    1.6789    1.1007 H   0  0  0  0  0  0  0  0  0  0  0  0
   -6.9632    0.7954   -0.3318 H   0  0  0  0  0  0  0  0  0  0  0  0
   -4.8439    0.1649   -1.3320 H   0  0  0  0  0  0  0  0  0  0  0  0
   -2.4333   -0.1243   -1.0011 H   0  0  0  0  0  0  0  0  0  0  0  0
    1.5749    0.9311    0.3371 H   0  0  0  0  0  0  0  0  0  0  0  0
    1.2867   -0.5843    1.2408 H   0  0  0  0  0  0  0  0  0  0  0  0
    1.3621   -0.3454   -1.8223 H   0  0  0  0  0  0  0  0  0  0  0  0
    1.0816   -1.8184   -0.9442 H   0  0  0  0  0  0  0  0  0  0  0  0
    2.9273   -2.9478    0.3021 H   0  0  0  0  0  0  0  0  0  0  0  0
    5.3646   -3.3088    0.4545 H   0  0  0  0  0  0  0  0  0  0  0  0
    6.9352   -1.6733   -0.5504 H   0  0  0  0  0  0  0  0  0  0  0  0
    6.0580    0.3349   -1.7118 H   0  0  0  0  0  0  0  0  0  0  0  0
    3.6241    0.7134   -1.8747 H   0  0  0  0  0  0  0  0  0  0  0  0
   -2.6825    2.1246    2.6768 H   0  0  0  0  0  0  0  0  0  0  0  0
   -5.1004    2.4062    2.3276 H   0  0  0  0  0  0  0  0  0  0  0  0
  1  2  1  0
  2  3  2  0
  3  4  1  0
  4  5  2  0
  5  6  1  0
  6  7  2  0
  6  8  1  0
  8  9  1  0
  9 10  1  0
 10 11  1  0
 11 12  2  0
 12 13  1  0
 13 14  2  0
 14 15  1  0
 15 16  2  0
  5 17  1  0
 17 18  2  0
 18  2  1  0
 16 11  1  0
  1 19  1  0
  1 20  1  0
  3 21  1  0
  4 22  1  0
  9 23  1  0
  9 24  1  0
 10 25  1  0
 10 26  1  0
 12 27  1  0
 13 28  1  0
 14 29  1  0
 15 30  1  0
 16 31  1  0
 17 32  1  0
 18 33  1  0
M  END
$$$$
