
     RDKit          3D

 37 39  0  0  0  0  0  0  0  0999 V2000
   -5.3446    0.8612   -1.2959 C   0  0  0  0  0  0  0  0  0  0  0  0
   -5.2832    0.8246    0.2071 C   0  0  0  0  0  0  0  0  0  0  0  0
   -6.4570    0.9952    0.9564 C   0  0  0  0  0  0  0  0  0  0  0  0
   -6.4181    0.9640    2.3489 C   0  0  0  0  0  0  0  0  0  0  0  0
   -5.2070    0.7623    3.0039 C   0  0  0  0  0  0  0  0  0  0  0  0
   -4.0308    0.5911    2.2691 C   0  0  0  0  0  0  0  0  0  0  0  0
   -4.0595    0.6208    0.8710 C   0  0  0  0  0  0  0  0  0  0  0  0
   -2.9682    0.4643    0.0586 O   0  0  0  0  0  0  0  0  0  0  0  0
   -1.7086    0.2557    0.6727 C   0  0  0  0  0  0  0  0  0  0  0  0
   -0.5907    0.0991   -0.3673 C   0  0  0  0  0  0  0  0  0  0  0  0
   -0.7948    0.1529   -1.5745 O   0  0  0  0  0  0  0  0  0  0  0  0
    0.6374   -0.1044    0.2376 N   0  0  0  0  0  0  0  0  0  0  0  0
    1.7839   -0.2711   -0.4905 C   0  0  0  0  0  0  0  0  0  0  0  0
    1.9798   -0.2785   -1.7828 N   0  0  0  0  0  0  0  0  0  0  0  0
    3.3102   -0.4815   -2.0953 N   0  0  0  0  0  0  0  0  0  0  0  0
    4.0753   -0.6207   -1.0270 C   0  0  0  0  0  0  0  0  0  0  0  0
    5.5304   -0.8481   -1.0736 C   0  0  0  0  0  0  0  0  0  0  0  0
    6.1608   -0.9245   -2.3230 C   0  0  0  0  0  0  0  0  0  0  0  0
    7.5279   -1.1378   -2.3794 C   0  0  0  0  0  0  0  0  0  0  0  0
    8.3063   -1.2796   -1.2885 N   0  0  0  0  0  0  0  0  0  0  0  0
    7.6915   -1.2047   -0.0919 C   0  0  0  0  0  0  0  0  0  0  0  0
    6.3296   -0.9940    0.0662 C   0  0  0  0  0  0  0  0  0  0  0  0
    3.1864   -0.5079    0.4497 S   0  0  0  0  0  0  0  0  0  0  0  0
   -4.7223    1.6756   -1.6810 H   0  0  0  0  0  0  0  0  0  0  0  0
   -4.9991   -0.0903   -1.7128 H   0  0  0  0  0  0  0  0  0  0  0  0
   -6.3666    1.0279   -1.6522 H   0  0  0  0  0  0  0  0  0  0  0  0
   -7.4096    1.1535    0.4558 H   0  0  0  0  0  0  0  0  0  0  0  0
   -7.3328    1.0972    2.9207 H   0  0  0  0  0  0  0  0  0  0  0  0
   -5.1778    0.7382    4.0902 H   0  0  0  0  0  0  0  0  0  0  0  0
   -3.1118    0.4371    2.8225 H   0  0  0  0  0  0  0  0  0  0  0  0
   -1.4497    1.1170    1.3007 H   0  0  0  0  0  0  0  0  0  0  0  0
   -1.7291   -0.6650    1.2687 H   0  0  0  0  0  0  0  0  0  0  0  0
    0.7272   -0.1365    1.2412 H   0  0  0  0  0  0  0  0  0  0  0  0
    5.5978   -0.8195   -3.2469 H   0  0  0  0  0  0  0  0  0  0  0  0
    8.0453   -1.2018   -3.3327 H   0  0  0  0  0  0  0  0  0  0  0  0
    8.3434   -1.3224    0.7695 H   0  0  0  0  0  0  0  0  0  0  0  0
    5.9282   -0.9491    1.0719 H   0  0  0  0  0  0  0  0  0  0  0  0
  1  2  1  0
  2  3  2  0
  3  4  1  0
  4  5  2  0
  5  6  1  0
  6  7  2  0
  7  8  1  0
  8  9  1  0
  9 10  1  0
 10 11  2  0
 10 12  1  0
 12 13  1  0
 13 14  2  0
 14 15  1  0
 15 16  2  0
 16 17  1  0
 17 18  2  0
 18 19  1  0
 19 20  2  0
 20 21  1  0
 21 22  2  0
 16 23  1  0
  7  2  1  0
 23 13  1  0
 22 17  1  0
  1 24  1  0
  1 25  1  0
  1 26  1  0
  3 27  1  0
  4 28  1  0
  5 29  1  0
  6 30  1  0
  9 31  1  0
  9 32  1  0
 12 33  1  0
 18 34  1  0
 19 35  1  0
 21 36  1  0
 22 37  1  0
M  END
$$$$
