
     RDKit          3D

 60 64  0  0  0  0  0  0  0  0999 V2000
   -2.4910   -3.2950    0.7795 C   0  0  0  0  0  0  0  0  0  0  0  0
   -2.5881   -2.4171   -0.3824 N   0  0  0  0  0  0  0  0  0  0  0  0
   -3.8688   -2.0025   -0.7593 C   0  0  0  0  0  0  0  0  0  0  0  0
   -4.8883   -2.4161   -0.2042 O   0  0  0  0  0  0  0  0  0  0  0  0
   -3.9788   -0.9826   -1.8529 C   0  0  0  0  0  0  0  0  0  0  0  0
   -4.8712    0.0248   -1.8311 C   0  0  0  0  0  0  0  0  0  0  0  0
   -5.7864    0.3573   -0.7351 C   0  0  0  0  0  0  0  0  0  0  0  0
   -7.1665    0.2588   -0.9337 C   0  0  0  0  0  0  0  0  0  0  0  0
   -8.0525    0.5905    0.0950 C   0  0  0  0  0  0  0  0  0  0  0  0
   -7.5712    1.0271    1.3386 C   0  0  0  0  0  0  0  0  0  0  0  0
   -8.5319    1.4000    2.4402 C   0  0  0  0  0  0  0  0  0  0  0  0
   -8.9884    2.6776    2.3158 F   0  0  0  0  0  0  0  0  0  0  0  0
   -9.6413    0.6096    2.4730 F   0  0  0  0  0  0  0  0  0  0  0  0
   -7.9832    1.3211    3.6852 F   0  0  0  0  0  0  0  0  0  0  0  0
   -6.1855    1.1418    1.5253 C   0  0  0  0  0  0  0  0  0  0  0  0
   -5.3000    0.8088    0.4966 C   0  0  0  0  0  0  0  0  0  0  0  0
   -2.9451   -1.1820   -3.2196 S   0  0  0  0  0  0  0  0  0  0  0  0
   -1.4249   -1.4378   -2.3352 C   0  0  0  0  0  0  0  0  0  0  0  0
   -0.2355   -1.0873   -2.9972 C   0  0  0  0  0  0  0  0  0  0  0  0
    1.0025   -1.2955   -2.3938 C   0  0  0  0  0  0  0  0  0  0  0  0
    1.0519   -1.8497   -1.1172 C   0  0  0  0  0  0  0  0  0  0  0  0
    2.3466   -2.1159   -0.4495 C   0  0  0  0  0  0  0  0  0  0  0  0
    2.5432   -3.2523   -0.0260 O   0  0  0  0  0  0  0  0  0  0  0  0
    3.2676   -1.0830   -0.3246 N   0  0  0  0  0  0  0  0  0  0  0  0
    4.5621   -1.3821    0.2912 C   0  0  0  0  0  0  0  0  0  0  0  0
    5.6772   -0.4045   -0.1257 C   0  0  0  0  0  0  0  0  0  0  0  0
    5.2729    1.0092   -0.0022 N   0  0  0  0  0  0  0  0  0  0  0  0
    6.1945    1.9024    0.5433 C   0  0  0  0  0  0  0  0  0  0  0  0
    7.5422    1.8516    0.1795 C   0  0  0  0  0  0  0  0  0  0  0  0
    8.4507    2.7618    0.7197 C   0  0  0  0  0  0  0  0  0  0  0  0
    7.9981    3.7196    1.6116 C   0  0  0  0  0  0  0  0  0  0  0  0
    6.6512    3.7254    1.9153 C   0  0  0  0  0  0  0  0  0  0  0  0
    5.7563    2.8517    1.4005 N   0  0  0  0  0  0  0  0  0  0  0  0
    3.8667    1.2647    0.3431 C   0  0  0  0  0  0  0  0  0  0  0  0
    2.9420    0.3445   -0.4751 C   0  0  0  0  0  0  0  0  0  0  0  0
   -0.1277   -2.2323   -0.4643 C   0  0  0  0  0  0  0  0  0  0  0  0
   -1.3856   -2.0211   -1.0556 C   0  0  0  0  0  0  0  0  0  0  0  0
   -3.4659   -3.6821    1.0886 H   0  0  0  0  0  0  0  0  0  0  0  0
   -2.0738   -2.7311    1.6197 H   0  0  0  0  0  0  0  0  0  0  0  0
   -1.8585   -4.1565    0.5426 H   0  0  0  0  0  0  0  0  0  0  0  0
   -4.9464    0.7033   -2.6788 H   0  0  0  0  0  0  0  0  0  0  0  0
   -7.5625   -0.0907   -1.8848 H   0  0  0  0  0  0  0  0  0  0  0  0
   -9.1241    0.4981   -0.0759 H   0  0  0  0  0  0  0  0  0  0  0  0
   -5.7873    1.4866    2.4784 H   0  0  0  0  0  0  0  0  0  0  0  0
   -4.2302    0.9033    0.6672 H   0  0  0  0  0  0  0  0  0  0  0  0
   -0.2676   -0.6624   -3.9993 H   0  0  0  0  0  0  0  0  0  0  0  0
    1.9154   -1.0479   -2.9289 H   0  0  0  0  0  0  0  0  0  0  0  0
    4.8623   -2.4076    0.0475 H   0  0  0  0  0  0  0  0  0  0  0  0
    4.4134   -1.3378    1.3775 H   0  0  0  0  0  0  0  0  0  0  0  0
    6.5617   -0.6360    0.4806 H   0  0  0  0  0  0  0  0  0  0  0  0
    5.9376   -0.5865   -1.1754 H   0  0  0  0  0  0  0  0  0  0  0  0
    7.8927    1.1219   -0.5421 H   0  0  0  0  0  0  0  0  0  0  0  0
    9.4978    2.7236    0.4355 H   0  0  0  0  0  0  0  0  0  0  0  0
    8.6719    4.4457    2.0509 H   0  0  0  0  0  0  0  0  0  0  0  0
    6.2358    4.4568    2.6022 H   0  0  0  0  0  0  0  0  0  0  0  0
    3.7011    1.0904    1.4144 H   0  0  0  0  0  0  0  0  0  0  0  0
    3.5935    2.3030    0.1167 H   0  0  0  0  0  0  0  0  0  0  0  0
    3.0476    0.5822   -1.5398 H   0  0  0  0  0  0  0  0  0  0  0  0
    1.9006    0.5180   -0.1847 H   0  0  0  0  0  0  0  0  0  0  0  0
   -0.0289   -2.6861    0.5185 H   0  0  0  0  0  0  0  0  0  0  0  0
  1  2  1  0
  2  3  1  0
  3  4  2  0
  3  5  1  0
  5  6  2  3
  6  7  1  0
  7  8  2  0
  8  9  1  0
  9 10  2  0
 10 11  1  0
 11 12  1  0
 11 13  1  0
 11 14  1  0
 10 15  1  0
 15 16  2  0
  5 17  1  0
 17 18  1  0
 18 19  2  0
 19 20  1  0
 20 21  2  0
 21 22  1  0
 22 23  2  0
 22 24  1  0
 24 25  1  0
 25 26  1  0
 26 27  1  0
 27 28  1  0
 28 29  2  0
 29 30  1  0
 30 31  2  0
 31 32  1  0
 32 33  2  0
 27 34  1  0
 34 35  1  0
 21 36  1  0
 36 37  2  0
 37  2  1  0
 16  7  1  0
 37 18  1  0
 35 24  1  0
 33 28  1  0
  1 38  1  0
  1 39  1  0
  1 40  1  0
  6 41  1  0
  8 42  1  0
  9 43  1  0
 15 44  1  0
 16 45  1  0
 19 46  1  0
 20 47  1  0
 25 48  1  0
 25 49  1  0
 26 50  1  0
 26 51  1  0
 29 52  1  0
 30 53  1  0
 31 54  1  0
 32 55  1  0
 34 56  1  0
 34 57  1  0
 35 58  1  0
 35 59  1  0
 36 60  1  0
M  END
$$$$
