
     RDKit          3D

 70 75  0  0  0  0  0  0  0  0999 V2000
   -5.6838   -3.5600    2.1067 C   0  0  0  0  0  0  0  0  0  0  0  0
   -4.4930   -2.9555    1.4104 C   0  0  0  0  0  0  0  0  0  0  0  0
   -3.7706   -1.9351    2.0768 C   0  0  0  0  0  0  0  0  0  0  0  0
   -2.6632   -1.3202    1.4899 C   0  0  0  0  0  0  0  0  0  0  0  0
   -2.2860   -1.7291    0.2236 C   0  0  0  0  0  0  0  0  0  0  0  0
   -2.9846   -2.7521   -0.4304 C   0  0  0  0  0  0  0  0  0  0  0  0
   -4.0789   -3.4005    0.1338 C   0  0  0  0  0  0  0  0  0  0  0  0
   -4.8134   -4.4724   -0.6165 C   0  0  0  0  0  0  0  0  0  0  0  0
   -2.4070   -2.9965   -1.6763 N   0  0  0  0  0  0  0  0  0  0  0  0
   -1.3106   -2.1635   -1.9102 C   0  0  0  0  0  0  0  0  0  0  0  0
   -0.6178   -2.1918   -2.9174 O   0  0  0  0  0  0  0  0  0  0  0  0
   -1.1631   -1.2675   -0.6554 C   0  0  1  0  0  0  0  0  0  0  0  0
   -1.3033    0.1836   -0.9448 C   0  0  0  0  0  0  0  0  0  0  0  0
   -0.0428    0.8024   -0.9052 C   0  0  0  0  0  0  0  0  0  0  0  0
   -0.1907    2.1400   -1.1327 C   0  0  0  0  0  0  0  0  0  0  0  0
    0.7398    3.0910   -1.0725 O   0  0  0  0  0  0  0  0  0  0  0  0
   -1.5599    2.3580   -1.3851 N   0  0  0  0  0  0  0  0  0  0  0  0
   -2.1608    3.6139   -1.6917 C   0  0  0  0  0  0  0  0  0  0  0  0
   -3.4054    3.9481   -1.1413 C   0  0  0  0  0  0  0  0  0  0  0  0
   -3.9879    5.1812   -1.4387 C   0  0  0  0  0  0  0  0  0  0  0  0
   -3.3360    6.0779   -2.2845 C   0  0  0  0  0  0  0  0  0  0  0  0
   -2.0997    5.7455   -2.8374 C   0  0  0  0  0  0  0  0  0  0  0  0
   -1.5086    4.5161   -2.5425 C   0  0  0  0  0  0  0  0  0  0  0  0
   -2.2363    1.1243   -1.2903 C   0  0  0  0  0  0  0  0  0  0  0  0
   -3.5270    0.9426   -1.5658 O   0  0  0  0  0  0  0  0  0  0  0  0
    1.0067   -0.1972   -0.6329 C   0  0  1  0  0  0  0  0  0  0  0  0
    2.1458    0.1551    0.3164 C   0  0  0  0  0  0  0  0  0  0  0  0
    2.9388   -1.0507    0.6454 N   0  0  0  0  0  0  0  0  0  0  0  0
    4.2337   -0.9547    1.1269 C   0  0  0  0  0  0  0  0  0  0  0  0
    4.8417   -1.8954    1.6217 O   0  0  0  0  0  0  0  0  0  0  0  0
    4.7409    0.2964    0.9849 O   0  0  0  0  0  0  0  0  0  0  0  0
    6.0864    0.6159    1.4205 C   0  0  0  0  0  0  0  0  0  0  0  0
    7.1322   -0.1832    0.6355 C   0  0  0  0  0  0  0  0  0  0  0  0
    6.2407    0.4335    2.9346 C   0  0  0  0  0  0  0  0  0  0  0  0
    6.2574    2.1061    1.0870 C   0  0  0  0  0  0  0  0  0  0  0  0
    2.1845   -2.2767    0.9579 C   0  0  0  0  0  0  0  0  0  0  0  0
    0.9445   -2.5149    0.0588 C   0  0  0  0  0  0  0  0  0  0  0  0
    0.1782   -1.2840   -0.0204 N   0  0  0  0  0  0  0  0  0  0  0  0
   -5.9630   -2.9857    2.9965 H   0  0  0  0  0  0  0  0  0  0  0  0
   -6.5544   -3.5664    1.4429 H   0  0  0  0  0  0  0  0  0  0  0  0
   -5.4552   -4.5823    2.4235 H   0  0  0  0  0  0  0  0  0  0  0  0
   -4.0803   -1.6086    3.0682 H   0  0  0  0  0  0  0  0  0  0  0  0
   -2.1187   -0.5364    2.0072 H   0  0  0  0  0  0  0  0  0  0  0  0
   -4.1319   -5.0552   -1.2451 H   0  0  0  0  0  0  0  0  0  0  0  0
   -5.5837   -4.0230   -1.2515 H   0  0  0  0  0  0  0  0  0  0  0  0
   -5.2877   -5.1906    0.0597 H   0  0  0  0  0  0  0  0  0  0  0  0
   -2.7206   -3.6768   -2.3501 H   0  0  0  0  0  0  0  0  0  0  0  0
    0.3059    3.9507   -0.9288 H   0  0  0  0  0  0  0  0  0  0  0  0
   -3.9145    3.2835   -0.4451 H   0  0  0  0  0  0  0  0  0  0  0  0
   -4.9476    5.4486   -1.0017 H   0  0  0  0  0  0  0  0  0  0  0  0
   -3.7932    7.0373   -2.5150 H   0  0  0  0  0  0  0  0  0  0  0  0
   -1.6009    6.4413   -3.5085 H   0  0  0  0  0  0  0  0  0  0  0  0
   -0.5650    4.2622   -3.0232 H   0  0  0  0  0  0  0  0  0  0  0  0
   -3.8415    1.6793   -2.1195 H   0  0  0  0  0  0  0  0  0  0  0  0
    1.4200   -0.5381   -1.5934 H   0  0  0  0  0  0  0  0  0  0  0  0
    1.7727    0.5667    1.2628 H   0  0  0  0  0  0  0  0  0  0  0  0
    2.7866    0.9180   -0.1387 H   0  0  0  0  0  0  0  0  0  0  0  0
    7.1030   -1.2484    0.8826 H   0  0  0  0  0  0  0  0  0  0  0  0
    6.9525   -0.1057   -0.4428 H   0  0  0  0  0  0  0  0  0  0  0  0
    8.1463    0.1732    0.8455 H   0  0  0  0  0  0  0  0  0  0  0  0
    7.1934    0.8407    3.2899 H   0  0  0  0  0  0  0  0  0  0  0  0
    6.2081   -0.6206    3.2257 H   0  0  0  0  0  0  0  0  0  0  0  0
    5.4260    0.9328    3.4710 H   0  0  0  0  0  0  0  0  0  0  0  0
    6.1091    2.2853    0.0151 H   0  0  0  0  0  0  0  0  0  0  0  0
    7.2508    2.4746    1.3653 H   0  0  0  0  0  0  0  0  0  0  0  0
    5.5050    2.7107    1.6081 H   0  0  0  0  0  0  0  0  0  0  0  0
    1.8665   -2.1876    2.0046 H   0  0  0  0  0  0  0  0  0  0  0  0
    2.8512   -3.1439    0.8942 H   0  0  0  0  0  0  0  0  0  0  0  0
    0.3469   -3.3225    0.4958 H   0  0  0  0  0  0  0  0  0  0  0  0
    1.2733   -2.8436   -0.9344 H   0  0  0  0  0  0  0  0  0  0  0  0
  1  2  1  0
  2  3  2  0
  3  4  1  0
  4  5  2  0
  5  6  1  0
  6  7  2  0
  7  8  1  0
  6  9  1  0
  9 10  1  0
 10 11  2  0
 10 12  1  0
 12 13  1  0
 13 14  1  0
 14 15  2  0
 15 16  1  0
 15 17  1  0
 17 18  1  0
 18 19  2  0
 19 20  1  0
 20 21  2  0
 21 22  1  0
 22 23  2  0
 17 24  1  0
 24 25  1  0
 14 26  1  0
 26 27  1  0
 27 28  1  0
 28 29  1  0
 29 30  2  0
 29 31  1  0
 31 32  1  0
 32 33  1  0
 32 34  1  0
 32 35  1  0
 28 36  1  0
 36 37  1  0
 37 38  1  0
  7  2  1  0
 12 38  1  1
 12  5  1  0
 24 13  2  0
 38 26  1  0
 23 18  1  0
  1 39  1  0
  1 40  1  0
  1 41  1  0
  3 42  1  0
  4 43  1  0
  8 44  1  0
  8 45  1  0
  8 46  1  0
  9 47  1  0
 16 48  1  0
 19 49  1  0
 20 50  1  0
 21 51  1  0
 22 52  1  0
 23 53  1  0
 25 54  1  0
 26 55  1  6
 27 56  1  0
 27 57  1  0
 33 58  1  0
 33 59  1  0
 33 60  1  0
 34 61  1  0
 34 62  1  0
 34 63  1  0
 35 64  1  0
 35 65  1  0
 35 66  1  0
 36 67  1  0
 36 68  1  0
 37 69  1  0
 37 70  1  0
M  END
$$$$
