
     RDKit          3D

 38 40  0  0  0  0  0  0  0  0999 V2000
   -2.1324   -1.4053   -1.9738 C   0  0  0  0  0  0  0  0  0  0  0  0
   -1.4020   -0.8021   -0.7698 C   0  0  0  0  0  0  0  0  0  0  0  0
   -1.5030   -1.7401    0.4580 C   0  0  0  0  0  0  0  0  0  0  0  0
   -1.4420   -0.8110    1.6743 C   0  0  0  0  0  0  0  0  0  0  0  0
   -1.2557    0.5910    1.0768 C   0  0  0  0  0  0  0  0  0  0  0  0
    0.2448    0.8060    0.9173 C   0  0  0  0  0  0  0  0  0  0  0  0
    0.8191    1.5108    1.7486 O   0  0  0  0  0  0  0  0  0  0  0  0
    0.8564    0.0805   -0.1232 N   0  0  0  0  0  0  0  0  0  0  0  0
    2.2938    0.1581   -0.2979 C   0  0  0  0  0  0  0  0  0  0  0  0
    3.0117   -0.9357   -0.8179 C   0  0  0  0  0  0  0  0  0  0  0  0
    4.4002   -0.8893   -0.9858 C   0  0  0  0  0  0  0  0  0  0  0  0
    5.1047    0.2567   -0.6358 C   0  0  0  0  0  0  0  0  0  0  0  0
    4.4151    1.3486   -0.1208 C   0  0  0  0  0  0  0  0  0  0  0  0
    5.2816    2.7765    0.2995 Cl  0  0  0  0  0  0  0  0  0  0  0  0
    3.0278    1.3039    0.0494 C   0  0  0  0  0  0  0  0  0  0  0  0
    0.1011   -0.6240   -1.0882 C   0  0  0  0  0  0  0  0  0  0  0  0
    0.5536   -1.0544   -2.1514 O   0  0  0  0  0  0  0  0  0  0  0  0
   -1.9799    0.5451   -0.2756 C   0  0  0  0  0  0  0  0  0  0  0  0
   -3.5136    0.5201   -0.0687 C   0  0  0  0  0  0  0  0  0  0  0  0
   -1.6836    1.7556   -1.1808 C   0  0  0  0  0  0  0  0  0  0  0  0
   -2.0835   -0.7395   -2.8422 H   0  0  0  0  0  0  0  0  0  0  0  0
   -3.1874   -1.6015   -1.7578 H   0  0  0  0  0  0  0  0  0  0  0  0
   -1.6835   -2.3612   -2.2685 H   0  0  0  0  0  0  0  0  0  0  0  0
   -2.4450   -2.3007    0.4701 H   0  0  0  0  0  0  0  0  0  0  0  0
   -0.6894   -2.4744    0.4867 H   0  0  0  0  0  0  0  0  0  0  0  0
   -0.6318   -1.0986    2.3536 H   0  0  0  0  0  0  0  0  0  0  0  0
   -2.3781   -0.8707    2.2409 H   0  0  0  0  0  0  0  0  0  0  0  0
   -1.6537    1.3706    1.7358 H   0  0  0  0  0  0  0  0  0  0  0  0
    2.5078   -1.8628   -1.0845 H   0  0  0  0  0  0  0  0  0  0  0  0
    4.9260   -1.7514   -1.3891 H   0  0  0  0  0  0  0  0  0  0  0  0
    6.1824    0.2940   -0.7682 H   0  0  0  0  0  0  0  0  0  0  0  0
    2.5368    2.1971    0.4252 H   0  0  0  0  0  0  0  0  0  0  0  0
   -3.8432    1.4124    0.4763 H   0  0  0  0  0  0  0  0  0  0  0  0
   -3.8595   -0.3504    0.4961 H   0  0  0  0  0  0  0  0  0  0  0  0
   -4.0416    0.5116   -1.0289 H   0  0  0  0  0  0  0  0  0  0  0  0
   -2.0366    2.6812   -0.7111 H   0  0  0  0  0  0  0  0  0  0  0  0
   -0.6218    1.8969   -1.3983 H   0  0  0  0  0  0  0  0  0  0  0  0
   -2.1959    1.6566   -2.1443 H   0  0  0  0  0  0  0  0  0  0  0  0
  1  2  1  0
  2  3  1  0
  3  4  1  0
  4  5  1  0
  5  6  1  0
  6  7  2  0
  6  8  1  0
  8  9  1  0
  9 10  2  0
 10 11  1  0
 11 12  2  0
 12 13  1  0
 13 14  1  0
 13 15  2  0
  8 16  1  0
 16 17  2  0
  5 18  1  0
 18 19  1  0
 18 20  1  0
 16  2  1  0
 18  2  1  0
 15  9  1  0
  1 21  1  0
  1 22  1  0
  1 23  1  0
  3 24  1  0
  3 25  1  0
  4 26  1  0
  4 27  1  0
  5 28  1  0
 10 29  1  0
 11 30  1  0
 12 31  1  0
 15 32  1  0
 19 33  1  0
 19 34  1  0
 19 35  1  0
 20 36  1  0
 20 37  1  0
 20 38  1  0
M  END
$$$$
