
     RDKit          3D

 38 39  0  0  0  0  0  0  0  0999 V2000
    0.7882    1.5494   -2.1690 C   0  0  0  0  0  0  0  0  0  0  0  0
    0.6831    0.6095   -0.9851 C   0  0  0  0  0  0  0  0  0  0  0  0
    1.9214    0.1571   -0.2840 C   0  0  0  0  0  0  0  0  0  0  0  0
    3.1384    0.6936   -0.4563 C   0  0  0  0  0  0  0  0  0  0  0  0
    4.3354    0.2330    0.2642 C   0  0  0  0  0  0  0  0  0  0  0  0
    4.5738   -1.1219    0.5315 C   0  0  0  0  0  0  0  0  0  0  0  0
    5.7388   -1.5223    1.1912 C   0  0  0  0  0  0  0  0  0  0  0  0
    6.6821   -0.5740    1.5810 C   0  0  0  0  0  0  0  0  0  0  0  0
    6.4642    0.7743    1.3072 C   0  0  0  0  0  0  0  0  0  0  0  0
    5.2996    1.1750    0.6472 C   0  0  0  0  0  0  0  0  0  0  0  0
   -0.4475    0.1611   -0.5143 N   0  0  0  0  0  0  0  0  0  0  0  0
   -1.5929    0.6010   -1.1102 N   0  0  0  0  0  0  0  0  0  0  0  0
   -2.8234    0.1100   -0.6338 C   0  0  0  0  0  0  0  0  0  0  0  0
   -2.9176   -1.1148   -0.0870 N   0  0  0  0  0  0  0  0  0  0  0  0
   -4.1271   -1.5204    0.3416 C   0  0  0  0  0  0  0  0  0  0  0  0
   -4.2158   -2.8851    0.9536 C   0  0  0  0  0  0  0  0  0  0  0  0
   -5.2509   -0.7297    0.2315 C   0  0  0  0  0  0  0  0  0  0  0  0
   -5.0735    0.5104   -0.3452 C   0  0  0  0  0  0  0  0  0  0  0  0
   -6.2379    1.4397   -0.5093 C   0  0  0  0  0  0  0  0  0  0  0  0
   -3.8721    0.9406   -0.7810 N   0  0  0  0  0  0  0  0  0  0  0  0
    0.6677    2.5789   -1.8207 H   0  0  0  0  0  0  0  0  0  0  0  0
    1.7482    1.4487   -2.6802 H   0  0  0  0  0  0  0  0  0  0  0  0
    0.0149    1.3277   -2.9100 H   0  0  0  0  0  0  0  0  0  0  0  0
    1.7502   -0.6451    0.4294 H   0  0  0  0  0  0  0  0  0  0  0  0
    3.3012    1.5329   -1.1250 H   0  0  0  0  0  0  0  0  0  0  0  0
    3.8620   -1.8836    0.2220 H   0  0  0  0  0  0  0  0  0  0  0  0
    5.9101   -2.5759    1.3961 H   0  0  0  0  0  0  0  0  0  0  0  0
    7.5878   -0.8864    2.0941 H   0  0  0  0  0  0  0  0  0  0  0  0
    7.2005    1.5156    1.6068 H   0  0  0  0  0  0  0  0  0  0  0  0
    5.1491    2.2329    0.4442 H   0  0  0  0  0  0  0  0  0  0  0  0
   -1.7265    1.6001   -1.2391 H   0  0  0  0  0  0  0  0  0  0  0  0
   -4.5700   -2.8142    1.9867 H   0  0  0  0  0  0  0  0  0  0  0  0
   -4.9043   -3.5132    0.3796 H   0  0  0  0  0  0  0  0  0  0  0  0
   -3.2362   -3.3738    0.9623 H   0  0  0  0  0  0  0  0  0  0  0  0
   -6.2195   -1.0652    0.5787 H   0  0  0  0  0  0  0  0  0  0  0  0
   -5.9253    2.3775   -0.9800 H   0  0  0  0  0  0  0  0  0  0  0  0
   -6.6732    1.6771    0.4664 H   0  0  0  0  0  0  0  0  0  0  0  0
   -7.0029    0.9795   -1.1424 H   0  0  0  0  0  0  0  0  0  0  0  0
  1  2  1  0
  2  3  1  0
  3  4  2  3
  4  5  1  0
  5  6  2  0
  6  7  1  0
  7  8  2  0
  8  9  1  0
  9 10  2  0
  2 11  2  3
 11 12  1  0
 12 13  1  0
 13 14  2  0
 14 15  1  0
 15 16  1  0
 15 17  2  0
 17 18  1  0
 18 19  1  0
 18 20  2  0
 10  5  1  0
 20 13  1  0
  1 21  1  0
  1 22  1  0
  1 23  1  0
  3 24  1  0
  4 25  1  0
  6 26  1  0
  7 27  1  0
  8 28  1  0
  9 29  1  0
 10 30  1  0
 12 31  1  0
 16 32  1  0
 16 33  1  0
 16 34  1  0
 17 35  1  0
 19 36  1  0
 19 37  1  0
 19 38  1  0
M  END
$$$$
