
     RDKit          3D

 57 62  0  0  0  0  0  0  0  0999 V2000
    5.7368   -3.0148    0.4148 C   0  0  0  0  0  0  0  0  0  0  0  0
    5.4190   -1.5696    0.5863 C   0  0  0  0  0  0  0  0  0  0  0  0
    6.0855   -0.6309    1.3466 C   0  0  0  0  0  0  0  0  0  0  0  0
    5.4946    0.6621    1.2456 C   0  0  0  0  0  0  0  0  0  0  0  0
    4.3695    0.6621    0.4462 C   0  0  0  0  0  0  0  0  0  0  0  0
    3.5441    1.8001    0.0811 C   0  0  0  0  0  0  0  0  0  0  0  0
    4.0350    2.8035   -0.4374 O   0  0  0  0  0  0  0  0  0  0  0  0
    2.1708    1.7382    0.3471 N   0  0  0  0  0  0  0  0  0  0  0  0
    1.5606    0.8811    1.3512 C   0  0  0  0  0  0  0  0  0  0  0  0
    0.2808    0.2244    0.8260 C   0  0  0  0  0  0  0  0  0  0  0  0
   -0.5264    1.1112   -0.1736 C   0  0  0  0  0  0  0  0  0  0  0  0
   -0.1473    2.5943    0.0883 C   0  0  0  0  0  0  0  0  0  0  0  0
    1.3471    2.8399   -0.1287 C   0  0  0  0  0  0  0  0  0  0  0  0
   -0.0660    0.7122   -1.4916 O   0  0  0  0  0  0  0  0  0  0  0  0
   -0.7840    1.1901   -2.5508 C   0  0  0  0  0  0  0  0  0  0  0  0
   -0.1458    1.1621   -3.7901 C   0  0  0  0  0  0  0  0  0  0  0  0
   -0.8006    1.6498   -4.9238 C   0  0  0  0  0  0  0  0  0  0  0  0
   -2.0953    2.1585   -4.8146 C   0  0  0  0  0  0  0  0  0  0  0  0
   -2.8956    2.7636   -6.2116 Cl  0  0  0  0  0  0  0  0  0  0  0  0
   -2.7460    2.1754   -3.5835 C   0  0  0  0  0  0  0  0  0  0  0  0
   -2.0855    1.6794   -2.4554 C   0  0  0  0  0  0  0  0  0  0  0  0
   -2.7630    1.6467   -1.1456 C   0  0  0  0  0  0  0  0  0  0  0  0
   -3.8509    2.1978   -1.0123 O   0  0  0  0  0  0  0  0  0  0  0  0
   -2.0531    0.8535   -0.0522 C   0  0  0  0  0  0  0  0  0  0  0  0
   -2.4836   -0.6037   -0.1852 C   0  0  0  0  0  0  0  0  0  0  0  0
   -2.9984   -0.8438    1.1897 C   0  0  0  0  0  0  0  0  0  0  0  0
   -3.4765   -2.1716    1.6249 C   0  0  0  0  0  0  0  0  0  0  0  0
   -3.9766   -2.3467    2.9172 C   0  0  0  0  0  0  0  0  0  0  0  0
   -4.4326   -3.6018    3.3143 C   0  0  0  0  0  0  0  0  0  0  0  0
   -4.3698   -4.6425    2.4023 C   0  0  0  0  0  0  0  0  0  0  0  0
   -3.8894   -4.5096    1.1456 N   0  0  0  0  0  0  0  0  0  0  0  0
   -3.4584   -3.2767    0.7838 C   0  0  0  0  0  0  0  0  0  0  0  0
   -2.9971    0.1895    1.9658 N   0  0  0  0  0  0  0  0  0  0  0  0
   -2.5247    1.2937    1.2250 O   0  0  0  0  0  0  0  0  0  0  0  0
    4.0955   -0.8777   -0.2528 S   0  0  0  0  0  0  0  0  0  0  0  0
    6.2053   -3.1915   -0.5587 H   0  0  0  0  0  0  0  0  0  0  0  0
    4.8351   -3.6308    0.4833 H   0  0  0  0  0  0  0  0  0  0  0  0
    6.4316   -3.3558    1.1898 H   0  0  0  0  0  0  0  0  0  0  0  0
    6.9698   -0.8503    1.9353 H   0  0  0  0  0  0  0  0  0  0  0  0
    5.8699    1.5532    1.7363 H   0  0  0  0  0  0  0  0  0  0  0  0
    1.3237    1.5225    2.2110 H   0  0  0  0  0  0  0  0  0  0  0  0
    2.2442    0.1215    1.7365 H   0  0  0  0  0  0  0  0  0  0  0  0
    0.5559   -0.7177    0.3350 H   0  0  0  0  0  0  0  0  0  0  0  0
   -0.3139   -0.0429    1.7050 H   0  0  0  0  0  0  0  0  0  0  0  0
   -0.4125    2.8632    1.1193 H   0  0  0  0  0  0  0  0  0  0  0  0
   -0.6972    3.2858   -0.5585 H   0  0  0  0  0  0  0  0  0  0  0  0
    1.5603    2.9896   -1.1947 H   0  0  0  0  0  0  0  0  0  0  0  0
    1.6528    3.7548    0.3939 H   0  0  0  0  0  0  0  0  0  0  0  0
    0.8681    0.7755   -3.8746 H   0  0  0  0  0  0  0  0  0  0  0  0
   -0.2945    1.6351   -5.8862 H   0  0  0  0  0  0  0  0  0  0  0  0
   -3.7587    2.5648   -3.5021 H   0  0  0  0  0  0  0  0  0  0  0  0
   -1.6603   -1.2810   -0.4248 H   0  0  0  0  0  0  0  0  0  0  0  0
   -3.2922   -0.7572   -0.9069 H   0  0  0  0  0  0  0  0  0  0  0  0
   -4.0199   -1.5129    3.6144 H   0  0  0  0  0  0  0  0  0  0  0  0
   -4.8311   -3.7610    4.3106 H   0  0  0  0  0  0  0  0  0  0  0  0
   -4.7158   -5.6389    2.6647 H   0  0  0  0  0  0  0  0  0  0  0  0
   -3.0930   -3.2259   -0.2373 H   0  0  0  0  0  0  0  0  0  0  0  0
  1  2  1  0
  2  3  2  0
  3  4  1  0
  4  5  2  0
  5  6  1  0
  6  7  2  0
  6  8  1  0
  8  9  1  0
  9 10  1  0
 10 11  1  0
 11 12  1  0
 12 13  1  0
 11 14  1  0
 14 15  1  0
 15 16  2  0
 16 17  1  0
 17 18  2  0
 18 19  1  0
 18 20  1  0
 20 21  2  0
 21 22  1  0
 22 23  2  0
 22 24  1  0
 24 25  1  0
 25 26  1  0
 26 27  1  0
 27 28  2  0
 28 29  1  0
 29 30  2  0
 30 31  1  0
 31 32  2  0
 26 33  2  0
 33 34  1  0
  5 35  1  0
 35  2  1  0
 13  8  1  0
 21 15  1  0
 34 24  1  0
 24 11  1  0
 32 27  1  0
  1 36  1  0
  1 37  1  0
  1 38  1  0
  3 39  1  0
  4 40  1  0
  9 41  1  0
  9 42  1  0
 10 43  1  0
 10 44  1  0
 12 45  1  0
 12 46  1  0
 13 47  1  0
 13 48  1  0
 16 49  1  0
 17 50  1  0
 20 51  1  0
 25 52  1  0
 25 53  1  0
 28 54  1  0
 29 55  1  0
 30 56  1  0
 32 57  1  0
M  END
$$$$
