
     RDKit          3D

 45 46  0  0  0  0  0  0  0  0999 V2000
    6.7422   -2.6472    1.7952 C   0  0  0  0  0  0  0  0  0  0  0  0
    5.6006   -2.7653    0.9539 O   0  0  0  0  0  0  0  0  0  0  0  0
    4.8773   -1.6260    0.7332 C   0  0  0  0  0  0  0  0  0  0  0  0
    3.7742   -1.7911   -0.1098 C   0  0  0  0  0  0  0  0  0  0  0  0
    2.9399   -0.7124   -0.4194 C   0  0  0  0  0  0  0  0  0  0  0  0
    3.1967    0.5493    0.1289 C   0  0  0  0  0  0  0  0  0  0  0  0
    2.3330    1.7195   -0.1662 C   0  0  0  0  0  0  0  0  0  0  0  0
    2.8211    2.8486   -0.1374 O   0  0  0  0  0  0  0  0  0  0  0  0
    0.8907    1.5608   -0.4778 C   0  0  0  0  0  0  0  0  0  0  0  0
    0.0926    0.6861    0.1537 C   0  0  0  0  0  0  0  0  0  0  0  0
   -1.3462    0.5576   -0.1233 C   0  0  0  0  0  0  0  0  0  0  0  0
   -1.9109   -0.7268   -0.1525 C   0  0  0  0  0  0  0  0  0  0  0  0
   -3.2769   -0.9001   -0.3891 C   0  0  0  0  0  0  0  0  0  0  0  0
   -3.9152   -2.1121   -0.4453 O   0  0  0  0  0  0  0  0  0  0  0  0
   -3.1083   -3.2812   -0.4273 C   0  0  0  0  0  0  0  0  0  0  0  0
   -4.0828    0.2365   -0.5684 C   0  0  0  0  0  0  0  0  0  0  0  0
   -5.4231    0.0748   -0.8457 O   0  0  0  0  0  0  0  0  0  0  0  0
   -6.1719    0.0796    0.3685 C   0  0  0  0  0  0  0  0  0  0  0  0
   -3.5364    1.5307   -0.5459 C   0  0  0  0  0  0  0  0  0  0  0  0
   -4.4150    2.5645   -0.7443 O   0  0  0  0  0  0  0  0  0  0  0  0
   -3.8716    3.8697   -0.8857 C   0  0  0  0  0  0  0  0  0  0  0  0
   -2.1679    1.6806   -0.3074 C   0  0  0  0  0  0  0  0  0  0  0  0
    4.3259    0.7164    0.9433 C   0  0  0  0  0  0  0  0  0  0  0  0
    4.6871    1.9285    1.4736 O   0  0  0  0  0  0  0  0  0  0  0  0
    5.1535   -0.3638    1.2570 C   0  0  0  0  0  0  0  0  0  0  0  0
    7.2053   -3.6358    1.8702 H   0  0  0  0  0  0  0  0  0  0  0  0
    6.4573   -2.3352    2.8054 H   0  0  0  0  0  0  0  0  0  0  0  0
    7.4817   -1.9649    1.3632 H   0  0  0  0  0  0  0  0  0  0  0  0
    3.5687   -2.7714   -0.5352 H   0  0  0  0  0  0  0  0  0  0  0  0
    2.1089   -0.8769   -1.0998 H   0  0  0  0  0  0  0  0  0  0  0  0
    0.5125    2.2737   -1.2035 H   0  0  0  0  0  0  0  0  0  0  0  0
    0.4813    0.0155    0.9170 H   0  0  0  0  0  0  0  0  0  0  0  0
   -1.2631   -1.5828    0.0075 H   0  0  0  0  0  0  0  0  0  0  0  0
   -2.6050   -3.3951    0.5383 H   0  0  0  0  0  0  0  0  0  0  0  0
   -2.3878   -3.2804   -1.2520 H   0  0  0  0  0  0  0  0  0  0  0  0
   -3.7671   -4.1445   -0.5620 H   0  0  0  0  0  0  0  0  0  0  0  0
   -5.8780   -0.7483    1.0230 H   0  0  0  0  0  0  0  0  0  0  0  0
   -7.2270   -0.0531    0.1110 H   0  0  0  0  0  0  0  0  0  0  0  0
   -6.0715    1.0338    0.8971 H   0  0  0  0  0  0  0  0  0  0  0  0
   -3.4198    4.2095    0.0518 H   0  0  0  0  0  0  0  0  0  0  0  0
   -3.1534    3.9149   -1.7111 H   0  0  0  0  0  0  0  0  0  0  0  0
   -4.6947    4.5505   -1.1234 H   0  0  0  0  0  0  0  0  0  0  0  0
   -1.7242    2.6689   -0.2459 H   0  0  0  0  0  0  0  0  0  0  0  0
    4.1613    2.6259    1.0203 H   0  0  0  0  0  0  0  0  0  0  0  0
    6.0065   -0.1813    1.9018 H   0  0  0  0  0  0  0  0  0  0  0  0
  1  2  1  0
  2  3  1  0
  3  4  2  0
  4  5  1  0
  5  6  2  0
  6  7  1  0
  7  8  2  0
  7  9  1  0
  9 10  2  0
 10 11  1  0
 11 12  2  0
 12 13  1  0
 13 14  1  0
 14 15  1  0
 13 16  2  0
 16 17  1  0
 17 18  1  0
 16 19  1  0
 19 20  1  0
 20 21  1  0
 19 22  2  0
  6 23  1  0
 23 24  1  0
 23 25  2  0
 25  3  1  0
 22 11  1  0
  1 26  1  0
  1 27  1  0
  1 28  1  0
  4 29  1  0
  5 30  1  0
  9 31  1  0
 10 32  1  0
 12 33  1  0
 15 34  1  0
 15 35  1  0
 15 36  1  0
 18 37  1  0
 18 38  1  0
 18 39  1  0
 21 40  1  0
 21 41  1  0
 21 42  1  0
 22 43  1  0
 24 44  1  0
 25 45  1  0
M  END
$$$$
