
     RDKit          3D

 51 54  0  0  0  0  0  0  0  0999 V2000
   -6.3753   -0.7283    1.3395 C   0  0  0  0  0  0  0  0  0  0  0  0
   -6.5875   -0.0826   -0.0278 C   0  0  0  0  0  0  0  0  0  0  0  0
   -5.7197    1.0937   -0.2114 N   0  0  0  0  0  0  0  0  0  0  0  0
   -6.3633    2.4129   -0.1002 C   0  0  0  0  0  0  0  0  0  0  0  0
   -6.4259    2.8892    1.3433 C   0  0  0  0  0  0  0  0  0  0  0  0
   -4.3491    0.9653   -0.4246 C   0  0  0  0  0  0  0  0  0  0  0  0
   -3.4576    2.0472   -0.2680 C   0  0  0  0  0  0  0  0  0  0  0  0
   -2.0719    1.9289   -0.4774 C   0  0  0  0  0  0  0  0  0  0  0  0
   -1.5288    0.7139   -0.8674 C   0  0  0  0  0  0  0  0  0  0  0  0
   -0.1094    0.5294   -1.1150 C   0  0  0  0  0  0  0  0  0  0  0  0
    0.3465   -0.6473   -1.5775 C   0  0  0  0  0  0  0  0  0  0  0  0
    1.7410   -0.7883   -1.8219 C   0  0  0  0  0  0  0  0  0  0  0  0
    2.7027   -0.6860   -0.9205 N   0  0  0  0  0  0  0  0  0  0  0  0
    3.9511   -0.8434   -1.5085 C   0  0  0  0  0  0  0  0  0  0  0  0
    5.1674   -0.8392   -0.6992 C   0  0  0  0  0  0  0  0  0  0  0  0
    5.0987   -1.2122    0.6533 C   0  0  0  0  0  0  0  0  0  0  0  0
    6.2520   -1.2701    1.4504 C   0  0  0  0  0  0  0  0  0  0  0  0
    7.4932   -0.9471    0.9062 C   0  0  0  0  0  0  0  0  0  0  0  0
    8.6937   -0.9811    1.5636 O   0  0  0  0  0  0  0  0  0  0  0  0
    8.6771   -1.4656    2.9019 C   0  0  0  0  0  0  0  0  0  0  0  0
    7.5656   -0.5437   -0.4283 C   0  0  0  0  0  0  0  0  0  0  0  0
    6.4145   -0.4869   -1.2290 C   0  0  0  0  0  0  0  0  0  0  0  0
    3.9262   -1.0319   -2.8752 C   0  0  0  0  0  0  0  0  0  0  0  0
    2.3116   -1.0284   -3.4440 S   0  0  0  0  0  0  0  0  0  0  0  0
   -0.5605   -1.7989   -1.8024 C   0  0  0  0  0  0  0  0  0  0  0  0
   -0.1714   -2.8782   -2.2344 O   0  0  0  0  0  0  0  0  0  0  0  0
   -1.9052   -1.6024   -1.4921 O   0  0  0  0  0  0  0  0  0  0  0  0
   -2.3892   -0.3569   -1.0462 C   0  0  0  0  0  0  0  0  0  0  0  0
   -3.7663   -0.2501   -0.8254 C   0  0  0  0  0  0  0  0  0  0  0  0
   -7.0297   -1.5988    1.4546 H   0  0  0  0  0  0  0  0  0  0  0  0
   -6.6079   -0.0220    2.1489 H   0  0  0  0  0  0  0  0  0  0  0  0
   -5.3446   -1.0672    1.4786 H   0  0  0  0  0  0  0  0  0  0  0  0
   -6.4437   -0.8151   -0.8346 H   0  0  0  0  0  0  0  0  0  0  0  0
   -7.6413    0.2131   -0.1027 H   0  0  0  0  0  0  0  0  0  0  0  0
   -5.8625    3.1529   -0.7336 H   0  0  0  0  0  0  0  0  0  0  0  0
   -7.3878    2.3609   -0.4971 H   0  0  0  0  0  0  0  0  0  0  0  0
   -5.4462    2.8463    1.8372 H   0  0  0  0  0  0  0  0  0  0  0  0
   -7.1226    2.2719    1.9272 H   0  0  0  0  0  0  0  0  0  0  0  0
   -6.7823    3.9246    1.3834 H   0  0  0  0  0  0  0  0  0  0  0  0
   -3.8212    3.0251    0.0369 H   0  0  0  0  0  0  0  0  0  0  0  0
   -1.4436    2.8020   -0.3411 H   0  0  0  0  0  0  0  0  0  0  0  0
    0.5576    1.3679   -0.9386 H   0  0  0  0  0  0  0  0  0  0  0  0
    4.1403   -1.4808    1.0962 H   0  0  0  0  0  0  0  0  0  0  0  0
    6.1401   -1.5748    2.4852 H   0  0  0  0  0  0  0  0  0  0  0  0
    8.2724   -2.4838    2.9601 H   0  0  0  0  0  0  0  0  0  0  0  0
    9.7124   -1.5049    3.2561 H   0  0  0  0  0  0  0  0  0  0  0  0
    8.1238   -0.7736    3.5539 H   0  0  0  0  0  0  0  0  0  0  0  0
    8.5291   -0.2759   -0.8549 H   0  0  0  0  0  0  0  0  0  0  0  0
    6.5164   -0.1556   -2.2611 H   0  0  0  0  0  0  0  0  0  0  0  0
    4.7499   -1.1866   -3.5611 H   0  0  0  0  0  0  0  0  0  0  0  0
   -4.3688   -1.1376   -1.0006 H   0  0  0  0  0  0  0  0  0  0  0  0
  1  2  1  0
  2  3  1  0
  3  4  1  0
  4  5  1  0
  3  6  1  0
  6  7  2  0
  7  8  1  0
  8  9  2  0
  9 10  1  0
 10 11  2  0
 11 12  1  0
 12 13  2  0
 13 14  1  0
 14 15  1  0
 15 16  2  0
 16 17  1  0
 17 18  2  0
 18 19  1  0
 19 20  1  0
 18 21  1  0
 21 22  2  0
 14 23  2  0
 23 24  1  0
 11 25  1  0
 25 26  2  0
 25 27  1  0
 27 28  1  0
 28 29  2  0
 29  6  1  0
 28  9  1  0
 24 12  1  0
 22 15  1  0
  1 30  1  0
  1 31  1  0
  1 32  1  0
  2 33  1  0
  2 34  1  0
  4 35  1  0
  4 36  1  0
  5 37  1  0
  5 38  1  0
  5 39  1  0
  7 40  1  0
  8 41  1  0
 10 42  1  0
 16 43  1  0
 17 44  1  0
 20 45  1  0
 20 46  1  0
 20 47  1  0
 21 48  1  0
 22 49  1  0
 23 50  1  0
 29 51  1  0
M  END
$$$$
