
     RDKit          3D

 36 37  0  0  0  0  0  0  0  0999 V2000
   -7.0103    1.1409    0.7250 C   0  0  0  0  0  0  0  0  0  0  0  0
   -6.4351   -0.0558    0.2156 O   0  0  0  0  0  0  0  0  0  0  0  0
   -5.0731   -0.1603    0.2679 C   0  0  0  0  0  0  0  0  0  0  0  0
   -4.5602   -1.3555   -0.2422 C   0  0  0  0  0  0  0  0  0  0  0  0
   -3.1833   -1.5952   -0.2508 C   0  0  0  0  0  0  0  0  0  0  0  0
   -2.2994   -0.6350    0.2538 C   0  0  0  0  0  0  0  0  0  0  0  0
   -0.8418   -0.9344    0.2231 C   0  0  0  0  0  0  0  0  0  0  0  0
   -0.3763   -1.9776   -0.2070 O   0  0  0  0  0  0  0  0  0  0  0  0
   -0.1295    0.1057    0.7245 O   0  0  0  0  0  0  0  0  0  0  0  0
    1.2961   -0.0809    0.7574 C   0  0  0  0  0  0  0  0  0  0  0  0
    1.9120    0.2596   -0.5988 C   0  0  0  0  0  0  0  0  0  0  0  0
    3.4144    0.1489   -0.5799 C   0  0  0  0  0  0  0  0  0  0  0  0
    4.2114    1.2783   -0.3450 C   0  0  0  0  0  0  0  0  0  0  0  0
    5.6035    1.1680   -0.3094 C   0  0  0  0  0  0  0  0  0  0  0  0
    6.1970   -0.0748   -0.5049 C   0  0  0  0  0  0  0  0  0  0  0  0
    7.5518   -0.2273   -0.4777 O   0  0  0  0  0  0  0  0  0  0  0  0
    5.4226   -1.2052   -0.7339 C   0  0  0  0  0  0  0  0  0  0  0  0
    4.0321   -1.0951   -0.7702 C   0  0  0  0  0  0  0  0  0  0  0  0
   -2.8129    0.5638    0.7659 C   0  0  0  0  0  0  0  0  0  0  0  0
   -4.1943    0.7990    0.7723 C   0  0  0  0  0  0  0  0  0  0  0  0
   -6.6759    2.0135    0.1543 H   0  0  0  0  0  0  0  0  0  0  0  0
   -6.7948    1.2593    1.7921 H   0  0  0  0  0  0  0  0  0  0  0  0
   -8.0960    1.0647    0.6112 H   0  0  0  0  0  0  0  0  0  0  0  0
   -5.2391   -2.1082   -0.6368 H   0  0  0  0  0  0  0  0  0  0  0  0
   -2.8074   -2.5341   -0.6530 H   0  0  0  0  0  0  0  0  0  0  0  0
    1.6831    0.5950    1.5286 H   0  0  0  0  0  0  0  0  0  0  0  0
    1.5466   -1.0988    1.0820 H   0  0  0  0  0  0  0  0  0  0  0  0
    1.5054   -0.3924   -1.3819 H   0  0  0  0  0  0  0  0  0  0  0  0
    1.6106    1.2722   -0.8968 H   0  0  0  0  0  0  0  0  0  0  0  0
    3.7520    2.2520   -0.1896 H   0  0  0  0  0  0  0  0  0  0  0  0
    6.2017    2.0552   -0.1288 H   0  0  0  0  0  0  0  0  0  0  0  0
    7.9569    0.6410   -0.3210 H   0  0  0  0  0  0  0  0  0  0  0  0
    5.8988   -2.1698   -0.8838 H   0  0  0  0  0  0  0  0  0  0  0  0
    3.4328   -1.9861   -0.9486 H   0  0  0  0  0  0  0  0  0  0  0  0
   -2.1511    1.3282    1.1662 H   0  0  0  0  0  0  0  0  0  0  0  0
   -4.5484    1.7410    1.1785 H   0  0  0  0  0  0  0  0  0  0  0  0
  1  2  1  0
  2  3  1  0
  3  4  2  0
  4  5  1  0
  5  6  2  0
  6  7  1  0
  7  8  2  0
  7  9  1  0
  9 10  1  0
 10 11  1  0
 11 12  1  0
 12 13  2  0
 13 14  1  0
 14 15  2  0
 15 16  1  0
 15 17  1  0
 17 18  2  0
  6 19  1  0
 19 20  2  0
 20  3  1  0
 18 12  1  0
  1 21  1  0
  1 22  1  0
  1 23  1  0
  4 24  1  0
  5 25  1  0
 10 26  1  0
 10 27  1  0
 11 28  1  0
 11 29  1  0
 13 30  1  0
 14 31  1  0
 16 32  1  0
 17 33  1  0
 18 34  1  0
 19 35  1  0
 20 36  1  0
M  END
$$$$
