
     RDKit          3D

 43 45  0  0  0  0  0  0  0  0999 V2000
   -7.6978   -0.3307    0.9289 C   0  0  0  0  0  0  0  0  0  0  0  0
   -6.8126   -0.3578   -0.2342 N   0  0  0  0  0  0  0  0  0  0  0  0
   -7.2783    0.3957   -1.3974 C   0  0  0  0  0  0  0  0  0  0  0  0
   -5.4350   -0.5093   -0.0336 C   0  0  0  0  0  0  0  0  0  0  0  0
   -4.9006   -0.9599    1.1857 C   0  0  0  0  0  0  0  0  0  0  0  0
   -3.5209   -1.1278    1.3867 C   0  0  0  0  0  0  0  0  0  0  0  0
   -2.6120   -0.8485    0.3676 C   0  0  0  0  0  0  0  0  0  0  0  0
   -1.1781   -1.0643    0.6051 C   0  0  0  0  0  0  0  0  0  0  0  0
   -0.2097   -0.2803    0.1047 C   0  0  0  0  0  0  0  0  0  0  0  0
    1.1974   -0.5175    0.3650 C   0  0  0  0  0  0  0  0  0  0  0  0
    2.2294    0.2088   -0.0896 C   0  0  0  0  0  0  0  0  0  0  0  0
    2.1774    1.5997   -1.0840 S   0  0  0  0  0  0  0  0  0  0  0  0
    3.9362    1.7179   -1.1776 C   0  0  0  0  0  0  0  0  0  0  0  0
    4.6276    2.8153   -2.2379 S   0  0  0  0  0  0  0  0  0  0  0  0
    4.5214    0.7583   -0.3570 N   0  0  0  0  0  0  0  0  0  0  0  0
    5.9328    0.6321   -0.1265 C   0  0  0  0  0  0  0  0  0  0  0  0
    6.5361   -0.6339   -0.0472 C   0  0  0  0  0  0  0  0  0  0  0  0
    7.9087   -0.7695    0.1847 C   0  0  0  0  0  0  0  0  0  0  0  0
    8.7029    0.3595    0.3530 C   0  0  0  0  0  0  0  0  0  0  0  0
    8.1232    1.6226    0.2978 C   0  0  0  0  0  0  0  0  0  0  0  0
    6.7499    1.7568    0.0653 C   0  0  0  0  0  0  0  0  0  0  0  0
    3.6380   -0.1340    0.2533 C   0  0  0  0  0  0  0  0  0  0  0  0
    3.9047   -1.0671    1.0024 O   0  0  0  0  0  0  0  0  0  0  0  0
   -3.1169   -0.4327   -0.8634 C   0  0  0  0  0  0  0  0  0  0  0  0
   -4.4988   -0.2689   -1.0542 C   0  0  0  0  0  0  0  0  0  0  0  0
   -8.7436   -0.1984    0.6293 H   0  0  0  0  0  0  0  0  0  0  0  0
   -7.4400    0.4950    1.6014 H   0  0  0  0  0  0  0  0  0  0  0  0
   -7.6620   -1.2782    1.4771 H   0  0  0  0  0  0  0  0  0  0  0  0
   -8.3727    0.4481   -1.4248 H   0  0  0  0  0  0  0  0  0  0  0  0
   -6.9794   -0.0917   -2.3316 H   0  0  0  0  0  0  0  0  0  0  0  0
   -6.8990    1.4234   -1.3792 H   0  0  0  0  0  0  0  0  0  0  0  0
   -5.5467   -1.2010    2.0241 H   0  0  0  0  0  0  0  0  0  0  0  0
   -3.1737   -1.4763    2.3567 H   0  0  0  0  0  0  0  0  0  0  0  0
   -0.9336   -1.9092    1.2454 H   0  0  0  0  0  0  0  0  0  0  0  0
   -0.4744    0.5768   -0.5104 H   0  0  0  0  0  0  0  0  0  0  0  0
    1.4183   -1.3790    0.9972 H   0  0  0  0  0  0  0  0  0  0  0  0
    5.9557   -1.5432   -0.1879 H   0  0  0  0  0  0  0  0  0  0  0  0
    8.3536   -1.7604    0.2334 H   0  0  0  0  0  0  0  0  0  0  0  0
    9.7693    0.2550    0.5353 H   0  0  0  0  0  0  0  0  0  0  0  0
    8.7363    2.5084    0.4458 H   0  0  0  0  0  0  0  0  0  0  0  0
    6.3368    2.7618    0.0839 H   0  0  0  0  0  0  0  0  0  0  0  0
   -2.4520   -0.2433   -1.7023 H   0  0  0  0  0  0  0  0  0  0  0  0
   -4.8182    0.0477   -2.0422 H   0  0  0  0  0  0  0  0  0  0  0  0
  1  2  1  0
  2  3  1  0
  2  4  1  0
  4  5  2  0
  5  6  1  0
  6  7  2  0
  7  8  1  0
  8  9  2  3
  9 10  1  0
 10 11  2  3
 11 12  1  0
 12 13  1  0
 13 14  2  0
 13 15  1  0
 15 16  1  0
 16 17  2  0
 17 18  1  0
 18 19  2  0
 19 20  1  0
 20 21  2  0
 15 22  1  0
 22 23  2  0
  7 24  1  0
 24 25  2  0
 25  4  1  0
 22 11  1  0
 21 16  1  0
  1 26  1  0
  1 27  1  0
  1 28  1  0
  3 29  1  0
  3 30  1  0
  3 31  1  0
  5 32  1  0
  6 33  1  0
  8 34  1  0
  9 35  1  0
 10 36  1  0
 17 37  1  0
 18 38  1  0
 19 39  1  0
 20 40  1  0
 21 41  1  0
 24 42  1  0
 25 43  1  0
M  END
$$$$
