
     RDKit          3D

 39 41  0  0  0  0  0  0  0  0999 V2000
   -2.1171    0.7467   -2.1731 C   0  0  0  0  0  0  0  0  0  0  0  0
   -1.7528    0.0658   -0.9782 O   0  0  0  0  0  0  0  0  0  0  0  0
   -2.7774   -0.4127   -0.1985 C   0  0  0  0  0  0  0  0  0  0  0  0
   -4.1393   -0.1680   -0.4013 C   0  0  0  0  0  0  0  0  0  0  0  0
   -5.1019   -0.6869    0.4844 C   0  0  0  0  0  0  0  0  0  0  0  0
   -6.5618   -0.4335    0.2376 C   0  0  0  0  0  0  0  0  0  0  0  0
   -4.6896   -1.4616    1.5743 C   0  0  0  0  0  0  0  0  0  0  0  0
   -3.3341   -1.7189    1.7827 C   0  0  0  0  0  0  0  0  0  0  0  0
   -2.3894   -1.1886    0.9041 C   0  0  0  0  0  0  0  0  0  0  0  0
   -1.0601   -1.4938    1.0418 O   0  0  0  0  0  0  0  0  0  0  0  0
   -0.5063   -0.9543    2.2463 C   0  0  0  0  0  0  0  0  0  0  0  0
    0.9844   -0.7088    2.0160 C   0  0  0  0  0  0  0  0  0  0  0  0
    1.7897   -0.8223    2.9407 O   0  0  0  0  0  0  0  0  0  0  0  0
    1.2516   -0.3449    0.7118 N   0  0  0  0  0  0  0  0  0  0  0  0
    2.4676   -0.0301    0.1659 C   0  0  0  0  0  0  0  0  0  0  0  0
    2.6318    0.1718   -1.1276 N   0  0  0  0  0  0  0  0  0  0  0  0
    3.9450    0.4656   -1.4457 N   0  0  0  0  0  0  0  0  0  0  0  0
    4.7022    0.5060   -0.3684 C   0  0  0  0  0  0  0  0  0  0  0  0
    6.2323    0.8186   -0.4249 C   0  0  0  0  0  0  0  0  0  0  0  0
    6.6766    2.2525   -0.5768 C   0  0  0  0  0  0  0  0  0  0  0  0
    6.8537    1.2900   -1.7171 C   0  0  0  0  0  0  0  0  0  0  0  0
    3.8831    0.1763    1.0968 S   0  0  0  0  0  0  0  0  0  0  0  0
   -1.1925    1.0467   -2.6820 H   0  0  0  0  0  0  0  0  0  0  0  0
   -2.6714    0.0878   -2.8471 H   0  0  0  0  0  0  0  0  0  0  0  0
   -2.6879    1.6600   -1.9512 H   0  0  0  0  0  0  0  0  0  0  0  0
   -4.4838    0.4212   -1.2450 H   0  0  0  0  0  0  0  0  0  0  0  0
   -6.7492    0.6402    0.1341 H   0  0  0  0  0  0  0  0  0  0  0  0
   -7.1784   -0.8012    1.0657 H   0  0  0  0  0  0  0  0  0  0  0  0
   -6.8802   -0.9468   -0.6755 H   0  0  0  0  0  0  0  0  0  0  0  0
   -5.4224   -1.8830    2.2604 H   0  0  0  0  0  0  0  0  0  0  0  0
   -3.0275   -2.3479    2.6134 H   0  0  0  0  0  0  0  0  0  0  0  0
   -0.9613    0.0070    2.5281 H   0  0  0  0  0  0  0  0  0  0  0  0
   -0.6208   -1.6907    3.0532 H   0  0  0  0  0  0  0  0  0  0  0  0
    0.4870   -0.4006    0.0409 H   0  0  0  0  0  0  0  0  0  0  0  0
    6.8394    0.1757    0.2046 H   0  0  0  0  0  0  0  0  0  0  0  0
    7.5639    2.5673   -0.0378 H   0  0  0  0  0  0  0  0  0  0  0  0
    5.9229    3.0256   -0.6873 H   0  0  0  0  0  0  0  0  0  0  0  0
    7.8558    0.9482   -1.9527 H   0  0  0  0  0  0  0  0  0  0  0  0
    6.2183    1.4217   -2.5852 H   0  0  0  0  0  0  0  0  0  0  0  0
  1  2  1  0
  2  3  1  0
  3  4  2  0
  4  5  1  0
  5  6  1  0
  5  7  2  0
  7  8  1  0
  8  9  2  0
  9 10  1  0
 10 11  1  0
 11 12  1  0
 12 13  2  0
 12 14  1  0
 14 15  1  0
 15 16  2  0
 16 17  1  0
 17 18  2  0
 18 19  1  0
 19 20  1  0
 20 21  1  0
 18 22  1  0
  9  3  1  0
 22 15  1  0
 21 19  1  0
  1 23  1  0
  1 24  1  0
  1 25  1  0
  4 26  1  0
  6 27  1  0
  6 28  1  0
  6 29  1  0
  7 30  1  0
  8 31  1  0
 11 32  1  0
 11 33  1  0
 14 34  1  0
 19 35  1  0
 20 36  1  0
 20 37  1  0
 21 38  1  0
 21 39  1  0
M  END
$$$$
