
     RDKit          3D

 39 41  0  0  0  0  0  0  0  0999 V2000
   -1.4591    1.3914   -1.6897 O   0  0  0  0  0  0  0  0  0  0  0  0
   -1.6585    0.9823   -0.5517 C   0  0  0  0  0  0  0  0  0  0  0  0
   -3.0355    0.5052   -0.0698 C   0  0  0  0  0  0  0  0  0  0  0  0
   -4.0232    0.6431   -1.0773 O   0  0  0  0  0  0  0  0  0  0  0  0
   -5.2953    0.2505   -0.7677 C   0  0  0  0  0  0  0  0  0  0  0  0
   -6.2214    0.4182   -1.8006 C   0  0  0  0  0  0  0  0  0  0  0  0
   -7.5584    0.0592   -1.6238 C   0  0  0  0  0  0  0  0  0  0  0  0
   -7.9783   -0.4721   -0.4072 C   0  0  0  0  0  0  0  0  0  0  0  0
   -7.0607   -0.6429    0.6281 C   0  0  0  0  0  0  0  0  0  0  0  0
   -5.7207   -0.2828    0.4500 C   0  0  0  0  0  0  0  0  0  0  0  0
   -0.7115    0.8859    0.4522 N   0  0  0  0  0  0  0  0  0  0  0  0
    0.5948    1.2390    0.2529 C   0  0  0  0  0  0  0  0  0  0  0  0
    1.2043    1.6967   -0.8113 N   0  0  0  0  0  0  0  0  0  0  0  0
    2.5493    1.9150   -0.5791 N   0  0  0  0  0  0  0  0  0  0  0  0
    2.8982    1.6048    0.6540 C   0  0  0  0  0  0  0  0  0  0  0  0
    4.2831    1.7364    1.1974 C   0  0  0  0  0  0  0  0  0  0  0  0
    4.7043    0.4958    1.7750 O   0  0  0  0  0  0  0  0  0  0  0  0
    5.3005   -0.4298    0.9636 C   0  0  0  0  0  0  0  0  0  0  0  0
    5.3240   -0.4132   -0.4314 C   0  0  0  0  0  0  0  0  0  0  0  0
    5.9634   -1.4395   -1.1346 C   0  0  0  0  0  0  0  0  0  0  0  0
    6.5773   -2.4862   -0.4495 C   0  0  0  0  0  0  0  0  0  0  0  0
    6.5493   -2.5124    0.9421 C   0  0  0  0  0  0  0  0  0  0  0  0
    5.9097   -1.4889    1.6433 C   0  0  0  0  0  0  0  0  0  0  0  0
    1.5891    1.0523    1.6285 S   0  0  0  0  0  0  0  0  0  0  0  0
   -2.9314   -0.5498    0.2124 H   0  0  0  0  0  0  0  0  0  0  0  0
   -3.3042    1.1127    0.8033 H   0  0  0  0  0  0  0  0  0  0  0  0
   -5.8957    0.8327   -2.7522 H   0  0  0  0  0  0  0  0  0  0  0  0
   -8.2678    0.1950   -2.4358 H   0  0  0  0  0  0  0  0  0  0  0  0
   -9.0188   -0.7529   -0.2665 H   0  0  0  0  0  0  0  0  0  0  0  0
   -7.3895   -1.0584    1.5773 H   0  0  0  0  0  0  0  0  0  0  0  0
   -5.0417   -0.4336    1.2812 H   0  0  0  0  0  0  0  0  0  0  0  0
   -0.9516    0.5434    1.3695 H   0  0  0  0  0  0  0  0  0  0  0  0
    4.2794    2.4794    2.0034 H   0  0  0  0  0  0  0  0  0  0  0  0
    4.9940    2.1033    0.4479 H   0  0  0  0  0  0  0  0  0  0  0  0
    4.8449    0.3688   -1.0123 H   0  0  0  0  0  0  0  0  0  0  0  0
    5.9747   -1.4224   -2.2220 H   0  0  0  0  0  0  0  0  0  0  0  0
    7.0716   -3.2820   -1.0007 H   0  0  0  0  0  0  0  0  0  0  0  0
    7.0223   -3.3282    1.4820 H   0  0  0  0  0  0  0  0  0  0  0  0
    5.8890   -1.5162    2.7300 H   0  0  0  0  0  0  0  0  0  0  0  0
  1  2  2  0
  2  3  1  0
  3  4  1  0
  4  5  1  0
  5  6  2  0
  6  7  1  0
  7  8  2  0
  8  9  1  0
  9 10  2  0
  2 11  1  0
 11 12  1  0
 12 13  2  0
 13 14  1  0
 14 15  2  0
 15 16  1  0
 16 17  1  0
 17 18  1  0
 18 19  2  0
 19 20  1  0
 20 21  2  0
 21 22  1  0
 22 23  2  0
 15 24  1  0
 10  5  1  0
 24 12  1  0
 23 18  1  0
  3 25  1  0
  3 26  1  0
  6 27  1  0
  7 28  1  0
  8 29  1  0
  9 30  1  0
 10 31  1  0
 11 32  1  0
 16 33  1  0
 16 34  1  0
 19 35  1  0
 20 36  1  0
 21 37  1  0
 22 38  1  0
 23 39  1  0
M  END
$$$$
