
     RDKit          3D

 47 49  0  0  0  0  0  0  0  0999 V2000
   -2.5962   -0.5235    2.8120 O   0  0  0  0  0  0  0  0  0  0  0  0
   -3.1864    0.1349    1.9604 C   0  0  0  0  0  0  0  0  0  0  0  0
   -4.6685    0.4900    2.1364 C   0  0  0  0  0  0  0  0  0  0  0  0
   -5.3419    0.8609    0.9385 O   0  0  0  0  0  0  0  0  0  0  0  0
   -5.8143   -0.1388    0.1329 C   0  0  0  0  0  0  0  0  0  0  0  0
   -5.5344   -1.5007    0.2584 C   0  0  0  0  0  0  0  0  0  0  0  0
   -6.0712   -2.4144   -0.6558 C   0  0  0  0  0  0  0  0  0  0  0  0
   -6.8837   -1.9655   -1.6947 C   0  0  0  0  0  0  0  0  0  0  0  0
   -7.6053   -3.2033   -2.9265 Br  0  0  0  0  0  0  0  0  0  0  0  0
   -7.1642   -0.6092   -1.8309 C   0  0  0  0  0  0  0  0  0  0  0  0
   -6.6261    0.3002   -0.9177 C   0  0  0  0  0  0  0  0  0  0  0  0
   -2.6487    0.6565    0.7970 N   0  0  0  0  0  0  0  0  0  0  0  0
   -1.3293    0.5443    0.3235 C   0  0  0  0  0  0  0  0  0  0  0  0
   -1.0497    1.1092   -0.9262 C   0  0  0  0  0  0  0  0  0  0  0  0
    0.2383    1.0415   -1.4671 C   0  0  0  0  0  0  0  0  0  0  0  0
    1.2703    0.4157   -0.7595 C   0  0  0  0  0  0  0  0  0  0  0  0
    2.6279    0.3647   -1.3812 C   0  0  0  0  0  0  0  0  0  0  0  0
    2.7035    0.3724   -2.6048 O   0  0  0  0  0  0  0  0  0  0  0  0
    3.6837    0.3471   -0.4911 N   0  0  0  0  0  0  0  0  0  0  0  0
    5.0740    0.2751   -0.7711 C   0  0  0  0  0  0  0  0  0  0  0  0
    5.5650    0.1437   -2.0761 C   0  0  0  0  0  0  0  0  0  0  0  0
    6.9394    0.0781   -2.3274 C   0  0  0  0  0  0  0  0  0  0  0  0
    7.8489    0.1402   -1.2780 C   0  0  0  0  0  0  0  0  0  0  0  0
    7.3852    0.2638    0.0298 C   0  0  0  0  0  0  0  0  0  0  0  0
    6.0052    0.3300    0.2943 C   0  0  0  0  0  0  0  0  0  0  0  0
    5.5339    0.4521    1.7017 C   0  0  0  0  0  0  0  0  0  0  0  0
    4.3673    0.4839    2.0575 O   0  0  0  0  0  0  0  0  0  0  0  0
    6.5320    0.5301    2.6001 O   0  0  0  0  0  0  0  0  0  0  0  0
    0.9904   -0.1642    0.4830 C   0  0  0  0  0  0  0  0  0  0  0  0
   -0.3021   -0.0940    1.0209 C   0  0  0  0  0  0  0  0  0  0  0  0
   -5.1919   -0.3194    2.6585 H   0  0  0  0  0  0  0  0  0  0  0  0
   -4.6993    1.3630    2.7983 H   0  0  0  0  0  0  0  0  0  0  0  0
   -4.8972   -1.8932    1.0448 H   0  0  0  0  0  0  0  0  0  0  0  0
   -5.8450   -3.4726   -0.5487 H   0  0  0  0  0  0  0  0  0  0  0  0
   -7.7958   -0.2494   -2.6387 H   0  0  0  0  0  0  0  0  0  0  0  0
   -6.8467    1.3598   -1.0252 H   0  0  0  0  0  0  0  0  0  0  0  0
   -3.3118    1.1371    0.1945 H   0  0  0  0  0  0  0  0  0  0  0  0
   -1.8278    1.6039   -1.5022 H   0  0  0  0  0  0  0  0  0  0  0  0
    0.4350    1.4821   -2.4433 H   0  0  0  0  0  0  0  0  0  0  0  0
    3.4569    0.4565    0.4977 H   0  0  0  0  0  0  0  0  0  0  0  0
    4.8996    0.0860   -2.9323 H   0  0  0  0  0  0  0  0  0  0  0  0
    7.2933   -0.0226   -3.3512 H   0  0  0  0  0  0  0  0  0  0  0  0
    8.9165    0.0896   -1.4769 H   0  0  0  0  0  0  0  0  0  0  0  0
    8.1111    0.3064    0.8386 H   0  0  0  0  0  0  0  0  0  0  0  0
    6.0795    0.6058    3.4665 H   0  0  0  0  0  0  0  0  0  0  0  0
    1.7524   -0.6979    1.0456 H   0  0  0  0  0  0  0  0  0  0  0  0
   -0.4716   -0.5563    1.9889 H   0  0  0  0  0  0  0  0  0  0  0  0
  1  2  2  0
  2  3  1  0
  3  4  1  0
  4  5  1  0
  5  6  2  0
  6  7  1  0
  7  8  2  0
  8  9  1  0
  8 10  1  0
 10 11  2  0
  2 12  1  0
 12 13  1  0
 13 14  2  0
 14 15  1  0
 15 16  2  0
 16 17  1  0
 17 18  2  0
 17 19  1  0
 19 20  1  0
 20 21  2  0
 21 22  1  0
 22 23  2  0
 23 24  1  0
 24 25  2  0
 25 26  1  0
 26 27  2  0
 26 28  1  0
 16 29  1  0
 29 30  2  0
 11  5  1  0
 30 13  1  0
 25 20  1  0
  3 31  1  0
  3 32  1  0
  6 33  1  0
  7 34  1  0
 10 35  1  0
 11 36  1  0
 12 37  1  0
 14 38  1  0
 15 39  1  0
 19 40  1  0
 21 41  1  0
 22 42  1  0
 23 43  1  0
 24 44  1  0
 28 45  1  0
 29 46  1  0
 30 47  1  0
M  END
$$$$
