
     RDKit          3D

 35 36  0  0  0  0  0  0  0  0999 V2000
   -6.1738   -1.6619   -1.6644 C   0  0  0  0  0  0  0  0  0  0  0  0
   -4.9355   -0.8949   -1.3070 C   0  0  0  0  0  0  0  0  0  0  0  0
   -3.9385   -1.4822   -0.5226 C   0  0  0  0  0  0  0  0  0  0  0  0
   -2.7646   -0.7842   -0.2117 C   0  0  0  0  0  0  0  0  0  0  0  0
   -2.5576    0.5120   -0.6877 C   0  0  0  0  0  0  0  0  0  0  0  0
   -1.3935    1.2656   -0.4047 N   0  0  0  0  0  0  0  0  0  0  0  0
   -0.2844    0.8836    0.3317 C   0  0  0  0  0  0  0  0  0  0  0  0
   -0.1155   -0.2001    0.8844 O   0  0  0  0  0  0  0  0  0  0  0  0
    0.7646    2.0021    0.4254 C   0  0  0  0  0  0  0  0  0  0  0  0
    2.0456    1.5293    0.8346 O   0  0  0  0  0  0  0  0  0  0  0  0
    2.6966    0.8383   -0.1302 C   0  0  0  0  0  0  0  0  0  0  0  0
    2.3357    0.6663   -1.2818 O   0  0  0  0  0  0  0  0  0  0  0  0
    3.8930    0.2155    0.4505 C   0  0  0  0  0  0  0  0  0  0  0  0
    3.9637   -1.1837    0.4102 C   0  0  0  0  0  0  0  0  0  0  0  0
    5.0748   -1.8289    0.9457 C   0  0  0  0  0  0  0  0  0  0  0  0
    5.1680   -3.5454    0.9096 Cl  0  0  0  0  0  0  0  0  0  0  0  0
    6.1154   -1.0923    1.5114 C   0  0  0  0  0  0  0  0  0  0  0  0
    6.0485    0.3039    1.5364 C   0  0  0  0  0  0  0  0  0  0  0  0
    4.9379    0.9644    1.0017 C   0  0  0  0  0  0  0  0  0  0  0  0
    4.9448    2.6907    1.0134 Cl  0  0  0  0  0  0  0  0  0  0  0  0
   -3.5582    1.0932   -1.4885 C   0  0  0  0  0  0  0  0  0  0  0  0
   -3.3657    2.8536   -2.1895 Br  0  0  0  0  0  0  0  0  0  0  0  0
   -4.7317    0.3971   -1.8000 C   0  0  0  0  0  0  0  0  0  0  0  0
   -7.0260   -0.9872   -1.7978 H   0  0  0  0  0  0  0  0  0  0  0  0
   -6.4397   -2.3670   -0.8699 H   0  0  0  0  0  0  0  0  0  0  0  0
   -6.0141   -2.2186   -2.5929 H   0  0  0  0  0  0  0  0  0  0  0  0
   -4.0632   -2.4947   -0.1423 H   0  0  0  0  0  0  0  0  0  0  0  0
   -2.0295   -1.2916    0.4053 H   0  0  0  0  0  0  0  0  0  0  0  0
   -1.3748    2.1846   -0.8348 H   0  0  0  0  0  0  0  0  0  0  0  0
    0.4204    2.7105    1.1866 H   0  0  0  0  0  0  0  0  0  0  0  0
    0.8422    2.5478   -0.5227 H   0  0  0  0  0  0  0  0  0  0  0  0
    3.1505   -1.7579   -0.0299 H   0  0  0  0  0  0  0  0  0  0  0  0
    6.9834   -1.5979    1.9286 H   0  0  0  0  0  0  0  0  0  0  0  0
    6.8710    0.8701    1.9684 H   0  0  0  0  0  0  0  0  0  0  0  0
   -5.4900    0.8601   -2.4276 H   0  0  0  0  0  0  0  0  0  0  0  0
  1  2  1  0
  2  3  2  0
  3  4  1  0
  4  5  2  0
  5  6  1  0
  6  7  1  0
  7  8  2  0
  7  9  1  0
  9 10  1  0
 10 11  1  0
 11 12  2  0
 11 13  1  0
 13 14  2  0
 14 15  1  0
 15 16  1  0
 15 17  2  0
 17 18  1  0
 18 19  2  0
 19 20  1  0
  5 21  1  0
 21 22  1  0
 21 23  2  0
 23  2  1  0
 19 13  1  0
  1 24  1  0
  1 25  1  0
  1 26  1  0
  3 27  1  0
  4 28  1  0
  6 29  1  0
  9 30  1  0
  9 31  1  0
 14 32  1  0
 17 33  1  0
 18 34  1  0
 23 35  1  0
M  END
$$$$
