
     RDKit          3D

 34 36  0  0  0  0  0  0  0  0999 V2000
   -0.0088   -2.1121   -0.9656 O   0  0  0  0  0  0  0  0  0  0  0  0
    0.3844   -1.0507   -0.5022 C   0  0  0  0  0  0  0  0  0  0  0  0
    1.8135   -0.9045   -0.1741 C   0  0  0  0  0  0  0  0  0  0  0  0
    2.3503   -1.6746    0.8615 C   0  0  0  0  0  0  0  0  0  0  0  0
    3.7060   -1.5570    1.1738 C   0  0  0  0  0  0  0  0  0  0  0  0
    4.5127   -0.6839    0.4418 C   0  0  0  0  0  0  0  0  0  0  0  0
    6.1825   -0.5388    0.8298 Cl  0  0  0  0  0  0  0  0  0  0  0  0
    3.9792    0.0694   -0.6062 C   0  0  0  0  0  0  0  0  0  0  0  0
    2.6238   -0.0440   -0.9222 C   0  0  0  0  0  0  0  0  0  0  0  0
   -0.4501    0.0088   -0.2579 N   0  0  0  0  0  0  0  0  0  0  0  0
   -0.1452    1.2647    0.4420 C   0  0  0  0  0  0  0  0  0  0  0  0
   -0.7556    1.1250    1.8143 C   0  0  0  0  0  0  0  0  0  0  0  0
   -2.0912    1.1955    1.6776 C   0  0  0  0  0  0  0  0  0  0  0  0
   -2.3672    1.2933    0.1845 C   0  0  0  0  0  0  0  0  0  0  0  0
   -1.1800    2.2154   -0.1585 C   0  0  0  0  0  0  0  0  0  0  0  0
   -1.9502   -0.0573   -0.5157 C   0  0  0  0  0  0  0  0  0  0  0  0
   -2.7095   -1.2448    0.0848 C   0  0  0  0  0  0  0  0  0  0  0  0
   -4.0365   -0.9603    0.1680 F   0  0  0  0  0  0  0  0  0  0  0  0
   -2.3087   -1.5297    1.3488 F   0  0  0  0  0  0  0  0  0  0  0  0
   -2.6106   -2.3896   -0.6171 F   0  0  0  0  0  0  0  0  0  0  0  0
   -2.3569   -0.0533   -1.9868 C   0  0  0  0  0  0  0  0  0  0  0  0
   -2.0649   -1.1895   -2.6469 F   0  0  0  0  0  0  0  0  0  0  0  0
   -3.6874    0.1628   -2.1257 F   0  0  0  0  0  0  0  0  0  0  0  0
   -1.7450    0.9463   -2.6717 F   0  0  0  0  0  0  0  0  0  0  0  0
    1.7186   -2.3650    1.4162 H   0  0  0  0  0  0  0  0  0  0  0  0
    4.1277   -2.1526    1.9796 H   0  0  0  0  0  0  0  0  0  0  0  0
    4.6155    0.7358   -1.1832 H   0  0  0  0  0  0  0  0  0  0  0  0
    2.2092    0.5240   -1.7512 H   0  0  0  0  0  0  0  0  0  0  0  0
    0.8890    1.6031    0.4194 H   0  0  0  0  0  0  0  0  0  0  0  0
   -0.2077    0.9854    2.7342 H   0  0  0  0  0  0  0  0  0  0  0  0
   -2.8289    1.1006    2.4618 H   0  0  0  0  0  0  0  0  0  0  0  0
   -3.3493    1.6958   -0.0689 H   0  0  0  0  0  0  0  0  0  0  0  0
   -1.0354    2.3899   -1.2265 H   0  0  0  0  0  0  0  0  0  0  0  0
   -1.2232    3.1920    0.3425 H   0  0  0  0  0  0  0  0  0  0  0  0
  1  2  2  0
  2  3  1  0
  3  4  2  0
  4  5  1  0
  5  6  2  0
  6  7  1  0
  6  8  1  0
  8  9  2  0
  2 10  1  0
 10 11  1  0
 11 12  1  0
 12 13  2  0
 13 14  1  0
 14 15  1  0
 14 16  1  0
 16 17  1  0
 17 18  1  0
 17 19  1  0
 17 20  1  0
 16 21  1  0
 21 22  1  0
 21 23  1  0
 21 24  1  0
  9  3  1  0
 16 10  1  0
 15 11  1  0
  4 25  1  0
  5 26  1  0
  8 27  1  0
  9 28  1  0
 11 29  1  0
 12 30  1  0
 13 31  1  0
 14 32  1  0
 15 33  1  0
 15 34  1  0
M  END
$$$$
