
     RDKit          3D

 72 74  0  0  0  0  0  0  0  0999 V2000
   -2.1802    1.9293    6.0295 C   0  0  0  0  0  0  0  0  0  0  0  0
   -0.9614    1.6624    5.3497 O   0  0  0  0  0  0  0  0  0  0  0  0
   -1.0368    1.4182    4.0083 C   0  0  0  0  0  0  0  0  0  0  0  0
   -2.2054    1.3083    3.2585 C   0  0  0  0  0  0  0  0  0  0  0  0
   -2.1427    1.0399    1.8852 C   0  0  0  0  0  0  0  0  0  0  0  0
   -0.9081    0.8857    1.2361 C   0  0  0  0  0  0  0  0  0  0  0  0
   -0.7859    0.5540   -0.2498 C   0  0  0  0  0  0  0  0  0  0  0  0
   -2.0434    0.9310   -1.0896 C   0  0  0  0  0  0  0  0  0  0  0  0
   -2.9286    0.1207   -1.3661 O   0  0  0  0  0  0  0  0  0  0  0  0
   -2.1097    2.2737   -1.4344 N   0  0  0  0  0  0  0  0  0  0  0  0
   -3.1836    2.8842   -2.2328 C   0  0  0  0  0  0  0  0  0  0  0  0
   -4.5481    2.7270   -1.5399 C   0  0  0  0  0  0  0  0  0  0  0  0
   -2.8818    4.3891   -2.3587 C   0  0  0  0  0  0  0  0  0  0  0  0
   -3.2315    2.2780   -3.6432 C   0  0  0  0  0  0  0  0  0  0  0  0
   -0.3976   -0.8541   -0.4797 N   0  0  0  0  0  0  0  0  0  0  0  0
   -1.1822   -1.9197    0.1840 C   0  0  0  0  0  0  0  0  0  0  0  0
   -0.4613   -2.5322    1.4047 C   0  0  0  0  0  0  0  0  0  0  0  0
   -1.3543   -2.6667    2.6353 C   0  0  0  0  0  0  0  0  0  0  0  0
   -1.8417   -4.0921    2.5548 C   0  0  0  0  0  0  0  0  0  0  0  0
   -0.6198   -4.7895    2.0071 C   0  0  0  0  0  0  0  0  0  0  0  0
   -0.0372   -3.8761    1.0693 O   0  0  0  0  0  0  0  0  0  0  0  0
    0.5221   -1.0945   -1.4925 C   0  0  0  0  0  0  0  0  0  0  0  0
    0.9591   -0.1857   -2.2026 O   0  0  0  0  0  0  0  0  0  0  0  0
    1.0004   -2.5220   -1.6871 C   0  0  0  0  0  0  0  0  0  0  0  0
    2.1165   -2.6074   -2.7237 C   0  0  0  0  0  0  0  0  0  0  0  0
    3.4048   -2.0444   -2.1519 C   0  0  0  0  0  0  0  0  0  0  0  0
    3.9553   -2.5805   -1.1916 O   0  0  0  0  0  0  0  0  0  0  0  0
    3.8447   -0.9182   -2.8056 N   0  0  0  0  0  0  0  0  0  0  0  0
    4.9800   -0.2053   -2.4862 C   0  0  0  0  0  0  0  0  0  0  0  0
    5.9564   -0.4649   -1.4993 C   0  0  0  0  0  0  0  0  0  0  0  0
    6.8547    0.5669   -1.6194 C   0  0  0  0  0  0  0  0  0  0  0  0
    8.0953    0.9377   -0.9146 C   0  0  0  0  0  0  0  0  0  0  0  0
    6.4574    1.3848   -2.6290 O   0  0  0  0  0  0  0  0  0  0  0  0
    5.2790    0.9053   -3.1698 N   0  0  0  0  0  0  0  0  0  0  0  0
    0.2626    1.0015    2.0027 C   0  0  0  0  0  0  0  0  0  0  0  0
    0.1955    1.2618    3.3730 C   0  0  0  0  0  0  0  0  0  0  0  0
   -1.9394    2.1503    7.0746 H   0  0  0  0  0  0  0  0  0  0  0  0
   -2.8372    1.0539    6.0171 H   0  0  0  0  0  0  0  0  0  0  0  0
   -2.6836    2.8071    5.6119 H   0  0  0  0  0  0  0  0  0  0  0  0
   -3.1862    1.4134    3.7117 H   0  0  0  0  0  0  0  0  0  0  0  0
   -3.0789    0.9399    1.3380 H   0  0  0  0  0  0  0  0  0  0  0  0
    0.0210    1.1966   -0.6297 H   0  0  0  0  0  0  0  0  0  0  0  0
   -1.2520    2.8052   -1.3389 H   0  0  0  0  0  0  0  0  0  0  0  0
   -4.5131    3.1131   -0.5148 H   0  0  0  0  0  0  0  0  0  0  0  0
   -4.8654    1.6806   -1.4834 H   0  0  0  0  0  0  0  0  0  0  0  0
   -5.3319    3.2749   -2.0772 H   0  0  0  0  0  0  0  0  0  0  0  0
   -1.9183    4.5568   -2.8562 H   0  0  0  0  0  0  0  0  0  0  0  0
   -2.8247    4.8634   -1.3726 H   0  0  0  0  0  0  0  0  0  0  0  0
   -3.6567    4.9081   -2.9351 H   0  0  0  0  0  0  0  0  0  0  0  0
   -2.2683    2.4036   -4.1558 H   0  0  0  0  0  0  0  0  0  0  0  0
   -4.0044    2.7611   -4.2547 H   0  0  0  0  0  0  0  0  0  0  0  0
   -3.4523    1.2049   -3.6239 H   0  0  0  0  0  0  0  0  0  0  0  0
   -1.4003   -2.6933   -0.5590 H   0  0  0  0  0  0  0  0  0  0  0  0
   -2.1499   -1.5017    0.4738 H   0  0  0  0  0  0  0  0  0  0  0  0
    0.4388   -1.9599    1.6524 H   0  0  0  0  0  0  0  0  0  0  0  0
   -2.1655   -1.9365    2.6905 H   0  0  0  0  0  0  0  0  0  0  0  0
   -0.7409   -2.5445    3.5373 H   0  0  0  0  0  0  0  0  0  0  0  0
   -2.6696   -4.1656    1.8419 H   0  0  0  0  0  0  0  0  0  0  0  0
   -2.1720   -4.4981    3.5154 H   0  0  0  0  0  0  0  0  0  0  0  0
    0.1181   -4.9789    2.7942 H   0  0  0  0  0  0  0  0  0  0  0  0
   -0.8551   -5.7332    1.5083 H   0  0  0  0  0  0  0  0  0  0  0  0
    1.3628   -2.9044   -0.7310 H   0  0  0  0  0  0  0  0  0  0  0  0
    0.1582   -3.1283   -2.0291 H   0  0  0  0  0  0  0  0  0  0  0  0
    2.3098   -3.6565   -2.9778 H   0  0  0  0  0  0  0  0  0  0  0  0
    1.8398   -2.1012   -3.6551 H   0  0  0  0  0  0  0  0  0  0  0  0
    3.2659   -0.4760   -3.5101 H   0  0  0  0  0  0  0  0  0  0  0  0
    5.9991   -1.2805   -0.7932 H   0  0  0  0  0  0  0  0  0  0  0  0
    8.0717    0.5806    0.1215 H   0  0  0  0  0  0  0  0  0  0  0  0
    8.9655    0.5001   -1.4128 H   0  0  0  0  0  0  0  0  0  0  0  0
    8.2219    2.0227   -0.8910 H   0  0  0  0  0  0  0  0  0  0  0  0
    1.2381    0.8738    1.5362 H   0  0  0  0  0  0  0  0  0  0  0  0
    1.1128    1.3426    3.9517 H   0  0  0  0  0  0  0  0  0  0  0  0
  1  2  1  0
  2  3  1  0
  3  4  2  0
  4  5  1  0
  5  6  2  0
  6  7  1  0
  7  8  1  0
  8  9  2  0
  8 10  1  0
 10 11  1  0
 11 12  1  0
 11 13  1  0
 11 14  1  0
  7 15  1  0
 15 16  1  0
 16 17  1  0
 17 18  1  0
 18 19  1  0
 19 20  1  0
 20 21  1  0
 15 22  1  0
 22 23  2  0
 22 24  1  0
 24 25  1  0
 25 26  1  0
 26 27  2  0
 26 28  1  0
 28 29  1  0
 29 30  1  0
 30 31  2  0
 31 32  1  0
 31 33  1  0
 33 34  1  0
  6 35  1  0
 35 36  2  0
 36  3  1  0
 21 17  1  0
 34 29  2  0
  1 37  1  0
  1 38  1  0
  1 39  1  0
  4 40  1  0
  5 41  1  0
  7 42  1  0
 10 43  1  0
 12 44  1  0
 12 45  1  0
 12 46  1  0
 13 47  1  0
 13 48  1  0
 13 49  1  0
 14 50  1  0
 14 51  1  0
 14 52  1  0
 16 53  1  0
 16 54  1  0
 17 55  1  0
 18 56  1  0
 18 57  1  0
 19 58  1  0
 19 59  1  0
 20 60  1  0
 20 61  1  0
 24 62  1  0
 24 63  1  0
 25 64  1  0
 25 65  1  0
 28 66  1  0
 30 67  1  0
 32 68  1  0
 32 69  1  0
 32 70  1  0
 35 71  1  0
 36 72  1  0
M  END
$$$$
