
     RDKit          3D

 56 61  0  0  0  0  0  0  0  0999 V2000
    5.7488   -0.8848    0.6185 C   0  0  0  0  0  0  0  0  0  0  0  0
    4.4445   -0.6975   -0.0964 C   0  0  0  0  0  0  0  0  0  0  0  0
    4.3927   -0.4448   -1.4802 C   0  0  0  0  0  0  0  0  0  0  0  0
    5.8376   -0.3398   -2.4278 Cl  0  0  0  0  0  0  0  0  0  0  0  0
    3.1681   -0.2666   -2.1542 C   0  0  0  0  0  0  0  0  0  0  0  0
    1.9562   -0.3336   -1.4663 C   0  0  0  0  0  0  0  0  0  0  0  0
    1.9937   -0.5767   -0.1021 C   0  0  0  0  0  0  0  0  0  0  0  0
    3.2197   -0.7562    0.5584 C   0  0  0  0  0  0  0  0  0  0  0  0
    2.9910   -0.9903    1.9126 N   0  0  0  0  0  0  0  0  0  0  0  0
    1.6296   -0.9666    2.2259 C   0  0  0  0  0  0  0  0  0  0  0  0
    1.1779   -1.1311    3.3499 O   0  0  0  0  0  0  0  0  0  0  0  0
    0.8743   -0.7126    0.8972 C   0  0  0  0  0  0  0  0  0  0  0  0
   -0.0957   -1.8085    0.5877 N   0  0  0  0  0  0  0  0  0  0  0  0
   -1.4587   -1.2406    0.3230 C   0  0  2  0  0  0  0  0  0  0  0  0
   -1.9750   -1.5370   -1.1005 C   0  0  0  0  0  0  0  0  0  0  0  0
   -2.0975   -3.0068   -1.4299 C   0  0  0  0  0  0  0  0  0  0  0  0
   -2.9949   -3.8263   -0.7316 C   0  0  0  0  0  0  0  0  0  0  0  0
   -3.1018   -5.1833   -1.0409 C   0  0  0  0  0  0  0  0  0  0  0  0
   -2.3179   -5.7336   -2.0526 C   0  0  0  0  0  0  0  0  0  0  0  0
   -1.4273   -4.9274   -2.7580 C   0  0  0  0  0  0  0  0  0  0  0  0
   -1.3180   -3.5703   -2.4504 C   0  0  0  0  0  0  0  0  0  0  0  0
   -1.2672    0.2105    0.5585 C   0  0  0  0  0  0  0  0  0  0  0  0
    0.0541    0.5039    0.8821 C   0  0  0  0  0  0  0  0  0  0  0  0
    0.1820    1.8564    1.0469 C   0  0  0  0  0  0  0  0  0  0  0  0
    1.3014    2.5556    1.2284 O   0  0  0  0  0  0  0  0  0  0  0  0
   -1.1084    2.4108    0.9306 N   0  0  0  0  0  0  0  0  0  0  0  0
   -1.4626    3.7755    1.1793 C   0  0  0  0  0  0  0  0  0  0  0  0
   -2.5079    4.3837    0.4689 C   0  0  0  0  0  0  0  0  0  0  0  0
   -2.8442    5.7171    0.7179 C   0  0  0  0  0  0  0  0  0  0  0  0
   -2.1463    6.4353    1.6805 C   0  0  0  0  0  0  0  0  0  0  0  0
   -2.4726    7.7122    1.9177 F   0  0  0  0  0  0  0  0  0  0  0  0
   -1.1188    5.8450    2.4053 C   0  0  0  0  0  0  0  0  0  0  0  0
   -0.7760    4.5132    2.1592 C   0  0  0  0  0  0  0  0  0  0  0  0
   -1.9904    1.3753    0.5624 C   0  0  0  0  0  0  0  0  0  0  0  0
   -3.2894    1.5762    0.3569 O   0  0  0  0  0  0  0  0  0  0  0  0
    6.2979   -1.7312    0.1930 H   0  0  0  0  0  0  0  0  0  0  0  0
    6.3582    0.0214    0.5395 H   0  0  0  0  0  0  0  0  0  0  0  0
    5.6176   -1.0930    1.6838 H   0  0  0  0  0  0  0  0  0  0  0  0
    3.1620   -0.0687   -3.2241 H   0  0  0  0  0  0  0  0  0  0  0  0
    1.0167   -0.1838   -1.9877 H   0  0  0  0  0  0  0  0  0  0  0  0
    3.6908   -1.1353    2.6231 H   0  0  0  0  0  0  0  0  0  0  0  0
    0.2327   -2.3396   -0.2135 H   0  0  0  0  0  0  0  0  0  0  0  0
   -2.1446   -1.6492    1.0739 H   0  0  0  0  0  0  0  0  0  0  0  0
   -2.9636   -1.0782   -1.2376 H   0  0  0  0  0  0  0  0  0  0  0  0
   -1.3274   -1.0482   -1.8409 H   0  0  0  0  0  0  0  0  0  0  0  0
   -3.6171   -3.4186    0.0616 H   0  0  0  0  0  0  0  0  0  0  0  0
   -3.7965   -5.8124   -0.4902 H   0  0  0  0  0  0  0  0  0  0  0  0
   -2.4015   -6.7906   -2.2912 H   0  0  0  0  0  0  0  0  0  0  0  0
   -0.8174   -5.3565   -3.5488 H   0  0  0  0  0  0  0  0  0  0  0  0
   -0.6184   -2.9588   -3.0156 H   0  0  0  0  0  0  0  0  0  0  0  0
    1.1471    3.4765    0.9518 H   0  0  0  0  0  0  0  0  0  0  0  0
   -3.0563    3.8511   -0.3037 H   0  0  0  0  0  0  0  0  0  0  0  0
   -3.6462    6.1970    0.1659 H   0  0  0  0  0  0  0  0  0  0  0  0
   -0.6031    6.4187    3.1692 H   0  0  0  0  0  0  0  0  0  0  0  0
   -0.0104    4.0560    2.7837 H   0  0  0  0  0  0  0  0  0  0  0  0
   -3.7213    0.7072    0.2858 H   0  0  0  0  0  0  0  0  0  0  0  0
  1  2  1  0
  2  3  2  0
  3  4  1  0
  3  5  1  0
  5  6  2  0
  6  7  1  0
  7  8  2  0
  8  9  1  0
  9 10  1  0
 10 11  2  0
 10 12  1  0
 12 13  1  0
 13 14  1  0
 14 15  1  0
 15 16  1  0
 16 17  2  0
 17 18  1  0
 18 19  2  0
 19 20  1  0
 20 21  2  0
 14 22  1  0
 22 23  1  0
 23 24  2  0
 24 25  1  0
 24 26  1  0
 26 27  1  0
 27 28  2  0
 28 29  1  0
 29 30  2  0
 30 31  1  0
 30 32  1  0
 32 33  2  0
 26 34  1  0
 34 35  1  0
  8  2  1  0
 23 12  1  0
 33 27  1  0
 12  7  1  0
 21 16  1  0
 34 22  2  0
  1 36  1  0
  1 37  1  0
  1 38  1  0
  5 39  1  0
  6 40  1  0
  9 41  1  0
 13 42  1  0
 14 43  1  1
 15 44  1  0
 15 45  1  0
 17 46  1  0
 18 47  1  0
 19 48  1  0
 20 49  1  0
 21 50  1  0
 25 51  1  0
 28 52  1  0
 29 53  1  0
 32 54  1  0
 33 55  1  0
 35 56  1  0
M  END
$$$$
