
     RDKit          3D

 47 49  0  0  0  0  0  0  0  0999 V2000
   -2.8279    1.8757   -0.8103 C   0  0  0  0  0  0  0  0  0  0  0  0
   -3.1473    0.5229   -1.4239 C   0  0  0  0  0  0  0  0  0  0  0  0
   -3.4653   -0.4920   -0.4102 N   0  0  0  0  0  4  0  0  0  0  0  0
   -2.5928   -1.4049   -0.0047 C   0  0  0  0  0  0  0  0  0  0  0  0
   -1.2617   -1.5716   -0.4523 C   0  0  0  0  0  0  0  0  0  0  0  0
   -0.2061   -0.9377    0.0832 C   0  0  0  0  0  0  0  0  0  0  0  0
   -0.1989   -0.0267    1.2127 C   0  0  0  0  0  0  0  0  0  0  0  0
    0.8667    0.6684    1.6437 C   0  0  0  0  0  0  0  0  0  0  0  0
    2.1960    0.6507    1.0303 C   0  0  0  0  0  0  0  0  0  0  0  0
    3.1765   -0.2189    1.4989 C   0  0  0  0  0  0  0  0  0  0  0  0
    4.4460   -0.2413    0.9015 C   0  0  0  0  0  0  0  0  0  0  0  0
    4.7804    0.5861   -0.1852 C   0  0  0  0  0  0  0  0  0  0  0  0
    6.0519    0.5853   -0.7693 N   0  0  0  0  0  0  0  0  0  0  0  0
    7.0695   -0.3458   -0.2814 C   0  0  0  0  0  0  0  0  0  0  0  0
    6.1653    0.9523   -2.1820 C   0  0  0  0  0  0  0  0  0  0  0  0
    3.7698    1.4598   -0.6257 C   0  0  0  0  0  0  0  0  0  0  0  0
    2.4976    1.4945   -0.0357 C   0  0  0  0  0  0  0  0  0  0  0  0
   -3.2970   -2.4709    1.1386 S   0  0  0  0  0  0  0  0  0  0  0  0
   -4.8079   -1.6519    1.0742 C   0  0  0  0  0  0  0  0  0  0  0  0
   -5.9916   -1.9387    1.7717 C   0  0  0  0  0  0  0  0  0  0  0  0
   -7.1043   -1.1261    1.5425 C   0  0  0  0  0  0  0  0  0  0  0  0
   -7.0408   -0.0635    0.6486 C   0  0  0  0  0  0  0  0  0  0  0  0
   -5.8576    0.2178   -0.0460 C   0  0  0  0  0  0  0  0  0  0  0  0
   -4.7245   -0.5916    0.1734 C   0  0  0  0  0  0  0  0  0  0  0  0
   -2.6025    2.6040   -1.5953 H   0  0  0  0  0  0  0  0  0  0  0  0
   -3.6690    2.2571   -0.2238 H   0  0  0  0  0  0  0  0  0  0  0  0
   -1.9624    1.8161   -0.1455 H   0  0  0  0  0  0  0  0  0  0  0  0
   -2.3055    0.1922   -2.0436 H   0  0  0  0  0  0  0  0  0  0  0  0
   -3.9971    0.6119   -2.1106 H   0  0  0  0  0  0  0  0  0  0  0  0
   -1.0906   -2.2639   -1.2758 H   0  0  0  0  0  0  0  0  0  0  0  0
    0.7691   -1.1507   -0.3615 H   0  0  0  0  0  0  0  0  0  0  0  0
   -1.1177    0.0940    1.7835 H   0  0  0  0  0  0  0  0  0  0  0  0
    0.7813    1.3092    2.5203 H   0  0  0  0  0  0  0  0  0  0  0  0
    2.9751   -0.8828    2.3372 H   0  0  0  0  0  0  0  0  0  0  0  0
    5.1700   -0.9358    1.3182 H   0  0  0  0  0  0  0  0  0  0  0  0
    7.2280   -0.2350    0.7964 H   0  0  0  0  0  0  0  0  0  0  0  0
    6.7934   -1.3830   -0.5105 H   0  0  0  0  0  0  0  0  0  0  0  0
    8.0407   -0.1447   -0.7498 H   0  0  0  0  0  0  0  0  0  0  0  0
    7.1967    0.8456   -2.5386 H   0  0  0  0  0  0  0  0  0  0  0  0
    5.8986    1.9997   -2.3501 H   0  0  0  0  0  0  0  0  0  0  0  0
    5.5311    0.3084   -2.8038 H   0  0  0  0  0  0  0  0  0  0  0  0
    3.9605    2.1655   -1.4289 H   0  0  0  0  0  0  0  0  0  0  0  0
    1.7639    2.2036   -0.4074 H   0  0  0  0  0  0  0  0  0  0  0  0
   -6.0494   -2.7697    2.4725 H   0  0  0  0  0  0  0  0  0  0  0  0
   -8.0346   -1.3299    2.0744 H   0  0  0  0  0  0  0  0  0  0  0  0
   -7.9242    0.5541    0.4884 H   0  0  0  0  0  0  0  0  0  0  0  0
   -5.8515    1.0544   -0.7383 H   0  0  0  0  0  0  0  0  0  0  0  0
  1  2  1  0
  2  3  1  0
  3  4  2  0
  4  5  1  0
  5  6  2  3
  6  7  1  0
  7  8  2  3
  8  9  1  0
  9 10  2  0
 10 11  1  0
 11 12  2  0
 12 13  1  0
 13 14  1  0
 13 15  1  0
 12 16  1  0
 16 17  2  0
  4 18  1  0
 18 19  1  0
 19 20  2  0
 20 21  1  0
 21 22  2  0
 22 23  1  0
 23 24  2  0
 24  3  1  0
 17  9  1  0
 24 19  1  0
  1 25  1  0
  1 26  1  0
  1 27  1  0
  2 28  1  0
  2 29  1  0
  5 30  1  0
  6 31  1  0
  7 32  1  0
  8 33  1  0
 10 34  1  0
 11 35  1  0
 14 36  1  0
 14 37  1  0
 14 38  1  0
 15 39  1  0
 15 40  1  0
 15 41  1  0
 16 42  1  0
 17 43  1  0
 20 44  1  0
 21 45  1  0
 22 46  1  0
 23 47  1  0
M  CHG  1   3   1
M  END
$$$$
