
     RDKit          3D

 34 35  0  0  0  0  0  0  0  0999 V2000
   -3.0838    1.1366    1.6170 C   0  0  0  0  0  0  0  0  0  0  0  0
   -3.5469    0.3012    0.4532 C   0  0  0  0  0  0  0  0  0  0  0  0
   -4.9231    0.2724    0.1620 C   0  0  0  0  0  0  0  0  0  0  0  0
   -5.4135   -0.4838   -0.8997 C   0  0  0  0  0  0  0  0  0  0  0  0
   -4.5329   -1.2097   -1.6911 C   0  0  0  0  0  0  0  0  0  0  0  0
   -3.1631   -1.1883   -1.4161 C   0  0  0  0  0  0  0  0  0  0  0  0
   -2.6540   -0.4570   -0.3367 C   0  0  0  0  0  0  0  0  0  0  0  0
   -1.2667   -0.3862   -0.0609 N   0  0  0  0  0  0  0  0  0  0  0  0
   -0.2320   -1.2702   -0.3418 C   0  0  0  0  0  0  0  0  0  0  0  0
   -0.3554   -2.8921   -0.7283 S   0  0  0  0  0  0  0  0  0  0  0  0
    0.9788   -0.6092   -0.1728 N   0  0  0  0  0  0  0  0  0  0  0  0
    2.2944   -1.1828   -0.4152 C   0  0  0  0  0  0  0  0  0  0  0  0
    3.3708   -0.1965   -0.0459 C   0  0  0  0  0  0  0  0  0  0  0  0
    3.9715    0.6060   -1.0259 C   0  0  0  0  0  0  0  0  0  0  0  0
    4.9490    1.5384   -0.6741 C   0  0  0  0  0  0  0  0  0  0  0  0
    5.3294    1.6824    0.6590 C   0  0  0  0  0  0  0  0  0  0  0  0
    4.7316    0.8968    1.6428 C   0  0  0  0  0  0  0  0  0  0  0  0
    3.7542   -0.0359    1.2934 C   0  0  0  0  0  0  0  0  0  0  0  0
   -2.4414    1.9509    1.2669 H   0  0  0  0  0  0  0  0  0  0  0  0
   -2.5369    0.5185    2.3364 H   0  0  0  0  0  0  0  0  0  0  0  0
   -3.9264    1.5879    2.1518 H   0  0  0  0  0  0  0  0  0  0  0  0
   -5.6260    0.8416    0.7669 H   0  0  0  0  0  0  0  0  0  0  0  0
   -6.4788   -0.4992   -1.1133 H   0  0  0  0  0  0  0  0  0  0  0  0
   -4.9051   -1.7883   -2.5326 H   0  0  0  0  0  0  0  0  0  0  0  0
   -2.5097   -1.7277   -2.0935 H   0  0  0  0  0  0  0  0  0  0  0  0
   -0.9967    0.3171    0.6120 H   0  0  0  0  0  0  0  0  0  0  0  0
    0.9340    0.3948   -0.2836 H   0  0  0  0  0  0  0  0  0  0  0  0
    2.3653   -1.4552   -1.4747 H   0  0  0  0  0  0  0  0  0  0  0  0
    2.4077   -2.1019    0.1709 H   0  0  0  0  0  0  0  0  0  0  0  0
    3.6832    0.5080   -2.0704 H   0  0  0  0  0  0  0  0  0  0  0  0
    5.4146    2.1527   -1.4406 H   0  0  0  0  0  0  0  0  0  0  0  0
    6.0917    2.4077    0.9315 H   0  0  0  0  0  0  0  0  0  0  0  0
    5.0264    1.0107    2.6828 H   0  0  0  0  0  0  0  0  0  0  0  0
    3.2897   -0.6396    2.0707 H   0  0  0  0  0  0  0  0  0  0  0  0
  1  2  1  0
  2  3  2  0
  3  4  1  0
  4  5  2  0
  5  6  1  0
  6  7  2  0
  7  8  1  0
  8  9  1  0
  9 10  2  0
  9 11  1  0
 11 12  1  0
 12 13  1  0
 13 14  2  0
 14 15  1  0
 15 16  2  0
 16 17  1  0
 17 18  2  0
  7  2  1  0
 18 13  1  0
  1 19  1  0
  1 20  1  0
  1 21  1  0
  3 22  1  0
  4 23  1  0
  5 24  1  0
  6 25  1  0
  8 26  1  0
 11 27  1  0
 12 28  1  0
 12 29  1  0
 14 30  1  0
 15 31  1  0
 16 32  1  0
 17 33  1  0
 18 34  1  0
M  END
$$$$
