
     RDKit          3D

 37 39  0  0  0  0  0  0  0  0999 V2000
   -4.0763   -1.4706    2.0714 C   0  0  0  0  0  0  0  0  0  0  0  0
   -4.4816   -1.5417    0.6096 C   0  0  0  0  0  0  0  0  0  0  0  0
   -4.2039   -0.3071   -0.1072 N   0  0  0  0  0  0  0  0  0  0  0  0
   -5.2351    0.5413   -0.3301 N   0  0  0  0  0  0  0  0  0  0  0  0
   -4.6821    1.5435   -1.0115 C   0  0  0  0  0  0  0  0  0  0  0  0
   -3.3083    1.3514   -1.1913 C   0  0  0  0  0  0  0  0  0  0  0  0
   -2.2319    2.5415   -2.1561 Br  0  0  0  0  0  0  0  0  0  0  0  0
   -2.9883    0.1584   -0.5725 C   0  0  0  0  0  0  0  0  0  0  0  0
   -1.7292   -0.5461   -0.4184 C   0  0  0  0  0  0  0  0  0  0  0  0
   -1.7006   -1.7668   -0.3143 O   0  0  0  0  0  0  0  0  0  0  0  0
   -0.6313    0.2886   -0.3401 N   0  0  0  0  0  0  0  0  0  0  0  0
    0.7070   -0.0685   -0.2325 C   0  0  0  0  0  0  0  0  0  0  0  0
    1.2071   -1.6976   -0.4145 S   0  0  0  0  0  0  0  0  0  0  0  0
    2.8028   -1.2619   -0.2340 C   0  0  0  0  0  0  0  0  0  0  0  0
    3.0000    0.0756   -0.0294 C   0  0  0  0  0  0  0  0  0  0  0  0
    1.7750    0.8099   -0.0050 C   0  0  0  0  0  0  0  0  0  0  0  0
    1.5676    2.2414    0.2039 C   0  0  0  0  0  0  0  0  0  0  0  0
    2.6401    2.9672    0.6334 N   0  0  0  0  0  0  0  0  0  0  0  0
    0.4802    2.7911    0.0477 O   0  0  0  0  0  0  0  0  0  0  0  0
    4.4542    0.3669    0.0940 C   0  0  0  0  0  0  0  0  0  0  0  0
    5.1129   -0.9502   -0.4207 C   0  0  0  0  0  0  0  0  0  0  0  0
    4.0428   -2.0703   -0.2733 C   0  0  0  0  0  0  0  0  0  0  0  0
   -3.0007   -1.3018    2.1838 H   0  0  0  0  0  0  0  0  0  0  0  0
   -4.5960   -0.6536    2.5832 H   0  0  0  0  0  0  0  0  0  0  0  0
   -4.3276   -2.4065    2.5800 H   0  0  0  0  0  0  0  0  0  0  0  0
   -5.5593   -1.7306    0.5345 H   0  0  0  0  0  0  0  0  0  0  0  0
   -3.9842   -2.3640    0.0887 H   0  0  0  0  0  0  0  0  0  0  0  0
   -5.3084    2.3601   -1.3467 H   0  0  0  0  0  0  0  0  0  0  0  0
   -0.8023    1.2932   -0.3095 H   0  0  0  0  0  0  0  0  0  0  0  0
    3.4517    2.5246    1.0333 H   0  0  0  0  0  0  0  0  0  0  0  0
    2.4477    3.9232    0.9009 H   0  0  0  0  0  0  0  0  0  0  0  0
    4.7221    0.5397    1.1417 H   0  0  0  0  0  0  0  0  0  0  0  0
    4.7698    1.2216   -0.5106 H   0  0  0  0  0  0  0  0  0  0  0  0
    6.0406   -1.1866    0.1096 H   0  0  0  0  0  0  0  0  0  0  0  0
    5.3621   -0.8317   -1.4837 H   0  0  0  0  0  0  0  0  0  0  0  0
    4.0811   -2.7690   -1.1134 H   0  0  0  0  0  0  0  0  0  0  0  0
    4.1822   -2.6148    0.6662 H   0  0  0  0  0  0  0  0  0  0  0  0
  1  2  1  0
  2  3  1  0
  3  4  1  0
  4  5  2  0
  5  6  1  0
  6  7  1  0
  6  8  2  0
  8  9  1  0
  9 10  2  0
  9 11  1  0
 11 12  1  0
 12 13  1  0
 13 14  1  0
 14 15  2  0
 15 16  1  0
 16 17  1  0
 17 18  1  0
 17 19  2  0
 15 20  1  0
 20 21  1  0
 21 22  1  0
  8  3  1  0
 16 12  2  0
 22 14  1  0
  1 23  1  0
  1 24  1  0
  1 25  1  0
  2 26  1  0
  2 27  1  0
  5 28  1  0
 11 29  1  0
 18 30  1  0
 18 31  1  0
 20 32  1  0
 20 33  1  0
 21 34  1  0
 21 35  1  0
 22 36  1  0
 22 37  1  0
M  END
$$$$
