
     RDKit          3D

 57 61  0  0  0  0  0  0  0  0999 V2000
   -5.8572    4.4974    0.7965 C   0  0  0  0  0  0  0  0  0  0  0  0
   -5.2546    3.2382    1.3449 C   0  0  0  0  0  0  0  0  0  0  0  0
   -3.8653    3.0933    1.4255 C   0  0  0  0  0  0  0  0  0  0  0  0
   -3.3038    1.9339    1.9655 C   0  0  0  0  0  0  0  0  0  0  0  0
   -4.1229    0.9049    2.4502 C   0  0  0  0  0  0  0  0  0  0  0  0
   -3.5180   -0.3506    3.0255 C   0  0  0  0  0  0  0  0  0  0  0  0
   -3.5161   -1.4308    2.0617 N   0  0  0  0  0  0  0  0  0  0  0  0
   -4.4623   -2.4028    2.1014 N   0  0  0  0  0  0  0  0  0  0  0  0
   -4.2038   -3.2620    1.1152 N   0  0  0  0  0  0  0  0  0  0  0  0
   -3.0821   -2.8240    0.4818 C   0  0  0  0  0  0  0  0  0  0  0  0
   -2.3649   -3.3602   -0.6424 C   0  0  0  0  0  0  0  0  0  0  0  0
   -2.6566   -4.3743   -1.2662 O   0  0  0  0  0  0  0  0  0  0  0  0
   -1.2579   -2.5871   -0.9711 N   0  0  0  0  0  0  0  0  0  0  0  0
   -0.8828   -1.4265   -0.2968 C   0  0  0  0  0  0  0  0  0  0  0  0
    0.3779   -0.7680   -0.8338 C   0  0  0  0  0  0  0  0  0  0  0  0
    1.6109   -1.5999   -0.4343 C   0  0  0  0  0  0  0  0  0  0  0  0
    2.8154   -0.7336   -0.0675 C   0  0  0  0  0  0  0  0  0  0  0  0
    2.9090    0.3710   -1.0486 N   0  0  0  0  0  0  0  0  0  0  0  0
    4.4331    1.1467   -1.1481 S   0  0  0  0  0  6  0  0  0  0  0  0
    4.8431    1.4526    0.2070 O   0  0  0  0  0  0  0  0  0  0  0  0
    4.3441    2.1769   -2.1609 O   0  0  0  0  0  0  0  0  0  0  0  0
    5.4812   -0.1344   -1.7876 C   0  0  0  0  0  0  0  0  0  0  0  0
    5.2439   -0.6209   -3.0772 C   0  0  0  0  0  0  0  0  0  0  0  0
    6.0602   -1.6285   -3.5900 C   0  0  0  0  0  0  0  0  0  0  0  0
    7.1058   -2.1396   -2.8184 C   0  0  0  0  0  0  0  0  0  0  0  0
    7.3425   -1.6437   -1.5342 C   0  0  0  0  0  0  0  0  0  0  0  0
    6.5316   -0.6352   -1.0138 C   0  0  0  0  0  0  0  0  0  0  0  0
    1.7748    1.3348   -0.9522 C   0  0  0  0  0  0  0  0  0  0  0  0
    0.5198    0.6842   -0.3719 C   0  0  0  0  0  0  0  0  0  0  0  0
   -1.5160   -0.9459    0.7373 N   0  0  0  0  0  0  0  0  0  0  0  0
   -2.6099   -1.6752    1.0696 C   0  0  0  0  0  0  0  0  0  0  0  0
   -5.5144    1.0548    2.3736 C   0  0  0  0  0  0  0  0  0  0  0  0
   -6.0743    2.2143    1.8322 C   0  0  0  0  0  0  0  0  0  0  0  0
   -5.9976    5.2256    1.6007 H   0  0  0  0  0  0  0  0  0  0  0  0
   -5.2121    4.9379    0.0292 H   0  0  0  0  0  0  0  0  0  0  0  0
   -6.8259    4.2954    0.3289 H   0  0  0  0  0  0  0  0  0  0  0  0
   -3.2102    3.8828    1.0639 H   0  0  0  0  0  0  0  0  0  0  0  0
   -2.2202    1.8390    2.0015 H   0  0  0  0  0  0  0  0  0  0  0  0
   -4.0762   -0.6773    3.9107 H   0  0  0  0  0  0  0  0  0  0  0  0
   -2.4827   -0.1842    3.3447 H   0  0  0  0  0  0  0  0  0  0  0  0
   -0.7321   -2.9200   -1.7661 H   0  0  0  0  0  0  0  0  0  0  0  0
    0.3011   -0.7711   -1.9305 H   0  0  0  0  0  0  0  0  0  0  0  0
    1.8776   -2.2477   -1.2803 H   0  0  0  0  0  0  0  0  0  0  0  0
    1.3928   -2.2730    0.4039 H   0  0  0  0  0  0  0  0  0  0  0  0
    3.7097   -1.3627   -0.0837 H   0  0  0  0  0  0  0  0  0  0  0  0
    2.7122   -0.3314    0.9471 H   0  0  0  0  0  0  0  0  0  0  0  0
    4.4343   -0.2152   -3.6798 H   0  0  0  0  0  0  0  0  0  0  0  0
    5.8876   -2.0115   -4.5929 H   0  0  0  0  0  0  0  0  0  0  0  0
    7.7442   -2.9223   -3.2224 H   0  0  0  0  0  0  0  0  0  0  0  0
    8.1640   -2.0406   -0.9422 H   0  0  0  0  0  0  0  0  0  0  0  0
    6.7253   -0.2475   -0.0162 H   0  0  0  0  0  0  0  0  0  0  0  0
    2.0443    2.1999   -0.3368 H   0  0  0  0  0  0  0  0  0  0  0  0
    1.5578    1.6915   -1.9653 H   0  0  0  0  0  0  0  0  0  0  0  0
   -0.3621    1.2720   -0.6543 H   0  0  0  0  0  0  0  0  0  0  0  0
    0.5693    0.7247    0.7246 H   0  0  0  0  0  0  0  0  0  0  0  0
   -6.1743    0.2658    2.7315 H   0  0  0  0  0  0  0  0  0  0  0  0
   -7.1573    2.3101    1.7889 H   0  0  0  0  0  0  0  0  0  0  0  0
  1  2  1  0
  2  3  2  0
  3  4  1  0
  4  5  2  0
  5  6  1  0
  6  7  1  0
  7  8  1  0
  8  9  2  0
  9 10  1  0
 10 11  1  0
 11 12  2  0
 11 13  1  0
 13 14  1  0
 14 15  1  0
 15 16  1  0
 16 17  1  0
 17 18  1  0
 18 19  1  0
 19 20  2  0
 19 21  2  0
 19 22  1  0
 22 23  2  0
 23 24  1  0
 24 25  2  0
 25 26  1  0
 26 27  2  0
 18 28  1  0
 28 29  1  0
 14 30  2  0
 30 31  1  0
  5 32  1  0
 32 33  2  0
 33  2  1  0
 31  7  1  0
 31 10  2  0
 29 15  1  0
 27 22  1  0
  1 34  1  0
  1 35  1  0
  1 36  1  0
  3 37  1  0
  4 38  1  0
  6 39  1  0
  6 40  1  0
 13 41  1  0
 15 42  1  0
 16 43  1  0
 16 44  1  0
 17 45  1  0
 17 46  1  0
 23 47  1  0
 24 48  1  0
 25 49  1  0
 26 50  1  0
 27 51  1  0
 28 52  1  0
 28 53  1  0
 29 54  1  0
 29 55  1  0
 32 56  1  0
 33 57  1  0
M  END
$$$$
