
     RDKit          3D

 26 27  0  0  0  0  0  0  0  0999 V2000
    0.9159   -1.8084   -1.5635 O   0  0  0  0  0  0  0  0  0  0  0  0
    1.3918   -0.8921   -0.8987 C   0  0  0  0  0  0  0  0  0  0  0  0
    2.8382   -0.4731   -1.0767 C   0  0  0  0  0  0  0  0  0  0  0  0
    3.2016    0.7204   -0.1996 C   0  0  0  0  0  0  0  0  0  0  0  0
    2.8532    0.4493    1.2602 C   0  0  0  0  0  0  0  0  0  0  0  0
    1.4055    0.0333    1.4315 C   0  0  0  0  0  0  0  0  0  0  0  0
    0.9359   -0.1715    2.5481 O   0  0  0  0  0  0  0  0  0  0  0  0
    0.6228   -0.1970    0.1787 C   0  0  0  0  0  0  0  0  0  0  0  0
   -0.6210    0.2972   -0.0071 C   0  0  0  0  0  0  0  0  0  0  0  0
   -1.4616    0.1577   -1.5435 S   0  0  0  0  0  0  0  0  0  0  0  0
   -3.2050    0.1435   -1.0203 C   0  0  0  0  0  0  0  0  0  0  0  0
   -3.4095   -0.5643    0.3128 C   0  0  0  0  0  0  0  0  0  0  0  0
   -2.8719    0.2010    1.5231 C   0  0  0  0  0  0  0  0  0  0  0  0
   -1.4319    1.2644    1.2068 S   0  0  0  0  0  0  0  0  0  0  0  0
    2.9967   -0.2170   -2.1294 H   0  0  0  0  0  0  0  0  0  0  0  0
    3.4709   -1.3309   -0.8225 H   0  0  0  0  0  0  0  0  0  0  0  0
    4.2717    0.9370   -0.2920 H   0  0  0  0  0  0  0  0  0  0  0  0
    2.6628    1.6111   -0.5478 H   0  0  0  0  0  0  0  0  0  0  0  0
    3.4840   -0.3559    1.6529 H   0  0  0  0  0  0  0  0  0  0  0  0
    3.0252    1.3539    1.8526 H   0  0  0  0  0  0  0  0  0  0  0  0
   -3.7708   -0.3774   -1.7998 H   0  0  0  0  0  0  0  0  0  0  0  0
   -3.5836    1.1708   -0.9819 H   0  0  0  0  0  0  0  0  0  0  0  0
   -4.4819   -0.7380    0.4673 H   0  0  0  0  0  0  0  0  0  0  0  0
   -2.9550   -1.5636    0.2786 H   0  0  0  0  0  0  0  0  0  0  0  0
   -3.6603    0.8541    1.9131 H   0  0  0  0  0  0  0  0  0  0  0  0
   -2.6236   -0.5043    2.3237 H   0  0  0  0  0  0  0  0  0  0  0  0
  1  2  2  0
  2  3  1  0
  3  4  1  0
  4  5  1  0
  5  6  1  0
  6  7  2  0
  6  8  1  0
  8  9  2  3
  9 10  1  0
 10 11  1  0
 11 12  1  0
 12 13  1  0
 13 14  1  0
  8  2  1  0
 14  9  1  0
  3 15  1  0
  3 16  1  0
  4 17  1  0
  4 18  1  0
  5 19  1  0
  5 20  1  0
 11 21  1  0
 11 22  1  0
 12 23  1  0
 12 24  1  0
 13 25  1  0
 13 26  1  0
M  END
$$$$
