
     RDKit          3D

 72 77  0  0  0  0  0  0  0  0999 V2000
   -9.3560   -0.8989   -1.1876 C   0  0  0  0  0  0  0  0  0  0  0  0
   -7.9096   -0.5765   -1.4190 C   0  0  0  0  0  0  0  0  0  0  0  0
   -7.5421    0.5838   -2.1001 C   0  0  0  0  0  0  0  0  0  0  0  0
   -6.1950    0.8974   -2.2817 C   0  0  0  0  0  0  0  0  0  0  0  0
   -5.1815    0.0650   -1.7765 C   0  0  0  0  0  0  0  0  0  0  0  0
   -3.7489    0.4549   -2.0143 C   0  0  0  0  0  0  0  0  0  0  0  0
   -5.5380   -1.1030   -1.0696 C   0  0  0  0  0  0  0  0  0  0  0  0
   -4.5128   -2.0615   -0.4994 C   0  0  0  0  0  0  0  0  0  0  0  0
   -4.5150   -2.0679    0.9513 N   0  0  0  0  0  0  0  0  0  0  0  0
   -5.3115   -2.9266    1.6410 N   0  0  0  0  0  0  0  0  0  0  0  0
   -5.1036   -2.7225    2.9410 N   0  0  0  0  0  0  0  0  0  0  0  0
   -4.1470   -1.7618    3.0489 C   0  0  0  0  0  0  0  0  0  0  0  0
   -3.5431   -1.1689    4.2099 C   0  0  0  0  0  0  0  0  0  0  0  0
   -3.8035   -1.4400    5.3768 O   0  0  0  0  0  0  0  0  0  0  0  0
   -2.5892   -0.2183    3.8705 N   0  0  0  0  0  0  0  0  0  0  0  0
   -2.2538    0.1283    2.5613 C   0  0  0  0  0  0  0  0  0  0  0  0
   -1.1669    1.1903    2.4587 C   0  0  0  0  0  0  0  0  0  0  0  0
    0.2053    0.5978    2.8292 C   0  0  0  0  0  0  0  0  0  0  0  0
    1.1716    0.5696    1.6490 C   0  0  0  0  0  0  0  0  0  0  0  0
    1.3498    1.9193    1.0550 N   0  0  0  0  0  0  0  0  0  0  0  0
    2.7155    2.8143    1.5591 S   0  0  0  0  0  6  0  0  0  0  0  0
    2.7552    2.7602    3.0056 O   0  0  0  0  0  0  0  0  0  0  0  0
    2.7038    4.0802    0.8567 O   0  0  0  0  0  0  0  0  0  0  0  0
    4.0818    1.8736    0.9197 C   0  0  0  0  0  0  0  0  0  0  0  0
    4.9182    1.1709    1.7945 C   0  0  0  0  0  0  0  0  0  0  0  0
    6.0331    0.4995    1.2893 C   0  0  0  0  0  0  0  0  0  0  0  0
    6.3076    0.5527   -0.0817 C   0  0  0  0  0  0  0  0  0  0  0  0
    7.7603   -0.2471   -0.7198 S   0  0  0  0  0  6  0  0  0  0  0  0
    8.2285   -1.1895    0.2740 O   0  0  0  0  0  0  0  0  0  0  0  0
    8.6080    0.7856   -1.2713 O   0  0  0  0  0  0  0  0  0  0  0  0
    7.1087   -1.2000   -1.9766 N   0  0  0  0  0  0  0  0  0  0  0  0
    7.9760   -1.2807   -3.1682 C   0  0  0  0  0  0  0  0  0  0  0  0
    9.0404   -2.3356   -3.2757 C   0  0  0  0  0  0  0  0  0  0  0  0
    7.8242   -2.4044   -4.1539 C   0  0  0  0  0  0  0  0  0  0  0  0
    5.4730    1.2559   -0.9576 C   0  0  0  0  0  0  0  0  0  0  0  0
    4.3530    1.9197   -0.4532 C   0  0  0  0  0  0  0  0  0  0  0  0
    0.1102    2.7411    0.9694 C   0  0  0  0  0  0  0  0  0  0  0  0
   -1.1384    1.8800    1.0906 C   0  0  0  0  0  0  0  0  0  0  0  0
   -2.7845   -0.4192    1.5031 N   0  0  0  0  0  0  0  0  0  0  0  0
   -3.7335   -1.3417    1.8063 C   0  0  0  0  0  0  0  0  0  0  0  0
   -6.9061   -1.4042   -0.9023 C   0  0  0  0  0  0  0  0  0  0  0  0
   -9.5083   -1.9810   -1.1062 H   0  0  0  0  0  0  0  0  0  0  0  0
   -9.9732   -0.5458   -2.0210 H   0  0  0  0  0  0  0  0  0  0  0  0
   -9.7004   -0.4226   -0.2643 H   0  0  0  0  0  0  0  0  0  0  0  0
   -8.3033    1.2520   -2.4972 H   0  0  0  0  0  0  0  0  0  0  0  0
   -5.9420    1.8053   -2.8287 H   0  0  0  0  0  0  0  0  0  0  0  0
   -3.2324   -0.3242   -2.5824 H   0  0  0  0  0  0  0  0  0  0  0  0
   -3.6733    1.3822   -2.5941 H   0  0  0  0  0  0  0  0  0  0  0  0
   -3.2383    0.6234   -1.0630 H   0  0  0  0  0  0  0  0  0  0  0  0
   -4.7270   -3.0820   -0.8403 H   0  0  0  0  0  0  0  0  0  0  0  0
   -3.4940   -1.8343   -0.8251 H   0  0  0  0  0  0  0  0  0  0  0  0
   -2.1483    0.2336    4.6585 H   0  0  0  0  0  0  0  0  0  0  0  0
   -1.4109    1.9502    3.2156 H   0  0  0  0  0  0  0  0  0  0  0  0
    0.6400    1.2060    3.6327 H   0  0  0  0  0  0  0  0  0  0  0  0
    0.1103   -0.4180    3.2332 H   0  0  0  0  0  0  0  0  0  0  0  0
    2.1301    0.1514    1.9717 H   0  0  0  0  0  0  0  0  0  0  0  0
    0.8033   -0.1045    0.8656 H   0  0  0  0  0  0  0  0  0  0  0  0
    4.7249    1.1595    2.8652 H   0  0  0  0  0  0  0  0  0  0  0  0
    6.6942   -0.0361    1.9681 H   0  0  0  0  0  0  0  0  0  0  0  0
    6.9201   -2.1270   -1.5876 H   0  0  0  0  0  0  0  0  0  0  0  0
    8.1911   -0.3008   -3.5919 H   0  0  0  0  0  0  0  0  0  0  0  0
    9.1372   -3.0591   -2.4743 H   0  0  0  0  0  0  0  0  0  0  0  0
    9.9840   -2.0494   -3.7252 H   0  0  0  0  0  0  0  0  0  0  0  0
    7.9554   -2.1802   -5.2061 H   0  0  0  0  0  0  0  0  0  0  0  0
    7.0880   -3.1719   -3.9530 H   0  0  0  0  0  0  0  0  0  0  0  0
    5.7021    1.3051   -2.0203 H   0  0  0  0  0  0  0  0  0  0  0  0
    3.7130    2.4901   -1.1236 H   0  0  0  0  0  0  0  0  0  0  0  0
    0.1053    3.2565    0.0028 H   0  0  0  0  0  0  0  0  0  0  0  0
    0.0992    3.5009    1.7601 H   0  0  0  0  0  0  0  0  0  0  0  0
   -2.0346    2.5016    0.9742 H   0  0  0  0  0  0  0  0  0  0  0  0
   -1.1598    1.1483    0.2727 H   0  0  0  0  0  0  0  0  0  0  0  0
   -7.1965   -2.3012   -0.3531 H   0  0  0  0  0  0  0  0  0  0  0  0
  1  2  1  0
  2  3  2  0
  3  4  1  0
  4  5  2  0
  5  6  1  0
  5  7  1  0
  7  8  1  0
  8  9  1  0
  9 10  1  0
 10 11  2  0
 11 12  1  0
 12 13  1  0
 13 14  2  0
 13 15  1  0
 15 16  1  0
 16 17  1  0
 17 18  1  0
 18 19  1  0
 19 20  1  0
 20 21  1  0
 21 22  2  0
 21 23  2  0
 21 24  1  0
 24 25  2  0
 25 26  1  0
 26 27  2  0
 27 28  1  0
 28 29  2  0
 28 30  2  0
 28 31  1  0
 31 32  1  0
 32 33  1  0
 33 34  1  0
 27 35  1  0
 35 36  2  0
 20 37  1  0
 37 38  1  0
 16 39  2  0
 39 40  1  0
  7 41  2  0
 41  2  1  0
 40  9  1  0
 40 12  2  0
 38 17  1  0
 36 24  1  0
 34 32  1  0
  1 42  1  0
  1 43  1  0
  1 44  1  0
  3 45  1  0
  4 46  1  0
  6 47  1  0
  6 48  1  0
  6 49  1  0
  8 50  1  0
  8 51  1  0
 15 52  1  0
 17 53  1  0
 18 54  1  0
 18 55  1  0
 19 56  1  0
 19 57  1  0
 25 58  1  0
 26 59  1  0
 31 60  1  0
 32 61  1  0
 33 62  1  0
 33 63  1  0
 34 64  1  0
 34 65  1  0
 35 66  1  0
 36 67  1  0
 37 68  1  0
 37 69  1  0
 38 70  1  0
 38 71  1  0
 41 72  1  0
M  END
$$$$
