
     RDKit          3D

 54 57  0  0  0  0  0  0  0  0999 V2000
    6.7827    1.1186    2.9589 C   0  0  0  0  0  0  0  0  0  0  0  0
    6.9177   -0.1252    2.0769 C   0  0  0  0  0  0  0  0  0  0  0  0
    8.2749   -0.1474    1.3694 C   0  0  0  0  0  0  0  0  0  0  0  0
    5.7715   -0.2354    1.0878 C   0  0  0  0  0  0  0  0  0  0  0  0
    4.9056   -1.3344    1.1404 C   0  0  0  0  0  0  0  0  0  0  0  0
    3.8443   -1.4508    0.2366 C   0  0  0  0  0  0  0  0  0  0  0  0
    3.6237   -0.4726   -0.7391 C   0  0  0  0  0  0  0  0  0  0  0  0
    2.5334   -0.6692   -1.6080 N   0  0  0  0  0  0  0  0  0  0  0  0
    2.0798    0.1707   -2.6097 C   0  0  0  0  0  0  0  0  0  0  0  0
    2.5553    1.2583   -2.9240 O   0  0  0  0  0  0  0  0  0  0  0  0
    0.8676   -0.3974   -3.3593 C   0  0  0  0  0  0  0  0  0  0  0  0
   -0.3609   -0.3124   -2.6334 O   0  0  0  0  0  0  0  0  0  0  0  0
   -0.5512   -1.2685   -1.6958 C   0  0  0  0  0  0  0  0  0  0  0  0
    0.2445   -2.1529   -1.4165 O   0  0  0  0  0  0  0  0  0  0  0  0
   -1.8672   -1.0979   -1.0231 C   0  0  0  0  0  0  0  0  0  0  0  0
   -2.2180   -2.0010   -0.0129 C   0  0  0  0  0  0  0  0  0  0  0  0
   -3.4462   -1.8818    0.6489 C   0  0  0  0  0  0  0  0  0  0  0  0
   -4.3488   -0.8594    0.3151 C   0  0  0  0  0  0  0  0  0  0  0  0
   -3.9891    0.0281   -0.6888 C   0  0  0  0  0  0  0  0  0  0  0  0
   -2.7601   -0.0761   -1.3615 C   0  0  0  0  0  0  0  0  0  0  0  0
   -5.0718    1.3188   -1.1592 S   0  0  0  0  0  6  0  0  0  0  0  0
   -4.3889    2.5550   -0.8362 O   0  0  0  0  0  0  0  0  0  0  0  0
   -5.5019    1.0100   -2.5079 O   0  0  0  0  0  0  0  0  0  0  0  0
   -6.4986    1.2588   -0.1530 C   0  0  0  0  0  0  0  0  0  0  0  0
   -7.4832    2.2377   -0.3464 C   0  0  0  0  0  0  0  0  0  0  0  0
   -8.6354    2.2211    0.4358 C   0  0  0  0  0  0  0  0  0  0  0  0
   -8.7994    1.2325    1.4029 C   0  0  0  0  0  0  0  0  0  0  0  0
   -7.8104    0.2617    1.5874 C   0  0  0  0  0  0  0  0  0  0  0  0
   -6.6428    0.2665    0.8067 C   0  0  0  0  0  0  0  0  0  0  0  0
   -5.6320   -0.7886    1.0531 C   0  0  0  0  0  0  0  0  0  0  0  0
   -5.8632   -1.6411    1.9065 O   0  0  0  0  0  0  0  0  0  0  0  0
    4.4835    0.6222   -0.7975 C   0  0  0  0  0  0  0  0  0  0  0  0
    5.5463    0.7399    0.1070 C   0  0  0  0  0  0  0  0  0  0  0  0
    5.8161    1.1296    3.4747 H   0  0  0  0  0  0  0  0  0  0  0  0
    7.5694    1.1369    3.7210 H   0  0  0  0  0  0  0  0  0  0  0  0
    6.8616    2.0439    2.3779 H   0  0  0  0  0  0  0  0  0  0  0  0
    6.8879   -0.9971    2.7438 H   0  0  0  0  0  0  0  0  0  0  0  0
    8.3777   -1.0440    0.7479 H   0  0  0  0  0  0  0  0  0  0  0  0
    8.4139    0.7250    0.7217 H   0  0  0  0  0  0  0  0  0  0  0  0
    9.0902   -0.1515    2.1009 H   0  0  0  0  0  0  0  0  0  0  0  0
    5.0480   -2.1132    1.8865 H   0  0  0  0  0  0  0  0  0  0  0  0
    3.1927   -2.3182    0.3093 H   0  0  0  0  0  0  0  0  0  0  0  0
    1.9776   -1.5095   -1.4422 H   0  0  0  0  0  0  0  0  0  0  0  0
    0.7400    0.1850   -4.2787 H   0  0  0  0  0  0  0  0  0  0  0  0
    1.0712   -1.4282   -3.6755 H   0  0  0  0  0  0  0  0  0  0  0  0
   -1.5394   -2.8055    0.2689 H   0  0  0  0  0  0  0  0  0  0  0  0
   -3.6918   -2.5997    1.4322 H   0  0  0  0  0  0  0  0  0  0  0  0
   -2.5160    0.6433   -2.1425 H   0  0  0  0  0  0  0  0  0  0  0  0
   -7.3545    3.0104   -1.1029 H   0  0  0  0  0  0  0  0  0  0  0  0
   -9.4045    2.9769    0.2923 H   0  0  0  0  0  0  0  0  0  0  0  0
   -9.6976    1.2143    2.0167 H   0  0  0  0  0  0  0  0  0  0  0  0
   -7.9603   -0.5018    2.3505 H   0  0  0  0  0  0  0  0  0  0  0  0
    4.3592    1.4071   -1.5366 H   0  0  0  0  0  0  0  0  0  0  0  0
    6.1968    1.6085    0.0315 H   0  0  0  0  0  0  0  0  0  0  0  0
  1  2  1  0
  2  3  1  0
  2  4  1  0
  4  5  2  0
  5  6  1  0
  6  7  2  0
  7  8  1  0
  8  9  1  0
  9 10  2  0
  9 11  1  0
 11 12  1  0
 12 13  1  0
 13 14  2  0
 13 15  1  0
 15 16  2  0
 16 17  1  0
 17 18  2  0
 18 19  1  0
 19 20  2  0
 19 21  1  0
 21 22  2  0
 21 23  2  0
 21 24  1  0
 24 25  2  0
 25 26  1  0
 26 27  2  0
 27 28  1  0
 28 29  2  0
 29 30  1  0
 30 31  2  0
  7 32  1  0
 32 33  2  0
 33  4  1  0
 20 15  1  0
 29 24  1  0
 30 18  1  0
  1 34  1  0
  1 35  1  0
  1 36  1  0
  2 37  1  0
  3 38  1  0
  3 39  1  0
  3 40  1  0
  5 41  1  0
  6 42  1  0
  8 43  1  0
 11 44  1  0
 11 45  1  0
 16 46  1  0
 17 47  1  0
 20 48  1  0
 25 49  1  0
 26 50  1  0
 27 51  1  0
 28 52  1  0
 32 53  1  0
 33 54  1  0
M  END
$$$$
