
     RDKit          3D

 59 64  0  0  0  0  0  0  0  0999 V2000
   -5.5634   -2.3427    0.7487 C   0  0  0  0  0  0  0  0  0  0  0  0
   -5.2399   -1.2124    1.5606 O   0  0  0  0  0  0  0  0  0  0  0  0
   -5.5840   -0.0568    0.8925 C   0  0  0  0  0  0  0  0  0  0  0  0
   -6.8375    0.4838    1.2070 C   0  0  0  0  0  0  0  0  0  0  0  0
   -7.2885    1.6202    0.5472 C   0  0  0  0  0  0  0  0  0  0  0  0
   -6.4829    2.2126   -0.4184 C   0  0  0  0  0  0  0  0  0  0  0  0
   -5.2184    1.6806   -0.7089 C   0  0  0  0  0  0  0  0  0  0  0  0
   -4.7137    0.5470   -0.0466 C   0  0  0  0  0  0  0  0  0  0  0  0
   -3.4408    0.0479   -0.3221 N   0  0  0  0  0  0  0  0  0  0  0  0
   -2.6060   -0.4080    0.8161 C   0  0  0  0  0  0  0  0  0  0  0  0
   -1.1417    0.0676    0.6871 C   0  0  0  0  0  0  0  0  0  0  0  0
   -0.5084   -0.3728   -0.5909 N   0  0  0  0  0  0  0  0  0  0  0  0
    0.7344    0.1581   -0.8209 C   0  0  0  0  0  0  0  0  0  0  0  0
    1.0640    1.3182   -1.4963 C   0  0  0  0  0  0  0  0  0  0  0  0
    2.4476    1.5387   -1.3393 C   0  0  0  0  0  0  0  0  0  0  0  0
    2.9588    0.4850   -0.6070 C   0  0  0  0  0  0  0  0  0  0  0  0
    4.2919    0.2062   -0.1171 C   0  0  0  0  0  0  0  0  0  0  0  0
    5.4150    1.1309   -0.4108 C   0  0  0  0  0  0  0  0  0  0  0  0
    6.2032    1.5939    0.6476 C   0  0  0  0  0  0  0  0  0  0  0  0
    7.2720    2.4543    0.3930 C   0  0  0  0  0  0  0  0  0  0  0  0
    7.5611    2.8395   -0.9166 C   0  0  0  0  0  0  0  0  0  0  0  0
    6.7894    2.3592   -1.9754 C   0  0  0  0  0  0  0  0  0  0  0  0
    5.7180    1.4999   -1.7258 C   0  0  0  0  0  0  0  0  0  0  0  0
    4.5316   -0.8454    0.6076 N   0  0  0  0  0  0  0  0  0  0  0  0
    3.4904   -1.7616    0.8543 C   0  0  0  0  0  0  0  0  0  0  0  0
    3.8037   -2.9159    1.5786 C   0  0  0  0  0  0  0  0  0  0  0  0
    2.8355   -3.8891    1.8284 C   0  0  0  0  0  0  0  0  0  0  0  0
    1.5416   -3.7191    1.3427 C   0  0  0  0  0  0  0  0  0  0  0  0
    1.2082   -2.5715    0.6189 C   0  0  0  0  0  0  0  0  0  0  0  0
    2.1744   -1.5865    0.3915 C   0  0  0  0  0  0  0  0  0  0  0  0
    1.9179   -0.3857   -0.3182 N   0  0  0  0  0  0  0  0  0  0  0  0
   -1.4559   -0.4355   -1.7346 C   0  0  0  0  0  0  0  0  0  0  0  0
   -2.7012    0.4534   -1.5299 C   0  0  0  0  0  0  0  0  0  0  0  0
   -5.0307   -2.3269   -0.2100 H   0  0  0  0  0  0  0  0  0  0  0  0
   -6.6450   -2.4064    0.5787 H   0  0  0  0  0  0  0  0  0  0  0  0
   -5.2537   -3.2413    1.2916 H   0  0  0  0  0  0  0  0  0  0  0  0
   -7.4608    0.0041    1.9566 H   0  0  0  0  0  0  0  0  0  0  0  0
   -8.2639    2.0379    0.7807 H   0  0  0  0  0  0  0  0  0  0  0  0
   -6.8281    3.0996   -0.9442 H   0  0  0  0  0  0  0  0  0  0  0  0
   -4.6222    2.2008   -1.4530 H   0  0  0  0  0  0  0  0  0  0  0  0
   -2.6264   -1.5037    0.8462 H   0  0  0  0  0  0  0  0  0  0  0  0
   -2.9838   -0.0299    1.7735 H   0  0  0  0  0  0  0  0  0  0  0  0
   -1.1191    1.1641    0.7499 H   0  0  0  0  0  0  0  0  0  0  0  0
   -0.5664   -0.3209    1.5354 H   0  0  0  0  0  0  0  0  0  0  0  0
    0.3640    1.9763   -1.9932 H   0  0  0  0  0  0  0  0  0  0  0  0
    2.9994    2.3950   -1.7048 H   0  0  0  0  0  0  0  0  0  0  0  0
    5.9849    1.2849    1.6673 H   0  0  0  0  0  0  0  0  0  0  0  0
    7.8819    2.8193    1.2150 H   0  0  0  0  0  0  0  0  0  0  0  0
    8.3974    3.5063   -1.1134 H   0  0  0  0  0  0  0  0  0  0  0  0
    7.0292    2.6475   -2.9958 H   0  0  0  0  0  0  0  0  0  0  0  0
    5.1388    1.1089   -2.5576 H   0  0  0  0  0  0  0  0  0  0  0  0
    4.8184   -3.0562    1.9411 H   0  0  0  0  0  0  0  0  0  0  0  0
    3.0964   -4.7827    2.3891 H   0  0  0  0  0  0  0  0  0  0  0  0
    0.7901   -4.4842    1.5203 H   0  0  0  0  0  0  0  0  0  0  0  0
    0.1997   -2.4869    0.2315 H   0  0  0  0  0  0  0  0  0  0  0  0
   -1.7757   -1.4801   -1.8330 H   0  0  0  0  0  0  0  0  0  0  0  0
   -0.9677   -0.1719   -2.6802 H   0  0  0  0  0  0  0  0  0  0  0  0
   -3.3427    0.3501   -2.4131 H   0  0  0  0  0  0  0  0  0  0  0  0
   -2.3905    1.5020   -1.4477 H   0  0  0  0  0  0  0  0  0  0  0  0
  1  2  1  0
  2  3  1  0
  3  4  2  0
  4  5  1  0
  5  6  2  0
  6  7  1  0
  7  8  2  0
  8  9  1  0
  9 10  1  0
 10 11  1  0
 11 12  1  0
 12 13  1  0
 13 14  2  0
 14 15  1  0
 15 16  2  0
 16 17  1  0
 17 18  1  0
 18 19  2  0
 19 20  1  0
 20 21  2  0
 21 22  1  0
 22 23  2  0
 17 24  2  0
 24 25  1  0
 25 26  2  0
 26 27  1  0
 27 28  2  0
 28 29  1  0
 29 30  2  0
 30 31  1  0
 12 32  1  0
 32 33  1  0
  8  3  1  0
 33  9  1  0
 31 13  1  0
 31 16  1  0
 23 18  1  0
 30 25  1  0
  1 34  1  0
  1 35  1  0
  1 36  1  0
  4 37  1  0
  5 38  1  0
  6 39  1  0
  7 40  1  0
 10 41  1  0
 10 42  1  0
 11 43  1  0
 11 44  1  0
 14 45  1  0
 15 46  1  0
 19 47  1  0
 20 48  1  0
 21 49  1  0
 22 50  1  0
 23 51  1  0
 26 52  1  0
 27 53  1  0
 28 54  1  0
 29 55  1  0
 32 56  1  0
 32 57  1  0
 33 58  1  0
 33 59  1  0
M  END
$$$$
