
     RDKit          3D

 45 46  0  0  0  0  0  0  0  0999 V2000
    6.3980   -2.6768    3.3552 C   0  0  0  0  0  0  0  0  0  0  0  0
    6.5635   -1.6657    2.3695 O   0  0  0  0  0  0  0  0  0  0  0  0
    5.4760   -1.3551    1.6012 C   0  0  0  0  0  0  0  0  0  0  0  0
    5.7024   -0.3532    0.6554 C   0  0  0  0  0  0  0  0  0  0  0  0
    4.6772    0.0669   -0.1946 C   0  0  0  0  0  0  0  0  0  0  0  0
    3.4022   -0.5052   -0.1011 C   0  0  0  0  0  0  0  0  0  0  0  0
    2.3699   -0.0039   -1.0441 C   0  0  0  0  0  0  0  0  0  0  0  0
    2.6903    0.3113   -2.1869 O   0  0  0  0  0  0  0  0  0  0  0  0
    0.9816    0.1733   -0.5401 C   0  0  0  0  0  0  0  0  0  0  0  0
    0.0112    0.5525   -1.3857 C   0  0  0  0  0  0  0  0  0  0  0  0
   -1.3818    0.7708   -0.9738 C   0  0  0  0  0  0  0  0  0  0  0  0
   -2.0462   -0.1241   -0.1209 C   0  0  0  0  0  0  0  0  0  0  0  0
   -3.3791    0.0912    0.2376 C   0  0  0  0  0  0  0  0  0  0  0  0
   -4.1094   -0.7216    1.0663 O   0  0  0  0  0  0  0  0  0  0  0  0
   -3.4221   -1.7812    1.7162 C   0  0  0  0  0  0  0  0  0  0  0  0
   -4.0516    1.2058   -0.2916 C   0  0  0  0  0  0  0  0  0  0  0  0
   -5.3537    1.4494    0.0901 O   0  0  0  0  0  0  0  0  0  0  0  0
   -6.2496    0.8299   -0.8311 C   0  0  0  0  0  0  0  0  0  0  0  0
   -3.4019    2.1157   -1.1428 C   0  0  0  0  0  0  0  0  0  0  0  0
   -4.1508    3.1758   -1.5852 O   0  0  0  0  0  0  0  0  0  0  0  0
   -3.4791    4.1890   -2.3209 C   0  0  0  0  0  0  0  0  0  0  0  0
   -2.0696    1.8792   -1.4896 C   0  0  0  0  0  0  0  0  0  0  0  0
    3.1837   -1.5268    0.8315 C   0  0  0  0  0  0  0  0  0  0  0  0
    1.9686   -2.1534    0.9055 O   0  0  0  0  0  0  0  0  0  0  0  0
    4.2134   -1.9461    1.6852 C   0  0  0  0  0  0  0  0  0  0  0  0
    6.1485   -3.6385    2.8951 H   0  0  0  0  0  0  0  0  0  0  0  0
    7.3524   -2.7947    3.8773 H   0  0  0  0  0  0  0  0  0  0  0  0
    5.6461   -2.3859    4.0962 H   0  0  0  0  0  0  0  0  0  0  0  0
    6.6866    0.1036    0.5764 H   0  0  0  0  0  0  0  0  0  0  0  0
    4.8765    0.8444   -0.9301 H   0  0  0  0  0  0  0  0  0  0  0  0
    0.7968    0.0139    0.5146 H   0  0  0  0  0  0  0  0  0  0  0  0
    0.2362    0.7391   -2.4346 H   0  0  0  0  0  0  0  0  0  0  0  0
   -1.5068   -0.9931    0.2412 H   0  0  0  0  0  0  0  0  0  0  0  0
   -4.1302   -2.2773    2.3870 H   0  0  0  0  0  0  0  0  0  0  0  0
   -2.5947   -1.4039    2.3264 H   0  0  0  0  0  0  0  0  0  0  0  0
   -3.0737   -2.5252    0.9925 H   0  0  0  0  0  0  0  0  0  0  0  0
   -6.1153   -0.2572   -0.8503 H   0  0  0  0  0  0  0  0  0  0  0  0
   -6.1364    1.2430   -1.8393 H   0  0  0  0  0  0  0  0  0  0  0  0
   -7.2701    1.0370   -0.4952 H   0  0  0  0  0  0  0  0  0  0  0  0
   -3.1270    3.8060   -3.2842 H   0  0  0  0  0  0  0  0  0  0  0  0
   -4.1994    4.9872   -2.5246 H   0  0  0  0  0  0  0  0  0  0  0  0
   -2.6570    4.6228   -1.7419 H   0  0  0  0  0  0  0  0  0  0  0  0
   -1.5387    2.5504   -2.1577 H   0  0  0  0  0  0  0  0  0  0  0  0
    2.0442   -2.9367    1.4768 H   0  0  0  0  0  0  0  0  0  0  0  0
    4.0189   -2.7327    2.4048 H   0  0  0  0  0  0  0  0  0  0  0  0
  1  2  1  0
  2  3  1  0
  3  4  2  0
  4  5  1  0
  5  6  2  0
  6  7  1  0
  7  8  2  0
  7  9  1  0
  9 10  2  0
 10 11  1  0
 11 12  2  0
 12 13  1  0
 13 14  1  0
 14 15  1  0
 13 16  2  0
 16 17  1  0
 17 18  1  0
 16 19  1  0
 19 20  1  0
 20 21  1  0
 19 22  2  0
  6 23  1  0
 23 24  1  0
 23 25  2  0
 25  3  1  0
 22 11  1  0
  1 26  1  0
  1 27  1  0
  1 28  1  0
  4 29  1  0
  5 30  1  0
  9 31  1  0
 10 32  1  0
 12 33  1  0
 15 34  1  0
 15 35  1  0
 15 36  1  0
 18 37  1  0
 18 38  1  0
 18 39  1  0
 21 40  1  0
 21 41  1  0
 21 42  1  0
 22 43  1  0
 24 44  1  0
 25 45  1  0
M  END
$$$$
