
     RDKit          3D

 35 36  0  0  0  0  0  0  0  0999 V2000
    5.6653    0.2157    0.5041 C   0  0  0  0  0  0  0  0  0  0  0  0
    4.2271   -0.2099    0.5641 C   0  0  0  0  0  0  0  0  0  0  0  0
    3.4508   -0.2427   -0.6026 C   0  0  0  0  0  0  0  0  0  0  0  0
    2.1237   -0.6720   -0.5586 C   0  0  0  0  0  0  0  0  0  0  0  0
    1.5713   -1.0677    0.6609 C   0  0  0  0  0  0  0  0  0  0  0  0
   -0.1176   -1.6150    0.7351 S   0  0  0  0  0  6  0  0  0  0  0  0
   -0.1497   -2.7110    1.6880 O   0  0  0  0  0  0  0  0  0  0  0  0
   -0.5757   -1.8324   -0.6249 O   0  0  0  0  0  0  0  0  0  0  0  0
   -1.0146   -0.2587    1.4501 C   0  0  0  0  0  0  0  0  0  0  0  0
   -0.7599    1.1074    0.8323 C   0  0  0  0  0  0  0  0  0  0  0  0
   -1.2952    1.3123   -0.8949 S   0  0  0  0  0  0  0  0  0  0  0  0
   -2.9960    1.0409   -0.7369 C   0  0  0  0  0  0  0  0  0  0  0  0
   -3.7082    1.3168    0.3316 N   0  0  0  0  0  0  0  0  0  0  0  0
   -4.9870    0.9349    0.0168 C   0  0  0  0  0  0  0  0  0  0  0  0
   -5.0430    0.4092   -1.2532 C   0  0  0  0  0  0  0  0  0  0  0  0
   -3.7579    0.4775   -1.7243 N   0  0  0  0  0  0  0  0  0  0  0  0
   -3.3137    0.0053   -3.0128 C   0  0  0  0  0  0  0  0  0  0  0  0
    2.3410   -1.0727    1.8266 C   0  0  0  0  0  0  0  0  0  0  0  0
    3.6678   -0.6434    1.7741 C   0  0  0  0  0  0  0  0  0  0  0  0
    6.3031   -0.6494    0.2988 H   0  0  0  0  0  0  0  0  0  0  0  0
    5.8185    0.9636   -0.2810 H   0  0  0  0  0  0  0  0  0  0  0  0
    5.9775    0.6700    1.4503 H   0  0  0  0  0  0  0  0  0  0  0  0
    3.8795    0.0616   -1.5556 H   0  0  0  0  0  0  0  0  0  0  0  0
    1.5368   -0.6962   -1.4743 H   0  0  0  0  0  0  0  0  0  0  0  0
   -2.0731   -0.5350    1.4300 H   0  0  0  0  0  0  0  0  0  0  0  0
   -0.7182   -0.2261    2.5054 H   0  0  0  0  0  0  0  0  0  0  0  0
   -1.2676    1.8705    1.4334 H   0  0  0  0  0  0  0  0  0  0  0  0
    0.3047    1.3559    0.8723 H   0  0  0  0  0  0  0  0  0  0  0  0
   -5.8001    1.0544    0.7213 H   0  0  0  0  0  0  0  0  0  0  0  0
   -5.8591    0.0033   -1.8343 H   0  0  0  0  0  0  0  0  0  0  0  0
   -4.1661   -0.3987   -3.5656 H   0  0  0  0  0  0  0  0  0  0  0  0
   -2.5715   -0.7825   -2.8617 H   0  0  0  0  0  0  0  0  0  0  0  0
   -2.8864    0.8452   -3.5662 H   0  0  0  0  0  0  0  0  0  0  0  0
    1.9254   -1.4199    2.7700 H   0  0  0  0  0  0  0  0  0  0  0  0
    4.2684   -0.6568    2.6816 H   0  0  0  0  0  0  0  0  0  0  0  0
  1  2  1  0
  2  3  2  0
  3  4  1  0
  4  5  2  0
  5  6  1  0
  6  7  2  0
  6  8  2  0
  6  9  1  0
  9 10  1  0
 10 11  1  0
 11 12  1  0
 12 13  2  0
 13 14  1  0
 14 15  2  0
 15 16  1  0
 16 17  1  0
  5 18  1  0
 18 19  2  0
 19  2  1  0
 16 12  1  0
  1 20  1  0
  1 21  1  0
  1 22  1  0
  3 23  1  0
  4 24  1  0
  9 25  1  0
  9 26  1  0
 10 27  1  0
 10 28  1  0
 14 29  1  0
 15 30  1  0
 17 31  1  0
 17 32  1  0
 17 33  1  0
 18 34  1  0
 19 35  1  0
M  END
$$$$
