
     RDKit          3D

 56 58  0  0  0  0  0  0  0  0999 V2000
   -7.1562   -2.0995   -1.5046 C   0  0  0  0  0  0  0  0  0  0  0  0
   -6.7834   -0.6251   -1.4788 C   0  0  0  0  0  0  0  0  0  0  0  0
   -5.8981   -0.3145   -0.3460 N   0  0  0  0  0  0  0  0  0  0  0  0
   -6.5625   -0.0023    0.9291 C   0  0  0  0  0  0  0  0  0  0  0  0
   -6.3803   -1.1190    1.9488 C   0  0  0  0  0  0  0  0  0  0  0  0
   -4.5156   -0.2925   -0.4885 C   0  0  0  0  0  0  0  0  0  0  0  0
   -3.6715    0.2976    0.4658 C   0  0  0  0  0  0  0  0  0  0  0  0
   -2.2735    0.3264    0.3276 C   0  0  0  0  0  0  0  0  0  0  0  0
   -1.6570   -0.2341   -0.7900 C   0  0  0  0  0  0  0  0  0  0  0  0
   -0.1988   -0.2630   -0.9725 C   0  0  0  0  0  0  0  0  0  0  0  0
    0.6285    0.7053   -0.5466 C   0  0  0  0  0  0  0  0  0  0  0  0
    2.0789    0.6431   -0.7635 C   0  0  0  0  0  0  0  0  0  0  0  0
    2.5559    0.7802   -2.0676 C   0  0  0  0  0  0  0  0  0  0  0  0
    3.9153    0.7607   -2.3154 C   0  0  0  0  0  0  0  0  0  0  0  0
    4.7997    0.6180   -1.2537 C   0  0  0  0  0  0  0  0  0  0  0  0
    6.1805    0.6107   -1.4977 C   0  0  0  0  0  0  0  0  0  0  0  0
    7.0917    0.4793   -0.4498 C   0  0  0  0  0  0  0  0  0  0  0  0
    6.6302    0.3578    0.8535 C   0  0  0  0  0  0  0  0  0  0  0  0
    7.4024    0.2301    1.9733 O   0  0  0  0  0  0  0  0  0  0  0  0
    8.8160    0.2170    1.7922 C   0  0  0  0  0  0  0  0  0  0  0  0
    5.2518    0.3623    1.1047 C   0  0  0  0  0  0  0  0  0  0  0  0
    4.3047    0.4842    0.0715 C   0  0  0  0  0  0  0  0  0  0  0  0
    2.9434    0.4864    0.2843 N   0  0  0  0  0  4  0  0  0  0  0  0
    2.3919    0.2697    1.6573 C   0  0  0  0  0  0  0  0  0  0  0  0
    2.3006    1.5931    2.3940 C   0  0  0  0  0  0  0  0  0  0  0  0
   -2.4693   -0.8431   -1.7448 C   0  0  0  0  0  0  0  0  0  0  0  0
   -3.8655   -0.8631   -1.5944 C   0  0  0  0  0  0  0  0  0  0  0  0
   -6.2713   -2.7417   -1.5445 H   0  0  0  0  0  0  0  0  0  0  0  0
   -7.7749   -2.3166   -2.3810 H   0  0  0  0  0  0  0  0  0  0  0  0
   -7.7300   -2.3762   -0.6146 H   0  0  0  0  0  0  0  0  0  0  0  0
   -6.3393   -0.3242   -2.4348 H   0  0  0  0  0  0  0  0  0  0  0  0
   -7.7029   -0.0307   -1.4047 H   0  0  0  0  0  0  0  0  0  0  0  0
   -7.6400    0.1310    0.7708 H   0  0  0  0  0  0  0  0  0  0  0  0
   -6.2158    0.9558    1.3318 H   0  0  0  0  0  0  0  0  0  0  0  0
   -5.3287   -1.2692    2.2098 H   0  0  0  0  0  0  0  0  0  0  0  0
   -6.7660   -2.0698    1.5684 H   0  0  0  0  0  0  0  0  0  0  0  0
   -6.9220   -0.8786    2.8691 H   0  0  0  0  0  0  0  0  0  0  0  0
   -4.0843    0.7658    1.3546 H   0  0  0  0  0  0  0  0  0  0  0  0
   -1.6963    0.7904    1.1213 H   0  0  0  0  0  0  0  0  0  0  0  0
    0.1809   -1.1336   -1.5066 H   0  0  0  0  0  0  0  0  0  0  0  0
    0.2577    1.5924   -0.0401 H   0  0  0  0  0  0  0  0  0  0  0  0
    1.8645    0.9112   -2.8995 H   0  0  0  0  0  0  0  0  0  0  0  0
    4.2728    0.8683   -3.3393 H   0  0  0  0  0  0  0  0  0  0  0  0
    6.5693    0.7101   -2.5117 H   0  0  0  0  0  0  0  0  0  0  0  0
    8.1522    0.4801   -0.6876 H   0  0  0  0  0  0  0  0  0  0  0  0
    9.1260   -0.6368    1.1808 H   0  0  0  0  0  0  0  0  0  0  0  0
    9.1654    1.1608    1.3610 H   0  0  0  0  0  0  0  0  0  0  0  0
    9.2779    0.1080    2.7781 H   0  0  0  0  0  0  0  0  0  0  0  0
    4.9644    0.2772    2.1483 H   0  0  0  0  0  0  0  0  0  0  0  0
    1.4111   -0.2090    1.5888 H   0  0  0  0  0  0  0  0  0  0  0  0
    3.0192   -0.4555    2.1829 H   0  0  0  0  0  0  0  0  0  0  0  0
    1.6477    2.2968    1.8691 H   0  0  0  0  0  0  0  0  0  0  0  0
    3.2807    2.0687    2.4935 H   0  0  0  0  0  0  0  0  0  0  0  0
    1.8952    1.4383    3.3986 H   0  0  0  0  0  0  0  0  0  0  0  0
   -2.0412   -1.3125   -2.6278 H   0  0  0  0  0  0  0  0  0  0  0  0
   -4.4321   -1.3661   -2.3729 H   0  0  0  0  0  0  0  0  0  0  0  0
  1  2  1  0
  2  3  1  0
  3  4  1  0
  4  5  1  0
  3  6  1  0
  6  7  2  0
  7  8  1  0
  8  9  2  0
  9 10  1  0
 10 11  2  3
 11 12  1  0
 12 13  2  0
 13 14  1  0
 14 15  2  0
 15 16  1  0
 16 17  2  0
 17 18  1  0
 18 19  1  0
 19 20  1  0
 18 21  2  0
 21 22  1  0
 22 23  2  0
 23 24  1  0
 24 25  1  0
  9 26  1  0
 26 27  2  0
 27  6  1  0
 23 12  1  0
 22 15  1  0
  1 28  1  0
  1 29  1  0
  1 30  1  0
  2 31  1  0
  2 32  1  0
  4 33  1  0
  4 34  1  0
  5 35  1  0
  5 36  1  0
  5 37  1  0
  7 38  1  0
  8 39  1  0
 10 40  1  0
 11 41  1  0
 13 42  1  0
 14 43  1  0
 16 44  1  0
 17 45  1  0
 20 46  1  0
 20 47  1  0
 20 48  1  0
 21 49  1  0
 24 50  1  0
 24 51  1  0
 25 52  1  0
 25 53  1  0
 25 54  1  0
 26 55  1  0
 27 56  1  0
M  CHG  1  23   1
M  END
$$$$
