
     RDKit          3D

 44 45  0  0  0  0  0  0  0  0999 V2000
    8.0030    0.8704    0.0520 C   0  0  0  0  0  0  0  0  0  0  0  0
    7.1984    1.1062    1.3163 C   0  0  0  0  0  0  0  0  0  0  0  0
    5.7982    0.9326    1.0508 O   0  0  0  0  0  0  0  0  0  0  0  0
    5.3312   -0.3356    1.1581 C   0  0  0  0  0  0  0  0  0  0  0  0
    5.9877   -1.3221    1.4503 O   0  0  0  0  0  0  0  0  0  0  0  0
    3.8722   -0.3825    0.8625 C   0  0  0  0  0  0  0  0  0  0  0  0
    3.1360    0.7616    0.5184 C   0  0  0  0  0  0  0  0  0  0  0  0
    1.7674    0.6644    0.2500 C   0  0  0  0  0  0  0  0  0  0  0  0
    1.1364   -0.5815    0.3180 C   0  0  0  0  0  0  0  0  0  0  0  0
   -0.6031   -0.6923    0.0020 S   0  0  0  0  0  6  0  0  0  0  0  0
   -1.2303    0.5419    0.4338 O   0  0  0  0  0  0  0  0  0  0  0  0
   -1.0821   -1.9839    0.4370 O   0  0  0  0  0  0  0  0  0  0  0  0
   -0.6311   -0.6859   -1.7220 N   0  0  0  0  0  0  0  0  0  0  0  0
   -1.7007    0.1420   -2.2234 N   0  0  0  0  0  0  0  0  0  0  0  0
   -3.1283   -0.7801   -2.5619 S   0  0  0  0  0  6  0  0  0  0  0  0
   -2.7737   -2.1747   -2.3808 O   0  0  0  0  0  0  0  0  0  0  0  0
   -3.6761   -0.2965   -3.8101 O   0  0  0  0  0  0  0  0  0  0  0  0
   -4.2153   -0.2766   -1.2576 C   0  0  0  0  0  0  0  0  0  0  0  0
   -4.3829   -1.0897   -0.1355 C   0  0  0  0  0  0  0  0  0  0  0  0
   -5.2480   -0.6845    0.8819 C   0  0  0  0  0  0  0  0  0  0  0  0
   -5.9484    0.5254    0.7810 C   0  0  0  0  0  0  0  0  0  0  0  0
   -6.9031    0.9384    1.8631 C   0  0  0  0  0  0  0  0  0  0  0  0
   -5.7962    1.3138   -0.3677 C   0  0  0  0  0  0  0  0  0  0  0  0
   -4.9307    0.9169   -1.3880 C   0  0  0  0  0  0  0  0  0  0  0  0
    1.8544   -1.7270    0.6705 C   0  0  0  0  0  0  0  0  0  0  0  0
    3.2223   -1.6246    0.9378 C   0  0  0  0  0  0  0  0  0  0  0  0
    7.8828   -0.1576   -0.3042 H   0  0  0  0  0  0  0  0  0  0  0  0
    7.6573    1.5285   -0.7519 H   0  0  0  0  0  0  0  0  0  0  0  0
    9.0661    1.0569    0.2284 H   0  0  0  0  0  0  0  0  0  0  0  0
    7.5334    0.4559    2.1326 H   0  0  0  0  0  0  0  0  0  0  0  0
    7.3343    2.1395    1.6519 H   0  0  0  0  0  0  0  0  0  0  0  0
    3.6152    1.7365    0.4580 H   0  0  0  0  0  0  0  0  0  0  0  0
    1.2056    1.5595   -0.0102 H   0  0  0  0  0  0  0  0  0  0  0  0
   -0.7346   -1.6694   -2.0376 H   0  0  0  0  0  0  0  0  0  0  0  0
   -1.9189    0.9305   -1.5897 H   0  0  0  0  0  0  0  0  0  0  0  0
   -3.8491   -2.0332   -0.0382 H   0  0  0  0  0  0  0  0  0  0  0  0
   -5.3733   -1.3203    1.7564 H   0  0  0  0  0  0  0  0  0  0  0  0
   -6.9797    2.0292    1.9212 H   0  0  0  0  0  0  0  0  0  0  0  0
   -7.8961    0.5239    1.6638 H   0  0  0  0  0  0  0  0  0  0  0  0
   -6.5605    0.5847    2.8412 H   0  0  0  0  0  0  0  0  0  0  0  0
   -6.3567    2.2407   -0.4739 H   0  0  0  0  0  0  0  0  0  0  0  0
   -4.8312    1.5349   -2.2780 H   0  0  0  0  0  0  0  0  0  0  0  0
    1.3661   -2.6971    0.7428 H   0  0  0  0  0  0  0  0  0  0  0  0
    3.7820   -2.5190    1.2100 H   0  0  0  0  0  0  0  0  0  0  0  0
  1  2  1  0
  2  3  1  0
  3  4  1  0
  4  5  2  0
  4  6  1  0
  6  7  2  0
  7  8  1  0
  8  9  2  0
  9 10  1  0
 10 11  2  0
 10 12  2  0
 10 13  1  0
 13 14  1  0
 14 15  1  0
 15 16  2  0
 15 17  2  0
 15 18  1  0
 18 19  2  0
 19 20  1  0
 20 21  2  0
 21 22  1  0
 21 23  1  0
 23 24  2  0
  9 25  1  0
 25 26  2  0
 26  6  1  0
 24 18  1  0
  1 27  1  0
  1 28  1  0
  1 29  1  0
  2 30  1  0
  2 31  1  0
  7 32  1  0
  8 33  1  0
 13 34  1  0
 14 35  1  0
 19 36  1  0
 20 37  1  0
 22 38  1  0
 22 39  1  0
 22 40  1  0
 23 41  1  0
 24 42  1  0
 25 43  1  0
 26 44  1  0
M  END
$$$$
