
     RDKit          3D

 37 39  0  0  0  0  0  0  0  0999 V2000
   -7.2743    3.5790    0.8755 C   0  0  0  0  0  0  0  0  0  0  0  0
   -6.1901    3.6750   -0.0402 O   0  0  0  0  0  0  0  0  0  0  0  0
   -5.1901    2.7524    0.0847 C   0  0  0  0  0  0  0  0  0  0  0  0
   -5.1282    1.7283    1.0267 C   0  0  0  0  0  0  0  0  0  0  0  0
   -4.0369    0.8454    1.0450 C   0  0  0  0  0  0  0  0  0  0  0  0
   -2.9854    0.9683    0.1227 C   0  0  0  0  0  0  0  0  0  0  0  0
   -1.8174    0.0727    0.0943 C   0  0  0  0  0  0  0  0  0  0  0  0
   -0.8339    0.1253   -0.7882 N   0  0  0  0  0  0  0  0  0  0  0  0
    0.0917   -0.8676   -0.5030 C   0  0  0  0  0  0  0  0  0  0  0  0
    1.1613   -0.9138   -1.3598 N   0  0  0  0  0  0  0  0  0  0  0  0
    2.2252   -1.7824   -1.2611 C   0  0  0  0  0  0  0  0  0  0  0  0
    2.3973   -2.6311   -0.3917 O   0  0  0  0  0  0  0  0  0  0  0  0
    3.2500   -1.5761   -2.3647 C   0  0  0  0  0  0  0  0  0  0  0  0
    4.4552   -0.3241   -1.8397 S   0  0  0  0  0  0  0  0  0  0  0  0
    5.4418   -1.3186   -0.7953 C   0  0  0  0  0  0  0  0  0  0  0  0
    6.0729   -2.3802   -1.2457 N   0  0  0  0  0  0  0  0  0  0  0  0
    6.7861   -3.0178   -0.2488 N   0  0  0  0  0  0  0  0  0  0  0  0
    6.6613   -2.4095    0.9126 C   0  0  0  0  0  0  0  0  0  0  0  0
    7.2875   -2.8591    2.1802 C   0  0  0  0  0  0  0  0  0  0  0  0
    5.6885   -0.9927    0.8656 S   0  0  0  0  0  0  0  0  0  0  0  0
   -0.1242   -1.6702    0.5338 N   0  0  0  0  0  0  0  0  0  0  0  0
   -1.5543   -1.1930    1.2306 S   0  0  0  0  0  0  0  0  0  0  0  0
   -3.0660    2.0054   -0.8201 C   0  0  0  0  0  0  0  0  0  0  0  0
   -4.1535    2.8851   -0.8377 C   0  0  0  0  0  0  0  0  0  0  0  0
   -7.9802    4.3820    0.6428 H   0  0  0  0  0  0  0  0  0  0  0  0
   -7.8035    2.6269    0.7619 H   0  0  0  0  0  0  0  0  0  0  0  0
   -6.9342    3.7226    1.9066 H   0  0  0  0  0  0  0  0  0  0  0  0
   -5.9112    1.5841    1.7644 H   0  0  0  0  0  0  0  0  0  0  0  0
   -4.0404    0.0630    1.8001 H   0  0  0  0  0  0  0  0  0  0  0  0
    1.1334   -0.1995   -2.0713 H   0  0  0  0  0  0  0  0  0  0  0  0
    3.7254   -2.5317   -2.6079 H   0  0  0  0  0  0  0  0  0  0  0  0
    2.7515   -1.2264   -3.2748 H   0  0  0  0  0  0  0  0  0  0  0  0
    7.9596   -2.0911    2.5772 H   0  0  0  0  0  0  0  0  0  0  0  0
    6.5248   -3.0831    2.9330 H   0  0  0  0  0  0  0  0  0  0  0  0
    7.8754   -3.7684    2.0157 H   0  0  0  0  0  0  0  0  0  0  0  0
   -2.2752    2.1406   -1.5565 H   0  0  0  0  0  0  0  0  0  0  0  0
   -4.1898    3.6804   -1.5787 H   0  0  0  0  0  0  0  0  0  0  0  0
  1  2  1  0
  2  3  1  0
  3  4  2  0
  4  5  1  0
  5  6  2  0
  6  7  1  0
  7  8  2  0
  8  9  1  0
  9 10  1  0
 10 11  1  0
 11 12  2  0
 11 13  1  0
 13 14  1  0
 14 15  1  0
 15 16  2  0
 16 17  1  0
 17 18  2  0
 18 19  1  0
 18 20  1  0
  9 21  2  0
 21 22  1  0
  6 23  1  0
 23 24  2  0
 24  3  1  0
 22  7  1  0
 20 15  1  0
  1 25  1  0
  1 26  1  0
  1 27  1  0
  4 28  1  0
  5 29  1  0
 10 30  1  0
 13 31  1  0
 13 32  1  0
 19 33  1  0
 19 34  1  0
 19 35  1  0
 23 36  1  0
 24 37  1  0
M  END
$$$$
