
     RDKit          3D

 43 46  0  0  0  0  0  0  0  0999 V2000
    6.3753    2.1183   -0.9492 C   0  0  0  0  0  0  0  0  0  0  0  0
    5.0151    1.5838   -0.6060 C   0  0  0  0  0  0  0  0  0  0  0  0
    4.5654    0.3810   -1.1589 C   0  0  0  0  0  0  0  0  0  0  0  0
    3.2867   -0.1044   -0.8660 C   0  0  0  0  0  0  0  0  0  0  0  0
    2.4393    0.6138   -0.0221 C   0  0  0  0  0  0  0  0  0  0  0  0
    1.0006    0.0809    0.3148 C   0  0  0  0  0  0  0  0  0  0  0  0
    0.0370    0.7330    1.0758 C   0  0  0  0  0  0  0  0  0  0  0  0
   -1.1202   -0.0469    1.1111 N   0  0  0  0  0  4  0  0  0  0  0  0
   -2.3695    0.2726    1.7977 C   0  0  0  0  0  0  0  0  0  0  0  0
   -3.4978    0.3116    0.7998 C   0  0  0  0  0  0  0  0  0  0  0  0
   -4.6563   -0.4547    1.0039 C   0  0  0  0  0  0  0  0  0  0  0  0
   -5.7032   -0.4197    0.0793 C   0  0  0  0  0  0  0  0  0  0  0  0
   -5.6084    0.3836   -1.0565 C   0  0  0  0  0  0  0  0  0  0  0  0
   -4.4692    1.1560   -1.2611 C   0  0  0  0  0  0  0  0  0  0  0  0
   -4.3422    2.1462   -2.6603 Cl  0  0  0  0  0  0  0  0  0  0  0  0
   -3.4214    1.1291   -0.3401 C   0  0  0  0  0  0  0  0  0  0  0  0
   -0.8715   -1.1522    0.4156 C   0  0  0  0  0  0  0  0  0  0  0  0
    0.3751   -1.0996   -0.0442 N   0  0  0  0  0  0  0  0  0  0  0  0
    0.7245   -2.2927   -0.8022 C   0  0  0  0  0  0  0  0  0  0  0  0
   -0.4286   -3.2810   -0.4741 C   0  0  0  0  0  0  0  0  0  0  0  0
   -1.5825   -2.3951    0.0355 C   0  0  0  0  0  0  0  0  0  0  0  0
    2.8770    1.8288    0.5177 C   0  0  0  0  0  0  0  0  0  0  0  0
    4.1561    2.3104    0.2232 C   0  0  0  0  0  0  0  0  0  0  0  0
    6.7801    2.7141   -0.1243 H   0  0  0  0  0  0  0  0  0  0  0  0
    6.3156    2.7459   -1.8436 H   0  0  0  0  0  0  0  0  0  0  0  0
    7.0801    1.3011   -1.1357 H   0  0  0  0  0  0  0  0  0  0  0  0
    5.2126   -0.1857   -1.8269 H   0  0  0  0  0  0  0  0  0  0  0  0
    2.9870   -1.0352   -1.3291 H   0  0  0  0  0  0  0  0  0  0  0  0
    0.0215    1.6782    1.5915 H   0  0  0  0  0  0  0  0  0  0  0  0
   -2.5318   -0.4957    2.5619 H   0  0  0  0  0  0  0  0  0  0  0  0
   -2.2839    1.2419    2.3007 H   0  0  0  0  0  0  0  0  0  0  0  0
   -4.7644   -1.0842    1.8864 H   0  0  0  0  0  0  0  0  0  0  0  0
   -6.6003   -1.0137    0.2460 H   0  0  0  0  0  0  0  0  0  0  0  0
   -6.4280    0.4086   -1.7713 H   0  0  0  0  0  0  0  0  0  0  0  0
   -2.5444    1.7480   -0.5172 H   0  0  0  0  0  0  0  0  0  0  0  0
    1.6878   -2.6947   -0.4803 H   0  0  0  0  0  0  0  0  0  0  0  0
    0.7395   -2.0422   -1.8668 H   0  0  0  0  0  0  0  0  0  0  0  0
   -0.7119   -3.9010   -1.3289 H   0  0  0  0  0  0  0  0  0  0  0  0
   -0.1056   -3.9483    0.3338 H   0  0  0  0  0  0  0  0  0  0  0  0
   -2.0878   -2.8004    0.9128 H   0  0  0  0  0  0  0  0  0  0  0  0
   -2.2828   -2.1280   -0.7584 H   0  0  0  0  0  0  0  0  0  0  0  0
    2.2535    2.4289    1.1735 H   0  0  0  0  0  0  0  0  0  0  0  0
    4.4817    3.2597    0.6465 H   0  0  0  0  0  0  0  0  0  0  0  0
  1  2  1  0
  2  3  2  0
  3  4  1  0
  4  5  2  0
  5  6  1  0
  6  7  2  0
  7  8  1  0
  8  9  1  0
  9 10  1  0
 10 11  2  0
 11 12  1  0
 12 13  2  0
 13 14  1  0
 14 15  1  0
 14 16  2  0
  8 17  2  0
 17 18  1  0
 18 19  1  0
 19 20  1  0
 20 21  1  0
  5 22  1  0
 22 23  2  0
 23  2  1  0
 18  6  1  0
 16 10  1  0
 21 17  1  0
  1 24  1  0
  1 25  1  0
  1 26  1  0
  3 27  1  0
  4 28  1  0
  7 29  1  0
  9 30  1  0
  9 31  1  0
 11 32  1  0
 12 33  1  0
 13 34  1  0
 16 35  1  0
 19 36  1  0
 19 37  1  0
 20 38  1  0
 20 39  1  0
 21 40  1  0
 21 41  1  0
 22 42  1  0
 23 43  1  0
M  CHG  1   8   1
M  END
$$$$
