
     RDKit          3D

 37 37  0  0  0  0  0  0  0  0999 V2000
   -2.9051   -2.2831   -1.9871 C   0  0  0  0  0  0  0  0  0  0  0  0
   -2.5807   -1.4933   -0.8441 O   0  0  0  0  0  0  0  0  0  0  0  0
   -1.6334   -0.5417   -1.0787 C   0  0  0  0  0  0  0  0  0  0  0  0
   -1.1484   -0.2856   -2.1766 O   0  0  0  0  0  0  0  0  0  0  0  0
   -1.2932    0.2168    0.2110 C   0  0  0  0  0  0  0  0  0  0  0  0
   -2.1094    1.5150    0.2892 C   0  0  0  0  0  0  0  0  0  0  0  0
   -3.6133    1.3195    0.4825 C   0  0  0  0  0  0  0  0  0  0  0  0
   -4.0039    0.6265    2.1184 S   0  0  0  0  0  0  0  0  0  0  0  0
   -5.7891    0.4293    1.9131 C   0  0  0  0  0  0  0  0  0  0  0  0
    0.1411    0.5404    0.1800 N   0  0  0  0  0  0  0  0  0  0  0  0
    1.0468   -0.4473    0.4754 C   0  0  0  0  0  0  0  0  0  0  0  0
    0.7436   -1.5791    0.8261 O   0  0  0  0  0  0  0  0  0  0  0  0
    2.3301   -0.0077    0.3006 N   0  0  0  0  0  0  0  0  0  0  0  0
    3.4215   -0.8880    0.6460 C   0  0  0  0  0  0  0  0  0  0  0  0
    4.6977   -0.2321    0.2367 C   0  0  0  0  0  0  0  0  0  0  0  0
    5.2718   -0.1957   -1.0190 C   0  0  0  0  0  0  0  0  0  0  0  0
    6.5005    0.5208   -1.0363 C   0  0  0  0  0  0  0  0  0  0  0  0
    6.8238    1.0156    0.2069 C   0  0  0  0  0  0  0  0  0  0  0  0
    5.6477    0.6165    1.3827 S   0  0  0  0  0  0  0  0  0  0  0  0
   -2.0105   -2.7782   -2.3816 H   0  0  0  0  0  0  0  0  0  0  0  0
   -3.3739   -1.6616   -2.7574 H   0  0  0  0  0  0  0  0  0  0  0  0
   -3.6176   -3.0540   -1.6795 H   0  0  0  0  0  0  0  0  0  0  0  0
   -1.4686   -0.4342    1.0755 H   0  0  0  0  0  0  0  0  0  0  0  0
   -1.7173    2.1514    1.0929 H   0  0  0  0  0  0  0  0  0  0  0  0
   -1.9630    2.0864   -0.6395 H   0  0  0  0  0  0  0  0  0  0  0  0
   -4.0263    0.6744   -0.2973 H   0  0  0  0  0  0  0  0  0  0  0  0
   -4.1094    2.2935    0.4037 H   0  0  0  0  0  0  0  0  0  0  0  0
   -6.2170    0.0565    2.8473 H   0  0  0  0  0  0  0  0  0  0  0  0
   -6.2536    1.3898    1.6759 H   0  0  0  0  0  0  0  0  0  0  0  0
   -6.0030   -0.2905    1.1172 H   0  0  0  0  0  0  0  0  0  0  0  0
    0.4376    1.0988   -0.6095 H   0  0  0  0  0  0  0  0  0  0  0  0
    2.4637    0.9695    0.5145 H   0  0  0  0  0  0  0  0  0  0  0  0
    3.3790   -1.0986    1.7191 H   0  0  0  0  0  0  0  0  0  0  0  0
    3.2925   -1.8397    0.1157 H   0  0  0  0  0  0  0  0  0  0  0  0
    4.8274   -0.6685   -1.8862 H   0  0  0  0  0  0  0  0  0  0  0  0
    7.1160    0.6650   -1.9189 H   0  0  0  0  0  0  0  0  0  0  0  0
    7.6963    1.5932    0.4810 H   0  0  0  0  0  0  0  0  0  0  0  0
  1  2  1  0
  2  3  1  0
  3  4  2  0
  3  5  1  0
  5  6  1  0
  6  7  1  0
  7  8  1  0
  8  9  1  0
  5 10  1  0
 10 11  1  0
 11 12  2  0
 11 13  1  0
 13 14  1  0
 14 15  1  0
 15 16  2  0
 16 17  1  0
 17 18  2  0
 18 19  1  0
 19 15  1  0
  1 20  1  0
  1 21  1  0
  1 22  1  0
  5 23  1  0
  6 24  1  0
  6 25  1  0
  7 26  1  0
  7 27  1  0
  9 28  1  0
  9 29  1  0
  9 30  1  0
 10 31  1  0
 13 32  1  0
 14 33  1  0
 14 34  1  0
 16 35  1  0
 17 36  1  0
 18 37  1  0
M  END
$$$$
