
     RDKit          3D

 44 45  0  0  0  0  0  0  0  0999 V2000
   -7.4390    1.0236    0.5540 C   0  0  0  0  0  0  0  0  0  0  0  0
   -6.9081    0.6715    1.9362 C   0  0  0  0  0  0  0  0  0  0  0  0
   -6.3109   -0.7321    1.9883 C   0  0  0  0  0  0  0  0  0  0  0  0
   -5.2253   -0.8683    1.0583 O   0  0  0  0  0  0  0  0  0  0  0  0
   -4.0103   -0.4625    1.5067 C   0  0  0  0  0  0  0  0  0  0  0  0
   -3.7745   -0.0056    2.6131 O   0  0  0  0  0  0  0  0  0  0  0  0
   -2.9777   -0.6501    0.4490 C   0  0  0  0  0  0  0  0  0  0  0  0
   -3.3042   -1.0972   -0.8381 C   0  0  0  0  0  0  0  0  0  0  0  0
   -2.3048   -1.2503   -1.7970 C   0  0  0  0  0  0  0  0  0  0  0  0
   -0.9787   -0.9585   -1.4738 C   0  0  0  0  0  0  0  0  0  0  0  0
   -0.6344   -0.5112   -0.1917 C   0  0  0  0  0  0  0  0  0  0  0  0
    0.7266   -0.2422    0.0433 N   0  0  0  0  0  0  0  0  0  0  0  0
    1.3261    0.1936    1.2104 C   0  0  0  0  0  0  0  0  0  0  0  0
    0.7673    0.4251    2.2784 O   0  0  0  0  0  0  0  0  0  0  0  0
    2.8411    0.3790    1.0733 C   0  0  0  0  0  0  0  0  0  0  0  0
    3.2915    0.0585   -0.2423 O   0  0  0  0  0  0  0  0  0  0  0  0
    4.6292    0.1982   -0.4908 C   0  0  0  0  0  0  0  0  0  0  0  0
    5.0134   -0.1167   -1.7991 C   0  0  0  0  0  0  0  0  0  0  0  0
    6.3497   -0.0184   -2.1965 C   0  0  0  0  0  0  0  0  0  0  0  0
    7.3109    0.3997   -1.2703 C   0  0  0  0  0  0  0  0  0  0  0  0
    8.7177    0.5078   -1.6767 N   0  0  0  0  0  4  0  0  0  0  0  0
    9.5410    0.8528   -0.8169 O   0  0  0  0  0  0  0  0  0  0  0  0
    8.9983    0.2478   -2.8556 O   0  0  0  0  0  1  0  0  0  0  0  0
    6.9387    0.7150    0.0427 C   0  0  0  0  0  0  0  0  0  0  0  0
    5.5962    0.6128    0.4286 C   0  0  0  0  0  0  0  0  0  0  0  0
   -1.6401   -0.3579    0.7656 C   0  0  0  0  0  0  0  0  0  0  0  0
   -8.2028    0.3079    0.2339 H   0  0  0  0  0  0  0  0  0  0  0  0
   -6.6373    1.0277   -0.1912 H   0  0  0  0  0  0  0  0  0  0  0  0
   -7.8914    2.0203    0.5659 H   0  0  0  0  0  0  0  0  0  0  0  0
   -6.1494    1.4118    2.2137 H   0  0  0  0  0  0  0  0  0  0  0  0
   -7.7220    0.7442    2.6659 H   0  0  0  0  0  0  0  0  0  0  0  0
   -7.0677   -1.4722    1.7059 H   0  0  0  0  0  0  0  0  0  0  0  0
   -5.9883   -0.9842    3.0055 H   0  0  0  0  0  0  0  0  0  0  0  0
   -4.3323   -1.3266   -1.1079 H   0  0  0  0  0  0  0  0  0  0  0  0
   -2.5587   -1.5969   -2.7959 H   0  0  0  0  0  0  0  0  0  0  0  0
   -0.2181   -1.0873   -2.2404 H   0  0  0  0  0  0  0  0  0  0  0  0
    1.3680   -0.3835   -0.7321 H   0  0  0  0  0  0  0  0  0  0  0  0
    3.0556    1.4300    1.3002 H   0  0  0  0  0  0  0  0  0  0  0  0
    3.3117   -0.2881    1.8047 H   0  0  0  0  0  0  0  0  0  0  0  0
    4.2657   -0.4427   -2.5188 H   0  0  0  0  0  0  0  0  0  0  0  0
    6.6194   -0.2698   -3.2201 H   0  0  0  0  0  0  0  0  0  0  0  0
    7.6756    1.0403    0.7751 H   0  0  0  0  0  0  0  0  0  0  0  0
    5.3447    0.8649    1.4547 H   0  0  0  0  0  0  0  0  0  0  0  0
   -1.4125   -0.0101    1.7698 H   0  0  0  0  0  0  0  0  0  0  0  0
  1  2  1  0
  2  3  1  0
  3  4  1  0
  4  5  1  0
  5  6  2  0
  5  7  1  0
  7  8  2  0
  8  9  1  0
  9 10  2  0
 10 11  1  0
 11 12  1  0
 12 13  1  0
 13 14  2  0
 13 15  1  0
 15 16  1  0
 16 17  1  0
 17 18  2  0
 18 19  1  0
 19 20  2  0
 20 21  1  0
 21 22  2  0
 21 23  1  0
 20 24  1  0
 24 25  2  0
 11 26  2  0
 26  7  1  0
 25 17  1  0
  1 27  1  0
  1 28  1  0
  1 29  1  0
  2 30  1  0
  2 31  1  0
  3 32  1  0
  3 33  1  0
  8 34  1  0
  9 35  1  0
 10 36  1  0
 12 37  1  0
 15 38  1  0
 15 39  1  0
 18 40  1  0
 19 41  1  0
 24 42  1  0
 25 43  1  0
 26 44  1  0
M  CHG  2  21   1  23  -1
M  END
$$$$
