
     RDKit          3D

 57 60  0  0  0  0  0  0  0  0999 V2000
   -1.9859    0.1101    2.1701 C   0  0  0  0  0  0  0  0  0  0  0  0
   -1.1769   -0.4459    1.0031 C   0  0  0  0  0  0  0  0  0  0  0  0
   -0.0816    0.5267    0.5442 C   0  0  0  0  0  0  0  0  0  0  0  0
    0.6198   -0.0377   -1.0661 S   0  0  0  0  0  0  0  0  0  0  0  0
   -0.6763    0.4620   -2.1428 C   0  0  0  0  0  0  0  0  0  0  0  0
   -1.0783    1.6880   -1.9865 N   0  0  0  0  0  0  0  0  0  0  0  0
   -2.0946    2.0832   -2.8519 C   0  0  0  0  0  0  0  0  0  0  0  0
   -2.6912    3.3627   -2.8368 C   0  0  0  0  0  0  0  0  0  0  0  0
   -3.6666    3.4609   -3.8103 C   0  0  0  0  0  0  0  0  0  0  0  0
   -3.8288    2.0035   -4.7120 S   0  0  0  0  0  0  0  0  0  0  0  0
   -2.6071    1.2563   -3.8042 C   0  0  0  0  0  0  0  0  0  0  0  0
   -2.1488   -0.0879   -3.9916 C   0  0  0  0  0  0  0  0  0  0  0  0
   -2.5874   -0.8449   -4.8551 O   0  0  0  0  0  0  0  0  0  0  0  0
   -1.1459   -0.4577   -3.0834 N   0  0  0  0  0  0  0  0  0  0  0  0
   -0.6490   -1.8339   -3.2013 C   0  0  0  0  0  0  0  0  0  0  0  0
   -1.3010   -2.7854   -2.2153 C   0  0  0  0  0  0  0  0  0  0  0  0
   -0.5303   -3.4434   -1.2447 C   0  0  0  0  0  0  0  0  0  0  0  0
   -1.1274   -4.3169   -0.3310 C   0  0  0  0  0  0  0  0  0  0  0  0
   -2.5044   -4.5557   -0.3809 C   0  0  0  0  0  0  0  0  0  0  0  0
   -3.0944   -5.4904    0.6073 C   0  0  0  0  0  0  0  0  0  0  0  0
   -2.4883   -6.0787    1.4834 O   0  0  0  0  0  0  0  0  0  0  0  0
   -4.4213   -5.6465    0.4514 O   0  0  0  0  0  0  0  0  0  0  0  0
   -3.2784   -3.9188   -1.3555 C   0  0  0  0  0  0  0  0  0  0  0  0
   -2.6795   -3.0441   -2.2675 C   0  0  0  0  0  0  0  0  0  0  0  0
    1.0902    0.6221    1.5385 C   0  0  0  0  0  0  0  0  0  0  0  0
    1.2057   -0.1423    2.4907 O   0  0  0  0  0  0  0  0  0  0  0  0
    1.9567    1.6630    1.2249 N   0  0  0  0  0  0  0  0  0  0  0  0
    3.1011    2.0794    1.9347 C   0  0  0  0  0  0  0  0  0  0  0  0
    3.8632    3.1053    1.3646 C   0  0  0  0  0  0  0  0  0  0  0  0
    5.0109    3.5850    2.0030 C   0  0  0  0  0  0  0  0  0  0  0  0
    5.4215    3.0494    3.2298 C   0  0  0  0  0  0  0  0  0  0  0  0
    6.6550    3.5868    3.8987 C   0  0  0  0  0  0  0  0  0  0  0  0
    4.6517    2.0245    3.8000 C   0  0  0  0  0  0  0  0  0  0  0  0
    5.0846    1.3182    5.3181 Cl  0  0  0  0  0  0  0  0  0  0  0  0
    3.5030    1.5437    3.1579 C   0  0  0  0  0  0  0  0  0  0  0  0
   -2.4616    1.0582    1.8992 H   0  0  0  0  0  0  0  0  0  0  0  0
   -2.7753   -0.5956    2.4486 H   0  0  0  0  0  0  0  0  0  0  0  0
   -1.3616    0.2789    3.0520 H   0  0  0  0  0  0  0  0  0  0  0  0
   -1.8827   -0.6426    0.1873 H   0  0  0  0  0  0  0  0  0  0  0  0
   -0.7468   -1.4105    1.2993 H   0  0  0  0  0  0  0  0  0  0  0  0
   -0.4984    1.5350    0.4406 H   0  0  0  0  0  0  0  0  0  0  0  0
   -2.4308    4.1670   -2.1612 H   0  0  0  0  0  0  0  0  0  0  0  0
   -4.2932    4.3120   -4.0410 H   0  0  0  0  0  0  0  0  0  0  0  0
   -0.8228   -2.2237   -4.2117 H   0  0  0  0  0  0  0  0  0  0  0  0
    0.4398   -1.8401   -3.0810 H   0  0  0  0  0  0  0  0  0  0  0  0
    0.5447   -3.2804   -1.1825 H   0  0  0  0  0  0  0  0  0  0  0  0
   -0.5127   -4.8092    0.4210 H   0  0  0  0  0  0  0  0  0  0  0  0
   -4.6661   -6.2789    1.1591 H   0  0  0  0  0  0  0  0  0  0  0  0
   -4.3491   -4.0996   -1.4200 H   0  0  0  0  0  0  0  0  0  0  0  0
   -3.3049   -2.5777   -3.0266 H   0  0  0  0  0  0  0  0  0  0  0  0
    1.7786    2.1365    0.3454 H   0  0  0  0  0  0  0  0  0  0  0  0
    3.5792    3.5471    0.4125 H   0  0  0  0  0  0  0  0  0  0  0  0
    5.5819    4.3828    1.5319 H   0  0  0  0  0  0  0  0  0  0  0  0
    7.3846    2.7866    4.0586 H   0  0  0  0  0  0  0  0  0  0  0  0
    7.1417    4.3536    3.2863 H   0  0  0  0  0  0  0  0  0  0  0  0
    6.3975    4.0470    4.8579 H   0  0  0  0  0  0  0  0  0  0  0  0
    2.9380    0.7529    3.6409 H   0  0  0  0  0  0  0  0  0  0  0  0
  1  2  1  0
  2  3  1  0
  3  4  1  0
  4  5  1  0
  5  6  2  0
  6  7  1  0
  7  8  1  0
  8  9  2  0
  9 10  1  0
 10 11  1  0
 11 12  1  0
 12 13  2  0
 12 14  1  0
 14 15  1  0
 15 16  1  0
 16 17  2  0
 17 18  1  0
 18 19  2  0
 19 20  1  0
 20 21  2  0
 20 22  1  0
 19 23  1  0
 23 24  2  0
  3 25  1  0
 25 26  2  0
 25 27  1  0
 27 28  1  0
 28 29  2  0
 29 30  1  0
 30 31  2  0
 31 32  1  0
 31 33  1  0
 33 34  1  0
 33 35  2  0
 14  5  1  0
 24 16  1  0
 35 28  1  0
 11  7  2  0
  1 36  1  0
  1 37  1  0
  1 38  1  0
  2 39  1  0
  2 40  1  0
  3 41  1  0
  8 42  1  0
  9 43  1  0
 15 44  1  0
 15 45  1  0
 17 46  1  0
 18 47  1  0
 22 48  1  0
 23 49  1  0
 24 50  1  0
 27 51  1  0
 29 52  1  0
 30 53  1  0
 32 54  1  0
 32 55  1  0
 32 56  1  0
 35 57  1  0
M  END
$$$$
