
     RDKit          3D

 52 55  0  0  0  0  0  0  0  0999 V2000
    7.4555    3.1782   -1.8567 C   0  0  0  0  0  0  0  0  0  0  0  0
    6.2929    3.4406   -1.0814 O   0  0  0  0  0  0  0  0  0  0  0  0
    5.2587    2.5560   -1.2034 C   0  0  0  0  0  0  0  0  0  0  0  0
    4.1226    2.8775   -0.4608 C   0  0  0  0  0  0  0  0  0  0  0  0
    2.9918    2.0559   -0.4960 C   0  0  0  0  0  0  0  0  0  0  0  0
    2.9796    0.8958   -1.2767 C   0  0  0  0  0  0  0  0  0  0  0  0
    1.8063    0.1175   -1.2512 N   0  0  0  0  0  0  0  0  0  0  0  0
    1.5180   -1.0170   -1.9867 C   0  0  0  0  0  0  0  0  0  0  0  0
    2.2690   -1.5613   -2.7941 O   0  0  0  0  0  0  0  0  0  0  0  0
    0.1647   -1.6387   -1.6663 C   0  0  0  0  0  0  0  0  0  0  0  0
   -1.2015   -0.4536   -1.8484 S   0  0  0  0  0  0  0  0  0  0  0  0
   -1.4629   -0.0844   -0.1502 C   0  0  0  0  0  0  0  0  0  0  0  0
   -0.4418    0.4347    0.4663 N   0  0  0  0  0  0  0  0  0  0  0  0
   -0.6013    0.6601    1.8030 C   0  0  0  0  0  0  0  0  0  0  0  0
   -1.7056    0.3994    2.5010 C   0  0  0  0  0  0  0  0  0  0  0  0
   -2.8893   -0.1542    1.8132 C   0  0  0  0  0  0  0  0  0  0  0  0
   -3.9426   -0.3378    2.4205 O   0  0  0  0  0  0  0  0  0  0  0  0
   -2.6860   -0.3862    0.4463 N   0  0  0  0  0  0  0  0  0  0  0  0
   -3.7632   -0.9841   -0.2719 C   0  0  0  0  0  0  0  0  0  0  0  0
   -4.4379   -0.2540   -1.2613 C   0  0  0  0  0  0  0  0  0  0  0  0
   -5.5088   -0.8291   -1.9473 C   0  0  0  0  0  0  0  0  0  0  0  0
   -5.9088   -2.1325   -1.6527 C   0  0  0  0  0  0  0  0  0  0  0  0
   -5.2453   -2.8662   -0.6668 C   0  0  0  0  0  0  0  0  0  0  0  0
   -4.1846   -2.2899    0.0375 C   0  0  0  0  0  0  0  0  0  0  0  0
   -3.4584   -2.9994    0.9630 O   0  0  0  0  0  0  0  0  0  0  0  0
   -4.2829   -3.6216    1.9497 C   0  0  0  0  0  0  0  0  0  0  0  0
   -1.6294    0.7702    4.1746 S   0  0  0  0  0  0  0  0  0  0  0  0
    0.1778    1.0300    4.0937 C   0  0  0  0  0  0  0  0  0  0  0  0
    0.5219    1.2365    2.6145 C   0  0  0  0  0  0  0  0  0  0  0  0
    4.1164    0.5770   -2.0191 C   0  0  0  0  0  0  0  0  0  0  0  0
    5.2512    1.4018   -1.9837 C   0  0  0  0  0  0  0  0  0  0  0  0
    7.9101    2.2206   -1.5811 H   0  0  0  0  0  0  0  0  0  0  0  0
    7.2293    3.2169   -2.9277 H   0  0  0  0  0  0  0  0  0  0  0  0
    8.1849    3.9654   -1.6432 H   0  0  0  0  0  0  0  0  0  0  0  0
    4.1154    3.7791    0.1466 H   0  0  0  0  0  0  0  0  0  0  0  0
    2.1210    2.3437    0.0859 H   0  0  0  0  0  0  0  0  0  0  0  0
    1.0587    0.4547   -0.6441 H   0  0  0  0  0  0  0  0  0  0  0  0
    0.1967   -2.0796   -0.6649 H   0  0  0  0  0  0  0  0  0  0  0  0
   -0.0120   -2.4514   -2.3783 H   0  0  0  0  0  0  0  0  0  0  0  0
   -4.1485    0.7679   -1.4936 H   0  0  0  0  0  0  0  0  0  0  0  0
   -6.0319   -0.2598   -2.7123 H   0  0  0  0  0  0  0  0  0  0  0  0
   -6.7375   -2.5800   -2.1962 H   0  0  0  0  0  0  0  0  0  0  0  0
   -5.5557   -3.8886   -0.4737 H   0  0  0  0  0  0  0  0  0  0  0  0
   -3.6574   -3.8293    2.8234 H   0  0  0  0  0  0  0  0  0  0  0  0
   -5.1047   -2.9712    2.2707 H   0  0  0  0  0  0  0  0  0  0  0  0
   -4.6684   -4.5764    1.5783 H   0  0  0  0  0  0  0  0  0  0  0  0
    0.4794    1.8851    4.7052 H   0  0  0  0  0  0  0  0  0  0  0  0
    0.6728    0.1332    4.4806 H   0  0  0  0  0  0  0  0  0  0  0  0
    0.6268    2.3054    2.3906 H   0  0  0  0  0  0  0  0  0  0  0  0
    1.4758    0.7522    2.3804 H   0  0  0  0  0  0  0  0  0  0  0  0
    4.1605   -0.3145   -2.6363 H   0  0  0  0  0  0  0  0  0  0  0  0
    6.1086    1.1057   -2.5788 H   0  0  0  0  0  0  0  0  0  0  0  0
  1  2  1  0
  2  3  1  0
  3  4  2  0
  4  5  1  0
  5  6  2  0
  6  7  1  0
  7  8  1  0
  8  9  2  0
  8 10  1  0
 10 11  1  0
 11 12  1  0
 12 13  2  0
 13 14  1  0
 14 15  2  0
 15 16  1  0
 16 17  2  0
 16 18  1  0
 18 19  1  0
 19 20  2  0
 20 21  1  0
 21 22  2  0
 22 23  1  0
 23 24  2  0
 24 25  1  0
 25 26  1  0
 15 27  1  0
 27 28  1  0
 28 29  1  0
  6 30  1  0
 30 31  2  0
 31  3  1  0
 18 12  1  0
 24 19  1  0
 29 14  1  0
  1 32  1  0
  1 33  1  0
  1 34  1  0
  4 35  1  0
  5 36  1  0
  7 37  1  0
 10 38  1  0
 10 39  1  0
 20 40  1  0
 21 41  1  0
 22 42  1  0
 23 43  1  0
 26 44  1  0
 26 45  1  0
 26 46  1  0
 28 47  1  0
 28 48  1  0
 29 49  1  0
 29 50  1  0
 30 51  1  0
 31 52  1  0
M  END
$$$$
