
     RDKit          3D

 58 60  0  0  0  0  0  0  0  0999 V2000
    5.7145   -3.2586   -4.7881 C   0  0  0  0  0  0  0  0  0  0  0  0
    5.1767   -2.3889   -3.6909 C   0  0  0  0  0  0  0  0  0  0  0  0
    6.0084   -1.4734   -3.0367 C   0  0  0  0  0  0  0  0  0  0  0  0
    5.5148   -0.6859   -1.9937 C   0  0  0  0  0  0  0  0  0  0  0  0
    4.1818   -0.8065   -1.5836 C   0  0  0  0  0  0  0  0  0  0  0  0
    3.6483    0.0235   -0.4440 C   0  0  0  0  0  0  0  0  0  0  0  0
    3.7183   -0.7303    0.8860 C   0  0  0  0  0  0  0  0  0  0  0  0
    3.2343    0.0707    1.9968 N   0  0  0  0  0  0  0  0  0  0  0  0
    1.8888    0.2383    2.2350 C   0  0  0  0  0  0  0  0  0  0  0  0
    1.0105   -0.2654    1.5417 O   0  0  0  0  0  0  0  0  0  0  0  0
    1.5939    1.0918    3.4497 C   0  0  0  0  0  0  0  0  0  0  0  0
    0.0992    1.3561    3.5982 C   0  0  0  0  0  0  0  0  0  0  0  0
   -0.5964    0.1155    3.9878 N   0  0  0  0  0  0  0  0  0  0  0  0
   -2.2209    0.2215    4.4224 S   0  0  0  0  0  6  0  0  0  0  0  0
   -2.6839   -1.1195    4.6938 O   0  0  0  0  0  0  0  0  0  0  0  0
   -2.3562    1.2902    5.3877 O   0  0  0  0  0  0  0  0  0  0  0  0
   -2.9885    0.7492    2.9093 C   0  0  0  0  0  0  0  0  0  0  0  0
   -3.4858    2.0456    2.7879 C   0  0  0  0  0  0  0  0  0  0  0  0
   -4.0913    2.4440    1.5909 C   0  0  0  0  0  0  0  0  0  0  0  0
   -4.2137    1.5543    0.5090 C   0  0  0  0  0  0  0  0  0  0  0  0
   -3.7203    0.2579    0.6603 C   0  0  0  0  0  0  0  0  0  0  0  0
   -3.1107   -0.1547    1.8549 C   0  0  0  0  0  0  0  0  0  0  0  0
   -3.8417   -0.6942   -0.4545 C   0  0  0  0  0  0  0  0  0  0  0  0
   -3.3753   -1.8235   -0.3262 O   0  0  0  0  0  0  0  0  0  0  0  0
   -4.4817   -0.2395   -1.5960 N   0  0  0  0  0  0  0  0  0  0  0  0
   -4.6197   -1.1558   -2.7135 C   0  0  0  0  0  0  0  0  0  0  0  0
   -4.9472    1.0556   -1.7894 C   0  0  0  0  0  0  0  0  0  0  0  0
   -5.4489    1.4026   -2.8616 O   0  0  0  0  0  0  0  0  0  0  0  0
   -4.8159    1.9363   -0.7191 N   0  0  0  0  0  0  0  0  0  0  0  0
   -5.3126    3.2966   -0.8864 C   0  0  0  0  0  0  0  0  0  0  0  0
    3.3549   -1.7359   -2.2265 C   0  0  0  0  0  0  0  0  0  0  0  0
    3.8495   -2.5227   -3.2688 C   0  0  0  0  0  0  0  0  0  0  0  0
    4.9382   -3.4744   -5.5297 H   0  0  0  0  0  0  0  0  0  0  0  0
    6.0799   -4.2025   -4.3720 H   0  0  0  0  0  0  0  0  0  0  0  0
    6.5368   -2.7626   -5.3144 H   0  0  0  0  0  0  0  0  0  0  0  0
    7.0485   -1.3667   -3.3365 H   0  0  0  0  0  0  0  0  0  0  0  0
    6.1808    0.0210   -1.5046 H   0  0  0  0  0  0  0  0  0  0  0  0
    2.6158    0.3219   -0.6656 H   0  0  0  0  0  0  0  0  0  0  0  0
    4.2135    0.9617   -0.3716 H   0  0  0  0  0  0  0  0  0  0  0  0
    3.1266   -1.6522    0.8399 H   0  0  0  0  0  0  0  0  0  0  0  0
    4.7518   -1.0095    1.1194 H   0  0  0  0  0  0  0  0  0  0  0  0
    3.9123    0.5030    2.6116 H   0  0  0  0  0  0  0  0  0  0  0  0
    2.1180    2.0469    3.3297 H   0  0  0  0  0  0  0  0  0  0  0  0
    1.9893    0.5857    4.3378 H   0  0  0  0  0  0  0  0  0  0  0  0
   -0.3112    1.7351    2.6566 H   0  0  0  0  0  0  0  0  0  0  0  0
   -0.0454    2.1142    4.3750 H   0  0  0  0  0  0  0  0  0  0  0  0
   -0.4341   -0.6751    3.3536 H   0  0  0  0  0  0  0  0  0  0  0  0
   -3.4107    2.7510    3.6136 H   0  0  0  0  0  0  0  0  0  0  0  0
   -4.4639    3.4633    1.5363 H   0  0  0  0  0  0  0  0  0  0  0  0
   -2.7387   -1.1734    1.9563 H   0  0  0  0  0  0  0  0  0  0  0  0
   -3.9490   -0.8302   -3.5153 H   0  0  0  0  0  0  0  0  0  0  0  0
   -4.3757   -2.1859   -2.4413 H   0  0  0  0  0  0  0  0  0  0  0  0
   -5.6482   -1.1255   -3.0878 H   0  0  0  0  0  0  0  0  0  0  0  0
   -6.0918    3.4930   -0.1429 H   0  0  0  0  0  0  0  0  0  0  0  0
   -5.7496    3.4613   -1.8749 H   0  0  0  0  0  0  0  0  0  0  0  0
   -4.4842    4.0025   -0.7671 H   0  0  0  0  0  0  0  0  0  0  0  0
    2.3180   -1.8555   -1.9168 H   0  0  0  0  0  0  0  0  0  0  0  0
    3.1898   -3.2418   -3.7494 H   0  0  0  0  0  0  0  0  0  0  0  0
  1  2  1  0
  2  3  2  0
  3  4  1  0
  4  5  2  0
  5  6  1  0
  6  7  1  0
  7  8  1  0
  8  9  1  0
  9 10  2  0
  9 11  1  0
 11 12  1  0
 12 13  1  0
 13 14  1  0
 14 15  2  0
 14 16  2  0
 14 17  1  0
 17 18  2  0
 18 19  1  0
 19 20  2  0
 20 21  1  0
 21 22  2  0
 21 23  1  0
 23 24  2  0
 23 25  1  0
 25 26  1  0
 25 27  1  0
 27 28  2  0
 27 29  1  0
 29 30  1  0
  5 31  1  0
 31 32  2  0
 32  2  1  0
 22 17  1  0
 29 20  1  0
  1 33  1  0
  1 34  1  0
  1 35  1  0
  3 36  1  0
  4 37  1  0
  6 38  1  0
  6 39  1  0
  7 40  1  0
  7 41  1  0
  8 42  1  0
 11 43  1  0
 11 44  1  0
 12 45  1  0
 12 46  1  0
 13 47  1  0
 18 48  1  0
 19 49  1  0
 22 50  1  0
 26 51  1  0
 26 52  1  0
 26 53  1  0
 30 54  1  0
 30 55  1  0
 30 56  1  0
 31 57  1  0
 32 58  1  0
M  END
$$$$
