
     RDKit          3D

 51 54  0  0  0  0  0  0  0  0999 V2000
   -5.9706    1.1079   -2.7665 C   0  0  0  0  0  0  0  0  0  0  0  0
   -6.2753    1.3831   -1.2978 C   0  0  0  0  0  0  0  0  0  0  0  0
   -5.7124    0.3287   -0.4353 N   0  0  0  0  0  0  0  0  0  0  0  0
   -6.6062   -0.8068   -0.1660 C   0  0  0  0  0  0  0  0  0  0  0  0
   -7.2078   -0.7039    1.2230 C   0  0  0  0  0  0  0  0  0  0  0  0
   -4.3713    0.3268   -0.0578 C   0  0  0  0  0  0  0  0  0  0  0  0
   -3.8027   -0.7318    0.6847 C   0  0  0  0  0  0  0  0  0  0  0  0
   -2.4483   -0.7616    1.0602 C   0  0  0  0  0  0  0  0  0  0  0  0
   -1.6099    0.2921    0.7152 C   0  0  0  0  0  0  0  0  0  0  0  0
   -0.2026    0.3106    1.0626 C   0  0  0  0  0  0  0  0  0  0  0  0
    0.5538    1.3667    0.7358 C   0  0  0  0  0  0  0  0  0  0  0  0
    1.9416    1.3354    1.0506 C   0  0  0  0  0  0  0  0  0  0  0  0
    2.8161    0.4646    0.5846 N   0  0  0  0  0  0  0  0  0  0  0  0
    4.0810    0.7012    1.1014 C   0  0  0  0  0  0  0  0  0  0  0  0
    5.2245   -0.0902    0.6690 C   0  0  0  0  0  0  0  0  0  0  0  0
    6.3253   -0.3301    1.5002 C   0  0  0  0  0  0  0  0  0  0  0  0
    7.4115   -1.0798    1.0357 C   0  0  0  0  0  0  0  0  0  0  0  0
    7.4162   -1.6052   -0.2592 C   0  0  0  0  0  0  0  0  0  0  0  0
    8.5415   -2.3039   -0.5906 O   0  0  0  0  0  0  0  0  0  0  0  0
    8.5649   -2.8951   -1.8910 C   0  0  0  0  0  0  0  0  0  0  0  0
    6.3164   -1.3814   -1.0868 C   0  0  0  0  0  0  0  0  0  0  0  0
    5.2303   -0.6277   -0.6232 C   0  0  0  0  0  0  0  0  0  0  0  0
    4.1458    1.7405    2.0062 C   0  0  0  0  0  0  0  0  0  0  0  0
    2.5979    2.4435    2.2025 S   0  0  0  0  0  0  0  0  0  0  0  0
   -0.0034    2.5232   -0.0105 C   0  0  0  0  0  0  0  0  0  0  0  0
    0.6743    3.4943   -0.3348 O   0  0  0  0  0  0  0  0  0  0  0  0
   -1.3535    2.4565   -0.3496 O   0  0  0  0  0  0  0  0  0  0  0  0
   -2.1498    1.3528    0.0059 C   0  0  0  0  0  0  0  0  0  0  0  0
   -3.4945    1.3790   -0.3796 C   0  0  0  0  0  0  0  0  0  0  0  0
   -6.4405    1.8707   -3.3951 H   0  0  0  0  0  0  0  0  0  0  0  0
   -6.3479    0.1275   -3.0777 H   0  0  0  0  0  0  0  0  0  0  0  0
   -4.8922    1.1283   -2.9667 H   0  0  0  0  0  0  0  0  0  0  0  0
   -7.3664    1.4212   -1.1676 H   0  0  0  0  0  0  0  0  0  0  0  0
   -5.9266    2.3850   -1.0076 H   0  0  0  0  0  0  0  0  0  0  0  0
   -7.4296   -0.8164   -0.8943 H   0  0  0  0  0  0  0  0  0  0  0  0
   -6.1005   -1.7660   -0.3083 H   0  0  0  0  0  0  0  0  0  0  0  0
   -7.7342    0.2454    1.3655 H   0  0  0  0  0  0  0  0  0  0  0  0
   -7.9271   -1.5123    1.3862 H   0  0  0  0  0  0  0  0  0  0  0  0
   -6.4404   -0.7762    1.9975 H   0  0  0  0  0  0  0  0  0  0  0  0
   -4.4055   -1.5838    1.0006 H   0  0  0  0  0  0  0  0  0  0  0  0
   -2.0731   -1.6192    1.6228 H   0  0  0  0  0  0  0  0  0  0  0  0
    0.2163   -0.5523    1.5732 H   0  0  0  0  0  0  0  0  0  0  0  0
    6.3550    0.0465    2.5197 H   0  0  0  0  0  0  0  0  0  0  0  0
    8.2617   -1.2591    1.6912 H   0  0  0  0  0  0  0  0  0  0  0  0
    7.7571   -3.6366   -2.0001 H   0  0  0  0  0  0  0  0  0  0  0  0
    9.5178   -3.4159   -2.0092 H   0  0  0  0  0  0  0  0  0  0  0  0
    8.5153   -2.1279   -2.6724 H   0  0  0  0  0  0  0  0  0  0  0  0
    6.2691   -1.7634   -2.1001 H   0  0  0  0  0  0  0  0  0  0  0  0
    4.3852   -0.4551   -1.2879 H   0  0  0  0  0  0  0  0  0  0  0  0
    5.0012    2.1280    2.5399 H   0  0  0  0  0  0  0  0  0  0  0  0
   -3.8274    2.2417   -0.9434 H   0  0  0  0  0  0  0  0  0  0  0  0
  1  2  1  0
  2  3  1  0
  3  4  1  0
  4  5  1  0
  3  6  1  0
  6  7  2  0
  7  8  1  0
  8  9  2  0
  9 10  1  0
 10 11  2  0
 11 12  1  0
 12 13  2  0
 13 14  1  0
 14 15  1  0
 15 16  2  0
 16 17  1  0
 17 18  2  0
 18 19  1  0
 19 20  1  0
 18 21  1  0
 21 22  2  0
 14 23  2  0
 23 24  1  0
 11 25  1  0
 25 26  2  0
 25 27  1  0
 27 28  1  0
 28 29  2  0
 29  6  1  0
 28  9  1  0
 24 12  1  0
 22 15  1  0
  1 30  1  0
  1 31  1  0
  1 32  1  0
  2 33  1  0
  2 34  1  0
  4 35  1  0
  4 36  1  0
  5 37  1  0
  5 38  1  0
  5 39  1  0
  7 40  1  0
  8 41  1  0
 10 42  1  0
 16 43  1  0
 17 44  1  0
 20 45  1  0
 20 46  1  0
 20 47  1  0
 21 48  1  0
 22 49  1  0
 23 50  1  0
 29 51  1  0
M  END
$$$$
