
     RDKit          3D

 49 50  0  0  0  0  0  0  0  0999 V2000
    4.7578   -1.6790    1.3575 C   0  0  0  0  0  0  0  0  0  0  0  0
    3.9775   -0.3785    1.1503 C   0  0  0  0  0  0  0  0  0  0  0  0
    2.8258   -0.3035    2.1543 C   0  0  0  0  0  0  0  0  0  0  0  0
    3.4881   -0.2897   -0.3058 C   0  0  0  0  0  0  0  0  0  0  0  0
    2.8502    1.0559   -0.6443 C   0  0  0  0  0  0  0  0  0  0  0  0
    2.4431    1.0627   -2.0777 N   0  0  0  0  0  4  0  0  0  0  0  0
    3.3551    1.4731   -2.9949 C   0  0  0  0  0  0  0  0  0  0  0  0
    3.0415    1.5418   -4.3455 C   0  0  0  0  0  0  0  0  0  0  0  0
    1.7712    1.1866   -4.7668 C   0  0  0  0  0  0  0  0  0  0  0  0
    0.8406    0.7671   -3.8256 C   0  0  0  0  0  0  0  0  0  0  0  0
    1.1852    0.7087   -2.4681 C   0  0  0  0  0  0  0  0  0  0  0  0
    0.2051    0.2350   -1.4876 C   0  0  0  0  0  0  0  0  0  0  0  0
   -0.9527    0.8748   -1.2580 C   0  0  0  0  0  0  0  0  0  0  0  0
   -1.9192    0.4304   -0.2464 C   0  0  0  0  0  0  0  0  0  0  0  0
   -2.2470   -0.9115   -0.0589 C   0  0  0  0  0  0  0  0  0  0  0  0
   -3.1831   -1.2893    0.9171 C   0  0  0  0  0  0  0  0  0  0  0  0
   -3.8446   -0.3537    1.7307 C   0  0  0  0  0  0  0  0  0  0  0  0
   -4.7545   -0.7393    2.7193 N   0  0  0  0  0  0  0  0  0  0  0  0
   -5.3074   -2.0940    2.6932 C   0  0  0  0  0  0  0  0  0  0  0  0
   -5.6092    0.2728    3.3409 C   0  0  0  0  0  0  0  0  0  0  0  0
   -3.4998    0.9911    1.5133 C   0  0  0  0  0  0  0  0  0  0  0  0
   -2.5668    1.3816    0.5397 C   0  0  0  0  0  0  0  0  0  0  0  0
    4.1250   -2.5552    1.1792 H   0  0  0  0  0  0  0  0  0  0  0  0
    5.6127   -1.7331    0.6752 H   0  0  0  0  0  0  0  0  0  0  0  0
    5.1445   -1.7424    2.3802 H   0  0  0  0  0  0  0  0  0  0  0  0
    4.6603    0.4581    1.3453 H   0  0  0  0  0  0  0  0  0  0  0  0
    3.1932   -0.4399    3.1772 H   0  0  0  0  0  0  0  0  0  0  0  0
    2.3267    0.6694    2.1180 H   0  0  0  0  0  0  0  0  0  0  0  0
    2.0770   -1.0785    1.9584 H   0  0  0  0  0  0  0  0  0  0  0  0
    4.3389   -0.4548   -0.9795 H   0  0  0  0  0  0  0  0  0  0  0  0
    2.7824   -1.1038   -0.5100 H   0  0  0  0  0  0  0  0  0  0  0  0
    3.5627    1.8769   -0.4998 H   0  0  0  0  0  0  0  0  0  0  0  0
    1.9764    1.2863   -0.0301 H   0  0  0  0  0  0  0  0  0  0  0  0
    4.3434    1.7460   -2.6337 H   0  0  0  0  0  0  0  0  0  0  0  0
    3.7862    1.8720   -5.0670 H   0  0  0  0  0  0  0  0  0  0  0  0
    1.5055    1.2314   -5.8221 H   0  0  0  0  0  0  0  0  0  0  0  0
   -0.1564    0.4763   -4.1549 H   0  0  0  0  0  0  0  0  0  0  0  0
    0.4730   -0.6574   -0.9286 H   0  0  0  0  0  0  0  0  0  0  0  0
   -1.2199    1.7871   -1.7892 H   0  0  0  0  0  0  0  0  0  0  0  0
   -1.7963   -1.6923   -0.6658 H   0  0  0  0  0  0  0  0  0  0  0  0
   -3.3812   -2.3525    1.0194 H   0  0  0  0  0  0  0  0  0  0  0  0
   -4.5207   -2.8451    2.8215 H   0  0  0  0  0  0  0  0  0  0  0  0
   -5.8464   -2.2804    1.7577 H   0  0  0  0  0  0  0  0  0  0  0  0
   -6.0113   -2.2536    3.5177 H   0  0  0  0  0  0  0  0  0  0  0  0
   -6.2476    0.7595    2.5954 H   0  0  0  0  0  0  0  0  0  0  0  0
   -6.2645   -0.1703    4.0993 H   0  0  0  0  0  0  0  0  0  0  0  0
   -5.0127    1.0273    3.8650 H   0  0  0  0  0  0  0  0  0  0  0  0
   -3.9524    1.7838    2.1021 H   0  0  0  0  0  0  0  0  0  0  0  0
   -2.3552    2.4420    0.4235 H   0  0  0  0  0  0  0  0  0  0  0  0
  1  2  1  0
  2  3  1  0
  2  4  1  0
  4  5  1  0
  5  6  1  0
  6  7  2  0
  7  8  1  0
  8  9  2  0
  9 10  1  0
 10 11  2  0
 11 12  1  0
 12 13  2  3
 13 14  1  0
 14 15  2  0
 15 16  1  0
 16 17  2  0
 17 18  1  0
 18 19  1  0
 18 20  1  0
 17 21  1  0
 21 22  2  0
 11  6  1  0
 22 14  1  0
  1 23  1  0
  1 24  1  0
  1 25  1  0
  2 26  1  0
  3 27  1  0
  3 28  1  0
  3 29  1  0
  4 30  1  0
  4 31  1  0
  5 32  1  0
  5 33  1  0
  7 34  1  0
  8 35  1  0
  9 36  1  0
 10 37  1  0
 12 38  1  0
 13 39  1  0
 15 40  1  0
 16 41  1  0
 19 42  1  0
 19 43  1  0
 19 44  1  0
 20 45  1  0
 20 46  1  0
 20 47  1  0
 21 48  1  0
 22 49  1  0
M  CHG  1   6   1
M  END
$$$$
