
     RDKit          3D

 50 53  0  0  0  0  0  0  0  0999 V2000
    7.7610    1.9360    2.8684 C   0  0  0  0  0  0  0  0  0  0  0  0
    6.3806    1.8454    2.2435 C   0  0  0  0  0  0  0  0  0  0  0  0
    6.4155    0.8243    1.2476 O   0  0  0  0  0  0  0  0  0  0  0  0
    5.2859    0.5998    0.5136 C   0  0  0  0  0  0  0  0  0  0  0  0
    4.0578    1.2337    0.7244 C   0  0  0  0  0  0  0  0  0  0  0  0
    2.9428    0.9135   -0.0662 C   0  0  0  0  0  0  0  0  0  0  0  0
    3.0386   -0.0572   -1.0737 C   0  0  0  0  0  0  0  0  0  0  0  0
    1.8782   -0.4107   -1.9375 C   0  0  0  0  0  0  0  0  0  0  0  0
    2.1047   -0.6742   -3.1112 O   0  0  0  0  0  0  0  0  0  0  0  0
    0.6543   -0.4284   -1.2946 N   0  0  0  0  0  0  0  0  0  0  0  0
   -0.6067   -0.7067   -1.8670 C   0  0  0  0  0  0  0  0  0  0  0  0
   -0.8086   -0.9580   -3.2243 C   0  0  0  0  0  0  0  0  0  0  0  0
   -2.0893   -1.2330   -3.7118 C   0  0  0  0  0  0  0  0  0  0  0  0
   -3.1830   -1.2509   -2.8478 C   0  0  0  0  0  0  0  0  0  0  0  0
   -3.0053   -0.9899   -1.4859 C   0  0  0  0  0  0  0  0  0  0  0  0
   -4.1648   -0.9853   -0.5735 C   0  0  0  0  0  0  0  0  0  0  0  0
   -4.5189    0.1736    0.0066 C   0  0  0  0  0  0  0  0  0  0  0  0
   -5.6604    0.2330    0.9038 C   0  0  0  0  0  0  0  0  0  0  0  0
   -6.0539    1.4183    1.5292 C   0  0  0  0  0  0  0  0  0  0  0  0
   -7.1606    1.4241    2.3846 C   0  0  0  0  0  0  0  0  0  0  0  0
   -7.8776    0.2480    2.6172 C   0  0  0  0  0  0  0  0  0  0  0  0
   -7.4908   -0.9373    1.9950 C   0  0  0  0  0  0  0  0  0  0  0  0
   -6.3866   -0.9277    1.1462 C   0  0  0  0  0  0  0  0  0  0  0  0
   -6.0279   -2.1420    0.5362 O   0  0  0  0  0  0  0  0  0  0  0  0
   -4.9396   -2.2364   -0.3261 C   0  0  0  0  0  0  0  0  0  0  0  0
   -4.6400   -3.3058   -0.8465 O   0  0  0  0  0  0  0  0  0  0  0  0
   -1.7126   -0.7216   -1.0042 C   0  0  0  0  0  0  0  0  0  0  0  0
    4.2610   -0.6876   -1.3118 C   0  0  0  0  0  0  0  0  0  0  0  0
    5.3608   -0.3486   -0.5157 C   0  0  0  0  0  0  0  0  0  0  0  0
    6.6144   -1.0207   -0.7828 N   0  0  0  0  0  4  0  0  0  0  0  0
    6.6636   -2.2306   -0.5206 O   0  0  0  0  0  0  0  0  0  0  0  0
    7.5219   -0.3502   -1.2927 O   0  0  0  0  0  1  0  0  0  0  0  0
    8.0505    0.9744    3.3048 H   0  0  0  0  0  0  0  0  0  0  0  0
    7.7862    2.7006    3.6497 H   0  0  0  0  0  0  0  0  0  0  0  0
    8.5118    2.1804    2.1098 H   0  0  0  0  0  0  0  0  0  0  0  0
    6.1274    2.8112    1.7914 H   0  0  0  0  0  0  0  0  0  0  0  0
    5.6514    1.5901    3.0208 H   0  0  0  0  0  0  0  0  0  0  0  0
    3.9309    1.9899    1.4941 H   0  0  0  0  0  0  0  0  0  0  0  0
    2.0138    1.4547    0.0997 H   0  0  0  0  0  0  0  0  0  0  0  0
    0.6570   -0.3036   -0.2912 H   0  0  0  0  0  0  0  0  0  0  0  0
    0.0119   -0.9560   -3.9353 H   0  0  0  0  0  0  0  0  0  0  0  0
   -2.2293   -1.4397   -4.7703 H   0  0  0  0  0  0  0  0  0  0  0  0
   -4.1698   -1.4757   -3.2472 H   0  0  0  0  0  0  0  0  0  0  0  0
   -3.9764    1.0950   -0.1828 H   0  0  0  0  0  0  0  0  0  0  0  0
   -5.5109    2.3449    1.3596 H   0  0  0  0  0  0  0  0  0  0  0  0
   -7.4657    2.3483    2.8702 H   0  0  0  0  0  0  0  0  0  0  0  0
   -8.7379    0.2572    3.2820 H   0  0  0  0  0  0  0  0  0  0  0  0
   -8.0430   -1.8565    2.1684 H   0  0  0  0  0  0  0  0  0  0  0  0
   -1.5755   -0.5328    0.0579 H   0  0  0  0  0  0  0  0  0  0  0  0
    4.3533   -1.4287   -2.1042 H   0  0  0  0  0  0  0  0  0  0  0  0
  1  2  1  0
  2  3  1  0
  3  4  1  0
  4  5  2  0
  5  6  1  0
  6  7  2  0
  7  8  1  0
  8  9  2  0
  8 10  1  0
 10 11  1  0
 11 12  2  0
 12 13  1  0
 13 14  2  0
 14 15  1  0
 15 16  1  0
 16 17  2  0
 17 18  1  0
 18 19  2  0
 19 20  1  0
 20 21  2  0
 21 22  1  0
 22 23  2  0
 23 24  1  0
 24 25  1  0
 25 26  2  0
 15 27  2  0
  7 28  1  0
 28 29  2  0
 29 30  1  0
 30 31  2  0
 30 32  1  0
 29  4  1  0
 27 11  1  0
 25 16  1  0
 23 18  1  0
  1 33  1  0
  1 34  1  0
  1 35  1  0
  2 36  1  0
  2 37  1  0
  5 38  1  0
  6 39  1  0
 10 40  1  0
 12 41  1  0
 13 42  1  0
 14 43  1  0
 17 44  1  0
 19 45  1  0
 20 46  1  0
 21 47  1  0
 22 48  1  0
 27 49  1  0
 28 50  1  0
M  CHG  2  30   1  32  -1
M  END
$$$$
