
     RDKit          3D

 36 37  0  0  0  0  0  0  0  0999 V2000
   -1.4794    1.9744   -0.9620 O   0  0  0  0  0  0  0  0  0  0  0  0
   -0.9682    1.5286    0.0605 C   0  0  0  0  0  0  0  0  0  0  0  0
   -0.1030    2.3889    0.9853 C   0  0  0  0  0  0  0  0  0  0  0  0
    1.2952    2.2806    0.7120 O   0  0  0  0  0  0  0  0  0  0  0  0
    1.8858    1.1474    1.1567 C   0  0  0  0  0  0  0  0  0  0  0  0
    1.3204    0.2381    1.7453 O   0  0  0  0  0  0  0  0  0  0  0  0
    3.3359    1.1409    0.8302 C   0  0  0  0  0  0  0  0  0  0  0  0
    4.1049    0.0547    1.2690 C   0  0  0  0  0  0  0  0  0  0  0  0
    5.4688    0.0092    0.9836 C   0  0  0  0  0  0  0  0  0  0  0  0
    6.4076   -1.3260    1.5272 Cl  0  0  0  0  0  0  0  0  0  0  0  0
    6.0790    1.0333    0.2647 C   0  0  0  0  0  0  0  0  0  0  0  0
    5.3115    2.1106   -0.1709 C   0  0  0  0  0  0  0  0  0  0  0  0
    6.0578    3.3814   -1.0592 Cl  0  0  0  0  0  0  0  0  0  0  0  0
    3.9454    2.1731    0.1049 C   0  0  0  0  0  0  0  0  0  0  0  0
   -1.1305    0.2247    0.4838 N   0  0  0  0  0  0  0  0  0  0  0  0
   -1.7290   -0.7888   -0.3692 C   0  0  0  0  0  0  0  0  0  0  0  0
   -3.1749   -0.4885   -0.7925 C   0  0  0  0  0  0  0  0  0  0  0  0
   -3.8781   -1.6880   -1.2176 N   0  0  0  0  0  0  0  0  0  0  0  0
   -4.5828   -2.5366   -0.3956 C   0  0  0  0  0  0  0  0  0  0  0  0
   -4.8138   -2.2404    0.9136 O   0  0  0  0  0  0  0  0  0  0  0  0
   -5.0072   -3.6594   -0.9818 C   0  0  0  0  0  0  0  0  0  0  0  0
   -4.5361   -3.7247   -2.6488 S   0  0  0  0  0  0  0  0  0  0  0  0
   -3.6892   -2.1739   -2.5093 C   0  0  0  0  0  0  0  0  0  0  0  0
   -3.0389   -1.6759   -3.4126 O   0  0  0  0  0  0  0  0  0  0  0  0
   -0.3172    2.1564    2.0358 H   0  0  0  0  0  0  0  0  0  0  0  0
   -0.3895    3.4355    0.8348 H   0  0  0  0  0  0  0  0  0  0  0  0
    3.6424   -0.7540    1.8322 H   0  0  0  0  0  0  0  0  0  0  0  0
    7.1427    0.9922    0.0451 H   0  0  0  0  0  0  0  0  0  0  0  0
    3.3684    3.0239   -0.2501 H   0  0  0  0  0  0  0  0  0  0  0  0
   -0.4286   -0.1033    1.1508 H   0  0  0  0  0  0  0  0  0  0  0  0
   -1.0914   -0.9118   -1.2520 H   0  0  0  0  0  0  0  0  0  0  0  0
   -1.6870   -1.7235    0.2013 H   0  0  0  0  0  0  0  0  0  0  0  0
   -3.7283    0.0033    0.0135 H   0  0  0  0  0  0  0  0  0  0  0  0
   -3.1704    0.2148   -1.6337 H   0  0  0  0  0  0  0  0  0  0  0  0
   -4.8506   -1.2756    0.9992 H   0  0  0  0  0  0  0  0  0  0  0  0
   -5.5717   -4.4416   -0.4945 H   0  0  0  0  0  0  0  0  0  0  0  0
  1  2  2  0
  2  3  1  0
  3  4  1  0
  4  5  1  0
  5  6  2  0
  5  7  1  0
  7  8  2  0
  8  9  1  0
  9 10  1  0
  9 11  2  0
 11 12  1  0
 12 13  1  0
 12 14  2  0
  2 15  1  0
 15 16  1  0
 16 17  1  0
 17 18  1  0
 18 19  1  0
 19 20  1  0
 19 21  2  0
 21 22  1  0
 22 23  1  0
 23 24  2  0
 14  7  1  0
 23 18  1  0
  3 25  1  0
  3 26  1  0
  8 27  1  0
 11 28  1  0
 14 29  1  0
 15 30  1  0
 16 31  1  0
 16 32  1  0
 17 33  1  0
 17 34  1  0
 20 35  1  0
 21 36  1  0
M  END
$$$$
