
     RDKit          3D

 42 44  0  0  0  0  0  0  0  0999 V2000
    5.3015   -2.1816    1.9175 C   0  0  0  0  0  0  0  0  0  0  0  0
    3.9324   -1.9865    1.5840 O   0  0  0  0  0  0  0  0  0  0  0  0
    3.6650   -1.1607    0.5264 C   0  0  0  0  0  0  0  0  0  0  0  0
    4.6114   -0.4984   -0.2567 C   0  0  0  0  0  0  0  0  0  0  0  0
    4.2143    0.3104   -1.3281 C   0  0  0  0  0  0  0  0  0  0  0  0
    5.2460    0.8898   -2.0165 O   0  0  0  0  0  0  0  0  0  0  0  0
    4.8998    1.6784   -3.1496 C   0  0  0  0  0  0  0  0  0  0  0  0
    2.8577    0.4653   -1.6072 C   0  0  0  0  0  0  0  0  0  0  0  0
    1.8980   -0.1811   -0.8151 C   0  0  0  0  0  0  0  0  0  0  0  0
    0.4573    0.0113   -1.1577 C   0  0  0  0  0  0  0  0  0  0  0  0
    0.1791    0.2163   -2.3335 O   0  0  0  0  0  0  0  0  0  0  0  0
   -0.4044   -0.0325   -0.0801 N   0  0  0  0  0  0  0  0  0  0  0  0
   -1.7874    0.0974   -0.0936 C   0  0  0  0  0  0  0  0  0  0  0  0
   -2.6532    0.2755   -1.5601 S   0  0  0  0  0  0  0  0  0  0  0  0
   -4.0929    0.3875   -0.7316 C   0  0  0  0  0  0  0  0  0  0  0  0
   -3.9699    0.2792    0.6262 C   0  0  0  0  0  0  0  0  0  0  0  0
   -2.6162    0.0840    1.0358 C   0  0  0  0  0  0  0  0  0  0  0  0
   -2.0769   -0.0911    2.3829 C   0  0  0  0  0  0  0  0  0  0  0  0
   -2.9756   -0.3092    3.3860 N   0  0  0  0  0  0  0  0  0  0  0  0
   -0.8724   -0.0875    2.6282 O   0  0  0  0  0  0  0  0  0  0  0  0
   -5.3024    0.4117    1.2747 C   0  0  0  0  0  0  0  0  0  0  0  0
   -6.1918    0.9683    0.1201 C   0  0  0  0  0  0  0  0  0  0  0  0
   -5.4779    0.5954   -1.2116 C   0  0  0  0  0  0  0  0  0  0  0  0
    2.3072   -1.0032    0.2417 C   0  0  0  0  0  0  0  0  0  0  0  0
    5.7739   -1.2391    2.2135 H   0  0  0  0  0  0  0  0  0  0  0  0
    5.3428   -2.8585    2.7763 H   0  0  0  0  0  0  0  0  0  0  0  0
    5.8447   -2.6559    1.0934 H   0  0  0  0  0  0  0  0  0  0  0  0
    5.6755   -0.5966   -0.0663 H   0  0  0  0  0  0  0  0  0  0  0  0
    4.3799    1.0793   -3.9045 H   0  0  0  0  0  0  0  0  0  0  0  0
    4.3055    2.5499   -2.8559 H   0  0  0  0  0  0  0  0  0  0  0  0
    5.8286    2.0448   -3.5973 H   0  0  0  0  0  0  0  0  0  0  0  0
    2.5138    1.0839   -2.4312 H   0  0  0  0  0  0  0  0  0  0  0  0
   -0.0081   -0.0926    0.8570 H   0  0  0  0  0  0  0  0  0  0  0  0
   -2.5844   -0.5621    4.2834 H   0  0  0  0  0  0  0  0  0  0  0  0
   -3.9237   -0.5893    3.1928 H   0  0  0  0  0  0  0  0  0  0  0  0
   -5.2950    1.0982    2.1258 H   0  0  0  0  0  0  0  0  0  0  0  0
   -5.6701   -0.5681    1.5972 H   0  0  0  0  0  0  0  0  0  0  0  0
   -6.2415    2.0621    0.2048 H   0  0  0  0  0  0  0  0  0  0  0  0
   -7.2173    0.5887    0.1645 H   0  0  0  0  0  0  0  0  0  0  0  0
   -5.5679    1.3981   -1.9485 H   0  0  0  0  0  0  0  0  0  0  0  0
   -5.8905   -0.3313   -1.6232 H   0  0  0  0  0  0  0  0  0  0  0  0
    1.5853   -1.5503    0.8425 H   0  0  0  0  0  0  0  0  0  0  0  0
  1  2  1  0
  2  3  1  0
  3  4  2  0
  4  5  1  0
  5  6  1  0
  6  7  1  0
  5  8  2  0
  8  9  1  0
  9 10  1  0
 10 11  2  0
 10 12  1  0
 12 13  1  0
 13 14  1  0
 14 15  1  0
 15 16  2  0
 16 17  1  0
 17 18  1  0
 18 19  1  0
 18 20  2  0
 16 21  1  0
 21 22  1  0
 22 23  1  0
  9 24  2  0
 24  3  1  0
 17 13  2  0
 23 15  1  0
  1 25  1  0
  1 26  1  0
  1 27  1  0
  4 28  1  0
  7 29  1  0
  7 30  1  0
  7 31  1  0
  8 32  1  0
 12 33  1  0
 19 34  1  0
 19 35  1  0
 21 36  1  0
 21 37  1  0
 22 38  1  0
 22 39  1  0
 23 40  1  0
 23 41  1  0
 24 42  1  0
M  END
$$$$
