
     RDKit          3D

 38 39  0  0  0  0  0  0  0  0999 V2000
    1.1541    1.0021    1.5947 O   0  0  0  0  0  0  0  0  0  0  0  0
    0.2190    0.6214    0.9000 C   0  0  0  0  0  0  0  0  0  0  0  0
   -1.1486    0.5720    1.4765 C   0  0  0  0  0  0  0  0  0  0  0  0
   -2.2897    0.5842    0.7697 C   0  0  0  0  0  0  0  0  0  0  0  0
   -3.6133    0.5761    1.4165 C   0  0  0  0  0  0  0  0  0  0  0  0
   -3.9141   -0.4418    2.3375 C   0  0  0  0  0  0  0  0  0  0  0  0
   -5.1546   -0.4875    2.9850 C   0  0  0  0  0  0  0  0  0  0  0  0
   -6.1234    0.4806    2.7251 C   0  0  0  0  0  0  0  0  0  0  0  0
   -5.8588    1.4955    1.8091 C   0  0  0  0  0  0  0  0  0  0  0  0
   -4.6153    1.5285    1.1584 C   0  0  0  0  0  0  0  0  0  0  0  0
   -4.3965    2.6062    0.2080 N   0  0  0  0  0  4  0  0  0  0  0  0
   -4.1105    2.2913   -0.9556 O   0  0  0  0  0  0  0  0  0  0  0  0
   -4.5487    3.7628    0.6234 O   0  0  0  0  0  1  0  0  0  0  0  0
    0.3518    0.1700   -0.3863 N   0  0  0  0  0  0  0  0  0  0  0  0
    1.6471    0.1238   -1.0391 C   0  0  0  0  0  0  0  0  0  0  0  0
    2.4694   -1.0925   -0.6065 C   0  0  0  0  0  0  0  0  0  0  0  0
    3.8015   -1.1477   -1.3130 C   0  0  0  0  0  0  0  0  0  0  0  0
    4.8924   -0.4174   -0.8163 C   0  0  0  0  0  0  0  0  0  0  0  0
    6.1216   -0.4509   -1.4755 C   0  0  0  0  0  0  0  0  0  0  0  0
    6.2586   -1.2104   -2.6308 C   0  0  0  0  0  0  0  0  0  0  0  0
    7.4386   -1.2422   -3.2640 F   0  0  0  0  0  0  0  0  0  0  0  0
    5.1890   -1.9365   -3.1409 C   0  0  0  0  0  0  0  0  0  0  0  0
    3.9582   -1.9047   -2.4838 C   0  0  0  0  0  0  0  0  0  0  0  0
   -1.1524    0.5916    2.5631 H   0  0  0  0  0  0  0  0  0  0  0  0
   -2.2891    0.6368   -0.3152 H   0  0  0  0  0  0  0  0  0  0  0  0
   -3.1834   -1.2174    2.5635 H   0  0  0  0  0  0  0  0  0  0  0  0
   -5.3624   -1.2833    3.6978 H   0  0  0  0  0  0  0  0  0  0  0  0
   -7.0830    0.4418    3.2362 H   0  0  0  0  0  0  0  0  0  0  0  0
   -6.6159    2.2507    1.6070 H   0  0  0  0  0  0  0  0  0  0  0  0
   -0.4312   -0.2572   -0.8590 H   0  0  0  0  0  0  0  0  0  0  0  0
    2.1843    1.0527   -0.8134 H   0  0  0  0  0  0  0  0  0  0  0  0
    1.4604    0.1014   -2.1186 H   0  0  0  0  0  0  0  0  0  0  0  0
    1.9063   -2.0136   -0.8052 H   0  0  0  0  0  0  0  0  0  0  0  0
    2.6357   -1.0814    0.4781 H   0  0  0  0  0  0  0  0  0  0  0  0
    4.7873    0.1808    0.0875 H   0  0  0  0  0  0  0  0  0  0  0  0
    6.9697    0.1098   -1.0961 H   0  0  0  0  0  0  0  0  0  0  0  0
    5.3208   -2.5212   -4.0455 H   0  0  0  0  0  0  0  0  0  0  0  0
    3.1251   -2.4744   -2.8892 H   0  0  0  0  0  0  0  0  0  0  0  0
  1  2  2  0
  2  3  1  0
  3  4  2  3
  4  5  1  0
  5  6  2  0
  6  7  1  0
  7  8  2  0
  8  9  1  0
  9 10  2  0
 10 11  1  0
 11 12  2  0
 11 13  1  0
  2 14  1  0
 14 15  1  0
 15 16  1  0
 16 17  1  0
 17 18  2  0
 18 19  1  0
 19 20  2  0
 20 21  1  0
 20 22  1  0
 22 23  2  0
 10  5  1  0
 23 17  1  0
  3 24  1  0
  4 25  1  0
  6 26  1  0
  7 27  1  0
  8 28  1  0
  9 29  1  0
 14 30  1  0
 15 31  1  0
 15 32  1  0
 16 33  1  0
 16 34  1  0
 18 35  1  0
 19 36  1  0
 22 37  1  0
 23 38  1  0
M  CHG  2  11   1  13  -1
M  END
$$$$
