
     RDKit          3D

 61 67  0  0  0  0  0  0  0  0999 V2000
    3.0892    1.3706   -2.6408 O   0  0  0  0  0  0  0  0  0  0  0  0
    3.0431    0.8602   -1.5240 C   0  0  0  0  0  0  0  0  0  0  0  0
    4.3271    0.6138   -0.8308 C   0  0  0  0  0  0  0  0  0  0  0  0
    4.5437    1.1209    0.4691 C   0  0  0  0  0  0  0  0  0  0  0  0
    5.7664    0.9082    1.1120 C   0  0  0  0  0  0  0  0  0  0  0  0
    6.7363    0.2081    0.4252 C   0  0  0  0  0  0  0  0  0  0  0  0
    6.5292   -0.2651   -0.8516 C   0  0  0  0  0  0  0  0  0  0  0  0
    5.3376   -0.0727   -1.5150 C   0  0  0  0  0  0  0  0  0  0  0  0
    7.6157   -0.9175   -1.3448 O   0  0  0  0  0  0  0  0  0  0  0  0
    8.5340   -0.7926   -0.2383 C   0  0  0  0  0  0  0  0  0  0  0  0
    7.9783   -0.0891    0.8922 O   0  0  0  0  0  0  0  0  0  0  0  0
    1.8469    0.5258   -0.8739 N   0  0  0  0  0  0  0  0  0  0  0  0
    1.7678   -0.6192    0.0311 C   0  0  0  0  0  0  0  0  0  0  0  0
    0.5744   -0.5129    0.9762 C   0  0  0  0  0  0  0  0  0  0  0  0
   -0.7649   -0.3259    0.2103 C   0  0  0  0  0  0  0  0  0  0  0  0
   -0.5894    0.9294   -0.6817 C   0  0  0  0  0  0  0  0  0  0  0  0
    0.6219    0.8224   -1.6050 C   0  0  0  0  0  0  0  0  0  0  0  0
   -0.9787   -1.4303   -0.7029 O   0  0  0  0  0  0  0  0  0  0  0  0
   -1.3713   -2.6105   -0.1365 C   0  0  0  0  0  0  0  0  0  0  0  0
   -1.2051   -3.7538   -0.9199 C   0  0  0  0  0  0  0  0  0  0  0  0
   -1.5605   -5.0038   -0.4107 C   0  0  0  0  0  0  0  0  0  0  0  0
   -2.0840   -5.1005    0.8753 C   0  0  0  0  0  0  0  0  0  0  0  0
   -2.4198   -6.3025    1.3591 F   0  0  0  0  0  0  0  0  0  0  0  0
   -2.2698   -3.9702    1.6606 C   0  0  0  0  0  0  0  0  0  0  0  0
   -1.9191   -2.7211    1.1425 C   0  0  0  0  0  0  0  0  0  0  0  0
   -2.1399   -1.4957    1.9335 C   0  0  0  0  0  0  0  0  0  0  0  0
   -2.4795   -1.5865    3.1087 O   0  0  0  0  0  0  0  0  0  0  0  0
   -1.9779   -0.1841    1.1728 C   0  0  0  0  0  0  0  0  0  0  0  0
   -3.3161    0.1304    0.5133 C   0  0  0  0  0  0  0  0  0  0  0  0
   -3.4232    1.5742    0.8620 C   0  0  0  0  0  0  0  0  0  0  0  0
   -4.4493    2.4564    0.2571 C   0  0  0  0  0  0  0  0  0  0  0  0
   -5.3762    1.9728   -0.6740 C   0  0  0  0  0  0  0  0  0  0  0  0
   -6.3267    2.8349   -1.2267 C   0  0  0  0  0  0  0  0  0  0  0  0
   -6.3579    4.1780   -0.8505 C   0  0  0  0  0  0  0  0  0  0  0  0
   -5.4401    4.6634    0.0793 C   0  0  0  0  0  0  0  0  0  0  0  0
   -4.4874    3.8063    0.6318 C   0  0  0  0  0  0  0  0  0  0  0  0
   -2.5596    1.9857    1.7340 N   0  0  0  0  0  0  0  0  0  0  0  0
   -1.7616    0.8793    2.1053 O   0  0  0  0  0  0  0  0  0  0  0  0
    3.7610    1.6865    0.9703 H   0  0  0  0  0  0  0  0  0  0  0  0
    5.9519    1.2868    2.1111 H   0  0  0  0  0  0  0  0  0  0  0  0
    5.1916   -0.4347   -2.5263 H   0  0  0  0  0  0  0  0  0  0  0  0
    9.4262   -0.2562   -0.5815 H   0  0  0  0  0  0  0  0  0  0  0  0
    8.8300   -1.7974    0.0851 H   0  0  0  0  0  0  0  0  0  0  0  0
    1.6977   -1.5212   -0.5889 H   0  0  0  0  0  0  0  0  0  0  0  0
    2.6796   -0.7241    0.6218 H   0  0  0  0  0  0  0  0  0  0  0  0
    0.7355    0.3349    1.6547 H   0  0  0  0  0  0  0  0  0  0  0  0
    0.5599   -1.4166    1.5946 H   0  0  0  0  0  0  0  0  0  0  0  0
   -1.4691    1.0826   -1.3166 H   0  0  0  0  0  0  0  0  0  0  0  0
   -0.4707    1.8225   -0.0562 H   0  0  0  0  0  0  0  0  0  0  0  0
    0.7378    1.7676   -2.1486 H   0  0  0  0  0  0  0  0  0  0  0  0
    0.4796    0.0353   -2.3554 H   0  0  0  0  0  0  0  0  0  0  0  0
   -0.7886   -3.6756   -1.9216 H   0  0  0  0  0  0  0  0  0  0  0  0
   -1.4298   -5.9033   -1.0058 H   0  0  0  0  0  0  0  0  0  0  0  0
   -2.6894   -4.0703    2.6576 H   0  0  0  0  0  0  0  0  0  0  0  0
   -3.3253   -0.0508   -0.5635 H   0  0  0  0  0  0  0  0  0  0  0  0
   -4.1582   -0.3991    0.9735 H   0  0  0  0  0  0  0  0  0  0  0  0
   -5.3845    0.9315   -0.9847 H   0  0  0  0  0  0  0  0  0  0  0  0
   -7.0468    2.4594   -1.9506 H   0  0  0  0  0  0  0  0  0  0  0  0
   -7.0996    4.8466   -1.2803 H   0  0  0  0  0  0  0  0  0  0  0  0
   -5.4651    5.7100    0.3765 H   0  0  0  0  0  0  0  0  0  0  0  0
   -3.7776    4.1987    1.3584 H   0  0  0  0  0  0  0  0  0  0  0  0
  1  2  2  0
  2  3  1  0
  3  4  2  0
  4  5  1  0
  5  6  2  0
  6  7  1  0
  7  8  2  0
  7  9  1  0
  9 10  1  0
 10 11  1  0
  2 12  1  0
 12 13  1  0
 13 14  1  0
 14 15  1  0
 15 16  1  0
 16 17  1  0
 15 18  1  0
 18 19  1  0
 19 20  2  0
 20 21  1  0
 21 22  2  0
 22 23  1  0
 22 24  1  0
 24 25  2  0
 25 26  1  0
 26 27  2  0
 26 28  1  0
 28 29  1  0
 29 30  1  0
 30 31  1  0
 31 32  2  0
 32 33  1  0
 33 34  2  0
 34 35  1  0
 35 36  2  0
 30 37  2  0
 37 38  1  0
  8  3  1  0
 17 12  1  0
 25 19  1  0
 38 28  1  0
 11  6  1  0
 28 15  1  0
 36 31  1  0
  4 39  1  0
  5 40  1  0
  8 41  1  0
 10 42  1  0
 10 43  1  0
 13 44  1  0
 13 45  1  0
 14 46  1  0
 14 47  1  0
 16 48  1  0
 16 49  1  0
 17 50  1  0
 17 51  1  0
 20 52  1  0
 21 53  1  0
 24 54  1  0
 29 55  1  0
 29 56  1  0
 32 57  1  0
 33 58  1  0
 34 59  1  0
 35 60  1  0
 36 61  1  0
M  END
$$$$
