
     RDKit          3D

 34 35  0  0  0  0  0  0  0  0999 V2000
    4.2726    0.5617    2.4250 C   0  0  0  0  0  0  0  0  0  0  0  0
    4.1875    0.7712    1.0202 O   0  0  0  0  0  0  0  0  0  0  0  0
    3.2617    0.0311    0.3390 C   0  0  0  0  0  0  0  0  0  0  0  0
    2.4197   -0.9343    0.8914 C   0  0  0  0  0  0  0  0  0  0  0  0
    1.5073   -1.6157    0.0773 C   0  0  0  0  0  0  0  0  0  0  0  0
    1.4149   -1.3321   -1.2868 C   0  0  0  0  0  0  0  0  0  0  0  0
    0.5006   -2.0347   -2.0773 N   0  0  0  0  0  0  0  0  0  0  0  0
   -0.5694   -1.4534   -2.5332 C   0  0  0  0  0  0  0  0  0  0  0  0
   -1.0119   -0.0320   -2.3210 C   0  0  0  0  0  0  0  0  0  0  0  0
   -2.4491    0.0381   -1.8656 C   0  0  0  0  0  0  0  0  0  0  0  0
   -3.3645   -0.2043   -2.6549 O   0  0  0  0  0  0  0  0  0  0  0  0
   -2.7795    0.3822   -0.4492 C   0  0  0  0  0  0  0  0  0  0  0  0
   -4.1144    0.6808   -0.1361 C   0  0  0  0  0  0  0  0  0  0  0  0
   -4.4833    1.0093    1.1726 C   0  0  0  0  0  0  0  0  0  0  0  0
   -3.5190    1.0368    2.1751 C   0  0  0  0  0  0  0  0  0  0  0  0
   -3.9616    1.4482    3.7842 Cl  0  0  0  0  0  0  0  0  0  0  0  0
   -2.1920    0.7349    1.8788 C   0  0  0  0  0  0  0  0  0  0  0  0
   -1.8215    0.4048    0.5702 C   0  0  0  0  0  0  0  0  0  0  0  0
    2.2845   -0.3932   -1.8438 C   0  0  0  0  0  0  0  0  0  0  0  0
    3.1931    0.2921   -1.0323 C   0  0  0  0  0  0  0  0  0  0  0  0
    3.3275    0.8107    2.9177 H   0  0  0  0  0  0  0  0  0  0  0  0
    5.0417    1.2353    2.8167 H   0  0  0  0  0  0  0  0  0  0  0  0
    4.5783   -0.4641    2.6525 H   0  0  0  0  0  0  0  0  0  0  0  0
    2.4535   -1.1905    1.9454 H   0  0  0  0  0  0  0  0  0  0  0  0
    0.8664   -2.3802    0.5094 H   0  0  0  0  0  0  0  0  0  0  0  0
   -1.2267   -2.0690   -3.1734 H   0  0  0  0  0  0  0  0  0  0  0  0
   -0.9625    0.4720   -3.2956 H   0  0  0  0  0  0  0  0  0  0  0  0
   -0.3530    0.5366   -1.6672 H   0  0  0  0  0  0  0  0  0  0  0  0
   -4.8781    0.6625   -0.9130 H   0  0  0  0  0  0  0  0  0  0  0  0
   -5.5199    1.2404    1.3986 H   0  0  0  0  0  0  0  0  0  0  0  0
   -1.4377    0.7552    2.6622 H   0  0  0  0  0  0  0  0  0  0  0  0
   -0.7809    0.1648    0.3865 H   0  0  0  0  0  0  0  0  0  0  0  0
    2.2571   -0.1947   -2.9126 H   0  0  0  0  0  0  0  0  0  0  0  0
    3.8584    1.0292   -1.4771 H   0  0  0  0  0  0  0  0  0  0  0  0
  1  2  1  0
  2  3  1  0
  3  4  2  0
  4  5  1  0
  5  6  2  0
  6  7  1  0
  7  8  2  3
  8  9  1  0
  9 10  1  0
 10 11  2  0
 10 12  1  0
 12 13  2  0
 13 14  1  0
 14 15  2  0
 15 16  1  0
 15 17  1  0
 17 18  2  0
  6 19  1  0
 19 20  2  0
 20  3  1  0
 18 12  1  0
  1 21  1  0
  1 22  1  0
  1 23  1  0
  4 24  1  0
  5 25  1  0
  8 26  1  0
  9 27  1  0
  9 28  1  0
 13 29  1  0
 14 30  1  0
 17 31  1  0
 18 32  1  0
 19 33  1  0
 20 34  1  0
M  END
$$$$
