
     RDKit          3D

 37 39  0  0  0  0  0  0  0  0999 V2000
    4.5853    0.3578    0.0597 N   0  0  0  0  0  0  0  0  0  0  0  0
    3.4280    0.2378    0.9384 C   0  0  0  0  0  0  0  0  0  0  0  0
    2.1553   -0.0534    0.1469 C   0  0  0  0  0  0  0  0  0  0  0  0
    0.9493   -0.1739    1.0909 C   0  0  0  0  0  0  0  0  0  0  0  0
   -0.2981   -0.4712    0.3489 N   0  0  0  0  0  0  0  0  0  0  0  0
   -0.6512   -1.8459    0.2000 C   0  0  0  0  0  0  0  0  0  0  0  0
    0.2781   -2.8913    0.4104 C   0  0  0  0  0  0  0  0  0  0  0  0
   -0.0553   -4.2427    0.2546 C   0  0  0  0  0  0  0  0  0  0  0  0
   -1.3377   -4.5998   -0.1234 C   0  0  0  0  0  0  0  0  0  0  0  0
   -2.2783   -3.6017   -0.3459 C   0  0  0  0  0  0  0  0  0  0  0  0
   -1.9466   -2.2402   -0.1925 C   0  0  0  0  0  0  0  0  0  0  0  0
   -3.2743   -1.0982   -0.4890 S   0  0  0  0  0  0  0  0  0  0  0  0
   -2.4386    0.4683   -0.4672 C   0  0  0  0  0  0  0  0  0  0  0  0
   -3.2169    1.5700   -0.8735 C   0  0  0  0  0  0  0  0  0  0  0  0
   -2.6928    2.8580   -0.8843 C   0  0  0  0  0  0  0  0  0  0  0  0
   -1.3768    3.0673   -0.4816 C   0  0  0  0  0  0  0  0  0  0  0  0
   -0.7672    4.4471   -0.5099 C   0  0  0  0  0  0  0  0  0  0  0  0
   -0.0548    4.6735   -1.6475 F   0  0  0  0  0  0  0  0  0  0  0  0
   -1.6886    5.4472   -0.4374 F   0  0  0  0  0  0  0  0  0  0  0  0
    0.0976    4.6630    0.5208 F   0  0  0  0  0  0  0  0  0  0  0  0
   -0.6029    1.9584   -0.0821 C   0  0  0  0  0  0  0  0  0  0  0  0
   -1.1028    0.6352   -0.0513 C   0  0  0  0  0  0  0  0  0  0  0  0
    4.6968   -0.4947   -0.4892 H   0  0  0  0  0  0  0  0  0  0  0  0
    4.4329    1.1050   -0.6178 H   0  0  0  0  0  0  0  0  0  0  0  0
    3.3173    1.1685    1.5053 H   0  0  0  0  0  0  0  0  0  0  0  0
    3.6159   -0.5636    1.6611 H   0  0  0  0  0  0  0  0  0  0  0  0
    2.2831   -0.9752   -0.4321 H   0  0  0  0  0  0  0  0  0  0  0  0
    1.9880    0.7408   -0.5897 H   0  0  0  0  0  0  0  0  0  0  0  0
    0.8429    0.7391    1.6911 H   0  0  0  0  0  0  0  0  0  0  0  0
    1.1411   -0.9330    1.8605 H   0  0  0  0  0  0  0  0  0  0  0  0
    1.3072   -2.6919    0.6895 H   0  0  0  0  0  0  0  0  0  0  0  0
    0.6956   -5.0099    0.4267 H   0  0  0  0  0  0  0  0  0  0  0  0
   -1.6069   -5.6450   -0.2468 H   0  0  0  0  0  0  0  0  0  0  0  0
   -3.2851   -3.8905   -0.6420 H   0  0  0  0  0  0  0  0  0  0  0  0
   -4.2496    1.4240   -1.1875 H   0  0  0  0  0  0  0  0  0  0  0  0
   -3.3164    3.6896   -1.2078 H   0  0  0  0  0  0  0  0  0  0  0  0
    0.4264    2.1718    0.1936 H   0  0  0  0  0  0  0  0  0  0  0  0
  1  2  1  0
  2  3  1  0
  3  4  1  0
  4  5  1  0
  5  6  1  0
  6  7  2  0
  7  8  1  0
  8  9  2  0
  9 10  1  0
 10 11  2  0
 11 12  1  0
 12 13  1  0
 13 14  2  0
 14 15  1  0
 15 16  2  0
 16 17  1  0
 17 18  1  0
 17 19  1  0
 17 20  1  0
 16 21  1  0
 21 22  2  0
 22  5  1  0
 11  6  1  0
 22 13  1  0
  1 23  1  0
  1 24  1  0
  2 25  1  0
  2 26  1  0
  3 27  1  0
  3 28  1  0
  4 29  1  0
  4 30  1  0
  7 31  1  0
  8 32  1  0
  9 33  1  0
 10 34  1  0
 14 35  1  0
 15 36  1  0
 21 37  1  0
M  END
$$$$
