
     RDKit          3D

 51 55  0  0  0  0  0  0  0  0999 V2000
   -2.1467   -1.0812    1.8765 C   0  0  0  0  0  0  0  0  0  0  0  0
   -1.9350   -0.5341    0.4853 C   0  0  0  0  0  0  0  0  0  0  0  0
   -0.7789    0.2224    0.3237 N   0  0  0  0  0  0  0  0  0  0  0  0
   -0.4680    0.8096   -0.8565 C   0  0  0  0  0  0  0  0  0  0  0  0
    0.5544    1.6251   -1.2945 C   0  0  0  0  0  0  0  0  0  0  0  0
    1.7198    2.1117   -0.5862 C   0  0  0  0  0  0  0  0  0  0  0  0
    2.3213    3.1181   -0.9422 O   0  0  0  0  0  0  0  0  0  0  0  0
    2.1124    1.3281    0.4782 N   0  0  0  0  0  0  0  0  0  0  0  0
    3.3630    1.5686    1.1604 C   0  0  0  0  0  0  0  0  0  0  0  0
    4.4412    0.6559    0.6334 C   0  0  0  0  0  0  0  0  0  0  0  0
    4.7232   -0.5692    1.2820 C   0  0  0  0  0  0  0  0  0  0  0  0
    5.7018   -1.4368    0.7861 C   0  0  0  0  0  0  0  0  0  0  0  0
    6.3739   -1.0601   -0.3559 C   0  0  0  0  0  0  0  0  0  0  0  0
    6.1030    0.1245   -0.9979 C   0  0  0  0  0  0  0  0  0  0  0  0
    5.1451    1.0004   -0.5332 C   0  0  0  0  0  0  0  0  0  0  0  0
    6.8725    0.3023   -2.1046 O   0  0  0  0  0  0  0  0  0  0  0  0
    7.6595   -0.9062   -2.0855 C   0  0  0  0  0  0  0  0  0  0  0  0
    7.3485   -1.7766   -0.9769 O   0  0  0  0  0  0  0  0  0  0  0  0
    0.2035    1.9075   -2.6359 C   0  0  0  0  0  0  0  0  0  0  0  0
   -0.9059    1.2821   -3.0375 N   0  0  0  0  0  0  0  0  0  0  0  0
   -1.3214    0.6172   -1.9264 N   0  0  0  0  0  0  0  0  0  0  0  0
   -2.4852   -0.1683   -1.8907 C   0  0  0  0  0  0  0  0  0  0  0  0
   -3.1577   -0.3552   -2.8972 O   0  0  0  0  0  0  0  0  0  0  0  0
   -2.7994   -0.7534   -0.5376 C   0  0  0  0  0  0  0  0  0  0  0  0
   -4.0933   -1.5287   -0.4676 C   0  0  0  0  0  0  0  0  0  0  0  0
   -5.1652   -0.9055    0.4007 C   0  0  0  0  0  0  0  0  0  0  0  0
   -5.8463   -1.6834    1.3505 C   0  0  0  0  0  0  0  0  0  0  0  0
   -6.8551   -1.1228    2.1391 C   0  0  0  0  0  0  0  0  0  0  0  0
   -7.2052    0.2175    1.9821 C   0  0  0  0  0  0  0  0  0  0  0  0
   -6.5494    0.9965    1.0319 C   0  0  0  0  0  0  0  0  0  0  0  0
   -5.5452    0.4329    0.2491 C   0  0  0  0  0  0  0  0  0  0  0  0
   -4.9368    1.2081   -0.6591 F   0  0  0  0  0  0  0  0  0  0  0  0
   -1.2093   -1.4943    2.2664 H   0  0  0  0  0  0  0  0  0  0  0  0
   -2.4739   -0.2816    2.5490 H   0  0  0  0  0  0  0  0  0  0  0  0
   -2.8802   -1.8895    1.9164 H   0  0  0  0  0  0  0  0  0  0  0  0
   -0.3105    0.4961    1.1878 H   0  0  0  0  0  0  0  0  0  0  0  0
    1.7502    0.3845    0.5020 H   0  0  0  0  0  0  0  0  0  0  0  0
    3.6680    2.6167    1.0655 H   0  0  0  0  0  0  0  0  0  0  0  0
    3.1920    1.3765    2.2254 H   0  0  0  0  0  0  0  0  0  0  0  0
    4.1795   -0.8503    2.1818 H   0  0  0  0  0  0  0  0  0  0  0  0
    5.9263   -2.3756    1.2798 H   0  0  0  0  0  0  0  0  0  0  0  0
    4.9440    1.9272   -1.0632 H   0  0  0  0  0  0  0  0  0  0  0  0
    8.7197   -0.6336   -2.0300 H   0  0  0  0  0  0  0  0  0  0  0  0
    7.4855   -1.4529   -3.0195 H   0  0  0  0  0  0  0  0  0  0  0  0
    0.7361    2.5347   -3.3415 H   0  0  0  0  0  0  0  0  0  0  0  0
   -4.5321   -1.6849   -1.4602 H   0  0  0  0  0  0  0  0  0  0  0  0
   -3.8615   -2.5401   -0.1074 H   0  0  0  0  0  0  0  0  0  0  0  0
   -5.5991   -2.7349    1.4825 H   0  0  0  0  0  0  0  0  0  0  0  0
   -7.3742   -1.7357    2.8726 H   0  0  0  0  0  0  0  0  0  0  0  0
   -7.9931    0.6516    2.5924 H   0  0  0  0  0  0  0  0  0  0  0  0
   -6.8161    2.0391    0.8892 H   0  0  0  0  0  0  0  0  0  0  0  0
  1  2  1  0
  2  3  1  0
  3  4  1  0
  4  5  2  0
  5  6  1  0
  6  7  2  0
  6  8  1  0
  8  9  1  0
  9 10  1  0
 10 11  2  0
 11 12  1  0
 12 13  2  0
 13 14  1  0
 14 15  2  0
 14 16  1  0
 16 17  1  0
 17 18  1  0
  5 19  1  0
 19 20  2  0
 20 21  1  0
 21 22  1  0
 22 23  2  0
 22 24  1  0
 24 25  1  0
 25 26  1  0
 26 27  2  0
 27 28  1  0
 28 29  2  0
 29 30  1  0
 30 31  2  0
 31 32  1  0
 24  2  2  0
 31 26  1  0
 21  4  1  0
 15 10  1  0
 18 13  1  0
  1 33  1  0
  1 34  1  0
  1 35  1  0
  3 36  1  0
  8 37  1  0
  9 38  1  0
  9 39  1  0
 11 40  1  0
 12 41  1  0
 15 42  1  0
 17 43  1  0
 17 44  1  0
 19 45  1  0
 25 46  1  0
 25 47  1  0
 27 48  1  0
 28 49  1  0
 29 50  1  0
 30 51  1  0
M  END
$$$$
