
     RDKit          3D

 69 74  0  0  0  0  0  0  0  0999 V2000
    7.2538   -1.3651   -0.8458 C   0  0  0  0  0  0  0  0  0  0  0  0
    6.3033   -2.1304   -0.1192 O   0  0  0  0  0  0  0  0  0  0  0  0
    4.9884   -1.7375   -0.1796 C   0  0  0  0  0  0  0  0  0  0  0  0
    4.5087   -0.7070   -0.9957 C   0  0  0  0  0  0  0  0  0  0  0  0
    3.1464   -0.3715   -1.0011 C   0  0  0  0  0  0  0  0  0  0  0  0
    2.2534   -1.0576   -0.1595 C   0  0  0  0  0  0  0  0  0  0  0  0
    2.7352   -2.1031    0.6458 C   0  0  0  0  0  0  0  0  0  0  0  0
    4.0922   -2.4472    0.6430 C   0  0  0  0  0  0  0  0  0  0  0  0
    4.6399   -3.4496    1.4056 O   0  0  0  0  0  0  0  0  0  0  0  0
    3.7664   -4.2069    2.2300 C   0  0  0  0  0  0  0  0  0  0  0  0
    0.7689   -0.7359   -0.1501 C   0  0  0  0  0  0  0  0  0  0  0  0
    0.5098    0.5942   -0.7289 N   0  0  0  0  0  0  0  0  0  0  0  0
   -0.8812    0.8021   -0.7861 C   0  0  0  0  0  0  0  0  0  0  0  0
   -1.5999    0.2502   -1.7917 N   0  0  0  0  0  0  0  0  0  0  0  0
   -2.9374    0.4218   -1.8354 C   0  0  0  0  0  0  0  0  0  0  0  0
   -3.6894   -0.2822   -2.9608 C   0  0  0  0  0  0  0  0  0  0  0  0
   -4.2650   -1.6147   -2.6722 N   0  0  0  0  0  0  0  0  0  0  0  0
   -3.2361   -2.6382   -2.4144 C   0  0  0  0  0  0  0  0  0  0  0  0
   -3.8448   -3.8705   -1.7279 C   0  0  0  0  0  0  0  0  0  0  0  0
   -4.3736   -3.5768   -0.4263 O   0  0  0  0  0  0  0  0  0  0  0  0
   -4.8203   -2.2187   -0.2896 C   0  0  0  0  0  0  0  0  0  0  0  0
   -5.2944   -1.6004   -1.6153 C   0  0  0  0  0  0  0  0  0  0  0  0
   -3.6674    1.1169   -0.9530 N   0  0  0  0  0  0  0  0  0  0  0  0
   -2.9301    1.6677    0.0228 C   0  0  0  0  0  0  0  0  0  0  0  0
   -3.6786    2.6086    1.2299 S   0  0  0  0  0  0  0  0  0  0  0  0
   -2.1905    2.9244    1.9870 C   0  0  0  0  0  0  0  0  0  0  0  0
   -1.1286    2.3011    1.3562 C   0  0  0  0  0  0  0  0  0  0  0  0
   -1.5585    1.5635    0.1889 C   0  0  0  0  0  0  0  0  0  0  0  0
    0.2833    2.4625    1.8440 C   0  0  0  0  0  0  0  0  0  0  0  0
    0.3434    3.0706    3.2552 C   0  0  0  0  0  0  0  0  0  0  0  0
   -0.6443    4.2375    3.4660 C   0  0  0  0  0  0  0  0  0  0  0  0
   -0.2823    5.4505    2.6028 C   0  0  0  0  0  0  0  0  0  0  0  0
   -2.0972    3.7764    3.2169 C   0  0  0  0  0  0  0  0  0  0  0  0
    1.1376    0.7442   -2.0494 C   0  0  0  0  0  0  0  0  0  0  0  0
    2.6582    0.7706   -1.8619 C   0  0  0  0  0  0  0  0  0  0  0  0
    7.0853   -1.4507   -1.9240 H   0  0  0  0  0  0  0  0  0  0  0  0
    8.2469   -1.7729   -0.6307 H   0  0  0  0  0  0  0  0  0  0  0  0
    7.2495   -0.3177   -0.5247 H   0  0  0  0  0  0  0  0  0  0  0  0
    5.1766   -0.1462   -1.6416 H   0  0  0  0  0  0  0  0  0  0  0  0
    2.0262   -2.6348    1.2724 H   0  0  0  0  0  0  0  0  0  0  0  0
    4.3676   -4.9557    2.7554 H   0  0  0  0  0  0  0  0  0  0  0  0
    3.2888   -3.5749    2.9865 H   0  0  0  0  0  0  0  0  0  0  0  0
    3.0208   -4.7405    1.6305 H   0  0  0  0  0  0  0  0  0  0  0  0
    0.2509   -1.5252   -0.7129 H   0  0  0  0  0  0  0  0  0  0  0  0
    0.4125   -0.7587    0.8878 H   0  0  0  0  0  0  0  0  0  0  0  0
   -4.4958    0.3822   -3.2976 H   0  0  0  0  0  0  0  0  0  0  0  0
   -3.0155   -0.3706   -3.8229 H   0  0  0  0  0  0  0  0  0  0  0  0
   -2.7771   -2.9345   -3.3638 H   0  0  0  0  0  0  0  0  0  0  0  0
   -2.4444   -2.2556   -1.7609 H   0  0  0  0  0  0  0  0  0  0  0  0
   -3.0825   -4.6463   -1.6022 H   0  0  0  0  0  0  0  0  0  0  0  0
   -4.6497   -4.3009   -2.3357 H   0  0  0  0  0  0  0  0  0  0  0  0
   -5.6388   -2.2179    0.4374 H   0  0  0  0  0  0  0  0  0  0  0  0
   -4.0006   -1.6369    0.1458 H   0  0  0  0  0  0  0  0  0  0  0  0
   -6.1301   -2.2063   -1.9880 H   0  0  0  0  0  0  0  0  0  0  0  0
   -5.7055   -0.5987   -1.4477 H   0  0  0  0  0  0  0  0  0  0  0  0
    0.8278    3.1056    1.1417 H   0  0  0  0  0  0  0  0  0  0  0  0
    0.7956    1.4952    1.8650 H   0  0  0  0  0  0  0  0  0  0  0  0
    1.3690    3.3949    3.4682 H   0  0  0  0  0  0  0  0  0  0  0  0
    0.1086    2.2854    3.9866 H   0  0  0  0  0  0  0  0  0  0  0  0
   -0.5713    4.5595    4.5131 H   0  0  0  0  0  0  0  0  0  0  0  0
   -0.9394    6.2953    2.8356 H   0  0  0  0  0  0  0  0  0  0  0  0
   -0.3758    5.2431    1.5325 H   0  0  0  0  0  0  0  0  0  0  0  0
    0.7476    5.7680    2.7968 H   0  0  0  0  0  0  0  0  0  0  0  0
   -2.4295    3.1765    4.0741 H   0  0  0  0  0  0  0  0  0  0  0  0
   -2.7648    4.6436    3.1496 H   0  0  0  0  0  0  0  0  0  0  0  0
    0.8593   -0.0818   -2.7190 H   0  0  0  0  0  0  0  0  0  0  0  0
    0.8282    1.6831   -2.5265 H   0  0  0  0  0  0  0  0  0  0  0  0
    3.1401    0.7358   -2.8457 H   0  0  0  0  0  0  0  0  0  0  0  0
    2.9502    1.7091   -1.3741 H   0  0  0  0  0  0  0  0  0  0  0  0
  1  2  1  0
  2  3  1  0
  3  4  2  0
  4  5  1  0
  5  6  2  0
  6  7  1  0
  7  8  2  0
  8  9  1  0
  9 10  1  0
  6 11  1  0
 11 12  1  0
 12 13  1  0
 13 14  2  0
 14 15  1  0
 15 16  1  0
 16 17  1  0
 17 18  1  0
 18 19  1  0
 19 20  1  0
 20 21  1  0
 21 22  1  0
 15 23  2  0
 23 24  1  0
 24 25  1  0
 25 26  1  0
 26 27  2  0
 27 28  1  0
 27 29  1  0
 29 30  1  0
 30 31  1  0
 31 32  1  0
 31 33  1  0
 12 34  1  0
 34 35  1  0
  8  3  1  0
 28 13  1  0
 35  5  1  0
 22 17  1  0
 28 24  2  0
 33 26  1  0
  1 36  1  0
  1 37  1  0
  1 38  1  0
  4 39  1  0
  7 40  1  0
 10 41  1  0
 10 42  1  0
 10 43  1  0
 11 44  1  0
 11 45  1  0
 16 46  1  0
 16 47  1  0
 18 48  1  0
 18 49  1  0
 19 50  1  0
 19 51  1  0
 21 52  1  0
 21 53  1  0
 22 54  1  0
 22 55  1  0
 29 56  1  0
 29 57  1  0
 30 58  1  0
 30 59  1  0
 31 60  1  0
 32 61  1  0
 32 62  1  0
 32 63  1  0
 33 64  1  0
 33 65  1  0
 34 66  1  0
 34 67  1  0
 35 68  1  0
 35 69  1  0
M  END
$$$$
