
     RDKit          3D

 31 32  0  0  0  0  0  0  0  0999 V2000
   -2.2398   -2.2205    0.1523 C   0  0  0  0  0  0  0  0  0  0  0  0
   -2.2338   -1.1867   -0.9661 C   0  0  0  0  0  0  0  0  0  0  0  0
   -1.6974    0.1058   -0.5114 N   0  0  0  0  0  0  0  0  0  0  0  0
   -2.6700    1.1981   -0.3623 C   0  0  0  0  0  0  0  0  0  0  0  0
   -3.3073    1.1901    1.0187 C   0  0  0  0  0  0  0  0  0  0  0  0
   -0.3426    0.2978   -0.2652 C   0  0  0  0  0  0  0  0  0  0  0  0
    0.1460    1.4251    0.4166 C   0  0  0  0  0  0  0  0  0  0  0  0
    1.5156    1.6296    0.6708 C   0  0  0  0  0  0  0  0  0  0  0  0
    2.4713    0.7048    0.2493 C   0  0  0  0  0  0  0  0  0  0  0  0
    3.9186    0.8247    0.4638 C   0  0  0  0  0  0  0  0  0  0  0  0
    4.4959    2.2314    1.3097 Cl  0  0  0  0  0  0  0  0  0  0  0  0
    4.7618   -0.1239    0.0185 C   0  0  0  0  0  0  0  0  0  0  0  0
    6.6316   -0.0569    0.2464 Br  0  0  0  0  0  0  0  0  0  0  0  0
    4.2470   -1.3194   -0.7033 C   0  0  0  0  0  0  0  0  0  0  0  0
    4.9798   -2.2081   -1.1260 O   0  0  0  0  0  0  0  0  0  0  0  0
    2.8745   -1.4018   -0.8895 O   0  0  0  0  0  0  0  0  0  0  0  0
    1.9961   -0.4098   -0.4223 C   0  0  0  0  0  0  0  0  0  0  0  0
    0.6333   -0.6192   -0.6778 C   0  0  0  0  0  0  0  0  0  0  0  0
   -2.6841   -3.1555   -0.2036 H   0  0  0  0  0  0  0  0  0  0  0  0
   -1.2306   -2.4451    0.5094 H   0  0  0  0  0  0  0  0  0  0  0  0
   -2.8248   -1.8737    1.0095 H   0  0  0  0  0  0  0  0  0  0  0  0
   -3.2679   -1.0651   -1.3123 H   0  0  0  0  0  0  0  0  0  0  0  0
   -1.6861   -1.5576   -1.8395 H   0  0  0  0  0  0  0  0  0  0  0  0
   -3.4617    1.0961   -1.1152 H   0  0  0  0  0  0  0  0  0  0  0  0
   -2.2181    2.1746   -0.5717 H   0  0  0  0  0  0  0  0  0  0  0  0
   -2.5576    1.2573    1.8128 H   0  0  0  0  0  0  0  0  0  0  0  0
   -3.9913    2.0382    1.1230 H   0  0  0  0  0  0  0  0  0  0  0  0
   -3.8842    0.2744    1.1806 H   0  0  0  0  0  0  0  0  0  0  0  0
   -0.5339    2.1836    0.7951 H   0  0  0  0  0  0  0  0  0  0  0  0
    1.7952    2.5317    1.2101 H   0  0  0  0  0  0  0  0  0  0  0  0
    0.3646   -1.5198   -1.2203 H   0  0  0  0  0  0  0  0  0  0  0  0
  1  2  1  0
  2  3  1  0
  3  4  1  0
  4  5  1  0
  3  6  1  0
  6  7  2  0
  7  8  1  0
  8  9  2  0
  9 10  1  0
 10 11  1  0
 10 12  2  0
 12 13  1  0
 12 14  1  0
 14 15  2  0
 14 16  1  0
 16 17  1  0
 17 18  2  0
 18  6  1  0
 17  9  1  0
  1 19  1  0
  1 20  1  0
  1 21  1  0
  2 22  1  0
  2 23  1  0
  4 24  1  0
  4 25  1  0
  5 26  1  0
  5 27  1  0
  5 28  1  0
  7 29  1  0
  8 30  1  0
 18 31  1  0
M  END
$$$$
