
     RDKit          3D

 44 45  0  0  0  0  0  0  0  0999 V2000
    7.0797    1.5397   -0.3050 C   0  0  0  0  0  0  0  0  0  0  0  0
    5.7321    2.1763   -0.0150 C   0  0  0  0  0  0  0  0  0  0  0  0
    4.6908    1.1982   -0.1711 O   0  0  0  0  0  0  0  0  0  0  0  0
    4.3657    0.4981    0.9449 C   0  0  0  0  0  0  0  0  0  0  0  0
    4.8680    0.6358    2.0492 O   0  0  0  0  0  0  0  0  0  0  0  0
    3.2974   -0.4975    0.6494 C   0  0  0  0  0  0  0  0  0  0  0  0
    2.8197   -0.7263   -0.6496 C   0  0  0  0  0  0  0  0  0  0  0  0
    1.8242   -1.6824   -0.8763 C   0  0  0  0  0  0  0  0  0  0  0  0
    1.2966   -2.3988    0.2018 C   0  0  0  0  0  0  0  0  0  0  0  0
    0.0439   -3.6283   -0.0779 S   0  0  0  0  0  6  0  0  0  0  0  0
    0.2166   -4.6607    0.9222 O   0  0  0  0  0  0  0  0  0  0  0  0
    0.0176   -3.9384   -1.4927 O   0  0  0  0  0  0  0  0  0  0  0  0
   -1.4074   -2.8037    0.3112 N   0  0  0  0  0  0  0  0  0  0  0  0
   -1.6088   -1.5947   -0.3875 N   0  0  0  0  0  0  0  0  0  0  0  0
   -1.5944   -0.2215    0.6405 S   0  0  0  0  0  6  0  0  0  0  0  0
   -0.5358    0.6543    0.1911 O   0  0  0  0  0  0  0  0  0  0  0  0
   -1.6496   -0.7192    2.0031 O   0  0  0  0  0  0  0  0  0  0  0  0
   -3.1557    0.5127    0.2412 C   0  0  0  0  0  0  0  0  0  0  0  0
   -3.2128    1.6185   -0.6101 C   0  0  0  0  0  0  0  0  0  0  0  0
   -4.4569    2.1693   -0.9327 C   0  0  0  0  0  0  0  0  0  0  0  0
   -5.6392    1.6182   -0.4128 C   0  0  0  0  0  0  0  0  0  0  0  0
   -6.9746    2.2263   -0.7446 C   0  0  0  0  0  0  0  0  0  0  0  0
   -5.5612    0.5283    0.4656 C   0  0  0  0  0  0  0  0  0  0  0  0
   -4.3224   -0.0265    0.7947 C   0  0  0  0  0  0  0  0  0  0  0  0
    1.7752   -2.1926    1.4982 C   0  0  0  0  0  0  0  0  0  0  0  0
    2.7727   -1.2393    1.7188 C   0  0  0  0  0  0  0  0  0  0  0  0
    7.8832    2.2796   -0.2320 H   0  0  0  0  0  0  0  0  0  0  0  0
    7.0893    1.1044   -1.3105 H   0  0  0  0  0  0  0  0  0  0  0  0
    7.2887    0.7244    0.3964 H   0  0  0  0  0  0  0  0  0  0  0  0
    5.7146    2.6322    0.9820 H   0  0  0  0  0  0  0  0  0  0  0  0
    5.5350    2.9756   -0.7374 H   0  0  0  0  0  0  0  0  0  0  0  0
    3.2142   -0.1675   -1.4951 H   0  0  0  0  0  0  0  0  0  0  0  0
    1.4630   -1.8523   -1.8880 H   0  0  0  0  0  0  0  0  0  0  0  0
   -1.5186   -2.7537    1.3396 H   0  0  0  0  0  0  0  0  0  0  0  0
   -2.3672   -1.6098   -1.0827 H   0  0  0  0  0  0  0  0  0  0  0  0
   -2.3053    2.0578   -1.0239 H   0  0  0  0  0  0  0  0  0  0  0  0
   -4.5010    3.0343   -1.5935 H   0  0  0  0  0  0  0  0  0  0  0  0
   -7.7649    1.4642   -0.7175 H   0  0  0  0  0  0  0  0  0  0  0  0
   -7.2197    3.0170   -0.0260 H   0  0  0  0  0  0  0  0  0  0  0  0
   -6.9708    2.6524   -1.7546 H   0  0  0  0  0  0  0  0  0  0  0  0
   -6.4688    0.1074    0.8997 H   0  0  0  0  0  0  0  0  0  0  0  0
   -4.2799   -0.8720    1.4782 H   0  0  0  0  0  0  0  0  0  0  0  0
    1.3843   -2.7631    2.3379 H   0  0  0  0  0  0  0  0  0  0  0  0
    3.1423   -1.0765    2.7302 H   0  0  0  0  0  0  0  0  0  0  0  0
  1  2  1  0
  2  3  1  0
  3  4  1  0
  4  5  2  0
  4  6  1  0
  6  7  2  0
  7  8  1  0
  8  9  2  0
  9 10  1  0
 10 11  2  0
 10 12  2  0
 10 13  1  0
 13 14  1  0
 14 15  1  0
 15 16  2  0
 15 17  2  0
 15 18  1  0
 18 19  2  0
 19 20  1  0
 20 21  2  0
 21 22  1  0
 21 23  1  0
 23 24  2  0
  9 25  1  0
 25 26  2  0
 26  6  1  0
 24 18  1  0
  1 27  1  0
  1 28  1  0
  1 29  1  0
  2 30  1  0
  2 31  1  0
  7 32  1  0
  8 33  1  0
 13 34  1  0
 14 35  1  0
 19 36  1  0
 20 37  1  0
 22 38  1  0
 22 39  1  0
 22 40  1  0
 23 41  1  0
 24 42  1  0
 25 43  1  0
 26 44  1  0
M  END
$$$$
