
     RDKit          3D

 52 54  0  0  0  0  0  0  0  0999 V2000
    7.1324   -1.2379   -4.7554 C   0  0  0  0  0  0  0  0  0  0  0  0
    6.5279   -1.3745   -3.3895 C   0  0  0  0  0  0  0  0  0  0  0  0
    6.8964   -0.5015   -2.3599 C   0  0  0  0  0  0  0  0  0  0  0  0
    6.3100   -0.6071   -1.0961 C   0  0  0  0  0  0  0  0  0  0  0  0
    5.3419   -1.5871   -0.8412 C   0  0  0  0  0  0  0  0  0  0  0  0
    4.6883   -1.6905    0.5114 C   0  0  0  0  0  0  0  0  0  0  0  0
    3.4743   -0.9188    0.5550 N   0  0  0  0  0  0  0  0  0  0  0  0
    2.2385   -1.4758    0.3319 C   0  0  0  0  0  0  0  0  0  0  0  0
    1.9865   -2.6669    0.2124 O   0  0  0  0  0  0  0  0  0  0  0  0
    1.1030   -0.4320    0.2260 C   0  0  0  0  0  0  0  0  0  0  0  0
    1.3506    0.7594    0.3513 O   0  0  0  0  0  0  0  0  0  0  0  0
   -0.1323   -0.9896   -0.0182 N   0  0  0  0  0  0  0  0  0  0  0  0
   -1.3532   -0.2074    0.0522 C   0  0  0  0  0  0  0  0  0  0  0  0
   -1.9806   -0.1739    1.4659 C   0  0  0  0  0  0  0  0  0  0  0  0
   -1.0478    0.3691    2.4227 O   0  0  0  0  0  0  0  0  0  0  0  0
   -1.4667    1.7063    2.6971 C   0  0  0  0  0  0  0  0  0  0  0  0
   -2.9731    1.6346    2.6056 C   0  0  0  0  0  0  0  0  0  0  0  0
   -3.1646    0.7164    1.4729 N   0  0  0  0  0  0  0  0  0  0  0  0
   -4.6326   -0.0982    1.3491 S   0  0  0  0  0  6  0  0  0  0  0  0
   -4.9092   -0.7154    2.6278 O   0  0  0  0  0  0  0  0  0  0  0  0
   -4.6000   -0.8795    0.1320 O   0  0  0  0  0  0  0  0  0  0  0  0
   -5.7828    1.2315    1.1028 C   0  0  0  0  0  0  0  0  0  0  0  0
   -5.7853    1.9080   -0.1217 C   0  0  0  0  0  0  0  0  0  0  0  0
   -6.6881    2.9524   -0.3278 C   0  0  0  0  0  0  0  0  0  0  0  0
   -7.5810    3.3055    0.6855 C   0  0  0  0  0  0  0  0  0  0  0  0
   -8.8021    4.7210    0.4044 Br  0  0  0  0  0  0  0  0  0  0  0  0
   -7.5840    2.6227    1.9034 C   0  0  0  0  0  0  0  0  0  0  0  0
   -6.6830    1.5772    2.1151 C   0  0  0  0  0  0  0  0  0  0  0  0
    4.9565   -2.4439   -1.8808 C   0  0  0  0  0  0  0  0  0  0  0  0
    5.5430   -2.3372   -3.1438 C   0  0  0  0  0  0  0  0  0  0  0  0
    8.1598   -0.8641   -4.6921 H   0  0  0  0  0  0  0  0  0  0  0  0
    7.1706   -2.2067   -5.2643 H   0  0  0  0  0  0  0  0  0  0  0  0
    6.5397   -0.5438   -5.3592 H   0  0  0  0  0  0  0  0  0  0  0  0
    7.6431    0.2696   -2.5364 H   0  0  0  0  0  0  0  0  0  0  0  0
    6.6133    0.0840   -0.3130 H   0  0  0  0  0  0  0  0  0  0  0  0
    5.3549   -1.2998    1.2881 H   0  0  0  0  0  0  0  0  0  0  0  0
    4.4839   -2.7392    0.7560 H   0  0  0  0  0  0  0  0  0  0  0  0
    3.5221    0.0949    0.5145 H   0  0  0  0  0  0  0  0  0  0  0  0
   -0.1726   -2.0060   -0.0211 H   0  0  0  0  0  0  0  0  0  0  0  0
   -2.0523   -0.6420   -0.6686 H   0  0  0  0  0  0  0  0  0  0  0  0
   -1.1244    0.8132   -0.2769 H   0  0  0  0  0  0  0  0  0  0  0  0
   -2.2150   -1.1895    1.8030 H   0  0  0  0  0  0  0  0  0  0  0  0
   -1.1129    2.0195    3.6828 H   0  0  0  0  0  0  0  0  0  0  0  0
   -1.0417    2.3693    1.9352 H   0  0  0  0  0  0  0  0  0  0  0  0
   -3.3826    1.2080    3.5271 H   0  0  0  0  0  0  0  0  0  0  0  0
   -3.4158    2.6162    2.4225 H   0  0  0  0  0  0  0  0  0  0  0  0
   -5.0928    1.6253   -0.9120 H   0  0  0  0  0  0  0  0  0  0  0  0
   -6.6915    3.4799   -1.2786 H   0  0  0  0  0  0  0  0  0  0  0  0
   -8.2860    2.8938    2.6884 H   0  0  0  0  0  0  0  0  0  0  0  0
   -6.6938    1.0409    3.0617 H   0  0  0  0  0  0  0  0  0  0  0  0
    4.1887   -3.1973   -1.7114 H   0  0  0  0  0  0  0  0  0  0  0  0
    5.2225   -3.0107   -3.9356 H   0  0  0  0  0  0  0  0  0  0  0  0
  1  2  1  0
  2  3  2  0
  3  4  1  0
  4  5  2  0
  5  6  1  0
  6  7  1  0
  7  8  1  0
  8  9  2  0
  8 10  1  0
 10 11  2  0
 10 12  1  0
 12 13  1  0
 13 14  1  0
 14 15  1  0
 15 16  1  0
 16 17  1  0
 17 18  1  0
 18 19  1  0
 19 20  2  0
 19 21  2  0
 19 22  1  0
 22 23  2  0
 23 24  1  0
 24 25  2  0
 25 26  1  0
 25 27  1  0
 27 28  2  0
  5 29  1  0
 29 30  2  0
 30  2  1  0
 18 14  1  0
 28 22  1  0
  1 31  1  0
  1 32  1  0
  1 33  1  0
  3 34  1  0
  4 35  1  0
  6 36  1  0
  6 37  1  0
  7 38  1  0
 12 39  1  0
 13 40  1  0
 13 41  1  0
 14 42  1  0
 16 43  1  0
 16 44  1  0
 17 45  1  0
 17 46  1  0
 23 47  1  0
 24 48  1  0
 27 49  1  0
 28 50  1  0
 29 51  1  0
 30 52  1  0
M  END
$$$$
