
     RDKit          3D

 51 55  0  0  0  0  0  0  0  0999 V2000
   -5.0789    3.0966    2.9473 F   0  0  0  0  0  0  0  0  0  0  0  0
   -5.3633    2.2186    1.9763 C   0  0  0  0  0  0  0  0  0  0  0  0
   -6.4820    2.4215    1.1774 C   0  0  0  0  0  0  0  0  0  0  0  0
   -6.7768    1.5091    0.1663 C   0  0  0  0  0  0  0  0  0  0  0  0
   -5.9501    0.4006   -0.0361 C   0  0  0  0  0  0  0  0  0  0  0  0
   -4.8230    0.1926    0.7736 C   0  0  0  0  0  0  0  0  0  0  0  0
   -3.9202   -0.9963    0.5402 C   0  0  0  0  0  0  0  0  0  0  0  0
   -2.7692   -0.6521   -0.4216 C   0  0  0  0  0  0  0  0  0  0  0  0
   -1.9482   -1.8240   -0.7799 N   0  0  0  0  0  0  0  0  0  0  0  0
   -1.0477   -1.5155   -1.9174 C   0  0  0  0  0  0  0  0  0  0  0  0
    0.1406   -0.5868   -1.5834 C   0  0  0  0  0  0  0  0  0  0  0  0
    0.9247   -1.1179   -0.4505 N   0  0  0  0  0  0  0  0  0  0  0  0
    2.1723   -0.5429   -0.2131 C   0  0  0  0  0  0  0  0  0  0  0  0
    2.3689    0.1193    0.8993 N   0  0  0  0  0  0  0  0  0  0  0  0
    3.6090    0.7388    1.1536 C   0  0  0  0  0  0  0  0  0  0  0  0
    3.7636    1.4473    2.3466 C   0  0  0  0  0  0  0  0  0  0  0  0
    4.9690    2.0886    2.6448 C   0  0  0  0  0  0  0  0  0  0  0  0
    6.0361    2.0266    1.7477 C   0  0  0  0  0  0  0  0  0  0  0  0
    5.9048    1.3242    0.5493 C   0  0  0  0  0  0  0  0  0  0  0  0
    4.6926    0.6887    0.2643 C   0  0  0  0  0  0  0  0  0  0  0  0
    4.4781   -0.0476   -0.9120 N   0  0  0  0  0  0  0  0  0  0  0  0
    5.3355   -0.3029   -1.9560 C   0  0  0  0  0  0  0  0  0  0  0  0
    4.6894   -1.1276   -2.8520 C   0  0  0  0  0  0  0  0  0  0  0  0
    3.3932   -1.3686   -2.3401 C   0  0  0  0  0  0  0  0  0  0  0  0
    3.2715   -0.6632   -1.1562 C   0  0  0  0  0  0  0  0  0  0  0  0
    0.0779   -1.4066    0.7253 C   0  0  0  0  0  0  0  0  0  0  0  0
   -1.1104   -2.3153    0.3405 C   0  0  0  0  0  0  0  0  0  0  0  0
   -4.5326    1.1188    1.7840 C   0  0  0  0  0  0  0  0  0  0  0  0
   -7.1145    3.2866    1.3475 H   0  0  0  0  0  0  0  0  0  0  0  0
   -7.6493    1.6591   -0.4647 H   0  0  0  0  0  0  0  0  0  0  0  0
   -6.1913   -0.3032   -0.8310 H   0  0  0  0  0  0  0  0  0  0  0  0
   -4.5130   -1.8278    0.1375 H   0  0  0  0  0  0  0  0  0  0  0  0
   -3.5377   -1.3369    1.5093 H   0  0  0  0  0  0  0  0  0  0  0  0
   -3.2200   -0.2516   -1.3399 H   0  0  0  0  0  0  0  0  0  0  0  0
   -2.1623    0.1595   -0.0028 H   0  0  0  0  0  0  0  0  0  0  0  0
   -0.6489   -2.4674   -2.2936 H   0  0  0  0  0  0  0  0  0  0  0  0
   -1.6236   -1.0914   -2.7491 H   0  0  0  0  0  0  0  0  0  0  0  0
   -0.2187    0.4200   -1.3379 H   0  0  0  0  0  0  0  0  0  0  0  0
    0.7597   -0.4914   -2.4807 H   0  0  0  0  0  0  0  0  0  0  0  0
    2.9341    1.4989    3.0468 H   0  0  0  0  0  0  0  0  0  0  0  0
    5.0727    2.6362    3.5781 H   0  0  0  0  0  0  0  0  0  0  0  0
    6.9721    2.5268    1.9848 H   0  0  0  0  0  0  0  0  0  0  0  0
    6.7487    1.2876   -0.1314 H   0  0  0  0  0  0  0  0  0  0  0  0
    6.3379    0.0989   -1.9817 H   0  0  0  0  0  0  0  0  0  0  0  0
    5.1117   -1.5205   -3.7680 H   0  0  0  0  0  0  0  0  0  0  0  0
    2.6290   -1.9929   -2.7838 H   0  0  0  0  0  0  0  0  0  0  0  0
    0.6716   -1.9281    1.4862 H   0  0  0  0  0  0  0  0  0  0  0  0
   -0.2850   -0.4721    1.1697 H   0  0  0  0  0  0  0  0  0  0  0  0
   -0.7103   -3.2947    0.0438 H   0  0  0  0  0  0  0  0  0  0  0  0
   -1.7209   -2.5160    1.2269 H   0  0  0  0  0  0  0  0  0  0  0  0
   -3.6667    0.9961    2.4278 H   0  0  0  0  0  0  0  0  0  0  0  0
  1  2  1  0
  2  3  2  0
  3  4  1  0
  4  5  2  0
  5  6  1  0
  6  7  1  0
  7  8  1  0
  8  9  1  0
  9 10  1  0
 10 11  1  0
 11 12  1  0
 12 13  1  0
 13 14  2  0
 14 15  1  0
 15 16  2  0
 16 17  1  0
 17 18  2  0
 18 19  1  0
 19 20  2  0
 20 21  1  0
 21 22  1  0
 22 23  2  0
 23 24  1  0
 24 25  2  0
 12 26  1  0
 26 27  1  0
  6 28  2  0
 28  2  1  0
 27  9  1  0
 25 13  1  0
 20 15  1  0
 25 21  1  0
  3 29  1  0
  4 30  1  0
  5 31  1  0
  7 32  1  0
  7 33  1  0
  8 34  1  0
  8 35  1  0
 10 36  1  0
 10 37  1  0
 11 38  1  0
 11 39  1  0
 16 40  1  0
 17 41  1  0
 18 42  1  0
 19 43  1  0
 22 44  1  0
 23 45  1  0
 24 46  1  0
 26 47  1  0
 26 48  1  0
 27 49  1  0
 27 50  1  0
 28 51  1  0
M  END
$$$$
