
     RDKit          3D

 39 41  0  0  0  0  0  0  0  0999 V2000
    5.4058   -0.8457   -1.5031 C   0  0  0  0  0  0  0  0  0  0  0  0
    4.8753   -0.3019   -0.1884 C   0  0  0  0  0  0  0  0  0  0  0  0
    4.1532    0.9487   -0.3608 N   0  0  0  0  0  0  0  0  0  0  0  0
    4.8588    2.1019   -0.2912 N   0  0  0  0  0  0  0  0  0  0  0  0
    3.9415    3.0492   -0.4790 C   0  0  0  0  0  0  0  0  0  0  0  0
    2.6624    2.5063   -0.6409 C   0  0  0  0  0  0  0  0  0  0  0  0
    1.1480    3.5536   -0.9829 Br  0  0  0  0  0  0  0  0  0  0  0  0
    2.7958    1.1349   -0.5408 C   0  0  0  0  0  0  0  0  0  0  0  0
    1.8294    0.0565   -0.6346 C   0  0  0  0  0  0  0  0  0  0  0  0
    2.1646   -1.0523   -1.0334 O   0  0  0  0  0  0  0  0  0  0  0  0
    0.5665    0.4025   -0.1926 N   0  0  0  0  0  0  0  0  0  0  0  0
   -0.5780   -0.3850   -0.1766 C   0  0  0  0  0  0  0  0  0  0  0  0
   -0.6012   -1.9382   -0.9066 S   0  0  0  0  0  0  0  0  0  0  0  0
   -2.2011   -2.1461   -0.4966 C   0  0  0  0  0  0  0  0  0  0  0  0
   -2.7442   -1.0901    0.1780 C   0  0  0  0  0  0  0  0  0  0  0  0
   -1.8128   -0.0308    0.3779 C   0  0  0  0  0  0  0  0  0  0  0  0
   -2.0481    1.2427    1.0521 C   0  0  0  0  0  0  0  0  0  0  0  0
   -1.1663    2.0796    1.2204 O   0  0  0  0  0  0  0  0  0  0  0  0
   -3.3389    1.3974    1.4654 O   0  0  0  0  0  0  0  0  0  0  0  0
   -3.5966    2.6370    2.1246 C   0  0  0  0  0  0  0  0  0  0  0  0
   -4.1704   -1.3529    0.5066 C   0  0  0  0  0  0  0  0  0  0  0  0
   -4.3053   -2.8819    0.2217 C   0  0  0  0  0  0  0  0  0  0  0  0
   -3.1378   -3.2673   -0.7357 C   0  0  0  0  0  0  0  0  0  0  0  0
    6.0986   -0.1375   -1.9702 H   0  0  0  0  0  0  0  0  0  0  0  0
    4.5966   -1.0349   -2.2153 H   0  0  0  0  0  0  0  0  0  0  0  0
    5.9413   -1.7854   -1.3363 H   0  0  0  0  0  0  0  0  0  0  0  0
    5.7064   -0.1059    0.4996 H   0  0  0  0  0  0  0  0  0  0  0  0
    4.2189   -1.0210    0.3095 H   0  0  0  0  0  0  0  0  0  0  0  0
    4.2521    4.0860   -0.4942 H   0  0  0  0  0  0  0  0  0  0  0  0
    0.4529    1.3272    0.2189 H   0  0  0  0  0  0  0  0  0  0  0  0
   -3.4051    3.4774    1.4500 H   0  0  0  0  0  0  0  0  0  0  0  0
   -2.9917    2.7216    3.0328 H   0  0  0  0  0  0  0  0  0  0  0  0
   -4.6522    2.6560    2.4093 H   0  0  0  0  0  0  0  0  0  0  0  0
   -4.4168   -1.1285    1.5479 H   0  0  0  0  0  0  0  0  0  0  0  0
   -4.8275   -0.7804   -0.1564 H   0  0  0  0  0  0  0  0  0  0  0  0
   -4.1885   -3.4310    1.1655 H   0  0  0  0  0  0  0  0  0  0  0  0
   -5.2851   -3.1429   -0.1902 H   0  0  0  0  0  0  0  0  0  0  0  0
   -2.7205   -4.2447   -0.4788 H   0  0  0  0  0  0  0  0  0  0  0  0
   -3.4800   -3.2741   -1.7756 H   0  0  0  0  0  0  0  0  0  0  0  0
  1  2  1  0
  2  3  1  0
  3  4  1  0
  4  5  2  0
  5  6  1  0
  6  7  1  0
  6  8  2  0
  8  9  1  0
  9 10  2  0
  9 11  1  0
 11 12  1  0
 12 13  1  0
 13 14  1  0
 14 15  2  0
 15 16  1  0
 16 17  1  0
 17 18  2  0
 17 19  1  0
 19 20  1  0
 15 21  1  0
 21 22  1  0
 22 23  1  0
  8  3  1  0
 16 12  2  0
 23 14  1  0
  1 24  1  0
  1 25  1  0
  1 26  1  0
  2 27  1  0
  2 28  1  0
  5 29  1  0
 11 30  1  0
 20 31  1  0
 20 32  1  0
 20 33  1  0
 21 34  1  0
 21 35  1  0
 22 36  1  0
 22 37  1  0
 23 38  1  0
 23 39  1  0
M  END
$$$$
