
     RDKit          3D

 32 33  0  0  0  0  0  0  0  0999 V2000
   -5.4225   -0.9001   -0.9842 C   0  0  0  0  0  0  0  0  0  0  0  0
   -4.0238   -0.4603   -0.6649 C   0  0  0  0  0  0  0  0  0  0  0  0
   -2.9943   -0.6378   -1.5977 C   0  0  0  0  0  0  0  0  0  0  0  0
   -1.6966   -0.1988   -1.3161 C   0  0  0  0  0  0  0  0  0  0  0  0
   -0.4855   -0.4172   -2.5268 Cl  0  0  0  0  0  0  0  0  0  0  0  0
   -1.4088    0.4151   -0.0919 C   0  0  0  0  0  0  0  0  0  0  0  0
   -0.1431    0.8731    0.1801 O   0  0  0  0  0  0  0  0  0  0  0  0
    0.6472   -0.1502    0.8022 C   0  0  0  0  0  0  0  0  0  0  0  0
    1.8274    0.5159    1.5068 C   0  0  0  0  0  0  0  0  0  0  0  0
    2.7402    1.2953    0.5592 C   0  0  0  0  0  0  0  0  0  0  0  0
    3.5055    0.4446   -0.3282 N   0  0  0  0  0  0  0  0  0  0  0  0
    4.6033   -0.2954    0.0128 C   0  0  0  0  0  0  0  0  0  0  0  0
    4.9889   -0.9130   -1.1539 C   0  0  0  0  0  0  0  0  0  0  0  0
    4.1617   -0.5588   -2.1876 N   0  0  0  0  0  0  0  0  0  0  0  0
    3.2835    0.2667   -1.6630 C   0  0  0  0  0  0  0  0  0  0  0  0
   -2.4458    0.6358    0.8225 C   0  0  0  0  0  0  0  0  0  0  0  0
   -2.1501    1.5437    2.4643 Br  0  0  0  0  0  0  0  0  0  0  0  0
   -3.7436    0.1966    0.5398 C   0  0  0  0  0  0  0  0  0  0  0  0
   -5.9633   -1.1736   -0.0721 H   0  0  0  0  0  0  0  0  0  0  0  0
   -5.4157   -1.7814   -1.6340 H   0  0  0  0  0  0  0  0  0  0  0  0
   -5.9627   -0.0926   -1.4878 H   0  0  0  0  0  0  0  0  0  0  0  0
   -3.2052   -1.1139   -2.5536 H   0  0  0  0  0  0  0  0  0  0  0  0
    0.0633   -0.7044    1.5485 H   0  0  0  0  0  0  0  0  0  0  0  0
    0.9986   -0.8613    0.0470 H   0  0  0  0  0  0  0  0  0  0  0  0
    1.4367    1.2232    2.2486 H   0  0  0  0  0  0  0  0  0  0  0  0
    2.4000   -0.2447    2.0501 H   0  0  0  0  0  0  0  0  0  0  0  0
    2.1771    2.0101   -0.0510 H   0  0  0  0  0  0  0  0  0  0  0  0
    3.4687    1.8726    1.1413 H   0  0  0  0  0  0  0  0  0  0  0  0
    5.0061   -0.3229    1.0152 H   0  0  0  0  0  0  0  0  0  0  0  0
    5.8191   -1.5903   -1.3057 H   0  0  0  0  0  0  0  0  0  0  0  0
    2.4775    0.7525   -2.1983 H   0  0  0  0  0  0  0  0  0  0  0  0
   -4.5440    0.3716    1.2565 H   0  0  0  0  0  0  0  0  0  0  0  0
  1  2  1  0
  2  3  2  0
  3  4  1  0
  4  5  1  0
  4  6  2  0
  6  7  1  0
  7  8  1  0
  8  9  1  0
  9 10  1  0
 10 11  1  0
 11 12  1  0
 12 13  2  0
 13 14  1  0
 14 15  2  0
  6 16  1  0
 16 17  1  0
 16 18  2  0
 18  2  1  0
 15 11  1  0
  1 19  1  0
  1 20  1  0
  1 21  1  0
  3 22  1  0
  8 23  1  0
  8 24  1  0
  9 25  1  0
  9 26  1  0
 10 27  1  0
 10 28  1  0
 12 29  1  0
 13 30  1  0
 15 31  1  0
 18 32  1  0
M  END
$$$$
