
     RDKit          3D

 30 33  0  0  0  0  0  0  0  0999 V2000
    6.5045   -1.0994    0.1334 C   0  0  0  0  0  0  0  0  0  0  0  0
    5.2038   -0.4140    0.2567 C   0  0  0  0  0  0  0  0  0  0  0  0
    4.7125    0.7793   -0.2094 C   0  0  0  0  0  0  0  0  0  0  0  0
    3.3804    0.8620    0.2633 C   0  0  0  0  0  0  0  0  0  0  0  0
    3.1003   -0.2957    0.9796 C   0  0  0  0  0  0  0  0  0  0  0  0
    1.9485   -0.7275    1.6890 C   0  0  0  0  0  0  0  0  0  0  0  0
    0.6685   -0.5506    1.3307 C   0  0  0  0  0  0  0  0  0  0  0  0
   -0.6297   -1.1748    2.3701 S   0  0  0  0  0  0  0  0  0  0  0  0
   -1.7980   -0.5941    1.2644 C   0  0  0  0  0  0  0  0  0  0  0  0
   -3.0973   -0.5942    1.2057 N   0  0  0  0  0  0  0  0  0  0  0  0
   -3.3207    0.0616    0.0048 C   0  0  0  0  0  0  0  0  0  0  0  0
   -4.7605    0.3313   -0.5532 C   0  0  0  0  0  0  0  0  0  0  0  0
   -5.0198    0.9792   -1.7421 C   0  0  0  0  0  0  0  0  0  0  0  0
   -6.4191    1.0840   -1.9988 C   0  0  0  0  0  0  0  0  0  0  0  0
   -7.1706    0.5119   -0.9955 C   0  0  0  0  0  0  0  0  0  0  0  0
   -6.1900   -0.1455    0.2449 S   0  0  0  0  0  0  0  0  0  0  0  0
   -2.2071    0.4527   -0.6498 N   0  0  0  0  0  0  0  0  0  0  0  0
   -1.2563    0.0114    0.1925 N   0  0  0  0  0  0  0  0  0  0  0  0
    0.1170    0.1030    0.0953 C   0  0  0  0  0  0  0  0  0  0  0  0
    0.6745    0.6246   -0.8505 O   0  0  0  0  0  0  0  0  0  0  0  0
    4.2518   -1.0555    0.9822 O   0  0  0  0  0  0  0  0  0  0  0  0
    7.2032   -0.5110   -0.4693 H   0  0  0  0  0  0  0  0  0  0  0  0
    6.3793   -2.0752   -0.3457 H   0  0  0  0  0  0  0  0  0  0  0  0
    6.9514   -1.2532    1.1204 H   0  0  0  0  0  0  0  0  0  0  0  0
    5.2442    1.5048   -0.8089 H   0  0  0  0  0  0  0  0  0  0  0  0
    2.7019    1.6872    0.0956 H   0  0  0  0  0  0  0  0  0  0  0  0
    2.1700   -1.2911    2.5936 H   0  0  0  0  0  0  0  0  0  0  0  0
   -4.2443    1.3596   -2.3969 H   0  0  0  0  0  0  0  0  0  0  0  0
   -6.8504    1.5544   -2.8741 H   0  0  0  0  0  0  0  0  0  0  0  0
   -8.2480    0.4464   -0.9279 H   0  0  0  0  0  0  0  0  0  0  0  0
  1  2  1  0
  2  3  2  0
  3  4  1  0
  4  5  2  0
  5  6  1  0
  6  7  2  3
  7  8  1  0
  8  9  1  0
  9 10  2  0
 10 11  1  0
 11 12  1  0
 12 13  2  0
 13 14  1  0
 14 15  2  0
 15 16  1  0
 11 17  2  0
 17 18  1  0
 18 19  1  0
 19 20  2  0
  5 21  1  0
 21  2  1  0
 19  7  1  0
 18  9  1  0
 16 12  1  0
  1 22  1  0
  1 23  1  0
  1 24  1  0
  3 25  1  0
  4 26  1  0
  6 27  1  0
 13 28  1  0
 14 29  1  0
 15 30  1  0
M  END
$$$$
