
     RDKit          3D

 57 59  0  0  0  0  0  0  0  0999 V2000
   -9.3426    0.7733   -3.1577 C   0  0  0  0  0  0  0  0  0  0  0  0
   -8.9930    1.1075   -1.8190 O   0  0  0  0  0  0  0  0  0  0  0  0
   -7.8394    0.5620   -1.3261 C   0  0  0  0  0  0  0  0  0  0  0  0
   -7.5206    0.9570   -0.0215 C   0  0  0  0  0  0  0  0  0  0  0  0
   -6.3685    0.4808    0.6084 C   0  0  0  0  0  0  0  0  0  0  0  0
   -5.5298   -0.3958   -0.0797 C   0  0  0  0  0  0  0  0  0  0  0  0
   -4.0526   -1.0091    0.6872 S   0  0  0  0  0  6  0  0  0  0  0  0
   -4.0230   -2.4424    0.4981 O   0  0  0  0  0  0  0  0  0  0  0  0
   -3.9371   -0.4251    2.0057 O   0  0  0  0  0  0  0  0  0  0  0  0
   -2.8491   -0.3420   -0.2606 N   0  0  0  0  0  0  0  0  0  0  0  0
   -2.7157    1.1218   -0.3434 C   0  0  0  0  0  0  0  0  0  0  0  0
   -1.2202    1.3607   -0.2906 C   0  0  0  0  0  0  0  0  0  0  0  0
   -0.6433    0.1224   -0.7170 O   0  0  0  0  0  0  0  0  0  0  0  0
   -1.4908   -0.9054   -0.1685 C   0  0  0  0  0  0  0  0  0  0  0  0
   -1.0204   -1.2943    1.2607 C   0  0  0  0  0  0  0  0  0  0  0  0
    0.3611   -1.7477    1.2966 N   0  0  0  0  0  0  0  0  0  0  0  0
    1.4159   -0.8714    1.4243 C   0  0  0  0  0  0  0  0  0  0  0  0
    1.3422    0.3184    1.7011 O   0  0  0  0  0  0  0  0  0  0  0  0
    2.7907   -1.5275    1.1669 C   0  0  0  0  0  0  0  0  0  0  0  0
    2.8639   -2.7340    0.9799 O   0  0  0  0  0  0  0  0  0  0  0  0
    3.8332   -0.6357    1.1639 N   0  0  0  0  0  0  0  0  0  0  0  0
    5.2098   -1.0585    1.0521 C   0  0  0  0  0  0  0  0  0  0  0  0
    6.0760   -0.0130    0.3862 C   0  0  0  0  0  0  0  0  0  0  0  0
    5.5993    0.6701   -0.7500 C   0  0  0  0  0  0  0  0  0  0  0  0
    6.3877    1.6184   -1.3999 C   0  0  0  0  0  0  0  0  0  0  0  0
    7.6695    1.8888   -0.9318 C   0  0  0  0  0  0  0  0  0  0  0  0
    8.1696    1.2016    0.1771 C   0  0  0  0  0  0  0  0  0  0  0  0
    7.3880    0.2419    0.8336 C   0  0  0  0  0  0  0  0  0  0  0  0
    7.8089   -0.4915    1.9128 O   0  0  0  0  0  0  0  0  0  0  0  0
    9.1696   -0.3533    2.3099 C   0  0  0  0  0  0  0  0  0  0  0  0
   -5.8403   -0.8065   -1.3786 C   0  0  0  0  0  0  0  0  0  0  0  0
   -6.9956   -0.3232   -2.0019 C   0  0  0  0  0  0  0  0  0  0  0  0
   -9.5011   -0.3047   -3.2665 H   0  0  0  0  0  0  0  0  0  0  0  0
  -10.2889    1.2733   -3.3928 H   0  0  0  0  0  0  0  0  0  0  0  0
   -8.5862    1.1401   -3.8586 H   0  0  0  0  0  0  0  0  0  0  0  0
   -8.1796    1.6412    0.5082 H   0  0  0  0  0  0  0  0  0  0  0  0
   -6.1410    0.7970    1.6239 H   0  0  0  0  0  0  0  0  0  0  0  0
   -3.2324    1.6646    0.4532 H   0  0  0  0  0  0  0  0  0  0  0  0
   -3.1196    1.4492   -1.3074 H   0  0  0  0  0  0  0  0  0  0  0  0
   -0.8980    2.1727   -0.9475 H   0  0  0  0  0  0  0  0  0  0  0  0
   -0.8882    1.5851    0.7284 H   0  0  0  0  0  0  0  0  0  0  0  0
   -1.4074   -1.7728   -0.8314 H   0  0  0  0  0  0  0  0  0  0  0  0
   -1.6190   -2.1191    1.6575 H   0  0  0  0  0  0  0  0  0  0  0  0
   -1.1132   -0.4429    1.9430 H   0  0  0  0  0  0  0  0  0  0  0  0
    0.5952   -2.6949    1.0105 H   0  0  0  0  0  0  0  0  0  0  0  0
    3.6262    0.3179    1.4403 H   0  0  0  0  0  0  0  0  0  0  0  0
    5.2715   -1.9977    0.4910 H   0  0  0  0  0  0  0  0  0  0  0  0
    5.5365   -1.2569    2.0791 H   0  0  0  0  0  0  0  0  0  0  0  0
    4.6028    0.4618   -1.1374 H   0  0  0  0  0  0  0  0  0  0  0  0
    6.0017    2.1423   -2.2708 H   0  0  0  0  0  0  0  0  0  0  0  0
    8.2871    2.6289   -1.4358 H   0  0  0  0  0  0  0  0  0  0  0  0
    9.1777    1.4391    0.5040 H   0  0  0  0  0  0  0  0  0  0  0  0
    9.3666    0.6553    2.6888 H   0  0  0  0  0  0  0  0  0  0  0  0
    9.8515   -0.6125    1.4916 H   0  0  0  0  0  0  0  0  0  0  0  0
    9.3525   -1.0562    3.1283 H   0  0  0  0  0  0  0  0  0  0  0  0
   -5.1879   -1.4984   -1.9081 H   0  0  0  0  0  0  0  0  0  0  0  0
   -7.2102   -0.6610   -3.0116 H   0  0  0  0  0  0  0  0  0  0  0  0
  1  2  1  0
  2  3  1  0
  3  4  2  0
  4  5  1  0
  5  6  2  0
  6  7  1  0
  7  8  2  0
  7  9  2  0
  7 10  1  0
 10 11  1  0
 11 12  1  0
 12 13  1  0
 13 14  1  0
 14 15  1  0
 15 16  1  0
 16 17  1  0
 17 18  2  0
 17 19  1  0
 19 20  2  0
 19 21  1  0
 21 22  1  0
 22 23  1  0
 23 24  2  0
 24 25  1  0
 25 26  2  0
 26 27  1  0
 27 28  2  0
 28 29  1  0
 29 30  1  0
  6 31  1  0
 31 32  2  0
 32  3  1  0
 14 10  1  0
 28 23  1  0
  1 33  1  0
  1 34  1  0
  1 35  1  0
  4 36  1  0
  5 37  1  0
 11 38  1  0
 11 39  1  0
 12 40  1  0
 12 41  1  0
 14 42  1  0
 15 43  1  0
 15 44  1  0
 16 45  1  0
 21 46  1  0
 22 47  1  0
 22 48  1  0
 24 49  1  0
 25 50  1  0
 26 51  1  0
 27 52  1  0
 30 53  1  0
 30 54  1  0
 30 55  1  0
 31 56  1  0
 32 57  1  0
M  END
$$$$
