
     RDKit          3D

 43 46  0  0  0  0  0  0  0  0999 V2000
    6.3975    1.9161   -1.2340 C   0  0  0  0  0  0  0  0  0  0  0  0
    5.0188    1.3780   -0.9826 C   0  0  0  0  0  0  0  0  0  0  0  0
    4.2858    0.7952   -2.0201 C   0  0  0  0  0  0  0  0  0  0  0  0
    3.0136    0.2666   -1.7815 C   0  0  0  0  0  0  0  0  0  0  0  0
    2.4648    0.3030   -0.4944 C   0  0  0  0  0  0  0  0  0  0  0  0
    1.0336   -0.2912   -0.2370 C   0  0  0  0  0  0  0  0  0  0  0  0
    0.1763   -0.8203   -1.1951 C   0  0  0  0  0  0  0  0  0  0  0  0
   -1.0148   -1.2057   -0.5775 N   0  0  0  0  0  4  0  0  0  0  0  0
   -2.1810   -1.8035   -1.2232 C   0  0  0  0  0  0  0  0  0  0  0  0
   -3.3865   -0.9281   -0.9976 C   0  0  0  0  0  0  0  0  0  0  0  0
   -4.5644   -1.4641   -0.4535 C   0  0  0  0  0  0  0  0  0  0  0  0
   -5.6830   -0.6536   -0.2438 C   0  0  0  0  0  0  0  0  0  0  0  0
   -5.6408    0.6993   -0.5789 C   0  0  0  0  0  0  0  0  0  0  0  0
   -4.4817    1.2368   -1.1301 C   0  0  0  0  0  0  0  0  0  0  0  0
   -4.4196    2.9043   -1.5428 Cl  0  0  0  0  0  0  0  0  0  0  0  0
   -3.3621    0.4327   -1.3460 C   0  0  0  0  0  0  0  0  0  0  0  0
   -0.8883   -0.9442    0.7197 C   0  0  0  0  0  0  0  0  0  0  0  0
    0.3154   -0.4231    0.9380 N   0  0  0  0  0  0  0  0  0  0  0  0
    0.5314   -0.1282    2.3474 C   0  0  0  0  0  0  0  0  0  0  0  0
   -0.6432   -0.8590    3.0548 C   0  0  0  0  0  0  0  0  0  0  0  0
   -1.6976   -1.0826    1.9528 C   0  0  0  0  0  0  0  0  0  0  0  0
    3.1979    0.8746    0.5458 C   0  0  0  0  0  0  0  0  0  0  0  0
    4.4701    1.4030    0.3030 C   0  0  0  0  0  0  0  0  0  0  0  0
    7.1378    1.1197   -1.1107 H   0  0  0  0  0  0  0  0  0  0  0  0
    6.6329    2.7290   -0.5390 H   0  0  0  0  0  0  0  0  0  0  0  0
    6.4782    2.3223   -2.2478 H   0  0  0  0  0  0  0  0  0  0  0  0
    4.7045    0.7513   -3.0246 H   0  0  0  0  0  0  0  0  0  0  0  0
    2.4861   -0.1712   -2.6235 H   0  0  0  0  0  0  0  0  0  0  0  0
    0.2571   -0.9578   -2.2601 H   0  0  0  0  0  0  0  0  0  0  0  0
   -1.9986   -1.9160   -2.2974 H   0  0  0  0  0  0  0  0  0  0  0  0
   -2.3202   -2.8019   -0.7939 H   0  0  0  0  0  0  0  0  0  0  0  0
   -4.6318   -2.5193   -0.1910 H   0  0  0  0  0  0  0  0  0  0  0  0
   -6.5945   -1.0769    0.1750 H   0  0  0  0  0  0  0  0  0  0  0  0
   -6.5159    1.3245   -0.4158 H   0  0  0  0  0  0  0  0  0  0  0  0
   -2.4702    0.8735   -1.7860 H   0  0  0  0  0  0  0  0  0  0  0  0
    0.4699    0.9539    2.4948 H   0  0  0  0  0  0  0  0  0  0  0  0
    1.4943   -0.5161    2.6871 H   0  0  0  0  0  0  0  0  0  0  0  0
   -0.2903   -1.8325    3.4156 H   0  0  0  0  0  0  0  0  0  0  0  0
   -1.0331   -0.3041    3.9123 H   0  0  0  0  0  0  0  0  0  0  0  0
   -2.4478   -0.2896    1.9289 H   0  0  0  0  0  0  0  0  0  0  0  0
   -2.1473   -2.0758    1.9756 H   0  0  0  0  0  0  0  0  0  0  0  0
    2.8139    0.9396    1.5551 H   0  0  0  0  0  0  0  0  0  0  0  0
    5.0328    1.8416    1.1259 H   0  0  0  0  0  0  0  0  0  0  0  0
  1  2  1  0
  2  3  2  0
  3  4  1  0
  4  5  2  0
  5  6  1  0
  6  7  2  0
  7  8  1  0
  8  9  1  0
  9 10  1  0
 10 11  2  0
 11 12  1  0
 12 13  2  0
 13 14  1  0
 14 15  1  0
 14 16  2  0
  8 17  2  0
 17 18  1  0
 18 19  1  0
 19 20  1  0
 20 21  1  0
  5 22  1  0
 22 23  2  0
 23  2  1  0
 18  6  1  0
 16 10  1  0
 21 17  1  0
  1 24  1  0
  1 25  1  0
  1 26  1  0
  3 27  1  0
  4 28  1  0
  7 29  1  0
  9 30  1  0
  9 31  1  0
 11 32  1  0
 12 33  1  0
 13 34  1  0
 16 35  1  0
 19 36  1  0
 19 37  1  0
 20 38  1  0
 20 39  1  0
 21 40  1  0
 21 41  1  0
 22 42  1  0
 23 43  1  0
M  CHG  1   8   1
M  END
$$$$
