
     RDKit          3D

 67 72  0  0  0  0  0  0  0  0999 V2000
   -4.7657   -4.0153   -1.7167 C   0  0  0  0  0  0  0  0  0  0  0  0
   -3.7862   -3.2881   -0.8452 C   0  0  0  0  0  0  0  0  0  0  0  0
   -3.5855   -3.6502    0.5001 C   0  0  0  0  0  0  0  0  0  0  0  0
   -4.4521   -4.9676    1.2139 Cl  0  0  0  0  0  0  0  0  0  0  0  0
   -2.6796   -2.9552    1.3251 C   0  0  0  0  0  0  0  0  0  0  0  0
   -1.9472   -1.8751    0.8319 C   0  0  0  0  0  0  0  0  0  0  0  0
   -2.1330   -1.5073   -0.4930 C   0  0  0  0  0  0  0  0  0  0  0  0
   -3.0463   -2.2029   -1.3019 C   0  0  0  0  0  0  0  0  0  0  0  0
   -3.0838   -1.6263   -2.5695 N   0  0  0  0  0  0  0  0  0  0  0  0
   -2.2327   -0.5236   -2.6689 C   0  0  0  0  0  0  0  0  0  0  0  0
   -2.1061    0.1585   -3.6756 O   0  0  0  0  0  0  0  0  0  0  0  0
   -1.5100   -0.3939   -1.3026 C   0  0  1  0  0  0  0  0  0  0  0  0
   -1.7754    0.8739   -0.5918 C   0  0  0  0  0  0  0  0  0  0  0  0
   -0.5885    1.5203   -0.2453 C   0  0  0  0  0  0  0  0  0  0  0  0
   -0.8932    2.6719    0.4326 C   0  0  0  0  0  0  0  0  0  0  0  0
   -0.0926    3.6172    0.9177 O   0  0  0  0  0  0  0  0  0  0  0  0
   -2.2989    2.7716    0.4698 N   0  0  0  0  0  0  0  0  0  0  0  0
   -3.0568    3.8769    0.9717 C   0  0  0  0  0  0  0  0  0  0  0  0
   -2.5844    4.6383    2.0478 C   0  0  0  0  0  0  0  0  0  0  0  0
   -3.3368    5.7105    2.5351 C   0  0  0  0  0  0  0  0  0  0  0  0
   -4.5567    6.0367    1.9463 C   0  0  0  0  0  0  0  0  0  0  0  0
   -5.0253    5.2963    0.8635 C   0  0  0  0  0  0  0  0  0  0  0  0
   -4.2791    4.2216    0.3739 C   0  0  0  0  0  0  0  0  0  0  0  0
   -2.8301    1.5987   -0.1047 C   0  0  0  0  0  0  0  0  0  0  0  0
   -4.1193    1.2618   -0.0978 O   0  0  0  0  0  0  0  0  0  0  0  0
    0.5921    0.7790   -0.7365 C   0  0  1  0  0  0  0  0  0  0  0  0
    1.5744    0.3342    0.3601 C   0  0  0  0  0  0  0  0  0  0  0  0
    2.6057   -0.5603   -0.1695 N   0  0  0  0  0  0  0  0  0  0  0  0
    3.8832   -0.5151    0.3475 C   0  0  0  0  0  0  0  0  0  0  0  0
    4.2052    0.2060    1.2826 O   0  0  0  0  0  0  0  0  0  0  0  0
    4.7241   -1.3544   -0.3077 O   0  0  0  0  0  0  0  0  0  0  0  0
    6.1191   -1.4656    0.0738 C   0  0  0  0  0  0  0  0  0  0  0  0
    6.2642   -2.0046    1.5011 C   0  0  0  0  0  0  0  0  0  0  0  0
    6.8589   -0.1370   -0.1167 C   0  0  0  0  0  0  0  0  0  0  0  0
    6.7064   -2.4971   -0.9017 C   0  0  0  0  0  0  0  0  0  0  0  0
    2.2258   -1.4262   -1.2920 C   0  0  0  0  0  0  0  0  0  0  0  0
    0.7002   -1.6323   -1.3779 C   0  0  0  0  0  0  0  0  0  0  0  0
   -0.0242   -0.3683   -1.4812 N   0  0  0  0  0  0  0  0  0  0  0  0
   -4.5590   -5.0908   -1.7129 H   0  0  0  0  0  0  0  0  0  0  0  0
   -4.7163   -3.6931   -2.7606 H   0  0  0  0  0  0  0  0  0  0  0  0
   -5.7875   -3.8398   -1.3643 H   0  0  0  0  0  0  0  0  0  0  0  0
   -2.5509   -3.2543    2.3634 H   0  0  0  0  0  0  0  0  0  0  0  0
   -1.2607   -1.3343    1.4758 H   0  0  0  0  0  0  0  0  0  0  0  0
   -3.6786   -1.9014   -3.3353 H   0  0  0  0  0  0  0  0  0  0  0  0
    0.8223    3.4103    0.6591 H   0  0  0  0  0  0  0  0  0  0  0  0
   -1.6481    4.3999    2.5452 H   0  0  0  0  0  0  0  0  0  0  0  0
   -2.9670    6.2915    3.3764 H   0  0  0  0  0  0  0  0  0  0  0  0
   -5.1355    6.8757    2.3240 H   0  0  0  0  0  0  0  0  0  0  0  0
   -5.9647    5.5668    0.3874 H   0  0  0  0  0  0  0  0  0  0  0  0
   -4.6446    3.7044   -0.5113 H   0  0  0  0  0  0  0  0  0  0  0  0
   -4.5715    1.7674    0.6016 H   0  0  0  0  0  0  0  0  0  0  0  0
    1.1290    1.3926   -1.4710 H   0  0  0  0  0  0  0  0  0  0  0  0
    1.0546   -0.2166    1.1543 H   0  0  0  0  0  0  0  0  0  0  0  0
    2.0369    1.2083    0.8325 H   0  0  0  0  0  0  0  0  0  0  0  0
    5.6572   -2.9066    1.6393 H   0  0  0  0  0  0  0  0  0  0  0  0
    7.3072   -2.2478    1.7310 H   0  0  0  0  0  0  0  0  0  0  0  0
    5.9251   -1.2809    2.2483 H   0  0  0  0  0  0  0  0  0  0  0  0
    6.5332    0.6201    0.6028 H   0  0  0  0  0  0  0  0  0  0  0  0
    7.9401   -0.2619    0.0077 H   0  0  0  0  0  0  0  0  0  0  0  0
    6.6682    0.2747   -1.1142 H   0  0  0  0  0  0  0  0  0  0  0  0
    6.5877   -2.1629   -1.9391 H   0  0  0  0  0  0  0  0  0  0  0  0
    7.7708   -2.6746   -0.7152 H   0  0  0  0  0  0  0  0  0  0  0  0
    6.1769   -3.4538   -0.8230 H   0  0  0  0  0  0  0  0  0  0  0  0
    2.6012   -0.9539   -2.2079 H   0  0  0  0  0  0  0  0  0  0  0  0
    2.7242   -2.3963   -1.1892 H   0  0  0  0  0  0  0  0  0  0  0  0
    0.4684   -2.2612   -2.2445 H   0  0  0  0  0  0  0  0  0  0  0  0
    0.4113   -2.1882   -0.4803 H   0  0  0  0  0  0  0  0  0  0  0  0
  1  2  1  0
  2  3  2  0
  3  4  1  0
  3  5  1  0
  5  6  2  0
  6  7  1  0
  7  8  2  0
  8  9  1  0
  9 10  1  0
 10 11  2  0
 10 12  1  0
 12 13  1  0
 13 14  1  0
 14 15  2  0
 15 16  1  0
 15 17  1  0
 17 18  1  0
 18 19  2  0
 19 20  1  0
 20 21  2  0
 21 22  1  0
 22 23  2  0
 17 24  1  0
 24 25  1  0
 14 26  1  0
 26 27  1  0
 27 28  1  0
 28 29  1  0
 29 30  2  0
 29 31  1  0
 31 32  1  0
 32 33  1  0
 32 34  1  0
 32 35  1  0
 28 36  1  0
 36 37  1  0
 37 38  1  0
  8  2  1  0
 12 38  1  6
 12  7  1  0
 24 13  2  0
 38 26  1  0
 23 18  1  0
  1 39  1  0
  1 40  1  0
  1 41  1  0
  5 42  1  0
  6 43  1  0
  9 44  1  0
 16 45  1  0
 19 46  1  0
 20 47  1  0
 21 48  1  0
 22 49  1  0
 23 50  1  0
 25 51  1  0
 26 52  1  6
 27 53  1  0
 27 54  1  0
 33 55  1  0
 33 56  1  0
 33 57  1  0
 34 58  1  0
 34 59  1  0
 34 60  1  0
 35 61  1  0
 35 62  1  0
 35 63  1  0
 36 64  1  0
 36 65  1  0
 37 66  1  0
 37 67  1  0
M  END
$$$$
