
     RDKit          3D

 35 36  0  0  0  0  0  0  0  0999 V2000
    5.8051    0.7719   -0.6643 C   0  0  0  0  0  0  0  0  0  0  0  0
    4.7476    0.0599    0.1246 C   0  0  0  0  0  0  0  0  0  0  0  0
    5.0845   -1.0337    0.9120 C   0  0  0  0  0  0  0  0  0  0  0  0
    4.0798   -1.6646    1.6343 C   0  0  0  0  0  0  0  0  0  0  0  0
    2.7738   -1.1875    1.5533 C   0  0  0  0  0  0  0  0  0  0  0  0
    2.5165   -0.0890    0.7488 C   0  0  0  0  0  0  0  0  0  0  0  0
    1.2599    0.4916    0.5818 N   0  0  0  0  0  0  0  0  0  0  0  0
    0.0568    0.1115    1.1403 C   0  0  0  0  0  0  0  0  0  0  0  0
   -0.1092   -0.8380    1.8996 O   0  0  0  0  0  0  0  0  0  0  0  0
   -1.0908    1.0353    0.7045 C   0  0  0  0  0  0  0  0  0  0  0  0
   -2.3872    0.6212    1.1257 O   0  0  0  0  0  0  0  0  0  0  0  0
   -3.0589   -0.0054    0.1085 C   0  0  0  0  0  0  0  0  0  0  0  0
   -2.7779   -1.3411   -0.1823 C   0  0  0  0  0  0  0  0  0  0  0  0
   -3.4688   -1.9875   -1.2053 C   0  0  0  0  0  0  0  0  0  0  0  0
   -4.4481   -1.3029   -1.9231 C   0  0  0  0  0  0  0  0  0  0  0  0
   -4.7459    0.0261   -1.6122 C   0  0  0  0  0  0  0  0  0  0  0  0
   -4.0610    0.6878   -0.5837 C   0  0  0  0  0  0  0  0  0  0  0  0
   -4.3947    2.1106   -0.2425 C   0  0  0  0  0  0  0  0  0  0  0  0
    3.4818    0.5366    0.0396 N   0  0  0  0  0  0  0  0  0  0  0  0
    6.3302    0.0680   -1.3174 H   0  0  0  0  0  0  0  0  0  0  0  0
    5.3639    1.5524   -1.2927 H   0  0  0  0  0  0  0  0  0  0  0  0
    6.5258    1.2422    0.0118 H   0  0  0  0  0  0  0  0  0  0  0  0
    6.1076   -1.3915    0.9651 H   0  0  0  0  0  0  0  0  0  0  0  0
    4.3075   -2.5232    2.2597 H   0  0  0  0  0  0  0  0  0  0  0  0
    1.9978   -1.6850    2.1217 H   0  0  0  0  0  0  0  0  0  0  0  0
    1.2970    1.2840   -0.0447 H   0  0  0  0  0  0  0  0  0  0  0  0
   -0.9072    2.0088    1.1752 H   0  0  0  0  0  0  0  0  0  0  0  0
   -1.0390    1.1921   -0.3824 H   0  0  0  0  0  0  0  0  0  0  0  0
   -2.0344   -1.8848    0.3945 H   0  0  0  0  0  0  0  0  0  0  0  0
   -3.2508   -3.0270   -1.4346 H   0  0  0  0  0  0  0  0  0  0  0  0
   -4.9908   -1.8083   -2.7182 H   0  0  0  0  0  0  0  0  0  0  0  0
   -5.5244    0.5384   -2.1740 H   0  0  0  0  0  0  0  0  0  0  0  0
   -3.5367    2.7591   -0.4463 H   0  0  0  0  0  0  0  0  0  0  0  0
   -5.2401    2.4777   -0.8338 H   0  0  0  0  0  0  0  0  0  0  0  0
   -4.6699    2.1943    0.8140 H   0  0  0  0  0  0  0  0  0  0  0  0
  1  2  1  0
  2  3  2  0
  3  4  1  0
  4  5  2  0
  5  6  1  0
  6  7  1  0
  7  8  1  0
  8  9  2  0
  8 10  1  0
 10 11  1  0
 11 12  1  0
 12 13  2  0
 13 14  1  0
 14 15  2  0
 15 16  1  0
 16 17  2  0
 17 18  1  0
  6 19  2  0
 19  2  1  0
 17 12  1  0
  1 20  1  0
  1 21  1  0
  1 22  1  0
  3 23  1  0
  4 24  1  0
  5 25  1  0
  7 26  1  0
 10 27  1  0
 10 28  1  0
 13 29  1  0
 14 30  1  0
 15 31  1  0
 16 32  1  0
 18 33  1  0
 18 34  1  0
 18 35  1  0
M  END
$$$$
