
     RDKit          3D

 57 59  0  0  0  0  0  0  0  0999 V2000
   -8.1107   -2.3645   -2.7312 C   0  0  0  0  0  0  0  0  0  0  0  0
   -7.1532   -2.6621   -1.7227 O   0  0  0  0  0  0  0  0  0  0  0  0
   -6.5324   -1.6011   -1.1241 C   0  0  0  0  0  0  0  0  0  0  0  0
   -6.7363   -0.2531   -1.4263 C   0  0  0  0  0  0  0  0  0  0  0  0
   -6.0299    0.7371   -0.7350 C   0  0  0  0  0  0  0  0  0  0  0  0
   -5.1038    0.3750    0.2480 C   0  0  0  0  0  0  0  0  0  0  0  0
   -4.2407    1.6415    1.1547 S   0  0  0  0  0  6  0  0  0  0  0  0
   -5.0387    2.8467    1.0772 O   0  0  0  0  0  0  0  0  0  0  0  0
   -3.8584    1.0787    2.4326 O   0  0  0  0  0  0  0  0  0  0  0  0
   -2.8410    1.9053    0.2840 N   0  0  0  0  0  0  0  0  0  0  0  0
   -2.8937    2.4931   -1.0546 C   0  0  0  0  0  0  0  0  0  0  0  0
   -1.5184    2.1667   -1.5951 C   0  0  0  0  0  0  0  0  0  0  0  0
   -1.2442    0.8731   -1.0471 O   0  0  0  0  0  0  0  0  0  0  0  0
   -1.8019    0.8685    0.2815 C   0  0  0  0  0  0  0  0  0  0  0  0
   -0.7211    1.1953    1.3412 C   0  0  0  0  0  0  0  0  0  0  0  0
    0.3730    0.2413    1.3561 N   0  0  0  0  0  0  0  0  0  0  0  0
    1.4789    0.3854    0.5480 C   0  0  0  0  0  0  0  0  0  0  0  0
    1.7553    1.3608   -0.1359 O   0  0  0  0  0  0  0  0  0  0  0  0
    2.4138   -0.8463    0.5671 C   0  0  0  0  0  0  0  0  0  0  0  0
    2.1195   -1.8228    1.2437 O   0  0  0  0  0  0  0  0  0  0  0  0
    3.5326   -0.7000   -0.2144 N   0  0  0  0  0  0  0  0  0  0  0  0
    4.6240   -1.6394   -0.1900 C   0  0  0  0  0  0  0  0  0  0  0  0
    5.6826   -1.2141    0.7975 C   0  0  0  0  0  0  0  0  0  0  0  0
    5.6301   -1.7121    2.1114 C   0  0  0  0  0  0  0  0  0  0  0  0
    6.5788   -1.3272    3.0559 C   0  0  0  0  0  0  0  0  0  0  0  0
    7.5846   -0.4346    2.7002 C   0  0  0  0  0  0  0  0  0  0  0  0
    7.6409    0.0802    1.4021 C   0  0  0  0  0  0  0  0  0  0  0  0
    6.6921   -0.2981    0.4458 C   0  0  0  0  0  0  0  0  0  0  0  0
    6.6565    0.1648   -0.8442 O   0  0  0  0  0  0  0  0  0  0  0  0
    7.6491    1.1083   -1.2276 C   0  0  0  0  0  0  0  0  0  0  0  0
   -4.9179   -0.9684    0.5788 C   0  0  0  0  0  0  0  0  0  0  0  0
   -5.6252   -1.9502   -0.1181 C   0  0  0  0  0  0  0  0  0  0  0  0
   -7.6452   -1.8483   -3.5773 H   0  0  0  0  0  0  0  0  0  0  0  0
   -8.9453   -1.7843   -2.3238 H   0  0  0  0  0  0  0  0  0  0  0  0
   -8.5129   -3.3129   -3.1006 H   0  0  0  0  0  0  0  0  0  0  0  0
   -7.4433    0.0613   -2.1875 H   0  0  0  0  0  0  0  0  0  0  0  0
   -6.2135    1.7845   -0.9658 H   0  0  0  0  0  0  0  0  0  0  0  0
   -3.0777    3.5694   -1.0300 H   0  0  0  0  0  0  0  0  0  0  0  0
   -3.6534    2.0010   -1.6675 H   0  0  0  0  0  0  0  0  0  0  0  0
   -1.4871    2.1290   -2.6871 H   0  0  0  0  0  0  0  0  0  0  0  0
   -0.7587    2.8709   -1.2382 H   0  0  0  0  0  0  0  0  0  0  0  0
   -2.1975   -0.1362    0.4485 H   0  0  0  0  0  0  0  0  0  0  0  0
   -1.1563    1.1959    2.3453 H   0  0  0  0  0  0  0  0  0  0  0  0
   -0.3021    2.1915    1.1570 H   0  0  0  0  0  0  0  0  0  0  0  0
    0.2656   -0.6613    1.8122 H   0  0  0  0  0  0  0  0  0  0  0  0
    3.6902    0.2184   -0.6190 H   0  0  0  0  0  0  0  0  0  0  0  0
    5.0348   -1.7054   -1.2031 H   0  0  0  0  0  0  0  0  0  0  0  0
    4.2487   -2.6385    0.0615 H   0  0  0  0  0  0  0  0  0  0  0  0
    4.8381   -2.4008    2.4021 H   0  0  0  0  0  0  0  0  0  0  0  0
    6.5290   -1.7202    4.0681 H   0  0  0  0  0  0  0  0  0  0  0  0
    8.3254   -0.1318    3.4360 H   0  0  0  0  0  0  0  0  0  0  0  0
    8.4381    0.7793    1.1727 H   0  0  0  0  0  0  0  0  0  0  0  0
    7.4717    1.3718   -2.2747 H   0  0  0  0  0  0  0  0  0  0  0  0
    8.6522    0.6752   -1.1595 H   0  0  0  0  0  0  0  0  0  0  0  0
    7.5711    2.0264   -0.6358 H   0  0  0  0  0  0  0  0  0  0  0  0
   -4.2382   -1.2634    1.3747 H   0  0  0  0  0  0  0  0  0  0  0  0
   -5.4779   -2.9994    0.1304 H   0  0  0  0  0  0  0  0  0  0  0  0
  1  2  1  0
  2  3  1  0
  3  4  2  0
  4  5  1  0
  5  6  2  0
  6  7  1  0
  7  8  2  0
  7  9  2  0
  7 10  1  0
 10 11  1  0
 11 12  1  0
 12 13  1  0
 13 14  1  0
 14 15  1  0
 15 16  1  0
 16 17  1  0
 17 18  2  0
 17 19  1  0
 19 20  2  0
 19 21  1  0
 21 22  1  0
 22 23  1  0
 23 24  2  0
 24 25  1  0
 25 26  2  0
 26 27  1  0
 27 28  2  0
 28 29  1  0
 29 30  1  0
  6 31  1  0
 31 32  2  0
 32  3  1  0
 14 10  1  0
 28 23  1  0
  1 33  1  0
  1 34  1  0
  1 35  1  0
  4 36  1  0
  5 37  1  0
 11 38  1  0
 11 39  1  0
 12 40  1  0
 12 41  1  0
 14 42  1  0
 15 43  1  0
 15 44  1  0
 16 45  1  0
 21 46  1  0
 22 47  1  0
 22 48  1  0
 24 49  1  0
 25 50  1  0
 26 51  1  0
 27 52  1  0
 30 53  1  0
 30 54  1  0
 30 55  1  0
 31 56  1  0
 32 57  1  0
M  END
$$$$
