
     RDKit          3D

 34 34  0  0  0  0  0  0  0  0999 V2000
    6.0204    1.8467   -1.1794 C   0  0  0  0  0  0  0  0  0  0  0  0
    5.3400    0.8923   -0.2113 C   0  0  0  0  0  0  0  0  0  0  0  0
    3.8304    0.8551   -0.4308 C   0  0  0  0  0  0  0  0  0  0  0  0
    3.1437   -0.1010    0.5381 C   0  0  0  0  0  0  0  0  0  0  0  0
    1.7365   -0.0745    0.2637 O   0  0  0  0  0  0  0  0  0  0  0  0
    0.9981   -0.8864    1.0596 C   0  0  0  0  0  0  0  0  0  0  0  0
    1.4307   -1.6023    1.9492 O   0  0  0  0  0  0  0  0  0  0  0  0
   -0.4450   -0.7971    0.7078 C   0  0  0  0  0  0  0  0  0  0  0  0
   -1.3538   -1.5740    1.4347 C   0  0  0  0  0  0  0  0  0  0  0  0
   -2.7209   -1.5235    1.1403 C   0  0  0  0  0  0  0  0  0  0  0  0
   -3.2025   -0.6973    0.1170 C   0  0  0  0  0  0  0  0  0  0  0  0
   -4.5929   -0.7058   -0.1157 N   0  0  0  0  0  0  0  0  0  0  0  0
   -5.2941    0.0277   -1.0561 C   0  0  0  0  0  0  0  0  0  0  0  0
   -6.7768   -0.2457   -1.0032 C   0  0  0  0  0  0  0  0  0  0  0  0
   -4.8349    0.8398   -1.8508 O   0  0  0  0  0  0  0  0  0  0  0  0
   -2.2932    0.0762   -0.6070 C   0  0  0  0  0  0  0  0  0  0  0  0
   -0.9230    0.0286   -0.3154 C   0  0  0  0  0  0  0  0  0  0  0  0
    5.6453    2.8673   -1.0529 H   0  0  0  0  0  0  0  0  0  0  0  0
    5.8472    1.5428   -2.2167 H   0  0  0  0  0  0  0  0  0  0  0  0
    7.1008    1.8577   -1.0045 H   0  0  0  0  0  0  0  0  0  0  0  0
    5.5594    1.2053    0.8162 H   0  0  0  0  0  0  0  0  0  0  0  0
    5.7601   -0.1119   -0.3413 H   0  0  0  0  0  0  0  0  0  0  0  0
    3.4042    1.8593   -0.3127 H   0  0  0  0  0  0  0  0  0  0  0  0
    3.6034    0.5527   -1.4609 H   0  0  0  0  0  0  0  0  0  0  0  0
    3.5245   -1.1193    0.3968 H   0  0  0  0  0  0  0  0  0  0  0  0
    3.3206    0.2180    1.5719 H   0  0  0  0  0  0  0  0  0  0  0  0
   -1.0023   -2.2233    2.2347 H   0  0  0  0  0  0  0  0  0  0  0  0
   -3.3980   -2.1407    1.7255 H   0  0  0  0  0  0  0  0  0  0  0  0
   -5.1378   -1.3145    0.4821 H   0  0  0  0  0  0  0  0  0  0  0  0
   -7.2311    0.3715   -0.2237 H   0  0  0  0  0  0  0  0  0  0  0  0
   -7.2261    0.0004   -1.9697 H   0  0  0  0  0  0  0  0  0  0  0  0
   -6.9731   -1.3020   -0.7980 H   0  0  0  0  0  0  0  0  0  0  0  0
   -2.6146    0.7319   -1.4109 H   0  0  0  0  0  0  0  0  0  0  0  0
   -0.2454    0.6458   -0.9009 H   0  0  0  0  0  0  0  0  0  0  0  0
  1  2  1  0
  2  3  1  0
  3  4  1  0
  4  5  1  0
  5  6  1  0
  6  7  2  0
  6  8  1  0
  8  9  2  0
  9 10  1  0
 10 11  2  0
 11 12  1  0
 12 13  1  0
 13 14  1  0
 13 15  2  0
 11 16  1  0
 16 17  2  0
 17  8  1  0
  1 18  1  0
  1 19  1  0
  1 20  1  0
  2 21  1  0
  2 22  1  0
  3 23  1  0
  3 24  1  0
  4 25  1  0
  4 26  1  0
  9 27  1  0
 10 28  1  0
 12 29  1  0
 14 30  1  0
 14 31  1  0
 14 32  1  0
 16 33  1  0
 17 34  1  0
M  END
$$$$
