
     RDKit          3D

 41 43  0  0  0  0  0  0  0  0999 V2000
   -1.8684   -2.1166   -1.6763 O   0  0  0  0  0  0  0  0  0  0  0  0
   -1.6116   -1.1570   -0.9588 C   0  0  0  0  0  0  0  0  0  0  0  0
   -2.5246   -0.3037   -0.3696 N   0  0  0  0  0  0  0  0  0  0  0  0
   -3.9380   -0.2961   -0.5004 C   0  0  0  0  0  0  0  0  0  0  0  0
   -4.6115   -1.1858   -1.3484 C   0  0  0  0  0  0  0  0  0  0  0  0
   -6.0055   -1.1619   -1.4613 C   0  0  0  0  0  0  0  0  0  0  0  0
   -6.7376   -0.2417   -0.7258 C   0  0  0  0  0  0  0  0  0  0  0  0
   -8.0964   -0.1860   -0.8081 O   0  0  0  0  0  0  0  0  0  0  0  0
   -6.1022    0.6574    0.1193 C   0  0  0  0  0  0  0  0  0  0  0  0
   -4.7028    0.6400    0.2385 C   0  0  0  0  0  0  0  0  0  0  0  0
   -4.0326    1.6171    1.1399 C   0  0  0  0  0  0  0  0  0  0  0  0
   -2.8265    1.7338    1.2847 O   0  0  0  0  0  0  0  0  0  0  0  0
   -4.8893    2.3988    1.8196 O   0  0  0  0  0  0  0  0  0  0  0  0
   -0.1795   -0.8724   -0.6430 C   0  0  0  0  0  0  0  0  0  0  0  0
    0.2915    0.4226   -0.4010 C   0  0  0  0  0  0  0  0  0  0  0  0
    1.6455    0.6332   -0.1134 C   0  0  0  0  0  0  0  0  0  0  0  0
    2.5475   -0.4381   -0.0711 C   0  0  0  0  0  0  0  0  0  0  0  0
    3.8876   -0.1339    0.2276 N   0  0  0  0  0  0  0  0  0  0  0  0
    4.9639   -0.9974    0.3360 C   0  0  0  0  0  0  0  0  0  0  0  0
    4.9206   -2.2138    0.1870 O   0  0  0  0  0  0  0  0  0  0  0  0
    6.2003   -0.3051    0.6574 C   0  0  0  0  0  0  0  0  0  0  0  0
    7.4846   -0.7782    0.8504 C   0  0  0  0  0  0  0  0  0  0  0  0
    8.2951    0.3452    1.1399 C   0  0  0  0  0  0  0  0  0  0  0  0
    7.4612    1.4373    1.1073 C   0  0  0  0  0  0  0  0  0  0  0  0
    6.1895    1.0590    0.8165 O   0  0  0  0  0  0  0  0  0  0  0  0
    2.0763   -1.7257   -0.3298 C   0  0  0  0  0  0  0  0  0  0  0  0
    0.7230   -1.9413   -0.6190 C   0  0  0  0  0  0  0  0  0  0  0  0
   -2.1574    0.3799    0.2927 H   0  0  0  0  0  0  0  0  0  0  0  0
   -4.0768   -1.9192   -1.9446 H   0  0  0  0  0  0  0  0  0  0  0  0
   -6.4907   -1.8688   -2.1279 H   0  0  0  0  0  0  0  0  0  0  0  0
   -8.4020   -0.8721   -1.4252 H   0  0  0  0  0  0  0  0  0  0  0  0
   -6.7063    1.3674    0.6781 H   0  0  0  0  0  0  0  0  0  0  0  0
   -4.3219    2.9779    2.3699 H   0  0  0  0  0  0  0  0  0  0  0  0
   -0.3687    1.2844   -0.4527 H   0  0  0  0  0  0  0  0  0  0  0  0
    1.9836    1.6504    0.0709 H   0  0  0  0  0  0  0  0  0  0  0  0
    4.1166    0.8411    0.3901 H   0  0  0  0  0  0  0  0  0  0  0  0
    7.7855   -1.8156    0.7860 H   0  0  0  0  0  0  0  0  0  0  0  0
    9.3563    0.3573    1.3466 H   0  0  0  0  0  0  0  0  0  0  0  0
    7.6114    2.4972    1.2613 H   0  0  0  0  0  0  0  0  0  0  0  0
    2.7330   -2.5903   -0.3197 H   0  0  0  0  0  0  0  0  0  0  0  0
    0.3776   -2.9534   -0.8234 H   0  0  0  0  0  0  0  0  0  0  0  0
  1  2  2  0
  2  3  1  0
  3  4  1  0
  4  5  2  0
  5  6  1  0
  6  7  2  0
  7  8  1  0
  7  9  1  0
  9 10  2  0
 10 11  1  0
 11 12  2  0
 11 13  1  0
  2 14  1  0
 14 15  2  0
 15 16  1  0
 16 17  2  0
 17 18  1  0
 18 19  1  0
 19 20  2  0
 19 21  1  0
 21 22  2  0
 22 23  1  0
 23 24  2  0
 24 25  1  0
 17 26  1  0
 26 27  2  0
 10  4  1  0
 27 14  1  0
 25 21  1  0
  3 28  1  0
  5 29  1  0
  6 30  1  0
  8 31  1  0
  9 32  1  0
 13 33  1  0
 15 34  1  0
 16 35  1  0
 18 36  1  0
 22 37  1  0
 23 38  1  0
 24 39  1  0
 26 40  1  0
 27 41  1  0
M  END
$$$$
