
     RDKit          3D

 64 67  0  0  0  0  0  0  0  0999 V2000
    8.1217   -1.5810   -0.5577 C   0  0  0  0  0  0  0  0  0  0  0  0
    7.5458   -1.3046    0.7138 O   0  0  0  0  0  0  0  0  0  0  0  0
    6.1800   -1.3141    0.7865 C   0  0  0  0  0  0  0  0  0  0  0  0
    5.3081   -1.6586   -0.2452 C   0  0  0  0  0  0  0  0  0  0  0  0
    3.9233   -1.6235   -0.0429 C   0  0  0  0  0  0  0  0  0  0  0  0
    3.4009   -1.2436    1.1925 C   0  0  0  0  0  0  0  0  0  0  0  0
    2.0198   -1.1767    1.4733 N   0  0  0  0  0  0  0  0  0  0  0  0
    0.9574   -1.5208    0.6607 C   0  0  0  0  0  0  0  0  0  0  0  0
    1.0259   -1.9896   -0.4733 O   0  0  0  0  0  0  0  0  0  0  0  0
   -0.3873   -1.3519    1.3461 C   0  0  0  0  0  0  0  0  0  0  0  0
   -0.7784    0.3921    1.6562 S   0  0  0  0  0  0  0  0  0  0  0  0
   -0.9962    0.9333    0.0294 C   0  0  0  0  0  0  0  0  0  0  0  0
   -0.0674    1.4979   -0.7031 N   0  0  0  0  0  0  0  0  0  0  0  0
   -0.5921    1.6993   -1.9544 N   0  0  0  0  0  0  0  0  0  0  0  0
   -1.8309    1.2412   -1.9632 C   0  0  0  0  0  0  0  0  0  0  0  0
   -2.7061    1.1678   -3.1715 C   0  0  0  0  0  0  0  0  0  0  0  0
   -3.0147   -0.2369   -3.6049 C   0  0  0  0  0  0  0  0  0  0  0  0
   -4.2504   -0.8386   -3.7862 C   0  0  0  0  0  0  0  0  0  0  0  0
   -4.0305   -2.1791   -4.1749 C   0  0  0  0  0  0  0  0  0  0  0  0
   -2.6695   -2.3647   -4.2452 C   0  0  0  0  0  0  0  0  0  0  0  0
   -2.0558   -1.1782   -3.9264 N   0  0  0  0  0  0  0  0  0  0  0  0
   -0.6183   -0.9845   -3.9422 C   0  0  0  0  0  0  0  0  0  0  0  0
   -2.1563    0.8169   -0.6908 N   0  0  0  0  0  0  0  0  0  0  0  0
   -3.4466    0.3409   -0.2333 C   0  0  0  0  0  0  0  0  0  0  0  0
   -4.4684    1.4561    0.0135 C   0  0  0  0  0  0  0  0  0  0  0  0
   -4.1392    2.3125    1.2118 C   0  0  0  0  0  0  0  0  0  0  0  0
   -4.6143    1.9676    2.4845 C   0  0  0  0  0  0  0  0  0  0  0  0
   -4.2832    2.7427    3.5976 C   0  0  0  0  0  0  0  0  0  0  0  0
   -3.4711    3.8650    3.4512 C   0  0  0  0  0  0  0  0  0  0  0  0
   -2.9923    4.2158    2.1903 C   0  0  0  0  0  0  0  0  0  0  0  0
   -3.3270    3.4465    1.0748 C   0  0  0  0  0  0  0  0  0  0  0  0
    4.2807   -0.9096    2.2423 C   0  0  0  0  0  0  0  0  0  0  0  0
    3.6840   -0.5548    3.4319 O   0  0  0  0  0  0  0  0  0  0  0  0
    4.5062   -0.6319    4.5921 C   0  0  0  0  0  0  0  0  0  0  0  0
    5.6612   -0.9420    2.0294 C   0  0  0  0  0  0  0  0  0  0  0  0
    7.8091   -0.8385   -1.3011 H   0  0  0  0  0  0  0  0  0  0  0  0
    9.2110   -1.5116   -0.4560 H   0  0  0  0  0  0  0  0  0  0  0  0
    7.8839   -2.5991   -0.8860 H   0  0  0  0  0  0  0  0  0  0  0  0
    5.6666   -1.9555   -1.2249 H   0  0  0  0  0  0  0  0  0  0  0  0
    3.2785   -1.8882   -0.8756 H   0  0  0  0  0  0  0  0  0  0  0  0
    1.8111   -0.7847    2.3868 H   0  0  0  0  0  0  0  0  0  0  0  0
   -1.1662   -1.8127    0.7309 H   0  0  0  0  0  0  0  0  0  0  0  0
   -0.3663   -1.8860    2.3025 H   0  0  0  0  0  0  0  0  0  0  0  0
   -2.2159    1.6911   -4.0031 H   0  0  0  0  0  0  0  0  0  0  0  0
   -3.6389    1.7109   -2.9810 H   0  0  0  0  0  0  0  0  0  0  0  0
   -5.2123   -0.3636   -3.6401 H   0  0  0  0  0  0  0  0  0  0  0  0
   -4.7820   -2.9306   -4.3849 H   0  0  0  0  0  0  0  0  0  0  0  0
   -2.0898   -3.2407   -4.5060 H   0  0  0  0  0  0  0  0  0  0  0  0
   -0.2539   -0.9977   -2.9116 H   0  0  0  0  0  0  0  0  0  0  0  0
   -0.3957   -0.0309   -4.4277 H   0  0  0  0  0  0  0  0  0  0  0  0
   -0.1523   -1.7941   -4.5097 H   0  0  0  0  0  0  0  0  0  0  0  0
   -3.3077   -0.2618    0.6696 H   0  0  0  0  0  0  0  0  0  0  0  0
   -3.8287   -0.3466   -0.9910 H   0  0  0  0  0  0  0  0  0  0  0  0
   -5.4561    0.9995    0.1703 H   0  0  0  0  0  0  0  0  0  0  0  0
   -4.5770    2.0981   -0.8700 H   0  0  0  0  0  0  0  0  0  0  0  0
   -5.2451    1.0929    2.6214 H   0  0  0  0  0  0  0  0  0  0  0  0
   -4.6546    2.4684    4.5820 H   0  0  0  0  0  0  0  0  0  0  0  0
   -3.2084    4.4645    4.3192 H   0  0  0  0  0  0  0  0  0  0  0  0
   -2.3483    5.0831    2.0759 H   0  0  0  0  0  0  0  0  0  0  0  0
   -2.9315    3.7327    0.1021 H   0  0  0  0  0  0  0  0  0  0  0  0
    3.8587   -0.5224    5.4668 H   0  0  0  0  0  0  0  0  0  0  0  0
    5.2325    0.1868    4.6065 H   0  0  0  0  0  0  0  0  0  0  0  0
    4.9978   -1.6065    4.6634 H   0  0  0  0  0  0  0  0  0  0  0  0
    6.3621   -0.6674    2.8081 H   0  0  0  0  0  0  0  0  0  0  0  0
  1  2  1  0
  2  3  1  0
  3  4  2  0
  4  5  1  0
  5  6  2  0
  6  7  1  0
  7  8  1  0
  8  9  2  0
  8 10  1  0
 10 11  1  0
 11 12  1  0
 12 13  2  0
 13 14  1  0
 14 15  2  0
 15 16  1  0
 16 17  1  0
 17 18  2  0
 18 19  1  0
 19 20  2  0
 20 21  1  0
 21 22  1  0
 15 23  1  0
 23 24  1  0
 24 25  1  0
 25 26  1  0
 26 27  2  0
 27 28  1  0
 28 29  2  0
 29 30  1  0
 30 31  2  0
  6 32  1  0
 32 33  1  0
 33 34  1  0
 32 35  2  0
 35  3  1  0
 23 12  1  0
 31 26  1  0
 21 17  1  0
  1 36  1  0
  1 37  1  0
  1 38  1  0
  4 39  1  0
  5 40  1  0
  7 41  1  0
 10 42  1  0
 10 43  1  0
 16 44  1  0
 16 45  1  0
 18 46  1  0
 19 47  1  0
 20 48  1  0
 22 49  1  0
 22 50  1  0
 22 51  1  0
 24 52  1  0
 24 53  1  0
 25 54  1  0
 25 55  1  0
 27 56  1  0
 28 57  1  0
 29 58  1  0
 30 59  1  0
 31 60  1  0
 34 61  1  0
 34 62  1  0
 34 63  1  0
 35 64  1  0
M  END
$$$$
