
     RDKit          3D

 29 29  0  0  0  0  0  0  0  0999 V2000
   -5.1152   -1.0182   -2.5457 C   0  0  0  0  0  0  0  0  0  0  0  0
   -4.5967   -1.7104   -1.7120 C   0  0  0  0  0  0  0  0  0  0  0  0
   -3.9662   -2.5575   -0.6902 C   0  0  0  0  0  0  0  0  0  0  0  0
   -3.1300   -1.7803    0.2227 N   0  0  0  0  0  0  0  0  0  0  0  0
   -1.8784   -1.3428   -0.3930 C   0  0  0  0  0  0  0  0  0  0  0  0
   -1.0557   -0.5506    0.6211 C   0  0  0  0  0  0  0  0  0  0  0  0
    0.2744   -0.1003    0.0221 C   0  0  0  0  0  0  0  0  0  0  0  0
    0.9713    0.6500    1.0160 O   0  0  0  0  0  0  0  0  0  0  0  0
    2.2001    1.1624    0.6942 C   0  0  0  0  0  0  0  0  0  0  0  0
    2.8331    0.9892   -0.5414 C   0  0  0  0  0  0  0  0  0  0  0  0
    4.0925    1.5523   -0.7759 C   0  0  0  0  0  0  0  0  0  0  0  0
    4.7243    2.2900    0.2225 C   0  0  0  0  0  0  0  0  0  0  0  0
    6.2722    2.9783   -0.0758 Cl  0  0  0  0  0  0  0  0  0  0  0  0
    4.1116    2.4731    1.4570 C   0  0  0  0  0  0  0  0  0  0  0  0
    2.8542    1.9103    1.6898 C   0  0  0  0  0  0  0  0  0  0  0  0
    2.1321    2.1669    3.2414 Cl  0  0  0  0  0  0  0  0  0  0  0  0
   -5.5775   -0.4044   -3.2841 H   0  0  0  0  0  0  0  0  0  0  0  0
   -4.7513   -3.0421   -0.0987 H   0  0  0  0  0  0  0  0  0  0  0  0
   -3.3887   -3.3655   -1.1538 H   0  0  0  0  0  0  0  0  0  0  0  0
   -3.6612   -0.9742    0.5509 H   0  0  0  0  0  0  0  0  0  0  0  0
   -2.0714   -0.7131   -1.2692 H   0  0  0  0  0  0  0  0  0  0  0  0
   -1.3019   -2.2151   -0.7234 H   0  0  0  0  0  0  0  0  0  0  0  0
   -1.6135    0.3298    0.9662 H   0  0  0  0  0  0  0  0  0  0  0  0
   -0.8619   -1.1546    1.5170 H   0  0  0  0  0  0  0  0  0  0  0  0
    0.8618   -0.9808   -0.2644 H   0  0  0  0  0  0  0  0  0  0  0  0
    0.0855    0.5279   -0.8567 H   0  0  0  0  0  0  0  0  0  0  0  0
    2.3767    0.4211   -1.3456 H   0  0  0  0  0  0  0  0  0  0  0  0
    4.5739    1.4100   -1.7406 H   0  0  0  0  0  0  0  0  0  0  0  0
    4.6061    3.0488    2.2343 H   0  0  0  0  0  0  0  0  0  0  0  0
  1  2  3  0
  2  3  1  0
  3  4  1  0
  4  5  1  0
  5  6  1  0
  6  7  1  0
  7  8  1  0
  8  9  1  0
  9 10  2  0
 10 11  1  0
 11 12  2  0
 12 13  1  0
 12 14  1  0
 14 15  2  0
 15 16  1  0
 15  9  1  0
  1 17  1  0
  3 18  1  0
  3 19  1  0
  4 20  1  0
  5 21  1  0
  5 22  1  0
  6 23  1  0
  6 24  1  0
  7 25  1  0
  7 26  1  0
 10 27  1  0
 11 28  1  0
 14 29  1  0
M  END
$$$$
