
     RDKit          3D

 52 51  0  0  0  0  0  0  0  0999 V2000
   -3.2231   -0.4025   -3.1582 C   0  0  0  0  0  0  0  0  0  0  0  0
   -3.9018   -0.4665   -2.1688 C   0  0  0  0  0  0  0  0  0  0  0  0
   -4.7432   -0.5464   -0.9713 C   0  0  0  0  0  0  0  0  0  0  0  0
   -3.9166   -0.4463    0.3355 N   0  0  0  0  0  4  0  0  0  0  0  0
   -4.9008   -0.5996    1.4922 C   0  0  0  0  0  0  0  0  0  0  0  0
   -2.9077   -1.5905    0.3864 C   0  0  0  0  0  0  0  0  0  0  0  0
   -3.2146    0.9285    0.3794 C   0  0  0  0  0  0  0  0  0  0  0  0
   -2.4451    1.1829    1.6783 C   0  0  0  0  0  0  0  0  0  0  0  0
   -1.7599    2.5561    1.7030 C   0  0  0  0  0  0  0  0  0  0  0  0
   -0.7439    2.8206    0.5868 C   0  0  0  0  0  0  0  0  0  0  0  0
    0.3877    1.7914    0.5326 C   0  0  0  0  0  0  0  0  0  0  0  0
    1.4249    2.1658   -0.5294 C   0  0  0  0  0  0  0  0  0  0  0  0
    2.6215    1.2097   -0.5715 C   0  0  0  0  0  0  0  0  0  0  0  0
    2.2481   -0.2060   -1.0199 C   0  0  0  0  0  0  0  0  0  0  0  0
    3.4655   -1.1007   -1.2751 C   0  0  0  0  0  0  0  0  0  0  0  0
    4.2746   -1.3986   -0.0108 C   0  0  0  0  0  0  0  0  0  0  0  0
    5.4093   -2.3825   -0.2991 C   0  0  0  0  0  0  0  0  0  0  0  0
    6.2190   -2.6814    0.9526 C   0  0  0  0  0  0  0  0  0  0  0  0
   -2.6311   -0.3463   -4.0455 H   0  0  0  0  0  0  0  0  0  0  0  0
   -5.2805   -1.5014   -0.9420 H   0  0  0  0  0  0  0  0  0  0  0  0
   -5.4769    0.2674   -0.9496 H   0  0  0  0  0  0  0  0  0  0  0  0
   -5.4663   -1.5254    1.3468 H   0  0  0  0  0  0  0  0  0  0  0  0
   -4.3446   -0.6608    2.4309 H   0  0  0  0  0  0  0  0  0  0  0  0
   -5.5722    0.2638    1.4931 H   0  0  0  0  0  0  0  0  0  0  0  0
   -2.4760   -1.6357    1.3899 H   0  0  0  0  0  0  0  0  0  0  0  0
   -3.4335   -2.5260    0.1722 H   0  0  0  0  0  0  0  0  0  0  0  0
   -2.1214   -1.4088   -0.3511 H   0  0  0  0  0  0  0  0  0  0  0  0
   -3.9933    1.6880    0.2423 H   0  0  0  0  0  0  0  0  0  0  0  0
   -2.5337    0.9631   -0.4758 H   0  0  0  0  0  0  0  0  0  0  0  0
   -3.1287    1.1517    2.5336 H   0  0  0  0  0  0  0  0  0  0  0  0
   -1.6953    0.4045    1.8491 H   0  0  0  0  0  0  0  0  0  0  0  0
   -1.2565    2.6709    2.6713 H   0  0  0  0  0  0  0  0  0  0  0  0
   -2.5292    3.3373    1.6626 H   0  0  0  0  0  0  0  0  0  0  0  0
   -1.2543    2.8619   -0.3824 H   0  0  0  0  0  0  0  0  0  0  0  0
   -0.3161    3.8181    0.7489 H   0  0  0  0  0  0  0  0  0  0  0  0
   -0.0269    0.8045    0.3045 H   0  0  0  0  0  0  0  0  0  0  0  0
    0.8727    1.7258    1.5138 H   0  0  0  0  0  0  0  0  0  0  0  0
    1.8011    3.1755   -0.3227 H   0  0  0  0  0  0  0  0  0  0  0  0
    0.9484    2.2026   -1.5166 H   0  0  0  0  0  0  0  0  0  0  0  0
    3.3635    1.6219   -1.2665 H   0  0  0  0  0  0  0  0  0  0  0  0
    3.0927    1.1820    0.4175 H   0  0  0  0  0  0  0  0  0  0  0  0
    1.6671   -0.1467   -1.9485 H   0  0  0  0  0  0  0  0  0  0  0  0
    1.6046   -0.6832   -0.2722 H   0  0  0  0  0  0  0  0  0  0  0  0
    3.1103   -2.0459   -1.7042 H   0  0  0  0  0  0  0  0  0  0  0  0
    4.1127   -0.6360   -2.0287 H   0  0  0  0  0  0  0  0  0  0  0  0
    4.6983   -0.4715    0.3913 H   0  0  0  0  0  0  0  0  0  0  0  0
    3.6142   -1.8155    0.7591 H   0  0  0  0  0  0  0  0  0  0  0  0
    4.9993   -3.3194   -0.6939 H   0  0  0  0  0  0  0  0  0  0  0  0
    6.0737   -1.9697   -1.0671 H   0  0  0  0  0  0  0  0  0  0  0  0
    6.6709   -1.7690    1.3546 H   0  0  0  0  0  0  0  0  0  0  0  0
    7.0239   -3.3868    0.7238 H   0  0  0  0  0  0  0  0  0  0  0  0
    5.5893   -3.1250    1.7306 H   0  0  0  0  0  0  0  0  0  0  0  0
  1  2  3  0
  2  3  1  0
  3  4  1  0
  4  5  1  0
  4  6  1  0
  4  7  1  0
  7  8  1  0
  8  9  1  0
  9 10  1  0
 10 11  1  0
 11 12  1  0
 12 13  1  0
 13 14  1  0
 14 15  1  0
 15 16  1  0
 16 17  1  0
 17 18  1  0
  1 19  1  0
  3 20  1  0
  3 21  1  0
  5 22  1  0
  5 23  1  0
  5 24  1  0
  6 25  1  0
  6 26  1  0
  6 27  1  0
  7 28  1  0
  7 29  1  0
  8 30  1  0
  8 31  1  0
  9 32  1  0
  9 33  1  0
 10 34  1  0
 10 35  1  0
 11 36  1  0
 11 37  1  0
 12 38  1  0
 12 39  1  0
 13 40  1  0
 13 41  1  0
 14 42  1  0
 14 43  1  0
 15 44  1  0
 15 45  1  0
 16 46  1  0
 16 47  1  0
 17 48  1  0
 17 49  1  0
 18 50  1  0
 18 51  1  0
 18 52  1  0
M  CHG  1   4   1
M  END
$$$$
