
     RDKit          3D

 38 41  0  0  0  0  0  0  0  0999 V2000
    1.2256   -0.4361   -1.4612 O   0  0  0  0  0  0  0  0  0  0  0  0
    1.4783   -0.0543   -0.3202 C   0  0  0  0  0  0  0  0  0  0  0  0
    0.4012    0.2460    0.7095 C   0  0  0  0  0  0  0  0  0  0  0  0
   -1.0198    0.0327    0.2058 C   0  0  0  0  0  0  0  0  0  0  0  0
   -1.6500   -1.2388    0.3477 C   0  0  0  0  0  0  0  0  0  0  0  0
   -1.0258   -2.4021    0.8703 C   0  0  0  0  0  0  0  0  0  0  0  0
   -1.7131   -3.6102    0.9933 C   0  0  0  0  0  0  0  0  0  0  0  0
   -3.0370   -3.6850    0.5941 C   0  0  0  0  0  0  0  0  0  0  0  0
   -3.6579   -2.5530    0.0666 C   0  0  0  0  0  0  0  0  0  0  0  0
   -2.9924   -1.3418   -0.0697 C   0  0  0  0  0  0  0  0  0  0  0  0
   -3.6766   -0.3212   -0.5990 N   0  0  0  0  0  0  0  0  0  0  0  0
   -3.0673    0.8548   -0.7885 C   0  0  0  0  0  0  0  0  0  0  0  0
   -3.8086    1.8689   -1.3804 C   0  0  0  0  0  0  0  0  0  0  0  0
   -3.2693    3.1294   -1.6358 C   0  0  0  0  0  0  0  0  0  0  0  0
   -1.9515    3.3864   -1.2962 C   0  0  0  0  0  0  0  0  0  0  0  0
   -1.1889    2.3840   -0.6958 C   0  0  0  0  0  0  0  0  0  0  0  0
   -1.7298    1.1009   -0.4179 C   0  0  0  0  0  0  0  0  0  0  0  0
    2.9107    0.1242    0.0768 C   0  0  0  0  0  0  0  0  0  0  0  0
    3.9035   -0.1534   -0.8744 C   0  0  0  0  0  0  0  0  0  0  0  0
    5.2543   -0.0030   -0.5550 C   0  0  0  0  0  0  0  0  0  0  0  0
    5.6246    0.4260    0.7173 C   0  0  0  0  0  0  0  0  0  0  0  0
    4.6463    0.7046    1.6702 C   0  0  0  0  0  0  0  0  0  0  0  0
    3.2923    0.5552    1.3542 C   0  0  0  0  0  0  0  0  0  0  0  0
    0.5712   -0.3716    1.5979 H   0  0  0  0  0  0  0  0  0  0  0  0
    0.5150    1.2780    1.0581 H   0  0  0  0  0  0  0  0  0  0  0  0
    0.0173   -2.3927    1.1724 H   0  0  0  0  0  0  0  0  0  0  0  0
   -1.2104   -4.4875    1.3917 H   0  0  0  0  0  0  0  0  0  0  0  0
   -3.5877   -4.6176    0.6794 H   0  0  0  0  0  0  0  0  0  0  0  0
   -4.6947   -2.6179   -0.2564 H   0  0  0  0  0  0  0  0  0  0  0  0
   -4.8408    1.6666   -1.6584 H   0  0  0  0  0  0  0  0  0  0  0  0
   -3.8778    3.8964   -2.1066 H   0  0  0  0  0  0  0  0  0  0  0  0
   -1.5119    4.3585   -1.5030 H   0  0  0  0  0  0  0  0  0  0  0  0
   -0.1535    2.6189   -0.4676 H   0  0  0  0  0  0  0  0  0  0  0  0
    3.6292   -0.4896   -1.8734 H   0  0  0  0  0  0  0  0  0  0  0  0
    6.0149   -0.2212   -1.3008 H   0  0  0  0  0  0  0  0  0  0  0  0
    6.6768    0.5431    0.9660 H   0  0  0  0  0  0  0  0  0  0  0  0
    4.9395    1.0394    2.6628 H   0  0  0  0  0  0  0  0  0  0  0  0
    2.5640    0.7831    2.1261 H   0  0  0  0  0  0  0  0  0  0  0  0
  1  2  2  0
  2  3  1  0
  3  4  1  0
  4  5  1  0
  5  6  2  0
  6  7  1  0
  7  8  2  0
  8  9  1  0
  9 10  2  0
 10 11  1  0
 11 12  2  0
 12 13  1  0
 13 14  2  0
 14 15  1  0
 15 16  2  0
 16 17  1  0
  2 18  1  0
 18 19  2  0
 19 20  1  0
 20 21  2  0
 21 22  1  0
 22 23  2  0
 17  4  2  0
 23 18  1  0
 10  5  1  0
 17 12  1  0
  3 24  1  0
  3 25  1  0
  6 26  1  0
  7 27  1  0
  8 28  1  0
  9 29  1  0
 13 30  1  0
 14 31  1  0
 15 32  1  0
 16 33  1  0
 19 34  1  0
 20 35  1  0
 21 36  1  0
 22 37  1  0
 23 38  1  0
M  END
$$$$
