
     RDKit          3D

 60 63  0  0  0  0  0  0  0  0999 V2000
   -5.0773    4.3660    1.2033 C   0  0  0  0  0  0  0  0  0  0  0  0
   -4.9488    3.9814   -0.2401 C   0  0  0  0  0  0  0  0  0  0  0  0
   -4.6161    4.9305   -1.1888 C   0  0  0  0  0  0  0  0  0  0  0  0
   -4.5184    4.4944   -2.4975 C   0  0  0  0  0  0  0  0  0  0  0  0
   -4.1730    5.4571   -3.5940 C   0  0  0  0  0  0  0  0  0  0  0  0
   -4.7355    3.2118   -2.8471 N   0  0  0  0  0  0  0  0  0  0  0  0
   -5.0295    2.3592   -1.8517 C   0  0  0  0  0  0  0  0  0  0  0  0
   -5.2852    0.6585   -2.2725 S   0  0  0  0  0  0  0  0  0  0  0  0
   -3.6679    0.3316   -3.0256 C   0  0  0  0  0  0  0  0  0  0  0  0
   -2.5521    0.3799   -2.0377 C   0  0  0  0  0  0  0  0  0  0  0  0
   -1.7028    1.3804   -1.8898 N   0  0  0  0  0  0  0  0  0  0  0  0
   -0.8172    1.0533   -0.8987 N   0  0  0  0  0  0  0  0  0  0  0  0
   -1.1318   -0.1412   -0.4612 C   0  0  0  0  0  0  0  0  0  0  0  0
   -0.2787   -1.0192    0.7574 S   0  0  0  0  0  0  0  0  0  0  0  0
    0.6451    0.3320    1.5491 C   0  0  0  0  0  0  0  0  0  0  0  0
    1.7238   -0.2647    2.4387 C   0  0  0  0  0  0  0  0  0  0  0  0
    1.5232   -0.4616    3.6342 O   0  0  0  0  0  0  0  0  0  0  0  0
    2.8895   -0.5460    1.7388 N   0  0  0  0  0  0  0  0  0  0  0  0
    4.0963   -1.0709    2.2452 C   0  0  0  0  0  0  0  0  0  0  0  0
    4.3252   -1.3471    3.5898 C   0  0  0  0  0  0  0  0  0  0  0  0
    5.5590   -1.8573    4.0066 C   0  0  0  0  0  0  0  0  0  0  0  0
    6.5898   -2.1007    3.0881 C   0  0  0  0  0  0  0  0  0  0  0  0
    7.8985   -2.6564    3.5792 C   0  0  0  0  0  0  0  0  0  0  0  0
    6.3710   -1.8217    1.7271 C   0  0  0  0  0  0  0  0  0  0  0  0
    7.4382   -2.0651    0.6953 C   0  0  0  0  0  0  0  0  0  0  0  0
    5.1240   -1.3112    1.3231 C   0  0  0  0  0  0  0  0  0  0  0  0
   -2.2174   -0.6175   -1.1437 N   0  0  0  0  0  0  0  0  0  0  0  0
   -2.9052   -1.8778   -0.9408 C   0  0  0  0  0  0  0  0  0  0  0  0
   -2.4234   -2.9038   -1.8999 C   0  0  0  0  0  0  0  0  0  0  0  0
   -1.2782   -3.6720   -1.9877 C   0  0  0  0  0  0  0  0  0  0  0  0
   -1.4306   -4.4873   -3.1366 C   0  0  0  0  0  0  0  0  0  0  0  0
   -2.6555   -4.1677   -3.6750 C   0  0  0  0  0  0  0  0  0  0  0  0
   -3.2646   -3.2077   -2.9318 O   0  0  0  0  0  0  0  0  0  0  0  0
   -5.1634    2.6893   -0.5566 N   0  0  0  0  0  0  0  0  0  0  0  0
   -5.8165    5.1671    1.3178 H   0  0  0  0  0  0  0  0  0  0  0  0
   -4.1124    4.7071    1.5904 H   0  0  0  0  0  0  0  0  0  0  0  0
   -5.4059    3.5123    1.8079 H   0  0  0  0  0  0  0  0  0  0  0  0
   -4.4424    5.9650   -0.9218 H   0  0  0  0  0  0  0  0  0  0  0  0
   -4.9849    6.1793   -3.7300 H   0  0  0  0  0  0  0  0  0  0  0  0
   -4.0195    4.9298   -4.5417 H   0  0  0  0  0  0  0  0  0  0  0  0
   -3.2494    5.9935   -3.3538 H   0  0  0  0  0  0  0  0  0  0  0  0
   -3.7077   -0.6529   -3.5011 H   0  0  0  0  0  0  0  0  0  0  0  0
   -3.4822    1.0480   -3.8334 H   0  0  0  0  0  0  0  0  0  0  0  0
   -0.0261    0.9456    2.1609 H   0  0  0  0  0  0  0  0  0  0  0  0
    1.1174    0.9845    0.8055 H   0  0  0  0  0  0  0  0  0  0  0  0
    2.8642   -0.3861    0.7385 H   0  0  0  0  0  0  0  0  0  0  0  0
    3.5671   -1.1741    4.3473 H   0  0  0  0  0  0  0  0  0  0  0  0
    5.7063   -2.0600    5.0659 H   0  0  0  0  0  0  0  0  0  0  0  0
    8.7181   -1.9669    3.3467 H   0  0  0  0  0  0  0  0  0  0  0  0
    8.0943   -3.6283    3.1154 H   0  0  0  0  0  0  0  0  0  0  0  0
    7.8901   -2.8037    4.6651 H   0  0  0  0  0  0  0  0  0  0  0  0
    8.3430   -1.4987    0.9405 H   0  0  0  0  0  0  0  0  0  0  0  0
    7.6765   -3.1321    0.6424 H   0  0  0  0  0  0  0  0  0  0  0  0
    7.1147   -1.7471   -0.3031 H   0  0  0  0  0  0  0  0  0  0  0  0
    4.9619   -1.1014    0.2682 H   0  0  0  0  0  0  0  0  0  0  0  0
   -3.9803   -1.7069   -1.0512 H   0  0  0  0  0  0  0  0  0  0  0  0
   -2.7534   -2.2095    0.0903 H   0  0  0  0  0  0  0  0  0  0  0  0
   -0.4376   -3.6536   -1.3053 H   0  0  0  0  0  0  0  0  0  0  0  0
   -0.7347   -5.2214   -3.5222 H   0  0  0  0  0  0  0  0  0  0  0  0
   -3.2118   -4.5180   -4.5342 H   0  0  0  0  0  0  0  0  0  0  0  0
  1  2  1  0
  2  3  2  0
  3  4  1  0
  4  5  1  0
  4  6  2  0
  6  7  1  0
  7  8  1  0
  8  9  1  0
  9 10  1  0
 10 11  2  0
 11 12  1  0
 12 13  2  0
 13 14  1  0
 14 15  1  0
 15 16  1  0
 16 17  2  0
 16 18  1  0
 18 19  1  0
 19 20  2  0
 20 21  1  0
 21 22  2  0
 22 23  1  0
 22 24  1  0
 24 25  1  0
 24 26  2  0
 13 27  1  0
 27 28  1  0
 28 29  1  0
 29 30  2  0
 30 31  1  0
 31 32  2  0
 32 33  1  0
  7 34  2  0
 34  2  1  0
 27 10  1  0
 33 29  1  0
 26 19  1  0
  1 35  1  0
  1 36  1  0
  1 37  1  0
  3 38  1  0
  5 39  1  0
  5 40  1  0
  5 41  1  0
  9 42  1  0
  9 43  1  0
 15 44  1  0
 15 45  1  0
 18 46  1  0
 20 47  1  0
 21 48  1  0
 23 49  1  0
 23 50  1  0
 23 51  1  0
 25 52  1  0
 25 53  1  0
 25 54  1  0
 26 55  1  0
 28 56  1  0
 28 57  1  0
 30 58  1  0
 31 59  1  0
 32 60  1  0
M  END
$$$$
