
     RDKit          3D

 32 33  0  0  0  0  0  0  0  0999 V2000
    4.1169   -1.9429   -0.8158 C   0  0  0  0  0  0  0  0  0  0  0  0
    4.3626   -0.4744   -0.5144 C   0  0  0  0  0  0  0  0  0  0  0  0
    3.1649    0.1766    0.6874 S   0  0  0  0  0  0  0  0  0  0  0  0
    1.6989    0.2761   -0.2358 C   0  0  0  0  0  0  0  0  0  0  0  0
    1.4668    0.5096   -1.5701 C   0  0  0  0  0  0  0  0  0  0  0  0
    0.1260    0.5202   -1.8398 N   0  0  0  0  0  0  0  0  0  0  0  0
   -0.4812    0.2909   -0.6897 C   0  0  0  0  0  0  0  0  0  0  0  0
   -1.9313    0.2323   -0.5205 C   0  0  0  0  0  0  0  0  0  0  0  0
   -2.5752   -0.9787   -0.2369 C   0  0  0  0  0  0  0  0  0  0  0  0
   -3.9618   -1.0189   -0.0759 C   0  0  0  0  0  0  0  0  0  0  0  0
   -4.7133    0.1482   -0.2079 C   0  0  0  0  0  0  0  0  0  0  0  0
   -4.0821    1.3543   -0.5095 C   0  0  0  0  0  0  0  0  0  0  0  0
   -2.6959    1.3951   -0.6709 C   0  0  0  0  0  0  0  0  0  0  0  0
    0.4491    0.1626    0.3310 N   0  0  0  0  0  0  0  0  0  0  0  0
    0.1378   -0.0131    1.7396 C   0  0  0  0  0  0  0  0  0  0  0  0
   -0.0169    1.3108    2.4693 C   0  0  0  0  0  0  0  0  0  0  0  0
    4.1672   -2.5524    0.0929 H   0  0  0  0  0  0  0  0  0  0  0  0
    3.1445   -2.1068   -1.2906 H   0  0  0  0  0  0  0  0  0  0  0  0
    4.8842   -2.3130   -1.5040 H   0  0  0  0  0  0  0  0  0  0  0  0
    4.3480    0.1205   -1.4325 H   0  0  0  0  0  0  0  0  0  0  0  0
    5.3601   -0.3617   -0.0768 H   0  0  0  0  0  0  0  0  0  0  0  0
    2.1887    0.6800   -2.3570 H   0  0  0  0  0  0  0  0  0  0  0  0
   -2.0007   -1.8981   -0.1529 H   0  0  0  0  0  0  0  0  0  0  0  0
   -4.4564   -1.9620    0.1418 H   0  0  0  0  0  0  0  0  0  0  0  0
   -5.7934    0.1158   -0.0889 H   0  0  0  0  0  0  0  0  0  0  0  0
   -4.6684    2.2617   -0.6285 H   0  0  0  0  0  0  0  0  0  0  0  0
   -2.2099    2.3358   -0.9217 H   0  0  0  0  0  0  0  0  0  0  0  0
    0.9248   -0.6187    2.1994 H   0  0  0  0  0  0  0  0  0  0  0  0
   -0.7802   -0.6008    1.8251 H   0  0  0  0  0  0  0  0  0  0  0  0
   -0.8263    1.9093    2.0387 H   0  0  0  0  0  0  0  0  0  0  0  0
    0.9007    1.9055    2.4161 H   0  0  0  0  0  0  0  0  0  0  0  0
   -0.2483    1.1363    3.5246 H   0  0  0  0  0  0  0  0  0  0  0  0
  1  2  1  0
  2  3  1  0
  3  4  1  0
  4  5  2  0
  5  6  1  0
  6  7  2  0
  7  8  1  0
  8  9  2  0
  9 10  1  0
 10 11  2  0
 11 12  1  0
 12 13  2  0
  7 14  1  0
 14 15  1  0
 15 16  1  0
 14  4  1  0
 13  8  1  0
  1 17  1  0
  1 18  1  0
  1 19  1  0
  2 20  1  0
  2 21  1  0
  5 22  1  0
  9 23  1  0
 10 24  1  0
 11 25  1  0
 12 26  1  0
 13 27  1  0
 15 28  1  0
 15 29  1  0
 16 30  1  0
 16 31  1  0
 16 32  1  0
M  END
$$$$
