
     RDKit          3D

 46 49  0  0  0  0  0  0  0  0999 V2000
    3.1256   -0.0485   -3.5361 O   0  0  0  0  0  0  0  0  0  0  0  0
    3.0015    0.0164   -2.3148 C   0  0  0  0  0  0  0  0  0  0  0  0
    2.9216   -1.2539   -1.4810 C   0  0  0  0  0  0  0  0  0  0  0  0
    1.2086   -1.8537   -1.4046 S   0  0  0  0  0  0  0  0  0  0  0  0
    0.5442   -0.7747   -0.2334 C   0  0  0  0  0  0  0  0  0  0  0  0
    1.2345    0.0406    0.5268 N   0  0  0  0  0  0  0  0  0  0  0  0
    0.3484    0.7354    1.3043 N   0  0  0  0  0  0  0  0  0  0  0  0
   -0.8724    0.3282    1.0098 C   0  0  0  0  0  0  0  0  0  0  0  0
   -2.1282    0.8412    1.6363 C   0  0  0  0  0  0  0  0  0  0  0  0
   -2.6806   -0.0971    2.6707 C   0  0  0  0  0  0  0  0  0  0  0  0
   -2.0595   -0.5791    3.8081 C   0  0  0  0  0  0  0  0  0  0  0  0
   -2.8972   -1.4573    4.5536 C   0  0  0  0  0  0  0  0  0  0  0  0
   -4.1346   -1.6067    3.9697 C   0  0  0  0  0  0  0  0  0  0  0  0
   -4.2846   -0.6871    2.5366 S   0  0  0  0  0  0  0  0  0  0  0  0
   -0.7909   -0.6472    0.0374 N   0  0  0  0  0  0  0  0  0  0  0  0
   -1.8891   -1.3542   -0.5931 C   0  0  0  0  0  0  0  0  0  0  0  0
   -2.1328   -2.6873    0.0146 C   0  0  0  0  0  0  0  0  0  0  0  0
   -1.6578   -3.3636    1.1219 C   0  0  0  0  0  0  0  0  0  0  0  0
   -2.3236   -4.6122    1.1480 C   0  0  0  0  0  0  0  0  0  0  0  0
   -3.1589   -4.6244    0.0572 C   0  0  0  0  0  0  0  0  0  0  0  0
   -3.0503   -3.4633   -0.6361 O   0  0  0  0  0  0  0  0  0  0  0  0
    2.9276    1.1795   -1.5678 N   0  0  0  0  0  0  0  0  0  0  0  0
    3.0099    2.5170   -2.0278 C   0  0  0  0  0  0  0  0  0  0  0  0
    3.1947    2.8525   -3.3732 C   0  0  0  0  0  0  0  0  0  0  0  0
    3.2583    4.1926   -3.7739 C   0  0  0  0  0  0  0  0  0  0  0  0
    3.1415    5.2093   -2.8314 C   0  0  0  0  0  0  0  0  0  0  0  0
    3.2183    6.8530   -3.3318 Cl  0  0  0  0  0  0  0  0  0  0  0  0
    2.9679    4.9030   -1.4873 C   0  0  0  0  0  0  0  0  0  0  0  0
    2.9056    3.5642   -1.0901 C   0  0  0  0  0  0  0  0  0  0  0  0
    2.7230    3.2416    0.5998 Cl  0  0  0  0  0  0  0  0  0  0  0  0
    3.5371   -2.0158   -1.9714 H   0  0  0  0  0  0  0  0  0  0  0  0
    3.3462   -1.1026   -0.4831 H   0  0  0  0  0  0  0  0  0  0  0  0
   -2.8663    1.0686    0.8584 H   0  0  0  0  0  0  0  0  0  0  0  0
   -1.9089    1.7989    2.1267 H   0  0  0  0  0  0  0  0  0  0  0  0
   -1.0440   -0.3187    4.0872 H   0  0  0  0  0  0  0  0  0  0  0  0
   -2.6071   -1.9515    5.4726 H   0  0  0  0  0  0  0  0  0  0  0  0
   -4.9631   -2.2085    4.3183 H   0  0  0  0  0  0  0  0  0  0  0  0
   -2.7886   -0.7365   -0.5189 H   0  0  0  0  0  0  0  0  0  0  0  0
   -1.6650   -1.4488   -1.6609 H   0  0  0  0  0  0  0  0  0  0  0  0
   -0.9274   -3.0006    1.8336 H   0  0  0  0  0  0  0  0  0  0  0  0
   -2.2102   -5.4050    1.8737 H   0  0  0  0  0  0  0  0  0  0  0  0
   -3.8584   -5.3449   -0.3431 H   0  0  0  0  0  0  0  0  0  0  0  0
    2.7080    1.0792   -0.5733 H   0  0  0  0  0  0  0  0  0  0  0  0
    3.2910    2.0960   -4.1455 H   0  0  0  0  0  0  0  0  0  0  0  0
    3.3996    4.4285   -4.8261 H   0  0  0  0  0  0  0  0  0  0  0  0
    2.8864    5.6979   -0.7511 H   0  0  0  0  0  0  0  0  0  0  0  0
  1  2  2  0
  2  3  1  0
  3  4  1  0
  4  5  1  0
  5  6  2  0
  6  7  1  0
  7  8  2  0
  8  9  1  0
  9 10  1  0
 10 11  2  0
 11 12  1  0
 12 13  2  0
 13 14  1  0
  8 15  1  0
 15 16  1  0
 16 17  1  0
 17 18  2  0
 18 19  1  0
 19 20  2  0
 20 21  1  0
  2 22  1  0
 22 23  1  0
 23 24  2  0
 24 25  1  0
 25 26  2  0
 26 27  1  0
 26 28  1  0
 28 29  2  0
 29 30  1  0
 15  5  1  0
 21 17  1  0
 29 23  1  0
 14 10  1  0
  3 31  1  0
  3 32  1  0
  9 33  1  0
  9 34  1  0
 11 35  1  0
 12 36  1  0
 13 37  1  0
 16 38  1  0
 16 39  1  0
 18 40  1  0
 19 41  1  0
 20 42  1  0
 22 43  1  0
 24 44  1  0
 25 45  1  0
 28 46  1  0
M  END
$$$$
