
     RDKit          3D

 44 47  0  0  0  0  0  0  0  0999 V2000
   -4.7318    2.1459   -0.3072 C   0  0  0  0  0  0  0  0  0  0  0  0
   -3.7501    1.5941    0.7265 C   0  0  0  0  0  0  0  0  0  0  0  0
   -2.3524    1.4925    0.1381 C   0  0  0  0  0  0  0  0  0  0  0  0
   -1.3776    0.8237    1.0805 C   0  0  0  0  0  0  0  0  0  0  0  0
   -0.6128    1.5099    1.7679 O   0  0  0  0  0  0  0  0  0  0  0  0
   -1.3008   -0.5649    1.0611 N   0  0  0  0  0  0  0  0  0  0  0  0
   -0.2343   -1.2020    1.8444 C   0  0  0  0  0  0  0  0  0  0  0  0
    1.1213   -1.1705    1.1258 C   0  0  0  0  0  0  0  0  0  0  0  0
    1.6236   -2.2041    0.6917 O   0  0  0  0  0  0  0  0  0  0  0  0
    1.6650    0.1004    1.0504 N   0  0  0  0  0  0  0  0  0  0  0  0
    2.8657    0.4949    0.4283 C   0  0  0  0  0  0  0  0  0  0  0  0
    3.1766    1.8734    0.4682 C   0  0  0  0  0  0  0  0  0  0  0  0
    4.3402    2.3716   -0.1295 C   0  0  0  0  0  0  0  0  0  0  0  0
    5.1707    1.4713   -0.7564 C   0  0  0  0  0  0  0  0  0  0  0  0
    4.8774    0.1292   -0.7978 C   0  0  0  0  0  0  0  0  0  0  0  0
    3.7365   -0.3903   -0.2163 C   0  0  0  0  0  0  0  0  0  0  0  0
    5.8253   -0.5854   -1.4641 O   0  0  0  0  0  0  0  0  0  0  0  0
    6.7463    0.4602   -1.8349 C   0  0  0  0  0  0  0  0  0  0  0  0
    6.3356    1.7705   -1.3905 O   0  0  0  0  0  0  0  0  0  0  0  0
   -2.2144   -1.4043    0.3476 C   0  0  0  0  0  0  0  0  0  0  0  0
   -1.7146   -2.5046   -0.3697 C   0  0  0  0  0  0  0  0  0  0  0  0
   -2.5654   -3.3311   -1.1070 C   0  0  0  0  0  0  0  0  0  0  0  0
   -3.9332   -3.0846   -1.1239 C   0  0  0  0  0  0  0  0  0  0  0  0
   -4.4539   -2.0200   -0.3910 C   0  0  0  0  0  0  0  0  0  0  0  0
   -3.6087   -1.1749    0.3447 C   0  0  0  0  0  0  0  0  0  0  0  0
   -4.4146    0.0283    1.3986 S   0  0  0  0  0  0  0  0  0  0  0  0
   -4.3910    3.1213   -0.6730 H   0  0  0  0  0  0  0  0  0  0  0  0
   -4.8260    1.4834   -1.1753 H   0  0  0  0  0  0  0  0  0  0  0  0
   -5.7294    2.2928    0.1236 H   0  0  0  0  0  0  0  0  0  0  0  0
   -3.7243    2.2901    1.5739 H   0  0  0  0  0  0  0  0  0  0  0  0
   -1.9688    2.5009   -0.0687 H   0  0  0  0  0  0  0  0  0  0  0  0
   -2.3412    0.9871   -0.8352 H   0  0  0  0  0  0  0  0  0  0  0  0
   -0.1269   -0.6806    2.8042 H   0  0  0  0  0  0  0  0  0  0  0  0
   -0.4968   -2.2390    2.0839 H   0  0  0  0  0  0  0  0  0  0  0  0
    1.1040    0.8480    1.4643 H   0  0  0  0  0  0  0  0  0  0  0  0
    2.5089    2.5734    0.9676 H   0  0  0  0  0  0  0  0  0  0  0  0
    4.5823    3.4283   -0.1005 H   0  0  0  0  0  0  0  0  0  0  0  0
    3.5532   -1.4559   -0.2802 H   0  0  0  0  0  0  0  0  0  0  0  0
    6.8407    0.4738   -2.9268 H   0  0  0  0  0  0  0  0  0  0  0  0
    7.7272    0.2338   -1.4005 H   0  0  0  0  0  0  0  0  0  0  0  0
   -0.6495   -2.7219   -0.4048 H   0  0  0  0  0  0  0  0  0  0  0  0
   -2.1533   -4.1674   -1.6680 H   0  0  0  0  0  0  0  0  0  0  0  0
   -4.5967   -3.7306   -1.6928 H   0  0  0  0  0  0  0  0  0  0  0  0
   -5.5320   -1.8670   -0.3822 H   0  0  0  0  0  0  0  0  0  0  0  0
  1  2  1  0
  2  3  1  0
  3  4  1  0
  4  5  2  0
  4  6  1  0
  6  7  1  0
  7  8  1  0
  8  9  2  0
  8 10  1  0
 10 11  1  0
 11 12  2  0
 12 13  1  0
 13 14  2  0
 14 15  1  0
 15 16  2  0
 15 17  1  0
 17 18  1  0
 18 19  1  0
  6 20  1  0
 20 21  2  0
 21 22  1  0
 22 23  2  0
 23 24  1  0
 24 25  2  0
 25 26  1  0
 26  2  1  0
 16 11  1  0
 25 20  1  0
 19 14  1  0
  1 27  1  0
  1 28  1  0
  1 29  1  0
  2 30  1  0
  3 31  1  0
  3 32  1  0
  7 33  1  0
  7 34  1  0
 10 35  1  0
 12 36  1  0
 13 37  1  0
 16 38  1  0
 18 39  1  0
 18 40  1  0
 21 41  1  0
 22 42  1  0
 23 43  1  0
 24 44  1  0
M  END
$$$$
