
     RDKit          3D

 36 37  0  0  0  0  0  0  0  0999 V2000
    1.2468   -1.3140    1.4712 O   0  0  0  0  0  0  0  0  0  0  0  0
    0.5452   -0.3126    1.6119 C   0  0  0  0  0  0  0  0  0  0  0  0
   -0.7860   -0.3271    2.3658 C   0  0  0  0  0  0  0  0  0  0  0  0
   -1.9138   -0.5156    1.5103 O   0  0  0  0  0  0  0  0  0  0  0  0
   -2.2881    0.5749    0.7994 C   0  0  0  0  0  0  0  0  0  0  0  0
   -1.7258    1.6598    0.8241 O   0  0  0  0  0  0  0  0  0  0  0  0
   -3.4833    0.2812   -0.0366 C   0  0  0  0  0  0  0  0  0  0  0  0
   -4.0745   -0.9896   -0.0830 C   0  0  0  0  0  0  0  0  0  0  0  0
   -5.1964   -1.2139   -0.8873 C   0  0  0  0  0  0  0  0  0  0  0  0
   -5.7271   -0.1705   -1.6445 C   0  0  0  0  0  0  0  0  0  0  0  0
   -7.2434   -0.4768   -2.7301 Br  0  0  0  0  0  0  0  0  0  0  0  0
   -5.1476    1.0965   -1.6073 C   0  0  0  0  0  0  0  0  0  0  0  0
   -4.0261    1.3221   -0.8042 C   0  0  0  0  0  0  0  0  0  0  0  0
    0.9096    0.9184    1.1046 N   0  0  0  0  0  0  0  0  0  0  0  0
    2.0403    1.0282    0.2010 C   0  0  0  0  0  0  0  0  0  0  0  0
    3.3891    0.7499    0.8821 C   0  0  0  0  0  0  0  0  0  0  0  0
    4.2889    0.0146    0.0172 N   0  0  0  0  0  0  0  0  0  0  0  0
    4.4303   -1.3530   -0.0030 C   0  0  0  0  0  0  0  0  0  0  0  0
    3.7020   -2.1711    0.8080 O   0  0  0  0  0  0  0  0  0  0  0  0
    5.3345   -1.8025   -0.8780 C   0  0  0  0  0  0  0  0  0  0  0  0
    6.0567   -0.5037   -1.7744 S   0  0  0  0  0  0  0  0  0  0  0  0
    5.0726    0.6886   -0.9100 C   0  0  0  0  0  0  0  0  0  0  0  0
    5.1005    1.8881   -1.1334 O   0  0  0  0  0  0  0  0  0  0  0  0
   -0.7617   -1.1639    3.0723 H   0  0  0  0  0  0  0  0  0  0  0  0
   -0.8954    0.5843    2.9664 H   0  0  0  0  0  0  0  0  0  0  0  0
   -3.6741   -1.8171    0.4983 H   0  0  0  0  0  0  0  0  0  0  0  0
   -5.6461   -2.2037   -0.9162 H   0  0  0  0  0  0  0  0  0  0  0  0
   -5.5583    1.9125   -2.1970 H   0  0  0  0  0  0  0  0  0  0  0  0
   -3.5796    2.3148   -0.7811 H   0  0  0  0  0  0  0  0  0  0  0  0
    0.1485    1.5920    0.9875 H   0  0  0  0  0  0  0  0  0  0  0  0
    1.8602    0.3320   -0.6270 H   0  0  0  0  0  0  0  0  0  0  0  0
    2.0318    2.0425   -0.2125 H   0  0  0  0  0  0  0  0  0  0  0  0
    3.8557    1.7113    1.1323 H   0  0  0  0  0  0  0  0  0  0  0  0
    3.2890    0.2159    1.8332 H   0  0  0  0  0  0  0  0  0  0  0  0
    2.8404   -1.7505    1.0180 H   0  0  0  0  0  0  0  0  0  0  0  0
    5.5852   -2.8422   -1.0325 H   0  0  0  0  0  0  0  0  0  0  0  0
  1  2  2  0
  2  3  1  0
  3  4  1  0
  4  5  1  0
  5  6  2  0
  5  7  1  0
  7  8  2  0
  8  9  1  0
  9 10  2  0
 10 11  1  0
 10 12  1  0
 12 13  2  0
  2 14  1  0
 14 15  1  0
 15 16  1  0
 16 17  1  0
 17 18  1  0
 18 19  1  0
 18 20  2  0
 20 21  1  0
 21 22  1  0
 22 23  2  0
 13  7  1  0
 22 17  1  0
  3 24  1  0
  3 25  1  0
  8 26  1  0
  9 27  1  0
 12 28  1  0
 13 29  1  0
 14 30  1  0
 15 31  1  0
 15 32  1  0
 16 33  1  0
 16 34  1  0
 19 35  1  0
 20 36  1  0
M  END
$$$$
