
     RDKit          3D

 56 58  0  0  0  0  0  0  0  0999 V2000
    1.7012    3.0224   -2.1166 C   0  0  0  0  0  0  0  0  0  0  0  0
    2.3368    1.8280   -1.6843 O   0  0  0  0  0  0  0  0  0  0  0  0
    1.5367    0.7519   -1.3848 C   0  0  0  0  0  0  0  0  0  0  0  0
    0.1361    0.7843   -1.3779 C   0  0  0  0  0  0  0  0  0  0  0  0
   -0.6058   -0.3606   -1.0554 C   0  0  0  0  0  0  0  0  0  0  0  0
   -2.0745   -0.3486   -1.0060 C   0  0  0  0  0  0  0  0  0  0  0  0
   -2.8321    0.2476   -1.9391 C   0  0  0  0  0  0  0  0  0  0  0  0
   -4.3188    0.2847   -1.9424 C   0  0  0  0  0  0  0  0  0  0  0  0
   -4.9288    0.7439   -2.9024 O   0  0  0  0  0  0  0  0  0  0  0  0
   -5.0689   -0.2454   -0.7939 C   0  0  0  0  0  0  0  0  0  0  0  0
   -5.1685    0.4993    0.3980 C   0  0  0  0  0  0  0  0  0  0  0  0
   -4.5000    1.6944    0.4291 O   0  0  0  0  0  0  0  0  0  0  0  0
   -4.6865    2.5288    1.5660 C   0  0  0  0  0  0  0  0  0  0  0  0
   -5.9191   -0.0183    1.4665 C   0  0  0  0  0  0  0  0  0  0  0  0
   -6.5698   -1.2513    1.3507 C   0  0  0  0  0  0  0  0  0  0  0  0
   -6.4584   -1.9574    0.1626 C   0  0  0  0  0  0  0  0  0  0  0  0
   -7.0902   -3.1902    0.0192 O   0  0  0  0  0  0  0  0  0  0  0  0
   -6.7914   -3.6649   -1.2547 C   0  0  0  0  0  0  0  0  0  0  0  0
   -7.2023   -4.7409   -1.6672 O   0  0  0  0  0  0  0  0  0  0  0  0
   -5.7615   -2.6197   -2.2357 S   0  0  0  0  0  0  0  0  0  0  0  0
   -5.7187   -1.4698   -0.9079 C   0  0  0  0  0  0  0  0  0  0  0  0
    0.0717   -1.5349   -0.7175 C   0  0  0  0  0  0  0  0  0  0  0  0
    1.4692   -1.5775   -0.7199 C   0  0  0  0  0  0  0  0  0  0  0  0
    2.2093   -0.4390   -1.0453 C   0  0  0  0  0  0  0  0  0  0  0  0
    3.5782   -0.3843   -1.0829 O   0  0  0  0  0  0  0  0  0  0  0  0
    4.3441   -1.3908   -0.4280 C   0  0  0  0  0  0  0  0  0  0  0  0
    4.3568   -1.2368    1.0912 C   0  0  0  0  0  0  0  0  0  0  0  0
    4.6369    0.1779    1.6273 C   0  0  0  0  0  0  0  0  0  0  0  0
    5.9492    0.7960    1.4080 N   0  0  0  0  0  0  0  0  0  0  0  0
    7.0774   -0.0833    1.6774 C   0  0  0  0  0  0  0  0  0  0  0  0
    6.0708    1.4618    0.1158 C   0  0  0  0  0  0  0  0  0  0  0  0
    1.0838    3.4497   -1.3200 H   0  0  0  0  0  0  0  0  0  0  0  0
    1.1150    2.8534   -3.0260 H   0  0  0  0  0  0  0  0  0  0  0  0
    2.4831    3.7495   -2.3551 H   0  0  0  0  0  0  0  0  0  0  0  0
   -0.3968    1.7009   -1.6075 H   0  0  0  0  0  0  0  0  0  0  0  0
   -2.5109   -0.8755   -0.1629 H   0  0  0  0  0  0  0  0  0  0  0  0
   -2.3914    0.7405   -2.8010 H   0  0  0  0  0  0  0  0  0  0  0  0
   -4.2737    2.0616    2.4660 H   0  0  0  0  0  0  0  0  0  0  0  0
   -4.1369    3.4588    1.3916 H   0  0  0  0  0  0  0  0  0  0  0  0
   -5.7425    2.7855    1.7008 H   0  0  0  0  0  0  0  0  0  0  0  0
   -6.0183    0.5175    2.4064 H   0  0  0  0  0  0  0  0  0  0  0  0
   -7.1524   -1.6477    2.1779 H   0  0  0  0  0  0  0  0  0  0  0  0
   -0.4804   -2.4370   -0.4616 H   0  0  0  0  0  0  0  0  0  0  0  0
    1.9448   -2.5191   -0.4717 H   0  0  0  0  0  0  0  0  0  0  0  0
    4.0317   -2.3974   -0.7280 H   0  0  0  0  0  0  0  0  0  0  0  0
    5.3682   -1.3002   -0.8047 H   0  0  0  0  0  0  0  0  0  0  0  0
    5.0649   -1.9559    1.5196 H   0  0  0  0  0  0  0  0  0  0  0  0
    3.3728   -1.5298    1.4786 H   0  0  0  0  0  0  0  0  0  0  0  0
    4.5043    0.1249    2.7169 H   0  0  0  0  0  0  0  0  0  0  0  0
    3.8448    0.8620    1.2965 H   0  0  0  0  0  0  0  0  0  0  0  0
    8.0141    0.4851    1.6726 H   0  0  0  0  0  0  0  0  0  0  0  0
    7.1689   -0.8876    0.9397 H   0  0  0  0  0  0  0  0  0  0  0  0
    6.9908   -0.5326    2.6730 H   0  0  0  0  0  0  0  0  0  0  0  0
    6.9782    2.0765    0.0943 H   0  0  0  0  0  0  0  0  0  0  0  0
    6.1264    0.7638   -0.7233 H   0  0  0  0  0  0  0  0  0  0  0  0
    5.2322    2.1459   -0.0548 H   0  0  0  0  0  0  0  0  0  0  0  0
  1  2  1  0
  2  3  1  0
  3  4  2  0
  4  5  1  0
  5  6  1  0
  6  7  2  0
  7  8  1  0
  8  9  2  0
  8 10  1  0
 10 11  2  0
 11 12  1  0
 12 13  1  0
 11 14  1  0
 14 15  2  0
 15 16  1  0
 16 17  1  0
 17 18  1  0
 18 19  2  0
 18 20  1  0
 20 21  1  0
  5 22  2  0
 22 23  1  0
 23 24  2  0
 24 25  1  0
 25 26  1  0
 26 27  1  0
 27 28  1  0
 28 29  1  0
 29 30  1  0
 29 31  1  0
 24  3  1  0
 21 10  1  0
 21 16  2  0
  1 32  1  0
  1 33  1  0
  1 34  1  0
  4 35  1  0
  6 36  1  0
  7 37  1  0
 13 38  1  0
 13 39  1  0
 13 40  1  0
 14 41  1  0
 15 42  1  0
 22 43  1  0
 23 44  1  0
 26 45  1  0
 26 46  1  0
 27 47  1  0
 27 48  1  0
 28 49  1  0
 28 50  1  0
 30 51  1  0
 30 52  1  0
 30 53  1  0
 31 54  1  0
 31 55  1  0
 31 56  1  0
M  END
$$$$
