
     RDKit          3D

 45 47  0  0  0  0  0  0  0  0999 V2000
   -6.0122   -1.9629    1.5405 C   0  0  0  0  0  0  0  0  0  0  0  0
   -4.7015   -1.5197    2.1671 C   0  0  0  0  0  0  0  0  0  0  0  0
   -4.3471   -0.2109    1.7270 O   0  0  0  0  0  0  0  0  0  0  0  0
   -3.5637   -0.0661    0.6147 C   0  0  0  0  0  0  0  0  0  0  0  0
   -3.2069   -1.0918   -0.2629 C   0  0  0  0  0  0  0  0  0  0  0  0
   -2.4185   -0.8220   -1.3896 C   0  0  0  0  0  0  0  0  0  0  0  0
   -1.9856    0.4798   -1.6594 C   0  0  0  0  0  0  0  0  0  0  0  0
   -1.1753    0.7472   -2.8473 C   0  0  0  0  0  0  0  0  0  0  0  0
    0.1549    0.9118   -2.8575 C   0  0  0  0  0  0  0  0  0  0  0  0
    1.0392    1.2136   -4.3199 S   0  0  0  0  0  0  0  0  0  0  0  0
    2.5978    1.2461   -3.5006 C   0  0  0  0  0  0  0  0  0  0  0  0
    4.0398    1.5515   -4.2820 S   0  0  0  0  0  0  0  0  0  0  0  0
    2.3875    1.0239   -2.1564 N   0  0  0  0  0  0  0  0  0  0  0  0
    3.4475    0.9061   -1.2336 N   0  0  0  0  0  0  0  0  0  0  0  0
    3.9298   -0.3780   -1.0335 C   0  0  0  0  0  0  0  0  0  0  0  0
    3.6258   -1.3342   -1.7402 O   0  0  0  0  0  0  0  0  0  0  0  0
    4.8278   -0.5662    0.1355 C   0  0  0  0  0  0  0  0  0  0  0  0
    5.5924    0.4775    0.6587 C   0  0  0  0  0  0  0  0  0  0  0  0
    6.4053    0.2002    1.7438 C   0  0  0  0  0  0  0  0  0  0  0  0
    6.4959   -1.0160    2.3212 N   0  0  0  0  0  0  0  0  0  0  0  0
    5.7582   -2.0109    1.7833 C   0  0  0  0  0  0  0  0  0  0  0  0
    4.9210   -1.8396    0.6977 C   0  0  0  0  0  0  0  0  0  0  0  0
    1.0911    0.8615   -1.6950 C   0  0  0  0  0  0  0  0  0  0  0  0
    0.7749    0.7431   -0.5188 O   0  0  0  0  0  0  0  0  0  0  0  0
   -2.3471    1.5142   -0.7959 C   0  0  0  0  0  0  0  0  0  0  0  0
   -3.1102    1.2346    0.3408 C   0  0  0  0  0  0  0  0  0  0  0  0
   -3.4474    2.2989    1.1427 O   0  0  0  0  0  0  0  0  0  0  0  0
   -2.5935    2.3352    2.2875 C   0  0  0  0  0  0  0  0  0  0  0  0
   -6.8020   -1.2329    1.7485 H   0  0  0  0  0  0  0  0  0  0  0  0
   -5.9308   -2.0400    0.4523 H   0  0  0  0  0  0  0  0  0  0  0  0
   -6.3205   -2.9345    1.9378 H   0  0  0  0  0  0  0  0  0  0  0  0
   -3.8974   -2.2485    2.0176 H   0  0  0  0  0  0  0  0  0  0  0  0
   -4.8439   -1.4519    3.2520 H   0  0  0  0  0  0  0  0  0  0  0  0
   -3.5328   -2.1149   -0.1117 H   0  0  0  0  0  0  0  0  0  0  0  0
   -2.1515   -1.6405   -2.0544 H   0  0  0  0  0  0  0  0  0  0  0  0
   -1.7448    0.7916   -3.7731 H   0  0  0  0  0  0  0  0  0  0  0  0
    3.3627    1.5158   -0.4257 H   0  0  0  0  0  0  0  0  0  0  0  0
    5.5945    1.4731    0.2311 H   0  0  0  0  0  0  0  0  0  0  0  0
    7.0344    0.9686    2.1865 H   0  0  0  0  0  0  0  0  0  0  0  0
    5.8650   -2.9804    2.2626 H   0  0  0  0  0  0  0  0  0  0  0  0
    4.3557   -2.6764    0.3008 H   0  0  0  0  0  0  0  0  0  0  0  0
   -2.0345    2.5373   -0.9861 H   0  0  0  0  0  0  0  0  0  0  0  0
   -1.5399    2.4130    1.9922 H   0  0  0  0  0  0  0  0  0  0  0  0
   -2.7440    1.4644    2.9353 H   0  0  0  0  0  0  0  0  0  0  0  0
   -2.8501    3.2295    2.8658 H   0  0  0  0  0  0  0  0  0  0  0  0
  1  2  1  0
  2  3  1  0
  3  4  1  0
  4  5  2  0
  5  6  1  0
  6  7  2  0
  7  8  1  0
  8  9  2  3
  9 10  1  0
 10 11  1  0
 11 12  2  0
 11 13  1  0
 13 14  1  0
 14 15  1  0
 15 16  2  0
 15 17  1  0
 17 18  2  0
 18 19  1  0
 19 20  2  0
 20 21  1  0
 21 22  2  0
 13 23  1  0
 23 24  2  0
  7 25  1  0
 25 26  2  0
 26 27  1  0
 27 28  1  0
 26  4  1  0
 23  9  1  0
 22 17  1  0
  1 29  1  0
  1 30  1  0
  1 31  1  0
  2 32  1  0
  2 33  1  0
  5 34  1  0
  6 35  1  0
  8 36  1  0
 14 37  1  0
 18 38  1  0
 19 39  1  0
 21 40  1  0
 22 41  1  0
 25 42  1  0
 28 43  1  0
 28 44  1  0
 28 45  1  0
M  END
$$$$
