
     RDKit          3D

 53 56  0  0  0  0  0  0  0  0999 V2000
    6.3624    2.3314    1.8630 C   0  0  0  0  0  0  0  0  0  0  0  0
    5.1727    1.9383    1.1887 O   0  0  0  0  0  0  0  0  0  0  0  0
    5.2200    0.7636    0.4892 C   0  0  0  0  0  0  0  0  0  0  0  0
    6.2597   -0.1647    0.5170 C   0  0  0  0  0  0  0  0  0  0  0  0
    6.1688   -1.3330   -0.2428 C   0  0  0  0  0  0  0  0  0  0  0  0
    5.0425   -1.5801   -1.0323 C   0  0  0  0  0  0  0  0  0  0  0  0
    3.9951   -0.6604   -1.0680 C   0  0  0  0  0  0  0  0  0  0  0  0
    2.8287   -0.8196   -1.8426 N   0  0  0  0  0  0  0  0  0  0  0  0
    2.4396   -1.9211   -2.5842 C   0  0  0  0  0  0  0  0  0  0  0  0
    3.0566   -2.9798   -2.6872 O   0  0  0  0  0  0  0  0  0  0  0  0
    1.1252   -1.7203   -3.3276 C   0  0  0  0  0  0  0  0  0  0  0  0
   -0.3026   -1.9465   -2.2211 S   0  0  0  0  0  0  0  0  0  0  0  0
   -0.4131   -0.3824   -1.4757 C   0  0  0  0  0  0  0  0  0  0  0  0
    0.4273    0.5976   -1.7241 N   0  0  0  0  0  0  0  0  0  0  0  0
    0.1575    1.6107   -0.8544 N   0  0  0  0  0  0  0  0  0  0  0  0
   -0.8818    1.2624   -0.1156 C   0  0  0  0  0  0  0  0  0  0  0  0
   -1.6101    2.2011    0.7934 C   0  0  0  0  0  0  0  0  0  0  0  0
   -2.8935    2.7078    0.1914 C   0  0  0  0  0  0  0  0  0  0  0  0
   -4.1864    2.2929    0.4429 C   0  0  0  0  0  0  0  0  0  0  0  0
   -5.1463    3.0107   -0.3272 C   0  0  0  0  0  0  0  0  0  0  0  0
   -4.5578    3.9572   -1.1340 C   0  0  0  0  0  0  0  0  0  0  0  0
   -2.8584    3.9789   -0.9611 S   0  0  0  0  0  0  0  0  0  0  0  0
   -1.2660   -0.0372   -0.4395 N   0  0  0  0  0  0  0  0  0  0  0  0
   -2.3060   -0.8027    0.1456 C   0  0  0  0  0  0  0  0  0  0  0  0
   -3.2155   -1.4891   -0.6665 C   0  0  0  0  0  0  0  0  0  0  0  0
   -4.2581   -2.2168   -0.0877 C   0  0  0  0  0  0  0  0  0  0  0  0
   -4.3958   -2.2812    1.3043 C   0  0  0  0  0  0  0  0  0  0  0  0
   -5.5363   -3.0400    1.9168 C   0  0  0  0  0  0  0  0  0  0  0  0
   -3.4829   -1.5928    2.1106 C   0  0  0  0  0  0  0  0  0  0  0  0
   -2.4380   -0.8612    1.5374 C   0  0  0  0  0  0  0  0  0  0  0  0
    4.0945    0.5094   -0.3033 C   0  0  0  0  0  0  0  0  0  0  0  0
    7.1924    2.4560    1.1589 H   0  0  0  0  0  0  0  0  0  0  0  0
    6.6256    1.6254    2.6589 H   0  0  0  0  0  0  0  0  0  0  0  0
    6.1753    3.3023    2.3311 H   0  0  0  0  0  0  0  0  0  0  0  0
    7.1491   -0.0148    1.1190 H   0  0  0  0  0  0  0  0  0  0  0  0
    6.9795   -2.0582   -0.2239 H   0  0  0  0  0  0  0  0  0  0  0  0
    5.0170   -2.4959   -1.6137 H   0  0  0  0  0  0  0  0  0  0  0  0
    2.1598   -0.0468   -1.7959 H   0  0  0  0  0  0  0  0  0  0  0  0
    1.1094   -0.7476   -3.8292 H   0  0  0  0  0  0  0  0  0  0  0  0
    1.0657   -2.4809   -4.1148 H   0  0  0  0  0  0  0  0  0  0  0  0
   -1.8122    1.7492    1.7675 H   0  0  0  0  0  0  0  0  0  0  0  0
   -0.9524    3.0539    1.0117 H   0  0  0  0  0  0  0  0  0  0  0  0
   -4.4403    1.5036    1.1434 H   0  0  0  0  0  0  0  0  0  0  0  0
   -6.2162    2.8409   -0.2885 H   0  0  0  0  0  0  0  0  0  0  0  0
   -5.0406    4.6418   -1.8176 H   0  0  0  0  0  0  0  0  0  0  0  0
   -3.1629   -1.4409   -1.7520 H   0  0  0  0  0  0  0  0  0  0  0  0
   -4.9668   -2.7336   -0.7335 H   0  0  0  0  0  0  0  0  0  0  0  0
   -5.3068   -3.3346    2.9471 H   0  0  0  0  0  0  0  0  0  0  0  0
   -6.4392   -2.4185    1.9209 H   0  0  0  0  0  0  0  0  0  0  0  0
   -5.7358   -3.9570    1.3523 H   0  0  0  0  0  0  0  0  0  0  0  0
   -3.5740   -1.6318    3.1962 H   0  0  0  0  0  0  0  0  0  0  0  0
   -1.7174   -0.3887    2.2009 H   0  0  0  0  0  0  0  0  0  0  0  0
    3.2886    1.2429   -0.3132 H   0  0  0  0  0  0  0  0  0  0  0  0
  1  2  1  0
  2  3  1  0
  3  4  2  0
  4  5  1  0
  5  6  2  0
  6  7  1  0
  7  8  1  0
  8  9  1  0
  9 10  2  0
  9 11  1  0
 11 12  1  0
 12 13  1  0
 13 14  2  0
 14 15  1  0
 15 16  2  0
 16 17  1  0
 17 18  1  0
 18 19  2  0
 19 20  1  0
 20 21  2  0
 21 22  1  0
 16 23  1  0
 23 24  1  0
 24 25  2  0
 25 26  1  0
 26 27  2  0
 27 28  1  0
 27 29  1  0
 29 30  2  0
  7 31  2  0
 31  3  1  0
 23 13  1  0
 30 24  1  0
 22 18  1  0
  1 32  1  0
  1 33  1  0
  1 34  1  0
  4 35  1  0
  5 36  1  0
  6 37  1  0
  8 38  1  0
 11 39  1  0
 11 40  1  0
 17 41  1  0
 17 42  1  0
 19 43  1  0
 20 44  1  0
 21 45  1  0
 25 46  1  0
 26 47  1  0
 28 48  1  0
 28 49  1  0
 28 50  1  0
 29 51  1  0
 30 52  1  0
 31 53  1  0
M  END
$$$$
