
     RDKit          3D

 40 41  0  0  0  0  0  0  0  0999 V2000
    7.7086   -0.2000    0.5411 C   0  0  0  0  0  0  0  0  0  0  0  0
    6.7842   -1.2778    0.4621 O   0  0  0  0  0  0  0  0  0  0  0  0
    5.4566   -0.9611    0.5359 C   0  0  0  0  0  0  0  0  0  0  0  0
    4.5915   -2.0552    0.4907 C   0  0  0  0  0  0  0  0  0  0  0  0
    3.2066   -1.8747    0.5562 C   0  0  0  0  0  0  0  0  0  0  0  0
    2.6626   -0.5917    0.6785 C   0  0  0  0  0  0  0  0  0  0  0  0
    1.2010   -0.4398    0.7090 C   0  0  0  0  0  0  0  0  0  0  0  0
    0.5649    0.5022    1.4235 C   0  0  0  0  0  0  0  0  0  0  0  0
   -0.9167    0.6207    1.4855 C   0  0  0  0  0  0  0  0  0  0  0  0
   -1.4353    0.9359    2.5481 O   0  0  0  0  0  0  0  0  0  0  0  0
   -1.5468    0.4240    0.2738 N   0  0  0  0  0  0  0  0  0  0  0  0
   -2.9013    0.4442   -0.0149 C   0  0  0  0  0  0  0  0  0  0  0  0
   -3.8284    0.5849    0.9391 C   0  0  0  0  0  0  0  0  0  0  0  0
   -5.2586    0.5932    0.6149 C   0  0  0  0  0  0  0  0  0  0  0  0
   -6.0768    0.6521    1.5295 O   0  0  0  0  0  0  0  0  0  0  0  0
   -5.5776    0.5262   -0.7198 N   0  0  0  0  0  0  0  0  0  0  0  0
   -6.9792    0.5444   -1.0932 C   0  0  0  0  0  0  0  0  0  0  0  0
   -4.6487    0.3182   -1.7262 C   0  0  0  0  0  0  0  0  0  0  0  0
   -4.9983    0.1577   -2.8983 O   0  0  0  0  0  0  0  0  0  0  0  0
   -3.3038    0.2941   -1.3397 N   0  0  0  0  0  0  0  0  0  0  0  0
   -2.3258    0.1024   -2.4071 C   0  0  0  0  0  0  0  0  0  0  0  0
    3.5339    0.5046    0.7078 C   0  0  0  0  0  0  0  0  0  0  0  0
    4.9219    0.3216    0.6422 C   0  0  0  0  0  0  0  0  0  0  0  0
    7.5872    0.4858   -0.3039 H   0  0  0  0  0  0  0  0  0  0  0  0
    8.7175   -0.6202    0.4864 H   0  0  0  0  0  0  0  0  0  0  0  0
    7.6190    0.3285    1.4960 H   0  0  0  0  0  0  0  0  0  0  0  0
    4.9997   -3.0596    0.4049 H   0  0  0  0  0  0  0  0  0  0  0  0
    2.5639   -2.7516    0.5217 H   0  0  0  0  0  0  0  0  0  0  0  0
    0.6451   -1.1837    0.1433 H   0  0  0  0  0  0  0  0  0  0  0  0
    1.0899    1.1872    2.0815 H   0  0  0  0  0  0  0  0  0  0  0  0
   -0.9277    0.3018   -0.5117 H   0  0  0  0  0  0  0  0  0  0  0  0
   -3.6148    0.6877    1.9942 H   0  0  0  0  0  0  0  0  0  0  0  0
   -7.6054    0.9694   -0.3038 H   0  0  0  0  0  0  0  0  0  0  0  0
   -7.1177    1.1322   -2.0067 H   0  0  0  0  0  0  0  0  0  0  0  0
   -7.2982   -0.4851   -1.2880 H   0  0  0  0  0  0  0  0  0  0  0  0
   -1.7470   -0.8054   -2.2072 H   0  0  0  0  0  0  0  0  0  0  0  0
   -1.6632    0.9732   -2.4488 H   0  0  0  0  0  0  0  0  0  0  0  0
   -2.7867   -0.0093   -3.3921 H   0  0  0  0  0  0  0  0  0  0  0  0
    3.1502    1.5200    0.7734 H   0  0  0  0  0  0  0  0  0  0  0  0
    5.5536    1.2033    0.6722 H   0  0  0  0  0  0  0  0  0  0  0  0
  1  2  1  0
  2  3  1  0
  3  4  2  0
  4  5  1  0
  5  6  2  0
  6  7  1  0
  7  8  2  3
  8  9  1  0
  9 10  2  0
  9 11  1  0
 11 12  1  0
 12 13  2  0
 13 14  1  0
 14 15  2  0
 14 16  1  0
 16 17  1  0
 16 18  1  0
 18 19  2  0
 18 20  1  0
 20 21  1  0
  6 22  1  0
 22 23  2  0
 23  3  1  0
 20 12  1  0
  1 24  1  0
  1 25  1  0
  1 26  1  0
  4 27  1  0
  5 28  1  0
  7 29  1  0
  8 30  1  0
 11 31  1  0
 13 32  1  0
 17 33  1  0
 17 34  1  0
 17 35  1  0
 21 36  1  0
 21 37  1  0
 21 38  1  0
 22 39  1  0
 23 40  1  0
M  END
$$$$
