
     RDKit          3D

 72 77  0  0  0  0  0  0  0  0999 V2000
   -3.4736   -2.1361   -1.4432 O   0  0  0  0  0  0  0  0  0  0  0  0
   -3.4778   -1.0374   -0.8764 C   0  0  0  0  0  0  0  0  0  0  0  0
   -4.7668   -0.1834   -0.7782 C   0  0  0  0  0  0  0  0  0  0  0  0
   -5.4751   -0.3013    0.5743 C   0  0  0  0  0  0  0  0  0  0  0  0
   -5.4155   -1.4688    1.3537 C   0  0  0  0  0  0  0  0  0  0  0  0
   -6.0525   -1.5290    2.5942 C   0  0  0  0  0  0  0  0  0  0  0  0
   -6.7705   -0.4324    3.0658 C   0  0  0  0  0  0  0  0  0  0  0  0
   -6.8602    0.7234    2.2949 C   0  0  0  0  0  0  0  0  0  0  0  0
   -6.2217    0.7878    1.0563 C   0  0  0  0  0  0  0  0  0  0  0  0
   -5.7098   -0.4069   -1.9652 C   0  0  0  0  0  0  0  0  0  0  0  0
   -5.7476    0.5300   -3.0117 C   0  0  0  0  0  0  0  0  0  0  0  0
   -6.5982    0.3475   -4.1044 C   0  0  0  0  0  0  0  0  0  0  0  0
   -7.4200   -0.7739   -4.1694 C   0  0  0  0  0  0  0  0  0  0  0  0
   -7.3847   -1.7204   -3.1481 C   0  0  0  0  0  0  0  0  0  0  0  0
   -6.5330   -1.5409   -2.0553 C   0  0  0  0  0  0  0  0  0  0  0  0
   -2.3027   -0.5200   -0.3097 N   0  0  0  0  0  0  0  0  0  0  0  0
   -1.1278   -1.4015   -0.3460 C   0  0  0  0  0  0  0  0  0  0  0  0
    0.1963   -0.6675   -0.0624 C   0  0  0  0  0  0  0  0  0  0  0  0
    0.1139    0.0947    1.1969 N   0  0  0  0  0  0  0  0  0  0  0  0
    1.4102    0.6522    1.6232 C   0  0  0  0  0  0  0  0  0  0  0  0
    2.0330    1.8288    0.8303 C   0  0  0  0  0  0  0  0  0  0  0  0
    2.3717    1.4394   -0.5036 O   0  0  0  0  0  0  0  0  0  0  0  0
    3.2552    2.4304    1.5665 C   0  0  0  0  0  0  0  0  0  0  0  0
    4.2331    1.4315    1.9864 N   0  0  0  0  0  0  0  0  0  0  0  0
    5.1739    0.8766    1.1486 C   0  0  0  0  0  0  0  0  0  0  0  0
    5.0395    1.0136   -0.1439 N   0  0  0  0  0  0  0  0  0  0  0  0
    6.0031    0.4710   -1.0195 C   0  0  0  0  0  0  0  0  0  0  0  0
    5.8311    0.6590   -2.3925 C   0  0  0  0  0  0  0  0  0  0  0  0
    6.7579    0.1448   -3.3029 C   0  0  0  0  0  0  0  0  0  0  0  0
    7.8686   -0.5657   -2.8462 C   0  0  0  0  0  0  0  0  0  0  0  0
    8.0596   -0.7668   -1.4783 C   0  0  0  0  0  0  0  0  0  0  0  0
    7.1261   -0.2451   -0.5789 C   0  0  0  0  0  0  0  0  0  0  0  0
    7.2423   -0.3980    0.8125 N   0  0  0  0  0  0  0  0  0  0  0  0
    8.2071   -1.0431    1.5481 C   0  0  0  0  0  0  0  0  0  0  0  0
    7.8778   -0.9328    2.8821 C   0  0  0  0  0  0  0  0  0  0  0  0
    6.6761   -0.1901    2.9598 C   0  0  0  0  0  0  0  0  0  0  0  0
    6.3045    0.1366    1.6680 C   0  0  0  0  0  0  0  0  0  0  0  0
   -0.9564    1.0941    1.0799 C   0  0  0  0  0  0  0  0  0  0  0  0
   -2.3213    0.4262    0.8173 C   0  0  0  0  0  0  0  0  0  0  0  0
   -4.4321    0.8597   -0.8667 H   0  0  0  0  0  0  0  0  0  0  0  0
   -4.8703   -2.3448    1.0054 H   0  0  0  0  0  0  0  0  0  0  0  0
   -5.9906   -2.4356    3.1911 H   0  0  0  0  0  0  0  0  0  0  0  0
   -7.2653   -0.4818    4.0312 H   0  0  0  0  0  0  0  0  0  0  0  0
   -7.4318    1.5745    2.6564 H   0  0  0  0  0  0  0  0  0  0  0  0
   -6.3127    1.6958    0.4636 H   0  0  0  0  0  0  0  0  0  0  0  0
   -5.1103    1.4110   -2.9880 H   0  0  0  0  0  0  0  0  0  0  0  0
   -6.6167    1.0806   -4.9061 H   0  0  0  0  0  0  0  0  0  0  0  0
   -8.0806   -0.9163   -5.0203 H   0  0  0  0  0  0  0  0  0  0  0  0
   -8.0165   -2.6024   -3.2011 H   0  0  0  0  0  0  0  0  0  0  0  0
   -6.5103   -2.3005   -1.2775 H   0  0  0  0  0  0  0  0  0  0  0  0
   -1.2898   -2.1883    0.4023 H   0  0  0  0  0  0  0  0  0  0  0  0
   -1.0659   -1.8889   -1.3262 H   0  0  0  0  0  0  0  0  0  0  0  0
    0.4165   -0.0084   -0.9101 H   0  0  0  0  0  0  0  0  0  0  0  0
    0.9958   -1.4150   -0.0015 H   0  0  0  0  0  0  0  0  0  0  0  0
    2.1251   -0.1803    1.6566 H   0  0  0  0  0  0  0  0  0  0  0  0
    1.2848    0.9748    2.6653 H   0  0  0  0  0  0  0  0  0  0  0  0
    1.2972    2.6346    0.7331 H   0  0  0  0  0  0  0  0  0  0  0  0
    3.3027    1.1236   -0.4805 H   0  0  0  0  0  0  0  0  0  0  0  0
    2.8978    2.9431    2.4667 H   0  0  0  0  0  0  0  0  0  0  0  0
    3.7448    3.1836    0.9387 H   0  0  0  0  0  0  0  0  0  0  0  0
    4.5119    1.4989    2.9587 H   0  0  0  0  0  0  0  0  0  0  0  0
    4.9662    1.2109   -2.7538 H   0  0  0  0  0  0  0  0  0  0  0  0
    6.6099    0.2993   -4.3690 H   0  0  0  0  0  0  0  0  0  0  0  0
    8.5862   -0.9647   -3.5592 H   0  0  0  0  0  0  0  0  0  0  0  0
    8.9298   -1.3249   -1.1485 H   0  0  0  0  0  0  0  0  0  0  0  0
    9.0469   -1.5342    1.0797 H   0  0  0  0  0  0  0  0  0  0  0  0
    8.4427   -1.3466    3.7077 H   0  0  0  0  0  0  0  0  0  0  0  0
    6.1426    0.0662    3.8648 H   0  0  0  0  0  0  0  0  0  0  0  0
   -1.0327    1.6779    2.0052 H   0  0  0  0  0  0  0  0  0  0  0  0
   -0.7463    1.7951    0.2622 H   0  0  0  0  0  0  0  0  0  0  0  0
   -3.0601    1.2123    0.6464 H   0  0  0  0  0  0  0  0  0  0  0  0
   -2.6347   -0.1361    1.7059 H   0  0  0  0  0  0  0  0  0  0  0  0
  1  2  2  0
  2  3  1  0
  3  4  1  0
  4  5  2  0
  5  6  1  0
  6  7  2  0
  7  8  1  0
  8  9  2  0
  3 10  1  0
 10 11  2  0
 11 12  1  0
 12 13  2  0
 13 14  1  0
 14 15  2  0
  2 16  1  0
 16 17  1  0
 17 18  1  0
 18 19  1  0
 19 20  1  0
 20 21  1  0
 21 22  1  0
 21 23  1  0
 23 24  1  0
 24 25  1  0
 25 26  2  0
 26 27  1  0
 27 28  2  0
 28 29  1  0
 29 30  2  0
 30 31  1  0
 31 32  2  0
 32 33  1  0
 33 34  1  0
 34 35  2  0
 35 36  1  0
 36 37  2  0
 19 38  1  0
 38 39  1  0
  9  4  1  0
 15 10  1  0
 39 16  1  0
 37 25  1  0
 32 27  1  0
 37 33  1  0
  3 40  1  0
  5 41  1  0
  6 42  1  0
  7 43  1  0
  8 44  1  0
  9 45  1  0
 11 46  1  0
 12 47  1  0
 13 48  1  0
 14 49  1  0
 15 50  1  0
 17 51  1  0
 17 52  1  0
 18 53  1  0
 18 54  1  0
 20 55  1  0
 20 56  1  0
 21 57  1  0
 22 58  1  0
 23 59  1  0
 23 60  1  0
 24 61  1  0
 28 62  1  0
 29 63  1  0
 30 64  1  0
 31 65  1  0
 34 66  1  0
 35 67  1  0
 36 68  1  0
 38 69  1  0
 38 70  1  0
 39 71  1  0
 39 72  1  0
M  END
$$$$
