
     RDKit          3D

 46 48  0  0  0  0  0  0  0  0999 V2000
    9.0406   -0.7835    1.6973 C   0  0  0  0  0  0  0  0  0  0  0  0
    7.5819   -0.9038    2.0927 C   0  0  0  0  0  0  0  0  0  0  0  0
    6.7816   -0.5071    0.9725 O   0  0  0  0  0  0  0  0  0  0  0  0
    5.4454   -0.5687    1.1937 C   0  0  0  0  0  0  0  0  0  0  0  0
    4.9076   -0.9219    2.2317 O   0  0  0  0  0  0  0  0  0  0  0  0
    4.6900   -0.1421   -0.0147 C   0  0  0  0  0  0  0  0  0  0  0  0
    5.3248    0.2650   -1.1927 C   0  0  0  0  0  0  0  0  0  0  0  0
    4.5609    0.6560   -2.2914 C   0  0  0  0  0  0  0  0  0  0  0  0
    3.1643    0.6416   -2.2215 C   0  0  0  0  0  0  0  0  0  0  0  0
    2.5155    0.2342   -1.0547 C   0  0  0  0  0  0  0  0  0  0  0  0
    1.1130    0.1971   -0.9030 N   0  0  0  0  0  0  0  0  0  0  0  0
    0.1576    0.4607   -1.8684 C   0  0  0  0  0  0  0  0  0  0  0  0
    0.3578    0.7073   -3.0516 O   0  0  0  0  0  0  0  0  0  0  0  0
   -1.2541    0.3858   -1.3941 C   0  0  0  0  0  0  0  0  0  0  0  0
   -2.2331   -0.0744   -2.2796 C   0  0  0  0  0  0  0  0  0  0  0  0
   -3.5678   -0.1584   -1.8706 C   0  0  0  0  0  0  0  0  0  0  0  0
   -3.9447    0.2243   -0.5772 C   0  0  0  0  0  0  0  0  0  0  0  0
   -5.3063    0.1066   -0.2466 N   0  0  0  0  0  0  0  0  0  0  0  0
   -5.9307    0.4011    0.9530 C   0  0  0  0  0  0  0  0  0  0  0  0
   -5.3730    0.8225    1.9610 O   0  0  0  0  0  0  0  0  0  0  0  0
   -7.3615    0.1529    0.9105 C   0  0  0  0  0  0  0  0  0  0  0  0
   -8.3422    0.3117    1.8714 C   0  0  0  0  0  0  0  0  0  0  0  0
   -9.5641   -0.0854    1.2781 C   0  0  0  0  0  0  0  0  0  0  0  0
   -9.2601   -0.4631   -0.0081 C   0  0  0  0  0  0  0  0  0  0  0  0
   -7.9299   -0.3245   -0.2449 O   0  0  0  0  0  0  0  0  0  0  0  0
   -2.9661    0.7024    0.2973 C   0  0  0  0  0  0  0  0  0  0  0  0
   -1.6275    0.7889   -0.1076 C   0  0  0  0  0  0  0  0  0  0  0  0
    3.2875   -0.1537    0.0476 C   0  0  0  0  0  0  0  0  0  0  0  0
    9.2587   -1.4172    0.8314 H   0  0  0  0  0  0  0  0  0  0  0  0
    9.2775    0.2453    1.4065 H   0  0  0  0  0  0  0  0  0  0  0  0
    9.6944   -1.0767    2.5235 H   0  0  0  0  0  0  0  0  0  0  0  0
    7.3743   -0.2484    2.9461 H   0  0  0  0  0  0  0  0  0  0  0  0
    7.3552   -1.9420    2.3601 H   0  0  0  0  0  0  0  0  0  0  0  0
    6.4089    0.2846   -1.2706 H   0  0  0  0  0  0  0  0  0  0  0  0
    5.0493    0.9756   -3.2092 H   0  0  0  0  0  0  0  0  0  0  0  0
    2.6106    0.9604   -3.0997 H   0  0  0  0  0  0  0  0  0  0  0  0
    0.7790   -0.1226   -0.0026 H   0  0  0  0  0  0  0  0  0  0  0  0
   -1.9592   -0.3706   -3.2906 H   0  0  0  0  0  0  0  0  0  0  0  0
   -4.3051   -0.5247   -2.5811 H   0  0  0  0  0  0  0  0  0  0  0  0
   -5.9300   -0.2402   -0.9684 H   0  0  0  0  0  0  0  0  0  0  0  0
   -8.1795    0.6731    2.8783 H   0  0  0  0  0  0  0  0  0  0  0  0
  -10.5455   -0.0949    1.7317 H   0  0  0  0  0  0  0  0  0  0  0  0
   -9.8476   -0.8344   -0.8368 H   0  0  0  0  0  0  0  0  0  0  0  0
   -3.2115    1.0305    1.3031 H   0  0  0  0  0  0  0  0  0  0  0  0
   -0.9019    1.2029    0.5877 H   0  0  0  0  0  0  0  0  0  0  0  0
    2.8050   -0.4724    0.9695 H   0  0  0  0  0  0  0  0  0  0  0  0
  1  2  1  0
  2  3  1  0
  3  4  1  0
  4  5  2  0
  4  6  1  0
  6  7  2  0
  7  8  1  0
  8  9  2  0
  9 10  1  0
 10 11  1  0
 11 12  1  0
 12 13  2  0
 12 14  1  0
 14 15  2  0
 15 16  1  0
 16 17  2  0
 17 18  1  0
 18 19  1  0
 19 20  2  0
 19 21  1  0
 21 22  2  0
 22 23  1  0
 23 24  2  0
 24 25  1  0
 17 26  1  0
 26 27  2  0
 10 28  2  0
 28  6  1  0
 27 14  1  0
 25 21  1  0
  1 29  1  0
  1 30  1  0
  1 31  1  0
  2 32  1  0
  2 33  1  0
  7 34  1  0
  8 35  1  0
  9 36  1  0
 11 37  1  0
 15 38  1  0
 16 39  1  0
 18 40  1  0
 22 41  1  0
 23 42  1  0
 24 43  1  0
 26 44  1  0
 27 45  1  0
 28 46  1  0
M  END
$$$$
