
     RDKit          3D

 92 94  0  0  0  0  0  0  0  0999 V2000
   -2.1109   -3.5345    3.2892 C   0  0  0  0  0  0  0  0  0  0  0  0
   -1.7702   -2.2174    2.6633 C   0  0  0  0  0  0  0  0  0  0  0  0
   -1.0790   -1.3599    3.1946 O   0  0  0  0  0  0  0  0  0  0  0  0
   -2.3589   -2.1238    1.4409 O   0  0  0  0  0  0  0  0  0  0  0  0
   -2.0742   -0.9165    0.6459 C   0  0  1  0  0  0  0  0  0  0  0  0
   -1.4699   -1.4209   -0.6977 C   0  0  2  0  0  0  0  0  0  0  0  0
   -0.6349   -2.5798   -0.4126 O   0  0  0  0  0  0  0  0  0  0  0  0
   -1.1094   -3.7980   -0.7751 C   0  0  0  0  0  0  0  0  0  0  0  0
   -0.1219   -4.8610   -0.4027 C   0  0  0  0  0  0  0  0  0  0  0  0
   -2.1757   -4.0143   -1.3325 O   0  0  0  0  0  0  0  0  0  0  0  0
   -0.5462   -0.5714   -1.5678 C   0  0  0  0  0  0  0  0  0  0  0  0
   -0.6803   -0.9005   -3.0449 C   0  0  0  0  0  0  0  0  0  0  0  0
    0.4198    0.3011   -1.2056 C   0  0  0  0  0  0  0  0  0  0  0  0
    0.8881    0.7302    0.1628 C   0  0  1  0  0  0  0  0  0  0  0  0
    1.7258   -0.3187    0.9273 C   0  0  1  0  0  0  0  0  0  0  0  0
    2.7280   -0.8800    0.0665 O   0  0  0  0  0  0  0  0  0  0  0  0
    2.9193   -2.2168    0.1218 C   0  0  0  0  0  0  0  0  0  0  0  0
    2.3676   -3.0030    0.8758 O   0  0  0  0  0  0  0  0  0  0  0  0
    3.9295   -2.6254   -0.8917 C   0  0  0  0  0  0  0  0  0  0  0  0
    4.5437   -1.7055   -1.7534 C   0  0  0  0  0  0  0  0  0  0  0  0
    5.4840   -2.1415   -2.6897 C   0  0  0  0  0  0  0  0  0  0  0  0
    5.8142   -3.4941   -2.7718 C   0  0  0  0  0  0  0  0  0  0  0  0
    5.2076   -4.4150   -1.9183 C   0  0  0  0  0  0  0  0  0  0  0  0
    4.2677   -3.9830   -0.9807 C   0  0  0  0  0  0  0  0  0  0  0  0
    2.3544    0.4991    2.0784 C   0  0  1  0  0  0  0  0  0  0  0  0
    3.7637    0.0777    2.4753 C   0  0  0  0  0  0  0  0  0  0  0  0
    2.2824    1.9869    1.6544 C   0  0  0  0  0  0  0  0  0  0  0  0
    1.7767    2.0034    0.1981 C   0  0  1  0  0  0  0  0  0  0  0  0
    2.9459    1.8053   -0.6263 O   0  0  0  0  0  0  0  0  0  0  0  0
    1.0993    3.3636   -0.1882 C   0  0  1  0  0  0  0  0  0  0  0  0
    0.9710    3.4856   -1.6332 O   0  0  0  0  0  0  0  0  0  0  0  0
    2.0479    3.9696   -2.3065 C   0  0  0  0  0  0  0  0  0  0  0  0
    1.7553    4.0303   -3.7731 C   0  0  0  0  0  0  0  0  0  0  0  0
    3.1106    4.2946   -1.7931 O   0  0  0  0  0  0  0  0  0  0  0  0
   -0.2977    3.6779    0.4346 C   0  0  1  0  0  0  0  0  0  0  0  0
   -0.6161    5.1723    0.2747 C   0  0  0  0  0  0  0  0  0  0  0  0
   -1.4403    2.8977   -0.1911 C   0  0  0  0  0  0  0  0  0  0  0  0
   -2.3306    2.1720    0.5063 C   0  0  0  0  0  0  0  0  0  0  0  0
   -3.4658    1.3126   -0.0463 C   0  0  0  0  0  0  0  0  0  0  0  0
   -3.5082    1.2303   -1.5845 C   0  0  0  0  0  0  0  0  0  0  0  0
   -4.7825    2.0263    0.3649 C   0  0  0  0  0  0  0  0  0  0  0  0
   -3.4228   -0.1302    0.5855 C   0  0  2  0  0  0  0  0  0  0  0  0
   -3.8460    0.0158    1.9855 O   0  0  0  0  0  0  0  0  0  0  0  0
   -4.9685   -0.6419    2.3810 C   0  0  0  0  0  0  0  0  0  0  0  0
   -5.2099   -0.4003    3.8397 C   0  0  0  0  0  0  0  0  0  0  0  0
   -5.6903   -1.3209    1.6666 O   0  0  0  0  0  0  0  0  0  0  0  0
   -1.7526   -4.3498    2.6560 H   0  0  0  0  0  0  0  0  0  0  0  0
   -3.1916   -3.6061    3.4356 H   0  0  0  0  0  0  0  0  0  0  0  0
   -1.6199   -3.6107    4.2638 H   0  0  0  0  0  0  0  0  0  0  0  0
   -1.3490   -0.3316    1.2000 H   0  0  0  0  0  0  0  0  0  0  0  0
   -2.3261   -1.7204   -1.3152 H   0  0  0  0  0  0  0  0  0  0  0  0
   -0.5384   -5.8425   -0.6455 H   0  0  0  0  0  0  0  0  0  0  0  0
    0.0736   -4.8271    0.6719 H   0  0  0  0  0  0  0  0  0  0  0  0
    0.8020   -4.7234   -0.9695 H   0  0  0  0  0  0  0  0  0  0  0  0
   -0.0159   -0.2975   -3.6728 H   0  0  0  0  0  0  0  0  0  0  0  0
   -0.4356   -1.9530   -3.2211 H   0  0  0  0  0  0  0  0  0  0  0  0
   -1.7033   -0.7224   -3.3901 H   0  0  0  0  0  0  0  0  0  0  0  0
    1.0233    0.7319   -2.0067 H   0  0  0  0  0  0  0  0  0  0  0  0
    0.0271    0.9540    0.7879 H   0  0  0  0  0  0  0  0  0  0  0  0
    1.0708   -1.0993    1.3297 H   0  0  0  0  0  0  0  0  0  0  0  0
    4.2993   -0.6459   -1.7047 H   0  0  0  0  0  0  0  0  0  0  0  0
    5.9581   -1.4238   -3.3545 H   0  0  0  0  0  0  0  0  0  0  0  0
    6.5470   -3.8305   -3.5009 H   0  0  0  0  0  0  0  0  0  0  0  0
    5.4667   -5.4690   -1.9814 H   0  0  0  0  0  0  0  0  0  0  0  0
    3.8009   -4.7084   -0.3175 H   0  0  0  0  0  0  0  0  0  0  0  0
    1.7107    0.3870    2.9617 H   0  0  0  0  0  0  0  0  0  0  0  0
    4.1129    0.6668    3.3300 H   0  0  0  0  0  0  0  0  0  0  0  0
    4.4764    0.2270    1.6575 H   0  0  0  0  0  0  0  0  0  0  0  0
    3.7863   -0.9775    2.7657 H   0  0  0  0  0  0  0  0  0  0  0  0
    1.5834    2.5007    2.3229 H   0  0  0  0  0  0  0  0  0  0  0  0
    3.2543    2.4838    1.7511 H   0  0  0  0  0  0  0  0  0  0  0  0
    3.4280    2.6558   -0.6847 H   0  0  0  0  0  0  0  0  0  0  0  0
    1.7775    4.1575    0.1565 H   0  0  0  0  0  0  0  0  0  0  0  0
    2.6158    4.4563   -4.2968 H   0  0  0  0  0  0  0  0  0  0  0  0
    0.8880    4.6710   -3.9521 H   0  0  0  0  0  0  0  0  0  0  0  0
    1.5753    3.0221   -4.1551 H   0  0  0  0  0  0  0  0  0  0  0  0
   -0.2562    3.4730    1.5105 H   0  0  0  0  0  0  0  0  0  0  0  0
    0.1548    5.7854    0.7538 H   0  0  0  0  0  0  0  0  0  0  0  0
   -0.6753    5.4671   -0.7790 H   0  0  0  0  0  0  0  0  0  0  0  0
   -1.5734    5.4217    0.7466 H   0  0  0  0  0  0  0  0  0  0  0  0
   -1.5032    2.9413   -1.2767 H   0  0  0  0  0  0  0  0  0  0  0  0
   -2.2481    2.1725    1.5953 H   0  0  0  0  0  0  0  0  0  0  0  0
   -2.5612    0.9178   -2.0138 H   0  0  0  0  0  0  0  0  0  0  0  0
   -3.7443    2.2038   -2.0317 H   0  0  0  0  0  0  0  0  0  0  0  0
   -4.2778    0.5269   -1.9222 H   0  0  0  0  0  0  0  0  0  0  0  0
   -5.6565    1.4258    0.0877 H   0  0  0  0  0  0  0  0  0  0  0  0
   -4.8798    2.9993   -0.1329 H   0  0  0  0  0  0  0  0  0  0  0  0
   -4.8358    2.2208    1.4424 H   0  0  0  0  0  0  0  0  0  0  0  0
   -4.1500   -0.7602    0.0576 H   0  0  0  0  0  0  0  0  0  0  0  0
   -5.4417    0.6548    4.0062 H   0  0  0  0  0  0  0  0  0  0  0  0
   -6.0590   -1.0050    4.1715 H   0  0  0  0  0  0  0  0  0  0  0  0
   -4.3301   -0.6974    4.4164 H   0  0  0  0  0  0  0  0  0  0  0  0
  1  2  1  0
  2  3  2  0
  2  4  1  0
  4  5  1  0
  5  6  1  0
  6  7  1  0
  7  8  1  0
  8  9  1  0
  8 10  2  0
  6 11  1  0
 11 12  1  0
 11 13  2  0
 13 14  1  0
 14 15  1  0
 15 16  1  0
 16 17  1  0
 17 18  2  0
 17 19  1  0
 19 20  2  0
 20 21  1  0
 21 22  2  0
 22 23  1  0
 23 24  2  0
 15 25  1  0
 25 26  1  0
 25 27  1  0
 27 28  1  0
 28 29  1  6
 28 30  1  0
 30 31  1  0
 31 32  1  0
 32 33  1  0
 32 34  2  0
 30 35  1  0
 35 36  1  0
 35 37  1  0
 37 38  2  0
 38 39  1  0
 39 40  1  0
 39 41  1  0
 39 42  1  0
 42 43  1  0
 43 44  1  0
 44 45  1  0
 44 46  2  0
 42  5  1  0
 28 14  1  0
 24 19  1  0
  1 47  1  0
  1 48  1  0
  1 49  1  0
  5 50  1  1
  6 51  1  6
  9 52  1  0
  9 53  1  0
  9 54  1  0
 12 55  1  0
 12 56  1  0
 12 57  1  0
 13 58  1  0
 14 59  1  1
 15 60  1  1
 20 61  1  0
 21 62  1  0
 22 63  1  0
 23 64  1  0
 24 65  1  0
 25 66  1  1
 26 67  1  0
 26 68  1  0
 26 69  1  0
 27 70  1  0
 27 71  1  0
 29 72  1  0
 30 73  1  1
 33 74  1  0
 33 75  1  0
 33 76  1  0
 35 77  1  1
 36 78  1  0
 36 79  1  0
 36 80  1  0
 37 81  1  0
 38 82  1  0
 40 83  1  0
 40 84  1  0
 40 85  1  0
 41 86  1  0
 41 87  1  0
 41 88  1  0
 42 89  1  6
 45 90  1  0
 45 91  1  0
 45 92  1  0
M  END
$$$$
