
     RDKit          3D

 47 48  0  0  0  0  0  0  0  0999 V2000
   -3.8273    2.9583    2.7923 C   0  0  0  0  0  0  0  0  0  0  0  0
   -3.7928    1.4434    2.9360 C   0  0  0  0  0  0  0  0  0  0  0  0
   -3.4326    0.7993    1.6624 N   0  0  0  0  0  0  0  0  0  0  0  0
   -4.5676    0.4337    0.8017 C   0  0  0  0  0  0  0  0  0  0  0  0
   -5.0250   -0.9919    1.0760 C   0  0  0  0  0  0  0  0  0  0  0  0
   -2.1104    0.5589    1.3024 C   0  0  0  0  0  0  0  0  0  0  0  0
   -1.0311    1.0424    2.0585 C   0  0  0  0  0  0  0  0  0  0  0  0
    0.3032    0.8120    1.7004 C   0  0  0  0  0  0  0  0  0  0  0  0
    0.6137    0.0818    0.5543 C   0  0  0  0  0  0  0  0  0  0  0  0
    2.0341   -0.1286    0.2406 C   0  0  0  0  0  0  0  0  0  0  0  0
    2.5541    0.2488   -0.9366 C   0  0  0  0  0  0  0  0  0  0  0  0
    3.9427   -0.0229   -1.2955 C   0  0  0  0  0  0  0  0  0  0  0  0
    4.9823    0.7021   -0.7036 C   0  0  0  0  0  0  0  0  0  0  0  0
    6.2990    0.4452   -1.0625 C   0  0  0  0  0  0  0  0  0  0  0  0
    6.5625   -0.5336   -2.0079 C   0  0  0  0  0  0  0  0  0  0  0  0
    5.5068   -1.2381   -2.5738 C   0  0  0  0  0  0  0  0  0  0  0  0
    4.2256   -0.9818   -2.2190 N   0  0  0  0  0  4  0  0  0  0  0  0
    3.1401   -1.7821   -2.8242 C   0  0  0  0  0  0  0  0  0  0  0  0
   -0.4330   -0.4431   -0.2211 C   0  0  0  0  0  0  0  0  0  0  0  0
   -0.0675   -1.1888   -1.3211 O   0  0  0  0  0  0  0  0  0  0  0  0
   -1.1084   -1.8803   -2.0054 C   0  0  0  0  0  0  0  0  0  0  0  0
   -1.7648   -0.1880    0.1573 C   0  0  0  0  0  0  0  0  0  0  0  0
   -4.1148    3.4210    3.7416 H   0  0  0  0  0  0  0  0  0  0  0  0
   -4.5536    3.2649    2.0323 H   0  0  0  0  0  0  0  0  0  0  0  0
   -2.8530    3.3613    2.5002 H   0  0  0  0  0  0  0  0  0  0  0  0
   -4.7873    1.1035    3.2526 H   0  0  0  0  0  0  0  0  0  0  0  0
   -3.1239    1.1405    3.7493 H   0  0  0  0  0  0  0  0  0  0  0  0
   -4.3349    0.5746   -0.2597 H   0  0  0  0  0  0  0  0  0  0  0  0
   -5.4104    1.1101    0.9942 H   0  0  0  0  0  0  0  0  0  0  0  0
   -5.3309   -1.1126    2.1205 H   0  0  0  0  0  0  0  0  0  0  0  0
   -5.8808   -1.2424    0.4414 H   0  0  0  0  0  0  0  0  0  0  0  0
   -4.2318   -1.7189    0.8776 H   0  0  0  0  0  0  0  0  0  0  0  0
   -1.1960    1.6335    2.9546 H   0  0  0  0  0  0  0  0  0  0  0  0
    1.0886    1.2234    2.3306 H   0  0  0  0  0  0  0  0  0  0  0  0
    2.6220   -0.6123    1.0173 H   0  0  0  0  0  0  0  0  0  0  0  0
    1.9419    0.7348   -1.6930 H   0  0  0  0  0  0  0  0  0  0  0  0
    4.7665    1.4735    0.0342 H   0  0  0  0  0  0  0  0  0  0  0  0
    7.1132    1.0075   -0.6074 H   0  0  0  0  0  0  0  0  0  0  0  0
    7.5877   -0.7497   -2.3020 H   0  0  0  0  0  0  0  0  0  0  0  0
    5.6829   -2.0151   -3.3127 H   0  0  0  0  0  0  0  0  0  0  0  0
    2.4611   -1.1034   -3.3468 H   0  0  0  0  0  0  0  0  0  0  0  0
    3.5575   -2.4930   -3.5419 H   0  0  0  0  0  0  0  0  0  0  0  0
    2.6337   -2.3315   -2.0265 H   0  0  0  0  0  0  0  0  0  0  0  0
   -1.7882   -1.1774   -2.4975 H   0  0  0  0  0  0  0  0  0  0  0  0
   -0.6424   -2.4901   -2.7856 H   0  0  0  0  0  0  0  0  0  0  0  0
   -1.6469   -2.5570   -1.3336 H   0  0  0  0  0  0  0  0  0  0  0  0
   -2.5635   -0.5919   -0.4509 H   0  0  0  0  0  0  0  0  0  0  0  0
  1  2  1  0
  2  3  1  0
  3  4  1  0
  4  5  1  0
  3  6  1  0
  6  7  2  0
  7  8  1  0
  8  9  2  0
  9 10  1  0
 10 11  2  3
 11 12  1  0
 12 13  2  0
 13 14  1  0
 14 15  2  0
 15 16  1  0
 16 17  2  0
 17 18  1  0
  9 19  1  0
 19 20  1  0
 20 21  1  0
 19 22  2  0
 22  6  1  0
 17 12  1  0
  1 23  1  0
  1 24  1  0
  1 25  1  0
  2 26  1  0
  2 27  1  0
  4 28  1  0
  4 29  1  0
  5 30  1  0
  5 31  1  0
  5 32  1  0
  7 33  1  0
  8 34  1  0
 10 35  1  0
 11 36  1  0
 13 37  1  0
 14 38  1  0
 15 39  1  0
 16 40  1  0
 18 41  1  0
 18 42  1  0
 18 43  1  0
 21 44  1  0
 21 45  1  0
 21 46  1  0
 22 47  1  0
M  CHG  1  17   1
M  END
$$$$
