
     RDKit          3D

 60 62  0  0  0  0  0  0  0  0999 V2000
   -4.8851    5.6936   -2.6392 C   0  0  0  0  0  0  0  0  0  0  0  0
   -3.8554    4.7767   -2.0525 C   0  0  0  0  0  0  0  0  0  0  0  0
   -4.2515    3.6320   -1.3570 C   0  0  0  0  0  0  0  0  0  0  0  0
   -3.2979    2.7967   -0.7752 C   0  0  0  0  0  0  0  0  0  0  0  0
   -1.9297    3.0949   -0.8909 C   0  0  0  0  0  0  0  0  0  0  0  0
   -0.7889    1.9722   -0.0900 S   0  0  0  0  0  6  0  0  0  0  0  0
    0.3338    2.7264    0.4218 O   0  0  0  0  0  0  0  0  0  0  0  0
   -1.5525    1.1072    0.7836 O   0  0  0  0  0  0  0  0  0  0  0  0
   -0.2096    1.0860   -1.4315 N   0  0  0  0  0  0  0  0  0  0  0  0
   -0.1815   -0.3403   -1.2222 C   0  0  0  0  0  0  0  0  0  0  0  0
    0.9297   -0.8742   -0.5565 C   0  0  0  0  0  0  0  0  0  0  0  0
    0.9681   -2.2246   -0.1961 C   0  0  0  0  0  0  0  0  0  0  0  0
    2.1575   -2.8506    0.5291 C   0  0  0  0  0  0  0  0  0  0  0  0
    2.9955   -1.8634    1.3157 C   0  0  0  0  0  0  0  0  0  0  0  0
    3.7744   -1.0670    0.8097 O   0  0  0  0  0  0  0  0  0  0  0  0
    2.7771   -2.0050    2.6485 O   0  0  0  0  0  0  0  0  0  0  0  0
    3.4611   -1.0845    3.5222 C   0  0  0  0  0  0  0  0  0  0  0  0
    2.7724   -1.1883    4.8795 C   0  0  0  0  0  0  0  0  0  0  0  0
    4.9370   -1.4613    3.6503 C   0  0  0  0  0  0  0  0  0  0  0  0
    3.0561   -3.6639   -0.3874 C   0  0  0  0  0  0  0  0  0  0  0  0
    2.9975   -3.6132   -1.6222 O   0  0  0  0  0  0  0  0  0  0  0  0
    4.0547   -4.5419    0.3509 C   0  0  0  0  0  0  0  0  0  0  0  0
    3.4564   -5.2809    1.3261 F   0  0  0  0  0  0  0  0  0  0  0  0
    5.0222   -3.8163    0.9739 F   0  0  0  0  0  0  0  0  0  0  0  0
    4.6949   -5.4264   -0.4527 F   0  0  0  0  0  0  0  0  0  0  0  0
   -0.1333   -3.0280   -0.5412 C   0  0  0  0  0  0  0  0  0  0  0  0
   -0.0195   -4.3617   -0.2104 O   0  0  0  0  0  0  0  0  0  0  0  0
   -1.2885   -2.5132   -1.1948 C   0  0  0  0  0  0  0  0  0  0  0  0
   -2.4387   -3.2842   -1.4891 C   0  0  0  0  0  0  0  0  0  0  0  0
   -3.5415   -2.7389   -2.1535 C   0  0  0  0  0  0  0  0  0  0  0  0
   -3.5263   -1.4082   -2.5432 C   0  0  0  0  0  0  0  0  0  0  0  0
   -2.4177   -0.6210   -2.2461 C   0  0  0  0  0  0  0  0  0  0  0  0
   -1.2979   -1.1420   -1.5563 C   0  0  0  0  0  0  0  0  0  0  0  0
   -1.5075    4.2474   -1.5759 C   0  0  0  0  0  0  0  0  0  0  0  0
   -0.0663    4.6554   -1.7187 C   0  0  0  0  0  0  0  0  0  0  0  0
   -2.4900    5.0867   -2.1363 C   0  0  0  0  0  0  0  0  0  0  0  0
   -4.4778    6.2601   -3.4793 H   0  0  0  0  0  0  0  0  0  0  0  0
   -5.7371    5.1234   -3.0135 H   0  0  0  0  0  0  0  0  0  0  0  0
   -5.2349    6.3993   -1.8809 H   0  0  0  0  0  0  0  0  0  0  0  0
   -5.3082    3.3862   -1.2517 H   0  0  0  0  0  0  0  0  0  0  0  0
   -3.6289    1.9135   -0.2410 H   0  0  0  0  0  0  0  0  0  0  0  0
    0.7140    1.4521   -1.6443 H   0  0  0  0  0  0  0  0  0  0  0  0
    1.7592   -0.2117   -0.3179 H   0  0  0  0  0  0  0  0  0  0  0  0
    1.7444   -3.5581    1.2609 H   0  0  0  0  0  0  0  0  0  0  0  0
    3.3528   -0.0618    3.1396 H   0  0  0  0  0  0  0  0  0  0  0  0
    1.7038   -1.0011    4.7839 H   0  0  0  0  0  0  0  0  0  0  0  0
    2.8825   -2.1993    5.2830 H   0  0  0  0  0  0  0  0  0  0  0  0
    3.1948   -0.4823    5.5956 H   0  0  0  0  0  0  0  0  0  0  0  0
    5.4568   -1.3740    2.6909 H   0  0  0  0  0  0  0  0  0  0  0  0
    5.4515   -0.8170    4.3733 H   0  0  0  0  0  0  0  0  0  0  0  0
    5.0470   -2.5052    3.9676 H   0  0  0  0  0  0  0  0  0  0  0  0
   -0.6344   -4.8753   -0.7622 H   0  0  0  0  0  0  0  0  0  0  0  0
   -2.5110   -4.3255   -1.1851 H   0  0  0  0  0  0  0  0  0  0  0  0
   -4.4088   -3.3550   -2.3587 H   0  0  0  0  0  0  0  0  0  0  0  0
   -4.3756   -0.9774   -3.0676 H   0  0  0  0  0  0  0  0  0  0  0  0
   -2.4262    0.4197   -2.5662 H   0  0  0  0  0  0  0  0  0  0  0  0
    0.3253    5.0126   -0.7683 H   0  0  0  0  0  0  0  0  0  0  0  0
    0.5430    3.8297   -2.0893 H   0  0  0  0  0  0  0  0  0  0  0  0
    0.0493    5.4680   -2.4394 H   0  0  0  0  0  0  0  0  0  0  0  0
   -2.1909    6.0031   -2.6385 H   0  0  0  0  0  0  0  0  0  0  0  0
  1  2  1  0
  2  3  2  0
  3  4  1  0
  4  5  2  0
  5  6  1  0
  6  7  2  0
  6  8  2  0
  6  9  1  0
  9 10  1  0
 10 11  2  0
 11 12  1  0
 12 13  1  0
 13 14  1  0
 14 15  2  0
 14 16  1  0
 16 17  1  0
 17 18  1  0
 17 19  1  0
 13 20  1  0
 20 21  2  0
 20 22  1  0
 22 23  1  0
 22 24  1  0
 22 25  1  0
 12 26  2  0
 26 27  1  0
 26 28  1  0
 28 29  2  0
 29 30  1  0
 30 31  2  0
 31 32  1  0
 32 33  2  0
  5 34  1  0
 34 35  1  0
 34 36  2  0
 36  2  1  0
 33 10  1  0
 33 28  1  0
  1 37  1  0
  1 38  1  0
  1 39  1  0
  3 40  1  0
  4 41  1  0
  9 42  1  0
 11 43  1  0
 13 44  1  0
 17 45  1  0
 18 46  1  0
 18 47  1  0
 18 48  1  0
 19 49  1  0
 19 50  1  0
 19 51  1  0
 27 52  1  0
 29 53  1  0
 30 54  1  0
 31 55  1  0
 32 56  1  0
 35 57  1  0
 35 58  1  0
 35 59  1  0
 36 60  1  0
M  END
$$$$
