
     RDKit          3D

 67 72  0  0  0  0  0  0  0  0999 V2000
   -4.1315    5.0915    0.3024 C   0  0  0  0  0  0  0  0  0  0  0  0
   -3.4994    3.9601   -0.4446 C   0  0  0  0  0  0  0  0  0  0  0  0
   -3.6636    3.8262   -1.8316 C   0  0  0  0  0  0  0  0  0  0  0  0
   -3.0540    2.7751   -2.5423 C   0  0  0  0  0  0  0  0  0  0  0  0
   -2.2628    1.8315   -1.8857 C   0  0  0  0  0  0  0  0  0  0  0  0
   -2.0995    1.9572   -0.5156 C   0  0  0  0  0  0  0  0  0  0  0  0
   -2.7046    3.0125    0.1799 C   0  0  0  0  0  0  0  0  0  0  0  0
   -2.3800    2.9416    1.5317 N   0  0  0  0  0  0  0  0  0  0  0  0
   -1.5462    1.8546    1.8054 C   0  0  0  0  0  0  0  0  0  0  0  0
   -1.0857    1.5887    2.9054 O   0  0  0  0  0  0  0  0  0  0  0  0
   -1.3307    1.1155    0.4573 C   0  0  1  0  0  0  0  0  0  0  0  0
   -1.8769   -0.2706    0.4557 C   0  0  0  0  0  0  0  0  0  0  0  0
   -0.8243   -1.1943    0.5596 C   0  0  0  0  0  0  0  0  0  0  0  0
   -1.3422   -2.4601    0.5695 C   0  0  0  0  0  0  0  0  0  0  0  0
   -0.7256   -3.6271    0.7399 O   0  0  0  0  0  0  0  0  0  0  0  0
   -2.7464   -2.3442    0.4319 N   0  0  0  0  0  0  0  0  0  0  0  0
   -3.6876   -3.4321    0.3736 C   0  0  0  0  0  0  0  0  0  0  0  0
   -3.2859   -4.7085   -0.0474 C   0  0  0  0  0  0  0  0  0  0  0  0
   -4.2016   -5.7648   -0.1057 C   0  0  0  0  0  0  0  0  0  0  0  0
   -5.5295   -5.5618    0.2565 C   0  0  0  0  0  0  0  0  0  0  0  0
   -5.9430   -4.3018    0.6771 C   0  0  0  0  0  0  0  0  0  0  0  0
   -5.0297   -3.2433    0.7351 C   0  0  0  0  0  0  0  0  0  0  0  0
   -3.0564   -0.9643    0.3615 C   0  0  0  0  0  0  0  0  0  0  0  0
   -4.2935   -0.5107    0.1691 O   0  0  0  0  0  0  0  0  0  0  0  0
    0.4630   -0.4771    0.6839 C   0  0  1  0  0  0  0  0  0  0  0  0
    1.6803   -0.9994   -0.0696 C   0  0  0  0  0  0  0  0  0  0  0  0
    2.7864   -0.0282   -0.0064 N   0  0  0  0  0  0  0  0  0  0  0  0
    4.0736   -0.5075   -0.1824 C   0  0  0  0  0  0  0  0  0  0  0  0
    4.3529   -1.6996   -0.1851 O   0  0  0  0  0  0  0  0  0  0  0  0
    4.9743    0.4944   -0.3468 O   0  0  0  0  0  0  0  0  0  0  0  0
    6.3833    0.2113   -0.5423 C   0  0  0  0  0  0  0  0  0  0  0  0
    6.6207   -0.5810   -1.8327 C   0  0  0  0  0  0  0  0  0  0  0  0
    7.0388    1.5932   -0.6896 C   0  0  0  0  0  0  0  0  0  0  0  0
    6.9868   -0.4877    0.6806 C   0  0  0  0  0  0  0  0  0  0  0  0
    2.4433    1.3843   -0.2627 C   0  0  0  0  0  0  0  0  0  0  0  0
    1.1088    1.8384    0.3848 C   0  0  0  0  0  0  0  0  0  0  0  0
    0.0808    0.8501    0.1046 N   0  0  0  0  0  0  0  0  0  0  0  0
   -3.3638    5.7925    0.6449 H   0  0  0  0  0  0  0  0  0  0  0  0
   -4.6891    4.7161    1.1667 H   0  0  0  0  0  0  0  0  0  0  0  0
   -4.8380    5.6421   -0.3279 H   0  0  0  0  0  0  0  0  0  0  0  0
   -4.2693    4.5443   -2.3825 H   0  0  0  0  0  0  0  0  0  0  0  0
   -3.2006    2.6991   -3.6182 H   0  0  0  0  0  0  0  0  0  0  0  0
   -1.7914    1.0196   -2.4324 H   0  0  0  0  0  0  0  0  0  0  0  0
   -2.6740    3.5914    2.2454 H   0  0  0  0  0  0  0  0  0  0  0  0
    0.2113   -3.4571    0.9355 H   0  0  0  0  0  0  0  0  0  0  0  0
   -2.2700   -4.9090   -0.3731 H   0  0  0  0  0  0  0  0  0  0  0  0
   -3.8727   -6.7450   -0.4406 H   0  0  0  0  0  0  0  0  0  0  0  0
   -6.2393   -6.3830    0.2119 H   0  0  0  0  0  0  0  0  0  0  0  0
   -6.9770   -4.1376    0.9688 H   0  0  0  0  0  0  0  0  0  0  0  0
   -5.3929   -2.2893    1.1038 H   0  0  0  0  0  0  0  0  0  0  0  0
   -4.2463    0.4484    0.0084 H   0  0  0  0  0  0  0  0  0  0  0  0
    0.7036   -0.3694    1.7515 H   0  0  0  0  0  0  0  0  0  0  0  0
    1.4559   -1.1712   -1.1304 H   0  0  0  0  0  0  0  0  0  0  0  0
    2.0014   -1.9594    0.3497 H   0  0  0  0  0  0  0  0  0  0  0  0
    6.1046   -0.1114   -2.6776 H   0  0  0  0  0  0  0  0  0  0  0  0
    6.2395   -1.6040   -1.7616 H   0  0  0  0  0  0  0  0  0  0  0  0
    7.6882   -0.6464   -2.0691 H   0  0  0  0  0  0  0  0  0  0  0  0
    8.1208    1.5170   -0.8409 H   0  0  0  0  0  0  0  0  0  0  0  0
    6.8559    2.2079    0.1998 H   0  0  0  0  0  0  0  0  0  0  0  0
    6.6084    2.1404   -1.5367 H   0  0  0  0  0  0  0  0  0  0  0  0
    6.6051   -1.5060    0.8006 H   0  0  0  0  0  0  0  0  0  0  0  0
    6.7350    0.0522    1.6003 H   0  0  0  0  0  0  0  0  0  0  0  0
    8.0773   -0.5544    0.6031 H   0  0  0  0  0  0  0  0  0  0  0  0
    3.2501    2.0354    0.0902 H   0  0  0  0  0  0  0  0  0  0  0  0
    2.3825    1.4965   -1.3527 H   0  0  0  0  0  0  0  0  0  0  0  0
    1.2567    1.9624    1.4643 H   0  0  0  0  0  0  0  0  0  0  0  0
    0.8360    2.8158   -0.0282 H   0  0  0  0  0  0  0  0  0  0  0  0
  1  2  1  0
  2  3  2  0
  3  4  1  0
  4  5  2  0
  5  6  1  0
  6  7  2  0
  7  8  1  0
  8  9  1  0
  9 10  2  0
  9 11  1  0
 11 12  1  0
 12 13  1  0
 13 14  2  0
 14 15  1  0
 14 16  1  0
 16 17  1  0
 17 18  2  0
 18 19  1  0
 19 20  2  0
 20 21  1  0
 21 22  2  0
 16 23  1  0
 23 24  1  0
 13 25  1  0
 25 26  1  0
 26 27  1  0
 27 28  1  0
 28 29  2  0
 28 30  1  0
 30 31  1  0
 31 32  1  0
 31 33  1  0
 31 34  1  0
 27 35  1  0
 35 36  1  0
 36 37  1  0
  7  2  1  0
 11 37  1  6
 11  6  1  0
 23 12  2  0
 37 25  1  0
 22 17  1  0
  1 38  1  0
  1 39  1  0
  1 40  1  0
  3 41  1  0
  4 42  1  0
  5 43  1  0
  8 44  1  0
 15 45  1  0
 18 46  1  0
 19 47  1  0
 20 48  1  0
 21 49  1  0
 22 50  1  0
 24 51  1  0
 25 52  1  1
 26 53  1  0
 26 54  1  0
 32 55  1  0
 32 56  1  0
 32 57  1  0
 33 58  1  0
 33 59  1  0
 33 60  1  0
 34 61  1  0
 34 62  1  0
 34 63  1  0
 35 64  1  0
 35 65  1  0
 36 66  1  0
 36 67  1  0
M  END
$$$$
