
     RDKit          3D

 49 50  0  0  0  0  0  0  0  0999 V2000
    3.3831   -1.6450   -2.6250 C   0  0  0  0  0  0  0  0  0  0  0  0
    3.1560   -2.4716   -1.3616 C   0  0  0  0  0  0  0  0  0  0  0  0
    4.4828   -2.8761   -0.7223 C   0  0  0  0  0  0  0  0  0  0  0  0
    2.1748   -1.8166   -0.3695 C   0  0  0  0  0  0  0  0  0  0  0  0
    2.6612   -0.6496    0.4919 C   0  0  0  0  0  0  0  0  0  0  0  0
    2.8761    0.6081   -0.2762 N   0  0  0  0  0  4  0  0  0  0  0  0
    4.1533    1.0196   -0.4833 C   0  0  0  0  0  0  0  0  0  0  0  0
    4.4359    2.2054   -1.1503 C   0  0  0  0  0  0  0  0  0  0  0  0
    3.3943    2.9996   -1.5976 C   0  0  0  0  0  0  0  0  0  0  0  0
    2.0893    2.5953   -1.3568 C   0  0  0  0  0  0  0  0  0  0  0  0
    1.8362    1.3931   -0.6834 C   0  0  0  0  0  0  0  0  0  0  0  0
    0.4493    1.0184   -0.4095 C   0  0  0  0  0  0  0  0  0  0  0  0
   -0.2285    1.5228    0.6335 C   0  0  0  0  0  0  0  0  0  0  0  0
   -1.6184    1.1570    0.9322 C   0  0  0  0  0  0  0  0  0  0  0  0
   -2.0048    0.9723    2.2582 C   0  0  0  0  0  0  0  0  0  0  0  0
   -3.3319    0.6435    2.5766 C   0  0  0  0  0  0  0  0  0  0  0  0
   -4.3276    0.4897    1.5967 C   0  0  0  0  0  0  0  0  0  0  0  0
   -5.6498    0.1817    1.9296 N   0  0  0  0  0  0  0  0  0  0  0  0
   -5.9151   -0.4812    3.2087 C   0  0  0  0  0  0  0  0  0  0  0  0
   -6.6205   -0.0890    0.8708 C   0  0  0  0  0  0  0  0  0  0  0  0
   -3.9171    0.7144    0.2723 C   0  0  0  0  0  0  0  0  0  0  0  0
   -2.5922    1.0400   -0.0600 C   0  0  0  0  0  0  0  0  0  0  0  0
    4.0269   -0.7826   -2.4468 H   0  0  0  0  0  0  0  0  0  0  0  0
    3.8719   -2.2546   -3.3925 H   0  0  0  0  0  0  0  0  0  0  0  0
    2.4346   -1.2899   -3.0402 H   0  0  0  0  0  0  0  0  0  0  0  0
    2.6693   -3.4004   -1.6909 H   0  0  0  0  0  0  0  0  0  0  0  0
    4.3152   -3.4777    0.1769 H   0  0  0  0  0  0  0  0  0  0  0  0
    5.0757   -3.4780   -1.4203 H   0  0  0  0  0  0  0  0  0  0  0  0
    5.0858   -2.0071   -0.4449 H   0  0  0  0  0  0  0  0  0  0  0  0
    1.8628   -2.6046    0.3310 H   0  0  0  0  0  0  0  0  0  0  0  0
    1.2669   -1.5426   -0.9155 H   0  0  0  0  0  0  0  0  0  0  0  0
    3.5889   -0.9024    1.0164 H   0  0  0  0  0  0  0  0  0  0  0  0
    1.9314   -0.4208    1.2774 H   0  0  0  0  0  0  0  0  0  0  0  0
    4.9556    0.3855   -0.1155 H   0  0  0  0  0  0  0  0  0  0  0  0
    5.4675    2.5097   -1.3172 H   0  0  0  0  0  0  0  0  0  0  0  0
    3.5942    3.9335   -2.1211 H   0  0  0  0  0  0  0  0  0  0  0  0
    1.2643    3.2261   -1.6893 H   0  0  0  0  0  0  0  0  0  0  0  0
   -0.0082    0.3201   -1.1051 H   0  0  0  0  0  0  0  0  0  0  0  0
    0.2283    2.2243    1.3291 H   0  0  0  0  0  0  0  0  0  0  0  0
   -1.2905    1.0819    3.0709 H   0  0  0  0  0  0  0  0  0  0  0  0
   -3.5707    0.5301    3.6295 H   0  0  0  0  0  0  0  0  0  0  0  0
   -5.3396   -1.4107    3.2960 H   0  0  0  0  0  0  0  0  0  0  0  0
   -6.9743   -0.7410    3.3122 H   0  0  0  0  0  0  0  0  0  0  0  0
   -5.6817    0.1771    4.0531 H   0  0  0  0  0  0  0  0  0  0  0  0
   -6.3501   -0.9912    0.3124 H   0  0  0  0  0  0  0  0  0  0  0  0
   -6.7052    0.7590    0.1826 H   0  0  0  0  0  0  0  0  0  0  0  0
   -7.6240   -0.2412    1.2844 H   0  0  0  0  0  0  0  0  0  0  0  0
   -4.6254    0.6475   -0.5491 H   0  0  0  0  0  0  0  0  0  0  0  0
   -2.3560    1.2183   -1.1067 H   0  0  0  0  0  0  0  0  0  0  0  0
  1  2  1  0
  2  3  1  0
  2  4  1  0
  4  5  1  0
  5  6  1  0
  6  7  2  0
  7  8  1  0
  8  9  2  0
  9 10  1  0
 10 11  2  0
 11 12  1  0
 12 13  2  3
 13 14  1  0
 14 15  2  0
 15 16  1  0
 16 17  2  0
 17 18  1  0
 18 19  1  0
 18 20  1  0
 17 21  1  0
 21 22  2  0
 11  6  1  0
 22 14  1  0
  1 23  1  0
  1 24  1  0
  1 25  1  0
  2 26  1  0
  3 27  1  0
  3 28  1  0
  3 29  1  0
  4 30  1  0
  4 31  1  0
  5 32  1  0
  5 33  1  0
  7 34  1  0
  8 35  1  0
  9 36  1  0
 10 37  1  0
 12 38  1  0
 13 39  1  0
 15 40  1  0
 16 41  1  0
 19 42  1  0
 19 43  1  0
 19 44  1  0
 20 45  1  0
 20 46  1  0
 20 47  1  0
 21 48  1  0
 22 49  1  0
M  CHG  1   6   1
M  END
$$$$
