
     RDKit          3D

 61 66  0  0  0  0  0  0  0  0999 V2000
   -3.8629   -2.0733    1.5195 C   0  0  0  0  0  0  0  0  0  0  0  0
   -3.8077   -0.9236    0.5058 C   0  0  0  0  0  0  0  0  0  0  0  0
   -5.1792   -0.7186   -0.1442 C   0  0  0  0  0  0  0  0  0  0  0  0
   -2.6913   -1.1676   -0.5066 C   0  0  0  0  0  0  0  0  0  0  0  0
   -2.8381   -2.1989   -1.4547 C   0  0  0  0  0  0  0  0  0  0  0  0
   -1.7960   -2.5593   -2.3115 C   0  0  0  0  0  0  0  0  0  0  0  0
   -0.5682   -1.9138   -2.2286 C   0  0  0  0  0  0  0  0  0  0  0  0
   -0.3889   -0.8852   -1.3089 C   0  0  0  0  0  0  0  0  0  0  0  0
   -1.4475   -0.5006   -0.4677 C   0  0  0  0  0  0  0  0  0  0  0  0
   -1.2181    0.6020    0.3906 N   0  0  0  0  0  0  0  0  0  0  0  0
   -0.2823    0.7049    1.3998 C   0  0  0  0  0  0  0  0  0  0  0  0
    0.7813   -0.5731    1.8879 S   0  0  0  0  0  0  0  0  0  0  0  0
    2.1216    0.3598    2.6858 C   0  0  0  0  0  0  0  0  0  0  0  0
    2.9563    1.1337    1.6941 C   0  0  0  0  0  0  0  0  0  0  0  0
    2.8526    2.4750    1.7619 C   0  0  0  0  0  0  0  0  0  0  0  0
    3.5119    3.4124    0.8559 C   0  0  0  0  0  0  0  0  0  0  0  0
    3.4410    4.6223    1.0244 O   0  0  0  0  0  0  0  0  0  0  0  0
    4.1848    2.8456   -0.1993 O   0  0  0  0  0  0  0  0  0  0  0  0
    4.3645    1.4494   -0.2936 C   0  0  0  0  0  0  0  0  0  0  0  0
    5.1300    1.0773   -1.3945 C   0  0  0  0  0  0  0  0  0  0  0  0
    5.4207   -0.2578   -1.5936 C   0  0  0  0  0  0  0  0  0  0  0  0
    4.9850   -1.2208   -0.6826 C   0  0  0  0  0  0  0  0  0  0  0  0
    5.3474   -2.5545   -0.9384 C   0  0  0  0  0  0  0  0  0  0  0  0
    4.9901   -3.5784   -0.0746 C   0  0  0  0  0  0  0  0  0  0  0  0
    4.2814   -3.2708    1.0717 C   0  0  0  0  0  0  0  0  0  0  0  0
    3.9158   -1.9442    1.3371 C   0  0  0  0  0  0  0  0  0  0  0  0
    4.2150   -0.8568    0.4688 C   0  0  0  0  0  0  0  0  0  0  0  0
    3.8469    0.5326    0.6474 C   0  0  0  0  0  0  0  0  0  0  0  0
   -0.3977    1.8598    2.0084 N   0  0  0  0  0  0  0  0  0  0  0  0
   -1.3884    2.5639    1.3803 N   0  0  0  0  0  0  0  0  0  0  0  0
   -1.8569    1.8409    0.3772 C   0  0  0  0  0  0  0  0  0  0  0  0
   -2.8661    2.3137   -0.5689 C   0  0  0  0  0  0  0  0  0  0  0  0
   -2.8256    2.0477   -1.9413 C   0  0  0  0  0  0  0  0  0  0  0  0
   -3.8256    2.5430   -2.7776 C   0  0  0  0  0  0  0  0  0  0  0  0
   -4.8375    3.3035   -2.2169 C   0  0  0  0  0  0  0  0  0  0  0  0
   -4.9084    3.5955   -0.9020 N   0  0  0  0  0  0  0  0  0  0  0  0
   -3.9171    3.1067   -0.1153 C   0  0  0  0  0  0  0  0  0  0  0  0
   -4.1339   -3.0232    1.0468 H   0  0  0  0  0  0  0  0  0  0  0  0
   -4.6045   -1.8657    2.2973 H   0  0  0  0  0  0  0  0  0  0  0  0
   -2.8926   -2.2110    2.0085 H   0  0  0  0  0  0  0  0  0  0  0  0
   -3.6041   -0.0179    1.0816 H   0  0  0  0  0  0  0  0  0  0  0  0
   -5.9146   -0.4232    0.6113 H   0  0  0  0  0  0  0  0  0  0  0  0
   -5.5518   -1.6314   -0.6218 H   0  0  0  0  0  0  0  0  0  0  0  0
   -5.1456    0.0677   -0.9042 H   0  0  0  0  0  0  0  0  0  0  0  0
   -3.7676   -2.7616   -1.5187 H   0  0  0  0  0  0  0  0  0  0  0  0
   -1.9383   -3.3656   -3.0273 H   0  0  0  0  0  0  0  0  0  0  0  0
    0.2487   -2.2107   -2.8807 H   0  0  0  0  0  0  0  0  0  0  0  0
    0.5731   -0.3788   -1.2758 H   0  0  0  0  0  0  0  0  0  0  0  0
    2.7475   -0.2912    3.2996 H   0  0  0  0  0  0  0  0  0  0  0  0
    1.6575    1.0244    3.4260 H   0  0  0  0  0  0  0  0  0  0  0  0
    2.2191    2.9667    2.4963 H   0  0  0  0  0  0  0  0  0  0  0  0
    5.4998    1.8287   -2.0873 H   0  0  0  0  0  0  0  0  0  0  0  0
    6.0156   -0.5357   -2.4622 H   0  0  0  0  0  0  0  0  0  0  0  0
    5.9282   -2.8109   -1.8224 H   0  0  0  0  0  0  0  0  0  0  0  0
    5.2769   -4.6036   -0.2879 H   0  0  0  0  0  0  0  0  0  0  0  0
    4.0111   -4.0564    1.7733 H   0  0  0  0  0  0  0  0  0  0  0  0
    3.3971   -1.8047    2.2750 H   0  0  0  0  0  0  0  0  0  0  0  0
   -2.0201    1.4699   -2.3837 H   0  0  0  0  0  0  0  0  0  0  0  0
   -3.8083    2.3465   -3.8450 H   0  0  0  0  0  0  0  0  0  0  0  0
   -5.6354    3.7144   -2.8293 H   0  0  0  0  0  0  0  0  0  0  0  0
   -4.0009    3.3809    0.9350 H   0  0  0  0  0  0  0  0  0  0  0  0
  1  2  1  0
  2  3  1  0
  2  4  1  0
  4  5  2  0
  5  6  1  0
  6  7  2  0
  7  8  1  0
  8  9  2  0
  9 10  1  0
 10 11  1  0
 11 12  1  0
 12 13  1  0
 13 14  1  0
 14 15  2  0
 15 16  1  0
 16 17  2  0
 16 18  1  0
 18 19  1  0
 19 20  2  0
 20 21  1  0
 21 22  2  0
 22 23  1  0
 23 24  2  0
 24 25  1  0
 25 26  2  0
 26 27  1  0
 27 28  2  0
 11 29  2  0
 29 30  1  0
 30 31  2  0
 31 32  1  0
 32 33  2  0
 33 34  1  0
 34 35  2  0
 35 36  1  0
 36 37  2  0
  9  4  1  0
 31 10  1  0
 37 32  1  0
 28 14  1  0
 28 19  1  0
 27 22  1  0
  1 38  1  0
  1 39  1  0
  1 40  1  0
  2 41  1  0
  3 42  1  0
  3 43  1  0
  3 44  1  0
  5 45  1  0
  6 46  1  0
  7 47  1  0
  8 48  1  0
 13 49  1  0
 13 50  1  0
 15 51  1  0
 20 52  1  0
 21 53  1  0
 23 54  1  0
 24 55  1  0
 25 56  1  0
 26 57  1  0
 33 58  1  0
 34 59  1  0
 35 60  1  0
 37 61  1  0
M  END
$$$$
