
     RDKit          3D

 21 21  0  0  0  0  0  0  0  0999 V2000
    3.0669   -0.3045   -0.4458 C   0  0  0  0  0  0  0  0  0  0  0  0
    1.5965   -0.0304   -0.2839 C   0  0  0  0  0  0  0  0  0  0  0  0
    1.0971    1.2184   -0.6638 C   0  0  0  0  0  0  0  0  0  0  0  0
   -0.2526    1.4917   -0.5068 C   0  0  0  0  0  0  0  0  0  0  0  0
   -0.7264    2.6888   -0.9745 O   0  0  0  0  0  0  0  0  0  0  0  0
   -1.1430    0.5764    0.0776 C   0  0  0  0  0  0  0  0  0  0  0  0
   -2.5013    0.9588    0.1988 N   0  0  0  0  0  0  0  0  0  0  0  0
   -0.6875   -0.7273    0.3495 C   0  0  0  0  0  0  0  0  0  0  0  0
   -1.6371   -1.7864    0.8507 C   0  0  0  0  0  0  0  0  0  0  0  0
    0.6981   -1.0010    0.2114 C   0  0  0  0  0  0  0  0  0  0  0  0
    1.3257   -2.5584    0.6708 Cl  0  0  0  0  0  0  0  0  0  0  0  0
    3.5163   -0.5680    0.5170 H   0  0  0  0  0  0  0  0  0  0  0  0
    3.2275   -1.1156   -1.1633 H   0  0  0  0  0  0  0  0  0  0  0  0
    3.6001    0.5756   -0.8214 H   0  0  0  0  0  0  0  0  0  0  0  0
    1.7456    1.9758   -1.0958 H   0  0  0  0  0  0  0  0  0  0  0  0
   -1.6611    2.5079   -1.1913 H   0  0  0  0  0  0  0  0  0  0  0  0
   -3.0191    0.3691    0.8445 H   0  0  0  0  0  0  0  0  0  0  0  0
   -2.5754    1.9284    0.5068 H   0  0  0  0  0  0  0  0  0  0  0  0
   -1.6655   -1.7763    1.9445 H   0  0  0  0  0  0  0  0  0  0  0  0
   -1.3537   -2.7858    0.5071 H   0  0  0  0  0  0  0  0  0  0  0  0
   -2.6514   -1.6372    0.4678 H   0  0  0  0  0  0  0  0  0  0  0  0
  1  2  1  0
  2  3  2  0
  3  4  1  0
  4  5  1  0
  4  6  2  0
  6  7  1  0
  6  8  1  0
  8  9  1  0
  8 10  2  0
 10 11  1  0
 10  2  1  0
  1 12  1  0
  1 13  1  0
  1 14  1  0
  3 15  1  0
  5 16  1  0
  7 17  1  0
  7 18  1  0
  9 19  1  0
  9 20  1  0
  9 21  1  0
M  END
$$$$
