
     RDKit          3D

 59 62  0  0  0  0  0  0  0  0999 V2000
    9.4741   -0.4264    1.2029 C   0  0  0  0  0  0  0  0  0  0  0  0
    8.0248   -0.0633    1.0731 C   0  0  0  0  0  0  0  0  0  0  0  0
    7.4725    0.2085   -0.1811 C   0  0  0  0  0  0  0  0  0  0  0  0
    6.1137    0.5128   -0.3062 C   0  0  0  0  0  0  0  0  0  0  0  0
    5.2804    0.5571    0.8240 C   0  0  0  0  0  0  0  0  0  0  0  0
    3.8961    0.8690    0.6486 N   0  0  0  0  0  0  0  0  0  0  0  0
    3.3636    0.7851   -0.6008 N   0  0  0  0  0  0  0  0  0  0  0  0
    2.0451    0.8941   -0.4237 C   0  0  0  0  0  0  0  0  0  0  0  0
    1.0210    0.7831   -1.4540 C   0  0  0  0  0  0  0  0  0  0  0  0
    1.2605    0.5354   -2.6344 O   0  0  0  0  0  0  0  0  0  0  0  0
   -0.2755    1.0212   -0.9560 N   0  0  0  0  0  0  0  0  0  0  0  0
   -1.4024    0.8400   -1.8556 C   0  0  0  0  0  0  0  0  0  0  0  0
   -1.8948   -0.6081   -1.8206 C   0  0  0  0  0  0  0  0  0  0  0  0
   -1.2583   -1.5451   -1.3453 O   0  0  0  0  0  0  0  0  0  0  0  0
   -3.1397   -0.7756   -2.4042 N   0  0  0  0  0  0  0  0  0  0  0  0
   -3.8328   -2.0500   -2.3406 C   0  0  0  0  0  0  0  0  0  0  0  0
   -4.4504   -2.3375   -0.9652 C   0  0  0  0  0  0  0  0  0  0  0  0
   -5.4754   -1.3008   -0.5461 C   0  0  0  0  0  0  0  0  0  0  0  0
   -5.0433   -0.2192    0.2446 C   0  0  0  0  0  0  0  0  0  0  0  0
   -5.9287    0.7829    0.6367 C   0  0  0  0  0  0  0  0  0  0  0  0
   -7.2613    0.7184    0.2472 C   0  0  0  0  0  0  0  0  0  0  0  0
   -7.7083   -0.3497   -0.5306 C   0  0  0  0  0  0  0  0  0  0  0  0
   -6.8288   -1.3674   -0.9370 C   0  0  0  0  0  0  0  0  0  0  0  0
   -7.3702   -2.5093   -1.7531 C   0  0  0  0  0  0  0  0  0  0  0  0
   -0.5931    1.3090    0.3787 N   0  0  0  0  0  0  0  0  0  0  0  0
    0.3411    1.3814    1.2858 C   0  0  0  0  0  0  0  0  0  0  0  0
   -0.0640    1.6742    2.7025 C   0  0  0  0  0  0  0  0  0  0  0  0
    1.7188    1.1867    0.9049 C   0  0  0  0  0  0  0  0  0  0  0  0
    2.9272    1.2714    1.5770 C   0  0  0  0  0  0  0  0  0  0  0  0
    3.2200    1.7400    2.9560 C   0  0  0  0  0  0  0  0  0  0  0  0
    5.8271    0.2441    2.0729 C   0  0  0  0  0  0  0  0  0  0  0  0
    7.1887   -0.0617    2.1941 C   0  0  0  0  0  0  0  0  0  0  0  0
   10.0737    0.0820    0.4405 H   0  0  0  0  0  0  0  0  0  0  0  0
    9.6008   -1.5076    1.0905 H   0  0  0  0  0  0  0  0  0  0  0  0
    9.8665   -0.1234    2.1794 H   0  0  0  0  0  0  0  0  0  0  0  0
    8.0925    0.1831   -1.0747 H   0  0  0  0  0  0  0  0  0  0  0  0
    5.7196    0.7218   -1.3002 H   0  0  0  0  0  0  0  0  0  0  0  0
   -1.1157    1.0842   -2.8836 H   0  0  0  0  0  0  0  0  0  0  0  0
   -2.2086    1.5134   -1.5445 H   0  0  0  0  0  0  0  0  0  0  0  0
   -3.7113    0.0451   -2.5639 H   0  0  0  0  0  0  0  0  0  0  0  0
   -3.1208   -2.8444   -2.5912 H   0  0  0  0  0  0  0  0  0  0  0  0
   -4.5994   -2.0284   -3.1213 H   0  0  0  0  0  0  0  0  0  0  0  0
   -3.6616   -2.3906   -0.2037 H   0  0  0  0  0  0  0  0  0  0  0  0
   -4.9104   -3.3322   -0.9715 H   0  0  0  0  0  0  0  0  0  0  0  0
   -4.0034   -0.1558    0.5627 H   0  0  0  0  0  0  0  0  0  0  0  0
   -5.5782    1.6091    1.2493 H   0  0  0  0  0  0  0  0  0  0  0  0
   -7.9568    1.4949    0.5545 H   0  0  0  0  0  0  0  0  0  0  0  0
   -8.7580   -0.3853   -0.8153 H   0  0  0  0  0  0  0  0  0  0  0  0
   -6.8322   -2.5974   -2.7010 H   0  0  0  0  0  0  0  0  0  0  0  0
   -8.4287   -2.3640   -1.9948 H   0  0  0  0  0  0  0  0  0  0  0  0
   -7.2865   -3.4468   -1.1947 H   0  0  0  0  0  0  0  0  0  0  0  0
    0.4323    0.9841    3.3897 H   0  0  0  0  0  0  0  0  0  0  0  0
   -1.1461    1.5614    2.8188 H   0  0  0  0  0  0  0  0  0  0  0  0
    0.2056    2.7035    2.9532 H   0  0  0  0  0  0  0  0  0  0  0  0
    3.1750    0.9094    3.6664 H   0  0  0  0  0  0  0  0  0  0  0  0
    4.1959    2.2295    3.0244 H   0  0  0  0  0  0  0  0  0  0  0  0
    2.4941    2.4932    3.2749 H   0  0  0  0  0  0  0  0  0  0  0  0
    5.2240    0.1746    2.9698 H   0  0  0  0  0  0  0  0  0  0  0  0
    7.5903   -0.3139    3.1736 H   0  0  0  0  0  0  0  0  0  0  0  0
  1  2  1  0
  2  3  2  0
  3  4  1  0
  4  5  2  0
  5  6  1  0
  6  7  1  0
  7  8  2  0
  8  9  1  0
  9 10  2  0
  9 11  1  0
 11 12  1  0
 12 13  1  0
 13 14  2  0
 13 15  1  0
 15 16  1  0
 16 17  1  0
 17 18  1  0
 18 19  2  0
 19 20  1  0
 20 21  2  0
 21 22  1  0
 22 23  2  0
 23 24  1  0
 11 25  1  0
 25 26  2  0
 26 27  1  0
 26 28  1  0
 28 29  2  0
 29 30  1  0
  5 31  1  0
 31 32  2  0
 32  2  1  0
 29  6  1  0
 28  8  1  0
 23 18  1  0
  1 33  1  0
  1 34  1  0
  1 35  1  0
  3 36  1  0
  4 37  1  0
 12 38  1  0
 12 39  1  0
 15 40  1  0
 16 41  1  0
 16 42  1  0
 17 43  1  0
 17 44  1  0
 19 45  1  0
 20 46  1  0
 21 47  1  0
 22 48  1  0
 24 49  1  0
 24 50  1  0
 24 51  1  0
 27 52  1  0
 27 53  1  0
 27 54  1  0
 30 55  1  0
 30 56  1  0
 30 57  1  0
 31 58  1  0
 32 59  1  0
M  END
$$$$
