
     RDKit          3D

 54 57  0  0  0  0  0  0  0  0999 V2000
   -6.9889    2.2408   -1.7624 C   0  0  0  0  0  0  0  0  0  0  0  0
   -5.9312    1.9466   -0.7415 C   0  0  0  0  0  0  0  0  0  0  0  0
   -6.0271    2.4607    0.5515 C   0  0  0  0  0  0  0  0  0  0  0  0
   -5.0305    2.1942    1.4909 C   0  0  0  0  0  0  0  0  0  0  0  0
   -3.9084    1.4167    1.1563 C   0  0  0  0  0  0  0  0  0  0  0  0
   -2.8818    1.1467    2.2249 C   0  0  0  0  0  0  0  0  0  0  0  0
   -3.7685    0.9303   -0.1639 C   0  0  0  0  0  0  0  0  0  0  0  0
   -2.6006    0.1579   -0.6170 C   0  0  0  0  0  0  0  0  0  0  0  0
   -1.3214    0.6810   -0.6121 C   0  0  0  0  0  0  0  0  0  0  0  0
   -0.2785   -0.1300   -1.0543 C   0  0  0  0  0  0  0  0  0  0  0  0
    1.0806    0.4505   -0.9718 C   0  0  0  0  0  0  0  0  0  0  0  0
    1.3002    1.4663   -1.6158 O   0  0  0  0  0  0  0  0  0  0  0  0
    1.9149   -0.2352   -0.1139 N   0  0  0  0  0  0  0  0  0  0  0  0
    3.2242    0.0784    0.2233 C   0  0  0  0  0  0  0  0  0  0  0  0
    4.0135    1.4111   -0.4495 S   0  0  0  0  0  0  0  0  0  0  0  0
    5.4213    1.1497    0.4716 C   0  0  0  0  0  0  0  0  0  0  0  0
    6.5677    2.0998    0.3366 C   0  0  0  0  0  0  0  0  0  0  0  0
    5.3101    0.0375    1.2953 C   0  0  0  0  0  0  0  0  0  0  0  0
    6.3749   -0.3759    2.2651 C   0  0  0  0  0  0  0  0  0  0  0  0
    4.0307   -0.6352    1.1019 C   0  0  0  0  0  0  0  0  0  0  0  0
    3.5435   -1.8702    1.7230 C   0  0  0  0  0  0  0  0  0  0  0  0
    4.4831   -2.7747    2.1231 N   0  0  0  0  0  0  0  0  0  0  0  0
    2.3496   -2.1464    1.8172 O   0  0  0  0  0  0  0  0  0  0  0  0
   -0.5184   -1.4321   -1.5437 C   0  0  0  0  0  0  0  0  0  0  0  0
    0.4721   -2.3020   -2.0683 C   0  0  0  0  0  0  0  0  0  0  0  0
    0.1404   -3.5761   -2.5252 C   0  0  0  0  0  0  0  0  0  0  0  0
   -1.1806   -3.9967   -2.4732 C   0  0  0  0  0  0  0  0  0  0  0  0
   -2.1611   -3.1369   -1.9732 C   0  0  0  0  0  0  0  0  0  0  0  0
   -1.8579   -1.8626   -1.5132 C   0  0  0  0  0  0  0  0  0  0  0  0
   -2.8632   -1.0950   -1.0614 N   0  0  0  0  0  0  0  0  0  0  0  0
   -4.7997    1.1974   -1.0888 C   0  0  0  0  0  0  0  0  0  0  0  0
   -7.9640    2.3856   -1.2856 H   0  0  0  0  0  0  0  0  0  0  0  0
   -7.0933    1.4100   -2.4671 H   0  0  0  0  0  0  0  0  0  0  0  0
   -6.7309    3.1466   -2.3187 H   0  0  0  0  0  0  0  0  0  0  0  0
   -6.8838    3.0648    0.8414 H   0  0  0  0  0  0  0  0  0  0  0  0
   -5.1391    2.5950    2.4967 H   0  0  0  0  0  0  0  0  0  0  0  0
   -3.3052    1.2934    3.2245 H   0  0  0  0  0  0  0  0  0  0  0  0
   -2.0308    1.8255    2.1136 H   0  0  0  0  0  0  0  0  0  0  0  0
   -2.5332    0.1096    2.1838 H   0  0  0  0  0  0  0  0  0  0  0  0
   -1.1310    1.6948   -0.2734 H   0  0  0  0  0  0  0  0  0  0  0  0
    1.5273   -1.0301    0.3953 H   0  0  0  0  0  0  0  0  0  0  0  0
    7.4878    1.5540    0.0977 H   0  0  0  0  0  0  0  0  0  0  0  0
    6.7201    2.6425    1.2752 H   0  0  0  0  0  0  0  0  0  0  0  0
    6.4079    2.8401   -0.4551 H   0  0  0  0  0  0  0  0  0  0  0  0
    7.0233    0.4643    2.5334 H   0  0  0  0  0  0  0  0  0  0  0  0
    7.0032   -1.1584    1.8293 H   0  0  0  0  0  0  0  0  0  0  0  0
    5.9362   -0.7450    3.1971 H   0  0  0  0  0  0  0  0  0  0  0  0
    4.1237   -3.6842    2.3824 H   0  0  0  0  0  0  0  0  0  0  0  0
    5.4143   -2.7441    1.7367 H   0  0  0  0  0  0  0  0  0  0  0  0
    1.5113   -1.9863   -2.1399 H   0  0  0  0  0  0  0  0  0  0  0  0
    0.9096   -4.2328   -2.9248 H   0  0  0  0  0  0  0  0  0  0  0  0
   -1.4573   -4.9870   -2.8263 H   0  0  0  0  0  0  0  0  0  0  0  0
   -3.1968   -3.4698   -1.9444 H   0  0  0  0  0  0  0  0  0  0  0  0
   -4.7083    0.8089   -2.1033 H   0  0  0  0  0  0  0  0  0  0  0  0
  1  2  1  0
  2  3  2  0
  3  4  1  0
  4  5  2  0
  5  6  1  0
  5  7  1  0
  7  8  1  0
  8  9  2  0
  9 10  1  0
 10 11  1  0
 11 12  2  0
 11 13  1  0
 13 14  1  0
 14 15  1  0
 15 16  1  0
 16 17  1  0
 16 18  2  0
 18 19  1  0
 18 20  1  0
 20 21  1  0
 21 22  1  0
 21 23  2  0
 10 24  2  0
 24 25  1  0
 25 26  2  0
 26 27  1  0
 27 28  2  0
 28 29  1  0
 29 30  2  0
  7 31  2  0
 31  2  1  0
 30  8  1  0
 20 14  2  0
 29 24  1  0
  1 32  1  0
  1 33  1  0
  1 34  1  0
  3 35  1  0
  4 36  1  0
  6 37  1  0
  6 38  1  0
  6 39  1  0
  9 40  1  0
 13 41  1  0
 17 42  1  0
 17 43  1  0
 17 44  1  0
 19 45  1  0
 19 46  1  0
 19 47  1  0
 22 48  1  0
 22 49  1  0
 25 50  1  0
 26 51  1  0
 27 52  1  0
 28 53  1  0
 31 54  1  0
M  END
$$$$
