
     RDKit          3D

 57 60  0  0  0  0  0  0  0  0999 V2000
   -7.4813    1.7937    2.9420 C   0  0  0  0  0  0  0  0  0  0  0  0
   -6.5685    0.7014    2.9351 O   0  0  0  0  0  0  0  0  0  0  0  0
   -5.5054    0.7905    2.0780 C   0  0  0  0  0  0  0  0  0  0  0  0
   -5.2534    1.8382    1.1931 C   0  0  0  0  0  0  0  0  0  0  0  0
   -4.1270    1.8073    0.3624 C   0  0  0  0  0  0  0  0  0  0  0  0
   -3.2444    0.7292    0.4126 C   0  0  0  0  0  0  0  0  0  0  0  0
   -2.0829    0.6199   -0.3836 N   0  0  0  0  0  0  0  0  0  0  0  0
   -1.5881    1.5072   -1.3158 C   0  0  0  0  0  0  0  0  0  0  0  0
   -2.1319    2.5586   -1.6543 O   0  0  0  0  0  0  0  0  0  0  0  0
   -0.3151    1.0679   -2.0224 C   0  0  0  0  0  0  0  0  0  0  0  0
    0.6231    0.3377   -1.1794 N   0  0  0  0  0  0  0  0  0  0  0  0
    1.5419    0.9375   -0.3607 C   0  0  0  0  0  0  0  0  0  0  0  0
    2.2481   -0.0583    0.2812 C   0  0  0  0  0  0  0  0  0  0  0  0
    3.5653    0.1797    1.3746 S   0  0  0  0  0  6  0  0  0  0  0  0
    3.3114   -0.7570    2.4542 O   0  0  0  0  0  0  0  0  0  0  0  0
    3.6089    1.6095    1.6189 O   0  0  0  0  0  0  0  0  0  0  0  0
    5.0256   -0.3436    0.4909 C   0  0  0  0  0  0  0  0  0  0  0  0
    5.1291    0.3227   -0.8562 C   0  0  0  0  0  0  0  0  0  0  0  0
    5.5405    1.6584   -0.9669 C   0  0  0  0  0  0  0  0  0  0  0  0
    5.6231    2.2731   -2.2167 C   0  0  0  0  0  0  0  0  0  0  0  0
    5.3000    1.5603   -3.3690 C   0  0  0  0  0  0  0  0  0  0  0  0
    4.8951    0.2312   -3.2734 C   0  0  0  0  0  0  0  0  0  0  0  0
    4.8121   -0.3864   -2.0250 C   0  0  0  0  0  0  0  0  0  0  0  0
    1.7346   -1.3140   -0.1517 C   0  0  0  0  0  0  0  0  0  0  0  0
    2.0244   -2.6631    0.1487 C   0  0  0  0  0  0  0  0  0  0  0  0
    1.3191   -3.6865   -0.4918 C   0  0  0  0  0  0  0  0  0  0  0  0
    0.3331   -3.3874   -1.4246 C   0  0  0  0  0  0  0  0  0  0  0  0
    0.0203   -2.0626   -1.7396 C   0  0  0  0  0  0  0  0  0  0  0  0
    0.7315   -1.0385   -1.0911 C   0  0  0  0  0  0  0  0  0  0  0  0
   -3.4942   -0.3301    1.3096 C   0  0  0  0  0  0  0  0  0  0  0  0
   -2.5721   -1.3513    1.2811 O   0  0  0  0  0  0  0  0  0  0  0  0
   -2.6586   -2.3268    2.3124 C   0  0  0  0  0  0  0  0  0  0  0  0
   -4.6233   -0.2933    2.1314 C   0  0  0  0  0  0  0  0  0  0  0  0
   -6.9845    2.7227    3.2440 H   0  0  0  0  0  0  0  0  0  0  0  0
   -7.9722    1.9046    1.9687 H   0  0  0  0  0  0  0  0  0  0  0  0
   -8.2567    1.5753    3.6822 H   0  0  0  0  0  0  0  0  0  0  0  0
   -5.9111    2.6980    1.1189 H   0  0  0  0  0  0  0  0  0  0  0  0
   -3.9675    2.6441   -0.3102 H   0  0  0  0  0  0  0  0  0  0  0  0
   -1.5556   -0.2268   -0.1797 H   0  0  0  0  0  0  0  0  0  0  0  0
   -0.5746    0.4498   -2.8867 H   0  0  0  0  0  0  0  0  0  0  0  0
    0.2131    1.9568   -2.3867 H   0  0  0  0  0  0  0  0  0  0  0  0
    1.6344    2.0161   -0.2990 H   0  0  0  0  0  0  0  0  0  0  0  0
    5.8924   -0.0948    1.1120 H   0  0  0  0  0  0  0  0  0  0  0  0
    4.9888   -1.4337    0.3960 H   0  0  0  0  0  0  0  0  0  0  0  0
    5.7894    2.2376   -0.0787 H   0  0  0  0  0  0  0  0  0  0  0  0
    5.9372    3.3112   -2.2898 H   0  0  0  0  0  0  0  0  0  0  0  0
    5.3642    2.0411   -4.3414 H   0  0  0  0  0  0  0  0  0  0  0  0
    4.6424   -0.3256   -4.1721 H   0  0  0  0  0  0  0  0  0  0  0  0
    4.4890   -1.4247   -1.9762 H   0  0  0  0  0  0  0  0  0  0  0  0
    2.7787   -2.9189    0.8892 H   0  0  0  0  0  0  0  0  0  0  0  0
    1.5405   -4.7238   -0.2510 H   0  0  0  0  0  0  0  0  0  0  0  0
   -0.2093   -4.1957   -1.9109 H   0  0  0  0  0  0  0  0  0  0  0  0
   -0.7611   -1.8497   -2.4632 H   0  0  0  0  0  0  0  0  0  0  0  0
   -2.5930   -1.8658    3.3033 H   0  0  0  0  0  0  0  0  0  0  0  0
   -3.5702   -2.9238    2.2121 H   0  0  0  0  0  0  0  0  0  0  0  0
   -1.8055   -3.0029    2.2022 H   0  0  0  0  0  0  0  0  0  0  0  0
   -4.8496   -1.0965    2.8245 H   0  0  0  0  0  0  0  0  0  0  0  0
  1  2  1  0
  2  3  1  0
  3  4  2  0
  4  5  1  0
  5  6  2  0
  6  7  1  0
  7  8  1  0
  8  9  2  0
  8 10  1  0
 10 11  1  0
 11 12  1  0
 12 13  2  0
 13 14  1  0
 14 15  2  0
 14 16  2  0
 14 17  1  0
 17 18  1  0
 18 19  2  0
 19 20  1  0
 20 21  2  0
 21 22  1  0
 22 23  2  0
 13 24  1  0
 24 25  2  0
 25 26  1  0
 26 27  2  0
 27 28  1  0
 28 29  2  0
  6 30  1  0
 30 31  1  0
 31 32  1  0
 30 33  2  0
 33  3  1  0
 29 11  1  0
 23 18  1  0
 29 24  1  0
  1 34  1  0
  1 35  1  0
  1 36  1  0
  4 37  1  0
  5 38  1  0
  7 39  1  0
 10 40  1  0
 10 41  1  0
 12 42  1  0
 17 43  1  0
 17 44  1  0
 19 45  1  0
 20 46  1  0
 21 47  1  0
 22 48  1  0
 23 49  1  0
 25 50  1  0
 26 51  1  0
 27 52  1  0
 28 53  1  0
 32 54  1  0
 32 55  1  0
 32 56  1  0
 33 57  1  0
M  END
$$$$
