
     RDKit          3D

 46 48  0  0  0  0  0  0  0  0999 V2000
   -3.3091    1.4804   -0.3350 C   0  0  0  0  0  0  0  0  0  0  0  0
   -2.7287    0.6844    0.8191 C   0  0  0  0  0  0  0  0  0  0  0  0
   -2.7386   -0.7733    0.4903 N   0  0  0  0  0  4  0  0  0  0  0  0
   -1.6164   -1.3421   -0.0457 C   0  0  0  0  0  0  0  0  0  0  0  0
   -0.4469   -0.5272   -0.3976 C   0  0  0  0  0  0  0  0  0  0  0  0
    0.7225   -0.6375    0.2532 C   0  0  0  0  0  0  0  0  0  0  0  0
    1.9217    0.1408   -0.0874 C   0  0  0  0  0  0  0  0  0  0  0  0
    3.1759   -0.4468    0.0720 C   0  0  0  0  0  0  0  0  0  0  0  0
    4.3476    0.2681   -0.2238 C   0  0  0  0  0  0  0  0  0  0  0  0
    4.3256    1.6001   -0.6686 C   0  0  0  0  0  0  0  0  0  0  0  0
    5.4919    2.3002   -0.9852 N   0  0  0  0  0  0  0  0  0  0  0  0
    5.4422    3.7550   -1.1266 C   0  0  0  0  0  0  0  0  0  0  0  0
    6.7917    1.7481   -0.6038 C   0  0  0  0  0  0  0  0  0  0  0  0
    3.0495    2.1697   -0.8140 C   0  0  0  0  0  0  0  0  0  0  0  0
    1.8701    1.4644   -0.5229 C   0  0  0  0  0  0  0  0  0  0  0  0
   -1.5641   -2.7122   -0.3043 C   0  0  0  0  0  0  0  0  0  0  0  0
   -2.6526   -3.5145   -0.0206 C   0  0  0  0  0  0  0  0  0  0  0  0
   -3.8015   -2.9418    0.5096 C   0  0  0  0  0  0  0  0  0  0  0  0
   -4.9125   -3.7525    0.7862 C   0  0  0  0  0  0  0  0  0  0  0  0
   -6.0800   -3.2035    1.3078 C   0  0  0  0  0  0  0  0  0  0  0  0
   -6.1502   -1.8396    1.5544 C   0  0  0  0  0  0  0  0  0  0  0  0
   -5.0494   -1.0188    1.2851 C   0  0  0  0  0  0  0  0  0  0  0  0
   -3.8483   -1.5425    0.7647 C   0  0  0  0  0  0  0  0  0  0  0  0
   -2.7321    1.3308   -1.2524 H   0  0  0  0  0  0  0  0  0  0  0  0
   -4.3419    1.1893   -0.5474 H   0  0  0  0  0  0  0  0  0  0  0  0
   -3.2999    2.5488   -0.0985 H   0  0  0  0  0  0  0  0  0  0  0  0
   -1.7073    1.0051    1.0422 H   0  0  0  0  0  0  0  0  0  0  0  0
   -3.2798    0.8431    1.7500 H   0  0  0  0  0  0  0  0  0  0  0  0
   -0.5715    0.1534   -1.2355 H   0  0  0  0  0  0  0  0  0  0  0  0
    0.8502   -1.3467    1.0705 H   0  0  0  0  0  0  0  0  0  0  0  0
    3.2733   -1.4747    0.4148 H   0  0  0  0  0  0  0  0  0  0  0  0
    5.2879   -0.2603   -0.0938 H   0  0  0  0  0  0  0  0  0  0  0  0
    4.7929    4.0494   -1.9580 H   0  0  0  0  0  0  0  0  0  0  0  0
    5.0931    4.2275   -0.2018 H   0  0  0  0  0  0  0  0  0  0  0  0
    6.4304    4.1694   -1.3557 H   0  0  0  0  0  0  0  0  0  0  0  0
    6.8716    1.6488    0.4843 H   0  0  0  0  0  0  0  0  0  0  0  0
    6.9628    0.7749   -1.0764 H   0  0  0  0  0  0  0  0  0  0  0  0
    7.6126    2.3923   -0.9387 H   0  0  0  0  0  0  0  0  0  0  0  0
    2.9364    3.1911   -1.1660 H   0  0  0  0  0  0  0  0  0  0  0  0
    0.9249    1.9845   -0.6447 H   0  0  0  0  0  0  0  0  0  0  0  0
   -0.6709   -3.1610   -0.7382 H   0  0  0  0  0  0  0  0  0  0  0  0
   -2.5969   -4.5830   -0.2274 H   0  0  0  0  0  0  0  0  0  0  0  0
   -4.8844   -4.8258    0.5961 H   0  0  0  0  0  0  0  0  0  0  0  0
   -6.9371   -3.8421    1.5174 H   0  0  0  0  0  0  0  0  0  0  0  0
   -7.0680   -1.4116    1.9563 H   0  0  0  0  0  0  0  0  0  0  0  0
   -5.1866    0.0380    1.4915 H   0  0  0  0  0  0  0  0  0  0  0  0
  1  2  1  0
  2  3  1  0
  3  4  2  0
  4  5  1  0
  5  6  2  3
  6  7  1  0
  7  8  2  0
  8  9  1  0
  9 10  2  0
 10 11  1  0
 11 12  1  0
 11 13  1  0
 10 14  1  0
 14 15  2  0
  4 16  1  0
 16 17  2  0
 17 18  1  0
 18 19  2  0
 19 20  1  0
 20 21  2  0
 21 22  1  0
 22 23  2  0
 23  3  1  0
 15  7  1  0
 23 18  1  0
  1 24  1  0
  1 25  1  0
  1 26  1  0
  2 27  1  0
  2 28  1  0
  5 29  1  0
  6 30  1  0
  8 31  1  0
  9 32  1  0
 12 33  1  0
 12 34  1  0
 12 35  1  0
 13 36  1  0
 13 37  1  0
 13 38  1  0
 14 39  1  0
 15 40  1  0
 16 41  1  0
 17 42  1  0
 19 43  1  0
 20 44  1  0
 21 45  1  0
 22 46  1  0
M  CHG  1   3   1
M  END
$$$$
