
     RDKit          3D

 46 49  0  0  0  0  0  0  0  0999 V2000
    2.8189   -1.1405    0.4578 O   0  0  0  0  0  0  0  0  0  0  0  0
    1.8654   -0.4045    0.6937 C   0  0  0  0  0  0  0  0  0  0  0  0
    0.5316   -0.9759    1.1300 C   0  0  0  0  0  0  0  0  0  0  0  0
   -0.1466   -1.6757    0.0541 N   0  0  0  0  0  0  0  0  0  0  0  0
   -0.7760   -1.1098   -1.0398 C   0  0  0  0  0  0  0  0  0  0  0  0
   -0.7710    0.3434   -1.3999 C   0  0  0  0  0  0  0  0  0  0  0  0
   -1.0463    1.1470   -0.2470 O   0  0  0  0  0  0  0  0  0  0  0  0
   -2.3578    1.3939    0.0604 C   0  0  0  0  0  0  0  0  0  0  0  0
   -2.5583    2.4112    0.9982 C   0  0  0  0  0  0  0  0  0  0  0  0
   -3.8467    2.7538    1.4126 C   0  0  0  0  0  0  0  0  0  0  0  0
   -4.9456    2.0731    0.8959 C   0  0  0  0  0  0  0  0  0  0  0  0
   -4.7531    1.0507   -0.0307 C   0  0  0  0  0  0  0  0  0  0  0  0
   -3.4626    0.7089   -0.4470 C   0  0  0  0  0  0  0  0  0  0  0  0
   -1.3748   -2.0395   -1.7617 N   0  0  0  0  0  0  0  0  0  0  0  0
   -1.1090   -3.2321   -1.1440 C   0  0  0  0  0  0  0  0  0  0  0  0
   -1.5026   -4.5281   -1.5085 C   0  0  0  0  0  0  0  0  0  0  0  0
   -1.0955   -5.6056   -0.7142 C   0  0  0  0  0  0  0  0  0  0  0  0
   -0.3102   -5.3957    0.4195 C   0  0  0  0  0  0  0  0  0  0  0  0
    0.0893   -4.1084    0.7989 C   0  0  0  0  0  0  0  0  0  0  0  0
   -0.3324   -3.0415   -0.0064 C   0  0  0  0  0  0  0  0  0  0  0  0
    1.8743    0.9780    0.6032 N   0  0  0  0  0  0  0  0  0  0  0  0
    2.9578    1.8195    0.2433 C   0  0  0  0  0  0  0  0  0  0  0  0
    4.2431    1.3432   -0.0363 C   0  0  0  0  0  0  0  0  0  0  0  0
    5.2745    2.2266   -0.3872 C   0  0  0  0  0  0  0  0  0  0  0  0
    6.8328    1.5538   -0.7156 Cl  0  0  0  0  0  0  0  0  0  0  0  0
    5.0280    3.6011   -0.4607 C   0  0  0  0  0  0  0  0  0  0  0  0
    6.2516    4.7436   -0.8856 Cl  0  0  0  0  0  0  0  0  0  0  0  0
    3.7528    4.0915   -0.1822 C   0  0  0  0  0  0  0  0  0  0  0  0
    2.7299    3.2073    0.1674 C   0  0  0  0  0  0  0  0  0  0  0  0
    1.1701    3.8740    0.5096 Cl  0  0  0  0  0  0  0  0  0  0  0  0
   -0.1415   -0.2149    1.5312 H   0  0  0  0  0  0  0  0  0  0  0  0
    0.7190   -1.6717    1.9540 H   0  0  0  0  0  0  0  0  0  0  0  0
    0.2307    0.6135   -1.7522 H   0  0  0  0  0  0  0  0  0  0  0  0
   -1.4542    0.5691   -2.2272 H   0  0  0  0  0  0  0  0  0  0  0  0
   -1.7095    2.9512    1.4079 H   0  0  0  0  0  0  0  0  0  0  0  0
   -3.9913    3.5510    2.1369 H   0  0  0  0  0  0  0  0  0  0  0  0
   -5.9506    2.3354    1.2163 H   0  0  0  0  0  0  0  0  0  0  0  0
   -5.6088    0.5109   -0.4297 H   0  0  0  0  0  0  0  0  0  0  0  0
   -3.3626   -0.1078   -1.1566 H   0  0  0  0  0  0  0  0  0  0  0  0
   -2.1077   -4.6821   -2.3947 H   0  0  0  0  0  0  0  0  0  0  0  0
   -1.3909   -6.6153   -0.9888 H   0  0  0  0  0  0  0  0  0  0  0  0
    0.0021   -6.2487    1.0187 H   0  0  0  0  0  0  0  0  0  0  0  0
    0.7094   -3.9618    1.6765 H   0  0  0  0  0  0  0  0  0  0  0  0
    0.9902    1.4642    0.7553 H   0  0  0  0  0  0  0  0  0  0  0  0
    4.4779    0.2840    0.0107 H   0  0  0  0  0  0  0  0  0  0  0  0
    3.5562    5.1597   -0.2363 H   0  0  0  0  0  0  0  0  0  0  0  0
  1  2  2  0
  2  3  1  0
  3  4  1  0
  4  5  1  0
  5  6  1  0
  6  7  1  0
  7  8  1  0
  8  9  2  0
  9 10  1  0
 10 11  2  0
 11 12  1  0
 12 13  2  0
  5 14  2  0
 14 15  1  0
 15 16  2  0
 16 17  1  0
 17 18  2  0
 18 19  1  0
 19 20  2  0
  2 21  1  0
 21 22  1  0
 22 23  2  0
 23 24  1  0
 24 25  1  0
 24 26  2  0
 26 27  1  0
 26 28  1  0
 28 29  2  0
 29 30  1  0
 20  4  1  0
 29 22  1  0
 13  8  1  0
 20 15  1  0
  3 31  1  0
  3 32  1  0
  6 33  1  0
  6 34  1  0
  9 35  1  0
 10 36  1  0
 11 37  1  0
 12 38  1  0
 13 39  1  0
 16 40  1  0
 17 41  1  0
 18 42  1  0
 19 43  1  0
 21 44  1  0
 23 45  1  0
 28 46  1  0
M  END
$$$$
