
     RDKit          3D

 57 61  0  0  0  0  0  0  0  0999 V2000
   -7.0368    1.3667    3.4994 C   0  0  0  0  0  0  0  0  0  0  0  0
   -6.4158    0.8425    2.2387 C   0  0  0  0  0  0  0  0  0  0  0  0
   -5.3701   -0.0850    2.3006 C   0  0  0  0  0  0  0  0  0  0  0  0
   -4.8048   -0.5956    1.1299 C   0  0  0  0  0  0  0  0  0  0  0  0
   -5.2865   -0.1988   -0.1249 C   0  0  0  0  0  0  0  0  0  0  0  0
   -4.6702   -0.7400   -1.3901 C   0  0  0  0  0  0  0  0  0  0  0  0
   -3.6797    0.1673   -1.9293 N   0  0  0  0  0  0  0  0  0  0  0  0
   -4.0022    1.0467   -2.9107 N   0  0  0  0  0  0  0  0  0  0  0  0
   -2.9003    1.7304   -3.2204 N   0  0  0  0  0  0  0  0  0  0  0  0
   -1.8939    1.2514   -2.4393 C   0  0  0  0  0  0  0  0  0  0  0  0
   -0.5065    1.6211   -2.3583 C   0  0  0  0  0  0  0  0  0  0  0  0
    0.0371    2.4964   -3.0207 O   0  0  0  0  0  0  0  0  0  0  0  0
    0.1781    0.8581   -1.4197 N   0  0  0  0  0  0  0  0  0  0  0  0
   -0.4004   -0.1380   -0.6429 C   0  0  0  0  0  0  0  0  0  0  0  0
    0.5149   -0.8705    0.3361 C   0  0  0  0  0  0  0  0  0  0  0  0
    1.4550   -1.8310   -0.3983 C   0  0  0  0  0  0  0  0  0  0  0  0
    2.5873   -1.1359   -1.1584 C   0  0  0  0  0  0  0  0  0  0  0  0
    2.9002    0.1904   -0.5606 N   0  0  0  0  0  0  0  0  0  0  0  0
    4.2707    0.9941   -1.2088 S   0  0  0  0  0  6  0  0  0  0  0  0
    4.3327    2.3029   -0.5955 O   0  0  0  0  0  0  0  0  0  0  0  0
    4.2138    0.8371   -2.6457 O   0  0  0  0  0  0  0  0  0  0  0  0
    5.6470    0.0432   -0.6044 C   0  0  0  0  0  0  0  0  0  0  0  0
    6.1978   -0.9651   -1.4016 C   0  0  0  0  0  0  0  0  0  0  0  0
    7.2924   -1.6912   -0.9324 C   0  0  0  0  0  0  0  0  0  0  0  0
    7.8418   -1.3979    0.3169 C   0  0  0  0  0  0  0  0  0  0  0  0
    7.3074   -0.3714    1.0973 C   0  0  0  0  0  0  0  0  0  0  0  0
    6.2128    0.3592    0.6352 C   0  0  0  0  0  0  0  0  0  0  0  0
    2.7555    0.2184    0.9112 C   0  0  0  0  0  0  0  0  0  0  0  0
    1.2721    0.0999    1.2565 C   0  0  0  0  0  0  0  0  0  0  0  0
   -1.6563   -0.4869   -0.7174 N   0  0  0  0  0  0  0  0  0  0  0  0
   -2.3514    0.2459   -1.6223 C   0  0  0  0  0  0  0  0  0  0  0  0
   -6.3363    0.7277   -0.1843 C   0  0  0  0  0  0  0  0  0  0  0  0
   -6.9003    1.2377    0.9874 C   0  0  0  0  0  0  0  0  0  0  0  0
   -7.7559    0.6409    3.8919 H   0  0  0  0  0  0  0  0  0  0  0  0
   -6.2696    1.5559    4.2578 H   0  0  0  0  0  0  0  0  0  0  0  0
   -7.5577    2.3134    3.3202 H   0  0  0  0  0  0  0  0  0  0  0  0
   -4.9849   -0.4117    3.2639 H   0  0  0  0  0  0  0  0  0  0  0  0
   -3.9805   -1.3023    1.2049 H   0  0  0  0  0  0  0  0  0  0  0  0
   -5.4379   -0.9063   -2.1551 H   0  0  0  0  0  0  0  0  0  0  0  0
   -4.1839   -1.7063   -1.2126 H   0  0  0  0  0  0  0  0  0  0  0  0
    1.1637    1.0804   -1.3203 H   0  0  0  0  0  0  0  0  0  0  0  0
   -0.1491   -1.4740    0.9712 H   0  0  0  0  0  0  0  0  0  0  0  0
    0.8963   -2.4741   -1.0893 H   0  0  0  0  0  0  0  0  0  0  0  0
    1.9022   -2.5042    0.3457 H   0  0  0  0  0  0  0  0  0  0  0  0
    3.4647   -1.7886   -1.1619 H   0  0  0  0  0  0  0  0  0  0  0  0
    2.2761   -0.9820   -2.1978 H   0  0  0  0  0  0  0  0  0  0  0  0
    5.7890   -1.1846   -2.3857 H   0  0  0  0  0  0  0  0  0  0  0  0
    7.7271   -2.4777   -1.5450 H   0  0  0  0  0  0  0  0  0  0  0  0
    8.7009   -1.9604    0.6761 H   0  0  0  0  0  0  0  0  0  0  0  0
    7.7546   -0.1327    2.0595 H   0  0  0  0  0  0  0  0  0  0  0  0
    5.8182    1.1748    1.2370 H   0  0  0  0  0  0  0  0  0  0  0  0
    3.1384    1.1494    1.3398 H   0  0  0  0  0  0  0  0  0  0  0  0
    3.3190   -0.6099    1.3568 H   0  0  0  0  0  0  0  0  0  0  0  0
    1.1914   -0.2420    2.2961 H   0  0  0  0  0  0  0  0  0  0  0  0
    0.8087    1.0942    1.2337 H   0  0  0  0  0  0  0  0  0  0  0  0
   -6.7188    1.0656   -1.1463 H   0  0  0  0  0  0  0  0  0  0  0  0
   -7.7170    1.9525    0.9142 H   0  0  0  0  0  0  0  0  0  0  0  0
  1  2  1  0
  2  3  2  0
  3  4  1  0
  4  5  2  0
  5  6  1  0
  6  7  1  0
  7  8  1  0
  8  9  2  0
  9 10  1  0
 10 11  1  0
 11 12  2  0
 11 13  1  0
 13 14  1  0
 14 15  1  0
 15 16  1  0
 16 17  1  0
 17 18  1  0
 18 19  1  0
 19 20  2  0
 19 21  2  0
 19 22  1  0
 22 23  2  0
 23 24  1  0
 24 25  2  0
 25 26  1  0
 26 27  2  0
 18 28  1  0
 28 29  1  0
 14 30  2  0
 30 31  1  0
  5 32  1  0
 32 33  2  0
 33  2  1  0
 31  7  1  0
 31 10  2  0
 29 15  1  0
 27 22  1  0
  1 34  1  0
  1 35  1  0
  1 36  1  0
  3 37  1  0
  4 38  1  0
  6 39  1  0
  6 40  1  0
 13 41  1  0
 15 42  1  0
 16 43  1  0
 16 44  1  0
 17 45  1  0
 17 46  1  0
 23 47  1  0
 24 48  1  0
 25 49  1  0
 26 50  1  0
 27 51  1  0
 28 52  1  0
 28 53  1  0
 29 54  1  0
 29 55  1  0
 32 56  1  0
 33 57  1  0
M  END
$$$$
