
     RDKit          3D

 39 42  0  0  0  0  0  0  0  0999 V2000
   -7.8906   -1.1119    0.1186 O   0  0  0  0  0  0  0  0  0  0  0  0
   -6.6887   -1.1161   -0.0825 C   0  0  0  0  0  0  0  0  0  0  0  0
   -6.1908   -1.3547   -1.3100 O   0  0  0  0  0  0  0  0  0  0  0  0
   -5.6245   -0.8425    0.9339 C   0  0  0  0  0  0  0  0  0  0  0  0
   -5.2462    0.6342    0.9476 C   0  0  0  0  0  0  0  0  0  0  0  0
   -4.3820    1.0186   -0.1762 N   0  0  0  0  0  0  0  0  0  0  0  0
   -3.0491    0.6316   -0.1383 C   0  0  0  0  0  0  0  0  0  0  0  0
   -2.5380    0.0190    0.7879 O   0  0  0  0  0  0  0  0  0  0  0  0
   -2.3321    1.0795   -1.3668 C   0  0  0  0  0  0  0  0  0  0  0  0
   -1.0553    0.9073   -1.7363 C   0  0  0  0  0  0  0  0  0  0  0  0
   -0.0525    0.1862   -1.0354 C   0  0  0  0  0  0  0  0  0  0  0  0
   -0.0824   -1.0188   -0.3486 C   0  0  0  0  0  0  0  0  0  0  0  0
    1.2247   -1.2853    0.1221 C   0  0  0  0  0  0  0  0  0  0  0  0
    2.0300   -0.2496   -0.3089 C   0  0  0  0  0  0  0  0  0  0  0  0
    3.4395   -0.0727   -0.0875 C   0  0  0  0  0  0  0  0  0  0  0  0
    4.1596   -0.9454    0.5857 N   0  0  0  0  0  0  0  0  0  0  0  0
    5.4769   -0.5224    0.6433 C   0  0  0  0  0  0  0  0  0  0  0  0
    6.5351   -1.2001    1.2823 C   0  0  0  0  0  0  0  0  0  0  0  0
    7.8235   -0.6558    1.2623 C   0  0  0  0  0  0  0  0  0  0  0  0
    8.0683    0.5513    0.6152 C   0  0  0  0  0  0  0  0  0  0  0  0
    7.0363    1.2433   -0.0262 C   0  0  0  0  0  0  0  0  0  0  0  0
    5.7463    0.6874    0.0004 C   0  0  0  0  0  0  0  0  0  0  0  0
    4.2886    1.2907   -0.6874 S   0  0  0  0  0  0  0  0  0  0  0  0
    1.2530    0.6251   -1.0221 O   0  0  0  0  0  0  0  0  0  0  0  0
   -3.4288    1.9779   -2.3635 S   0  0  0  0  0  0  0  0  0  0  0  0
   -4.7851    1.7489   -1.2727 C   0  0  0  0  0  0  0  0  0  0  0  0
   -6.2954    2.3725   -1.6078 S   0  0  0  0  0  0  0  0  0  0  0  0
   -6.9870   -1.4959   -1.8674 H   0  0  0  0  0  0  0  0  0  0  0  0
   -4.7688   -1.5003    0.7487 H   0  0  0  0  0  0  0  0  0  0  0  0
   -6.0311   -1.1305    1.9106 H   0  0  0  0  0  0  0  0  0  0  0  0
   -6.1422    1.2609    0.9776 H   0  0  0  0  0  0  0  0  0  0  0  0
   -4.6879    0.8390    1.8697 H   0  0  0  0  0  0  0  0  0  0  0  0
   -0.7055    1.3827   -2.6508 H   0  0  0  0  0  0  0  0  0  0  0  0
   -0.9522   -1.6440   -0.1994 H   0  0  0  0  0  0  0  0  0  0  0  0
    1.5539   -2.1356    0.7043 H   0  0  0  0  0  0  0  0  0  0  0  0
    6.3399   -2.1415    1.7862 H   0  0  0  0  0  0  0  0  0  0  0  0
    8.6368   -1.1821    1.7568 H   0  0  0  0  0  0  0  0  0  0  0  0
    9.0753    0.9638    0.6072 H   0  0  0  0  0  0  0  0  0  0  0  0
    7.2285    2.1854   -0.5307 H   0  0  0  0  0  0  0  0  0  0  0  0
  1  2  2  0
  2  3  1  0
  2  4  1  0
  4  5  1  0
  5  6  1  0
  6  7  1  0
  7  8  2  0
  7  9  1  0
  9 10  2  3
 10 11  1  0
 11 12  2  0
 12 13  1  0
 13 14  2  0
 14 15  1  0
 15 16  2  0
 16 17  1  0
 17 18  2  0
 18 19  1  0
 19 20  2  0
 20 21  1  0
 21 22  2  0
 22 23  1  0
 14 24  1  0
  9 25  1  0
 25 26  1  0
 26 27  2  0
 26  6  1  0
 24 11  1  0
 23 15  1  0
 22 17  1  0
  3 28  1  0
  4 29  1  0
  4 30  1  0
  5 31  1  0
  5 32  1  0
 10 33  1  0
 12 34  1  0
 13 35  1  0
 18 36  1  0
 19 37  1  0
 20 38  1  0
 21 39  1  0
M  END
$$$$
