
     RDKit          3D

 59 62  0  0  0  0  0  0  0  0999 V2000
   -5.9612   -0.6079   -4.3517 C   0  0  0  0  0  0  0  0  0  0  0  0
   -6.0583   -1.0554   -3.0048 O   0  0  0  0  0  0  0  0  0  0  0  0
   -4.9884   -0.8074   -2.1913 C   0  0  0  0  0  0  0  0  0  0  0  0
   -3.8567   -0.0657   -2.5290 C   0  0  0  0  0  0  0  0  0  0  0  0
   -2.8309    0.1153   -1.5941 C   0  0  0  0  0  0  0  0  0  0  0  0
   -2.9304   -0.4414   -0.3160 C   0  0  0  0  0  0  0  0  0  0  0  0
   -1.8593   -0.2631    0.6497 C   0  0  0  0  0  0  0  0  0  0  0  0
   -0.8578   -1.1391    1.0242 C   0  0  0  0  0  0  0  0  0  0  0  0
   -0.0303   -0.5817    1.9598 N   0  0  0  0  0  0  0  0  0  0  0  0
   -0.5203    0.6155    2.1746 C   0  0  0  0  0  0  0  0  0  0  0  0
    0.2419    1.7318    3.2521 S   0  0  0  0  0  0  0  0  0  0  0  0
    1.3172    2.6305    2.1057 C   0  0  0  0  0  0  0  0  0  0  0  0
    2.3304    1.8147    1.3118 C   0  0  0  0  0  0  0  0  0  0  0  0
    2.8534    2.3460    0.3321 O   0  0  0  0  0  0  0  0  0  0  0  0
    2.6166    0.5652    1.7984 N   0  0  0  0  0  0  0  0  0  0  0  0
    3.4673   -0.2953    1.1656 C   0  0  0  0  0  0  0  0  0  0  0  0
    4.2693   -0.0835    0.1560 N   0  0  0  0  0  0  0  0  0  0  0  0
    4.9304   -1.2544   -0.1865 C   0  0  0  0  0  0  0  0  0  0  0  0
    5.8805   -1.2564   -1.3760 C   0  0  0  0  0  0  0  0  0  0  0  0
    7.2826   -1.7271   -0.9435 C   0  0  0  0  0  0  0  0  0  0  0  0
    5.3448   -2.2044   -2.4678 C   0  0  0  0  0  0  0  0  0  0  0  0
    6.0203    0.1515   -1.9928 C   0  0  0  0  0  0  0  0  0  0  0  0
    4.6080   -2.3345    0.6186 C   0  0  0  0  0  0  0  0  0  0  0  0
    3.4679   -1.8721    1.8118 S   0  0  0  0  0  0  0  0  0  0  0  0
   -1.6448    0.8634    1.4289 N   0  0  0  0  0  0  0  0  0  0  0  0
   -2.4479    2.0778    1.4142 C   0  0  0  0  0  0  0  0  0  0  0  0
   -3.6237    1.9541    2.3088 C   0  0  0  0  0  0  0  0  0  0  0  0
   -4.9535    1.6517    2.0935 C   0  0  0  0  0  0  0  0  0  0  0  0
   -5.5826    1.6907    3.3608 C   0  0  0  0  0  0  0  0  0  0  0  0
   -4.6030    2.0273    4.2642 C   0  0  0  0  0  0  0  0  0  0  0  0
   -3.4132    2.1981    3.6335 O   0  0  0  0  0  0  0  0  0  0  0  0
   -4.0602   -1.1903    0.0188 C   0  0  0  0  0  0  0  0  0  0  0  0
   -5.0852   -1.3643   -0.9138 C   0  0  0  0  0  0  0  0  0  0  0  0
   -5.1075   -1.0682   -4.8601 H   0  0  0  0  0  0  0  0  0  0  0  0
   -5.9088    0.4848   -4.4010 H   0  0  0  0  0  0  0  0  0  0  0  0
   -6.8691   -0.9224   -4.8757 H   0  0  0  0  0  0  0  0  0  0  0  0
   -3.7361    0.3799   -3.5110 H   0  0  0  0  0  0  0  0  0  0  0  0
   -1.9494    0.6847   -1.8777 H   0  0  0  0  0  0  0  0  0  0  0  0
   -0.6895   -2.1416    0.6503 H   0  0  0  0  0  0  0  0  0  0  0  0
    1.8770    3.3716    2.6840 H   0  0  0  0  0  0  0  0  0  0  0  0
    0.6844    3.1671    1.3925 H   0  0  0  0  0  0  0  0  0  0  0  0
    1.9972    0.1424    2.4839 H   0  0  0  0  0  0  0  0  0  0  0  0
    7.9756   -1.7377   -1.7938 H   0  0  0  0  0  0  0  0  0  0  0  0
    7.2586   -2.7409   -0.5264 H   0  0  0  0  0  0  0  0  0  0  0  0
    7.7046   -1.0665   -0.1758 H   0  0  0  0  0  0  0  0  0  0  0  0
    4.3407   -1.9054   -2.7921 H   0  0  0  0  0  0  0  0  0  0  0  0
    5.2766   -3.2376   -2.1062 H   0  0  0  0  0  0  0  0  0  0  0  0
    5.9952   -2.2062   -3.3512 H   0  0  0  0  0  0  0  0  0  0  0  0
    6.4280    0.8658   -1.2667 H   0  0  0  0  0  0  0  0  0  0  0  0
    5.0518    0.5387   -2.3330 H   0  0  0  0  0  0  0  0  0  0  0  0
    6.6928    0.1399   -2.8597 H   0  0  0  0  0  0  0  0  0  0  0  0
    4.9776   -3.3481    0.5634 H   0  0  0  0  0  0  0  0  0  0  0  0
   -1.8216    2.9263    1.7064 H   0  0  0  0  0  0  0  0  0  0  0  0
   -2.7593    2.2675    0.3814 H   0  0  0  0  0  0  0  0  0  0  0  0
   -5.4119    1.4234    1.1401 H   0  0  0  0  0  0  0  0  0  0  0  0
   -6.6219    1.4986    3.5885 H   0  0  0  0  0  0  0  0  0  0  0  0
   -4.5904    2.1783    5.3348 H   0  0  0  0  0  0  0  0  0  0  0  0
   -4.1534   -1.6383    1.0051 H   0  0  0  0  0  0  0  0  0  0  0  0
   -5.9641   -1.9457   -0.6457 H   0  0  0  0  0  0  0  0  0  0  0  0
  1  2  1  0
  2  3  1  0
  3  4  2  0
  4  5  1  0
  5  6  2  0
  6  7  1  0
  7  8  2  0
  8  9  1  0
  9 10  2  0
 10 11  1  0
 11 12  1  0
 12 13  1  0
 13 14  2  0
 13 15  1  0
 15 16  1  0
 16 17  2  0
 17 18  1  0
 18 19  1  0
 19 20  1  0
 19 21  1  0
 19 22  1  0
 18 23  2  0
 23 24  1  0
 10 25  1  0
 25 26  1  0
 26 27  1  0
 27 28  2  0
 28 29  1  0
 29 30  2  0
 30 31  1  0
  6 32  1  0
 32 33  2  0
 33  3  1  0
 25  7  1  0
 31 27  1  0
 24 16  1  0
  1 34  1  0
  1 35  1  0
  1 36  1  0
  4 37  1  0
  5 38  1  0
  8 39  1  0
 12 40  1  0
 12 41  1  0
 15 42  1  0
 20 43  1  0
 20 44  1  0
 20 45  1  0
 21 46  1  0
 21 47  1  0
 21 48  1  0
 22 49  1  0
 22 50  1  0
 22 51  1  0
 23 52  1  0
 26 53  1  0
 26 54  1  0
 28 55  1  0
 29 56  1  0
 30 57  1  0
 32 58  1  0
 33 59  1  0
M  END
$$$$
