
     RDKit          3D

 42 44  0  0  0  0  0  0  0  0999 V2000
   -5.1085    1.4818    0.4566 C   0  0  0  0  0  0  0  0  0  0  0  0
   -4.0919    1.1374   -0.5922 C   0  0  0  0  0  0  0  0  0  0  0  0
   -4.4739    1.0166   -1.9288 C   0  0  0  0  0  0  0  0  0  0  0  0
   -3.5524    0.6636   -2.9202 C   0  0  0  0  0  0  0  0  0  0  0  0
   -2.2224    0.4206   -2.5396 C   0  0  0  0  0  0  0  0  0  0  0  0
   -1.8065    0.5277   -1.2122 C   0  0  0  0  0  0  0  0  0  0  0  0
   -2.7607    0.8788   -0.2290 C   0  0  0  0  0  0  0  0  0  0  0  0
   -0.4120    0.2200   -1.1807 C   0  0  0  0  0  0  0  0  0  0  0  0
    0.3986    0.2178   -0.0019 C   0  0  0  0  0  0  0  0  0  0  0  0
    1.3452   -0.6917    0.2854 C   0  0  0  0  0  0  0  0  0  0  0  0
    2.1445   -0.6849    1.5146 C   0  0  0  0  0  0  0  0  0  0  0  0
    3.4948   -1.0230    1.4485 C   0  0  0  0  0  0  0  0  0  0  0  0
    4.2586   -1.0455    2.6102 C   0  0  0  0  0  0  0  0  0  0  0  0
    3.7021   -0.7497    3.8058 N   0  0  0  0  0  4  0  0  0  0  0  0
    4.5280   -0.7906    5.0244 C   0  0  0  0  0  0  0  0  0  0  0  0
    2.3888   -0.4440    3.8985 C   0  0  0  0  0  0  0  0  0  0  0  0
    1.5882   -0.4073    2.7625 C   0  0  0  0  0  0  0  0  0  0  0  0
    0.0077   -0.0191   -2.4799 C   0  0  0  0  0  0  0  0  0  0  0  0
    1.3642   -0.2897   -3.0379 C   0  0  0  0  0  0  0  0  0  0  0  0
   -1.1170    0.0523   -3.2823 N   0  0  0  0  0  0  0  0  0  0  0  0
   -1.1426   -0.1984   -4.7101 C   0  0  0  0  0  0  0  0  0  0  0  0
   -5.8886    2.1319    0.0464 H   0  0  0  0  0  0  0  0  0  0  0  0
   -5.5737    0.5688    0.8406 H   0  0  0  0  0  0  0  0  0  0  0  0
   -4.6436    2.0196    1.2896 H   0  0  0  0  0  0  0  0  0  0  0  0
   -5.5076    1.1987   -2.2184 H   0  0  0  0  0  0  0  0  0  0  0  0
   -3.8742    0.5827   -3.9536 H   0  0  0  0  0  0  0  0  0  0  0  0
   -2.4595    0.9515    0.8114 H   0  0  0  0  0  0  0  0  0  0  0  0
    0.1790    1.0108    0.7093 H   0  0  0  0  0  0  0  0  0  0  0  0
    1.5534   -1.4947   -0.4192 H   0  0  0  0  0  0  0  0  0  0  0  0
    3.9617   -1.2623    0.4945 H   0  0  0  0  0  0  0  0  0  0  0  0
    5.3143   -1.3017    2.5931 H   0  0  0  0  0  0  0  0  0  0  0  0
    5.5579   -0.5292    4.7684 H   0  0  0  0  0  0  0  0  0  0  0  0
    4.4713   -1.8061    5.4241 H   0  0  0  0  0  0  0  0  0  0  0  0
    4.1397   -0.0658    5.7446 H   0  0  0  0  0  0  0  0  0  0  0  0
    1.9862   -0.2367    4.8860 H   0  0  0  0  0  0  0  0  0  0  0  0
    0.5298   -0.1747    2.8635 H   0  0  0  0  0  0  0  0  0  0  0  0
    2.1507    0.0922   -2.3800 H   0  0  0  0  0  0  0  0  0  0  0  0
    1.5137   -1.3664   -3.1655 H   0  0  0  0  0  0  0  0  0  0  0  0
    1.5026    0.1995   -4.0075 H   0  0  0  0  0  0  0  0  0  0  0  0
   -0.9063    0.7374   -5.2221 H   0  0  0  0  0  0  0  0  0  0  0  0
   -2.1310   -0.5584   -5.0042 H   0  0  0  0  0  0  0  0  0  0  0  0
   -0.4090   -0.9698   -4.9564 H   0  0  0  0  0  0  0  0  0  0  0  0
  1  2  1  0
  2  3  2  0
  3  4  1  0
  4  5  2  0
  5  6  1  0
  6  7  2  0
  6  8  1  0
  8  9  1  0
  9 10  2  3
 10 11  1  0
 11 12  2  0
 12 13  1  0
 13 14  2  0
 14 15  1  0
 14 16  1  0
 16 17  2  0
  8 18  2  0
 18 19  1  0
 18 20  1  0
 20 21  1  0
  7  2  1  0
 17 11  1  0
 20  5  1  0
  1 22  1  0
  1 23  1  0
  1 24  1  0
  3 25  1  0
  4 26  1  0
  7 27  1  0
  9 28  1  0
 10 29  1  0
 12 30  1  0
 13 31  1  0
 15 32  1  0
 15 33  1  0
 15 34  1  0
 16 35  1  0
 17 36  1  0
 19 37  1  0
 19 38  1  0
 19 39  1  0
 21 40  1  0
 21 41  1  0
 21 42  1  0
M  CHG  1  14   1
M  END
$$$$
