
     RDKit          3D

 52 55  0  0  0  0  0  0  0  0999 V2000
    6.1701   -0.6034    0.0950 C   0  0  0  0  0  0  0  0  0  0  0  0
    5.4012    0.5056   -0.4602 N   0  0  0  0  0  0  0  0  0  0  0  0
    4.4137    0.0529   -1.4599 C   0  0  0  0  0  0  0  0  0  0  0  0
    2.9715   -0.0619   -0.9158 C   0  0  0  0  0  0  0  0  0  0  0  0
    2.4350    1.2151   -0.3947 N   0  0  0  0  0  0  0  0  0  0  0  0
    1.3679    1.0164    0.5941 C   0  0  0  0  0  0  0  0  0  0  0  0
    0.1482    0.2842    0.0200 C   0  0  0  0  0  0  0  0  0  0  0  0
   -0.9829    0.2328    1.0577 C   0  0  0  0  0  0  0  0  0  0  0  0
   -2.1513   -0.5315    0.5622 N   0  0  0  0  0  0  0  0  0  0  0  0
   -2.1989   -1.9213    0.8809 C   0  0  0  0  0  0  0  0  0  0  0  0
   -1.0557   -2.6374    1.3064 C   0  0  0  0  0  0  0  0  0  0  0  0
   -1.0891   -4.0044    1.6094 C   0  0  0  0  0  0  0  0  0  0  0  0
   -2.2740   -4.7099    1.4932 C   0  0  0  0  0  0  0  0  0  0  0  0
   -3.4181   -4.0435    1.0715 C   0  0  0  0  0  0  0  0  0  0  0  0
   -3.3886   -2.6684    0.7632 C   0  0  0  0  0  0  0  0  0  0  0  0
   -4.9436   -1.9674    0.2673 S   0  0  0  0  0  0  0  0  0  0  0  0
   -4.4686   -0.3491   -0.2892 C   0  0  0  0  0  0  0  0  0  0  0  0
   -5.4800    0.3838   -0.9403 C   0  0  0  0  0  0  0  0  0  0  0  0
   -5.2487    1.6735   -1.4062 C   0  0  0  0  0  0  0  0  0  0  0  0
   -3.9977    2.2564   -1.2232 C   0  0  0  0  0  0  0  0  0  0  0  0
   -3.7061    3.6428   -1.7423 C   0  0  0  0  0  0  0  0  0  0  0  0
   -3.1253    3.6244   -2.9728 F   0  0  0  0  0  0  0  0  0  0  0  0
   -2.8572    4.3415   -0.9371 F   0  0  0  0  0  0  0  0  0  0  0  0
   -4.8205    4.4168   -1.8646 F   0  0  0  0  0  0  0  0  0  0  0  0
   -2.9890    1.5132   -0.5768 C   0  0  0  0  0  0  0  0  0  0  0  0
   -3.1888    0.2028   -0.0826 C   0  0  0  0  0  0  0  0  0  0  0  0
    3.5212    2.0728    0.1309 C   0  0  0  0  0  0  0  0  0  0  0  0
    4.7625    1.2911    0.6142 C   0  0  0  0  0  0  0  0  0  0  0  0
    5.5321   -1.3375    0.6000 H   0  0  0  0  0  0  0  0  0  0  0  0
    6.9113   -0.2366    0.8138 H   0  0  0  0  0  0  0  0  0  0  0  0
    6.7279   -1.1177   -0.6953 H   0  0  0  0  0  0  0  0  0  0  0  0
    4.4174    0.7804   -2.2823 H   0  0  0  0  0  0  0  0  0  0  0  0
    4.7129   -0.9007   -1.9128 H   0  0  0  0  0  0  0  0  0  0  0  0
    2.9657   -0.8340   -0.1344 H   0  0  0  0  0  0  0  0  0  0  0  0
    2.3216   -0.4131   -1.7255 H   0  0  0  0  0  0  0  0  0  0  0  0
    1.7489    0.4766    1.4707 H   0  0  0  0  0  0  0  0  0  0  0  0
    1.0277    1.9992    0.9452 H   0  0  0  0  0  0  0  0  0  0  0  0
    0.4230   -0.7308   -0.2854 H   0  0  0  0  0  0  0  0  0  0  0  0
   -0.1897    0.7914   -0.8907 H   0  0  0  0  0  0  0  0  0  0  0  0
   -0.6137   -0.1857    2.0032 H   0  0  0  0  0  0  0  0  0  0  0  0
   -1.2739    1.2492    1.3539 H   0  0  0  0  0  0  0  0  0  0  0  0
   -0.0871   -2.1587    1.4011 H   0  0  0  0  0  0  0  0  0  0  0  0
   -0.1826   -4.5112    1.9305 H   0  0  0  0  0  0  0  0  0  0  0  0
   -2.3112   -5.7704    1.7255 H   0  0  0  0  0  0  0  0  0  0  0  0
   -4.3463   -4.6050    0.9830 H   0  0  0  0  0  0  0  0  0  0  0  0
   -6.4654   -0.0558   -1.0880 H   0  0  0  0  0  0  0  0  0  0  0  0
   -6.0477    2.2147   -1.9101 H   0  0  0  0  0  0  0  0  0  0  0  0
   -2.0213    2.0005   -0.4884 H   0  0  0  0  0  0  0  0  0  0  0  0
    3.8273    2.7512   -0.6764 H   0  0  0  0  0  0  0  0  0  0  0  0
    3.1629    2.7246    0.9373 H   0  0  0  0  0  0  0  0  0  0  0  0
    4.4540    0.6432    1.4462 H   0  0  0  0  0  0  0  0  0  0  0  0
    5.4985    1.9982    1.0143 H   0  0  0  0  0  0  0  0  0  0  0  0
  1  2  1  0
  2  3  1  0
  3  4  1  0
  4  5  1  0
  5  6  1  0
  6  7  1  0
  7  8  1  0
  8  9  1  0
  9 10  1  0
 10 11  2  0
 11 12  1  0
 12 13  2  0
 13 14  1  0
 14 15  2  0
 15 16  1  0
 16 17  1  0
 17 18  2  0
 18 19  1  0
 19 20  2  0
 20 21  1  0
 21 22  1  0
 21 23  1  0
 21 24  1  0
 20 25  1  0
 25 26  2  0
  5 27  1  0
 27 28  1  0
 28  2  1  0
 26  9  1  0
 15 10  1  0
 26 17  1  0
  1 29  1  0
  1 30  1  0
  1 31  1  0
  3 32  1  0
  3 33  1  0
  4 34  1  0
  4 35  1  0
  6 36  1  0
  6 37  1  0
  7 38  1  0
  7 39  1  0
  8 40  1  0
  8 41  1  0
 11 42  1  0
 12 43  1  0
 13 44  1  0
 14 45  1  0
 18 46  1  0
 19 47  1  0
 25 48  1  0
 27 49  1  0
 27 50  1  0
 28 51  1  0
 28 52  1  0
M  END
$$$$
