
     RDKit          3D

 61 67  0  0  0  0  0  0  0  0999 V2000
    2.6344    0.6444    3.0508 O   0  0  0  0  0  0  0  0  0  0  0  0
    2.8242    0.4266    1.8563 C   0  0  0  0  0  0  0  0  0  0  0  0
    4.0905    0.9107    1.2602 C   0  0  0  0  0  0  0  0  0  0  0  0
    4.4919    2.2367    1.5263 C   0  0  0  0  0  0  0  0  0  0  0  0
    5.6895    2.7320    1.0033 C   0  0  0  0  0  0  0  0  0  0  0  0
    6.4556    1.8761    0.2431 C   0  0  0  0  0  0  0  0  0  0  0  0
    6.0763    0.5735    0.0071 C   0  0  0  0  0  0  0  0  0  0  0  0
    4.9021    0.0541    0.5067 C   0  0  0  0  0  0  0  0  0  0  0  0
    6.9854   -0.1022   -0.7463 O   0  0  0  0  0  0  0  0  0  0  0  0
    7.9976    0.9126   -0.9255 C   0  0  0  0  0  0  0  0  0  0  0  0
    7.6451    2.1831   -0.3395 O   0  0  0  0  0  0  0  0  0  0  0  0
    1.9002   -0.2505    1.0580 N   0  0  0  0  0  0  0  0  0  0  0  0
    1.8741   -0.2016   -0.4068 C   0  0  0  0  0  0  0  0  0  0  0  0
    0.4556    0.0332   -0.9150 C   0  0  0  0  0  0  0  0  0  0  0  0
   -0.4981   -1.1216   -0.5019 C   0  0  0  0  0  0  0  0  0  0  0  0
   -0.0574   -1.7566    0.8461 C   0  0  0  0  0  0  0  0  0  0  0  0
    0.7348   -0.8062    1.7322 C   0  0  0  0  0  0  0  0  0  0  0  0
   -0.2636   -2.1220   -1.5371 O   0  0  0  0  0  0  0  0  0  0  0  0
   -1.2104   -3.0856   -1.7151 C   0  0  0  0  0  0  0  0  0  0  0  0
   -0.8309   -4.1804   -2.4916 C   0  0  0  0  0  0  0  0  0  0  0  0
   -1.7272   -5.2291   -2.7126 C   0  0  0  0  0  0  0  0  0  0  0  0
   -3.0061   -5.1777   -2.1593 C   0  0  0  0  0  0  0  0  0  0  0  0
   -4.1047   -6.4722   -2.4290 Cl  0  0  0  0  0  0  0  0  0  0  0  0
   -3.3985   -4.0841   -1.3936 C   0  0  0  0  0  0  0  0  0  0  0  0
   -2.4950   -3.0358   -1.1860 C   0  0  0  0  0  0  0  0  0  0  0  0
   -2.8893   -1.8589   -0.4017 C   0  0  0  0  0  0  0  0  0  0  0  0
   -3.9021   -1.9054    0.2924 O   0  0  0  0  0  0  0  0  0  0  0  0
   -1.9779   -0.6406   -0.5094 C   0  0  0  0  0  0  0  0  0  0  0  0
   -2.3328    0.3985    0.5444 C   0  0  0  0  0  0  0  0  0  0  0  0
   -3.2277    1.2657   -0.2750 C   0  0  0  0  0  0  0  0  0  0  0  0
   -4.0776    2.3150    0.3363 C   0  0  0  0  0  0  0  0  0  0  0  0
   -4.9331    3.0591   -0.4862 C   0  0  0  0  0  0  0  0  0  0  0  0
   -5.7433    4.0564    0.0607 C   0  0  0  0  0  0  0  0  0  0  0  0
   -5.7018    4.3161    1.4295 C   0  0  0  0  0  0  0  0  0  0  0  0
   -4.8492    3.5826    2.2525 C   0  0  0  0  0  0  0  0  0  0  0  0
   -4.0361    2.5838    1.7096 C   0  0  0  0  0  0  0  0  0  0  0  0
   -3.1695    1.0529   -1.5509 N   0  0  0  0  0  0  0  0  0  0  0  0
   -2.2670   -0.0103   -1.7693 O   0  0  0  0  0  0  0  0  0  0  0  0
    3.8685    2.8752    2.1493 H   0  0  0  0  0  0  0  0  0  0  0  0
    6.0106    3.7491    1.1970 H   0  0  0  0  0  0  0  0  0  0  0  0
    4.6337   -0.9816    0.3320 H   0  0  0  0  0  0  0  0  0  0  0  0
    8.1669    1.0547   -1.9994 H   0  0  0  0  0  0  0  0  0  0  0  0
    8.9303    0.5632   -0.4664 H   0  0  0  0  0  0  0  0  0  0  0  0
    2.5179    0.6013   -0.7763 H   0  0  0  0  0  0  0  0  0  0  0  0
    2.2694   -1.1535   -0.7783 H   0  0  0  0  0  0  0  0  0  0  0  0
    0.4859    0.1274   -2.0081 H   0  0  0  0  0  0  0  0  0  0  0  0
    0.1155    0.9975   -0.5238 H   0  0  0  0  0  0  0  0  0  0  0  0
   -0.9193   -2.1329    1.4079 H   0  0  0  0  0  0  0  0  0  0  0  0
    0.5705   -2.6364    0.6482 H   0  0  0  0  0  0  0  0  0  0  0  0
    0.1141    0.0297    2.0699 H   0  0  0  0  0  0  0  0  0  0  0  0
    1.0696   -1.3340    2.6334 H   0  0  0  0  0  0  0  0  0  0  0  0
    0.1676   -4.2236   -2.9208 H   0  0  0  0  0  0  0  0  0  0  0  0
   -1.4213   -6.0805   -3.3152 H   0  0  0  0  0  0  0  0  0  0  0  0
   -4.3997   -4.0389   -0.9707 H   0  0  0  0  0  0  0  0  0  0  0  0
   -1.4895    1.0138    0.8634 H   0  0  0  0  0  0  0  0  0  0  0  0
   -2.8283   -0.0108    1.4275 H   0  0  0  0  0  0  0  0  0  0  0  0
   -4.9772    2.8664   -1.5568 H   0  0  0  0  0  0  0  0  0  0  0  0
   -6.4074    4.6282   -0.5825 H   0  0  0  0  0  0  0  0  0  0  0  0
   -6.3357    5.0904    1.8548 H   0  0  0  0  0  0  0  0  0  0  0  0
   -4.8189    3.7888    3.3199 H   0  0  0  0  0  0  0  0  0  0  0  0
   -3.3815    2.0341    2.3791 H   0  0  0  0  0  0  0  0  0  0  0  0
  1  2  2  0
  2  3  1  0
  3  4  2  0
  4  5  1  0
  5  6  2  0
  6  7  1  0
  7  8  2  0
  7  9  1  0
  9 10  1  0
 10 11  1  0
  2 12  1  0
 12 13  1  0
 13 14  1  0
 14 15  1  0
 15 16  1  0
 16 17  1  0
 15 18  1  0
 18 19  1  0
 19 20  2  0
 20 21  1  0
 21 22  2  0
 22 23  1  0
 22 24  1  0
 24 25  2  0
 25 26  1  0
 26 27  2  0
 26 28  1  0
 28 29  1  0
 29 30  1  0
 30 31  1  0
 31 32  2  0
 32 33  1  0
 33 34  2  0
 34 35  1  0
 35 36  2  0
 30 37  2  0
 37 38  1  0
  8  3  1  0
 17 12  1  0
 25 19  1  0
 38 28  1  0
 11  6  1  0
 28 15  1  0
 36 31  1  0
  4 39  1  0
  5 40  1  0
  8 41  1  0
 10 42  1  0
 10 43  1  0
 13 44  1  0
 13 45  1  0
 14 46  1  0
 14 47  1  0
 16 48  1  0
 16 49  1  0
 17 50  1  0
 17 51  1  0
 20 52  1  0
 21 53  1  0
 24 54  1  0
 29 55  1  0
 29 56  1  0
 32 57  1  0
 33 58  1  0
 34 59  1  0
 35 60  1  0
 36 61  1  0
M  END
$$$$
