
     RDKit          3D

 55 60  0  0  0  0  0  0  0  0999 V2000
   -5.1563    0.2353   -1.2915 O   0  0  0  0  0  0  0  0  0  0  0  0
   -4.4141    0.5557   -0.3641 C   0  0  0  0  0  0  0  0  0  0  0  0
   -4.9467    1.2846    0.7786 C   0  0  0  0  0  0  0  0  0  0  0  0
   -4.3716    2.2877    1.6148 C   0  0  0  0  0  0  0  0  0  0  0  0
   -5.3418    2.6543    2.5180 C   0  0  0  0  0  0  0  0  0  0  0  0
   -6.4864    1.9656    2.2863 O   0  0  0  0  0  0  0  0  0  0  0  0
   -6.2492    1.1567    1.2234 C   0  0  0  0  0  0  0  0  0  0  0  0
   -3.0482    0.2496   -0.3916 N   0  0  0  0  0  0  0  0  0  0  0  0
   -2.1903    0.1860    0.7885 C   0  0  0  0  0  0  0  0  0  0  0  0
   -1.2151   -0.9897    0.7441 C   0  0  0  0  0  0  0  0  0  0  0  0
   -0.3607   -1.0713   -0.5587 C   0  0  0  0  0  0  0  0  0  0  0  0
   -0.9985   -0.2097   -1.6772 C   0  0  0  0  0  0  0  0  0  0  0  0
   -2.5185   -0.3035   -1.6318 C   0  0  0  0  0  0  0  0  0  0  0  0
   -0.4911   -2.4709   -0.9487 O   0  0  0  0  0  0  0  0  0  0  0  0
    0.4326   -2.9891   -1.8079 C   0  0  0  0  0  0  0  0  0  0  0  0
    0.1355   -4.2425   -2.3454 C   0  0  0  0  0  0  0  0  0  0  0  0
    1.0110   -4.8368   -3.2562 C   0  0  0  0  0  0  0  0  0  0  0  0
    2.1787   -4.1738   -3.6216 C   0  0  0  0  0  0  0  0  0  0  0  0
    3.0122   -4.7454   -4.4996 F   0  0  0  0  0  0  0  0  0  0  0  0
    2.4935   -2.9313   -3.0879 C   0  0  0  0  0  0  0  0  0  0  0  0
    1.6163   -2.3510   -2.1690 C   0  0  0  0  0  0  0  0  0  0  0  0
    1.9200   -1.0481   -1.5646 C   0  0  0  0  0  0  0  0  0  0  0  0
    2.7513   -0.3098   -2.0854 O   0  0  0  0  0  0  0  0  0  0  0  0
    1.1305   -0.7052   -0.3069 C   0  0  0  0  0  0  0  0  0  0  0  0
    1.3869    0.7263    0.1366 C   0  0  0  0  0  0  0  0  0  0  0  0
    2.4898    0.4717    1.1078 C   0  0  0  0  0  0  0  0  0  0  0  0
    3.3362    1.5632    1.6449 C   0  0  0  0  0  0  0  0  0  0  0  0
    3.1092    2.9024    1.3076 C   0  0  0  0  0  0  0  0  0  0  0  0
    3.9249    3.9057    1.8384 C   0  0  0  0  0  0  0  0  0  0  0  0
    4.9655    3.5774    2.7062 C   0  0  0  0  0  0  0  0  0  0  0  0
    5.1949    2.2457    3.0465 C   0  0  0  0  0  0  0  0  0  0  0  0
    4.3828    1.2405    2.5182 C   0  0  0  0  0  0  0  0  0  0  0  0
    2.6143   -0.7657    1.4699 N   0  0  0  0  0  0  0  0  0  0  0  0
    1.6574   -1.5187    0.7558 O   0  0  0  0  0  0  0  0  0  0  0  0
   -3.3789    2.7091    1.5575 H   0  0  0  0  0  0  0  0  0  0  0  0
   -5.3802    3.3632    3.3337 H   0  0  0  0  0  0  0  0  0  0  0  0
   -7.0857    0.5525    0.8981 H   0  0  0  0  0  0  0  0  0  0  0  0
   -2.7967    0.0946    1.6945 H   0  0  0  0  0  0  0  0  0  0  0  0
   -1.6477    1.1345    0.8409 H   0  0  0  0  0  0  0  0  0  0  0  0
   -0.5806   -0.9474    1.6365 H   0  0  0  0  0  0  0  0  0  0  0  0
   -1.8046   -1.9111    0.8551 H   0  0  0  0  0  0  0  0  0  0  0  0
   -0.6653   -0.5388   -2.6678 H   0  0  0  0  0  0  0  0  0  0  0  0
   -0.7071    0.8420   -1.5706 H   0  0  0  0  0  0  0  0  0  0  0  0
   -2.8559   -1.3439   -1.7111 H   0  0  0  0  0  0  0  0  0  0  0  0
   -2.9489    0.2451   -2.4778 H   0  0  0  0  0  0  0  0  0  0  0  0
   -0.7808   -4.7546   -2.0611 H   0  0  0  0  0  0  0  0  0  0  0  0
    0.7895   -5.8100   -3.6840 H   0  0  0  0  0  0  0  0  0  0  0  0
    3.4144   -2.4356   -3.3800 H   0  0  0  0  0  0  0  0  0  0  0  0
    1.6759    1.4006   -0.6722 H   0  0  0  0  0  0  0  0  0  0  0  0
    0.5557    1.1627    0.6938 H   0  0  0  0  0  0  0  0  0  0  0  0
    2.3086    3.1938    0.6353 H   0  0  0  0  0  0  0  0  0  0  0  0
    3.7506    4.9458    1.5730 H   0  0  0  0  0  0  0  0  0  0  0  0
    5.6002    4.3594    3.1161 H   0  0  0  0  0  0  0  0  0  0  0  0
    6.0072    1.9872    3.7215 H   0  0  0  0  0  0  0  0  0  0  0  0
    4.5753    0.2046    2.7912 H   0  0  0  0  0  0  0  0  0  0  0  0
  1  2  2  0
  2  3  1  0
  3  4  1  0
  4  5  2  0
  5  6  1  0
  6  7  1  0
  2  8  1  0
  8  9  1  0
  9 10  1  0
 10 11  1  0
 11 12  1  0
 12 13  1  0
 11 14  1  0
 14 15  1  0
 15 16  2  0
 16 17  1  0
 17 18  2  0
 18 19  1  0
 18 20  1  0
 20 21  2  0
 21 22  1  0
 22 23  2  0
 22 24  1  0
 24 25  1  0
 25 26  1  0
 26 27  1  0
 27 28  2  0
 28 29  1  0
 29 30  2  0
 30 31  1  0
 31 32  2  0
 26 33  2  0
 33 34  1  0
  7  3  2  0
 13  8  1  0
 21 15  1  0
 34 24  1  0
 24 11  1  0
 32 27  1  0
  4 35  1  0
  5 36  1  0
  7 37  1  0
  9 38  1  0
  9 39  1  0
 10 40  1  0
 10 41  1  0
 12 42  1  0
 12 43  1  0
 13 44  1  0
 13 45  1  0
 16 46  1  0
 17 47  1  0
 20 48  1  0
 25 49  1  0
 25 50  1  0
 28 51  1  0
 29 52  1  0
 30 53  1  0
 31 54  1  0
 32 55  1  0
M  END
$$$$
