
     RDKit          3D

 57 62  0  0  0  0  0  0  0  0999 V2000
    2.8018   -4.0157   -2.7367 C   0  0  0  0  0  0  0  0  0  0  0  0
    1.8678   -3.2646   -1.9733 O   0  0  0  0  0  0  0  0  0  0  0  0
    2.3546   -2.5652   -0.9021 C   0  0  0  0  0  0  0  0  0  0  0  0
    3.7016   -2.5238   -0.4944 C   0  0  0  0  0  0  0  0  0  0  0  0
    4.0937   -1.7717    0.6197 C   0  0  0  0  0  0  0  0  0  0  0  0
    3.1147   -1.0772    1.2968 C   0  0  0  0  0  0  0  0  0  0  0  0
    1.7725   -1.1033    0.9117 C   0  0  0  0  0  0  0  0  0  0  0  0
    1.3840   -1.8478   -0.1912 C   0  0  0  0  0  0  0  0  0  0  0  0
    0.9795   -0.2438    1.8492 C   0  0  0  0  0  0  0  0  0  0  0  0
   -0.1497   -0.9272    2.5585 N   0  0  0  0  0  0  0  0  0  0  0  0
   -1.3892   -0.0854    2.4231 C   0  0  2  0  0  0  0  0  0  0  0  0
   -2.6346   -0.9192    2.0685 C   0  0  0  0  0  0  0  0  0  0  0  0
   -2.5616   -1.7489    0.8052 C   0  0  0  0  0  0  0  0  0  0  0  0
   -2.1185   -3.0782    0.8568 C   0  0  0  0  0  0  0  0  0  0  0  0
   -2.0446   -3.8482   -0.3050 C   0  0  0  0  0  0  0  0  0  0  0  0
   -2.4105   -3.2975   -1.5311 C   0  0  0  0  0  0  0  0  0  0  0  0
   -2.8515   -1.9775   -1.5957 C   0  0  0  0  0  0  0  0  0  0  0  0
   -2.9286   -1.2069   -0.4342 C   0  0  0  0  0  0  0  0  0  0  0  0
   -1.0023    0.9504    1.4379 C   0  0  0  0  0  0  0  0  0  0  0  0
    0.3411    0.8461    1.0948 C   0  0  0  0  0  0  0  0  0  0  0  0
    0.6392    1.8174    0.1730 C   0  0  0  0  0  0  0  0  0  0  0  0
    1.8034    2.1066   -0.4052 O   0  0  0  0  0  0  0  0  0  0  0  0
   -0.5395    2.5629   -0.0552 N   0  0  0  0  0  0  0  0  0  0  0  0
   -0.6843    3.6732   -0.9595 C   0  0  0  0  0  0  0  0  0  0  0  0
   -1.6830    4.6382   -0.7629 C   0  0  0  0  0  0  0  0  0  0  0  0
   -1.8221    5.7155   -1.6450 C   0  0  0  0  0  0  0  0  0  0  0  0
   -0.9682    5.8427   -2.7360 C   0  0  0  0  0  0  0  0  0  0  0  0
    0.0265    4.8929   -2.9455 C   0  0  0  0  0  0  0  0  0  0  0  0
    0.1691    3.8158   -2.0639 C   0  0  0  0  0  0  0  0  0  0  0  0
   -1.5492    2.0145    0.7687 C   0  0  0  0  0  0  0  0  0  0  0  0
   -2.7990    2.4723    0.7867 O   0  0  0  0  0  0  0  0  0  0  0  0
    2.0652    0.2432    2.8551 C   0  0  0  0  0  0  0  0  0  0  0  0
    1.9066    0.9094    3.8672 O   0  0  0  0  0  0  0  0  0  0  0  0
    3.2843   -0.2769    2.4184 N   0  0  0  0  0  0  0  0  0  0  0  0
    3.2720   -4.7958   -2.1290 H   0  0  0  0  0  0  0  0  0  0  0  0
    2.2533   -4.5092   -3.5448 H   0  0  0  0  0  0  0  0  0  0  0  0
    3.5529   -3.3634   -3.1943 H   0  0  0  0  0  0  0  0  0  0  0  0
    4.4698   -3.0731   -1.0298 H   0  0  0  0  0  0  0  0  0  0  0  0
    5.1319   -1.7456    0.9310 H   0  0  0  0  0  0  0  0  0  0  0  0
    0.3441   -1.8712   -0.5041 H   0  0  0  0  0  0  0  0  0  0  0  0
    0.0915   -0.9584    3.5489 H   0  0  0  0  0  0  0  0  0  0  0  0
   -1.5675    0.4115    3.3860 H   0  0  0  0  0  0  0  0  0  0  0  0
   -3.5088   -0.2588    1.9952 H   0  0  0  0  0  0  0  0  0  0  0  0
   -2.8586   -1.5911    2.9086 H   0  0  0  0  0  0  0  0  0  0  0  0
   -1.8115   -3.5167    1.8037 H   0  0  0  0  0  0  0  0  0  0  0  0
   -1.6885   -4.8735   -0.2543 H   0  0  0  0  0  0  0  0  0  0  0  0
   -2.3429   -3.8934   -2.4370 H   0  0  0  0  0  0  0  0  0  0  0  0
   -3.1297   -1.5434   -2.5524 H   0  0  0  0  0  0  0  0  0  0  0  0
   -3.2694   -0.1770   -0.5105 H   0  0  0  0  0  0  0  0  0  0  0  0
    2.4421    1.4135   -0.1641 H   0  0  0  0  0  0  0  0  0  0  0  0
   -2.3503    4.6036    0.0923 H   0  0  0  0  0  0  0  0  0  0  0  0
   -2.5968    6.4577   -1.4712 H   0  0  0  0  0  0  0  0  0  0  0  0
   -1.0775    6.6792   -3.4205 H   0  0  0  0  0  0  0  0  0  0  0  0
    0.6929    4.9820   -3.7994 H   0  0  0  0  0  0  0  0  0  0  0  0
    0.9366    3.0824   -2.2902 H   0  0  0  0  0  0  0  0  0  0  0  0
   -3.3052    1.9450    1.4265 H   0  0  0  0  0  0  0  0  0  0  0  0
    4.1503   -0.1268    2.9146 H   0  0  0  0  0  0  0  0  0  0  0  0
  1  2  1  0
  2  3  1  0
  3  4  2  0
  4  5  1  0
  5  6  2  0
  6  7  1  0
  7  8  2  0
  7  9  1  0
  9 10  1  0
 10 11  1  0
 11 12  1  0
 12 13  1  0
 13 14  2  0
 14 15  1  0
 15 16  2  0
 16 17  1  0
 17 18  2  0
 11 19  1  0
 19 20  1  0
 20 21  2  0
 21 22  1  0
 21 23  1  0
 23 24  1  0
 24 25  2  0
 25 26  1  0
 26 27  2  0
 27 28  1  0
 28 29  2  0
 23 30  1  0
 30 31  1  0
  9 32  1  0
 32 33  2  0
 32 34  1  0
  8  3  1  0
 20  9  1  0
 29 24  1  0
 34  6  1  0
 18 13  1  0
 30 19  2  0
  1 35  1  0
  1 36  1  0
  1 37  1  0
  4 38  1  0
  5 39  1  0
  8 40  1  0
 10 41  1  0
 11 42  1  1
 12 43  1  0
 12 44  1  0
 14 45  1  0
 15 46  1  0
 16 47  1  0
 17 48  1  0
 18 49  1  0
 22 50  1  0
 25 51  1  0
 26 52  1  0
 27 53  1  0
 28 54  1  0
 29 55  1  0
 31 56  1  0
 34 57  1  0
M  END
$$$$
