
     RDKit          3D

 37 38  0  0  0  0  0  0  0  0999 V2000
    5.7824   -1.1052    0.3891 C   0  0  0  0  0  0  0  0  0  0  0  0
    4.4716   -1.5215   -0.2536 C   0  0  0  0  0  0  0  0  0  0  0  0
    3.3596   -0.7061    0.1944 N   0  0  0  0  0  0  0  0  0  0  0  0
    2.4702   -1.0078    1.1827 C   0  0  0  0  0  0  0  0  0  0  0  0
    1.5993    0.0615    1.2626 C   0  0  0  0  0  0  0  0  0  0  0  0
    0.4468    0.2329    2.1845 C   0  0  0  0  0  0  0  0  0  0  0  0
   -0.7469   -0.1993    1.4930 N   0  0  0  0  0  0  0  0  0  0  0  0
   -1.6765    0.7058    1.0336 C   0  0  0  0  0  0  0  0  0  0  0  0
   -1.6251    1.9100    1.2522 O   0  0  0  0  0  0  0  0  0  0  0  0
   -2.7760    0.1562    0.1948 C   0  0  0  0  0  0  0  0  0  0  0  0
   -3.2530   -1.1519    0.3649 C   0  0  0  0  0  0  0  0  0  0  0  0
   -4.2935   -1.6313   -0.4353 C   0  0  0  0  0  0  0  0  0  0  0  0
   -4.8680   -0.8072   -1.4040 C   0  0  0  0  0  0  0  0  0  0  0  0
   -4.3998    0.5048   -1.5635 C   0  0  0  0  0  0  0  0  0  0  0  0
   -5.0092    1.3731   -2.5785 N   0  0  0  0  0  4  0  0  0  0  0  0
   -4.5135    2.4946   -2.7525 O   0  0  0  0  0  0  0  0  0  0  0  0
   -5.9824    0.9293   -3.2047 O   0  0  0  0  0  1  0  0  0  0  0  0
   -3.3584    0.9935   -0.7656 C   0  0  0  0  0  0  0  0  0  0  0  0
    2.0573    0.9605    0.2580 C   0  0  0  0  0  0  0  0  0  0  0  0
    1.4913    2.2813   -0.1181 C   0  0  0  0  0  0  0  0  0  0  0  0
    3.1226    0.4768   -0.3933 N   0  0  0  0  0  0  0  0  0  0  0  0
    6.5983   -1.7434    0.0364 H   0  0  0  0  0  0  0  0  0  0  0  0
    5.7300   -1.1877    1.4799 H   0  0  0  0  0  0  0  0  0  0  0  0
    6.0308   -0.0669    0.1448 H   0  0  0  0  0  0  0  0  0  0  0  0
    4.2401   -2.5641   -0.0100 H   0  0  0  0  0  0  0  0  0  0  0  0
    4.5276   -1.4364   -1.3444 H   0  0  0  0  0  0  0  0  0  0  0  0
    2.5328   -1.9304    1.7423 H   0  0  0  0  0  0  0  0  0  0  0  0
    0.3585    1.2679    2.5282 H   0  0  0  0  0  0  0  0  0  0  0  0
    0.5602   -0.4095    3.0641 H   0  0  0  0  0  0  0  0  0  0  0  0
   -0.7248   -1.1297    1.1013 H   0  0  0  0  0  0  0  0  0  0  0  0
   -2.8447   -1.8009    1.1356 H   0  0  0  0  0  0  0  0  0  0  0  0
   -4.6636   -2.6454   -0.2971 H   0  0  0  0  0  0  0  0  0  0  0  0
   -5.6788   -1.1962   -2.0178 H   0  0  0  0  0  0  0  0  0  0  0  0
   -2.9928    2.0133   -0.8801 H   0  0  0  0  0  0  0  0  0  0  0  0
    2.2073    2.8703   -0.7009 H   0  0  0  0  0  0  0  0  0  0  0  0
    1.2314    2.8613    0.7727 H   0  0  0  0  0  0  0  0  0  0  0  0
    0.5890    2.1478   -0.7228 H   0  0  0  0  0  0  0  0  0  0  0  0
  1  2  1  0
  2  3  1  0
  3  4  1  0
  4  5  2  0
  5  6  1  0
  6  7  1  0
  7  8  1  0
  8  9  2  0
  8 10  1  0
 10 11  2  0
 11 12  1  0
 12 13  2  0
 13 14  1  0
 14 15  1  0
 15 16  2  0
 15 17  1  0
 14 18  2  0
  5 19  1  0
 19 20  1  0
 19 21  2  0
 21  3  1  0
 18 10  1  0
  1 22  1  0
  1 23  1  0
  1 24  1  0
  2 25  1  0
  2 26  1  0
  4 27  1  0
  6 28  1  0
  6 29  1  0
  7 30  1  0
 11 31  1  0
 12 32  1  0
 13 33  1  0
 18 34  1  0
 20 35  1  0
 20 36  1  0
 20 37  1  0
M  CHG  2  15   1  17  -1
M  END
$$$$
