
     RDKit          3D

 35 37  0  0  0  0  0  0  0  0999 V2000
   -1.4178    5.0861    2.4773 C   0  0  0  0  0  0  0  0  0  0  0  0
   -0.3521    4.1979    2.1652 O   0  0  0  0  0  0  0  0  0  0  0  0
   -0.6777    2.8838    1.9742 C   0  0  0  0  0  0  0  0  0  0  0  0
    0.4053    2.0488    1.6918 C   0  0  0  0  0  0  0  0  0  0  0  0
    0.2155    0.6815    1.4736 C   0  0  0  0  0  0  0  0  0  0  0  0
   -1.0691    0.1323    1.5223 C   0  0  0  0  0  0  0  0  0  0  0  0
   -1.3058   -1.3039    1.3213 C   0  0  0  0  0  0  0  0  0  0  0  0
   -0.9277   -2.0546    0.2637 C   0  0  0  0  0  0  0  0  0  0  0  0
   -1.2377   -3.4544    0.2968 C   0  0  0  0  0  0  0  0  0  0  0  0
   -1.4948   -4.5854    0.3565 N   0  0  0  0  0  0  0  0  0  0  0  0
   -0.2543   -1.5720   -0.9084 C   0  0  0  0  0  0  0  0  0  0  0  0
   -0.6853   -0.5167   -1.6868 C   0  0  0  0  0  0  0  0  0  0  0  0
    0.2116   -0.3499   -2.7076 N   0  0  0  0  0  0  0  0  0  0  0  0
    1.2169   -1.2853   -2.6173 C   0  0  0  0  0  0  0  0  0  0  0  0
    2.3322   -1.4864   -3.4397 C   0  0  0  0  0  0  0  0  0  0  0  0
    3.2051   -2.5256   -3.1073 C   0  0  0  0  0  0  0  0  0  0  0  0
    2.9710   -3.3293   -1.9952 C   0  0  0  0  0  0  0  0  0  0  0  0
    1.8522   -3.1146   -1.1816 C   0  0  0  0  0  0  0  0  0  0  0  0
    0.9504   -2.0746   -1.4957 C   0  0  0  0  0  0  0  0  0  0  0  0
   -2.1518    0.9672    1.8200 C   0  0  0  0  0  0  0  0  0  0  0  0
   -1.9588    2.3368    2.0399 C   0  0  0  0  0  0  0  0  0  0  0  0
   -1.9020    4.8067    3.4189 H   0  0  0  0  0  0  0  0  0  0  0  0
   -2.1430    5.1353    1.6583 H   0  0  0  0  0  0  0  0  0  0  0  0
   -0.9927    6.0862    2.6057 H   0  0  0  0  0  0  0  0  0  0  0  0
    1.4086    2.4652    1.6438 H   0  0  0  0  0  0  0  0  0  0  0  0
    1.0813    0.0573    1.2637 H   0  0  0  0  0  0  0  0  0  0  0  0
   -1.8442   -1.7742    2.1444 H   0  0  0  0  0  0  0  0  0  0  0  0
   -1.5451    0.1351   -1.6011 H   0  0  0  0  0  0  0  0  0  0  0  0
    0.1509    0.3572   -3.4272 H   0  0  0  0  0  0  0  0  0  0  0  0
    2.5186   -0.8616   -4.3072 H   0  0  0  0  0  0  0  0  0  0  0  0
    4.0797   -2.7088   -3.7275 H   0  0  0  0  0  0  0  0  0  0  0  0
    3.6619   -4.1337   -1.7543 H   0  0  0  0  0  0  0  0  0  0  0  0
    1.6886   -3.7531   -0.3180 H   0  0  0  0  0  0  0  0  0  0  0  0
   -3.1600    0.5621    1.8769 H   0  0  0  0  0  0  0  0  0  0  0  0
   -2.8298    2.9446    2.2605 H   0  0  0  0  0  0  0  0  0  0  0  0
  1  2  1  0
  2  3  1  0
  3  4  2  0
  4  5  1  0
  5  6  2  0
  6  7  1  0
  7  8  2  3
  8  9  1  0
  9 10  3  0
  8 11  1  0
 11 12  2  0
 12 13  1  0
 13 14  1  0
 14 15  2  0
 15 16  1  0
 16 17  2  0
 17 18  1  0
 18 19  2  0
  6 20  1  0
 20 21  2  0
 21  3  1  0
 19 11  1  0
 19 14  1  0
  1 22  1  0
  1 23  1  0
  1 24  1  0
  4 25  1  0
  5 26  1  0
  7 27  1  0
 12 28  1  0
 13 29  1  0
 15 30  1  0
 16 31  1  0
 17 32  1  0
 18 33  1  0
 20 34  1  0
 21 35  1  0
M  END
$$$$
