
     RDKit          3D

 54 57  0  0  0  0  0  0  0  0999 V2000
   -6.0700    0.3740    1.3742 C   0  0  0  0  0  0  0  0  0  0  0  0
   -5.7824    1.3307    0.3637 O   0  0  0  0  0  0  0  0  0  0  0  0
   -4.4970    1.3786   -0.1082 C   0  0  0  0  0  0  0  0  0  0  0  0
   -3.4920    0.4575    0.2131 C   0  0  0  0  0  0  0  0  0  0  0  0
   -2.1789    0.5846   -0.2896 C   0  0  0  0  0  0  0  0  0  0  0  0
   -1.1402   -0.3897    0.0865 C   0  0  0  0  0  0  0  0  0  0  0  0
    0.1487   -0.0151    0.4177 C   0  0  0  0  0  0  0  0  0  0  0  0
    1.0598   -1.0118    0.7687 C   0  0  0  0  0  0  0  0  0  0  0  0
    2.4346   -0.5561    1.0803 C   0  0  0  0  0  0  0  0  0  0  0  0
    2.5701    0.2907    1.9508 O   0  0  0  0  0  0  0  0  0  0  0  0
    3.4108   -1.1202    0.2843 N   0  0  0  0  0  0  0  0  0  0  0  0
    4.8028   -0.9139    0.3644 C   0  0  0  0  0  0  0  0  0  0  0  0
    5.6018   -1.5676   -0.5856 C   0  0  0  0  0  0  0  0  0  0  0  0
    6.9922   -1.4174   -0.5780 C   0  0  0  0  0  0  0  0  0  0  0  0
    7.5843   -0.6152    0.3899 C   0  0  0  0  0  0  0  0  0  0  0  0
    8.9339   -0.4322    0.4336 O   0  0  0  0  0  0  0  0  0  0  0  0
    6.8084    0.0344    1.3421 C   0  0  0  0  0  0  0  0  0  0  0  0
    5.4178   -0.1122    1.3281 C   0  0  0  0  0  0  0  0  0  0  0  0
    0.6748   -2.3691    0.8263 C   0  0  0  0  0  0  0  0  0  0  0  0
    1.5094   -3.4402    1.2416 C   0  0  0  0  0  0  0  0  0  0  0  0
    1.0425   -4.7528    1.2528 C   0  0  0  0  0  0  0  0  0  0  0  0
   -0.2618   -5.0157    0.8612 C   0  0  0  0  0  0  0  0  0  0  0  0
   -1.0940   -3.9615    0.4756 C   0  0  0  0  0  0  0  0  0  0  0  0
   -0.6556   -2.6441    0.4606 C   0  0  0  0  0  0  0  0  0  0  0  0
   -1.5290   -1.6872    0.1010 N   0  0  0  0  0  0  0  0  0  0  0  0
   -1.8991    1.6617   -1.1454 C   0  0  0  0  0  0  0  0  0  0  0  0
   -2.8910    2.5869   -1.4676 C   0  0  0  0  0  0  0  0  0  0  0  0
   -2.6006    3.6118   -2.3321 O   0  0  0  0  0  0  0  0  0  0  0  0
   -1.9286    4.6603   -1.6365 C   0  0  0  0  0  0  0  0  0  0  0  0
   -4.1903    2.4342   -0.9771 C   0  0  0  0  0  0  0  0  0  0  0  0
   -5.1315    3.3830   -1.2970 O   0  0  0  0  0  0  0  0  0  0  0  0
   -5.9449    2.9147   -2.3699 C   0  0  0  0  0  0  0  0  0  0  0  0
   -5.9927   -0.6455    0.9844 H   0  0  0  0  0  0  0  0  0  0  0  0
   -7.1036    0.5286    1.6932 H   0  0  0  0  0  0  0  0  0  0  0  0
   -5.4286    0.5132    2.2493 H   0  0  0  0  0  0  0  0  0  0  0  0
   -3.7003   -0.3844    0.8684 H   0  0  0  0  0  0  0  0  0  0  0  0
    0.4483    1.0285    0.4261 H   0  0  0  0  0  0  0  0  0  0  0  0
    3.0963   -1.7390   -0.4540 H   0  0  0  0  0  0  0  0  0  0  0  0
    5.1523   -2.1908   -1.3541 H   0  0  0  0  0  0  0  0  0  0  0  0
    7.5873   -1.9215   -1.3327 H   0  0  0  0  0  0  0  0  0  0  0  0
    9.3369   -0.8889   -0.3218 H   0  0  0  0  0  0  0  0  0  0  0  0
    7.2788    0.6638    2.0927 H   0  0  0  0  0  0  0  0  0  0  0  0
    4.8447    0.4173    2.0837 H   0  0  0  0  0  0  0  0  0  0  0  0
    2.5272   -3.2591    1.5820 H   0  0  0  0  0  0  0  0  0  0  0  0
    1.6922   -5.5636    1.5752 H   0  0  0  0  0  0  0  0  0  0  0  0
   -0.6428   -6.0343    0.8680 H   0  0  0  0  0  0  0  0  0  0  0  0
   -2.1208   -4.1747    0.1848 H   0  0  0  0  0  0  0  0  0  0  0  0
   -0.9128    1.7793   -1.5855 H   0  0  0  0  0  0  0  0  0  0  0  0
   -1.9464    5.5502   -2.2740 H   0  0  0  0  0  0  0  0  0  0  0  0
   -0.8803    4.3881   -1.4593 H   0  0  0  0  0  0  0  0  0  0  0  0
   -2.4219    4.9098   -0.6877 H   0  0  0  0  0  0  0  0  0  0  0  0
   -6.5490    3.7563   -2.7248 H   0  0  0  0  0  0  0  0  0  0  0  0
   -6.6273    2.1291   -2.0311 H   0  0  0  0  0  0  0  0  0  0  0  0
   -5.3425    2.5559   -3.2124 H   0  0  0  0  0  0  0  0  0  0  0  0
  1  2  1  0
  2  3  1  0
  3  4  2  0
  4  5  1  0
  5  6  1  0
  6  7  2  0
  7  8  1  0
  8  9  1  0
  9 10  2  0
  9 11  1  0
 11 12  1  0
 12 13  2  0
 13 14  1  0
 14 15  2  0
 15 16  1  0
 15 17  1  0
 17 18  2  0
  8 19  2  0
 19 20  1  0
 20 21  2  0
 21 22  1  0
 22 23  2  0
 23 24  1  0
 24 25  2  0
  5 26  2  0
 26 27  1  0
 27 28  1  0
 28 29  1  0
 27 30  2  0
 30 31  1  0
 31 32  1  0
 30  3  1  0
 25  6  1  0
 18 12  1  0
 24 19  1  0
  1 33  1  0
  1 34  1  0
  1 35  1  0
  4 36  1  0
  7 37  1  0
 11 38  1  0
 13 39  1  0
 14 40  1  0
 16 41  1  0
 17 42  1  0
 18 43  1  0
 20 44  1  0
 21 45  1  0
 22 46  1  0
 23 47  1  0
 26 48  1  0
 29 49  1  0
 29 50  1  0
 29 51  1  0
 32 52  1  0
 32 53  1  0
 32 54  1  0
M  END
$$$$
