
     RDKit          3D

 60 65  0  0  0  0  0  0  0  0999 V2000
   -1.0139    1.8300    3.5714 O   0  0  0  0  0  0  0  0  0  0  0  0
   -1.5955    1.1157    2.7640 C   0  0  0  0  0  0  0  0  0  0  0  0
   -1.0116    0.7027    1.5720 N   0  0  0  0  0  0  0  0  0  0  0  0
   -1.6417   -0.0931    0.6232 C   0  0  0  0  0  0  0  0  0  0  0  0
   -0.8414   -0.4447   -0.6287 C   0  0  0  0  0  0  0  0  0  0  0  0
    0.2490   -1.4742   -0.3167 C   0  0  0  0  0  0  0  0  0  0  0  0
    1.4440   -0.9049    0.4523 C   0  0  0  0  0  0  0  0  0  0  0  0
    1.5967    0.5544    0.2045 N   0  0  0  0  0  0  0  0  0  0  0  0
    3.0042    1.2802    0.8614 S   0  0  0  0  0  6  0  0  0  0  0  0
    2.9042    2.7046    0.6291 O   0  0  0  0  0  0  0  0  0  0  0  0
    3.1783    0.7447    2.1933 O   0  0  0  0  0  0  0  0  0  0  0  0
    4.3203    0.6578   -0.1598 C   0  0  0  0  0  0  0  0  0  0  0  0
    4.6743    1.3459   -1.3266 C   0  0  0  0  0  0  0  0  0  0  0  0
    5.7272    0.8750   -2.1124 C   0  0  0  0  0  0  0  0  0  0  0  0
    6.4321   -0.2618   -1.7190 C   0  0  0  0  0  0  0  0  0  0  0  0
    6.0739   -0.9451   -0.5509 C   0  0  0  0  0  0  0  0  0  0  0  0
    5.0326   -0.4747    0.2452 C   0  0  0  0  0  0  0  0  0  0  0  0
    6.7104   -2.0799   -0.1192 O   0  0  0  0  0  0  0  0  0  0  0  0
    7.5397   -2.6437   -1.1425 C   0  0  0  0  0  0  0  0  0  0  0  0
    8.3419   -1.5617   -1.8459 C   0  0  0  0  0  0  0  0  0  0  0  0
    7.4688   -0.6518   -2.5270 O   0  0  0  0  0  0  0  0  0  0  0  0
    1.2259    0.9576   -1.1692 C   0  0  0  0  0  0  0  0  0  0  0  0
   -0.2853    0.8054   -1.3287 C   0  0  0  0  0  0  0  0  0  0  0  0
   -2.8525   -0.5625    0.7522 N   0  0  0  0  0  0  0  0  0  0  0  0
   -3.4477   -0.1760    1.9060 C   0  0  0  0  0  0  0  0  0  0  0  0
   -2.9334    0.6079    2.9101 C   0  0  0  0  0  0  0  0  0  0  0  0
   -3.8426    0.7607    3.9117 N   0  0  0  0  0  0  0  0  0  0  0  0
   -4.9367    0.0842    3.5607 N   0  0  0  0  0  0  0  0  0  0  0  0
   -4.7085   -0.4656    2.3409 N   0  0  0  0  0  0  0  0  0  0  0  0
   -5.7199   -1.2732    1.6902 C   0  0  0  0  0  0  0  0  0  0  0  0
   -6.5602   -0.4554    0.7479 C   0  0  0  0  0  0  0  0  0  0  0  0
   -7.4760    0.4933    1.2287 C   0  0  0  0  0  0  0  0  0  0  0  0
   -8.2461    1.2486    0.3406 C   0  0  0  0  0  0  0  0  0  0  0  0
   -8.1112    1.0654   -1.0353 C   0  0  0  0  0  0  0  0  0  0  0  0
   -7.2050    0.1267   -1.5236 C   0  0  0  0  0  0  0  0  0  0  0  0
   -6.4403   -0.6223   -0.6336 C   0  0  0  0  0  0  0  0  0  0  0  0
   -5.5809   -1.5251   -1.1269 F   0  0  0  0  0  0  0  0  0  0  0  0
   -0.0658    1.0365    1.4163 H   0  0  0  0  0  0  0  0  0  0  0  0
   -1.5566   -0.9155   -1.3179 H   0  0  0  0  0  0  0  0  0  0  0  0
   -0.1641   -2.3266    0.2363 H   0  0  0  0  0  0  0  0  0  0  0  0
    0.6148   -1.8810   -1.2693 H   0  0  0  0  0  0  0  0  0  0  0  0
    2.3446   -1.4540    0.1639 H   0  0  0  0  0  0  0  0  0  0  0  0
    1.2837   -1.0587    1.5253 H   0  0  0  0  0  0  0  0  0  0  0  0
    4.1490    2.2518   -1.6215 H   0  0  0  0  0  0  0  0  0  0  0  0
    6.0145    1.4052   -3.0169 H   0  0  0  0  0  0  0  0  0  0  0  0
    4.7836   -0.9938    1.1677 H   0  0  0  0  0  0  0  0  0  0  0  0
    8.2119   -3.3636   -0.6651 H   0  0  0  0  0  0  0  0  0  0  0  0
    6.8989   -3.1891   -1.8467 H   0  0  0  0  0  0  0  0  0  0  0  0
    8.9574   -0.9918   -1.1380 H   0  0  0  0  0  0  0  0  0  0  0  0
    9.0056   -2.0077   -2.5938 H   0  0  0  0  0  0  0  0  0  0  0  0
    1.7529    0.3295   -1.8971 H   0  0  0  0  0  0  0  0  0  0  0  0
    1.4934    1.9986   -1.3738 H   0  0  0  0  0  0  0  0  0  0  0  0
   -0.5111    0.7563   -2.4014 H   0  0  0  0  0  0  0  0  0  0  0  0
   -0.7864    1.7097   -0.9606 H   0  0  0  0  0  0  0  0  0  0  0  0
   -6.3500   -1.7231    2.4663 H   0  0  0  0  0  0  0  0  0  0  0  0
   -5.2102   -2.0966    1.1779 H   0  0  0  0  0  0  0  0  0  0  0  0
   -7.5898    0.6559    2.3001 H   0  0  0  0  0  0  0  0  0  0  0  0
   -8.9500    1.9839    0.7250 H   0  0  0  0  0  0  0  0  0  0  0  0
   -8.7105    1.6550   -1.7243 H   0  0  0  0  0  0  0  0  0  0  0  0
   -7.0887   -0.0267   -2.5918 H   0  0  0  0  0  0  0  0  0  0  0  0
  1  2  2  0
  2  3  1  0
  3  4  1  0
  4  5  1  0
  5  6  1  0
  6  7  1  0
  7  8  1  0
  8  9  1  0
  9 10  2  0
  9 11  2  0
  9 12  1  0
 12 13  2  0
 13 14  1  0
 14 15  2  0
 15 16  1  0
 16 17  2  0
 16 18  1  0
 18 19  1  0
 19 20  1  0
 20 21  1  0
  8 22  1  0
 22 23  1  0
  4 24  2  0
 24 25  1  0
 25 26  2  0
 26 27  1  0
 27 28  2  0
 28 29  1  0
 29 30  1  0
 30 31  1  0
 31 32  2  0
 32 33  1  0
 33 34  2  0
 34 35  1  0
 35 36  2  0
 36 37  1  0
 26  2  1  0
 36 31  1  0
 23  5  1  0
 29 25  1  0
 17 12  1  0
 21 15  1  0
  3 38  1  0
  5 39  1  0
  6 40  1  0
  6 41  1  0
  7 42  1  0
  7 43  1  0
 13 44  1  0
 14 45  1  0
 17 46  1  0
 19 47  1  0
 19 48  1  0
 20 49  1  0
 20 50  1  0
 22 51  1  0
 22 52  1  0
 23 53  1  0
 23 54  1  0
 30 55  1  0
 30 56  1  0
 32 57  1  0
 33 58  1  0
 34 59  1  0
 35 60  1  0
M  END
$$$$
