
     RDKit          3D

 97 99  0  0  0  0  0  0  0  0999 V2000
   -3.9766    2.9434   -3.1276 C   0  0  0  0  0  0  0  0  0  0  0  0
   -2.9971    2.0067   -2.4883 C   0  0  0  0  0  0  0  0  0  0  0  0
   -2.1067    1.4220   -3.0882 O   0  0  0  0  0  0  0  0  0  0  0  0
   -3.2478    1.9139   -1.1558 O   0  0  0  0  0  0  0  0  0  0  0  0
   -2.3753    1.0538   -0.3662 C   0  0  1  0  0  0  0  0  0  0  0  0
   -1.2344    1.8996    0.2664 C   0  0  2  0  0  0  0  0  0  0  0  0
   -0.4559    2.5401   -0.7706 O   0  0  0  0  0  0  0  0  0  0  0  0
   -0.7649    3.8243   -1.0802 C   0  0  0  0  0  0  0  0  0  0  0  0
    0.1283    4.3412   -2.1664 C   0  0  0  0  0  0  0  0  0  0  0  0
   -1.6506    4.4893   -0.5578 O   0  0  0  0  0  0  0  0  0  0  0  0
   -0.2164    1.1354    1.1217 C   0  0  0  0  0  0  0  0  0  0  0  0
   -0.1259    1.6469    2.5426 C   0  0  0  0  0  0  0  0  0  0  0  0
    0.6320    0.1570    0.7276 C   0  0  0  0  0  0  0  0  0  0  0  0
    0.8001   -0.4845   -0.6356 C   0  0  1  0  0  0  0  0  0  0  0  0
    1.8103    0.2702   -1.5406 C   0  0  1  0  0  0  0  0  0  0  0  0
    2.9920    0.6233   -0.7967 O   0  0  0  0  0  0  0  0  0  0  0  0
    3.3325    1.9348   -0.7642 C   0  0  0  0  0  0  0  0  0  0  0  0
    2.7771    2.8452   -1.3597 O   0  0  0  0  0  0  0  0  0  0  0  0
    4.5098    2.1449    0.1219 C   0  0  0  0  0  0  0  0  0  0  0  0
    5.1778    1.0837    0.7458 C   0  0  0  0  0  0  0  0  0  0  0  0
    6.2818    1.3326    1.5643 C   0  0  0  0  0  0  0  0  0  0  0  0
    6.7220    2.6408    1.7650 C   0  0  0  0  0  0  0  0  0  0  0  0
    6.0611    3.7027    1.1502 C   0  0  0  0  0  0  0  0  0  0  0  0
    4.9588    3.4566    0.3295 C   0  0  0  0  0  0  0  0  0  0  0  0
    2.1457   -0.7354   -2.6649 C   0  0  1  0  0  0  0  0  0  0  0  0
    3.6214   -0.8160   -3.0403 C   0  0  0  0  0  0  0  0  0  0  0  0
    1.5727   -2.0941   -2.2065 C   0  0  0  0  0  0  0  0  0  0  0  0
    1.3180   -1.9673   -0.6862 C   0  0  1  0  0  0  0  0  0  0  0  0
    2.5947   -1.9902    0.0440 O   0  0  0  0  0  0  0  0  0  0  0  0
    3.4072   -3.0814   -0.0173 C   0  0  0  0  0  0  0  0  0  0  0  0
    4.5924   -2.8998    0.8804 C   0  0  0  0  0  0  0  0  0  0  0  0
    3.2339   -4.0618   -0.7266 O   0  0  0  0  0  0  0  0  0  0  0  0
    0.3813   -3.0640   -0.0639 C   0  0  1  0  0  0  0  0  0  0  0  0
   -0.0031   -2.6745    1.2850 O   0  0  0  0  0  0  0  0  0  0  0  0
    0.7151   -3.1446    2.3353 C   0  0  0  0  0  0  0  0  0  0  0  0
    0.1684   -2.5896    3.6138 C   0  0  0  0  0  0  0  0  0  0  0  0
    1.6890   -3.8793    2.2709 O   0  0  0  0  0  0  0  0  0  0  0  0
   -0.9154   -3.4754   -0.8319 C   0  0  1  0  0  0  0  0  0  0  0  0
   -1.4728   -4.7929   -0.2566 C   0  0  0  0  0  0  0  0  0  0  0  0
   -2.0159   -2.4307   -0.9001 C   0  0  0  0  0  0  0  0  0  0  0  0
   -2.7808   -2.0609    0.1428 C   0  0  0  0  0  0  0  0  0  0  0  0
   -3.8887   -1.0070    0.1944 C   0  0  0  0  0  0  0  0  0  0  0  0
   -4.6343   -0.8455   -1.1435 C   0  0  0  0  0  0  0  0  0  0  0  0
   -4.9375   -1.5137    1.2179 C   0  0  0  0  0  0  0  0  0  0  0  0
   -3.2456    0.3340    0.7043 C   0  0  2  0  0  0  0  0  0  0  0  0
   -4.2781    1.2539    1.1443 O   0  0  0  0  0  0  0  0  0  0  0  0
   -4.3546    1.5322    2.4725 C   0  0  0  0  0  0  0  0  0  0  0  0
   -5.4333    2.5427    2.7205 C   0  0  0  0  0  0  0  0  0  0  0  0
   -3.6581    1.0373    3.3465 O   0  0  0  0  0  0  0  0  0  0  0  0
   -3.8656    3.9426   -2.7011 H   0  0  0  0  0  0  0  0  0  0  0  0
   -3.7797    2.9954   -4.2026 H   0  0  0  0  0  0  0  0  0  0  0  0
   -4.9932    2.5718   -2.9782 H   0  0  0  0  0  0  0  0  0  0  0  0
   -1.9369    0.3159   -1.0327 H   0  0  0  0  0  0  0  0  0  0  0  0
   -1.7006    2.6714    0.8931 H   0  0  0  0  0  0  0  0  0  0  0  0
   -0.4402    5.0279   -2.8004 H   0  0  0  0  0  0  0  0  0  0  0  0
    0.9780    4.8645   -1.7242 H   0  0  0  0  0  0  0  0  0  0  0  0
    0.4767    3.5218   -2.8001 H   0  0  0  0  0  0  0  0  0  0  0  0
    0.6581    1.1466    3.1201 H   0  0  0  0  0  0  0  0  0  0  0  0
    0.0977    2.7187    2.5450 H   0  0  0  0  0  0  0  0  0  0  0  0
   -1.0712    1.4852    3.0682 H   0  0  0  0  0  0  0  0  0  0  0  0
    1.3474   -0.2109    1.4649 H   0  0  0  0  0  0  0  0  0  0  0  0
   -0.1537   -0.4709   -1.1613 H   0  0  0  0  0  0  0  0  0  0  0  0
    1.3340    1.1522   -1.9796 H   0  0  0  0  0  0  0  0  0  0  0  0
    4.8491    0.0591    0.6007 H   0  0  0  0  0  0  0  0  0  0  0  0
    6.7987    0.5061    2.0440 H   0  0  0  0  0  0  0  0  0  0  0  0
    7.5815    2.8327    2.4030 H   0  0  0  0  0  0  0  0  0  0  0  0
    6.4020    4.7231    1.3077 H   0  0  0  0  0  0  0  0  0  0  0  0
    4.4500    4.2924   -0.1468 H   0  0  0  0  0  0  0  0  0  0  0  0
    1.5949   -0.4377   -3.5674 H   0  0  0  0  0  0  0  0  0  0  0  0
    3.9966    0.1651   -3.3495 H   0  0  0  0  0  0  0  0  0  0  0  0
    3.7670   -1.5044   -3.8798 H   0  0  0  0  0  0  0  0  0  0  0  0
    4.2368   -1.1721   -2.2081 H   0  0  0  0  0  0  0  0  0  0  0  0
    0.6274   -2.2403   -2.7404 H   0  0  0  0  0  0  0  0  0  0  0  0
    2.2254   -2.9196   -2.4939 H   0  0  0  0  0  0  0  0  0  0  0  0
    4.9534   -3.8809    1.2017 H   0  0  0  0  0  0  0  0  0  0  0  0
    5.3824   -2.3707    0.3434 H   0  0  0  0  0  0  0  0  0  0  0  0
    4.3095   -2.3414    1.7768 H   0  0  0  0  0  0  0  0  0  0  0  0
    0.9594   -3.9905    0.0117 H   0  0  0  0  0  0  0  0  0  0  0  0
    0.4729   -3.2301    4.4461 H   0  0  0  0  0  0  0  0  0  0  0  0
   -0.9254   -2.5770    3.5848 H   0  0  0  0  0  0  0  0  0  0  0  0
    0.5528   -1.5788    3.7698 H   0  0  0  0  0  0  0  0  0  0  0  0
   -0.6403   -3.7151   -1.8659 H   0  0  0  0  0  0  0  0  0  0  0  0
   -2.3778   -5.1030   -0.7908 H   0  0  0  0  0  0  0  0  0  0  0  0
   -0.7369   -5.5980   -0.3633 H   0  0  0  0  0  0  0  0  0  0  0  0
   -1.7203   -4.7118    0.8072 H   0  0  0  0  0  0  0  0  0  0  0  0
   -2.1646   -1.9749   -1.8776 H   0  0  0  0  0  0  0  0  0  0  0  0
   -2.5723   -2.5267    1.1084 H   0  0  0  0  0  0  0  0  0  0  0  0
   -3.9721   -0.5840   -1.9719 H   0  0  0  0  0  0  0  0  0  0  0  0
   -5.4009   -0.0660   -1.0776 H   0  0  0  0  0  0  0  0  0  0  0  0
   -5.1368   -1.7776   -1.4276 H   0  0  0  0  0  0  0  0  0  0  0  0
   -5.3077   -2.5101    0.9469 H   0  0  0  0  0  0  0  0  0  0  0  0
   -4.5138   -1.5840    2.2271 H   0  0  0  0  0  0  0  0  0  0  0  0
   -5.8061   -0.8482    1.2691 H   0  0  0  0  0  0  0  0  0  0  0  0
   -2.6034    0.0622    1.5499 H   0  0  0  0  0  0  0  0  0  0  0  0
   -5.4952    2.7488    3.7925 H   0  0  0  0  0  0  0  0  0  0  0  0
   -6.3961    2.1481    2.3859 H   0  0  0  0  0  0  0  0  0  0  0  0
   -5.1943    3.4735    2.2006 H   0  0  0  0  0  0  0  0  0  0  0  0
  1  2  1  0
  2  3  2  0
  2  4  1  0
  4  5  1  0
  5  6  1  0
  6  7  1  0
  7  8  1  0
  8  9  1  0
  8 10  2  0
  6 11  1  0
 11 12  1  0
 11 13  2  0
 13 14  1  0
 14 15  1  0
 15 16  1  0
 16 17  1  0
 17 18  2  0
 17 19  1  0
 19 20  2  0
 20 21  1  0
 21 22  2  0
 22 23  1  0
 23 24  2  0
 15 25  1  0
 25 26  1  0
 25 27  1  0
 27 28  1  0
 28 29  1  1
 29 30  1  0
 30 31  1  0
 30 32  2  0
 28 33  1  0
 33 34  1  0
 34 35  1  0
 35 36  1  0
 35 37  2  0
 33 38  1  0
 38 39  1  0
 38 40  1  0
 40 41  2  0
 41 42  1  0
 42 43  1  0
 42 44  1  0
 42 45  1  0
 45 46  1  0
 46 47  1  0
 47 48  1  0
 47 49  2  0
 45  5  1  0
 28 14  1  0
 24 19  1  0
  1 50  1  0
  1 51  1  0
  1 52  1  0
  5 53  1  6
  6 54  1  1
  9 55  1  0
  9 56  1  0
  9 57  1  0
 12 58  1  0
 12 59  1  0
 12 60  1  0
 13 61  1  0
 14 62  1  6
 15 63  1  6
 20 64  1  0
 21 65  1  0
 22 66  1  0
 23 67  1  0
 24 68  1  0
 25 69  1  6
 26 70  1  0
 26 71  1  0
 26 72  1  0
 27 73  1  0
 27 74  1  0
 31 75  1  0
 31 76  1  0
 31 77  1  0
 33 78  1  1
 36 79  1  0
 36 80  1  0
 36 81  1  0
 38 82  1  6
 39 83  1  0
 39 84  1  0
 39 85  1  0
 40 86  1  0
 41 87  1  0
 43 88  1  0
 43 89  1  0
 43 90  1  0
 44 91  1  0
 44 92  1  0
 44 93  1  0
 45 94  1  1
 48 95  1  0
 48 96  1  0
 48 97  1  0
M  END
$$$$
