
     RDKit          3D

 60 64  0  0  0  0  0  0  0  0999 V2000
   -6.6265   -2.7643   -2.0506 C   0  0  0  0  0  0  0  0  0  0  0  0
   -6.2515   -1.6723   -1.0931 C   0  0  0  0  0  0  0  0  0  0  0  0
   -5.2976   -0.7122   -1.4475 C   0  0  0  0  0  0  0  0  0  0  0  0
   -4.9252    0.2845   -0.5425 C   0  0  0  0  0  0  0  0  0  0  0  0
   -5.4977    0.3358    0.7359 C   0  0  0  0  0  0  0  0  0  0  0  0
   -5.0871    1.4035    1.7182 C   0  0  0  0  0  0  0  0  0  0  0  0
   -4.0786    0.9199    2.6372 N   0  0  0  0  0  0  0  0  0  0  0  0
   -4.4182    0.4734    3.8729 N   0  0  0  0  0  0  0  0  0  0  0  0
   -3.2967    0.1113    4.4964 N   0  0  0  0  0  0  0  0  0  0  0  0
   -2.2645    0.3556    3.6447 C   0  0  0  0  0  0  0  0  0  0  0  0
   -0.8498    0.1543    3.7970 C   0  0  0  0  0  0  0  0  0  0  0  0
   -0.2893   -0.3028    4.7866 O   0  0  0  0  0  0  0  0  0  0  0  0
   -0.1425    0.5447    2.6661 N   0  0  0  0  0  0  0  0  0  0  0  0
   -0.7263    1.0770    1.5221 C   0  0  0  0  0  0  0  0  0  0  0  0
    0.2141    1.4429    0.3846 C   0  0  0  0  0  0  0  0  0  0  0  0
    0.9451    0.2070   -0.1498 C   0  0  0  0  0  0  0  0  0  0  0  0
    1.9138    0.5902   -1.2647 C   0  0  0  0  0  0  0  0  0  0  0  0
    2.8773    1.6000   -0.7405 N   0  0  0  0  0  0  0  0  0  0  0  0
    4.2107    1.9138   -1.7839 S   0  0  0  0  0  6  0  0  0  0  0  0
    3.6658    2.1527   -3.1041 O   0  0  0  0  0  0  0  0  0  0  0  0
    5.0699    2.8814   -1.1364 O   0  0  0  0  0  0  0  0  0  0  0  0
    5.0745    0.3648   -1.7920 C   0  0  0  0  0  0  0  0  0  0  0  0
    5.1968   -0.3657   -2.9754 C   0  0  0  0  0  0  0  0  0  0  0  0
    5.8759   -1.5852   -2.9597 C   0  0  0  0  0  0  0  0  0  0  0  0
    6.4450   -2.0677   -1.7723 C   0  0  0  0  0  0  0  0  0  0  0  0
    7.1498   -3.3930   -1.7552 C   0  0  0  0  0  0  0  0  0  0  0  0
    6.3076   -1.3248   -0.5914 C   0  0  0  0  0  0  0  0  0  0  0  0
    5.6301   -0.1051   -0.5993 C   0  0  0  0  0  0  0  0  0  0  0  0
    2.1777    2.8503   -0.3270 C   0  0  0  0  0  0  0  0  0  0  0  0
    1.2106    2.5263    0.8080 C   0  0  0  0  0  0  0  0  0  0  0  0
   -2.0087    1.2705    1.3774 N   0  0  0  0  0  0  0  0  0  0  0  0
   -2.7243    0.8857    2.4634 C   0  0  0  0  0  0  0  0  0  0  0  0
   -6.4360   -0.6408    1.0966 C   0  0  0  0  0  0  0  0  0  0  0  0
   -6.8068   -1.6370    0.1907 C   0  0  0  0  0  0  0  0  0  0  0  0
   -7.6763   -3.0491   -1.9236 H   0  0  0  0  0  0  0  0  0  0  0  0
   -6.5025   -2.4361   -3.0881 H   0  0  0  0  0  0  0  0  0  0  0  0
   -5.9966   -3.6431   -1.8812 H   0  0  0  0  0  0  0  0  0  0  0  0
   -4.8355   -0.7357   -2.4319 H   0  0  0  0  0  0  0  0  0  0  0  0
   -4.1765    1.0160   -0.8405 H   0  0  0  0  0  0  0  0  0  0  0  0
   -4.6817    2.2824    1.2037 H   0  0  0  0  0  0  0  0  0  0  0  0
   -5.9500    1.7458    2.3016 H   0  0  0  0  0  0  0  0  0  0  0  0
    0.8563    0.4163    2.7349 H   0  0  0  0  0  0  0  0  0  0  0  0
   -0.4038    1.8496   -0.4287 H   0  0  0  0  0  0  0  0  0  0  0  0
    0.2191   -0.5244   -0.5246 H   0  0  0  0  0  0  0  0  0  0  0  0
    1.5024   -0.2894    0.6547 H   0  0  0  0  0  0  0  0  0  0  0  0
    1.3662    0.9951   -2.1236 H   0  0  0  0  0  0  0  0  0  0  0  0
    2.4389   -0.3136   -1.5864 H   0  0  0  0  0  0  0  0  0  0  0  0
    4.7716    0.0022   -3.9064 H   0  0  0  0  0  0  0  0  0  0  0  0
    5.9657   -2.1561   -3.8819 H   0  0  0  0  0  0  0  0  0  0  0  0
    7.6332   -3.5906   -2.7177 H   0  0  0  0  0  0  0  0  0  0  0  0
    7.9325   -3.4096   -0.9896 H   0  0  0  0  0  0  0  0  0  0  0  0
    6.4341   -4.1941   -1.5471 H   0  0  0  0  0  0  0  0  0  0  0  0
    6.7353   -1.6904    0.3401 H   0  0  0  0  0  0  0  0  0  0  0  0
    5.5391    0.4731    0.3174 H   0  0  0  0  0  0  0  0  0  0  0  0
    2.9000    3.5867    0.0400 H   0  0  0  0  0  0  0  0  0  0  0  0
    1.6424    3.2852   -1.1791 H   0  0  0  0  0  0  0  0  0  0  0  0
    1.7847    2.2004    1.6844 H   0  0  0  0  0  0  0  0  0  0  0  0
    0.6726    3.4337    1.1074 H   0  0  0  0  0  0  0  0  0  0  0  0
   -6.8778   -0.6393    2.0920 H   0  0  0  0  0  0  0  0  0  0  0  0
   -7.5308   -2.3894    0.4967 H   0  0  0  0  0  0  0  0  0  0  0  0
  1  2  1  0
  2  3  2  0
  3  4  1  0
  4  5  2  0
  5  6  1  0
  6  7  1  0
  7  8  1  0
  8  9  2  0
  9 10  1  0
 10 11  1  0
 11 12  2  0
 11 13  1  0
 13 14  1  0
 14 15  1  0
 15 16  1  0
 16 17  1  0
 17 18  1  0
 18 19  1  0
 19 20  2  0
 19 21  2  0
 19 22  1  0
 22 23  2  0
 23 24  1  0
 24 25  2  0
 25 26  1  0
 25 27  1  0
 27 28  2  0
 18 29  1  0
 29 30  1  0
 14 31  2  0
 31 32  1  0
  5 33  1  0
 33 34  2  0
 34  2  1  0
 32  7  1  0
 32 10  2  0
 30 15  1  0
 28 22  1  0
  1 35  1  0
  1 36  1  0
  1 37  1  0
  3 38  1  0
  4 39  1  0
  6 40  1  0
  6 41  1  0
 13 42  1  0
 15 43  1  0
 16 44  1  0
 16 45  1  0
 17 46  1  0
 17 47  1  0
 23 48  1  0
 24 49  1  0
 26 50  1  0
 26 51  1  0
 26 52  1  0
 27 53  1  0
 28 54  1  0
 29 55  1  0
 29 56  1  0
 30 57  1  0
 30 58  1  0
 33 59  1  0
 34 60  1  0
M  END
$$$$
