
     RDKit          3D

 33 34  0  0  0  0  0  0  0  0999 V2000
   -6.6176    0.6843    0.0427 N   0  0  0  0  0  0  0  0  0  0  0  0
   -5.2420    0.6588    0.2919 C   0  0  0  0  0  0  0  0  0  0  0  0
   -4.3490    1.2044   -0.6338 C   0  0  0  0  0  0  0  0  0  0  0  0
   -2.9660    1.0796   -0.4571 C   0  0  0  0  0  0  0  0  0  0  0  0
   -2.4588    0.3658    0.6347 C   0  0  0  0  0  0  0  0  0  0  0  0
   -1.0000    0.1958    0.8739 C   0  0  0  0  0  0  0  0  0  0  0  0
   -0.5395   -0.4232    1.8201 O   0  0  0  0  0  0  0  0  0  0  0  0
   -0.2810    0.8130   -0.0969 O   0  0  0  0  0  0  0  0  0  0  0  0
    1.1477    0.7245    0.0409 C   0  0  0  0  0  0  0  0  0  0  0  0
    1.6603   -0.5937   -0.5368 C   0  0  0  0  0  0  0  0  0  0  0  0
    3.1616   -0.6931   -0.4666 C   0  0  0  0  0  0  0  0  0  0  0  0
    3.7848   -1.1454    0.7043 C   0  0  0  0  0  0  0  0  0  0  0  0
    5.1762   -1.2198    0.7806 C   0  0  0  0  0  0  0  0  0  0  0  0
    5.9563   -0.8398   -0.3100 C   0  0  0  0  0  0  0  0  0  0  0  0
    5.3459   -0.3842   -1.4773 C   0  0  0  0  0  0  0  0  0  0  0  0
    3.9544   -0.3088   -1.5558 C   0  0  0  0  0  0  0  0  0  0  0  0
   -3.3515   -0.2319    1.5319 C   0  0  0  0  0  0  0  0  0  0  0  0
   -4.7319   -0.1021    1.3462 C   0  0  0  0  0  0  0  0  0  0  0  0
   -6.9232    1.4750   -0.5158 H   0  0  0  0  0  0  0  0  0  0  0  0
   -7.1904    0.5541    0.8709 H   0  0  0  0  0  0  0  0  0  0  0  0
   -4.7230    1.7347   -1.5060 H   0  0  0  0  0  0  0  0  0  0  0  0
   -2.3019    1.5340   -1.1877 H   0  0  0  0  0  0  0  0  0  0  0  0
    1.5696    1.5701   -0.5144 H   0  0  0  0  0  0  0  0  0  0  0  0
    1.4454    0.8610    1.0883 H   0  0  0  0  0  0  0  0  0  0  0  0
    1.3220   -0.6975   -1.5760 H   0  0  0  0  0  0  0  0  0  0  0  0
    1.2102   -1.4458   -0.0123 H   0  0  0  0  0  0  0  0  0  0  0  0
    3.1874   -1.4431    1.5641 H   0  0  0  0  0  0  0  0  0  0  0  0
    5.6509   -1.5743    1.6917 H   0  0  0  0  0  0  0  0  0  0  0  0
    7.0397   -0.8987   -0.2499 H   0  0  0  0  0  0  0  0  0  0  0  0
    5.9545   -0.0874   -2.3274 H   0  0  0  0  0  0  0  0  0  0  0  0
    3.4935    0.0504   -2.4731 H   0  0  0  0  0  0  0  0  0  0  0  0
   -2.9789   -0.8137    2.3728 H   0  0  0  0  0  0  0  0  0  0  0  0
   -5.4057   -0.6028    2.0369 H   0  0  0  0  0  0  0  0  0  0  0  0
  1  2  1  0
  2  3  2  0
  3  4  1  0
  4  5  2  0
  5  6  1  0
  6  7  2  0
  6  8  1  0
  8  9  1  0
  9 10  1  0
 10 11  1  0
 11 12  2  0
 12 13  1  0
 13 14  2  0
 14 15  1  0
 15 16  2  0
  5 17  1  0
 17 18  2  0
 18  2  1  0
 16 11  1  0
  1 19  1  0
  1 20  1  0
  3 21  1  0
  4 22  1  0
  9 23  1  0
  9 24  1  0
 10 25  1  0
 10 26  1  0
 12 27  1  0
 13 28  1  0
 14 29  1  0
 15 30  1  0
 16 31  1  0
 17 32  1  0
 18 33  1  0
M  END
$$$$
