
     RDKit          3D

 55 58  0  0  0  0  0  0  0  0999 V2000
    8.2959    1.3478   -1.7502 C   0  0  0  0  0  0  0  0  0  0  0  0
    7.6854    0.8858   -0.5513 O   0  0  0  0  0  0  0  0  0  0  0  0
    6.3478    0.5970   -0.6085 C   0  0  0  0  0  0  0  0  0  0  0  0
    5.6067    0.4662   -1.7826 C   0  0  0  0  0  0  0  0  0  0  0  0
    4.2367    0.1780   -1.7238 C   0  0  0  0  0  0  0  0  0  0  0  0
    3.5862    0.0085   -0.4928 C   0  0  0  0  0  0  0  0  0  0  0  0
    2.1098   -0.2298   -0.4970 C   0  0  0  0  0  0  0  0  0  0  0  0
    1.5164   -0.9479    0.6785 C   0  0  0  0  0  0  0  0  0  0  0  0
    0.1765   -1.1029    0.6783 C   0  0  0  0  0  0  0  0  0  0  0  0
   -0.5747   -1.7943    1.7538 C   0  0  0  0  0  0  0  0  0  0  0  0
    0.2609   -2.2283    2.7412 F   0  0  0  0  0  0  0  0  0  0  0  0
   -1.2252   -2.9001    1.3115 F   0  0  0  0  0  0  0  0  0  0  0  0
   -1.4843   -0.9952    2.3682 F   0  0  0  0  0  0  0  0  0  0  0  0
   -0.5705   -0.6253   -0.3924 N   0  0  0  0  0  0  0  0  0  0  0  0
   -1.9149   -0.6633   -0.5682 N   0  0  0  0  0  0  0  0  0  0  0  0
   -2.1351   -0.0941   -1.7698 C   0  0  0  0  0  0  0  0  0  0  0  0
   -3.4724    0.0537   -2.3743 C   0  0  0  0  0  0  0  0  0  0  0  0
   -3.6050   -0.1149   -3.5893 O   0  0  0  0  0  0  0  0  0  0  0  0
   -4.5576    0.4114   -1.5569 N   0  0  0  0  0  0  0  0  0  0  0  0
   -5.8711    0.4992   -2.1785 C   0  0  0  0  0  0  0  0  0  0  0  0
   -4.4054    1.0922   -0.2670 C   0  0  0  0  0  0  0  0  0  0  0  0
   -5.2650    0.5049    0.8287 C   0  0  0  0  0  0  0  0  0  0  0  0
   -6.2152    1.2967    1.4933 C   0  0  0  0  0  0  0  0  0  0  0  0
   -7.0106    0.7522    2.5055 C   0  0  0  0  0  0  0  0  0  0  0  0
   -6.8646   -0.5868    2.8631 C   0  0  0  0  0  0  0  0  0  0  0  0
   -5.9123   -1.3794    2.2215 C   0  0  0  0  0  0  0  0  0  0  0  0
   -5.1145   -0.8365    1.2113 C   0  0  0  0  0  0  0  0  0  0  0  0
   -0.9180    0.2828   -2.3851 C   0  0  0  0  0  0  0  0  0  0  0  0
    0.0657   -0.0160   -1.4768 C   0  0  0  0  0  0  0  0  0  0  0  0
    1.4123    0.1861   -1.5178 N   0  0  0  0  0  0  0  0  0  0  0  0
    4.3236    0.1412    0.6859 C   0  0  0  0  0  0  0  0  0  0  0  0
    5.6952    0.4128    0.6188 C   0  0  0  0  0  0  0  0  0  0  0  0
    6.3803    0.6128    1.7926 O   0  0  0  0  0  0  0  0  0  0  0  0
    6.7760   -0.6393    2.3527 C   0  0  0  0  0  0  0  0  0  0  0  0
    9.3216    1.6423   -1.5084 H   0  0  0  0  0  0  0  0  0  0  0  0
    7.7765    2.2294   -2.1460 H   0  0  0  0  0  0  0  0  0  0  0  0
    8.3489    0.5488   -2.4991 H   0  0  0  0  0  0  0  0  0  0  0  0
    6.0565    0.6022   -2.7635 H   0  0  0  0  0  0  0  0  0  0  0  0
    3.6768    0.1003   -2.6558 H   0  0  0  0  0  0  0  0  0  0  0  0
    2.1458   -1.3386    1.4678 H   0  0  0  0  0  0  0  0  0  0  0  0
   -5.9159   -0.0552   -3.1251 H   0  0  0  0  0  0  0  0  0  0  0  0
   -6.6250    0.0792   -1.5010 H   0  0  0  0  0  0  0  0  0  0  0  0
   -6.1007    1.5556   -2.3779 H   0  0  0  0  0  0  0  0  0  0  0  0
   -3.3701    1.1342    0.0780 H   0  0  0  0  0  0  0  0  0  0  0  0
   -4.6826    2.1414   -0.4451 H   0  0  0  0  0  0  0  0  0  0  0  0
   -6.3397    2.3442    1.2340 H   0  0  0  0  0  0  0  0  0  0  0  0
   -7.7460    1.3726    3.0128 H   0  0  0  0  0  0  0  0  0  0  0  0
   -7.4841   -1.0102    3.6511 H   0  0  0  0  0  0  0  0  0  0  0  0
   -5.7905   -2.4226    2.5034 H   0  0  0  0  0  0  0  0  0  0  0  0
   -4.3722   -1.4663    0.7199 H   0  0  0  0  0  0  0  0  0  0  0  0
   -0.7835    0.7438   -3.3541 H   0  0  0  0  0  0  0  0  0  0  0  0
    3.8565    0.0892    1.6631 H   0  0  0  0  0  0  0  0  0  0  0  0
    7.2506   -1.2911    1.6100 H   0  0  0  0  0  0  0  0  0  0  0  0
    5.9151   -1.1399    2.8089 H   0  0  0  0  0  0  0  0  0  0  0  0
    7.5031   -0.4344    3.1432 H   0  0  0  0  0  0  0  0  0  0  0  0
  1  2  1  0
  2  3  1  0
  3  4  2  0
  4  5  1  0
  5  6  2  0
  6  7  1  0
  7  8  1  0
  8  9  2  0
  9 10  1  0
 10 11  1  0
 10 12  1  0
 10 13  1  0
  9 14  1  0
 14 15  1  0
 15 16  2  0
 16 17  1  0
 17 18  2  0
 17 19  1  0
 19 20  1  0
 19 21  1  0
 21 22  1  0
 22 23  2  0
 23 24  1  0
 24 25  2  0
 25 26  1  0
 26 27  2  0
 16 28  1  0
 28 29  2  0
 29 30  1  0
  6 31  1  0
 31 32  2  0
 32 33  1  0
 33 34  1  0
 32  3  1  0
 30  7  2  0
 29 14  1  0
 27 22  1  0
  1 35  1  0
  1 36  1  0
  1 37  1  0
  4 38  1  0
  5 39  1  0
  8 40  1  0
 20 41  1  0
 20 42  1  0
 20 43  1  0
 21 44  1  0
 21 45  1  0
 23 46  1  0
 24 47  1  0
 25 48  1  0
 26 49  1  0
 27 50  1  0
 28 51  1  0
 31 52  1  0
 34 53  1  0
 34 54  1  0
 34 55  1  0
M  END
$$$$
