
     RDKit          3D

 36 38  0  0  0  0  0  0  0  0999 V2000
   -3.7122    0.6320   -2.6493 C   0  0  0  0  0  0  0  0  0  0  0  0
   -2.7766    0.2960   -1.5305 C   0  0  0  0  0  0  0  0  0  0  0  0
   -1.4616    0.5264   -1.7246 N   0  0  0  0  0  0  0  0  0  0  0  0
   -0.6393    0.1990   -0.6959 C   0  0  0  0  0  0  0  0  0  0  0  0
    1.1029    0.5051   -0.9734 S   0  0  0  0  0  6  0  0  0  0  0  0
    1.2850    1.9468   -1.0647 O   0  0  0  0  0  0  0  0  0  0  0  0
    1.5395   -0.3837   -2.0408 O   0  0  0  0  0  0  0  0  0  0  0  0
    1.8524   -0.0518    0.5514 C   0  0  0  0  0  0  0  0  0  0  0  0
    3.3490    0.1358    0.4794 C   0  0  0  0  0  0  0  0  0  0  0  0
    3.9367    1.3418    0.8911 C   0  0  0  0  0  0  0  0  0  0  0  0
    5.3209    1.5155    0.8215 C   0  0  0  0  0  0  0  0  0  0  0  0
    6.1251    0.4864    0.3379 C   0  0  0  0  0  0  0  0  0  0  0  0
    7.8303    0.7004    0.2540 Cl  0  0  0  0  0  0  0  0  0  0  0  0
    5.5564   -0.7139   -0.0812 C   0  0  0  0  0  0  0  0  0  0  0  0
    4.1723   -0.8888   -0.0121 C   0  0  0  0  0  0  0  0  0  0  0  0
   -0.9692   -0.3327    0.5012 N   0  0  0  0  0  0  0  0  0  0  0  0
   -2.2850   -0.5249    0.6296 C   0  0  0  0  0  0  0  0  0  0  0  0
   -3.2270   -0.2286   -0.3422 C   0  0  0  0  0  0  0  0  0  0  0  0
   -4.6001   -0.6026    0.1010 C   0  0  0  0  0  0  0  0  0  0  0  0
   -4.3984   -0.7243    1.6198 C   0  0  0  0  0  0  0  0  0  0  0  0
   -2.9376   -1.1424    1.8350 C   0  0  0  0  0  0  0  0  0  0  0  0
   -3.1623    1.0157   -3.5148 H   0  0  0  0  0  0  0  0  0  0  0  0
   -4.2622   -0.2596   -2.9657 H   0  0  0  0  0  0  0  0  0  0  0  0
   -4.4234    1.4006   -2.3312 H   0  0  0  0  0  0  0  0  0  0  0  0
    1.6074   -1.1087    0.6964 H   0  0  0  0  0  0  0  0  0  0  0  0
    1.4351    0.5292    1.3800 H   0  0  0  0  0  0  0  0  0  0  0  0
    3.3204    2.1620    1.2561 H   0  0  0  0  0  0  0  0  0  0  0  0
    5.7624    2.4570    1.1374 H   0  0  0  0  0  0  0  0  0  0  0  0
    6.1817   -1.5130   -0.4700 H   0  0  0  0  0  0  0  0  0  0  0  0
    3.7419   -1.8270   -0.3585 H   0  0  0  0  0  0  0  0  0  0  0  0
   -4.8908   -1.5632   -0.3361 H   0  0  0  0  0  0  0  0  0  0  0  0
   -5.3461    0.1600   -0.1385 H   0  0  0  0  0  0  0  0  0  0  0  0
   -5.1054   -1.4207    2.0812 H   0  0  0  0  0  0  0  0  0  0  0  0
   -4.5632    0.2583    2.0837 H   0  0  0  0  0  0  0  0  0  0  0  0
   -2.8261   -2.2308    1.8004 H   0  0  0  0  0  0  0  0  0  0  0  0
   -2.5331   -0.7514    2.7722 H   0  0  0  0  0  0  0  0  0  0  0  0
  1  2  1  0
  2  3  2  0
  3  4  1  0
  4  5  1  0
  5  6  2  0
  5  7  2  0
  5  8  1  0
  8  9  1  0
  9 10  2  0
 10 11  1  0
 11 12  2  0
 12 13  1  0
 12 14  1  0
 14 15  2  0
  4 16  2  0
 16 17  1  0
 17 18  2  0
 18 19  1  0
 19 20  1  0
 20 21  1  0
 18  2  1  0
 15  9  1  0
 21 17  1  0
  1 22  1  0
  1 23  1  0
  1 24  1  0
  8 25  1  0
  8 26  1  0
 10 27  1  0
 11 28  1  0
 14 29  1  0
 15 30  1  0
 19 31  1  0
 19 32  1  0
 20 33  1  0
 20 34  1  0
 21 35  1  0
 21 36  1  0
M  END
$$$$
