
     RDKit          3D

 42 44  0  0  0  0  0  0  0  0999 V2000
   -4.3862   -3.2269   -0.1861 C   0  0  0  0  0  0  0  0  0  0  0  0
   -4.1837   -2.1372    0.7062 O   0  0  0  0  0  0  0  0  0  0  0  0
   -4.4944   -0.8806    0.2484 C   0  0  0  0  0  0  0  0  0  0  0  0
   -5.1276   -0.6111   -0.9691 C   0  0  0  0  0  0  0  0  0  0  0  0
   -5.4049    0.7077   -1.3469 C   0  0  0  0  0  0  0  0  0  0  0  0
   -5.0563    1.7679   -0.5119 C   0  0  0  0  0  0  0  0  0  0  0  0
   -4.4282    1.5130    0.7057 C   0  0  0  0  0  0  0  0  0  0  0  0
   -4.1427    0.1943    1.0911 C   0  0  0  0  0  0  0  0  0  0  0  0
   -3.4562   -0.0264    2.3701 C   0  0  0  0  0  0  0  0  0  0  0  0
   -2.1302   -0.0838    2.5675 C   0  0  0  0  0  0  0  0  0  0  0  0
   -1.0490    0.0600    1.5842 C   0  0  0  0  0  0  0  0  0  0  0  0
    0.2153   -0.0093    1.8497 N   0  0  0  0  0  0  0  0  0  0  0  0
    0.7907    0.1879    0.6219 C   0  0  0  0  0  0  0  0  0  0  0  0
    2.0969    0.2124    0.3258 C   0  0  0  0  0  0  0  0  0  0  0  0
    3.1525    0.0167    1.3002 C   0  0  0  0  0  0  0  0  0  0  0  0
    4.4750    0.0641    1.0674 C   0  0  0  0  0  0  0  0  0  0  0  0
    5.1208    0.3556   -0.2158 C   0  0  0  0  0  0  0  0  0  0  0  0
    5.8459   -0.6473   -0.8698 C   0  0  0  0  0  0  0  0  0  0  0  0
    6.4746   -0.3810   -2.0888 C   0  0  0  0  0  0  0  0  0  0  0  0
    6.3815    0.8885   -2.6588 C   0  0  0  0  0  0  0  0  0  0  0  0
    5.6661    1.8947   -2.0086 C   0  0  0  0  0  0  0  0  0  0  0  0
    5.0431    1.6312   -0.7875 C   0  0  0  0  0  0  0  0  0  0  0  0
   -0.2558    0.3884   -0.4129 C   0  0  0  0  0  0  0  0  0  0  0  0
   -0.1366    0.5970   -1.6036 O   0  0  0  0  0  0  0  0  0  0  0  0
   -1.4059    0.2890    0.3027 O   0  0  0  0  0  0  0  0  0  0  0  0
   -4.0489   -4.1393    0.3169 H   0  0  0  0  0  0  0  0  0  0  0  0
   -5.4495   -3.3545   -0.4201 H   0  0  0  0  0  0  0  0  0  0  0  0
   -3.7882   -3.1079   -1.0964 H   0  0  0  0  0  0  0  0  0  0  0  0
   -5.4137   -1.4036   -1.6531 H   0  0  0  0  0  0  0  0  0  0  0  0
   -5.8890    0.9060   -2.3002 H   0  0  0  0  0  0  0  0  0  0  0  0
   -5.2664    2.7920   -0.8123 H   0  0  0  0  0  0  0  0  0  0  0  0
   -4.1516    2.3479    1.3470 H   0  0  0  0  0  0  0  0  0  0  0  0
   -4.1265   -0.1754    3.2135 H   0  0  0  0  0  0  0  0  0  0  0  0
   -1.7674   -0.2690    3.5758 H   0  0  0  0  0  0  0  0  0  0  0  0
    2.3925    0.3797   -0.7085 H   0  0  0  0  0  0  0  0  0  0  0  0
    2.8274   -0.2059    2.3172 H   0  0  0  0  0  0  0  0  0  0  0  0
    5.1626   -0.1336    1.8873 H   0  0  0  0  0  0  0  0  0  0  0  0
    5.9206   -1.6424   -0.4384 H   0  0  0  0  0  0  0  0  0  0  0  0
    7.0358   -1.1646   -2.5931 H   0  0  0  0  0  0  0  0  0  0  0  0
    6.8676    1.0941   -3.6091 H   0  0  0  0  0  0  0  0  0  0  0  0
    5.5954    2.8862   -2.4504 H   0  0  0  0  0  0  0  0  0  0  0  0
    4.4944    2.4252   -0.2854 H   0  0  0  0  0  0  0  0  0  0  0  0
  1  2  1  0
  2  3  1  0
  3  4  2  0
  4  5  1  0
  5  6  2  0
  6  7  1  0
  7  8  2  0
  8  9  1  0
  9 10  2  3
 10 11  1  0
 11 12  2  0
 12 13  1  0
 13 14  2  3
 14 15  1  0
 15 16  2  3
 16 17  1  0
 17 18  2  0
 18 19  1  0
 19 20  2  0
 20 21  1  0
 21 22  2  0
 13 23  1  0
 23 24  2  0
 23 25  1  0
  8  3  1  0
 25 11  1  0
 22 17  1  0
  1 26  1  0
  1 27  1  0
  1 28  1  0
  4 29  1  0
  5 30  1  0
  6 31  1  0
  7 32  1  0
  9 33  1  0
 10 34  1  0
 14 35  1  0
 15 36  1  0
 16 37  1  0
 18 38  1  0
 19 39  1  0
 20 40  1  0
 21 41  1  0
 22 42  1  0
M  END
$$$$
