
     RDKit          3D

 34 35  0  0  0  0  0  0  0  0999 V2000
    4.8519   -0.6238    0.9279 C   0  0  0  0  0  0  0  0  0  0  0  0
    3.8643   -1.2754   -0.0218 C   0  0  0  0  0  0  0  0  0  0  0  0
    2.5315   -0.8399    0.2794 O   0  0  0  0  0  0  0  0  0  0  0  0
    2.1424    0.2956   -0.3330 C   0  0  0  0  0  0  0  0  0  0  0  0
    2.7824    1.0225   -1.0683 O   0  0  0  0  0  0  0  0  0  0  0  0
    0.7185    0.6178    0.0898 C   0  0  0  0  0  0  0  0  0  0  0  0
   -0.2233   -0.0402   -0.5000 N   0  0  0  0  0  0  0  0  0  0  0  0
   -1.5347    0.2138   -0.1542 N   0  0  0  0  0  0  0  0  0  0  0  0
   -2.4839   -0.5917   -0.8891 C   0  0  0  0  0  0  0  0  0  0  0  0
   -2.0279   -1.5163   -1.8521 C   0  0  0  0  0  0  0  0  0  0  0  0
   -2.9106   -2.3168   -2.5870 C   0  0  0  0  0  0  0  0  0  0  0  0
   -4.2792   -2.2141   -2.3775 C   0  0  0  0  0  0  0  0  0  0  0  0
   -4.7591   -1.3122   -1.4355 C   0  0  0  0  0  0  0  0  0  0  0  0
   -3.8719   -0.5117   -0.7012 C   0  0  0  0  0  0  0  0  0  0  0  0
   -1.8819    1.1638    0.8173 C   0  0  0  0  0  0  0  0  0  0  0  0
   -3.0202    1.4496    1.1845 O   0  0  0  0  0  0  0  0  0  0  0  0
   -0.7442    1.8902    1.4618 C   0  0  0  0  0  0  0  0  0  0  0  0
   -1.0813    2.8573    2.4523 C   0  0  0  0  0  0  0  0  0  0  0  0
   -1.2812    3.6565    3.2702 N   0  0  0  0  0  0  0  0  0  0  0  0
    0.5351    1.6495    1.1314 C   0  0  0  0  0  0  0  0  0  0  0  0
    1.7504    2.3107    1.7123 C   0  0  0  0  0  0  0  0  0  0  0  0
    5.8656   -0.9920    0.7465 H   0  0  0  0  0  0  0  0  0  0  0  0
    4.5804   -0.8328    1.9679 H   0  0  0  0  0  0  0  0  0  0  0  0
    4.8491    0.4646    0.8111 H   0  0  0  0  0  0  0  0  0  0  0  0
    3.8853   -2.3619    0.1121 H   0  0  0  0  0  0  0  0  0  0  0  0
    4.1227   -1.0734   -1.0678 H   0  0  0  0  0  0  0  0  0  0  0  0
   -0.9656   -1.6327   -2.0532 H   0  0  0  0  0  0  0  0  0  0  0  0
   -2.5219   -3.0174   -3.3214 H   0  0  0  0  0  0  0  0  0  0  0  0
   -4.9693   -2.8323   -2.9451 H   0  0  0  0  0  0  0  0  0  0  0  0
   -5.8294   -1.2236   -1.2641 H   0  0  0  0  0  0  0  0  0  0  0  0
   -4.3233    0.1664    0.0143 H   0  0  0  0  0  0  0  0  0  0  0  0
    2.4255    1.5630    2.1421 H   0  0  0  0  0  0  0  0  0  0  0  0
    1.5141    3.0191    2.5112 H   0  0  0  0  0  0  0  0  0  0  0  0
    2.2898    2.8675    0.9392 H   0  0  0  0  0  0  0  0  0  0  0  0
  1  2  1  0
  2  3  1  0
  3  4  1  0
  4  5  2  0
  4  6  1  0
  6  7  2  0
  7  8  1  0
  8  9  1  0
  9 10  2  0
 10 11  1  0
 11 12  2  0
 12 13  1  0
 13 14  2  0
  8 15  1  0
 15 16  2  0
 15 17  1  0
 17 18  1  0
 18 19  3  0
 17 20  2  0
 20 21  1  0
 20  6  1  0
 14  9  1  0
  1 22  1  0
  1 23  1  0
  1 24  1  0
  2 25  1  0
  2 26  1  0
 10 27  1  0
 11 28  1  0
 12 29  1  0
 13 30  1  0
 14 31  1  0
 21 32  1  0
 21 33  1  0
 21 34  1  0
M  END
$$$$
