
     RDKit          3D

 34 35  0  0  0  0  0  0  0  0999 V2000
    5.7976   -0.7648    1.8834 C   0  0  0  0  0  0  0  0  0  0  0  0
    5.2428    0.2972    1.1172 O   0  0  0  0  0  0  0  0  0  0  0  0
    4.1646   -0.0057    0.3326 C   0  0  0  0  0  0  0  0  0  0  0  0
    3.5458   -1.2521    0.2327 C   0  0  0  0  0  0  0  0  0  0  0  0
    2.4428   -1.4212   -0.6123 C   0  0  0  0  0  0  0  0  0  0  0  0
    1.9409   -0.3483   -1.3519 C   0  0  0  0  0  0  0  0  0  0  0  0
    0.8443   -0.5262   -2.2015 N   0  0  0  0  0  0  0  0  0  0  0  0
   -0.3581   -0.3602   -1.7377 C   0  0  0  0  0  0  0  0  0  0  0  0
   -0.7579    0.0672   -0.3516 C   0  0  0  0  0  0  0  0  0  0  0  0
   -1.9858   -0.6673    0.1285 C   0  0  0  0  0  0  0  0  0  0  0  0
   -1.9190   -1.8370    0.5035 O   0  0  0  0  0  0  0  0  0  0  0  0
   -3.3105    0.0211    0.1384 C   0  0  0  0  0  0  0  0  0  0  0  0
   -3.5839    1.1461   -0.6502 C   0  0  0  0  0  0  0  0  0  0  0  0
   -4.8487    1.7440   -0.6035 C   0  0  0  0  0  0  0  0  0  0  0  0
   -5.8406    1.2173    0.2226 C   0  0  0  0  0  0  0  0  0  0  0  0
   -7.3918    1.9576    0.2740 Cl  0  0  0  0  0  0  0  0  0  0  0  0
   -5.5828    0.0924    1.0015 C   0  0  0  0  0  0  0  0  0  0  0  0
   -4.3209   -0.5068    0.9566 C   0  0  0  0  0  0  0  0  0  0  0  0
    2.5734    0.8916   -1.2663 C   0  0  0  0  0  0  0  0  0  0  0  0
    3.6744    1.0625   -0.4234 C   0  0  0  0  0  0  0  0  0  0  0  0
    5.0734   -1.1468    2.6105 H   0  0  0  0  0  0  0  0  0  0  0  0
    6.1700   -1.5661    1.2366 H   0  0  0  0  0  0  0  0  0  0  0  0
    6.6496   -0.3646    2.4414 H   0  0  0  0  0  0  0  0  0  0  0  0
    3.8941   -2.1137    0.7919 H   0  0  0  0  0  0  0  0  0  0  0  0
    1.9686   -2.3960   -0.6935 H   0  0  0  0  0  0  0  0  0  0  0  0
   -1.1813   -0.4853   -2.4628 H   0  0  0  0  0  0  0  0  0  0  0  0
   -0.9214    1.1479   -0.3572 H   0  0  0  0  0  0  0  0  0  0  0  0
    0.0337   -0.1143    0.3805 H   0  0  0  0  0  0  0  0  0  0  0  0
   -2.8447    1.5713   -1.3224 H   0  0  0  0  0  0  0  0  0  0  0  0
   -5.0560    2.6170   -1.2184 H   0  0  0  0  0  0  0  0  0  0  0  0
   -6.3553   -0.3257    1.6420 H   0  0  0  0  0  0  0  0  0  0  0  0
   -4.1296   -1.3897    1.5654 H   0  0  0  0  0  0  0  0  0  0  0  0
    2.2131    1.7252   -1.8616 H   0  0  0  0  0  0  0  0  0  0  0  0
    4.1593    2.0334   -0.3613 H   0  0  0  0  0  0  0  0  0  0  0  0
  1  2  1  0
  2  3  1  0
  3  4  2  0
  4  5  1  0
  5  6  2  0
  6  7  1  0
  7  8  2  3
  8  9  1  0
  9 10  1  0
 10 11  2  0
 10 12  1  0
 12 13  2  0
 13 14  1  0
 14 15  2  0
 15 16  1  0
 15 17  1  0
 17 18  2  0
  6 19  1  0
 19 20  2  0
 20  3  1  0
 18 12  1  0
  1 21  1  0
  1 22  1  0
  1 23  1  0
  4 24  1  0
  5 25  1  0
  8 26  1  0
  9 27  1  0
  9 28  1  0
 13 29  1  0
 14 30  1  0
 17 31  1  0
 18 32  1  0
 19 33  1  0
 20 34  1  0
M  END
$$$$
