
     RDKit          3D

 39 40  0  0  0  0  0  0  0  0999 V2000
    0.1379    1.7349   -2.7378 C   0  0  0  0  0  0  0  0  0  0  0  0
   -0.2485    2.3169   -1.4035 C   0  0  0  0  0  0  0  0  0  0  0  0
    0.4973    3.0440   -0.7579 O   0  0  0  0  0  0  0  0  0  0  0  0
   -1.5104    1.9656   -0.9817 N   0  0  0  0  0  0  0  0  0  0  0  0
   -1.5858    1.3802    0.1803 C   0  0  0  0  0  0  0  0  0  0  0  0
   -2.9267    1.0419    0.7846 C   0  0  0  0  0  0  0  0  0  0  0  0
   -3.0765   -0.4317    1.0778 C   0  0  0  0  0  0  0  0  0  0  0  0
   -2.7951   -0.9323    2.3584 C   0  0  0  0  0  0  0  0  0  0  0  0
   -2.8877   -2.3004    2.6178 C   0  0  0  0  0  0  0  0  0  0  0  0
   -3.2661   -3.1799    1.6035 C   0  0  0  0  0  0  0  0  0  0  0  0
   -3.5517   -2.6932    0.3283 C   0  0  0  0  0  0  0  0  0  0  0  0
   -3.4532   -1.3252    0.0643 C   0  0  0  0  0  0  0  0  0  0  0  0
   -0.3810    0.9769    1.0155 C   0  0  0  0  0  0  0  0  0  0  0  0
   -0.1637    1.4401    2.1186 O   0  0  0  0  0  0  0  0  0  0  0  0
    0.2850    0.0190    0.3430 O   0  0  0  0  0  0  0  0  0  0  0  0
    1.4749   -0.4732    0.9632 C   0  0  0  0  0  0  0  0  0  0  0  0
    2.6357   -0.1396    0.0609 C   0  0  0  0  0  0  0  0  0  0  0  0
    3.2110    1.1391    0.1024 C   0  0  0  0  0  0  0  0  0  0  0  0
    4.2643    1.4741   -0.7497 C   0  0  0  0  0  0  0  0  0  0  0  0
    4.7562    0.5313   -1.6537 C   0  0  0  0  0  0  0  0  0  0  0  0
    4.1846   -0.7409   -1.7145 C   0  0  0  0  0  0  0  0  0  0  0  0
    3.1228   -1.0722   -0.8659 C   0  0  0  0  0  0  0  0  0  0  0  0
   -0.5299    2.1186   -3.5153 H   0  0  0  0  0  0  0  0  0  0  0  0
    0.0764    0.6430   -2.6898 H   0  0  0  0  0  0  0  0  0  0  0  0
    1.1657    2.0188   -2.9808 H   0  0  0  0  0  0  0  0  0  0  0  0
   -3.7270    1.3659    0.1064 H   0  0  0  0  0  0  0  0  0  0  0  0
   -3.0461    1.6292    1.7033 H   0  0  0  0  0  0  0  0  0  0  0  0
   -2.4954   -0.2608    3.1641 H   0  0  0  0  0  0  0  0  0  0  0  0
   -2.6636   -2.6796    3.6124 H   0  0  0  0  0  0  0  0  0  0  0  0
   -3.3367   -4.2477    1.8040 H   0  0  0  0  0  0  0  0  0  0  0  0
   -3.8500   -3.3805   -0.4620 H   0  0  0  0  0  0  0  0  0  0  0  0
   -3.6733   -0.9627   -0.9395 H   0  0  0  0  0  0  0  0  0  0  0  0
    1.6438   -0.0779    1.9746 H   0  0  0  0  0  0  0  0  0  0  0  0
    1.3693   -1.5593    1.0642 H   0  0  0  0  0  0  0  0  0  0  0  0
    2.8283    1.8892    0.7905 H   0  0  0  0  0  0  0  0  0  0  0  0
    4.6943    2.4733   -0.7164 H   0  0  0  0  0  0  0  0  0  0  0  0
    5.5778    0.7948   -2.3147 H   0  0  0  0  0  0  0  0  0  0  0  0
    4.5626   -1.4755   -2.4201 H   0  0  0  0  0  0  0  0  0  0  0  0
    2.6805   -2.0641   -0.9349 H   0  0  0  0  0  0  0  0  0  0  0  0
  1  2  1  0
  2  3  2  0
  2  4  1  0
  4  5  2  3
  5  6  1  0
  6  7  1  0
  7  8  2  0
  8  9  1  0
  9 10  2  0
 10 11  1  0
 11 12  2  0
  5 13  1  0
 13 14  2  0
 13 15  1  0
 15 16  1  0
 16 17  1  0
 17 18  2  0
 18 19  1  0
 19 20  2  0
 20 21  1  0
 21 22  2  0
 12  7  1  0
 22 17  1  0
  1 23  1  0
  1 24  1  0
  1 25  1  0
  6 26  1  0
  6 27  1  0
  8 28  1  0
  9 29  1  0
 10 30  1  0
 11 31  1  0
 12 32  1  0
 16 33  1  0
 16 34  1  0
 18 35  1  0
 19 36  1  0
 20 37  1  0
 21 38  1  0
 22 39  1  0
M  END
$$$$
