
     RDKit          3D

 45 47  0  0  0  0  0  0  0  0999 V2000
    8.3515   -0.0999    1.4474 C   0  0  0  0  0  0  0  0  0  0  0  0
    7.3833   -0.9681    0.6593 C   0  0  0  0  0  0  0  0  0  0  0  0
    7.1097   -0.4524   -0.7578 C   0  0  0  0  0  0  0  0  0  0  0  0
    6.4723    0.9379   -0.8411 C   0  0  0  0  0  0  0  0  0  0  0  0
    5.1205    1.0000   -0.2084 C   0  0  0  0  0  0  0  0  0  0  0  0
    4.8853    1.4111    1.0208 N   0  0  0  0  0  0  0  0  0  0  0  0
    3.5420    1.3591    1.3331 N   0  0  0  0  0  0  0  0  0  0  0  0
    2.8154    0.9181    0.3302 C   0  0  0  0  0  0  0  0  0  0  0  0
    1.4526    0.7892    0.4296 N   0  0  0  0  0  0  0  0  0  0  0  0
    0.5872    0.3386   -0.5492 C   0  0  0  0  0  0  0  0  0  0  0  0
    0.8955   -0.0243   -1.6790 O   0  0  0  0  0  0  0  0  0  0  0  0
   -0.8661    0.3392   -0.0531 C   0  0  0  0  0  0  0  0  0  0  0  0
   -1.7559   -0.1236   -1.0576 O   0  0  0  0  0  0  0  0  0  0  0  0
   -3.0845   -0.1732   -0.7455 C   0  0  0  0  0  0  0  0  0  0  0  0
   -3.9076   -0.6369   -1.7748 C   0  0  0  0  0  0  0  0  0  0  0  0
   -5.2938   -0.7421   -1.6001 C   0  0  0  0  0  0  0  0  0  0  0  0
   -5.8855   -0.3833   -0.3857 C   0  0  0  0  0  0  0  0  0  0  0  0
   -7.3290   -0.4653   -0.1261 C   0  0  0  0  0  0  0  0  0  0  0  0
   -8.2613   -0.9560   -1.1941 C   0  0  0  0  0  0  0  0  0  0  0  0
   -7.7810   -0.0925    1.0803 C   0  0  0  0  0  0  0  0  0  0  0  0
   -6.9084    0.3949    2.1593 C   0  0  0  0  0  0  0  0  0  0  0  0
   -7.3752    0.7228    3.2439 O   0  0  0  0  0  0  0  0  0  0  0  0
   -5.5534    0.4613    1.8860 O   0  0  0  0  0  0  0  0  0  0  0  0
   -5.0441    0.0774    0.6289 C   0  0  0  0  0  0  0  0  0  0  0  0
   -3.6588    0.1876    0.4686 C   0  0  0  0  0  0  0  0  0  0  0  0
    3.7077    0.5342   -1.0670 S   0  0  0  0  0  0  0  0  0  0  0  0
    8.5874   -0.5753    2.4050 H   0  0  0  0  0  0  0  0  0  0  0  0
    9.2886    0.0411    0.8997 H   0  0  0  0  0  0  0  0  0  0  0  0
    7.9246    0.8836    1.6638 H   0  0  0  0  0  0  0  0  0  0  0  0
    7.8073   -1.9767    0.5808 H   0  0  0  0  0  0  0  0  0  0  0  0
    6.4459   -1.0698    1.2173 H   0  0  0  0  0  0  0  0  0  0  0  0
    6.4687   -1.1806   -1.2708 H   0  0  0  0  0  0  0  0  0  0  0  0
    8.0562   -0.4319   -1.3129 H   0  0  0  0  0  0  0  0  0  0  0  0
    7.1251    1.6835   -0.3730 H   0  0  0  0  0  0  0  0  0  0  0  0
    6.3975    1.2292   -1.8965 H   0  0  0  0  0  0  0  0  0  0  0  0
    1.0973    1.0656    1.3348 H   0  0  0  0  0  0  0  0  0  0  0  0
   -0.9132   -0.3196    0.8227 H   0  0  0  0  0  0  0  0  0  0  0  0
   -1.1168    1.3705    0.2242 H   0  0  0  0  0  0  0  0  0  0  0  0
   -3.4643   -0.9210   -2.7278 H   0  0  0  0  0  0  0  0  0  0  0  0
   -5.8870   -1.1087   -2.4336 H   0  0  0  0  0  0  0  0  0  0  0  0
   -9.3031   -0.9612   -0.8542 H   0  0  0  0  0  0  0  0  0  0  0  0
   -8.0118   -1.9812   -1.4874 H   0  0  0  0  0  0  0  0  0  0  0  0
   -8.2131   -0.3119   -2.0786 H   0  0  0  0  0  0  0  0  0  0  0  0
   -8.8342   -0.1290    1.3354 H   0  0  0  0  0  0  0  0  0  0  0  0
   -3.0733    0.5539    1.3036 H   0  0  0  0  0  0  0  0  0  0  0  0
  1  2  1  0
  2  3  1  0
  3  4  1  0
  4  5  1  0
  5  6  2  0
  6  7  1  0
  7  8  2  0
  8  9  1  0
  9 10  1  0
 10 11  2  0
 10 12  1  0
 12 13  1  0
 13 14  1  0
 14 15  2  0
 15 16  1  0
 16 17  2  0
 17 18  1  0
 18 19  1  0
 18 20  2  0
 20 21  1  0
 21 22  2  0
 21 23  1  0
 23 24  1  0
 24 25  2  0
  8 26  1  0
 26  5  1  0
 25 14  1  0
 24 17  1  0
  1 27  1  0
  1 28  1  0
  1 29  1  0
  2 30  1  0
  2 31  1  0
  3 32  1  0
  3 33  1  0
  4 34  1  0
  4 35  1  0
  9 36  1  0
 12 37  1  0
 12 38  1  0
 15 39  1  0
 16 40  1  0
 19 41  1  0
 19 42  1  0
 19 43  1  0
 20 44  1  0
 25 45  1  0
M  END
$$$$
