
     RDKit          3D

 50 52  0  0  0  0  0  0  0  0999 V2000
    7.9706    0.9286    1.6744 C   0  0  0  0  0  0  0  0  0  0  0  0
    7.9207   -0.4992    1.4116 N   0  0  0  0  0  0  0  0  0  0  0  0
    6.8874   -1.4913    2.2736 S   0  0  0  0  0  6  0  0  0  0  0  0
    7.1246   -1.2760    3.6837 O   0  0  0  0  0  0  0  0  0  0  0  0
    6.9770   -2.8035    1.6731 O   0  0  0  0  0  0  0  0  0  0  0  0
    5.2902   -0.8207    1.8719 C   0  0  0  0  0  0  0  0  0  0  0  0
    4.6177   -0.0164    2.7977 C   0  0  0  0  0  0  0  0  0  0  0  0
    3.3585    0.5000    2.4778 C   0  0  0  0  0  0  0  0  0  0  0  0
    2.7689    0.1997    1.2408 C   0  0  0  0  0  0  0  0  0  0  0  0
    1.4355    0.7394    0.8532 C   0  0  0  0  0  0  0  0  0  0  0  0
    1.1348    0.8597   -0.3297 O   0  0  0  0  0  0  0  0  0  0  0  0
    0.5738    1.0504    1.8850 N   0  0  0  0  0  0  0  0  0  0  0  0
   -0.8044    1.3906    1.5845 C   0  0  0  0  0  0  0  0  0  0  0  0
   -1.6324    0.1051    1.5491 C   0  0  0  0  0  0  0  0  0  0  0  0
   -1.5737   -0.7321    2.4487 O   0  0  0  0  0  0  0  0  0  0  0  0
   -2.4437   -0.0246    0.4413 N   0  0  0  0  0  0  0  0  0  0  0  0
   -3.1554   -1.2696    0.1922 C   0  0  0  0  0  0  0  0  0  0  0  0
   -4.3036   -1.1055   -0.8081 C   0  0  0  0  0  0  0  0  0  0  0  0
   -5.3884   -0.1692   -0.2806 C   0  0  0  0  0  0  0  0  0  0  0  0
   -6.4948   -0.1199   -1.1918 O   0  0  0  0  0  0  0  0  0  0  0  0
   -6.0686    0.0429   -2.4854 C   0  0  0  0  0  0  0  0  0  0  0  0
   -7.0284    0.4372   -3.4159 C   0  0  0  0  0  0  0  0  0  0  0  0
   -6.6626    0.6430   -4.7475 C   0  0  0  0  0  0  0  0  0  0  0  0
   -5.3387    0.4511   -5.1469 C   0  0  0  0  0  0  0  0  0  0  0  0
   -4.3800    0.0426   -4.2179 C   0  0  0  0  0  0  0  0  0  0  0  0
   -4.7479   -0.1755   -2.8913 C   0  0  0  0  0  0  0  0  0  0  0  0
   -3.7587   -0.5966   -2.0400 O   0  0  0  0  0  0  0  0  0  0  0  0
    3.4531   -0.6092    0.3213 C   0  0  0  0  0  0  0  0  0  0  0  0
    4.7102   -1.1293    0.6379 C   0  0  0  0  0  0  0  0  0  0  0  0
    7.7533    1.1616    2.7196 H   0  0  0  0  0  0  0  0  0  0  0  0
    7.2633    1.4550    1.0285 H   0  0  0  0  0  0  0  0  0  0  0  0
    8.9759    1.2969    1.4526 H   0  0  0  0  0  0  0  0  0  0  0  0
    8.2223   -0.8612    0.5089 H   0  0  0  0  0  0  0  0  0  0  0  0
    5.0663    0.2153    3.7622 H   0  0  0  0  0  0  0  0  0  0  0  0
    2.8611    1.1493    3.1939 H   0  0  0  0  0  0  0  0  0  0  0  0
    0.7221    0.5861    2.7738 H   0  0  0  0  0  0  0  0  0  0  0  0
   -1.1835    2.0213    2.3946 H   0  0  0  0  0  0  0  0  0  0  0  0
   -0.8709    1.9412    0.6413 H   0  0  0  0  0  0  0  0  0  0  0  0
   -2.1465    0.4798   -0.3909 H   0  0  0  0  0  0  0  0  0  0  0  0
   -2.4112   -1.9693   -0.2065 H   0  0  0  0  0  0  0  0  0  0  0  0
   -3.5251   -1.6745    1.1410 H   0  0  0  0  0  0  0  0  0  0  0  0
   -4.7308   -2.0961   -1.0176 H   0  0  0  0  0  0  0  0  0  0  0  0
   -5.0186    0.8544   -0.1387 H   0  0  0  0  0  0  0  0  0  0  0  0
   -5.7736   -0.5263    0.6804 H   0  0  0  0  0  0  0  0  0  0  0  0
   -8.0569    0.5941   -3.1024 H   0  0  0  0  0  0  0  0  0  0  0  0
   -7.4096    0.9565   -5.4727 H   0  0  0  0  0  0  0  0  0  0  0  0
   -5.0542    0.6149   -6.1835 H   0  0  0  0  0  0  0  0  0  0  0  0
   -3.3516   -0.1161   -4.5307 H   0  0  0  0  0  0  0  0  0  0  0  0
    3.0014   -0.8422   -0.6421 H   0  0  0  0  0  0  0  0  0  0  0  0
    5.2250   -1.7705   -0.0748 H   0  0  0  0  0  0  0  0  0  0  0  0
  1  2  1  0
  2  3  1  0
  3  4  2  0
  3  5  2  0
  3  6  1  0
  6  7  2  0
  7  8  1  0
  8  9  2  0
  9 10  1  0
 10 11  2  0
 10 12  1  0
 12 13  1  0
 13 14  1  0
 14 15  2  0
 14 16  1  0
 16 17  1  0
 17 18  1  0
 18 19  1  0
 19 20  1  0
 20 21  1  0
 21 22  2  0
 22 23  1  0
 23 24  2  0
 24 25  1  0
 25 26  2  0
 26 27  1  0
  9 28  1  0
 28 29  2  0
 29  6  1  0
 27 18  1  0
 26 21  1  0
  1 30  1  0
  1 31  1  0
  1 32  1  0
  2 33  1  0
  7 34  1  0
  8 35  1  0
 12 36  1  0
 13 37  1  0
 13 38  1  0
 16 39  1  0
 17 40  1  0
 17 41  1  0
 18 42  1  0
 19 43  1  0
 19 44  1  0
 22 45  1  0
 23 46  1  0
 24 47  1  0
 25 48  1  0
 28 49  1  0
 29 50  1  0
M  END
$$$$
