
     RDKit          3D

 43 45  0  0  0  0  0  0  0  0999 V2000
    7.4126   -2.6093   -0.9212 O   0  0  0  0  0  0  0  0  0  0  0  0
    8.0012   -1.6722   -0.4095 C   0  0  0  0  0  0  0  0  0  0  0  0
    9.3448   -1.5816   -0.5231 O   0  0  0  0  0  0  0  0  0  0  0  0
    7.4329   -0.5482    0.4223 C   0  0  0  0  0  0  0  0  0  0  0  0
    5.9318   -0.4115    0.3320 C   0  0  0  0  0  0  0  0  0  0  0  0
    5.3534    0.6061   -0.4355 C   0  0  0  0  0  0  0  0  0  0  0  0
    3.9619    0.7336   -0.5237 C   0  0  0  0  0  0  0  0  0  0  0  0
    3.1243   -0.1579    0.1456 C   0  0  0  0  0  0  0  0  0  0  0  0
    1.7152   -0.0966    0.1097 N   0  0  0  0  0  0  0  0  0  0  0  0
    0.9315    0.7770   -0.6221 C   0  0  0  0  0  0  0  0  0  0  0  0
    1.3134    1.6243   -1.4191 O   0  0  0  0  0  0  0  0  0  0  0  0
   -0.5349    0.6171   -0.4142 C   0  0  0  0  0  0  0  0  0  0  0  0
   -1.0737    0.3516    0.8483 C   0  0  0  0  0  0  0  0  0  0  0  0
   -2.4586    0.2160    1.0009 C   0  0  0  0  0  0  0  0  0  0  0  0
   -3.3213    0.3465   -0.0976 C   0  0  0  0  0  0  0  0  0  0  0  0
   -4.7018    0.1936    0.1524 N   0  0  0  0  0  0  0  0  0  0  0  0
   -5.7453    0.2322   -0.7655 C   0  0  0  0  0  0  0  0  0  0  0  0
   -5.5923    0.3818   -1.9740 O   0  0  0  0  0  0  0  0  0  0  0  0
   -7.0663    0.0656   -0.1679 C   0  0  0  0  0  0  0  0  0  0  0  0
   -7.5257   -0.0457    1.1361 C   0  0  0  0  0  0  0  0  0  0  0  0
   -8.9350   -0.1872    1.0703 C   0  0  0  0  0  0  0  0  0  0  0  0
   -9.2589   -0.1530   -0.2629 C   0  0  0  0  0  0  0  0  0  0  0  0
   -8.1433   -0.0003   -1.0166 O   0  0  0  0  0  0  0  0  0  0  0  0
   -2.7745    0.6293   -1.3510 C   0  0  0  0  0  0  0  0  0  0  0  0
   -1.3900    0.7708   -1.5083 C   0  0  0  0  0  0  0  0  0  0  0  0
    3.7013   -1.1780    0.9113 C   0  0  0  0  0  0  0  0  0  0  0  0
    5.0910   -1.3051    1.0045 C   0  0  0  0  0  0  0  0  0  0  0  0
    9.5836   -2.3596   -1.0705 H   0  0  0  0  0  0  0  0  0  0  0  0
    7.7176   -0.7146    1.4678 H   0  0  0  0  0  0  0  0  0  0  0  0
    7.9022    0.3891    0.0997 H   0  0  0  0  0  0  0  0  0  0  0  0
    5.9762    1.3153   -0.9770 H   0  0  0  0  0  0  0  0  0  0  0  0
    3.5652    1.5429   -1.1288 H   0  0  0  0  0  0  0  0  0  0  0  0
    1.2354   -0.8221    0.6251 H   0  0  0  0  0  0  0  0  0  0  0  0
   -0.4358    0.2794    1.7251 H   0  0  0  0  0  0  0  0  0  0  0  0
   -2.8510    0.0151    1.9949 H   0  0  0  0  0  0  0  0  0  0  0  0
   -4.9529    0.0153    1.1129 H   0  0  0  0  0  0  0  0  0  0  0  0
   -6.9325   -0.0228    2.0384 H   0  0  0  0  0  0  0  0  0  0  0  0
   -9.6291   -0.2969    1.8919 H   0  0  0  0  0  0  0  0  0  0  0  0
  -10.1877   -0.2189   -0.8129 H   0  0  0  0  0  0  0  0  0  0  0  0
   -3.3932    0.7575   -2.2342 H   0  0  0  0  0  0  0  0  0  0  0  0
   -0.9838    1.0010   -2.4920 H   0  0  0  0  0  0  0  0  0  0  0  0
    3.0812   -1.8952    1.4421 H   0  0  0  0  0  0  0  0  0  0  0  0
    5.5108   -2.1157    1.5965 H   0  0  0  0  0  0  0  0  0  0  0  0
  1  2  2  0
  2  3  1  0
  2  4  1  0
  4  5  1  0
  5  6  2  0
  6  7  1  0
  7  8  2  0
  8  9  1  0
  9 10  1  0
 10 11  2  0
 10 12  1  0
 12 13  2  0
 13 14  1  0
 14 15  2  0
 15 16  1  0
 16 17  1  0
 17 18  2  0
 17 19  1  0
 19 20  2  0
 20 21  1  0
 21 22  2  0
 22 23  1  0
 15 24  1  0
 24 25  2  0
  8 26  1  0
 26 27  2  0
 27  5  1  0
 25 12  1  0
 23 19  1  0
  3 28  1  0
  4 29  1  0
  4 30  1  0
  6 31  1  0
  7 32  1  0
  9 33  1  0
 13 34  1  0
 14 35  1  0
 16 36  1  0
 20 37  1  0
 21 38  1  0
 22 39  1  0
 24 40  1  0
 25 41  1  0
 26 42  1  0
 27 43  1  0
M  END
$$$$
