
     RDKit          3D

 37 39  0  0  0  0  0  0  0  0999 V2000
    6.3803    1.6563   -1.0516 C   0  0  0  0  0  0  0  0  0  0  0  0
    6.5286    0.6468    0.0787 C   0  0  0  0  0  0  0  0  0  0  0  0
    5.8482   -0.6921   -0.2139 C   0  0  0  0  0  0  0  0  0  0  0  0
    4.3587   -0.5891   -0.2705 C   0  0  0  0  0  0  0  0  0  0  0  0
    3.6583   -0.4388   -1.3758 N   0  0  0  0  0  0  0  0  0  0  0  0
    2.3029   -0.3750   -1.1218 N   0  0  0  0  0  0  0  0  0  0  0  0
    2.0310   -0.4850    0.1597 C   0  0  0  0  0  0  0  0  0  0  0  0
    0.7491   -0.4491    0.6397 N   0  0  0  0  0  0  0  0  0  0  0  0
    0.3383   -0.5517    1.9477 C   0  0  0  0  0  0  0  0  0  0  0  0
    1.0503   -0.6960    2.9375 O   0  0  0  0  0  0  0  0  0  0  0  0
   -1.1839   -0.4676    2.1005 C   0  0  0  0  0  0  0  0  0  0  0  0
   -1.8214   -0.2997    0.8368 O   0  0  0  0  0  0  0  0  0  0  0  0
   -3.1875   -0.2104    0.8364 C   0  0  0  0  0  0  0  0  0  0  0  0
   -4.0149   -0.2701    1.9741 C   0  0  0  0  0  0  0  0  0  0  0  0
   -5.4068   -0.1668    1.8507 C   0  0  0  0  0  0  0  0  0  0  0  0
   -5.9320   -0.0061    0.5879 C   0  0  0  0  0  0  0  0  0  0  0  0
   -5.1280    0.0526   -0.5238 C   0  0  0  0  0  0  0  0  0  0  0  0
   -3.7560   -0.0463   -0.4324 C   0  0  0  0  0  0  0  0  0  0  0  0
   -5.8400    0.2139   -1.6710 O   0  0  0  0  0  0  0  0  0  0  0  0
   -7.1861    0.2499   -1.1524 C   0  0  0  0  0  0  0  0  0  0  0  0
   -7.2511    0.1106    0.2826 O   0  0  0  0  0  0  0  0  0  0  0  0
    3.4011   -0.6747    1.1529 S   0  0  0  0  0  0  0  0  0  0  0  0
    6.9487    2.5633   -0.8217 H   0  0  0  0  0  0  0  0  0  0  0  0
    6.7598    1.2492   -1.9941 H   0  0  0  0  0  0  0  0  0  0  0  0
    5.3351    1.9464   -1.1959 H   0  0  0  0  0  0  0  0  0  0  0  0
    6.1389    1.0829    1.0061 H   0  0  0  0  0  0  0  0  0  0  0  0
    7.5981    0.4644    0.2391 H   0  0  0  0  0  0  0  0  0  0  0  0
    6.1386   -1.4167    0.5570 H   0  0  0  0  0  0  0  0  0  0  0  0
    6.2169   -1.0937   -1.1658 H   0  0  0  0  0  0  0  0  0  0  0  0
    0.0348   -0.3315   -0.0708 H   0  0  0  0  0  0  0  0  0  0  0  0
   -1.3935    0.3927    2.7466 H   0  0  0  0  0  0  0  0  0  0  0  0
   -1.5108   -1.4042    2.5670 H   0  0  0  0  0  0  0  0  0  0  0  0
   -3.6079   -0.3966    2.9727 H   0  0  0  0  0  0  0  0  0  0  0  0
   -6.0530   -0.2116    2.7205 H   0  0  0  0  0  0  0  0  0  0  0  0
   -3.1400    0.0026   -1.3234 H   0  0  0  0  0  0  0  0  0  0  0  0
   -7.7602   -0.5640   -1.6100 H   0  0  0  0  0  0  0  0  0  0  0  0
   -7.6446    1.2052   -1.4330 H   0  0  0  0  0  0  0  0  0  0  0  0
  1  2  1  0
  2  3  1  0
  3  4  1  0
  4  5  2  0
  5  6  1  0
  6  7  2  0
  7  8  1  0
  8  9  1  0
  9 10  2  0
  9 11  1  0
 11 12  1  0
 12 13  1  0
 13 14  2  0
 14 15  1  0
 15 16  2  0
 16 17  1  0
 17 18  2  0
 17 19  1  0
 19 20  1  0
 20 21  1  0
  7 22  1  0
 22  4  1  0
 18 13  1  0
 21 16  1  0
  1 23  1  0
  1 24  1  0
  1 25  1  0
  2 26  1  0
  2 27  1  0
  3 28  1  0
  3 29  1  0
  8 30  1  0
 11 31  1  0
 11 32  1  0
 14 33  1  0
 15 34  1  0
 18 35  1  0
 20 36  1  0
 20 37  1  0
M  END
$$$$
