
     RDKit          3D

 37 38  0  0  0  0  0  0  0  0999 V2000
    0.8030    1.2802   -2.8672 O   0  0  0  0  0  0  0  0  0  0  0  0
    0.4552    0.2099   -2.3775 C   0  0  0  0  0  0  0  0  0  0  0  0
   -0.8032   -0.5292   -2.8361 C   0  0  0  0  0  0  0  0  0  0  0  0
   -1.9658   -0.1574   -2.0925 O   0  0  0  0  0  0  0  0  0  0  0  0
   -2.0537   -0.6805   -0.8487 C   0  0  0  0  0  0  0  0  0  0  0  0
   -1.2370   -1.4299   -0.3268 O   0  0  0  0  0  0  0  0  0  0  0  0
   -3.2880   -0.2364   -0.1524 C   0  0  0  0  0  0  0  0  0  0  0  0
   -4.1697    0.6848   -0.7398 C   0  0  0  0  0  0  0  0  0  0  0  0
   -5.3246    1.0872   -0.0606 C   0  0  0  0  0  0  0  0  0  0  0  0
   -5.6023    0.5733    1.2053 C   0  0  0  0  0  0  0  0  0  0  0  0
   -7.0246    1.0723    2.0343 Cl  0  0  0  0  0  0  0  0  0  0  0  0
   -4.7357   -0.3389    1.8016 C   0  0  0  0  0  0  0  0  0  0  0  0
   -3.5834   -0.7401    1.1249 C   0  0  0  0  0  0  0  0  0  0  0  0
   -2.7877   -1.6382    1.7869 O   0  0  0  0  0  0  0  0  0  0  0  0
    1.1448   -0.4287   -1.3653 N   0  0  0  0  0  0  0  0  0  0  0  0
    2.2594    0.2313   -0.7085 C   0  0  0  0  0  0  0  0  0  0  0  0
    3.1064   -0.7437    0.1123 C   0  0  0  0  0  0  0  0  0  0  0  0
    4.1892   -0.0795    0.8127 N   0  0  0  0  0  0  0  0  0  0  0  0
    4.0356    0.5483    2.0234 C   0  0  0  0  0  0  0  0  0  0  0  0
    2.8169    0.5158    2.6314 O   0  0  0  0  0  0  0  0  0  0  0  0
    5.1386    1.1502    2.4824 C   0  0  0  0  0  0  0  0  0  0  0  0
    6.4637    0.9644    1.3729 S   0  0  0  0  0  0  0  0  0  0  0  0
    5.4477    0.0439    0.2455 C   0  0  0  0  0  0  0  0  0  0  0  0
    5.8380   -0.3765   -0.8305 O   0  0  0  0  0  0  0  0  0  0  0  0
   -0.9815   -0.2716   -3.8856 H   0  0  0  0  0  0  0  0  0  0  0  0
   -0.6480   -1.6145   -2.8029 H   0  0  0  0  0  0  0  0  0  0  0  0
   -3.9734    1.1038   -1.7241 H   0  0  0  0  0  0  0  0  0  0  0  0
   -6.0013    1.8016   -0.5245 H   0  0  0  0  0  0  0  0  0  0  0  0
   -4.9492   -0.7405    2.7886 H   0  0  0  0  0  0  0  0  0  0  0  0
   -2.0040   -1.8434    1.2336 H   0  0  0  0  0  0  0  0  0  0  0  0
    0.5877   -1.0735   -0.8043 H   0  0  0  0  0  0  0  0  0  0  0  0
    1.8380    1.0156   -0.0687 H   0  0  0  0  0  0  0  0  0  0  0  0
    2.8761    0.7303   -1.4655 H   0  0  0  0  0  0  0  0  0  0  0  0
    3.5317   -1.5009   -0.5585 H   0  0  0  0  0  0  0  0  0  0  0  0
    2.4863   -1.2859    0.8369 H   0  0  0  0  0  0  0  0  0  0  0  0
    2.8824    0.9979    3.4738 H   0  0  0  0  0  0  0  0  0  0  0  0
    5.2323    1.6985    3.4080 H   0  0  0  0  0  0  0  0  0  0  0  0
  1  2  2  0
  2  3  1  0
  3  4  1  0
  4  5  1  0
  5  6  2  0
  5  7  1  0
  7  8  2  0
  8  9  1  0
  9 10  2  0
 10 11  1  0
 10 12  1  0
 12 13  2  0
 13 14  1  0
  2 15  1  0
 15 16  1  0
 16 17  1  0
 17 18  1  0
 18 19  1  0
 19 20  1  0
 19 21  2  0
 21 22  1  0
 22 23  1  0
 23 24  2  0
 13  7  1  0
 23 18  1  0
  3 25  1  0
  3 26  1  0
  8 27  1  0
  9 28  1  0
 12 29  1  0
 14 30  1  0
 15 31  1  0
 16 32  1  0
 16 33  1  0
 17 34  1  0
 17 35  1  0
 20 36  1  0
 21 37  1  0
M  END
$$$$
