
     RDKit          3D

 58 60  0  0  0  0  0  0  0  0999 V2000
   10.1421   -2.4884    0.3110 C   0  0  0  0  0  0  0  0  0  0  0  0
    8.6847   -2.3348   -0.0093 C   0  0  0  0  0  0  0  0  0  0  0  0
    7.7229   -2.4764    0.9974 C   0  0  0  0  0  0  0  0  0  0  0  0
    6.3626   -2.3586    0.7001 C   0  0  0  0  0  0  0  0  0  0  0  0
    5.9405   -2.1100   -0.6120 C   0  0  0  0  0  0  0  0  0  0  0  0
    4.4745   -1.9578   -0.9272 C   0  0  0  0  0  0  0  0  0  0  0  0
    3.9776   -0.5387   -0.6537 C   0  0  0  0  0  0  0  0  0  0  0  0
    2.5804   -0.3778   -1.0228 N   0  0  0  0  0  0  0  0  0  0  0  0
    1.8172    0.6339   -0.4763 C   0  0  0  0  0  0  0  0  0  0  0  0
    2.2028    1.3554    0.4377 O   0  0  0  0  0  0  0  0  0  0  0  0
    0.4305    0.7291   -1.0798 C   0  0  0  0  0  0  0  0  0  0  0  0
   -0.2970    2.0014   -0.6592 C   0  0  0  0  0  0  0  0  0  0  0  0
   -0.6063    1.9630    0.7807 N   0  0  0  0  0  0  0  0  0  0  0  0
   -1.7176    3.0767    1.3747 S   0  0  0  0  0  6  0  0  0  0  0  0
   -1.8248    4.1798    0.4472 O   0  0  0  0  0  0  0  0  0  0  0  0
   -1.3970    3.2759    2.7704 O   0  0  0  0  0  0  0  0  0  0  0  0
   -3.2247    2.1383    1.3073 C   0  0  0  0  0  0  0  0  0  0  0  0
   -3.6415    1.4127    2.4225 C   0  0  0  0  0  0  0  0  0  0  0  0
   -4.8494    0.7071    2.3793 C   0  0  0  0  0  0  0  0  0  0  0  0
   -5.6540    0.7183    1.2267 C   0  0  0  0  0  0  0  0  0  0  0  0
   -5.2161    1.4523    0.1241 C   0  0  0  0  0  0  0  0  0  0  0  0
   -4.0126    2.1735    0.1582 C   0  0  0  0  0  0  0  0  0  0  0  0
   -6.0321    1.4685   -1.0991 C   0  0  0  0  0  0  0  0  0  0  0  0
   -5.6515    2.1311   -2.0621 O   0  0  0  0  0  0  0  0  0  0  0  0
   -7.1966    0.7169   -1.0843 N   0  0  0  0  0  0  0  0  0  0  0  0
   -8.0166    0.7352   -2.2826 C   0  0  0  0  0  0  0  0  0  0  0  0
   -7.6912    0.0336    0.0202 C   0  0  0  0  0  0  0  0  0  0  0  0
   -8.7853   -0.5350   -0.0113 O   0  0  0  0  0  0  0  0  0  0  0  0
   -6.8916    0.0241    1.1605 N   0  0  0  0  0  0  0  0  0  0  0  0
   -7.3700   -0.7072    2.3278 C   0  0  0  0  0  0  0  0  0  0  0  0
    6.9031   -1.9778   -1.6203 C   0  0  0  0  0  0  0  0  0  0  0  0
    8.2634   -2.0970   -1.3221 C   0  0  0  0  0  0  0  0  0  0  0  0
   10.3747   -2.0344    1.2799 H   0  0  0  0  0  0  0  0  0  0  0  0
   10.4083   -3.5492    0.3410 H   0  0  0  0  0  0  0  0  0  0  0  0
   10.7653   -1.9909   -0.4389 H   0  0  0  0  0  0  0  0  0  0  0  0
    8.0284   -2.6752    2.0226 H   0  0  0  0  0  0  0  0  0  0  0  0
    5.6348   -2.4625    1.5028 H   0  0  0  0  0  0  0  0  0  0  0  0
    4.2931   -2.2248   -1.9767 H   0  0  0  0  0  0  0  0  0  0  0  0
    3.8956   -2.6805   -0.3370 H   0  0  0  0  0  0  0  0  0  0  0  0
    4.1024   -0.2827    0.4046 H   0  0  0  0  0  0  0  0  0  0  0  0
    4.5488    0.1944   -1.2351 H   0  0  0  0  0  0  0  0  0  0  0  0
    2.2779   -0.7770   -1.9029 H   0  0  0  0  0  0  0  0  0  0  0  0
   -0.1375   -0.1577   -0.7761 H   0  0  0  0  0  0  0  0  0  0  0  0
    0.5274    0.7201   -2.1714 H   0  0  0  0  0  0  0  0  0  0  0  0
   -1.2244    2.0755   -1.2366 H   0  0  0  0  0  0  0  0  0  0  0  0
    0.3219    2.8804   -0.8705 H   0  0  0  0  0  0  0  0  0  0  0  0
    0.2222    1.9138    1.3876 H   0  0  0  0  0  0  0  0  0  0  0  0
   -3.0386    1.3947    3.3292 H   0  0  0  0  0  0  0  0  0  0  0  0
   -5.1377    0.1596    3.2723 H   0  0  0  0  0  0  0  0  0  0  0  0
   -3.6998    2.7575   -0.7058 H   0  0  0  0  0  0  0  0  0  0  0  0
   -8.5785   -0.1982   -2.3904 H   0  0  0  0  0  0  0  0  0  0  0  0
   -7.4041    0.8772   -3.1782 H   0  0  0  0  0  0  0  0  0  0  0  0
   -8.7235    1.5677   -2.2011 H   0  0  0  0  0  0  0  0  0  0  0  0
   -6.6491   -1.4894    2.5867 H   0  0  0  0  0  0  0  0  0  0  0  0
   -8.3338   -1.1925    2.1487 H   0  0  0  0  0  0  0  0  0  0  0  0
   -7.4971   -0.0125    3.1645 H   0  0  0  0  0  0  0  0  0  0  0  0
    6.6036   -1.7824   -2.6475 H   0  0  0  0  0  0  0  0  0  0  0  0
    8.9934   -1.9981   -2.1231 H   0  0  0  0  0  0  0  0  0  0  0  0
  1  2  1  0
  2  3  2  0
  3  4  1  0
  4  5  2  0
  5  6  1  0
  6  7  1  0
  7  8  1  0
  8  9  1  0
  9 10  2  0
  9 11  1  0
 11 12  1  0
 12 13  1  0
 13 14  1  0
 14 15  2  0
 14 16  2  0
 14 17  1  0
 17 18  2  0
 18 19  1  0
 19 20  2  0
 20 21  1  0
 21 22  2  0
 21 23  1  0
 23 24  2  0
 23 25  1  0
 25 26  1  0
 25 27  1  0
 27 28  2  0
 27 29  1  0
 29 30  1  0
  5 31  1  0
 31 32  2  0
 32  2  1  0
 22 17  1  0
 29 20  1  0
  1 33  1  0
  1 34  1  0
  1 35  1  0
  3 36  1  0
  4 37  1  0
  6 38  1  0
  6 39  1  0
  7 40  1  0
  7 41  1  0
  8 42  1  0
 11 43  1  0
 11 44  1  0
 12 45  1  0
 12 46  1  0
 13 47  1  0
 18 48  1  0
 19 49  1  0
 22 50  1  0
 26 51  1  0
 26 52  1  0
 26 53  1  0
 30 54  1  0
 30 55  1  0
 30 56  1  0
 31 57  1  0
 32 58  1  0
M  END
$$$$
