
     RDKit          3D

 48 51  0  0  0  0  0  0  0  0999 V2000
    3.6835    2.1938   -2.1017 C   0  0  0  0  0  0  0  0  0  0  0  0
    3.3830    2.2098   -0.6103 C   0  0  0  0  0  0  0  0  0  0  0  0
    3.0017    0.8814   -0.1357 N   0  0  0  0  0  0  0  0  0  0  0  0
    1.7278    0.3047   -0.1607 C   0  0  0  0  0  0  0  0  0  0  0  0
    0.5786    0.9216   -0.4984 C   0  0  0  0  0  0  0  0  0  0  0  0
   -0.7474    0.2899   -0.5370 C   0  0  0  0  0  0  0  0  0  0  0  0
   -1.1265   -0.3347   -1.7252 C   0  0  0  0  0  0  0  0  0  0  0  0
   -2.3650   -0.9379   -1.8259 C   0  0  0  0  0  0  0  0  0  0  0  0
   -3.2311   -0.9034   -0.7405 C   0  0  0  0  0  0  0  0  0  0  0  0
   -4.4945   -1.5064   -0.8466 C   0  0  0  0  0  0  0  0  0  0  0  0
   -5.4018   -1.4734    0.2153 C   0  0  0  0  0  0  0  0  0  0  0  0
   -6.7372   -2.1514    0.0985 C   0  0  0  0  0  0  0  0  0  0  0  0
   -5.0261   -0.8478    1.4019 C   0  0  0  0  0  0  0  0  0  0  0  0
   -3.7681   -0.2445    1.5220 C   0  0  0  0  0  0  0  0  0  0  0  0
   -2.8375   -0.2590    0.4646 C   0  0  0  0  0  0  0  0  0  0  0  0
   -1.5888    0.3187    0.5408 N   0  0  0  0  0  4  0  0  0  0  0  0
   -1.1298    0.9610    1.8097 C   0  0  0  0  0  0  0  0  0  0  0  0
   -1.5742    2.4115    1.8399 C   0  0  0  0  0  0  0  0  0  0  0  0
    1.7017   -1.4098    0.3467 S   0  0  0  0  0  0  0  0  0  0  0  0
    3.4776   -1.3403    0.5305 C   0  0  0  0  0  0  0  0  0  0  0  0
    4.2922   -2.3978    0.9116 C   0  0  0  0  0  0  0  0  0  0  0  0
    5.6654   -2.1787    0.9940 C   0  0  0  0  0  0  0  0  0  0  0  0
    6.1975   -0.9189    0.6950 C   0  0  0  0  0  0  0  0  0  0  0  0
    5.3648    0.1408    0.3109 C   0  0  0  0  0  0  0  0  0  0  0  0
    3.9909   -0.0594    0.2257 C   0  0  0  0  0  0  0  0  0  0  0  0
    4.5181    1.5250   -2.3348 H   0  0  0  0  0  0  0  0  0  0  0  0
    2.8147    1.8570   -2.6768 H   0  0  0  0  0  0  0  0  0  0  0  0
    3.9485    3.1988   -2.4447 H   0  0  0  0  0  0  0  0  0  0  0  0
    2.5747    2.9246   -0.4162 H   0  0  0  0  0  0  0  0  0  0  0  0
    4.2409    2.6048   -0.0548 H   0  0  0  0  0  0  0  0  0  0  0  0
    0.5829    1.9625   -0.8055 H   0  0  0  0  0  0  0  0  0  0  0  0
   -0.4490   -0.3630   -2.5780 H   0  0  0  0  0  0  0  0  0  0  0  0
   -2.6450   -1.4292   -2.7574 H   0  0  0  0  0  0  0  0  0  0  0  0
   -4.7861   -2.0099   -1.7696 H   0  0  0  0  0  0  0  0  0  0  0  0
   -7.1069   -2.1093   -0.9314 H   0  0  0  0  0  0  0  0  0  0  0  0
   -7.4826   -1.6583    0.7313 H   0  0  0  0  0  0  0  0  0  0  0  0
   -6.6519   -3.1991    0.4027 H   0  0  0  0  0  0  0  0  0  0  0  0
   -5.7152   -0.8231    2.2465 H   0  0  0  0  0  0  0  0  0  0  0  0
   -3.5657    0.2354    2.4742 H   0  0  0  0  0  0  0  0  0  0  0  0
   -0.0439    0.8893    1.8957 H   0  0  0  0  0  0  0  0  0  0  0  0
   -1.5133    0.3907    2.6596 H   0  0  0  0  0  0  0  0  0  0  0  0
   -1.2433    2.8887    2.7674 H   0  0  0  0  0  0  0  0  0  0  0  0
   -1.1522    2.9721    1.0000 H   0  0  0  0  0  0  0  0  0  0  0  0
   -2.6628    2.5015    1.7814 H   0  0  0  0  0  0  0  0  0  0  0  0
    3.8773   -3.3749    1.1371 H   0  0  0  0  0  0  0  0  0  0  0  0
    6.3287   -2.9893    1.2882 H   0  0  0  0  0  0  0  0  0  0  0  0
    7.2728   -0.7622    0.7606 H   0  0  0  0  0  0  0  0  0  0  0  0
    5.8223    1.0978    0.0859 H   0  0  0  0  0  0  0  0  0  0  0  0
  1  2  1  0
  2  3  1  0
  3  4  1  0
  4  5  2  3
  5  6  1  0
  6  7  2  0
  7  8  1  0
  8  9  2  0
  9 10  1  0
 10 11  2  0
 11 12  1  0
 11 13  1  0
 13 14  2  0
 14 15  1  0
 15 16  2  0
 16 17  1  0
 17 18  1  0
  4 19  1  0
 19 20  1  0
 20 21  2  0
 21 22  1  0
 22 23  2  0
 23 24  1  0
 24 25  2  0
 25  3  1  0
 16  6  1  0
 25 20  1  0
 15  9  1  0
  1 26  1  0
  1 27  1  0
  1 28  1  0
  2 29  1  0
  2 30  1  0
  5 31  1  0
  7 32  1  0
  8 33  1  0
 10 34  1  0
 12 35  1  0
 12 36  1  0
 12 37  1  0
 13 38  1  0
 14 39  1  0
 17 40  1  0
 17 41  1  0
 18 42  1  0
 18 43  1  0
 18 44  1  0
 21 45  1  0
 22 46  1  0
 23 47  1  0
 24 48  1  0
M  CHG  1  16   1
M  END
$$$$
