
     RDKit          3D

 57 60  0  0  0  0  0  0  0  0999 V2000
   -3.5845    0.8299    2.2436 C   0  0  0  0  0  0  0  0  0  0  0  0
   -2.3562    1.4542    1.5944 C   0  0  0  0  0  0  0  0  0  0  0  0
   -1.4002    0.4580    0.9084 C   0  0  0  0  0  0  0  0  0  0  0  0
   -0.4686   -0.5690    2.1197 S   0  0  0  0  0  0  0  0  0  0  0  0
   -1.2902   -2.1015    1.8804 C   0  0  0  0  0  0  0  0  0  0  0  0
   -2.4805   -2.1719    2.3889 N   0  0  0  0  0  0  0  0  0  0  0  0
   -3.1236   -3.3934    2.2237 C   0  0  0  0  0  0  0  0  0  0  0  0
   -4.4215   -3.6766    2.6940 C   0  0  0  0  0  0  0  0  0  0  0  0
   -4.7959   -4.9650    2.3818 C   0  0  0  0  0  0  0  0  0  0  0  0
   -3.5489   -5.8050    1.5287 S   0  0  0  0  0  0  0  0  0  0  0  0
   -2.5306   -4.4496    1.5913 C   0  0  0  0  0  0  0  0  0  0  0  0
   -1.2104   -4.3787    1.0396 C   0  0  0  0  0  0  0  0  0  0  0  0
   -0.6587   -5.3112    0.4635 O   0  0  0  0  0  0  0  0  0  0  0  0
   -0.6079   -3.1221    1.2146 N   0  0  0  0  0  0  0  0  0  0  0  0
    0.7339   -2.9671    0.6434 C   0  0  0  0  0  0  0  0  0  0  0  0
    0.7619   -2.2705   -0.7060 C   0  0  0  0  0  0  0  0  0  0  0  0
    1.9378   -1.5977   -1.0970 C   0  0  0  0  0  0  0  0  0  0  0  0
    2.0256   -0.9747   -2.3469 C   0  0  0  0  0  0  0  0  0  0  0  0
    0.9408   -1.0218   -3.2308 C   0  0  0  0  0  0  0  0  0  0  0  0
    1.0934   -0.3761   -4.5553 C   0  0  0  0  0  0  0  0  0  0  0  0
    2.1235    0.0910   -5.0116 O   0  0  0  0  0  0  0  0  0  0  0  0
   -0.0555   -0.3480   -5.2556 O   0  0  0  0  0  0  0  0  0  0  0  0
   -0.2320   -1.6922   -2.8564 C   0  0  0  0  0  0  0  0  0  0  0  0
   -0.3230   -2.3211   -1.6086 C   0  0  0  0  0  0  0  0  0  0  0  0
   -0.4069    1.2655    0.0488 C   0  0  0  0  0  0  0  0  0  0  0  0
   -0.6011    1.4022   -1.1647 O   0  0  0  0  0  0  0  0  0  0  0  0
    0.5896    1.8803    0.7756 N   0  0  0  0  0  0  0  0  0  0  0  0
    1.5934    2.7581    0.3245 C   0  0  0  0  0  0  0  0  0  0  0  0
    2.4158    3.3330    1.3070 C   0  0  0  0  0  0  0  0  0  0  0  0
    3.4226    4.2365    0.9428 C   0  0  0  0  0  0  0  0  0  0  0  0
    3.6497    4.5688   -0.4014 C   0  0  0  0  0  0  0  0  0  0  0  0
    4.7545    5.5459   -0.7013 C   0  0  0  0  0  0  0  0  0  0  0  0
    2.8244    3.9835   -1.3778 C   0  0  0  0  0  0  0  0  0  0  0  0
    3.0196    4.3273   -3.0429 Cl  0  0  0  0  0  0  0  0  0  0  0  0
    1.8020    3.0892   -1.0242 C   0  0  0  0  0  0  0  0  0  0  0  0
   -4.2956    1.6120    2.5448 H   0  0  0  0  0  0  0  0  0  0  0  0
   -3.3214    0.2787    3.1367 H   0  0  0  0  0  0  0  0  0  0  0  0
   -4.1006    0.1577    1.5541 H   0  0  0  0  0  0  0  0  0  0  0  0
   -1.8286    2.0552    2.3457 H   0  0  0  0  0  0  0  0  0  0  0  0
   -2.7146    2.1697    0.8437 H   0  0  0  0  0  0  0  0  0  0  0  0
   -1.9540   -0.2080    0.2265 H   0  0  0  0  0  0  0  0  0  0  0  0
   -5.0527   -2.9823    3.2285 H   0  0  0  0  0  0  0  0  0  0  0  0
   -5.7324   -5.4638    2.6071 H   0  0  0  0  0  0  0  0  0  0  0  0
    1.3488   -2.4100    1.3603 H   0  0  0  0  0  0  0  0  0  0  0  0
    1.2252   -3.9426    0.5167 H   0  0  0  0  0  0  0  0  0  0  0  0
    2.8037   -1.5556   -0.4362 H   0  0  0  0  0  0  0  0  0  0  0  0
    2.9430   -0.4665   -2.6406 H   0  0  0  0  0  0  0  0  0  0  0  0
    0.1941    0.1134   -6.0785 H   0  0  0  0  0  0  0  0  0  0  0  0
   -1.0779   -1.7539   -3.5380 H   0  0  0  0  0  0  0  0  0  0  0  0
   -1.2461   -2.8432   -1.3564 H   0  0  0  0  0  0  0  0  0  0  0  0
    0.5644    1.6991    1.7759 H   0  0  0  0  0  0  0  0  0  0  0  0
    2.2905    3.0934    2.3707 H   0  0  0  0  0  0  0  0  0  0  0  0
    4.0271    4.6826    1.7226 H   0  0  0  0  0  0  0  0  0  0  0  0
    5.7027    5.1712   -0.2957 H   0  0  0  0  0  0  0  0  0  0  0  0
    4.9054    5.7183   -1.7737 H   0  0  0  0  0  0  0  0  0  0  0  0
    4.5289    6.5123   -0.2361 H   0  0  0  0  0  0  0  0  0  0  0  0
    1.1977    2.6521   -1.8126 H   0  0  0  0  0  0  0  0  0  0  0  0
  1  2  1  0
  2  3  1  0
  3  4  1  0
  4  5  1  0
  5  6  2  0
  6  7  1  0
  7  8  1  0
  8  9  2  0
  9 10  1  0
 10 11  1  0
 11 12  1  0
 12 13  2  0
 12 14  1  0
 14 15  1  0
 15 16  1  0
 16 17  2  0
 17 18  1  0
 18 19  2  0
 19 20  1  0
 20 21  2  0
 20 22  1  0
 19 23  1  0
 23 24  2  0
  3 25  1  0
 25 26  2  0
 25 27  1  0
 27 28  1  0
 28 29  2  0
 29 30  1  0
 30 31  2  0
 31 32  1  0
 31 33  1  0
 33 34  1  0
 33 35  2  0
 14  5  1  0
 24 16  1  0
 35 28  1  0
 11  7  2  0
  1 36  1  0
  1 37  1  0
  1 38  1  0
  2 39  1  0
  2 40  1  0
  3 41  1  0
  8 42  1  0
  9 43  1  0
 15 44  1  0
 15 45  1  0
 17 46  1  0
 18 47  1  0
 22 48  1  0
 23 49  1  0
 24 50  1  0
 27 51  1  0
 29 52  1  0
 30 53  1  0
 32 54  1  0
 32 55  1  0
 32 56  1  0
 35 57  1  0
M  END
$$$$
