
     RDKit          3D

 46 49  0  0  0  0  0  0  0  0999 V2000
    2.2113    1.2470   -3.5993 O   0  0  0  0  0  0  0  0  0  0  0  0
    2.2964    1.3597   -2.3790 C   0  0  0  0  0  0  0  0  0  0  0  0
    1.0710    1.6534   -1.5304 C   0  0  0  0  0  0  0  0  0  0  0  0
    0.5421    0.1278   -0.6971 S   0  0  0  0  0  0  0  0  0  0  0  0
   -0.7618    0.7434    0.2540 C   0  0  0  0  0  0  0  0  0  0  0  0
   -0.9664    2.0084    0.5346 N   0  0  0  0  0  0  0  0  0  0  0  0
   -2.0928    2.0874    1.3105 N   0  0  0  0  0  0  0  0  0  0  0  0
   -2.5603    0.8660    1.4876 C   0  0  0  0  0  0  0  0  0  0  0  0
   -3.7839    0.5150    2.2694 C   0  0  0  0  0  0  0  0  0  0  0  0
   -4.9845    0.2917    1.3897 C   0  0  0  0  0  0  0  0  0  0  0  0
   -5.4979    1.1275    0.4133 C   0  0  0  0  0  0  0  0  0  0  0  0
   -6.6566    0.5861   -0.2143 C   0  0  0  0  0  0  0  0  0  0  0  0
   -6.9971   -0.6427    0.3080 C   0  0  0  0  0  0  0  0  0  0  0  0
   -5.9283   -1.1328    1.5524 S   0  0  0  0  0  0  0  0  0  0  0  0
   -1.7403   -0.0249    0.8242 N   0  0  0  0  0  0  0  0  0  0  0  0
   -1.9377   -1.4567    0.6882 C   0  0  0  0  0  0  0  0  0  0  0  0
   -1.5062   -2.1850    1.9075 C   0  0  0  0  0  0  0  0  0  0  0  0
   -2.1607   -3.0165    2.7941 C   0  0  0  0  0  0  0  0  0  0  0  0
   -1.2010   -3.4083    3.7568 C   0  0  0  0  0  0  0  0  0  0  0  0
   -0.0195   -2.8075    3.3887 C   0  0  0  0  0  0  0  0  0  0  0  0
   -0.1949   -2.0657    2.2669 O   0  0  0  0  0  0  0  0  0  0  0  0
    3.4552    1.2515   -1.6280 N   0  0  0  0  0  0  0  0  0  0  0  0
    4.7726    0.9991   -2.0785 C   0  0  0  0  0  0  0  0  0  0  0  0
    5.0984    0.8122   -3.4255 C   0  0  0  0  0  0  0  0  0  0  0  0
    6.4230    0.5724   -3.8096 C   0  0  0  0  0  0  0  0  0  0  0  0
    7.4305    0.5154   -2.8481 C   0  0  0  0  0  0  0  0  0  0  0  0
    9.0547    0.2197   -3.3294 Cl  0  0  0  0  0  0  0  0  0  0  0  0
    7.1307    0.6937   -1.5008 C   0  0  0  0  0  0  0  0  0  0  0  0
    5.8089    0.9345   -1.1210 C   0  0  0  0  0  0  0  0  0  0  0  0
    5.4777    1.1627    0.5654 Cl  0  0  0  0  0  0  0  0  0  0  0  0
    0.2707    2.0208   -2.1813 H   0  0  0  0  0  0  0  0  0  0  0  0
    1.3153    2.4367   -0.8063 H   0  0  0  0  0  0  0  0  0  0  0  0
   -4.0130    1.3444    2.9527 H   0  0  0  0  0  0  0  0  0  0  0  0
   -3.5854   -0.3527    2.9078 H   0  0  0  0  0  0  0  0  0  0  0  0
   -5.0552    2.0876    0.1615 H   0  0  0  0  0  0  0  0  0  0  0  0
   -7.2089    1.0686   -1.0103 H   0  0  0  0  0  0  0  0  0  0  0  0
   -7.8269   -1.2776    0.0242 H   0  0  0  0  0  0  0  0  0  0  0  0
   -2.9976   -1.6284    0.4818 H   0  0  0  0  0  0  0  0  0  0  0  0
   -1.3931   -1.8218   -0.1865 H   0  0  0  0  0  0  0  0  0  0  0  0
   -3.2011   -3.3077    2.7511 H   0  0  0  0  0  0  0  0  0  0  0  0
   -1.3461   -4.0564    4.6090 H   0  0  0  0  0  0  0  0  0  0  0  0
    0.9814   -2.8083    3.7969 H   0  0  0  0  0  0  0  0  0  0  0  0
    3.3594    1.3403   -0.6167 H   0  0  0  0  0  0  0  0  0  0  0  0
    4.3438    0.8395   -4.2086 H   0  0  0  0  0  0  0  0  0  0  0  0
    6.6550    0.4306   -4.8634 H   0  0  0  0  0  0  0  0  0  0  0  0
    7.9190    0.6500   -0.7527 H   0  0  0  0  0  0  0  0  0  0  0  0
  1  2  2  0
  2  3  1  0
  3  4  1  0
  4  5  1  0
  5  6  2  0
  6  7  1  0
  7  8  2  0
  8  9  1  0
  9 10  1  0
 10 11  2  0
 11 12  1  0
 12 13  2  0
 13 14  1  0
  8 15  1  0
 15 16  1  0
 16 17  1  0
 17 18  2  0
 18 19  1  0
 19 20  2  0
 20 21  1  0
  2 22  1  0
 22 23  1  0
 23 24  2  0
 24 25  1  0
 25 26  2  0
 26 27  1  0
 26 28  1  0
 28 29  2  0
 29 30  1  0
 15  5  1  0
 21 17  1  0
 29 23  1  0
 14 10  1  0
  3 31  1  0
  3 32  1  0
  9 33  1  0
  9 34  1  0
 11 35  1  0
 12 36  1  0
 13 37  1  0
 16 38  1  0
 16 39  1  0
 18 40  1  0
 19 41  1  0
 20 42  1  0
 22 43  1  0
 24 44  1  0
 25 45  1  0
 28 46  1  0
M  END
$$$$
