
     RDKit          3D

 64 69  0  0  0  0  0  0  0  0999 V2000
    7.4492   -0.9651   -2.2470 F   0  0  0  0  0  0  0  0  0  0  0  0
    6.4193   -0.2702   -1.6849 C   0  0  0  0  0  0  0  0  0  0  0  0
    5.4485   -1.1935   -1.4388 F   0  0  0  0  0  0  0  0  0  0  0  0
    5.9333    0.5291   -2.6756 F   0  0  0  0  0  0  0  0  0  0  0  0
    6.8152    0.5111   -0.4501 C   0  0  0  0  0  0  0  0  0  0  0  0
    8.1750    0.5676   -0.0864 C   0  0  0  0  0  0  0  0  0  0  0  0
    8.5914    1.2789    1.0385 C   0  0  0  0  0  0  0  0  0  0  0  0
    7.6569    1.9483    1.8194 C   0  0  0  0  0  0  0  0  0  0  0  0
    6.3065    1.9088    1.4760 C   0  0  0  0  0  0  0  0  0  0  0  0
    5.8675    1.1993    0.3430 C   0  0  0  0  0  0  0  0  0  0  0  0
    4.3814    1.1861    0.0378 C   0  0  0  0  0  0  0  0  0  0  0  0
    3.6325    0.1320    0.8759 C   0  0  0  0  0  0  0  0  0  0  0  0
    2.2088   -0.0382    0.5771 N   0  0  0  0  0  0  0  0  0  0  0  0
    1.3870    1.1622    0.7643 C   0  0  0  0  0  0  0  0  0  0  0  0
   -0.1145    0.8906    0.5026 C   0  0  0  0  0  0  0  0  0  0  0  0
   -0.3700    0.2246   -0.7944 N   0  0  0  0  0  0  0  0  0  0  0  0
   -1.4234   -0.6903   -0.8769 C   0  0  0  0  0  0  0  0  0  0  0  0
   -1.1976   -1.8628   -1.4173 N   0  0  0  0  0  0  0  0  0  0  0  0
   -2.2105   -2.8372   -1.4846 C   0  0  0  0  0  0  0  0  0  0  0  0
   -1.9035   -4.0740   -2.0555 C   0  0  0  0  0  0  0  0  0  0  0  0
   -2.8680   -5.0819   -2.1368 C   0  0  0  0  0  0  0  0  0  0  0  0
   -4.1545   -4.8604   -1.6444 C   0  0  0  0  0  0  0  0  0  0  0  0
   -4.4831   -3.6319   -1.0700 C   0  0  0  0  0  0  0  0  0  0  0  0
   -3.5070   -2.6334   -0.9954 C   0  0  0  0  0  0  0  0  0  0  0  0
   -3.7542   -1.3645   -0.4469 N   0  0  0  0  0  0  0  0  0  0  0  0
   -4.9169   -0.8581    0.0842 C   0  0  0  0  0  0  0  0  0  0  0  0
   -4.7049    0.4637    0.4275 C   0  0  0  0  0  0  0  0  0  0  0  0
   -5.7209    1.3313    1.0063 C   0  0  0  0  0  0  0  0  0  0  0  0
   -5.3584    2.3075    1.9444 C   0  0  0  0  0  0  0  0  0  0  0  0
   -6.3230    3.1494    2.5045 C   0  0  0  0  0  0  0  0  0  0  0  0
   -7.6592    3.0263    2.1298 C   0  0  0  0  0  0  0  0  0  0  0  0
   -8.0322    2.0628    1.1952 C   0  0  0  0  0  0  0  0  0  0  0  0
   -7.0682    1.2196    0.6357 C   0  0  0  0  0  0  0  0  0  0  0  0
   -3.3487    0.7476    0.1086 C   0  0  0  0  0  0  0  0  0  0  0  0
   -2.7692   -0.4032   -0.3962 C   0  0  0  0  0  0  0  0  0  0  0  0
    0.8547   -0.0369   -1.5738 C   0  0  0  0  0  0  0  0  0  0  0  0
    1.9361   -0.7177   -0.7069 C   0  0  0  0  0  0  0  0  0  0  0  0
    8.9248    0.0503   -0.6846 H   0  0  0  0  0  0  0  0  0  0  0  0
    9.6452    1.3094    1.3044 H   0  0  0  0  0  0  0  0  0  0  0  0
    7.9786    2.5024    2.6978 H   0  0  0  0  0  0  0  0  0  0  0  0
    5.5910    2.4392    2.1026 H   0  0  0  0  0  0  0  0  0  0  0  0
    3.9826    2.1873    0.2448 H   0  0  0  0  0  0  0  0  0  0  0  0
    4.2152    1.0277   -1.0320 H   0  0  0  0  0  0  0  0  0  0  0  0
    3.7288    0.3888    1.9393 H   0  0  0  0  0  0  0  0  0  0  0  0
    4.1293   -0.8424    0.7792 H   0  0  0  0  0  0  0  0  0  0  0  0
    1.4954    1.5299    1.7917 H   0  0  0  0  0  0  0  0  0  0  0  0
    1.7166    1.9697    0.0989 H   0  0  0  0  0  0  0  0  0  0  0  0
   -0.4988    0.2699    1.3221 H   0  0  0  0  0  0  0  0  0  0  0  0
   -0.6434    1.8485    0.5258 H   0  0  0  0  0  0  0  0  0  0  0  0
   -0.9012   -4.2499   -2.4368 H   0  0  0  0  0  0  0  0  0  0  0  0
   -2.6122   -6.0391   -2.5836 H   0  0  0  0  0  0  0  0  0  0  0  0
   -4.9020   -5.6473   -1.7095 H   0  0  0  0  0  0  0  0  0  0  0  0
   -5.4904   -3.4832   -0.6963 H   0  0  0  0  0  0  0  0  0  0  0  0
   -5.8044   -1.4673    0.1727 H   0  0  0  0  0  0  0  0  0  0  0  0
   -4.3234    2.4140    2.2590 H   0  0  0  0  0  0  0  0  0  0  0  0
   -6.0300    3.8992    3.2347 H   0  0  0  0  0  0  0  0  0  0  0  0
   -8.4093    3.6815    2.5649 H   0  0  0  0  0  0  0  0  0  0  0  0
   -9.0731    1.9680    0.8973 H   0  0  0  0  0  0  0  0  0  0  0  0
   -7.3804    0.4855   -0.1028 H   0  0  0  0  0  0  0  0  0  0  0  0
   -2.8568    1.7026    0.2237 H   0  0  0  0  0  0  0  0  0  0  0  0
    0.6522   -0.6382   -2.4680 H   0  0  0  0  0  0  0  0  0  0  0  0
    1.2355    0.9212   -1.9506 H   0  0  0  0  0  0  0  0  0  0  0  0
    2.8426   -0.8173   -1.3148 H   0  0  0  0  0  0  0  0  0  0  0  0
    1.6120   -1.7380   -0.4690 H   0  0  0  0  0  0  0  0  0  0  0  0
  1  2  1  0
  2  3  1  0
  2  4  1  0
  2  5  1  0
  5  6  2  0
  6  7  1  0
  7  8  2  0
  8  9  1  0
  9 10  2  0
 10 11  1  0
 11 12  1  0
 12 13  1  0
 13 14  1  0
 14 15  1  0
 15 16  1  0
 16 17  1  0
 17 18  2  0
 18 19  1  0
 19 20  2  0
 20 21  1  0
 21 22  2  0
 22 23  1  0
 23 24  2  0
 24 25  1  0
 25 26  1  0
 26 27  2  0
 27 28  1  0
 28 29  2  0
 29 30  1  0
 30 31  2  0
 31 32  1  0
 32 33  2  0
 27 34  1  0
 34 35  2  0
 16 36  1  0
 36 37  1  0
 10  5  1  0
 37 13  1  0
 35 17  1  0
 24 19  1  0
 35 25  1  0
 33 28  1  0
  6 38  1  0
  7 39  1  0
  8 40  1  0
  9 41  1  0
 11 42  1  0
 11 43  1  0
 12 44  1  0
 12 45  1  0
 14 46  1  0
 14 47  1  0
 15 48  1  0
 15 49  1  0
 20 50  1  0
 21 51  1  0
 22 52  1  0
 23 53  1  0
 26 54  1  0
 29 55  1  0
 30 56  1  0
 31 57  1  0
 32 58  1  0
 33 59  1  0
 34 60  1  0
 36 61  1  0
 36 62  1  0
 37 63  1  0
 37 64  1  0
M  END
$$$$
