
     RDKit          3D

100102  0  0  0  0  0  0  0  0999 V2000
    2.4990    0.7804    1.1842 C   0  0  0  0  0  0  0  0  0  0  0  0
    1.7525    0.1518    0.2544 C   0  0  0  0  0  0  0  0  0  0  0  0
    2.3323   -0.9927   -0.5939 C   0  0  1  0  0  0  0  0  0  0  0  0
    3.1976   -0.3583   -1.5593 O   0  0  0  0  0  0  0  0  0  0  0  0
    3.4057   -1.0360   -2.7151 C   0  0  0  0  0  0  0  0  0  0  0  0
    2.8991   -2.1221   -2.9786 O   0  0  0  0  0  0  0  0  0  0  0  0
    4.3184   -0.2919   -3.6702 C   0  0  0  0  0  0  0  0  0  0  0  0
    5.0927    0.9013   -3.0765 C   0  0  0  0  0  0  0  0  0  0  0  0
    6.3382    1.1982   -3.9166 C   0  0  0  0  0  0  0  0  0  0  0  0
    4.2258    2.1627   -2.9918 C   0  0  0  0  0  0  0  0  0  0  0  0
    3.0722   -2.1366    0.1565 C   0  0  0  0  0  0  0  0  0  0  0  0
    4.2571   -1.6695    0.8477 O   0  0  0  0  0  0  0  0  0  0  0  0
    5.4286   -1.6871    0.1672 C   0  0  0  0  0  0  0  0  0  0  0  0
    6.5236   -1.1270    1.0232 C   0  0  0  0  0  0  0  0  0  0  0  0
    5.5837   -2.0862   -0.9762 O   0  0  0  0  0  0  0  0  0  0  0  0
    2.1526   -2.7697    1.2122 C   0  0  0  0  0  0  0  0  0  0  0  0
    2.2400   -2.4381    2.4036 O   0  0  0  0  0  0  0  0  0  0  0  0
    1.0772   -3.7980    0.7677 C   0  0  0  0  0  0  0  0  0  0  0  0
    0.7957   -4.7514    1.9538 C   0  0  0  0  0  0  0  0  0  0  0  0
    1.5648   -4.6863   -0.3929 C   0  0  0  0  0  0  0  0  0  0  0  0
   -0.1876   -3.0598    0.3448 C   0  0  0  0  0  0  0  0  0  0  0  0
   -1.0693   -2.4509    1.1600 C   0  0  0  0  0  0  0  0  0  0  0  0
   -2.4178   -1.8759    0.7611 C   0  0  2  0  0  0  0  0  0  0  0  0
   -2.7521   -1.9393   -0.7385 C   0  0  0  0  0  0  0  0  0  0  0  0
   -2.7695   -0.5065    1.4214 C   0  0  2  0  0  0  0  0  0  0  0  0
   -4.2184   -0.3491    1.2507 O   0  0  0  0  0  0  0  0  0  0  0  0
   -5.0103   -0.8373    2.2376 C   0  0  0  0  0  0  0  0  0  0  0  0
   -4.6241   -1.3523    3.2724 O   0  0  0  0  0  0  0  0  0  0  0  0
   -6.4444   -0.6494    1.8893 C   0  0  0  0  0  0  0  0  0  0  0  0
   -7.4070   -0.9418    2.8669 C   0  0  0  0  0  0  0  0  0  0  0  0
   -8.7667   -0.7891    2.5850 C   0  0  0  0  0  0  0  0  0  0  0  0
   -9.1736   -0.3473    1.3262 C   0  0  0  0  0  0  0  0  0  0  0  0
   -8.2226   -0.0590    0.3462 C   0  0  0  0  0  0  0  0  0  0  0  0
   -6.8608   -0.2085    0.6239 C   0  0  0  0  0  0  0  0  0  0  0  0
   -2.1399    0.8279    0.8898 C   0  0  1  0  0  0  0  0  0  0  0  0
   -2.4792    1.0049   -0.4882 O   0  0  0  0  0  0  0  0  0  0  0  0
   -2.7753    2.0340    1.6533 C   0  0  0  0  0  0  0  0  0  0  0  0
   -1.6505    2.6323    2.4897 C   0  0  2  0  0  0  0  0  0  0  0  0
   -1.9254    4.0724    2.9003 C   0  0  0  0  0  0  0  0  0  0  0  0
   -0.4316    2.4474    1.5860 C   0  0  2  0  0  0  0  0  0  0  0  0
   -0.5128    3.3857    0.5028 O   0  0  0  0  0  0  0  0  0  0  0  0
    0.5439    4.2225    0.3250 C   0  0  0  0  0  0  0  0  0  0  0  0
    0.2825    5.1438   -0.8290 C   0  0  0  0  0  0  0  0  0  0  0  0
    1.5496    4.2684    1.0210 O   0  0  0  0  0  0  0  0  0  0  0  0
   -0.5917    0.9767    1.1177 C   0  0  2  0  0  0  0  0  0  0  0  0
    0.2955    0.5120   -0.0730 C   0  0  1  0  0  0  0  0  0  0  0  0
    0.3234    1.4882   -1.1308 O   0  0  0  0  0  0  0  0  0  0  0  0
    0.1097    1.0420   -2.3978 C   0  0  0  0  0  0  0  0  0  0  0  0
    0.0809    2.2002   -3.3461 C   0  0  0  0  0  0  0  0  0  0  0  0
   -0.0277   -0.1238   -2.7357 O   0  0  0  0  0  0  0  0  0  0  0  0
    3.5338    0.5194    1.3699 H   0  0  0  0  0  0  0  0  0  0  0  0
    2.1536    1.6145    1.7761 H   0  0  0  0  0  0  0  0  0  0  0  0
    1.5012   -1.4575   -1.1344 H   0  0  0  0  0  0  0  0  0  0  0  0
    5.0405   -1.0401   -4.0219 H   0  0  0  0  0  0  0  0  0  0  0  0
    3.7160    0.0327   -4.5263 H   0  0  0  0  0  0  0  0  0  0  0  0
    5.4346    0.6511   -2.0649 H   0  0  0  0  0  0  0  0  0  0  0  0
    6.9998    0.3262   -3.9550 H   0  0  0  0  0  0  0  0  0  0  0  0
    6.0716    1.4702   -4.9419 H   0  0  0  0  0  0  0  0  0  0  0  0
    6.9071    2.0284   -3.4842 H   0  0  0  0  0  0  0  0  0  0  0  0
    4.7898    2.9856   -2.5354 H   0  0  0  0  0  0  0  0  0  0  0  0
    3.9039    2.4903   -3.9870 H   0  0  0  0  0  0  0  0  0  0  0  0
    3.3310    2.0048   -2.3841 H   0  0  0  0  0  0  0  0  0  0  0  0
    3.3885   -2.9193   -0.5367 H   0  0  0  0  0  0  0  0  0  0  0  0
    7.4625   -1.1347    0.4627 H   0  0  0  0  0  0  0  0  0  0  0  0
    6.2893   -0.0938    1.2932 H   0  0  0  0  0  0  0  0  0  0  0  0
    6.6465   -1.7410    1.9191 H   0  0  0  0  0  0  0  0  0  0  0  0
    0.0065   -5.4731    1.7095 H   0  0  0  0  0  0  0  0  0  0  0  0
    1.6958   -5.3194    2.2171 H   0  0  0  0  0  0  0  0  0  0  0  0
    0.4855   -4.2192    2.8603 H   0  0  0  0  0  0  0  0  0  0  0  0
    2.5346   -5.1436   -0.1600 H   0  0  0  0  0  0  0  0  0  0  0  0
    1.6792   -4.1193   -1.3238 H   0  0  0  0  0  0  0  0  0  0  0  0
    0.8525   -5.4962   -0.5986 H   0  0  0  0  0  0  0  0  0  0  0  0
   -0.4051   -3.0924   -0.7233 H   0  0  0  0  0  0  0  0  0  0  0  0
   -0.8650   -2.4375    2.2317 H   0  0  0  0  0  0  0  0  0  0  0  0
   -3.1258   -2.5913    1.2108 H   0  0  0  0  0  0  0  0  0  0  0  0
   -2.7326   -2.9765   -1.0948 H   0  0  0  0  0  0  0  0  0  0  0  0
   -3.7589   -1.5571   -0.9382 H   0  0  0  0  0  0  0  0  0  0  0  0
   -2.0472   -1.3680   -1.3471 H   0  0  0  0  0  0  0  0  0  0  0  0
   -2.5380   -0.5646    2.4951 H   0  0  0  0  0  0  0  0  0  0  0  0
   -7.1016   -1.2885    3.8534 H   0  0  0  0  0  0  0  0  0  0  0  0
   -9.5089   -1.0138    3.3480 H   0  0  0  0  0  0  0  0  0  0  0  0
  -10.2320   -0.2238    1.1075 H   0  0  0  0  0  0  0  0  0  0  0  0
   -8.5426    0.2773   -0.6367 H   0  0  0  0  0  0  0  0  0  0  0  0
   -6.1417    0.0121   -0.1606 H   0  0  0  0  0  0  0  0  0  0  0  0
   -3.4462    0.8940   -0.5529 H   0  0  0  0  0  0  0  0  0  0  0  0
   -3.1750    2.7735    0.9469 H   0  0  0  0  0  0  0  0  0  0  0  0
   -3.6014    1.7526    2.3144 H   0  0  0  0  0  0  0  0  0  0  0  0
   -1.5188    2.0275    3.3980 H   0  0  0  0  0  0  0  0  0  0  0  0
   -1.0593    4.4935    3.4214 H   0  0  0  0  0  0  0  0  0  0  0  0
   -2.1461    4.7100    2.0378 H   0  0  0  0  0  0  0  0  0  0  0  0
   -2.7836    4.1178    3.5768 H   0  0  0  0  0  0  0  0  0  0  0  0
    0.4622    2.5968    2.1918 H   0  0  0  0  0  0  0  0  0  0  0  0
    1.2158    5.3164   -1.3714 H   0  0  0  0  0  0  0  0  0  0  0  0
   -0.4307    4.6968   -1.5286 H   0  0  0  0  0  0  0  0  0  0  0  0
   -0.1188    6.0891   -0.4552 H   0  0  0  0  0  0  0  0  0  0  0  0
   -0.3450    0.3461    1.9856 H   0  0  0  0  0  0  0  0  0  0  0  0
   -0.1841   -0.3989   -0.4332 H   0  0  0  0  0  0  0  0  0  0  0  0
    0.0607    1.8258   -4.3745 H   0  0  0  0  0  0  0  0  0  0  0  0
   -0.8177    2.7968   -3.1725 H   0  0  0  0  0  0  0  0  0  0  0  0
    0.9794    2.8086   -3.2158 H   0  0  0  0  0  0  0  0  0  0  0  0
  1  2  2  0
  2  3  1  0
  3  4  1  0
  4  5  1  0
  5  6  2  0
  5  7  1  0
  7  8  1  0
  8  9  1  0
  8 10  1  0
  3 11  1  0
 11 12  1  0
 12 13  1  0
 13 14  1  0
 13 15  2  0
 11 16  1  0
 16 17  2  0
 16 18  1  0
 18 19  1  0
 18 20  1  0
 18 21  1  0
 21 22  2  0
 22 23  1  0
 23 24  1  0
 23 25  1  0
 25 26  1  0
 26 27  1  0
 27 28  2  0
 27 29  1  0
 29 30  2  0
 30 31  1  0
 31 32  2  0
 32 33  1  0
 33 34  2  0
 25 35  1  0
 35 36  1  6
 35 37  1  0
 37 38  1  0
 38 39  1  0
 38 40  1  0
 40 41  1  0
 41 42  1  0
 42 43  1  0
 42 44  2  0
 40 45  1  0
 45 46  1  0
 46 47  1  0
 47 48  1  0
 48 49  1  0
 48 50  2  0
 46  2  1  0
 34 29  1  0
 45 35  1  0
  1 51  1  0
  1 52  1  0
  3 53  1  6
  7 54  1  0
  7 55  1  0
  8 56  1  0
  9 57  1  0
  9 58  1  0
  9 59  1  0
 10 60  1  0
 10 61  1  0
 10 62  1  0
 11 63  1  0
 14 64  1  0
 14 65  1  0
 14 66  1  0
 19 67  1  0
 19 68  1  0
 19 69  1  0
 20 70  1  0
 20 71  1  0
 20 72  1  0
 21 73  1  0
 22 74  1  0
 23 75  1  1
 24 76  1  0
 24 77  1  0
 24 78  1  0
 25 79  1  1
 30 80  1  0
 31 81  1  0
 32 82  1  0
 33 83  1  0
 34 84  1  0
 36 85  1  0
 37 86  1  0
 37 87  1  0
 38 88  1  1
 39 89  1  0
 39 90  1  0
 39 91  1  0
 40 92  1  1
 43 93  1  0
 43 94  1  0
 43 95  1  0
 45 96  1  1
 46 97  1  6
 49 98  1  0
 49 99  1  0
 49100  1  0
M  END
$$$$
