
     RDKit          3D

 56 59  0  0  0  0  0  0  0  0999 V2000
    8.6280    1.4870    3.0019 C   0  0  0  0  0  0  0  0  0  0  0  0
    8.5267    0.1849    2.4385 O   0  0  0  0  0  0  0  0  0  0  0  0
    7.2673   -0.2894    2.1959 C   0  0  0  0  0  0  0  0  0  0  0  0
    6.0734    0.4024    2.4150 C   0  0  0  0  0  0  0  0  0  0  0  0
    4.8474   -0.2024    2.1208 C   0  0  0  0  0  0  0  0  0  0  0  0
    4.8218   -1.4999    1.6020 C   0  0  0  0  0  0  0  0  0  0  0  0
    3.2572   -2.2487    1.2353 S   0  0  0  0  0  6  0  0  0  0  0  0
    3.4869   -3.5704    0.6921 O   0  0  0  0  0  0  0  0  0  0  0  0
    2.3956   -2.0454    2.3792 O   0  0  0  0  0  0  0  0  0  0  0  0
    2.6778   -1.2858   -0.0239 N   0  0  0  0  0  0  0  0  0  0  0  0
    3.4093   -1.3303   -1.3071 C   0  0  0  0  0  0  0  0  0  0  0  0
    2.4211   -1.9615   -2.2602 C   0  0  0  0  0  0  0  0  0  0  0  0
    1.1580   -1.4976   -1.7840 O   0  0  0  0  0  0  0  0  0  0  0  0
    1.2541   -1.5432   -0.3496 C   0  0  0  0  0  0  0  0  0  0  0  0
    0.3478   -0.4686    0.2855 C   0  0  0  0  0  0  0  0  0  0  0  0
   -1.0676   -0.7129    0.0673 N   0  0  0  0  0  0  0  0  0  0  0  0
   -1.7480   -0.1871   -1.0069 C   0  0  0  0  0  0  0  0  0  0  0  0
   -1.3312    0.6452   -1.7998 O   0  0  0  0  0  0  0  0  0  0  0  0
   -3.1822   -0.7442   -1.1571 C   0  0  0  0  0  0  0  0  0  0  0  0
   -3.6003   -1.5796   -0.3673 O   0  0  0  0  0  0  0  0  0  0  0  0
   -3.8698   -0.2051   -2.2174 N   0  0  0  0  0  0  0  0  0  0  0  0
   -5.2679   -0.4593   -2.4416 C   0  0  0  0  0  0  0  0  0  0  0  0
   -6.1117    0.6543   -1.8764 C   0  0  0  0  0  0  0  0  0  0  0  0
   -6.4839    1.7523   -2.6867 C   0  0  0  0  0  0  0  0  0  0  0  0
   -7.2464    2.8038   -2.1676 C   0  0  0  0  0  0  0  0  0  0  0  0
   -7.6139    2.7356   -0.8417 C   0  0  0  0  0  0  0  0  0  0  0  0
   -7.2495    1.6781   -0.0428 C   0  0  0  0  0  0  0  0  0  0  0  0
   -6.4987    0.6272   -0.5256 C   0  0  0  0  0  0  0  0  0  0  0  0
   -7.7078    1.8081    1.2309 O   0  0  0  0  0  0  0  0  0  0  0  0
   -8.4039    3.0682    1.1411 C   0  0  0  0  0  0  0  0  0  0  0  0
   -8.3486    3.6636   -0.1720 O   0  0  0  0  0  0  0  0  0  0  0  0
    6.0065   -2.2036    1.3862 C   0  0  0  0  0  0  0  0  0  0  0  0
    7.2254   -1.5906    1.6821 C   0  0  0  0  0  0  0  0  0  0  0  0
    8.1391    1.5335    3.9806 H   0  0  0  0  0  0  0  0  0  0  0  0
    8.2242    2.2432    2.3208 H   0  0  0  0  0  0  0  0  0  0  0  0
    9.6900    1.7053    3.1497 H   0  0  0  0  0  0  0  0  0  0  0  0
    6.0617    1.4110    2.8156 H   0  0  0  0  0  0  0  0  0  0  0  0
    3.9203    0.3388    2.2988 H   0  0  0  0  0  0  0  0  0  0  0  0
    3.6248   -0.2962   -1.5984 H   0  0  0  0  0  0  0  0  0  0  0  0
    4.3542   -1.8775   -1.2761 H   0  0  0  0  0  0  0  0  0  0  0  0
    2.5731   -1.6524   -3.2975 H   0  0  0  0  0  0  0  0  0  0  0  0
    2.4397   -3.0557   -2.2036 H   0  0  0  0  0  0  0  0  0  0  0  0
    0.9357   -2.5461   -0.0393 H   0  0  0  0  0  0  0  0  0  0  0  0
    0.4946   -0.4308    1.3692 H   0  0  0  0  0  0  0  0  0  0  0  0
    0.5973    0.5169   -0.1248 H   0  0  0  0  0  0  0  0  0  0  0  0
   -1.5500   -1.4360    0.5955 H   0  0  0  0  0  0  0  0  0  0  0  0
   -3.4073    0.5529   -2.7111 H   0  0  0  0  0  0  0  0  0  0  0  0
   -5.5589   -1.4189   -1.9991 H   0  0  0  0  0  0  0  0  0  0  0  0
   -5.4193   -0.5409   -3.5234 H   0  0  0  0  0  0  0  0  0  0  0  0
   -6.1766    1.7895   -3.7302 H   0  0  0  0  0  0  0  0  0  0  0  0
   -7.5366    3.6470   -2.7842 H   0  0  0  0  0  0  0  0  0  0  0  0
   -6.2141   -0.1923    0.1277 H   0  0  0  0  0  0  0  0  0  0  0  0
   -7.9605    3.7658    1.8610 H   0  0  0  0  0  0  0  0  0  0  0  0
   -9.4547    2.9080    1.4088 H   0  0  0  0  0  0  0  0  0  0  0  0
    5.9954   -3.2186    0.9961 H   0  0  0  0  0  0  0  0  0  0  0  0
    8.1547   -2.1320    1.5173 H   0  0  0  0  0  0  0  0  0  0  0  0
  1  2  1  0
  2  3  1  0
  3  4  2  0
  4  5  1  0
  5  6  2  0
  6  7  1  0
  7  8  2  0
  7  9  2  0
  7 10  1  0
 10 11  1  0
 11 12  1  0
 12 13  1  0
 13 14  1  0
 14 15  1  0
 15 16  1  0
 16 17  1  0
 17 18  2  0
 17 19  1  0
 19 20  2  0
 19 21  1  0
 21 22  1  0
 22 23  1  0
 23 24  2  0
 24 25  1  0
 25 26  2  0
 26 27  1  0
 27 28  2  0
 27 29  1  0
 29 30  1  0
 30 31  1  0
  6 32  1  0
 32 33  2  0
 33  3  1  0
 14 10  1  0
 28 23  1  0
 31 26  1  0
  1 34  1  0
  1 35  1  0
  1 36  1  0
  4 37  1  0
  5 38  1  0
 11 39  1  0
 11 40  1  0
 12 41  1  0
 12 42  1  0
 14 43  1  0
 15 44  1  0
 15 45  1  0
 16 46  1  0
 21 47  1  0
 22 48  1  0
 22 49  1  0
 24 50  1  0
 25 51  1  0
 28 52  1  0
 30 53  1  0
 30 54  1  0
 32 55  1  0
 33 56  1  0
M  END
$$$$
