
     RDKit          3D

 52 54  0  0  0  0  0  0  0  0999 V2000
   -3.0439   -1.5625   -0.0444 C   0  0  0  0  0  0  0  0  0  0  0  0
   -3.2690   -0.5685   -1.0862 N   0  0  0  0  0  0  0  0  0  0  0  0
   -4.5471   -0.6388   -1.7975 C   0  0  0  0  0  0  0  0  0  0  0  0
   -5.7319   -0.3242   -0.9110 C   0  0  0  0  0  0  0  0  0  0  0  0
   -6.7760   -1.2495   -0.7599 C   0  0  0  0  0  0  0  0  0  0  0  0
   -7.8667   -0.9573    0.0623 C   0  0  0  0  0  0  0  0  0  0  0  0
   -7.9303    0.2659    0.7317 C   0  0  0  0  0  0  0  0  0  0  0  0
   -6.9093    1.2011    0.5723 C   0  0  0  0  0  0  0  0  0  0  0  0
   -5.8171    0.9095   -0.2484 C   0  0  0  0  0  0  0  0  0  0  0  0
   -2.2634    0.2307   -1.6252 C   0  0  0  0  0  0  0  0  0  0  0  0
   -2.4559    0.9641   -2.5981 O   0  0  0  0  0  0  0  0  0  0  0  0
   -0.8859    0.2018   -0.9644 C   0  0  0  0  0  0  0  0  0  0  0  0
   -0.2791   -1.0810   -1.1327 O   0  0  0  0  0  0  0  0  0  0  0  0
    0.9604   -1.1727   -0.5708 C   0  0  0  0  0  0  0  0  0  0  0  0
    1.4952   -0.2794    0.0727 O   0  0  0  0  0  0  0  0  0  0  0  0
    1.5306   -2.5548   -0.8033 C   0  0  0  0  0  0  0  0  0  0  0  0
    2.9645   -2.7374   -0.5122 N   0  0  0  0  0  0  0  0  0  0  0  0
    4.0575   -1.7863   -1.3823 S   0  0  0  0  0  6  0  0  0  0  0  0
    3.3369   -1.1747   -2.4775 O   0  0  0  0  0  0  0  0  0  0  0  0
    5.2005   -2.6439   -1.6092 O   0  0  0  0  0  0  0  0  0  0  0  0
    4.5603   -0.5480   -0.2250 C   0  0  0  0  0  0  0  0  0  0  0  0
    5.1239   -0.9409    0.9900 C   0  0  0  0  0  0  0  0  0  0  0  0
    5.5446    0.0315    1.8983 C   0  0  0  0  0  0  0  0  0  0  0  0
    5.4146    1.3974    1.5979 C   0  0  0  0  0  0  0  0  0  0  0  0
    5.8379    2.3865    2.5005 C   0  0  0  0  0  0  0  0  0  0  0  0
    5.7107    3.7410    2.1864 C   0  0  0  0  0  0  0  0  0  0  0  0
    5.1555    4.1241    0.9684 C   0  0  0  0  0  0  0  0  0  0  0  0
    4.7264    3.1538    0.0607 C   0  0  0  0  0  0  0  0  0  0  0  0
    4.8496    1.7878    0.3594 C   0  0  0  0  0  0  0  0  0  0  0  0
    4.4263    0.8047   -0.5479 C   0  0  0  0  0  0  0  0  0  0  0  0
   -2.8126   -2.5187   -0.5233 H   0  0  0  0  0  0  0  0  0  0  0  0
   -2.2194   -1.2840    0.6143 H   0  0  0  0  0  0  0  0  0  0  0  0
   -3.9387   -1.6738    0.5755 H   0  0  0  0  0  0  0  0  0  0  0  0
   -4.5732    0.0466   -2.6528 H   0  0  0  0  0  0  0  0  0  0  0  0
   -4.6276   -1.6529   -2.2111 H   0  0  0  0  0  0  0  0  0  0  0  0
   -6.7448   -2.2031   -1.2811 H   0  0  0  0  0  0  0  0  0  0  0  0
   -8.6648   -1.6846    0.1842 H   0  0  0  0  0  0  0  0  0  0  0  0
   -8.7815    0.4931    1.3710 H   0  0  0  0  0  0  0  0  0  0  0  0
   -6.9637    2.1578    1.0858 H   0  0  0  0  0  0  0  0  0  0  0  0
   -5.0257    1.6483   -0.3682 H   0  0  0  0  0  0  0  0  0  0  0  0
   -0.9941    0.4562    0.0951 H   0  0  0  0  0  0  0  0  0  0  0  0
   -0.2646    0.9662   -1.4452 H   0  0  0  0  0  0  0  0  0  0  0  0
    1.3354   -2.8631   -1.8362 H   0  0  0  0  0  0  0  0  0  0  0  0
    0.9804   -3.2397   -0.1478 H   0  0  0  0  0  0  0  0  0  0  0  0
    3.2939   -3.7032   -0.4946 H   0  0  0  0  0  0  0  0  0  0  0  0
    5.2413   -1.9936    1.2318 H   0  0  0  0  0  0  0  0  0  0  0  0
    5.9816   -0.2826    2.8437 H   0  0  0  0  0  0  0  0  0  0  0  0
    6.2738    2.1078    3.4576 H   0  0  0  0  0  0  0  0  0  0  0  0
    6.0449    4.4965    2.8928 H   0  0  0  0  0  0  0  0  0  0  0  0
    5.0575    5.1787    0.7211 H   0  0  0  0  0  0  0  0  0  0  0  0
    4.2944    3.4729   -0.8858 H   0  0  0  0  0  0  0  0  0  0  0  0
    3.9872    1.0950   -1.5004 H   0  0  0  0  0  0  0  0  0  0  0  0
  1  2  1  0
  2  3  1  0
  3  4  1  0
  4  5  2  0
  5  6  1  0
  6  7  2  0
  7  8  1  0
  8  9  2  0
  2 10  1  0
 10 11  2  0
 10 12  1  0
 12 13  1  0
 13 14  1  0
 14 15  2  0
 14 16  1  0
 16 17  1  0
 17 18  1  0
 18 19  2  0
 18 20  2  0
 18 21  1  0
 21 22  2  0
 22 23  1  0
 23 24  2  0
 24 25  1  0
 25 26  2  0
 26 27  1  0
 27 28  2  0
 28 29  1  0
 29 30  2  0
  9  4  1  0
 30 21  1  0
 29 24  1  0
  1 31  1  0
  1 32  1  0
  1 33  1  0
  3 34  1  0
  3 35  1  0
  5 36  1  0
  6 37  1  0
  7 38  1  0
  8 39  1  0
  9 40  1  0
 12 41  1  0
 12 42  1  0
 16 43  1  0
 16 44  1  0
 17 45  1  0
 22 46  1  0
 23 47  1  0
 25 48  1  0
 26 49  1  0
 27 50  1  0
 28 51  1  0
 30 52  1  0
M  END
$$$$
