
     RDKit          3D

 55 58  0  0  0  0  0  0  0  0999 V2000
    2.1730   -1.9732    3.1912 O   0  0  0  0  0  0  0  0  0  0  0  0
    1.7802   -2.3801    2.0949 C   0  0  0  0  0  0  0  0  0  0  0  0
    0.3982   -2.9803    1.9299 C   0  0  0  0  0  0  0  0  0  0  0  0
   -0.3930   -2.6246    0.3356 S   0  0  0  0  0  0  0  0  0  0  0  0
   -0.7750   -0.9552    0.5552 C   0  0  0  0  0  0  0  0  0  0  0  0
    0.1003   -0.0090    0.7773 N   0  0  0  0  0  0  0  0  0  0  0  0
   -0.5892    1.1678    0.9172 N   0  0  0  0  0  0  0  0  0  0  0  0
   -1.8805    0.9115    0.8286 C   0  0  0  0  0  0  0  0  0  0  0  0
   -2.9295    1.9207    0.9377 C   0  0  0  0  0  0  0  0  0  0  0  0
   -3.9666    1.7818    1.8724 C   0  0  0  0  0  0  0  0  0  0  0  0
   -4.9810    2.7388    1.9539 C   0  0  0  0  0  0  0  0  0  0  0  0
   -4.9621    3.8511    1.1139 C   0  0  0  0  0  0  0  0  0  0  0  0
   -3.9170    4.0198    0.2069 C   0  0  0  0  0  0  0  0  0  0  0  0
   -2.9013    3.0702    0.1341 C   0  0  0  0  0  0  0  0  0  0  0  0
   -1.8876    3.3310   -0.7494 O   0  0  0  0  0  0  0  0  0  0  0  0
   -2.0395   -0.4287    0.5280 N   0  0  0  0  0  0  0  0  0  0  0  0
   -3.2845   -1.1217    0.2478 C   0  0  0  0  0  0  0  0  0  0  0  0
   -3.8772   -0.7336   -1.0840 C   0  0  0  0  0  0  0  0  0  0  0  0
   -5.1061   -0.0578   -1.1434 C   0  0  0  0  0  0  0  0  0  0  0  0
   -5.6620    0.3007   -2.3719 C   0  0  0  0  0  0  0  0  0  0  0  0
   -5.0008   -0.0172   -3.5549 C   0  0  0  0  0  0  0  0  0  0  0  0
   -3.7845   -0.6953   -3.5125 C   0  0  0  0  0  0  0  0  0  0  0  0
   -3.2245   -1.0526   -2.2846 C   0  0  0  0  0  0  0  0  0  0  0  0
    2.5979   -2.4561    0.9872 N   0  0  0  0  0  0  0  0  0  0  0  0
    3.8703   -1.8880    1.0596 N   0  0  0  0  0  0  0  0  0  0  0  0
    4.5837   -1.7131   -0.1069 C   0  0  0  0  0  0  0  0  0  0  0  0
    4.2083   -2.1796   -1.1819 O   0  0  0  0  0  0  0  0  0  0  0  0
    5.8556   -0.9314   -0.0097 C   0  0  0  0  0  0  0  0  0  0  0  0
    6.6629   -0.8710   -1.1590 C   0  0  0  0  0  0  0  0  0  0  0  0
    7.8643   -0.1592   -1.1524 C   0  0  0  0  0  0  0  0  0  0  0  0
    8.2774    0.4957    0.0031 C   0  0  0  0  0  0  0  0  0  0  0  0
    7.4870    0.4499    1.1528 C   0  0  0  0  0  0  0  0  0  0  0  0
    6.2781   -0.2526    1.1426 C   0  0  0  0  0  0  0  0  0  0  0  0
    5.5067   -0.2397    2.2711 O   0  0  0  0  0  0  0  0  0  0  0  0
   -0.2456   -2.6158    2.7365 H   0  0  0  0  0  0  0  0  0  0  0  0
    0.4907   -4.0644    2.0392 H   0  0  0  0  0  0  0  0  0  0  0  0
   -3.9826    0.9415    2.5611 H   0  0  0  0  0  0  0  0  0  0  0  0
   -5.7780    2.6256    2.6835 H   0  0  0  0  0  0  0  0  0  0  0  0
   -5.7470    4.6011    1.1783 H   0  0  0  0  0  0  0  0  0  0  0  0
   -3.8820    4.8985   -0.4325 H   0  0  0  0  0  0  0  0  0  0  0  0
   -1.1362    2.7388   -0.5397 H   0  0  0  0  0  0  0  0  0  0  0  0
   -3.1229   -2.2029    0.2693 H   0  0  0  0  0  0  0  0  0  0  0  0
   -3.9741   -0.9120    1.0723 H   0  0  0  0  0  0  0  0  0  0  0  0
   -5.6435    0.2021   -0.2342 H   0  0  0  0  0  0  0  0  0  0  0  0
   -6.6102    0.8325   -2.4043 H   0  0  0  0  0  0  0  0  0  0  0  0
   -5.4338    0.2622   -4.5121 H   0  0  0  0  0  0  0  0  0  0  0  0
   -3.2700   -0.9442   -4.4386 H   0  0  0  0  0  0  0  0  0  0  0  0
   -2.2737   -1.5822   -2.2796 H   0  0  0  0  0  0  0  0  0  0  0  0
    2.2242   -2.6013    0.0484 H   0  0  0  0  0  0  0  0  0  0  0  0
    4.1015   -1.3534    1.9002 H   0  0  0  0  0  0  0  0  0  0  0  0
    6.3546   -1.3831   -2.0691 H   0  0  0  0  0  0  0  0  0  0  0  0
    8.4733   -0.1016   -2.0546 H   0  0  0  0  0  0  0  0  0  0  0  0
    9.2115    1.0518    0.0050 H   0  0  0  0  0  0  0  0  0  0  0  0
    7.8249    0.9794    2.0388 H   0  0  0  0  0  0  0  0  0  0  0  0
    5.9368    0.3085    2.9501 H   0  0  0  0  0  0  0  0  0  0  0  0
  1  2  2  0
  2  3  1  0
  3  4  1  0
  4  5  1  0
  5  6  2  0
  6  7  1  0
  7  8  2  0
  8  9  1  0
  9 10  2  0
 10 11  1  0
 11 12  2  0
 12 13  1  0
 13 14  2  0
 14 15  1  0
  8 16  1  0
 16 17  1  0
 17 18  1  0
 18 19  2  0
 19 20  1  0
 20 21  2  0
 21 22  1  0
 22 23  2  0
  2 24  1  0
 24 25  1  0
 25 26  1  0
 26 27  2  0
 26 28  1  0
 28 29  2  0
 29 30  1  0
 30 31  2  0
 31 32  1  0
 32 33  2  0
 33 34  1  0
 16  5  1  0
 23 18  1  0
 33 28  1  0
 14  9  1  0
  3 35  1  0
  3 36  1  0
 10 37  1  0
 11 38  1  0
 12 39  1  0
 13 40  1  0
 15 41  1  0
 17 42  1  0
 17 43  1  0
 19 44  1  0
 20 45  1  0
 21 46  1  0
 22 47  1  0
 23 48  1  0
 24 49  1  0
 25 50  1  0
 29 51  1  0
 30 52  1  0
 31 53  1  0
 32 54  1  0
 34 55  1  0
M  END
$$$$
