
     RDKit          3D

 42 46  0  0  0  0  0  0  0  0999 V2000
    4.8002    2.3970   -0.7647 C   0  0  0  0  0  0  0  0  0  0  0  0
    5.0575    1.3292    0.0928 C   0  0  0  0  0  0  0  0  0  0  0  0
    4.0722    0.3639    0.3481 C   0  0  0  0  0  0  0  0  0  0  0  0
    4.3208   -0.7110    1.2083 C   0  0  0  0  0  0  0  0  0  0  0  0
    3.3339   -1.6654    1.4561 C   0  0  0  0  0  0  0  0  0  0  0  0
    2.0744   -1.5695    0.8499 C   0  0  0  0  0  0  0  0  0  0  0  0
    1.0901   -2.5287    1.1017 C   0  0  0  0  0  0  0  0  0  0  0  0
   -0.1604   -2.4344    0.4967 C   0  0  0  0  0  0  0  0  0  0  0  0
   -0.4636   -1.3759   -0.3774 C   0  0  0  0  0  0  0  0  0  0  0  0
   -1.8488   -1.3508   -1.0056 C   0  0  0  0  0  0  0  0  0  0  0  0
   -2.6987   -0.2454   -0.5336 N   0  0  0  0  0  0  0  0  0  0  0  0
   -3.0374   -0.3775    0.9001 C   0  0  0  0  0  0  0  0  0  0  0  0
   -3.9949    0.7367    1.3538 C   0  0  0  0  0  0  0  0  0  0  0  0
   -5.1993    0.7358    0.5754 O   0  0  0  0  0  0  0  0  0  0  0  0
   -4.8827    0.9193   -0.8103 C   0  0  0  0  0  0  0  0  0  0  0  0
   -3.9517   -0.1934   -1.3157 C   0  0  0  0  0  0  0  0  0  0  0  0
    0.5216   -0.3849   -0.6456 C   0  0  0  0  0  0  0  0  0  0  0  0
    0.3053    0.7135   -1.5035 C   0  0  0  0  0  0  0  0  0  0  0  0
    1.2971    1.6673   -1.7473 C   0  0  0  0  0  0  0  0  0  0  0  0
    2.5503    1.5617   -1.1407 C   0  0  0  0  0  0  0  0  0  0  0  0
    3.5542    2.5127   -1.3774 C   0  0  0  0  0  0  0  0  0  0  0  0
    2.8046    0.4767   -0.2726 C   0  0  0  0  0  0  0  0  0  0  0  0
    1.7946   -0.4926   -0.0252 C   0  0  0  0  0  0  0  0  0  0  0  0
    5.5706    3.1394   -0.9550 H   0  0  0  0  0  0  0  0  0  0  0  0
    6.0359    1.2559    0.5624 H   0  0  0  0  0  0  0  0  0  0  0  0
    5.2875   -0.8161    1.6956 H   0  0  0  0  0  0  0  0  0  0  0  0
    3.5603   -2.4884    2.1305 H   0  0  0  0  0  0  0  0  0  0  0  0
    1.2880   -3.3617    1.7725 H   0  0  0  0  0  0  0  0  0  0  0  0
   -0.9049   -3.1973    0.7147 H   0  0  0  0  0  0  0  0  0  0  0  0
   -1.7078   -1.2792   -2.0927 H   0  0  0  0  0  0  0  0  0  0  0  0
   -2.3524   -2.3140   -0.8442 H   0  0  0  0  0  0  0  0  0  0  0  0
   -2.1348   -0.3185    1.5176 H   0  0  0  0  0  0  0  0  0  0  0  0
   -3.5134   -1.3498    1.0829 H   0  0  0  0  0  0  0  0  0  0  0  0
   -4.2780    0.5778    2.3992 H   0  0  0  0  0  0  0  0  0  0  0  0
   -3.5193    1.7225    1.2842 H   0  0  0  0  0  0  0  0  0  0  0  0
   -4.4341    1.9099   -0.9525 H   0  0  0  0  0  0  0  0  0  0  0  0
   -5.8234    0.8973   -1.3698 H   0  0  0  0  0  0  0  0  0  0  0  0
   -3.7253   -0.0079   -2.3719 H   0  0  0  0  0  0  0  0  0  0  0  0
   -4.4770   -1.1549   -1.2445 H   0  0  0  0  0  0  0  0  0  0  0  0
   -0.6556    0.8515   -1.9936 H   0  0  0  0  0  0  0  0  0  0  0  0
    1.0734    2.4958   -2.4153 H   0  0  0  0  0  0  0  0  0  0  0  0
    3.3708    3.3532   -2.0430 H   0  0  0  0  0  0  0  0  0  0  0  0
  1  2  2  0
  2  3  1  0
  3  4  2  0
  4  5  1  0
  5  6  2  0
  6  7  1  0
  7  8  2  0
  8  9  1  0
  9 10  1  0
 10 11  1  0
 11 12  1  0
 12 13  1  0
 13 14  1  0
 14 15  1  0
 15 16  1  0
  9 17  2  0
 17 18  1  0
 18 19  2  0
 19 20  1  0
 20 21  2  0
 20 22  1  0
 22 23  2  0
 21  1  1  0
 22  3  1  0
 23  6  1  0
 16 11  1  0
 23 17  1  0
  1 24  1  0
  2 25  1  0
  4 26  1  0
  5 27  1  0
  7 28  1  0
  8 29  1  0
 10 30  1  0
 10 31  1  0
 12 32  1  0
 12 33  1  0
 13 34  1  0
 13 35  1  0
 15 36  1  0
 15 37  1  0
 16 38  1  0
 16 39  1  0
 18 40  1  0
 19 41  1  0
 21 42  1  0
M  END
$$$$
