
     RDKit          3D

 51 55  0  0  0  0  0  0  0  0999 V2000
    2.2482   -1.1884    2.7850 O   0  0  0  0  0  0  0  0  0  0  0  0
    1.8169   -1.4701    1.6690 C   0  0  0  0  0  0  0  0  0  0  0  0
    0.5343   -2.2792    1.4629 C   0  0  0  0  0  0  0  0  0  0  0  0
   -0.6227   -1.4024    1.2509 N   0  0  0  0  0  0  0  0  0  0  0  0
   -0.7687   -0.8305   -0.0087 C   0  0  0  0  0  0  0  0  0  0  0  0
   -0.0022   -1.0898   -0.9414 O   0  0  0  0  0  0  0  0  0  0  0  0
   -1.8500    0.2054   -0.1841 C   0  0  0  0  0  0  0  0  0  0  0  0
   -3.1712   -0.4388   -0.5631 C   0  0  0  0  0  0  0  0  0  0  0  0
   -4.2516    0.5920   -0.6598 C   0  0  0  0  0  0  0  0  0  0  0  0
   -4.8660    1.4340    0.2488 C   0  0  0  0  0  0  0  0  0  0  0  0
   -5.8149    2.1894   -0.4814 C   0  0  0  0  0  0  0  0  0  0  0  0
   -5.7182    1.7677   -1.7864 C   0  0  0  0  0  0  0  0  0  0  0  0
   -4.7705    0.8038   -1.9055 O   0  0  0  0  0  0  0  0  0  0  0  0
   -3.7085   -1.8123    0.5274 S   0  0  0  0  0  0  0  0  0  0  0  0
   -2.9695   -1.3393    2.0885 C   0  0  0  0  0  0  0  0  0  0  0  0
   -3.8535   -1.1995    3.1705 C   0  0  0  0  0  0  0  0  0  0  0  0
   -3.3737   -0.9786    4.4602 C   0  0  0  0  0  0  0  0  0  0  0  0
   -2.0039   -0.9192    4.6851 C   0  0  0  0  0  0  0  0  0  0  0  0
   -1.1129   -1.0714    3.6205 C   0  0  0  0  0  0  0  0  0  0  0  0
   -1.5758   -1.2662    2.3081 C   0  0  0  0  0  0  0  0  0  0  0  0
    2.4144   -1.0481    0.5016 N   0  0  0  0  0  0  0  0  0  0  0  0
    3.5296   -0.1346    0.5384 C   0  0  0  0  0  0  0  0  0  0  0  0
    4.0464    0.1379   -0.8485 C   0  0  0  0  0  0  0  0  0  0  0  0
    4.9334   -0.7739   -1.4693 C   0  0  0  0  0  0  0  0  0  0  0  0
    5.4010   -0.5518   -2.7688 C   0  0  0  0  0  0  0  0  0  0  0  0
    4.9617    0.5786   -3.4231 C   0  0  0  0  0  0  0  0  0  0  0  0
    4.0928    1.4663   -2.8321 C   0  0  0  0  0  0  0  0  0  0  0  0
    3.6149    1.2748   -1.5527 C   0  0  0  0  0  0  0  0  0  0  0  0
    3.7805    2.5097   -3.6473 O   0  0  0  0  0  0  0  0  0  0  0  0
    4.5436    2.1694   -4.8241 C   0  0  0  0  0  0  0  0  0  0  0  0
    5.3054    0.9512   -4.6850 O   0  0  0  0  0  0  0  0  0  0  0  0
    0.3821   -2.9412    2.3231 H   0  0  0  0  0  0  0  0  0  0  0  0
    0.6609   -2.9303    0.5888 H   0  0  0  0  0  0  0  0  0  0  0  0
   -1.5271    0.8879   -0.9829 H   0  0  0  0  0  0  0  0  0  0  0  0
   -1.9174    0.8405    0.7082 H   0  0  0  0  0  0  0  0  0  0  0  0
   -3.0522   -0.9042   -1.5496 H   0  0  0  0  0  0  0  0  0  0  0  0
   -4.6584    1.4897    1.3085 H   0  0  0  0  0  0  0  0  0  0  0  0
   -6.4889    2.9464   -0.1052 H   0  0  0  0  0  0  0  0  0  0  0  0
   -6.2282    2.0360   -2.7020 H   0  0  0  0  0  0  0  0  0  0  0  0
   -4.9280   -1.2857    3.0185 H   0  0  0  0  0  0  0  0  0  0  0  0
   -4.0689   -0.8740    5.2896 H   0  0  0  0  0  0  0  0  0  0  0  0
   -1.6223   -0.7564    5.6907 H   0  0  0  0  0  0  0  0  0  0  0  0
   -0.0495   -0.9991    3.8378 H   0  0  0  0  0  0  0  0  0  0  0  0
    1.8417   -1.0693   -0.3446 H   0  0  0  0  0  0  0  0  0  0  0  0
    3.2002    0.7941    1.0214 H   0  0  0  0  0  0  0  0  0  0  0  0
    4.3199   -0.5579    1.1709 H   0  0  0  0  0  0  0  0  0  0  0  0
    5.2556   -1.6666   -0.9344 H   0  0  0  0  0  0  0  0  0  0  0  0
    6.0814   -1.2478   -3.2484 H   0  0  0  0  0  0  0  0  0  0  0  0
    2.9219    1.9870   -1.1151 H   0  0  0  0  0  0  0  0  0  0  0  0
    5.2352    2.9917   -5.0422 H   0  0  0  0  0  0  0  0  0  0  0  0
    3.8530    2.0575   -5.6684 H   0  0  0  0  0  0  0  0  0  0  0  0
  1  2  2  0
  2  3  1  0
  3  4  1  0
  4  5  1  0
  5  6  2  0
  5  7  1  0
  7  8  1  0
  8  9  1  0
  9 10  2  0
 10 11  1  0
 11 12  2  0
 12 13  1  0
  8 14  1  0
 14 15  1  0
 15 16  2  0
 16 17  1  0
 17 18  2  0
 18 19  1  0
 19 20  2  0
  2 21  1  0
 21 22  1  0
 22 23  1  0
 23 24  2  0
 24 25  1  0
 25 26  2  0
 26 27  1  0
 27 28  2  0
 27 29  1  0
 29 30  1  0
 30 31  1  0
 20  4  1  0
 28 23  1  0
 13  9  1  0
 20 15  1  0
 31 26  1  0
  3 32  1  0
  3 33  1  0
  7 34  1  0
  7 35  1  0
  8 36  1  0
 10 37  1  0
 11 38  1  0
 12 39  1  0
 16 40  1  0
 17 41  1  0
 18 42  1  0
 19 43  1  0
 21 44  1  0
 22 45  1  0
 22 46  1  0
 24 47  1  0
 25 48  1  0
 28 49  1  0
 30 50  1  0
 30 51  1  0
M  END
$$$$
