
     RDKit          3D

 53 54  0  0  0  0  0  0  0  0999 V2000
   -6.6954   -0.5606    0.5323 C   0  0  0  0  0  0  0  0  0  0  0  0
   -5.4044    0.1421    0.1551 C   0  0  0  0  0  0  0  0  0  0  0  0
   -4.3338   -0.8374   -0.1487 N   0  0  0  0  0  0  0  0  0  0  0  0
   -3.8308   -1.6009    1.0185 C   0  0  0  0  0  0  0  0  0  0  0  0
   -4.2086   -3.0647    0.8646 C   0  0  0  0  0  0  0  0  0  0  0  0
   -3.1792   -0.3708   -1.3167 S   0  0  0  0  0  6  0  0  0  0  0  0
   -3.8759    0.2123   -2.4458 O   0  0  0  0  0  0  0  0  0  0  0  0
   -2.2472   -1.4651   -1.4978 O   0  0  0  0  0  0  0  0  0  0  0  0
   -2.3009    0.9517   -0.5010 C   0  0  0  0  0  0  0  0  0  0  0  0
   -2.7589    2.2673   -0.6297 C   0  0  0  0  0  0  0  0  0  0  0  0
   -2.0610    3.3048   -0.0117 C   0  0  0  0  0  0  0  0  0  0  0  0
   -0.9006    3.0307    0.7177 C   0  0  0  0  0  0  0  0  0  0  0  0
   -0.4249    1.7147    0.8240 C   0  0  0  0  0  0  0  0  0  0  0  0
    0.8174    1.3761    1.5674 C   0  0  0  0  0  0  0  0  0  0  0  0
    1.2090    0.2315    1.7449 O   0  0  0  0  0  0  0  0  0  0  0  0
    1.4508    2.4982    1.9838 O   0  0  0  0  0  0  0  0  0  0  0  0
    2.7239    2.2774    2.5964 C   0  0  0  0  0  0  0  0  0  0  0  0
    3.7861    1.8726    1.5719 C   0  0  0  0  0  0  0  0  0  0  0  0
    4.3801    2.6928    0.8820 O   0  0  0  0  0  0  0  0  0  0  0  0
    3.9717    0.5125    1.4650 N   0  0  0  0  0  0  0  0  0  0  0  0
    4.8142   -0.0484    0.4218 C   0  0  0  0  0  0  0  0  0  0  0  0
    4.1005   -0.1169   -0.9362 C   0  0  0  0  0  0  0  0  0  0  0  0
    4.8813   -0.8369   -1.9283 N   0  0  0  0  0  0  0  0  0  0  0  0
    4.9411   -2.2072   -1.9912 C   0  0  0  0  0  0  0  0  0  0  0  0
    4.1808   -2.9418   -1.1302 O   0  0  0  0  0  0  0  0  0  0  0  0
    5.7738   -2.6876   -2.9209 C   0  0  0  0  0  0  0  0  0  0  0  0
    6.5603   -1.4040   -3.7827 S   0  0  0  0  0  0  0  0  0  0  0  0
    5.7128   -0.1768   -2.8166 C   0  0  0  0  0  0  0  0  0  0  0  0
    5.8884    1.0212   -2.9498 O   0  0  0  0  0  0  0  0  0  0  0  0
   -1.1259    0.6722    0.2040 C   0  0  0  0  0  0  0  0  0  0  0  0
   -6.9769   -1.3128   -0.2138 H   0  0  0  0  0  0  0  0  0  0  0  0
   -6.6031   -1.0681    1.4958 H   0  0  0  0  0  0  0  0  0  0  0  0
   -7.5110    0.1613    0.6193 H   0  0  0  0  0  0  0  0  0  0  0  0
   -5.0859    0.8113    0.9637 H   0  0  0  0  0  0  0  0  0  0  0  0
   -5.6123    0.7646   -0.7233 H   0  0  0  0  0  0  0  0  0  0  0  0
   -4.2447   -1.2021    1.9515 H   0  0  0  0  0  0  0  0  0  0  0  0
   -2.7436   -1.5186    1.1144 H   0  0  0  0  0  0  0  0  0  0  0  0
   -3.7808   -3.4900   -0.0506 H   0  0  0  0  0  0  0  0  0  0  0  0
   -5.2948   -3.1902    0.8138 H   0  0  0  0  0  0  0  0  0  0  0  0
   -3.8387   -3.6452    1.7144 H   0  0  0  0  0  0  0  0  0  0  0  0
   -3.6487    2.4912   -1.2165 H   0  0  0  0  0  0  0  0  0  0  0  0
   -2.4111    4.3312   -0.1078 H   0  0  0  0  0  0  0  0  0  0  0  0
   -0.3688    3.8568    1.1855 H   0  0  0  0  0  0  0  0  0  0  0  0
    3.0434    3.2166    3.0619 H   0  0  0  0  0  0  0  0  0  0  0  0
    2.6477    1.5364    3.4021 H   0  0  0  0  0  0  0  0  0  0  0  0
    3.1628   -0.0479    1.7384 H   0  0  0  0  0  0  0  0  0  0  0  0
    5.1059   -1.0504    0.7606 H   0  0  0  0  0  0  0  0  0  0  0  0
    5.7343    0.5536    0.3350 H   0  0  0  0  0  0  0  0  0  0  0  0
    3.9167    0.9051   -1.2991 H   0  0  0  0  0  0  0  0  0  0  0  0
    3.1244   -0.5970   -0.8363 H   0  0  0  0  0  0  0  0  0  0  0  0
    4.3177   -3.8849   -1.3293 H   0  0  0  0  0  0  0  0  0  0  0  0
    5.9737   -3.7304   -3.1276 H   0  0  0  0  0  0  0  0  0  0  0  0
   -0.7511   -0.3493    0.2622 H   0  0  0  0  0  0  0  0  0  0  0  0
  1  2  1  0
  2  3  1  0
  3  4  1  0
  4  5  1  0
  3  6  1  0
  6  7  2  0
  6  8  2  0
  6  9  1  0
  9 10  2  0
 10 11  1  0
 11 12  2  0
 12 13  1  0
 13 14  1  0
 14 15  2  0
 14 16  1  0
 16 17  1  0
 17 18  1  0
 18 19  2  0
 18 20  1  0
 20 21  1  0
 21 22  1  0
 22 23  1  0
 23 24  1  0
 24 25  1  0
 24 26  2  0
 26 27  1  0
 27 28  1  0
 28 29  2  0
 13 30  2  0
 30  9  1  0
 28 23  1  0
  1 31  1  0
  1 32  1  0
  1 33  1  0
  2 34  1  0
  2 35  1  0
  4 36  1  0
  4 37  1  0
  5 38  1  0
  5 39  1  0
  5 40  1  0
 10 41  1  0
 11 42  1  0
 12 43  1  0
 17 44  1  0
 17 45  1  0
 20 46  1  0
 21 47  1  0
 21 48  1  0
 22 49  1  0
 22 50  1  0
 25 51  1  0
 26 52  1  0
 30 53  1  0
M  END
$$$$
