
     RDKit          3D

 43 45  0  0  0  0  0  0  0  0999 V2000
   -5.5859    1.8550    0.4303 C   0  0  0  0  0  0  0  0  0  0  0  0
   -5.0364    0.6518    0.2158 C   0  0  0  0  0  0  0  0  0  0  0  0
   -4.1599    0.3098   -0.9548 C   0  0  0  0  0  0  0  0  0  0  0  0
   -2.8883   -0.2829   -0.5337 N   0  0  0  0  0  0  0  0  0  0  0  0
   -1.7103    0.4106   -0.3041 C   0  0  0  0  0  0  0  0  0  0  0  0
   -1.6374    1.8991   -0.3733 C   0  0  0  0  0  0  0  0  0  0  0  0
   -0.7398   -0.5333   -0.0067 C   0  0  0  0  0  0  0  0  0  0  0  0
    0.6391   -0.2852    0.2831 C   0  0  0  0  0  0  0  0  0  0  0  0
    1.4333    0.5582   -0.3977 C   0  0  0  0  0  0  0  0  0  0  0  0
    2.8509    0.7767   -0.0938 C   0  0  0  0  0  0  0  0  0  0  0  0
    3.3724    2.0662   -0.1784 C   0  0  0  0  0  0  0  0  0  0  0  0
    4.7205    2.2843    0.0835 C   0  0  0  0  0  0  0  0  0  0  0  0
    5.5353    1.2542    0.4022 N   0  0  0  0  0  4  0  0  0  0  0  0
    6.9576    1.5101    0.6862 C   0  0  0  0  0  0  0  0  0  0  0  0
    5.0546   -0.0066    0.4811 C   0  0  0  0  0  0  0  0  0  0  0  0
    3.7130   -0.2703    0.2294 C   0  0  0  0  0  0  0  0  0  0  0  0
   -1.3564   -1.8208    0.0082 C   0  0  0  0  0  0  0  0  0  0  0  0
   -0.8931   -3.1311    0.2645 C   0  0  0  0  0  0  0  0  0  0  0  0
   -1.7782   -4.2108    0.1877 C   0  0  0  0  0  0  0  0  0  0  0  0
   -3.1122   -4.0046   -0.1423 C   0  0  0  0  0  0  0  0  0  0  0  0
   -3.5956   -2.7202   -0.4059 C   0  0  0  0  0  0  0  0  0  0  0  0
   -2.6990   -1.6395   -0.3272 C   0  0  0  0  0  0  0  0  0  0  0  0
   -5.4297    2.6889   -0.2470 H   0  0  0  0  0  0  0  0  0  0  0  0
   -6.2142    2.0292    1.2995 H   0  0  0  0  0  0  0  0  0  0  0  0
   -5.2336   -0.1483    0.9273 H   0  0  0  0  0  0  0  0  0  0  0  0
   -4.6651   -0.4121   -1.6051 H   0  0  0  0  0  0  0  0  0  0  0  0
   -3.9333    1.1847   -1.5739 H   0  0  0  0  0  0  0  0  0  0  0  0
   -0.7788    2.2851    0.1841 H   0  0  0  0  0  0  0  0  0  0  0  0
   -2.5249    2.3665    0.0627 H   0  0  0  0  0  0  0  0  0  0  0  0
   -1.5458    2.2256   -1.4139 H   0  0  0  0  0  0  0  0  0  0  0  0
    1.0487   -0.8682    1.1048 H   0  0  0  0  0  0  0  0  0  0  0  0
    1.0261    1.1292   -1.2301 H   0  0  0  0  0  0  0  0  0  0  0  0
    2.7326    2.9084   -0.4362 H   0  0  0  0  0  0  0  0  0  0  0  0
    5.1554    3.2789    0.0405 H   0  0  0  0  0  0  0  0  0  0  0  0
    7.2882    2.3783    0.1104 H   0  0  0  0  0  0  0  0  0  0  0  0
    7.5444    0.6364    0.3913 H   0  0  0  0  0  0  0  0  0  0  0  0
    7.0482    1.6967    1.7591 H   0  0  0  0  0  0  0  0  0  0  0  0
    5.7513   -0.7982    0.7427 H   0  0  0  0  0  0  0  0  0  0  0  0
    3.3530   -1.2962    0.2783 H   0  0  0  0  0  0  0  0  0  0  0  0
    0.1465   -3.3076    0.5207 H   0  0  0  0  0  0  0  0  0  0  0  0
   -1.4209   -5.2179    0.3876 H   0  0  0  0  0  0  0  0  0  0  0  0
   -3.7911   -4.8530   -0.1971 H   0  0  0  0  0  0  0  0  0  0  0  0
   -4.6412   -2.5770   -0.6599 H   0  0  0  0  0  0  0  0  0  0  0  0
  1  2  2  0
  2  3  1  0
  3  4  1  0
  4  5  1  0
  5  6  1  0
  5  7  2  0
  7  8  1  0
  8  9  2  3
  9 10  1  0
 10 11  2  0
 11 12  1  0
 12 13  2  0
 13 14  1  0
 13 15  1  0
 15 16  2  0
  7 17  1  0
 17 18  2  0
 18 19  1  0
 19 20  2  0
 20 21  1  0
 21 22  2  0
 22  4  1  0
 16 10  1  0
 22 17  1  0
  1 23  1  0
  1 24  1  0
  2 25  1  0
  3 26  1  0
  3 27  1  0
  6 28  1  0
  6 29  1  0
  6 30  1  0
  8 31  1  0
  9 32  1  0
 11 33  1  0
 12 34  1  0
 14 35  1  0
 14 36  1  0
 14 37  1  0
 15 38  1  0
 16 39  1  0
 18 40  1  0
 19 41  1  0
 20 42  1  0
 21 43  1  0
M  CHG  1  13   1
M  END
$$$$
