
     RDKit          3D

 49 51  0  0  0  0  0  0  0  0999 V2000
    2.5668   -0.8226   -2.6417 O   0  0  0  0  0  0  0  0  0  0  0  0
    2.2542   -1.7097   -1.8598 C   0  0  0  0  0  0  0  0  0  0  0  0
    2.8893   -2.9170   -1.6963 N   0  0  0  0  0  0  0  0  0  0  0  0
    4.1451   -3.2204   -2.3309 C   0  0  0  0  0  0  0  0  0  0  0  0
    5.2968   -2.9481   -1.3996 C   0  0  0  0  0  0  0  0  0  0  0  0
    5.8136   -3.9642   -0.5833 C   0  0  0  0  0  0  0  0  0  0  0  0
    6.8660   -3.6992    0.2949 C   0  0  0  0  0  0  0  0  0  0  0  0
    7.4063   -2.4167    0.3711 C   0  0  0  0  0  0  0  0  0  0  0  0
    6.8936   -1.3964   -0.4277 C   0  0  0  0  0  0  0  0  0  0  0  0
    5.8419   -1.6592   -1.3065 C   0  0  0  0  0  0  0  0  0  0  0  0
    1.0355   -1.5251   -0.9264 C   0  0  0  0  0  0  0  0  0  0  0  0
    0.6662   -2.4445   -0.2098 O   0  0  0  0  0  0  0  0  0  0  0  0
    0.4545   -0.2823   -1.0157 N   0  0  0  0  0  0  0  0  0  0  0  0
   -0.8236    0.0109   -0.3906 C   0  0  0  0  0  0  0  0  0  0  0  0
   -1.1173    1.5217   -0.3347 C   0  0  0  0  0  0  0  0  0  0  0  0
   -1.0839    2.0488   -1.6835 O   0  0  0  0  0  0  0  0  0  0  0  0
   -2.4278    2.3799   -2.0409 C   0  0  0  0  0  0  0  0  0  0  0  0
   -3.0833    2.7489   -0.7313 C   0  0  0  0  0  0  0  0  0  0  0  0
   -2.4768    1.7775    0.1899 N   0  0  0  0  0  0  0  0  0  0  0  0
   -2.5135    2.1350    1.8385 S   0  0  0  0  0  6  0  0  0  0  0  0
   -2.0328    3.4890    2.0084 O   0  0  0  0  0  0  0  0  0  0  0  0
   -1.9087    1.0298    2.5475 O   0  0  0  0  0  0  0  0  0  0  0  0
   -4.2540    2.1067    2.1890 C   0  0  0  0  0  0  0  0  0  0  0  0
   -4.9215    0.8773    2.2075 C   0  0  0  0  0  0  0  0  0  0  0  0
   -6.2889    0.8421    2.4856 C   0  0  0  0  0  0  0  0  0  0  0  0
   -6.9725    2.0305    2.7481 C   0  0  0  0  0  0  0  0  0  0  0  0
   -8.8248    1.9805    3.1232 Br  0  0  0  0  0  0  0  0  0  0  0  0
   -6.3026    3.2556    2.7399 C   0  0  0  0  0  0  0  0  0  0  0  0
   -4.9348    3.2969    2.4623 C   0  0  0  0  0  0  0  0  0  0  0  0
    2.5664   -3.4924   -0.9240 H   0  0  0  0  0  0  0  0  0  0  0  0
    4.1242   -4.2788   -2.6129 H   0  0  0  0  0  0  0  0  0  0  0  0
    4.2571   -2.6402   -3.2540 H   0  0  0  0  0  0  0  0  0  0  0  0
    5.3991   -4.9688   -0.6252 H   0  0  0  0  0  0  0  0  0  0  0  0
    7.2626   -4.4928    0.9229 H   0  0  0  0  0  0  0  0  0  0  0  0
    8.2239   -2.2107    1.0568 H   0  0  0  0  0  0  0  0  0  0  0  0
    7.3091   -0.3941   -0.3639 H   0  0  0  0  0  0  0  0  0  0  0  0
    5.4427   -0.8514   -1.9181 H   0  0  0  0  0  0  0  0  0  0  0  0
    0.7667    0.3016   -1.7906 H   0  0  0  0  0  0  0  0  0  0  0  0
   -0.8398   -0.4362    0.6085 H   0  0  0  0  0  0  0  0  0  0  0  0
   -1.5840   -0.5016   -0.9924 H   0  0  0  0  0  0  0  0  0  0  0  0
   -0.3404    2.0517    0.2269 H   0  0  0  0  0  0  0  0  0  0  0  0
   -2.4354    3.1960   -2.7680 H   0  0  0  0  0  0  0  0  0  0  0  0
   -2.8918    1.4952   -2.4911 H   0  0  0  0  0  0  0  0  0  0  0  0
   -4.1701    2.6529   -0.7813 H   0  0  0  0  0  0  0  0  0  0  0  0
   -2.8122    3.7732   -0.4552 H   0  0  0  0  0  0  0  0  0  0  0  0
   -4.3833   -0.0480    2.0112 H   0  0  0  0  0  0  0  0  0  0  0  0
   -6.8094   -0.1125    2.5010 H   0  0  0  0  0  0  0  0  0  0  0  0
   -6.8352    4.1793    2.9540 H   0  0  0  0  0  0  0  0  0  0  0  0
   -4.4133    4.2517    2.4668 H   0  0  0  0  0  0  0  0  0  0  0  0
  1  2  2  0
  2  3  1  0
  3  4  1  0
  4  5  1  0
  5  6  2  0
  6  7  1  0
  7  8  2  0
  8  9  1  0
  9 10  2  0
  2 11  1  0
 11 12  2  0
 11 13  1  0
 13 14  1  0
 14 15  1  0
 15 16  1  0
 16 17  1  0
 17 18  1  0
 18 19  1  0
 19 20  1  0
 20 21  2  0
 20 22  2  0
 20 23  1  0
 23 24  2  0
 24 25  1  0
 25 26  2  0
 26 27  1  0
 26 28  1  0
 28 29  2  0
 10  5  1  0
 19 15  1  0
 29 23  1  0
  3 30  1  0
  4 31  1  0
  4 32  1  0
  6 33  1  0
  7 34  1  0
  8 35  1  0
  9 36  1  0
 10 37  1  0
 13 38  1  0
 14 39  1  0
 14 40  1  0
 15 41  1  0
 17 42  1  0
 17 43  1  0
 18 44  1  0
 18 45  1  0
 24 46  1  0
 25 47  1  0
 28 48  1  0
 29 49  1  0
M  END
$$$$
