
     RDKit          3D

 31 33  0  0  0  0  0  0  0  0999 V2000
   -2.3590   -1.3027    1.5020 C   0  0  0  0  0  0  0  0  0  0  0  0
   -2.9597   -0.4009    0.4712 C   0  0  0  0  0  0  0  0  0  0  0  0
   -4.3841   -0.2795    0.3192 C   0  0  0  0  0  0  0  0  0  0  0  0
   -4.7487    0.5970   -0.6724 C   0  0  0  0  0  0  0  0  0  0  0  0
   -3.3954    1.2913   -1.4304 S   0  0  0  0  0  0  0  0  0  0  0  0
   -2.2863    0.4163   -0.4345 C   0  0  0  0  0  0  0  0  0  0  0  0
   -0.8017    0.6597   -0.6655 C   0  0  0  0  0  0  0  0  0  0  0  0
   -0.1463    1.4082    0.4843 C   0  0  0  0  0  0  0  0  0  0  0  0
    0.4588    0.5747    1.5855 C   0  0  0  0  0  0  0  0  0  0  0  0
   -0.0334    0.5446    2.7143 O   0  0  0  0  0  0  0  0  0  0  0  0
    1.6569   -0.0460    1.3651 N   0  0  0  0  0  0  0  0  0  0  0  0
    2.3562   -0.1768    0.1533 C   0  0  0  0  0  0  0  0  0  0  0  0
    3.7542   -0.1161    0.2256 C   0  0  0  0  0  0  0  0  0  0  0  0
    4.5295   -0.2150   -0.9304 C   0  0  0  0  0  0  0  0  0  0  0  0
    3.9155   -0.4087   -2.1636 C   0  0  0  0  0  0  0  0  0  0  0  0
    2.5271   -0.5282   -2.2378 C   0  0  0  0  0  0  0  0  0  0  0  0
    1.7355   -0.4180   -1.0853 C   0  0  0  0  0  0  0  0  0  0  0  0
    0.0135   -0.8666   -1.2449 S   0  0  0  0  0  0  0  0  0  0  0  0
   -1.3454   -1.6166    1.2486 H   0  0  0  0  0  0  0  0  0  0  0  0
   -2.3395   -0.7987    2.4731 H   0  0  0  0  0  0  0  0  0  0  0  0
   -2.9595   -2.2129    1.6084 H   0  0  0  0  0  0  0  0  0  0  0  0
   -5.1071   -0.8197    0.9194 H   0  0  0  0  0  0  0  0  0  0  0  0
   -5.7491    0.8625   -0.9849 H   0  0  0  0  0  0  0  0  0  0  0  0
   -0.7153    1.3334   -1.5297 H   0  0  0  0  0  0  0  0  0  0  0  0
    0.6539    2.0531    0.0942 H   0  0  0  0  0  0  0  0  0  0  0  0
   -0.8574    2.1062    0.9467 H   0  0  0  0  0  0  0  0  0  0  0  0
    2.1335   -0.2953    2.2239 H   0  0  0  0  0  0  0  0  0  0  0  0
    4.2541    0.0407    1.1786 H   0  0  0  0  0  0  0  0  0  0  0  0
    5.6128   -0.1449   -0.8670 H   0  0  0  0  0  0  0  0  0  0  0  0
    4.5172   -0.4989   -3.0649 H   0  0  0  0  0  0  0  0  0  0  0  0
    2.0695   -0.7422   -3.2020 H   0  0  0  0  0  0  0  0  0  0  0  0
  1  2  1  0
  2  3  1  0
  3  4  2  0
  4  5  1  0
  5  6  1  0
  6  7  1  0
  7  8  1  0
  8  9  1  0
  9 10  2  0
  9 11  1  0
 11 12  1  0
 12 13  2  0
 13 14  1  0
 14 15  2  0
 15 16  1  0
 16 17  2  0
 17 18  1  0
  6  2  2  0
 18  7  1  0
 17 12  1  0
  1 19  1  0
  1 20  1  0
  1 21  1  0
  3 22  1  0
  4 23  1  0
  7 24  1  0
  8 25  1  0
  8 26  1  0
 11 27  1  0
 13 28  1  0
 14 29  1  0
 15 30  1  0
 16 31  1  0
M  END
$$$$
