
     RDKit          3D

 58 63  0  0  0  0  0  0  0  0999 V2000
    7.0798   -0.7068   -1.4344 C   0  0  0  0  0  0  0  0  0  0  0  0
    6.2967   -0.4897   -0.1850 C   0  0  0  0  0  0  0  0  0  0  0  0
    6.5386   -0.9901    1.0781 C   0  0  0  0  0  0  0  0  0  0  0  0
    5.5736   -0.5453    2.0282 C   0  0  0  0  0  0  0  0  0  0  0  0
    4.6019    0.2470    1.4516 C   0  0  0  0  0  0  0  0  0  0  0  0
    3.4916    0.9087    2.1097 C   0  0  0  0  0  0  0  0  0  0  0  0
    3.6811    1.7272    3.0108 O   0  0  0  0  0  0  0  0  0  0  0  0
    2.1885    0.5775    1.7138 N   0  0  0  0  0  0  0  0  0  0  0  0
    1.8182   -0.6032    0.9468 C   0  0  0  0  0  0  0  0  0  0  0  0
    0.8538   -0.2506   -0.1842 C   0  0  0  0  0  0  0  0  0  0  0  0
   -0.2634    0.7566    0.2393 C   0  0  0  0  0  0  0  0  0  0  0  0
   -0.2752    0.9292    1.7784 C   0  0  0  0  0  0  0  0  0  0  0  0
    1.0993    1.3368    2.3093 C   0  0  0  0  0  0  0  0  0  0  0  0
    0.1707    2.0142   -0.3488 O   0  0  0  0  0  0  0  0  0  0  0  0
   -0.7589    2.9912   -0.5382 C   0  0  0  0  0  0  0  0  0  0  0  0
   -0.2612    4.2545   -0.8577 C   0  0  0  0  0  0  0  0  0  0  0  0
   -1.1370    5.3262   -1.0488 C   0  0  0  0  0  0  0  0  0  0  0  0
   -2.5121    5.1298   -0.9211 C   0  0  0  0  0  0  0  0  0  0  0  0
   -3.5872    6.4524   -1.1509 Cl  0  0  0  0  0  0  0  0  0  0  0  0
   -3.0192    3.8707   -0.6124 C   0  0  0  0  0  0  0  0  0  0  0  0
   -2.1326    2.8033   -0.4343 C   0  0  0  0  0  0  0  0  0  0  0  0
   -2.6361    1.4588   -0.1257 C   0  0  0  0  0  0  0  0  0  0  0  0
   -3.7899    1.3173    0.2716 O   0  0  0  0  0  0  0  0  0  0  0  0
   -1.6462    0.3162   -0.3167 C   0  0  0  0  0  0  0  0  0  0  0  0
   -2.1825   -0.9831    0.2688 C   0  0  0  0  0  0  0  0  0  0  0  0
   -2.7429   -1.5849   -0.9743 C   0  0  0  0  0  0  0  0  0  0  0  0
   -3.6294   -2.7723   -0.9429 C   0  0  0  0  0  0  0  0  0  0  0  0
   -3.9181   -3.4407    0.2525 C   0  0  0  0  0  0  0  0  0  0  0  0
   -4.7542   -4.5606    0.2437 C   0  0  0  0  0  0  0  0  0  0  0  0
   -5.3029   -5.0162   -0.9546 C   0  0  0  0  0  0  0  0  0  0  0  0
   -5.0175   -4.3551   -2.1477 C   0  0  0  0  0  0  0  0  0  0  0  0
   -4.1822   -3.2365   -2.1433 C   0  0  0  0  0  0  0  0  0  0  0  0
   -2.3652   -1.0130   -2.0731 N   0  0  0  0  0  0  0  0  0  0  0  0
   -1.5406    0.0797   -1.7305 O   0  0  0  0  0  0  0  0  0  0  0  0
    4.9164    0.5237   -0.2090 S   0  0  0  0  0  0  0  0  0  0  0  0
    6.4258   -0.9891   -2.2654 H   0  0  0  0  0  0  0  0  0  0  0  0
    7.6212    0.2039   -1.7106 H   0  0  0  0  0  0  0  0  0  0  0  0
    7.8134   -1.5086   -1.3010 H   0  0  0  0  0  0  0  0  0  0  0  0
    7.3779   -1.6333    1.3169 H   0  0  0  0  0  0  0  0  0  0  0  0
    5.5856   -0.7953    3.0827 H   0  0  0  0  0  0  0  0  0  0  0  0
    1.3401   -1.3010    1.6463 H   0  0  0  0  0  0  0  0  0  0  0  0
    2.6834   -1.1366    0.5479 H   0  0  0  0  0  0  0  0  0  0  0  0
    1.4340    0.1722   -1.0150 H   0  0  0  0  0  0  0  0  0  0  0  0
    0.4383   -1.1916   -0.5601 H   0  0  0  0  0  0  0  0  0  0  0  0
   -0.5805   -0.0079    2.2600 H   0  0  0  0  0  0  0  0  0  0  0  0
   -0.9971    1.6911    2.0938 H   0  0  0  0  0  0  0  0  0  0  0  0
    1.1312    1.1964    3.3965 H   0  0  0  0  0  0  0  0  0  0  0  0
    1.2861    2.4004    2.1168 H   0  0  0  0  0  0  0  0  0  0  0  0
    0.8119    4.4080   -0.9525 H   0  0  0  0  0  0  0  0  0  0  0  0
   -0.7405    6.3082   -1.2947 H   0  0  0  0  0  0  0  0  0  0  0  0
   -4.0919    3.7153   -0.5210 H   0  0  0  0  0  0  0  0  0  0  0  0
   -2.9356   -0.8452    1.0473 H   0  0  0  0  0  0  0  0  0  0  0  0
   -1.3991   -1.6469    0.6449 H   0  0  0  0  0  0  0  0  0  0  0  0
   -3.5076   -3.1132    1.2023 H   0  0  0  0  0  0  0  0  0  0  0  0
   -4.9808   -5.0780    1.1730 H   0  0  0  0  0  0  0  0  0  0  0  0
   -5.9551   -5.8862   -0.9589 H   0  0  0  0  0  0  0  0  0  0  0  0
   -5.4463   -4.7071   -3.0830 H   0  0  0  0  0  0  0  0  0  0  0  0
   -3.9699   -2.7284   -3.0823 H   0  0  0  0  0  0  0  0  0  0  0  0
  1  2  1  0
  2  3  2  0
  3  4  1  0
  4  5  2  0
  5  6  1  0
  6  7  2  0
  6  8  1  0
  8  9  1  0
  9 10  1  0
 10 11  1  0
 11 12  1  0
 12 13  1  0
 11 14  1  0
 14 15  1  0
 15 16  2  0
 16 17  1  0
 17 18  2  0
 18 19  1  0
 18 20  1  0
 20 21  2  0
 21 22  1  0
 22 23  2  0
 22 24  1  0
 24 25  1  0
 25 26  1  0
 26 27  1  0
 27 28  2  0
 28 29  1  0
 29 30  2  0
 30 31  1  0
 31 32  2  0
 26 33  2  0
 33 34  1  0
  5 35  1  0
 35  2  1  0
 13  8  1  0
 21 15  1  0
 34 24  1  0
 24 11  1  0
 32 27  1  0
  1 36  1  0
  1 37  1  0
  1 38  1  0
  3 39  1  0
  4 40  1  0
  9 41  1  0
  9 42  1  0
 10 43  1  0
 10 44  1  0
 12 45  1  0
 12 46  1  0
 13 47  1  0
 13 48  1  0
 16 49  1  0
 17 50  1  0
 20 51  1  0
 25 52  1  0
 25 53  1  0
 28 54  1  0
 29 55  1  0
 30 56  1  0
 31 57  1  0
 32 58  1  0
M  END
$$$$
