
     RDKit          3D

 42 44  0  0  0  0  0  0  0  0999 V2000
   -6.8127    1.5338   -0.9911 C   0  0  0  0  0  0  0  0  0  0  0  0
   -5.7767    0.6367   -1.3751 O   0  0  0  0  0  0  0  0  0  0  0  0
   -4.6650    0.5994   -0.5780 C   0  0  0  0  0  0  0  0  0  0  0  0
   -4.4639    1.3455    0.5779 C   0  0  0  0  0  0  0  0  0  0  0  0
   -3.2747    1.2038    1.2911 C   0  0  0  0  0  0  0  0  0  0  0  0
   -3.1732    1.9566    2.4349 O   0  0  0  0  0  0  0  0  0  0  0  0
   -2.2562    0.3394    0.8510 C   0  0  0  0  0  0  0  0  0  0  0  0
   -1.0020    0.2945    1.6483 C   0  0  0  0  0  0  0  0  0  0  0  0
   -1.0704    0.4626    2.8660 O   0  0  0  0  0  0  0  0  0  0  0  0
    0.3031    0.1697    0.9471 C   0  0  0  0  0  0  0  0  0  0  0  0
    1.4282    0.0025    1.6603 C   0  0  0  0  0  0  0  0  0  0  0  0
    2.7732   -0.1432    1.1132 C   0  0  0  0  0  0  0  0  0  0  0  0
    3.1403    0.4904   -0.0305 C   0  0  0  0  0  0  0  0  0  0  0  0
    4.5709    0.4163   -0.4559 C   0  0  2  0  0  0  0  0  0  0  0  0
    4.8659    0.5321   -1.8410 O   0  0  0  0  0  0  0  0  0  0  0  0
    6.1848   -0.0686   -1.8991 C   0  0  0  0  0  0  0  0  0  0  0  0
    6.4436   -0.8320   -0.6938 O   0  0  0  0  0  0  0  0  0  0  0  0
    5.1342   -0.9615   -0.1611 C   0  0  1  0  0  0  0  0  0  0  0  0
    4.9849   -1.2453    1.2942 C   0  0  0  0  0  0  0  0  0  0  0  0
    3.8340   -0.8474    1.8766 C   0  0  0  0  0  0  0  0  0  0  0  0
   -2.4747   -0.4493   -0.2930 C   0  0  0  0  0  0  0  0  0  0  0  0
   -1.5014   -1.3510   -0.6357 O   0  0  0  0  0  0  0  0  0  0  0  0
   -1.7632   -2.2397   -1.7160 C   0  0  0  0  0  0  0  0  0  0  0  0
   -3.6756   -0.2972   -1.0016 C   0  0  0  0  0  0  0  0  0  0  0  0
   -7.2270    1.2625   -0.0145 H   0  0  0  0  0  0  0  0  0  0  0  0
   -6.4601    2.5705   -0.9984 H   0  0  0  0  0  0  0  0  0  0  0  0
   -7.6167    1.4503   -1.7287 H   0  0  0  0  0  0  0  0  0  0  0  0
   -5.2080    2.0376    0.9573 H   0  0  0  0  0  0  0  0  0  0  0  0
   -2.4206    1.6040    2.9628 H   0  0  0  0  0  0  0  0  0  0  0  0
    0.3102    0.2222   -0.1338 H   0  0  0  0  0  0  0  0  0  0  0  0
    1.3609   -0.0661    2.7464 H   0  0  0  0  0  0  0  0  0  0  0  0
    2.4703    1.1123   -0.6111 H   0  0  0  0  0  0  0  0  0  0  0  0
    5.1279    1.2189    0.0514 H   0  0  0  0  0  0  0  0  0  0  0  0
    6.2348   -0.7311   -2.7684 H   0  0  0  0  0  0  0  0  0  0  0  0
    6.9401    0.7180   -1.9899 H   0  0  0  0  0  0  0  0  0  0  0  0
    4.6351   -1.7577   -0.7338 H   0  0  0  0  0  0  0  0  0  0  0  0
    5.7496   -1.7940    1.8288 H   0  0  0  0  0  0  0  0  0  0  0  0
    3.6455   -1.0637    2.9251 H   0  0  0  0  0  0  0  0  0  0  0  0
   -2.6478   -2.8541   -1.5186 H   0  0  0  0  0  0  0  0  0  0  0  0
   -1.8599   -1.6926   -2.6593 H   0  0  0  0  0  0  0  0  0  0  0  0
   -0.9051   -2.9123   -1.8089 H   0  0  0  0  0  0  0  0  0  0  0  0
   -3.8825   -0.8726   -1.8992 H   0  0  0  0  0  0  0  0  0  0  0  0
  1  2  1  0
  2  3  1  0
  3  4  2  0
  4  5  1  0
  5  6  1  0
  5  7  2  0
  7  8  1  0
  8  9  2  0
  8 10  1  0
 10 11  2  0
 11 12  1  0
 12 13  2  0
 13 14  1  0
 14 15  1  0
 15 16  1  0
 16 17  1  0
 17 18  1  0
 18 19  1  0
 19 20  2  0
  7 21  1  0
 21 22  1  0
 22 23  1  0
 21 24  2  0
 24  3  1  0
 20 12  1  0
 18 14  1  0
  1 25  1  0
  1 26  1  0
  1 27  1  0
  4 28  1  0
  6 29  1  0
 10 30  1  0
 11 31  1  0
 13 32  1  0
 14 33  1  1
 16 34  1  0
 16 35  1  0
 18 36  1  6
 19 37  1  0
 20 38  1  0
 23 39  1  0
 23 40  1  0
 23 41  1  0
 24 42  1  0
M  END
$$$$
