
     RDKit          3D

 36 37  0  0  0  0  0  0  0  0999 V2000
   -0.7230    0.3106   -0.3228 O   0  0  0  0  0  0  0  0  0  0  0  0
   -1.0725   -0.0004    0.8134 C   0  0  0  0  0  0  0  0  0  0  0  0
   -0.1322   -0.5540    1.8807 C   0  0  0  0  0  0  0  0  0  0  0  0
    1.1403   -0.8729    1.3218 O   0  0  0  0  0  0  0  0  0  0  0  0
    2.0668   -1.2052    2.2476 C   0  0  0  0  0  0  0  0  0  0  0  0
    1.8913   -1.3137    3.4503 O   0  0  0  0  0  0  0  0  0  0  0  0
    3.3304   -1.5435    1.5741 C   0  0  0  0  0  0  0  0  0  0  0  0
    3.8351   -2.8339    1.7998 C   0  0  0  0  0  0  0  0  0  0  0  0
    5.0258   -3.2326    1.1992 C   0  0  0  0  0  0  0  0  0  0  0  0
    5.7133   -2.3405    0.3774 C   0  0  0  0  0  0  0  0  0  0  0  0
    5.2173   -1.0482    0.1572 C   0  0  0  0  0  0  0  0  0  0  0  0
    6.1457   -0.0168   -0.8808 Cl  0  0  0  0  0  0  0  0  0  0  0  0
    4.0239   -0.6314    0.7662 C   0  0  0  0  0  0  0  0  0  0  0  0
    3.4584    0.9989    0.5802 Cl  0  0  0  0  0  0  0  0  0  0  0  0
   -2.3784    0.1532    1.2426 N   0  0  0  0  0  0  0  0  0  0  0  0
   -3.4221    0.5367    0.3063 C   0  0  0  0  0  0  0  0  0  0  0  0
   -3.2565    1.9676   -0.2376 C   0  0  0  0  0  0  0  0  0  0  0  0
   -3.4876    2.0437   -1.6661 N   0  0  0  0  0  0  0  0  0  0  0  0
   -2.5079    2.1044   -2.6258 C   0  0  0  0  0  0  0  0  0  0  0  0
   -1.1853    2.0411   -2.3055 O   0  0  0  0  0  0  0  0  0  0  0  0
   -2.9618    2.2190   -3.8780 C   0  0  0  0  0  0  0  0  0  0  0  0
   -4.6983    2.2262   -3.9259 S   0  0  0  0  0  0  0  0  0  0  0  0
   -4.7831    2.0523   -2.1655 C   0  0  0  0  0  0  0  0  0  0  0  0
   -5.8235    1.9444   -1.5360 O   0  0  0  0  0  0  0  0  0  0  0  0
   -0.5818   -1.4633    2.3019 H   0  0  0  0  0  0  0  0  0  0  0  0
   -0.0286    0.2146    2.6581 H   0  0  0  0  0  0  0  0  0  0  0  0
    3.2979   -3.5301    2.4414 H   0  0  0  0  0  0  0  0  0  0  0  0
    5.4172   -4.2333    1.3658 H   0  0  0  0  0  0  0  0  0  0  0  0
    6.6435   -2.6575   -0.0935 H   0  0  0  0  0  0  0  0  0  0  0  0
   -2.6604   -0.2894    2.1101 H   0  0  0  0  0  0  0  0  0  0  0  0
   -3.4273   -0.2050   -0.4986 H   0  0  0  0  0  0  0  0  0  0  0  0
   -4.3715    0.4575    0.8460 H   0  0  0  0  0  0  0  0  0  0  0  0
   -2.2837    2.4103    0.0041 H   0  0  0  0  0  0  0  0  0  0  0  0
   -4.0034    2.6025    0.2585 H   0  0  0  0  0  0  0  0  0  0  0  0
   -1.0765    1.4107   -1.5600 H   0  0  0  0  0  0  0  0  0  0  0  0
   -2.3418    2.2783   -4.7597 H   0  0  0  0  0  0  0  0  0  0  0  0
  1  2  2  0
  2  3  1  0
  3  4  1  0
  4  5  1  0
  5  6  2  0
  5  7  1  0
  7  8  2  0
  8  9  1  0
  9 10  2  0
 10 11  1  0
 11 12  1  0
 11 13  2  0
 13 14  1  0
  2 15  1  0
 15 16  1  0
 16 17  1  0
 17 18  1  0
 18 19  1  0
 19 20  1  0
 19 21  2  0
 21 22  1  0
 22 23  1  0
 23 24  2  0
 13  7  1  0
 23 18  1  0
  3 25  1  0
  3 26  1  0
  8 27  1  0
  9 28  1  0
 10 29  1  0
 15 30  1  0
 16 31  1  0
 16 32  1  0
 17 33  1  0
 17 34  1  0
 20 35  1  0
 21 36  1  0
M  END
$$$$
