
     RDKit          3D

114117  0  0  0  0  0  0  0  0999 V2000
   -0.2015   -0.9469    3.1510 C   0  0  0  0  0  0  0  0  0  0  0  0
    0.4354   -2.2528    2.6824 C   0  0  0  0  0  0  0  0  0  0  0  0
   -0.2729   -3.4308    3.3689 C   0  0  0  0  0  0  0  0  0  0  0  0
    0.4224   -2.4380    1.1471 C   0  0  0  0  0  0  0  0  0  0  0  0
   -0.9219   -2.3235    0.6434 O   0  0  0  0  0  0  0  0  0  0  0  0
   -1.1291   -2.9106   -0.5667 C   0  0  0  0  0  0  0  0  0  0  0  0
   -0.3999   -3.7825   -1.0366 O   0  0  0  0  0  0  0  0  0  0  0  0
   -2.3386   -2.3261   -1.3206 C   0  0  0  0  0  0  0  0  0  0  0  0
   -3.2368   -3.4127   -1.9510 C   0  0  0  0  0  0  0  0  0  0  0  0
   -4.0236   -4.2865   -1.0034 C   0  0  0  0  0  0  0  0  0  0  0  0
   -3.4066   -5.3439   -0.3196 C   0  0  0  0  0  0  0  0  0  0  0  0
   -4.1359   -6.1351    0.5694 C   0  0  0  0  0  0  0  0  0  0  0  0
   -5.4907   -5.8821    0.7739 C   0  0  0  0  0  0  0  0  0  0  0  0
   -6.1155   -4.8394    0.0967 C   0  0  0  0  0  0  0  0  0  0  0  0
   -5.3872   -4.0453   -0.7908 C   0  0  0  0  0  0  0  0  0  0  0  0
   -3.0873   -1.2160   -0.6713 N   0  0  0  0  0  0  0  0  0  0  0  0
   -3.6299   -1.4171    0.6678 C   0  0  0  0  0  0  0  0  0  0  0  0
   -3.0794    0.0206   -1.3126 C   0  0  0  0  0  0  0  0  0  0  0  0
   -2.7360    0.1285   -2.4934 O   0  0  0  0  0  0  0  0  0  0  0  0
   -3.4968    1.2820   -0.5219 C   0  0  0  0  0  0  0  0  0  0  0  0
   -4.6967    1.9805   -1.2017 C   0  0  0  0  0  0  0  0  0  0  0  0
   -5.9390    1.0856   -1.2071 C   0  0  0  0  0  0  0  0  0  0  0  0
   -5.0206    3.3077   -0.5022 C   0  0  0  0  0  0  0  0  0  0  0  0
   -2.3592    2.1796   -0.5865 O   0  0  0  0  0  0  0  0  0  0  0  0
   -1.3589    1.9030    0.2962 C   0  0  0  0  0  0  0  0  0  0  0  0
   -1.4588    1.0585    1.1763 O   0  0  0  0  0  0  0  0  0  0  0  0
   -0.1175    2.8020    0.1161 C   0  0  0  0  0  0  0  0  0  0  0  0
   -0.2854    3.8275   -1.0238 C   0  0  0  0  0  0  0  0  0  0  0  0
    0.9731    4.6140   -1.2985 C   0  0  0  0  0  0  0  0  0  0  0  0
    1.9937    4.0605   -2.0809 C   0  0  0  0  0  0  0  0  0  0  0  0
    3.1782    4.7624   -2.2977 C   0  0  0  0  0  0  0  0  0  0  0  0
    3.3530    6.0297   -1.7398 C   0  0  0  0  0  0  0  0  0  0  0  0
    2.3358    6.5948   -0.9717 C   0  0  0  0  0  0  0  0  0  0  0  0
    1.1509    5.8930   -0.7481 C   0  0  0  0  0  0  0  0  0  0  0  0
    0.2199    3.4360    1.4228 N   0  0  0  0  0  0  0  0  0  0  0  0
   -0.8556    4.1288    2.1197 C   0  0  0  0  0  0  0  0  0  0  0  0
    1.2792    2.9889    2.2275 C   0  0  0  0  0  0  0  0  0  0  0  0
    1.1858    3.0231    3.4581 O   0  0  0  0  0  0  0  0  0  0  0  0
    2.6035    2.5714    1.5227 C   0  0  0  0  0  0  0  0  0  0  0  0
    3.8697    2.8091    2.4020 C   0  0  0  0  0  0  0  0  0  0  0  0
    3.9732    1.8689    3.6079 C   0  0  0  0  0  0  0  0  0  0  0  0
    4.0204    4.2685    2.8304 C   0  0  0  0  0  0  0  0  0  0  0  0
    2.5943    1.1985    1.0940 O   0  0  0  0  0  0  0  0  0  0  0  0
    3.4172    0.9193    0.0373 C   0  0  0  0  0  0  0  0  0  0  0  0
    4.0903    1.7644   -0.5549 O   0  0  0  0  0  0  0  0  0  0  0  0
    3.5060   -0.5745   -0.3253 C   0  0  0  0  0  0  0  0  0  0  0  0
    3.3073   -0.7220   -1.8549 C   0  0  0  0  0  0  0  0  0  0  0  0
    3.6805   -2.0780   -2.4087 C   0  0  0  0  0  0  0  0  0  0  0  0
    5.0243   -2.4568   -2.5360 C   0  0  0  0  0  0  0  0  0  0  0  0
    5.3591   -3.7115   -3.0478 C   0  0  0  0  0  0  0  0  0  0  0  0
    4.3558   -4.5975   -3.4398 C   0  0  0  0  0  0  0  0  0  0  0  0
    3.0157   -4.2318   -3.3110 C   0  0  0  0  0  0  0  0  0  0  0  0
    2.6797   -2.9786   -2.7976 C   0  0  0  0  0  0  0  0  0  0  0  0
    2.6890   -1.4931    0.5068 N   0  0  0  0  0  0  0  0  0  0  0  0
    3.3525   -2.7185    0.9374 C   0  0  0  0  0  0  0  0  0  0  0  0
    1.3022   -1.4013    0.3953 C   0  0  0  0  0  0  0  0  0  0  0  0
    0.7822   -0.5192   -0.2978 O   0  0  0  0  0  0  0  0  0  0  0  0
   -1.2671   -0.9156    2.9060 H   0  0  0  0  0  0  0  0  0  0  0  0
    0.2983   -0.0840    2.6962 H   0  0  0  0  0  0  0  0  0  0  0  0
   -0.1130   -0.8448    4.2400 H   0  0  0  0  0  0  0  0  0  0  0  0
    1.4714   -2.2398    3.0345 H   0  0  0  0  0  0  0  0  0  0  0  0
   -1.3379   -3.4563    3.1197 H   0  0  0  0  0  0  0  0  0  0  0  0
    0.1703   -4.3885    3.0662 H   0  0  0  0  0  0  0  0  0  0  0  0
   -0.1819   -3.3517    4.4598 H   0  0  0  0  0  0  0  0  0  0  0  0
    0.7991   -3.4427    0.9230 H   0  0  0  0  0  0  0  0  0  0  0  0
   -1.8270   -1.8770   -2.1831 H   0  0  0  0  0  0  0  0  0  0  0  0
   -2.6252   -4.0731   -2.5783 H   0  0  0  0  0  0  0  0  0  0  0  0
   -3.9300   -2.9219   -2.6494 H   0  0  0  0  0  0  0  0  0  0  0  0
   -2.3527   -5.5663   -0.4788 H   0  0  0  0  0  0  0  0  0  0  0  0
   -3.6501   -6.9573    1.0855 H   0  0  0  0  0  0  0  0  0  0  0  0
   -6.0596   -6.5083    1.4585 H   0  0  0  0  0  0  0  0  0  0  0  0
   -7.1754   -4.6539    0.2470 H   0  0  0  0  0  0  0  0  0  0  0  0
   -5.8932   -3.2380   -1.3185 H   0  0  0  0  0  0  0  0  0  0  0  0
   -3.0575   -0.8450    1.3973 H   0  0  0  0  0  0  0  0  0  0  0  0
   -4.6646   -1.0659    0.6867 H   0  0  0  0  0  0  0  0  0  0  0  0
   -3.6044   -2.4670    0.9584 H   0  0  0  0  0  0  0  0  0  0  0  0
   -3.7529    1.0766    0.5232 H   0  0  0  0  0  0  0  0  0  0  0  0
   -4.4361    2.2190   -2.2428 H   0  0  0  0  0  0  0  0  0  0  0  0
   -6.2440    0.8296   -0.1887 H   0  0  0  0  0  0  0  0  0  0  0  0
   -6.7774    1.5917   -1.6971 H   0  0  0  0  0  0  0  0  0  0  0  0
   -5.7567    0.1537   -1.7540 H   0  0  0  0  0  0  0  0  0  0  0  0
   -4.1750    3.9996   -0.5538 H   0  0  0  0  0  0  0  0  0  0  0  0
   -5.2673    3.1477    0.5531 H   0  0  0  0  0  0  0  0  0  0  0  0
   -5.8779    3.7962   -0.9806 H   0  0  0  0  0  0  0  0  0  0  0  0
    0.6853    2.1185   -0.1647 H   0  0  0  0  0  0  0  0  0  0  0  0
   -0.5636    3.3167   -1.9576 H   0  0  0  0  0  0  0  0  0  0  0  0
   -1.1150    4.5178   -0.8216 H   0  0  0  0  0  0  0  0  0  0  0  0
    1.8821    3.0658   -2.5095 H   0  0  0  0  0  0  0  0  0  0  0  0
    3.9680    4.3150   -2.8944 H   0  0  0  0  0  0  0  0  0  0  0  0
    4.2792    6.5732   -1.9023 H   0  0  0  0  0  0  0  0  0  0  0  0
    2.4676    7.5889   -0.5473 H   0  0  0  0  0  0  0  0  0  0  0  0
    0.3734    6.3503   -0.1338 H   0  0  0  0  0  0  0  0  0  0  0  0
   -1.4441    4.7225    1.4166 H   0  0  0  0  0  0  0  0  0  0  0  0
   -1.4985    3.4015    2.6213 H   0  0  0  0  0  0  0  0  0  0  0  0
   -0.4392    4.8087    2.8692 H   0  0  0  0  0  0  0  0  0  0  0  0
    2.6802    3.2302    0.6492 H   0  0  0  0  0  0  0  0  0  0  0  0
    4.7461    2.5795    1.7775 H   0  0  0  0  0  0  0  0  0  0  0  0
    3.8813    0.8208    3.3015 H   0  0  0  0  0  0  0  0  0  0  0  0
    4.9493    1.9827    4.0970 H   0  0  0  0  0  0  0  0  0  0  0  0
    3.2164    2.0790    4.3668 H   0  0  0  0  0  0  0  0  0  0  0  0
    4.9973    4.4301    3.2963 H   0  0  0  0  0  0  0  0  0  0  0  0
    3.9534    4.9400    1.9684 H   0  0  0  0  0  0  0  0  0  0  0  0
    3.2628    4.5688    3.5601 H   0  0  0  0  0  0  0  0  0  0  0  0
    4.5518   -0.8129   -0.0860 H   0  0  0  0  0  0  0  0  0  0  0  0
    3.9180    0.0190   -2.3879 H   0  0  0  0  0  0  0  0  0  0  0  0
    2.2799   -0.4748   -2.1484 H   0  0  0  0  0  0  0  0  0  0  0  0
    5.8188   -1.7730   -2.2484 H   0  0  0  0  0  0  0  0  0  0  0  0
    6.4036   -3.9926   -3.1566 H   0  0  0  0  0  0  0  0  0  0  0  0
    4.6165   -5.5735   -3.8405 H   0  0  0  0  0  0  0  0  0  0  0  0
    2.2298   -4.9196   -3.6194 H   0  0  0  0  0  0  0  0  0  0  0  0
    1.6266   -2.7127   -2.7075 H   0  0  0  0  0  0  0  0  0  0  0  0
    3.4117   -3.4051    0.0927 H   0  0  0  0  0  0  0  0  0  0  0  0
    4.3586   -2.4898    1.3044 H   0  0  0  0  0  0  0  0  0  0  0  0
    2.8212   -3.2269    1.7362 H   0  0  0  0  0  0  0  0  0  0  0  0
  1  2  1  0
  2  3  1  0
  2  4  1  0
  4  5  1  0
  5  6  1  0
  6  7  2  0
  6  8  1  0
  8  9  1  0
  9 10  1  0
 10 11  2  0
 11 12  1  0
 12 13  2  0
 13 14  1  0
 14 15  2  0
  8 16  1  0
 16 17  1  0
 16 18  1  0
 18 19  2  0
 18 20  1  0
 20 21  1  0
 21 22  1  0
 21 23  1  0
 20 24  1  0
 24 25  1  0
 25 26  2  0
 25 27  1  0
 27 28  1  0
 28 29  1  0
 29 30  2  0
 30 31  1  0
 31 32  2  0
 32 33  1  0
 33 34  2  0
 27 35  1  0
 35 36  1  0
 35 37  1  0
 37 38  2  0
 37 39  1  0
 39 40  1  0
 40 41  1  0
 40 42  1  0
 39 43  1  0
 43 44  1  0
 44 45  2  0
 44 46  1  0
 46 47  1  0
 47 48  1  0
 48 49  2  0
 49 50  1  0
 50 51  2  0
 51 52  1  0
 52 53  2  0
 46 54  1  0
 54 55  1  0
 54 56  1  0
 56 57  2  0
 56  4  1  0
 15 10  1  0
 34 29  1  0
 53 48  1  0
  1 58  1  0
  1 59  1  0
  1 60  1  0
  2 61  1  0
  3 62  1  0
  3 63  1  0
  3 64  1  0
  4 65  1  0
  8 66  1  0
  9 67  1  0
  9 68  1  0
 11 69  1  0
 12 70  1  0
 13 71  1  0
 14 72  1  0
 15 73  1  0
 17 74  1  0
 17 75  1  0
 17 76  1  0
 20 77  1  0
 21 78  1  0
 22 79  1  0
 22 80  1  0
 22 81  1  0
 23 82  1  0
 23 83  1  0
 23 84  1  0
 27 85  1  0
 28 86  1  0
 28 87  1  0
 30 88  1  0
 31 89  1  0
 32 90  1  0
 33 91  1  0
 34 92  1  0
 36 93  1  0
 36 94  1  0
 36 95  1  0
 39 96  1  0
 40 97  1  0
 41 98  1  0
 41 99  1  0
 41100  1  0
 42101  1  0
 42102  1  0
 42103  1  0
 46104  1  0
 47105  1  0
 47106  1  0
 49107  1  0
 50108  1  0
 51109  1  0
 52110  1  0
 53111  1  0
 55112  1  0
 55113  1  0
 55114  1  0
M  END
$$$$
