
     RDKit          3D

 68 71  0  0  0  0  0  0  0  0999 V2000
    8.6867    0.8005    2.1227 C   0  0  0  0  0  0  0  0  0  0  0  0
    7.6772    0.0327    1.3751 C   0  0  0  0  0  0  0  0  0  0  0  0
    6.3150   -0.1009    1.4697 C   0  0  0  0  0  0  0  0  0  0  0  0
    5.9714   -0.9900    0.4283 C   0  0  0  0  0  0  0  0  0  0  0  0
    4.7366   -1.4770    0.0628 N   0  0  0  0  0  0  0  0  0  0  0  0
    3.5424   -1.1516    0.6634 C   0  0  0  0  0  0  0  0  0  0  0  0
    3.4021   -0.3958    1.6214 O   0  0  0  0  0  0  0  0  0  0  0  0
    2.3696   -1.8982    0.0476 C   0  0  0  0  0  0  0  0  0  0  0  0
    1.0393   -1.2350    0.4003 C   0  0  0  0  0  0  0  0  0  0  0  0
    0.8367    0.0523   -0.3897 C   0  0  0  0  0  0  0  0  0  0  0  0
    1.6556    0.3755   -1.2526 O   0  0  0  0  0  0  0  0  0  0  0  0
   -0.2951    0.8209   -0.1250 N   0  0  0  0  0  0  0  0  0  0  0  0
   -0.4222    2.0952   -0.8493 C   0  0  0  0  0  0  0  0  0  0  0  0
   -1.5778    2.1072   -1.7836 C   0  0  0  0  0  0  0  0  0  0  0  0
   -2.6583    2.9547   -1.9288 C   0  0  0  0  0  0  0  0  0  0  0  0
   -3.3926    2.4823   -3.0414 C   0  0  0  0  0  0  0  0  0  0  0  0
   -2.7110    1.3858   -3.5117 C   0  0  0  0  0  0  0  0  0  0  0  0
   -1.6138    1.1415   -2.7486 O   0  0  0  0  0  0  0  0  0  0  0  0
   -1.3254    0.4480    0.8894 C   0  0  0  0  0  0  0  0  0  0  0  0
   -2.4241   -0.5243    0.3430 C   0  0  0  0  0  0  0  0  0  0  0  0
   -3.4073   -0.8546    1.0066 O   0  0  0  0  0  0  0  0  0  0  0  0
   -2.1558   -1.0881   -0.8931 N   0  0  0  0  0  0  0  0  0  0  0  0
   -3.0928   -1.9930   -1.5261 C   0  0  0  0  0  0  0  0  0  0  0  0
   -3.2479   -3.3239   -0.7867 C   0  0  0  0  0  0  0  0  0  0  0  0
   -3.7381   -4.3152   -1.8404 C   0  0  0  0  0  0  0  0  0  0  0  0
   -3.4709   -3.6670   -3.1962 C   0  0  0  0  0  0  0  0  0  0  0  0
   -2.6136   -2.4459   -2.9020 C   0  0  0  0  0  0  0  0  0  0  0  0
   -1.8575    1.6481    1.6857 C   0  0  0  0  0  0  0  0  0  0  0  0
   -3.1452    2.1639    1.4371 C   0  0  0  0  0  0  0  0  0  0  0  0
   -3.6257    3.2803    2.1226 C   0  0  0  0  0  0  0  0  0  0  0  0
   -2.8281    3.9112    3.0669 C   0  0  0  0  0  0  0  0  0  0  0  0
   -1.5513    3.4221    3.3334 C   0  0  0  0  0  0  0  0  0  0  0  0
   -1.0524    2.2937    2.6591 C   0  0  0  0  0  0  0  0  0  0  0  0
    0.3434    1.8277    2.9878 C   0  0  0  0  0  0  0  0  0  0  0  0
    7.0586   -1.3712   -0.2519 N   0  0  0  0  0  0  0  0  0  0  0  0
    8.1270   -0.7245    0.3409 O   0  0  0  0  0  0  0  0  0  0  0  0
    9.6723    0.3282    2.0559 H   0  0  0  0  0  0  0  0  0  0  0  0
    8.7638    1.8160    1.7209 H   0  0  0  0  0  0  0  0  0  0  0  0
    8.4167    0.8698    3.1813 H   0  0  0  0  0  0  0  0  0  0  0  0
    5.6673    0.3787    2.1873 H   0  0  0  0  0  0  0  0  0  0  0  0
    4.7589   -2.0858   -0.7433 H   0  0  0  0  0  0  0  0  0  0  0  0
    2.4975   -1.9730   -1.0377 H   0  0  0  0  0  0  0  0  0  0  0  0
    2.3849   -2.9147    0.4564 H   0  0  0  0  0  0  0  0  0  0  0  0
    0.2292   -1.9251    0.1475 H   0  0  0  0  0  0  0  0  0  0  0  0
    1.0073   -1.0272    1.4731 H   0  0  0  0  0  0  0  0  0  0  0  0
   -0.4949    2.9127   -0.1257 H   0  0  0  0  0  0  0  0  0  0  0  0
    0.4817    2.3077   -1.4315 H   0  0  0  0  0  0  0  0  0  0  0  0
   -2.8782    3.8159   -1.3113 H   0  0  0  0  0  0  0  0  0  0  0  0
   -4.2994    2.8974   -3.4590 H   0  0  0  0  0  0  0  0  0  0  0  0
   -2.8690    0.7056   -4.3363 H   0  0  0  0  0  0  0  0  0  0  0  0
   -0.8429   -0.1923    1.6341 H   0  0  0  0  0  0  0  0  0  0  0  0
   -1.6005   -0.4980   -1.5101 H   0  0  0  0  0  0  0  0  0  0  0  0
   -4.0641   -1.4880   -1.6060 H   0  0  0  0  0  0  0  0  0  0  0  0
   -3.9420   -3.2585    0.0579 H   0  0  0  0  0  0  0  0  0  0  0  0
   -2.2816   -3.6594   -0.3872 H   0  0  0  0  0  0  0  0  0  0  0  0
   -4.8080   -4.5179   -1.7217 H   0  0  0  0  0  0  0  0  0  0  0  0
   -3.2103   -5.2700   -1.7431 H   0  0  0  0  0  0  0  0  0  0  0  0
   -4.4197   -3.3572   -3.6499 H   0  0  0  0  0  0  0  0  0  0  0  0
   -2.9800   -4.3537   -3.8924 H   0  0  0  0  0  0  0  0  0  0  0  0
   -2.7324   -1.6709   -3.6646 H   0  0  0  0  0  0  0  0  0  0  0  0
   -1.5528   -2.7266   -2.8772 H   0  0  0  0  0  0  0  0  0  0  0  0
   -3.8028    1.6982    0.7051 H   0  0  0  0  0  0  0  0  0  0  0  0
   -4.6261    3.6531    1.9182 H   0  0  0  0  0  0  0  0  0  0  0  0
   -3.2003    4.7808    3.6020 H   0  0  0  0  0  0  0  0  0  0  0  0
   -0.9425    3.9300    4.0790 H   0  0  0  0  0  0  0  0  0  0  0  0
    0.3424    0.7718    3.2742 H   0  0  0  0  0  0  0  0  0  0  0  0
    1.0086    1.9811    2.1334 H   0  0  0  0  0  0  0  0  0  0  0  0
    0.7622    2.3836    3.8341 H   0  0  0  0  0  0  0  0  0  0  0  0
  1  2  1  0
  2  3  2  0
  3  4  1  0
  4  5  1  0
  5  6  1  0
  6  7  2  0
  6  8  1  0
  8  9  1  0
  9 10  1  0
 10 11  2  0
 10 12  1  0
 12 13  1  0
 13 14  1  0
 14 15  2  0
 15 16  1  0
 16 17  2  0
 17 18  1  0
 12 19  1  0
 19 20  1  0
 20 21  2  0
 20 22  1  0
 22 23  1  0
 23 24  1  0
 24 25  1  0
 25 26  1  0
 26 27  1  0
 19 28  1  0
 28 29  2  0
 29 30  1  0
 30 31  2  0
 31 32  1  0
 32 33  2  0
 33 34  1  0
  4 35  2  0
 35 36  1  0
 36  2  1  0
 18 14  1  0
 27 23  1  0
 33 28  1  0
  1 37  1  0
  1 38  1  0
  1 39  1  0
  3 40  1  0
  5 41  1  0
  8 42  1  0
  8 43  1  0
  9 44  1  0
  9 45  1  0
 13 46  1  0
 13 47  1  0
 15 48  1  0
 16 49  1  0
 17 50  1  0
 19 51  1  0
 22 52  1  0
 23 53  1  0
 24 54  1  0
 24 55  1  0
 25 56  1  0
 25 57  1  0
 26 58  1  0
 26 59  1  0
 27 60  1  0
 27 61  1  0
 29 62  1  0
 30 63  1  0
 31 64  1  0
 32 65  1  0
 34 66  1  0
 34 67  1  0
 34 68  1  0
M  END
$$$$
