
     RDKit          3D

 34 35  0  0  0  0  0  0  0  0999 V2000
    3.9284    1.8463   -0.6557 C   0  0  0  0  0  0  0  0  0  0  0  0
    4.1147    0.4006   -0.2309 C   0  0  0  0  0  0  0  0  0  0  0  0
    3.1335   -0.0076    0.7584 N   0  0  0  0  0  0  0  0  0  0  0  0
    3.4432    0.1262    2.0643 N   0  0  0  0  0  0  0  0  0  0  0  0
    2.3259   -0.2421    2.6913 C   0  0  0  0  0  0  0  0  0  0  0  0
    1.3143   -0.6438    1.7969 C   0  0  0  0  0  0  0  0  0  0  0  0
    0.0200   -1.1191    2.1472 C   0  0  0  0  0  0  0  0  0  0  0  0
   -1.1755   -0.7500    1.6610 C   0  0  0  0  0  0  0  0  0  0  0  0
   -1.4188    0.3341    0.6688 C   0  0  0  0  0  0  0  0  0  0  0  0
   -0.7178    1.3363    0.6008 O   0  0  0  0  0  0  0  0  0  0  0  0
   -2.6117    0.1989   -0.2126 C   0  0  0  0  0  0  0  0  0  0  0  0
   -3.1741    1.3647   -0.7494 C   0  0  0  0  0  0  0  0  0  0  0  0
   -4.2879    1.2885   -1.5874 C   0  0  0  0  0  0  0  0  0  0  0  0
   -4.8396    0.0475   -1.9012 C   0  0  0  0  0  0  0  0  0  0  0  0
   -4.2757   -1.1187   -1.3844 C   0  0  0  0  0  0  0  0  0  0  0  0
   -3.1612   -1.0470   -0.5446 C   0  0  0  0  0  0  0  0  0  0  0  0
    1.8822   -0.5401    0.5405 C   0  0  0  0  0  0  0  0  0  0  0  0
    1.3679   -0.8611   -0.8152 C   0  0  0  0  0  0  0  0  0  0  0  0
    4.0185    2.5236    0.2002 H   0  0  0  0  0  0  0  0  0  0  0  0
    4.6862    2.1260   -1.3939 H   0  0  0  0  0  0  0  0  0  0  0  0
    2.9414    2.0042   -1.1028 H   0  0  0  0  0  0  0  0  0  0  0  0
    4.0377   -0.2704   -1.0913 H   0  0  0  0  0  0  0  0  0  0  0  0
    5.1089    0.2556    0.2071 H   0  0  0  0  0  0  0  0  0  0  0  0
    2.2961   -0.1992    3.7720 H   0  0  0  0  0  0  0  0  0  0  0  0
    0.0093   -1.8753    2.9311 H   0  0  0  0  0  0  0  0  0  0  0  0
   -2.0654   -1.2405    2.0427 H   0  0  0  0  0  0  0  0  0  0  0  0
   -2.7453    2.3374   -0.5141 H   0  0  0  0  0  0  0  0  0  0  0  0
   -4.7211    2.1977   -1.9971 H   0  0  0  0  0  0  0  0  0  0  0  0
   -5.7055   -0.0110   -2.5566 H   0  0  0  0  0  0  0  0  0  0  0  0
   -4.7009   -2.0857   -1.6431 H   0  0  0  0  0  0  0  0  0  0  0  0
   -2.7264   -1.9730   -0.1793 H   0  0  0  0  0  0  0  0  0  0  0  0
    1.1628    0.0556   -1.3767 H   0  0  0  0  0  0  0  0  0  0  0  0
    2.0914   -1.4597   -1.3776 H   0  0  0  0  0  0  0  0  0  0  0  0
    0.4447   -1.4458   -0.7684 H   0  0  0  0  0  0  0  0  0  0  0  0
  1  2  1  0
  2  3  1  0
  3  4  1  0
  4  5  2  0
  5  6  1  0
  6  7  1  0
  7  8  2  3
  8  9  1  0
  9 10  2  0
  9 11  1  0
 11 12  2  0
 12 13  1  0
 13 14  2  0
 14 15  1  0
 15 16  2  0
  6 17  2  0
 17 18  1  0
 17  3  1  0
 16 11  1  0
  1 19  1  0
  1 20  1  0
  1 21  1  0
  2 22  1  0
  2 23  1  0
  5 24  1  0
  7 25  1  0
  8 26  1  0
 12 27  1  0
 13 28  1  0
 14 29  1  0
 15 30  1  0
 16 31  1  0
 18 32  1  0
 18 33  1  0
 18 34  1  0
M  END
$$$$
