
     RDKit          3D

 56 59  0  0  0  0  0  0  0  0999 V2000
   -2.8861    3.8315    0.2189 C   0  0  0  0  0  0  0  0  0  0  0  0
   -4.2507    3.4935    0.7960 C   0  0  0  0  0  0  0  0  0  0  0  0
   -5.0963    2.1920   -0.1659 S   0  0  0  0  0  0  0  0  0  0  0  0
   -4.0843    0.7847    0.2495 C   0  0  0  0  0  0  0  0  0  0  0  0
   -4.0835    0.2542    1.5353 C   0  0  0  0  0  0  0  0  0  0  0  0
   -3.2868   -0.8518    1.8255 C   0  0  0  0  0  0  0  0  0  0  0  0
   -2.4800   -1.4375    0.8359 C   0  0  0  0  0  0  0  0  0  0  0  0
   -2.4537   -0.9096   -0.4692 C   0  0  0  0  0  0  0  0  0  0  0  0
   -3.2926    0.1913   -0.7413 C   0  0  0  0  0  0  0  0  0  0  0  0
   -1.6446   -1.4793   -1.4904 N   0  0  0  0  0  0  0  0  0  0  0  0
   -0.9533   -0.5176   -2.3871 C   0  0  0  0  0  0  0  0  0  0  0  0
    0.0208    0.4145   -1.6477 C   0  0  0  0  0  0  0  0  0  0  0  0
    1.2342   -0.3309   -1.0805 C   0  0  0  0  0  0  0  0  0  0  0  0
    2.2519    0.5917   -0.5437 N   0  0  0  0  0  0  0  0  0  0  0  0
    1.8192    1.1984    0.7361 C   0  0  0  0  0  0  0  0  0  0  0  0
    2.9147    2.0899    1.3688 C   0  0  0  0  0  0  0  0  0  0  0  0
    4.1756    1.3564    1.5892 N   0  0  0  0  0  0  0  0  0  0  0  0
    5.2055    2.2403    2.1286 C   0  0  0  0  0  0  0  0  0  0  0  0
    4.6128    0.7555    0.3157 C   0  0  0  0  0  0  0  0  0  0  0  0
    3.5188   -0.1391   -0.3097 C   0  0  0  0  0  0  0  0  0  0  0  0
   -1.1062   -2.7926   -1.4429 C   0  0  0  0  0  0  0  0  0  0  0  0
   -0.7253   -3.4623   -2.6240 C   0  0  0  0  0  0  0  0  0  0  0  0
   -0.1993   -4.7579   -2.6026 C   0  0  0  0  0  0  0  0  0  0  0  0
   -0.0564   -5.4271   -1.3954 C   0  0  0  0  0  0  0  0  0  0  0  0
   -0.4581   -4.8054   -0.2162 C   0  0  0  0  0  0  0  0  0  0  0  0
   -0.9942   -3.5058   -0.2329 C   0  0  0  0  0  0  0  0  0  0  0  0
   -1.4702   -2.8153    1.3391 S   0  0  0  0  0  0  0  0  0  0  0  0
   -2.9551    4.1202   -0.8352 H   0  0  0  0  0  0  0  0  0  0  0  0
   -2.1870    2.9942    0.3068 H   0  0  0  0  0  0  0  0  0  0  0  0
   -2.4531    4.6754    0.7650 H   0  0  0  0  0  0  0  0  0  0  0  0
   -4.1641    3.1938    1.8453 H   0  0  0  0  0  0  0  0  0  0  0  0
   -4.8852    4.3851    0.7637 H   0  0  0  0  0  0  0  0  0  0  0  0
   -4.7060    0.6833    2.3163 H   0  0  0  0  0  0  0  0  0  0  0  0
   -3.2975   -1.2571    2.8348 H   0  0  0  0  0  0  0  0  0  0  0  0
   -3.3538    0.5939   -1.7476 H   0  0  0  0  0  0  0  0  0  0  0  0
   -1.6927    0.0873   -2.9245 H   0  0  0  0  0  0  0  0  0  0  0  0
   -0.3936   -1.0122   -3.1878 H   0  0  0  0  0  0  0  0  0  0  0  0
   -0.5017    0.9612   -0.8571 H   0  0  0  0  0  0  0  0  0  0  0  0
    0.3716    1.1677   -2.3652 H   0  0  0  0  0  0  0  0  0  0  0  0
    1.6783   -0.9088   -1.9015 H   0  0  0  0  0  0  0  0  0  0  0  0
    0.9292   -1.0494   -0.3121 H   0  0  0  0  0  0  0  0  0  0  0  0
    1.5344    0.4180    1.4553 H   0  0  0  0  0  0  0  0  0  0  0  0
    0.9382    1.8285    0.5738 H   0  0  0  0  0  0  0  0  0  0  0  0
    3.0823    2.9604    0.7201 H   0  0  0  0  0  0  0  0  0  0  0  0
    2.5384    2.4634    2.3297 H   0  0  0  0  0  0  0  0  0  0  0  0
    6.1308    1.6826    2.3145 H   0  0  0  0  0  0  0  0  0  0  0  0
    5.4356    3.0727    1.4535 H   0  0  0  0  0  0  0  0  0  0  0  0
    4.8888    2.6557    3.0917 H   0  0  0  0  0  0  0  0  0  0  0  0
    4.8925    1.5358   -0.4050 H   0  0  0  0  0  0  0  0  0  0  0  0
    5.5025    0.1383    0.4898 H   0  0  0  0  0  0  0  0  0  0  0  0
    3.8997   -0.5180   -1.2661 H   0  0  0  0  0  0  0  0  0  0  0  0
    3.3479   -1.0070    0.3420 H   0  0  0  0  0  0  0  0  0  0  0  0
   -0.8783   -2.9998   -3.5943 H   0  0  0  0  0  0  0  0  0  0  0  0
    0.0772   -5.2458   -3.5332 H   0  0  0  0  0  0  0  0  0  0  0  0
    0.3490   -6.4355   -1.3696 H   0  0  0  0  0  0  0  0  0  0  0  0
   -0.3599   -5.3455    0.7238 H   0  0  0  0  0  0  0  0  0  0  0  0
  1  2  1  0
  2  3  1  0
  3  4  1  0
  4  5  2  0
  5  6  1  0
  6  7  2  0
  7  8  1  0
  8  9  2  0
  8 10  1  0
 10 11  1  0
 11 12  1  0
 12 13  1  0
 13 14  1  0
 14 15  1  0
 15 16  1  0
 16 17  1  0
 17 18  1  0
 17 19  1  0
 19 20  1  0
 10 21  1  0
 21 22  2  0
 22 23  1  0
 23 24  2  0
 24 25  1  0
 25 26  2  0
 26 27  1  0
  9  4  1  0
 20 14  1  0
 26 21  1  0
 27  7  1  0
  1 28  1  0
  1 29  1  0
  1 30  1  0
  2 31  1  0
  2 32  1  0
  5 33  1  0
  6 34  1  0
  9 35  1  0
 11 36  1  0
 11 37  1  0
 12 38  1  0
 12 39  1  0
 13 40  1  0
 13 41  1  0
 15 42  1  0
 15 43  1  0
 16 44  1  0
 16 45  1  0
 18 46  1  0
 18 47  1  0
 18 48  1  0
 19 49  1  0
 19 50  1  0
 20 51  1  0
 20 52  1  0
 22 53  1  0
 23 54  1  0
 24 55  1  0
 25 56  1  0
M  END
$$$$
