
     RDKit          3D

 67 72  0  0  0  0  0  0  0  0999 V2000
   -4.1634    4.9742   -0.5471 C   0  0  0  0  0  0  0  0  0  0  0  0
   -3.3747    3.7774   -0.9765 C   0  0  0  0  0  0  0  0  0  0  0  0
   -3.3337    3.3827   -2.3215 C   0  0  0  0  0  0  0  0  0  0  0  0
   -2.6163    2.2422   -2.7254 C   0  0  0  0  0  0  0  0  0  0  0  0
   -1.9193    1.4684   -1.7957 C   0  0  0  0  0  0  0  0  0  0  0  0
   -1.9481    1.8553   -0.4631 C   0  0  0  0  0  0  0  0  0  0  0  0
   -2.6801    2.9856   -0.0752 C   0  0  0  0  0  0  0  0  0  0  0  0
   -2.6157    3.1465    1.3039 N   0  0  0  0  0  0  0  0  0  0  0  0
   -1.8469    2.1492    1.9071 C   0  0  0  0  0  0  0  0  0  0  0  0
   -1.6556    2.0642    3.1108 O   0  0  0  0  0  0  0  0  0  0  0  0
   -1.3253    1.2327    0.7620 C   0  0  1  0  0  0  0  0  0  0  0  0
   -1.8145   -0.1624    0.8388 C   0  0  0  0  0  0  0  0  0  0  0  0
   -0.7508   -1.0591    0.9169 C   0  0  0  0  0  0  0  0  0  0  0  0
   -1.2481   -2.3331    0.9977 C   0  0  0  0  0  0  0  0  0  0  0  0
   -0.5967   -3.4921    1.0555 O   0  0  0  0  0  0  0  0  0  0  0  0
   -2.6589   -2.2434    0.9525 N   0  0  0  0  0  0  0  0  0  0  0  0
   -3.5860   -3.3441    0.9932 C   0  0  0  0  0  0  0  0  0  0  0  0
   -4.8746   -3.2205    0.4523 C   0  0  0  0  0  0  0  0  0  0  0  0
   -5.7740   -4.2919    0.4899 C   0  0  0  0  0  0  0  0  0  0  0  0
   -5.4006   -5.5004    1.0691 C   0  0  0  0  0  0  0  0  0  0  0  0
   -4.1267   -5.6383    1.6112 C   0  0  0  0  0  0  0  0  0  0  0  0
   -3.2247   -4.5692    1.5733 C   0  0  0  0  0  0  0  0  0  0  0  0
   -2.9895   -0.8721    0.8547 C   0  0  0  0  0  0  0  0  0  0  0  0
   -4.2451   -0.4293    0.8326 O   0  0  0  0  0  0  0  0  0  0  0  0
    0.5534   -0.3625    0.9034 C   0  0  1  0  0  0  0  0  0  0  0  0
    1.4901   -0.7847   -0.2431 C   0  0  0  0  0  0  0  0  0  0  0  0
    2.6620    0.0885   -0.3290 N   0  0  0  0  0  0  0  0  0  0  0  0
    3.8977   -0.4433   -0.6320 C   0  0  0  0  0  0  0  0  0  0  0  0
    4.0769   -1.6253   -0.8934 O   0  0  0  0  0  0  0  0  0  0  0  0
    4.8746    0.4981   -0.5955 O   0  0  0  0  0  0  0  0  0  0  0  0
    6.2567    0.1549   -0.8706 C   0  0  0  0  0  0  0  0  0  0  0  0
    7.0209    1.4798   -0.7235 C   0  0  0  0  0  0  0  0  0  0  0  0
    6.4306   -0.3527   -2.3061 C   0  0  0  0  0  0  0  0  0  0  0  0
    6.8003   -0.8399    0.1608 C   0  0  0  0  0  0  0  0  0  0  0  0
    2.4653    1.5015    0.0097 C   0  0  0  0  0  0  0  0  0  0  0  0
    0.9803    1.9113   -0.0315 C   0  0  0  0  0  0  0  0  0  0  0  0
    0.1575    1.0848    0.8482 N   0  0  0  0  0  0  0  0  0  0  0  0
   -4.5142    5.5523   -1.4085 H   0  0  0  0  0  0  0  0  0  0  0  0
   -3.5465    5.6408    0.0641 H   0  0  0  0  0  0  0  0  0  0  0  0
   -5.0385    4.6610    0.0310 H   0  0  0  0  0  0  0  0  0  0  0  0
   -3.8690    3.9563   -3.0766 H   0  0  0  0  0  0  0  0  0  0  0  0
   -2.6113    1.9566   -3.7757 H   0  0  0  0  0  0  0  0  0  0  0  0
   -1.3783    0.5814   -2.1123 H   0  0  0  0  0  0  0  0  0  0  0  0
   -3.0613    3.8773    1.8385 H   0  0  0  0  0  0  0  0  0  0  0  0
    0.3567   -3.3115    1.1212 H   0  0  0  0  0  0  0  0  0  0  0  0
   -5.2025   -2.3110   -0.0410 H   0  0  0  0  0  0  0  0  0  0  0  0
   -6.7656   -4.1787    0.0593 H   0  0  0  0  0  0  0  0  0  0  0  0
   -6.0999   -6.3311    1.0990 H   0  0  0  0  0  0  0  0  0  0  0  0
   -3.8304   -6.5768    2.0727 H   0  0  0  0  0  0  0  0  0  0  0  0
   -2.2569   -4.7163    2.0421 H   0  0  0  0  0  0  0  0  0  0  0  0
   -4.2282    0.5412    0.7684 H   0  0  0  0  0  0  0  0  0  0  0  0
    1.0646   -0.5223    1.8613 H   0  0  0  0  0  0  0  0  0  0  0  0
    0.9765   -0.7234   -1.2116 H   0  0  0  0  0  0  0  0  0  0  0  0
    1.7999   -1.8279   -0.1151 H   0  0  0  0  0  0  0  0  0  0  0  0
    8.0929    1.3543   -0.9087 H   0  0  0  0  0  0  0  0  0  0  0  0
    6.8894    1.8956    0.2823 H   0  0  0  0  0  0  0  0  0  0  0  0
    6.6345    2.2319   -1.4213 H   0  0  0  0  0  0  0  0  0  0  0  0
    5.9581    0.3311   -3.0202 H   0  0  0  0  0  0  0  0  0  0  0  0
    5.9642   -1.3314   -2.4535 H   0  0  0  0  0  0  0  0  0  0  0  0
    7.4896   -0.4527   -2.5676 H   0  0  0  0  0  0  0  0  0  0  0  0
    7.8834   -0.9670    0.0596 H   0  0  0  0  0  0  0  0  0  0  0  0
    6.5829   -0.5009    1.1798 H   0  0  0  0  0  0  0  0  0  0  0  0
    6.3446   -1.8289    0.0555 H   0  0  0  0  0  0  0  0  0  0  0  0
    2.8778    1.6567    1.0140 H   0  0  0  0  0  0  0  0  0  0  0  0
    3.0407    2.1219   -0.6863 H   0  0  0  0  0  0  0  0  0  0  0  0
    0.8901    2.9641    0.2581 H   0  0  0  0  0  0  0  0  0  0  0  0
    0.6597    1.8245   -1.0748 H   0  0  0  0  0  0  0  0  0  0  0  0
  1  2  1  0
  2  3  2  0
  3  4  1  0
  4  5  2  0
  5  6  1  0
  6  7  2  0
  7  8  1  0
  8  9  1  0
  9 10  2  0
  9 11  1  0
 11 12  1  0
 12 13  1  0
 13 14  2  0
 14 15  1  0
 14 16  1  0
 16 17  1  0
 17 18  2  0
 18 19  1  0
 19 20  2  0
 20 21  1  0
 21 22  2  0
 16 23  1  0
 23 24  1  0
 13 25  1  0
 25 26  1  0
 26 27  1  0
 27 28  1  0
 28 29  2  0
 28 30  1  0
 30 31  1  0
 31 32  1  0
 31 33  1  0
 31 34  1  0
 27 35  1  0
 35 36  1  0
 36 37  1  0
  7  2  1  0
 11 37  1  6
 11  6  1  0
 23 12  2  0
 37 25  1  0
 22 17  1  0
  1 38  1  0
  1 39  1  0
  1 40  1  0
  3 41  1  0
  4 42  1  0
  5 43  1  0
  8 44  1  0
 15 45  1  0
 18 46  1  0
 19 47  1  0
 20 48  1  0
 21 49  1  0
 22 50  1  0
 24 51  1  0
 25 52  1  1
 26 53  1  0
 26 54  1  0
 32 55  1  0
 32 56  1  0
 32 57  1  0
 33 58  1  0
 33 59  1  0
 33 60  1  0
 34 61  1  0
 34 62  1  0
 34 63  1  0
 35 64  1  0
 35 65  1  0
 36 66  1  0
 36 67  1  0
M  END
$$$$
