
     RDKit          3D

 85 88  0  0  0  0  0  0  0  0999 V2000
    4.7404   -7.6115    1.0243 C   0  0  0  0  0  0  0  0  0  0  0  0
    4.7599   -6.7351   -0.1003 O   0  0  0  0  0  0  0  0  0  0  0  0
    4.1946   -5.5057    0.0927 C   0  0  0  0  0  0  0  0  0  0  0  0
    4.6228   -4.5081   -0.7863 C   0  0  0  0  0  0  0  0  0  0  0  0
    4.1326   -3.2025   -0.6734 C   0  0  0  0  0  0  0  0  0  0  0  0
    3.1834   -2.8848    0.2981 C   0  0  0  0  0  0  0  0  0  0  0  0
    2.6296   -1.5995    0.4445 N   0  0  0  0  0  0  0  0  0  0  0  0
    3.1587   -0.4050   -0.0177 C   0  0  0  0  0  0  0  0  0  0  0  0
    4.2505   -0.2822   -0.5518 O   0  0  0  0  0  0  0  0  0  0  0  0
    2.2812    0.6297    0.2371 N   0  0  0  0  0  0  0  0  0  0  0  0
    2.4673    2.0215    0.0615 C   0  0  0  0  0  0  0  0  0  0  0  0
    3.7006    2.5920   -0.2597 C   0  0  0  0  0  0  0  0  0  0  0  0
    3.8157    3.9739   -0.3805 C   0  0  0  0  0  0  0  0  0  0  0  0
    2.6985    4.7837   -0.1756 C   0  0  0  0  0  0  0  0  0  0  0  0
    1.4409    4.2262    0.1348 C   0  0  0  0  0  0  0  0  0  0  0  0
    1.3212    2.8361    0.2590 C   0  0  0  0  0  0  0  0  0  0  0  0
    0.2298    2.0706    0.5554 O   0  0  0  0  0  0  0  0  0  0  0  0
   -1.0801    2.5841    0.7129 C   0  0  0  0  0  0  0  0  0  0  0  0
   -1.8637    1.6116    1.6393 C   0  0  0  0  0  0  0  0  0  0  0  0
   -2.2851    0.3218    1.0762 N   0  0  0  0  0  0  0  0  0  0  0  0
   -3.7191    0.1817    0.8347 C   0  0  0  0  0  0  0  0  0  0  0  0
   -1.3622   -0.7167    1.0316 C   0  0  0  0  0  0  0  0  0  0  0  0
   -0.1603   -0.5708    1.2680 O   0  0  0  0  0  0  0  0  0  0  0  0
   -1.8802   -1.9496    0.7329 N   0  0  0  0  0  0  0  0  0  0  0  0
   -1.0453   -3.1287    0.5244 C   0  0  0  0  0  0  0  0  0  0  0  0
   -0.6972   -3.2988   -0.9654 C   0  0  0  0  0  0  0  0  0  0  0  0
   -1.4859   -4.4148   -1.6590 C   0  0  0  0  0  0  0  0  0  0  0  0
   -2.9236   -4.4924   -1.1575 C   0  0  0  0  0  0  0  0  0  0  0  0
   -2.9909   -4.7825    0.3420 C   0  0  0  0  0  0  0  0  0  0  0  0
   -1.7269   -4.3711    1.1043 C   0  0  0  0  0  0  0  0  0  0  0  0
   -1.7294    2.8694   -0.6632 C   0  0  0  0  0  0  0  0  0  0  0  0
   -1.6450    1.7131   -1.6717 C   0  0  0  0  0  0  0  0  0  0  0  0
   -1.0930    4.1048   -1.3394 C   0  0  0  0  0  0  0  0  0  0  0  0
   -0.8032    5.1939   -0.4073 N   0  0  0  0  0  0  0  0  0  0  0  0
   -1.7638    6.3174   -0.2784 C   0  0  0  0  0  0  0  0  0  0  0  0
   -1.6647    7.2516   -1.4874 C   0  0  0  0  0  0  0  0  0  0  0  0
   -3.2194    5.8754   -0.0272 C   0  0  0  0  0  0  0  0  0  0  0  0
   -3.3255    5.0749    1.1501 O   0  0  0  0  0  0  0  0  0  0  0  0
    0.3760    5.2388    0.3452 C   0  0  0  0  0  0  0  0  0  0  0  0
    0.6050    6.1357    1.1592 O   0  0  0  0  0  0  0  0  0  0  0  0
    2.7253   -3.8971    1.1490 C   0  0  0  0  0  0  0  0  0  0  0  0
    3.2302   -5.2012    1.0518 C   0  0  0  0  0  0  0  0  0  0  0  0
    5.4022   -8.4543    0.8040 H   0  0  0  0  0  0  0  0  0  0  0  0
    5.1208   -7.1146    1.9253 H   0  0  0  0  0  0  0  0  0  0  0  0
    3.7341   -8.0111    1.1896 H   0  0  0  0  0  0  0  0  0  0  0  0
    5.3570   -4.7398   -1.5533 H   0  0  0  0  0  0  0  0  0  0  0  0
    4.4870   -2.4564   -1.3813 H   0  0  0  0  0  0  0  0  0  0  0  0
    1.8554   -1.4927    1.0912 H   0  0  0  0  0  0  0  0  0  0  0  0
    1.3325    0.3653    0.5175 H   0  0  0  0  0  0  0  0  0  0  0  0
    4.5919    1.9863   -0.4054 H   0  0  0  0  0  0  0  0  0  0  0  0
    4.7809    4.4167   -0.6194 H   0  0  0  0  0  0  0  0  0  0  0  0
    2.8129    5.8645   -0.2532 H   0  0  0  0  0  0  0  0  0  0  0  0
   -1.0330    3.4909    1.3229 H   0  0  0  0  0  0  0  0  0  0  0  0
   -2.7576    2.1267    2.0134 H   0  0  0  0  0  0  0  0  0  0  0  0
   -1.2440    1.3914    2.5191 H   0  0  0  0  0  0  0  0  0  0  0  0
   -3.9269   -0.5364    0.0409 H   0  0  0  0  0  0  0  0  0  0  0  0
   -4.1949   -0.1428    1.7646 H   0  0  0  0  0  0  0  0  0  0  0  0
   -4.1376    1.1405    0.5200 H   0  0  0  0  0  0  0  0  0  0  0  0
   -2.8476   -2.0319    0.4879 H   0  0  0  0  0  0  0  0  0  0  0  0
   -0.1151   -2.9696    1.0784 H   0  0  0  0  0  0  0  0  0  0  0  0
    0.3718   -3.5306   -1.0667 H   0  0  0  0  0  0  0  0  0  0  0  0
   -0.8513   -2.3544   -1.5024 H   0  0  0  0  0  0  0  0  0  0  0  0
   -1.4687   -4.2573   -2.7445 H   0  0  0  0  0  0  0  0  0  0  0  0
   -0.9900   -5.3773   -1.4727 H   0  0  0  0  0  0  0  0  0  0  0  0
   -3.4269   -3.5384   -1.3662 H   0  0  0  0  0  0  0  0  0  0  0  0
   -3.4772   -5.2661   -1.7061 H   0  0  0  0  0  0  0  0  0  0  0  0
   -3.8632   -4.2662    0.7664 H   0  0  0  0  0  0  0  0  0  0  0  0
   -3.1623   -5.8544    0.5091 H   0  0  0  0  0  0  0  0  0  0  0  0
   -1.9783   -4.2158    2.1625 H   0  0  0  0  0  0  0  0  0  0  0  0
   -1.0122   -5.2059    1.0793 H   0  0  0  0  0  0  0  0  0  0  0  0
   -2.7900    3.0848   -0.4935 H   0  0  0  0  0  0  0  0  0  0  0  0
   -2.2778    0.8725   -1.3913 H   0  0  0  0  0  0  0  0  0  0  0  0
   -0.6222    1.3449   -1.7910 H   0  0  0  0  0  0  0  0  0  0  0  0
   -1.9890    2.0408   -2.6586 H   0  0  0  0  0  0  0  0  0  0  0  0
   -1.7598    4.4767   -2.1296 H   0  0  0  0  0  0  0  0  0  0  0  0
   -0.1625    3.8306   -1.8513 H   0  0  0  0  0  0  0  0  0  0  0  0
   -1.4719    6.9035    0.6009 H   0  0  0  0  0  0  0  0  0  0  0  0
   -1.9308    6.7438   -2.4211 H   0  0  0  0  0  0  0  0  0  0  0  0
   -2.3358    8.1102   -1.3708 H   0  0  0  0  0  0  0  0  0  0  0  0
   -0.6432    7.6298   -1.5946 H   0  0  0  0  0  0  0  0  0  0  0  0
   -3.6197    5.2986   -0.8644 H   0  0  0  0  0  0  0  0  0  0  0  0
   -3.8688    6.7463    0.1048 H   0  0  0  0  0  0  0  0  0  0  0  0
   -2.8305    5.5343    1.8553 H   0  0  0  0  0  0  0  0  0  0  0  0
    1.9921   -3.6796    1.9194 H   0  0  0  0  0  0  0  0  0  0  0  0
    2.8505   -5.9529    1.7374 H   0  0  0  0  0  0  0  0  0  0  0  0
  1  2  1  0
  2  3  1  0
  3  4  2  0
  4  5  1  0
  5  6  2  0
  6  7  1  0
  7  8  1  0
  8  9  2  0
  8 10  1  0
 10 11  1  0
 11 12  2  0
 12 13  1  0
 13 14  2  0
 14 15  1  0
 15 16  2  0
 16 17  1  0
 17 18  1  0
 18 19  1  0
 19 20  1  0
 20 21  1  0
 20 22  1  0
 22 23  2  0
 22 24  1  0
 24 25  1  0
 25 26  1  0
 26 27  1  0
 27 28  1  0
 28 29  1  0
 29 30  1  0
 18 31  1  0
 31 32  1  0
 31 33  1  0
 33 34  1  0
 34 35  1  0
 35 36  1  0
 35 37  1  0
 37 38  1  0
 34 39  1  0
 39 40  2  0
  6 41  1  0
 41 42  2  0
 42  3  1  0
 16 11  1  0
 30 25  1  0
 39 15  1  0
  1 43  1  0
  1 44  1  0
  1 45  1  0
  4 46  1  0
  5 47  1  0
  7 48  1  0
 10 49  1  0
 12 50  1  0
 13 51  1  0
 14 52  1  0
 18 53  1  0
 19 54  1  0
 19 55  1  0
 21 56  1  0
 21 57  1  0
 21 58  1  0
 24 59  1  0
 25 60  1  0
 26 61  1  0
 26 62  1  0
 27 63  1  0
 27 64  1  0
 28 65  1  0
 28 66  1  0
 29 67  1  0
 29 68  1  0
 30 69  1  0
 30 70  1  0
 31 71  1  0
 32 72  1  0
 32 73  1  0
 32 74  1  0
 33 75  1  0
 33 76  1  0
 35 77  1  0
 36 78  1  0
 36 79  1  0
 36 80  1  0
 37 81  1  0
 37 82  1  0
 38 83  1  0
 41 84  1  0
 42 85  1  0
M  END
$$$$
