
     RDKit          3D

 39 40  0  0  0  0  0  0  0  0999 V2000
   -1.2810    2.4621    0.3152 C   0  0  0  0  0  0  0  0  0  0  0  0
   -2.7426    2.0442    0.3028 C   0  0  0  0  0  0  0  0  0  0  0  0
   -2.8757    0.6297    0.3898 O   0  0  0  0  0  0  0  0  0  0  0  0
   -2.8164   -0.1267   -0.7489 C   0  0  0  0  0  0  0  0  0  0  0  0
   -2.6828    0.3654   -2.0471 C   0  0  0  0  0  0  0  0  0  0  0  0
   -2.6221   -0.5135   -3.1357 C   0  0  0  0  0  0  0  0  0  0  0  0
   -2.7027   -1.8935   -2.9397 C   0  0  0  0  0  0  0  0  0  0  0  0
   -2.8373   -2.3979   -1.6498 C   0  0  0  0  0  0  0  0  0  0  0  0
   -2.8719   -1.5192   -0.5623 C   0  0  0  0  0  0  0  0  0  0  0  0
   -2.9879   -2.0186    0.7125 O   0  0  0  0  0  0  0  0  0  0  0  0
   -1.7883   -2.6436    1.1624 C   0  0  0  0  0  0  0  0  0  0  0  0
   -0.6375   -1.6938    1.5361 C   0  0  0  0  0  0  0  0  0  0  0  0
   -0.4445   -1.3673    2.7051 O   0  0  0  0  0  0  0  0  0  0  0  0
    0.1141   -1.3200    0.4368 N   0  0  0  0  0  0  0  0  0  0  0  0
    1.1882   -0.4703    0.4244 C   0  0  0  0  0  0  0  0  0  0  0  0
    1.7389   -0.0709   -0.7010 N   0  0  0  0  0  0  0  0  0  0  0  0
    2.8004    0.7822   -0.4848 N   0  0  0  0  0  0  0  0  0  0  0  0
    3.0214    0.9791    0.8007 C   0  0  0  0  0  0  0  0  0  0  0  0
    4.1037    1.8464    1.3526 C   0  0  0  0  0  0  0  0  0  0  0  0
    5.0930    1.0377    2.0015 O   0  0  0  0  0  0  0  0  0  0  0  0
    5.9891    0.4154    1.0847 C   0  0  0  0  0  0  0  0  0  0  0  0
    1.9324    0.1379    1.8301 S   0  0  0  0  0  0  0  0  0  0  0  0
   -0.7725    2.0441    1.1909 H   0  0  0  0  0  0  0  0  0  0  0  0
   -1.1970    3.5518    0.3470 H   0  0  0  0  0  0  0  0  0  0  0  0
   -0.7512    2.0939   -0.5673 H   0  0  0  0  0  0  0  0  0  0  0  0
   -3.2908    2.4679   -0.5436 H   0  0  0  0  0  0  0  0  0  0  0  0
   -3.2208    2.4563    1.2008 H   0  0  0  0  0  0  0  0  0  0  0  0
   -2.6216    1.4302   -2.2544 H   0  0  0  0  0  0  0  0  0  0  0  0
   -2.5225   -0.1113   -4.1435 H   0  0  0  0  0  0  0  0  0  0  0  0
   -2.6702   -2.5651   -3.7939 H   0  0  0  0  0  0  0  0  0  0  0  0
   -2.9224   -3.4710   -1.4991 H   0  0  0  0  0  0  0  0  0  0  0  0
   -2.0409   -3.2062    2.0702 H   0  0  0  0  0  0  0  0  0  0  0  0
   -1.4287   -3.3968    0.4457 H   0  0  0  0  0  0  0  0  0  0  0  0
   -0.2132   -1.5654   -0.4865 H   0  0  0  0  0  0  0  0  0  0  0  0
    4.5641    2.4606    0.5679 H   0  0  0  0  0  0  0  0  0  0  0  0
    3.6913    2.5285    2.1041 H   0  0  0  0  0  0  0  0  0  0  0  0
    5.4586   -0.2779    0.4241 H   0  0  0  0  0  0  0  0  0  0  0  0
    6.5242    1.1663    0.4936 H   0  0  0  0  0  0  0  0  0  0  0  0
    6.7230   -0.1573    1.6585 H   0  0  0  0  0  0  0  0  0  0  0  0
  1  2  1  0
  2  3  1  0
  3  4  1  0
  4  5  2  0
  5  6  1  0
  6  7  2  0
  7  8  1  0
  8  9  2  0
  9 10  1  0
 10 11  1  0
 11 12  1  0
 12 13  2  0
 12 14  1  0
 14 15  1  0
 15 16  2  0
 16 17  1  0
 17 18  2  0
 18 19  1  0
 19 20  1  0
 20 21  1  0
 18 22  1  0
  9  4  1  0
 22 15  1  0
  1 23  1  0
  1 24  1  0
  1 25  1  0
  2 26  1  0
  2 27  1  0
  5 28  1  0
  6 29  1  0
  7 30  1  0
  8 31  1  0
 11 32  1  0
 11 33  1  0
 14 34  1  0
 19 35  1  0
 19 36  1  0
 21 37  1  0
 21 38  1  0
 21 39  1  0
M  END
$$$$
