
     RDKit          3D

 42 44  0  0  0  0  0  0  0  0999 V2000
   -6.8084    1.5519   -0.9926 C   0  0  0  0  0  0  0  0  0  0  0  0
   -5.7717    0.6594   -1.3854 O   0  0  0  0  0  0  0  0  0  0  0  0
   -4.6627    0.6104   -0.5852 C   0  0  0  0  0  0  0  0  0  0  0  0
   -4.4650    1.3405    0.5815 C   0  0  0  0  0  0  0  0  0  0  0  0
   -3.2783    1.1881    1.2966 C   0  0  0  0  0  0  0  0  0  0  0  0
   -3.1801    1.9251    2.4510 O   0  0  0  0  0  0  0  0  0  0  0  0
   -2.2588    0.3292    0.8481 C   0  0  0  0  0  0  0  0  0  0  0  0
   -1.0073    0.2724    1.6488 C   0  0  0  0  0  0  0  0  0  0  0  0
   -1.0797    0.4239    2.8686 O   0  0  0  0  0  0  0  0  0  0  0  0
    0.3001    0.1563    0.9503 C   0  0  0  0  0  0  0  0  0  0  0  0
    1.4226   -0.0215    1.6649 C   0  0  0  0  0  0  0  0  0  0  0  0
    2.7693   -0.1606    1.1203 C   0  0  0  0  0  0  0  0  0  0  0  0
    3.1407    0.4884   -0.0133 C   0  0  0  0  0  0  0  0  0  0  0  0
    4.5726    0.4191   -0.4349 C   0  0  2  0  0  0  0  0  0  0  0  0
    4.8723    0.5536   -1.8174 O   0  0  0  0  0  0  0  0  0  0  0  0
    6.1910   -0.0471   -1.8793 C   0  0  0  0  0  0  0  0  0  0  0  0
    6.4453   -0.8272   -0.6838 O   0  0  0  0  0  0  0  0  0  0  0  0
    5.1340   -0.9630   -0.1573 C   0  0  1  0  0  0  0  0  0  0  0  0
    4.9797   -1.2666    1.2935 C   0  0  0  0  0  0  0  0  0  0  0  0
    3.8271   -0.8759    1.8776 C   0  0  0  0  0  0  0  0  0  0  0  0
   -2.4740   -0.4437   -0.3073 C   0  0  0  0  0  0  0  0  0  0  0  0
   -1.5002   -1.3412   -0.6591 O   0  0  0  0  0  0  0  0  0  0  0  0
   -1.7590   -2.2149   -1.7524 C   0  0  0  0  0  0  0  0  0  0  0  0
   -3.6724   -0.2810   -1.0178 C   0  0  0  0  0  0  0  0  0  0  0  0
   -6.4551    2.5883   -0.9845 H   0  0  0  0  0  0  0  0  0  0  0  0
   -7.6100    1.4791   -1.7339 H   0  0  0  0  0  0  0  0  0  0  0  0
   -7.2261    1.2675   -0.0212 H   0  0  0  0  0  0  0  0  0  0  0  0
   -5.2099    2.0278    0.9679 H   0  0  0  0  0  0  0  0  0  0  0  0
   -2.4295    1.5648    2.9765 H   0  0  0  0  0  0  0  0  0  0  0  0
    0.3108    0.2237   -0.1297 H   0  0  0  0  0  0  0  0  0  0  0  0
    1.3517   -0.1048    2.7497 H   0  0  0  0  0  0  0  0  0  0  0  0
    2.4731    1.1186   -0.5876 H   0  0  0  0  0  0  0  0  0  0  0  0
    5.1284    1.2143    0.0851 H   0  0  0  0  0  0  0  0  0  0  0  0
    6.9471    0.7401   -1.9568 H   0  0  0  0  0  0  0  0  0  0  0  0
    6.2434   -0.6977   -2.7575 H   0  0  0  0  0  0  0  0  0  0  0  0
    4.6363   -1.7510   -0.7424 H   0  0  0  0  0  0  0  0  0  0  0  0
    5.7422   -1.8232    1.8231 H   0  0  0  0  0  0  0  0  0  0  0  0
    3.6350   -1.1065    2.9223 H   0  0  0  0  0  0  0  0  0  0  0  0
   -2.6446   -2.8313   -1.5664 H   0  0  0  0  0  0  0  0  0  0  0  0
   -1.8522   -1.6548   -2.6885 H   0  0  0  0  0  0  0  0  0  0  0  0
   -0.9010   -2.8867   -1.8516 H   0  0  0  0  0  0  0  0  0  0  0  0
   -3.8767   -0.8438   -1.9239 H   0  0  0  0  0  0  0  0  0  0  0  0
  1  2  1  0
  2  3  1  0
  3  4  2  0
  4  5  1  0
  5  6  1  0
  5  7  2  0
  7  8  1  0
  8  9  2  0
  8 10  1  0
 10 11  2  0
 11 12  1  0
 12 13  2  0
 13 14  1  0
 14 15  1  0
 15 16  1  0
 16 17  1  0
 17 18  1  0
 18 19  1  0
 19 20  2  0
  7 21  1  0
 21 22  1  0
 22 23  1  0
 21 24  2  0
 24  3  1  0
 20 12  1  0
 18 14  1  0
  1 25  1  0
  1 26  1  0
  1 27  1  0
  4 28  1  0
  6 29  1  0
 10 30  1  0
 11 31  1  0
 13 32  1  0
 14 33  1  1
 16 34  1  0
 16 35  1  0
 18 36  1  6
 19 37  1  0
 20 38  1  0
 23 39  1  0
 23 40  1  0
 23 41  1  0
 24 42  1  0
M  END
$$$$
