
     RDKit          3D

 55 58  0  0  0  0  0  0  0  0999 V2000
    6.3302   -2.1087    1.3418 C   0  0  0  0  0  0  0  0  0  0  0  0
    6.5988   -0.6172    1.4910 C   0  0  0  0  0  0  0  0  0  0  0  0
    6.0685    0.1483    0.3542 N   0  0  0  0  0  0  0  0  0  0  0  0
    7.0568    0.7179   -0.5710 C   0  0  0  0  0  0  0  0  0  0  0  0
    7.4501   -0.2810   -1.6486 C   0  0  0  0  0  0  0  0  0  0  0  0
    4.7037    0.3537    0.1740 C   0  0  0  0  0  0  0  0  0  0  0  0
    4.1679    0.8203   -1.0381 C   0  0  0  0  0  0  0  0  0  0  0  0
    2.7917    1.0286   -1.2256 C   0  0  0  0  0  0  0  0  0  0  0  0
    1.8849    0.7648   -0.2016 C   0  0  0  0  0  0  0  0  0  0  0  0
    0.4566    1.0189   -0.4248 C   0  0  0  0  0  0  0  0  0  0  0  0
   -0.5274    0.2357    0.0483 C   0  0  0  0  0  0  0  0  0  0  0  0
   -1.9580    0.4833   -0.1885 C   0  0  0  0  0  0  0  0  0  0  0  0
   -2.9054   -0.3882    0.3226 C   0  0  0  0  0  0  0  0  0  0  0  0
   -4.2639   -0.1397    0.0898 C   0  0  0  0  0  0  0  0  0  0  0  0
   -5.2525   -1.0748    0.6461 C   0  0  0  0  0  0  0  0  0  0  0  0
   -5.8496   -0.8277    1.8920 C   0  0  0  0  0  0  0  0  0  0  0  0
   -6.7862   -1.7175    2.4222 C   0  0  0  0  0  0  0  0  0  0  0  0
   -7.1351   -2.8660    1.7142 C   0  0  0  0  0  0  0  0  0  0  0  0
   -6.5489   -3.1263    0.4770 C   0  0  0  0  0  0  0  0  0  0  0  0
   -5.6124   -2.2365   -0.0538 C   0  0  0  0  0  0  0  0  0  0  0  0
   -4.6315    1.0006   -0.6680 C   0  0  0  0  0  0  0  0  0  0  0  0
   -5.9704    1.3507   -0.9727 C   0  0  0  0  0  0  0  0  0  0  0  0
   -6.2683    2.4876   -1.7220 C   0  0  0  0  0  0  0  0  0  0  0  0
   -5.2359    3.2924   -2.1800 C   0  0  0  0  0  0  0  0  0  0  0  0
   -3.9134    2.9534   -1.8863 C   0  0  0  0  0  0  0  0  0  0  0  0
   -3.5897    1.8263   -1.1425 C   0  0  0  0  0  0  0  0  0  0  0  0
   -2.2923    1.5747   -0.9094 N   0  0  0  0  0  0  0  0  0  0  0  0
    2.3881    0.3161    1.0177 C   0  0  0  0  0  0  0  0  0  0  0  0
    3.7670    0.1119    1.1929 C   0  0  0  0  0  0  0  0  0  0  0  0
    6.7612   -2.4978    0.4143 H   0  0  0  0  0  0  0  0  0  0  0  0
    5.2599   -2.3339    1.3292 H   0  0  0  0  0  0  0  0  0  0  0  0
    6.7771   -2.6562    2.1777 H   0  0  0  0  0  0  0  0  0  0  0  0
    6.2048   -0.2412    2.4416 H   0  0  0  0  0  0  0  0  0  0  0  0
    7.6853   -0.4811    1.5626 H   0  0  0  0  0  0  0  0  0  0  0  0
    6.7004    1.6505   -1.0232 H   0  0  0  0  0  0  0  0  0  0  0  0
    7.9580    1.0095   -0.0168 H   0  0  0  0  0  0  0  0  0  0  0  0
    7.9403   -1.1573   -1.2131 H   0  0  0  0  0  0  0  0  0  0  0  0
    6.5818   -0.6310   -2.2150 H   0  0  0  0  0  0  0  0  0  0  0  0
    8.1524    0.1800   -2.3506 H   0  0  0  0  0  0  0  0  0  0  0  0
    4.8086    1.0207   -1.8910 H   0  0  0  0  0  0  0  0  0  0  0  0
    2.4426    1.3877   -2.1910 H   0  0  0  0  0  0  0  0  0  0  0  0
    0.2206    1.8895   -1.0340 H   0  0  0  0  0  0  0  0  0  0  0  0
   -0.2899   -0.6490    0.6308 H   0  0  0  0  0  0  0  0  0  0  0  0
   -2.6031   -1.2568    0.9003 H   0  0  0  0  0  0  0  0  0  0  0  0
   -5.5863    0.0657    2.4552 H   0  0  0  0  0  0  0  0  0  0  0  0
   -7.2423   -1.5136    3.3875 H   0  0  0  0  0  0  0  0  0  0  0  0
   -7.8638   -3.5589    2.1271 H   0  0  0  0  0  0  0  0  0  0  0  0
   -6.8199   -4.0222   -0.0758 H   0  0  0  0  0  0  0  0  0  0  0  0
   -5.1640   -2.4512   -1.0219 H   0  0  0  0  0  0  0  0  0  0  0  0
   -6.7958    0.7323   -0.6252 H   0  0  0  0  0  0  0  0  0  0  0  0
   -7.3017    2.7395   -1.9450 H   0  0  0  0  0  0  0  0  0  0  0  0
   -5.4508    4.1824   -2.7651 H   0  0  0  0  0  0  0  0  0  0  0  0
   -3.1083    3.5885   -2.2492 H   0  0  0  0  0  0  0  0  0  0  0  0
    1.7241    0.1318    1.8580 H   0  0  0  0  0  0  0  0  0  0  0  0
    4.0850   -0.2297    2.1725 H   0  0  0  0  0  0  0  0  0  0  0  0
  1  2  1  0
  2  3  1  0
  3  4  1  0
  4  5  1  0
  3  6  1  0
  6  7  2  0
  7  8  1  0
  8  9  2  0
  9 10  1  0
 10 11  2  3
 11 12  1  0
 12 13  2  0
 13 14  1  0
 14 15  1  0
 15 16  2  0
 16 17  1  0
 17 18  2  0
 18 19  1  0
 19 20  2  0
 14 21  2  0
 21 22  1  0
 22 23  2  0
 23 24  1  0
 24 25  2  0
 25 26  1  0
 26 27  2  0
  9 28  1  0
 28 29  2  0
 29  6  1  0
 27 12  1  0
 20 15  1  0
 26 21  1  0
  1 30  1  0
  1 31  1  0
  1 32  1  0
  2 33  1  0
  2 34  1  0
  4 35  1  0
  4 36  1  0
  5 37  1  0
  5 38  1  0
  5 39  1  0
  7 40  1  0
  8 41  1  0
 10 42  1  0
 11 43  1  0
 13 44  1  0
 16 45  1  0
 17 46  1  0
 18 47  1  0
 19 48  1  0
 20 49  1  0
 22 50  1  0
 23 51  1  0
 24 52  1  0
 25 53  1  0
 28 54  1  0
 29 55  1  0
M  END
$$$$
