
     RDKit          3D

 36 35  0  0  0  0  0  0  0  0999 V2000
    3.4797    0.4699   -2.9017 C   0  0  0  0  0  0  0  0  0  0  0  0
    2.4555    0.5962   -1.7820 C   0  0  0  0  0  0  0  0  0  0  0  0
    1.5036   -0.5300   -1.7562 N   0  0  0  0  0  0  0  0  0  0  0  0
    1.9807   -1.7169   -1.0220 C   0  0  0  0  0  0  0  0  0  0  0  0
    1.6714   -1.6360    0.4629 C   0  0  0  0  0  0  0  0  0  0  0  0
    0.2733   -0.4771   -2.4493 C   0  0  0  0  0  0  0  0  0  0  0  0
   -0.1615    0.7472   -3.5342 S   0  0  0  0  0  0  0  0  0  0  0  0
   -0.8394   -1.8421   -2.1966 S   0  0  0  0  0  0  0  0  0  0  0  0
   -2.5448   -0.9537   -1.4357 S   0  0  0  0  0  0  0  0  0  0  0  0
   -2.3163   -1.0747    0.3221 C   0  0  0  0  0  0  0  0  0  0  0  0
   -2.5168   -2.5882    1.0487 S   0  0  0  0  0  0  0  0  0  0  0  0
   -2.0515    0.1257    1.0168 N   0  0  0  0  0  0  0  0  0  0  0  0
   -2.0358    0.1831    2.4908 C   0  0  0  0  0  0  0  0  0  0  0  0
   -0.6432   -0.0290    3.0651 C   0  0  0  0  0  0  0  0  0  0  0  0
   -1.8305    1.4237    0.3562 C   0  0  0  0  0  0  0  0  0  0  0  0
   -3.1230    2.2042    0.1661 C   0  0  0  0  0  0  0  0  0  0  0  0
    4.0818   -0.4370   -2.7886 H   0  0  0  0  0  0  0  0  0  0  0  0
    3.0016    0.4269   -3.8846 H   0  0  0  0  0  0  0  0  0  0  0  0
    4.1582    1.3287   -2.8904 H   0  0  0  0  0  0  0  0  0  0  0  0
    1.9184    1.5447   -1.8761 H   0  0  0  0  0  0  0  0  0  0  0  0
    2.9700    0.6378   -0.8152 H   0  0  0  0  0  0  0  0  0  0  0  0
    3.0641   -1.8008   -1.1645 H   0  0  0  0  0  0  0  0  0  0  0  0
    1.5574   -2.6320   -1.4437 H   0  0  0  0  0  0  0  0  0  0  0  0
    2.0283   -2.5343    0.9757 H   0  0  0  0  0  0  0  0  0  0  0  0
    2.1529   -0.7680    0.9240 H   0  0  0  0  0  0  0  0  0  0  0  0
    0.5982   -1.5473    0.6356 H   0  0  0  0  0  0  0  0  0  0  0  0
   -2.4160    1.1621    2.8049 H   0  0  0  0  0  0  0  0  0  0  0  0
   -2.7261   -0.5534    2.9119 H   0  0  0  0  0  0  0  0  0  0  0  0
   -0.6632    0.0821    4.1538 H   0  0  0  0  0  0  0  0  0  0  0  0
    0.0684    0.6980    2.6611 H   0  0  0  0  0  0  0  0  0  0  0  0
   -0.2645   -1.0291    2.8371 H   0  0  0  0  0  0  0  0  0  0  0  0
   -1.1324    2.0088    0.9662 H   0  0  0  0  0  0  0  0  0  0  0  0
   -1.3356    1.2828   -0.6049 H   0  0  0  0  0  0  0  0  0  0  0  0
   -3.6007    2.4177    1.1276 H   0  0  0  0  0  0  0  0  0  0  0  0
   -2.9182    3.1584   -0.3292 H   0  0  0  0  0  0  0  0  0  0  0  0
   -3.8437    1.6517   -0.4438 H   0  0  0  0  0  0  0  0  0  0  0  0
  1  2  1  0
  2  3  1  0
  3  4  1  0
  4  5  1  0
  3  6  1  0
  6  7  2  0
  6  8  1  0
  8  9  1  0
  9 10  1  0
 10 11  2  0
 10 12  1  0
 12 13  1  0
 13 14  1  0
 12 15  1  0
 15 16  1  0
  1 17  1  0
  1 18  1  0
  1 19  1  0
  2 20  1  0
  2 21  1  0
  4 22  1  0
  4 23  1  0
  5 24  1  0
  5 25  1  0
  5 26  1  0
 13 27  1  0
 13 28  1  0
 14 29  1  0
 14 30  1  0
 14 31  1  0
 15 32  1  0
 15 33  1  0
 16 34  1  0
 16 35  1  0
 16 36  1  0
M  END
$$$$
