
     RDKit          3D

 50 53  0  0  0  0  0  0  0  0999 V2000
   -4.8981    0.0836    0.0605 C   0  0  0  0  0  0  0  0  0  0  0  0
   -4.2562    0.7593   -1.0460 N   0  0  0  0  0  0  0  0  0  0  0  0
   -4.8481    0.9297   -2.2741 C   0  0  0  0  0  0  0  0  0  0  0  0
   -3.9874    1.6464   -3.0725 C   0  0  0  0  0  0  0  0  0  0  0  0
   -2.8307    1.9068   -2.3065 C   0  0  0  0  0  0  0  0  0  0  0  0
   -3.0013    1.3316   -1.0551 C   0  0  0  0  0  0  0  0  0  0  0  0
   -2.0389    1.3257    0.1006 C   0  0  0  0  0  0  0  0  0  0  0  0
   -0.7214    0.7234   -0.2796 C   0  0  0  0  0  0  0  0  0  0  0  0
    0.3166    1.4103   -0.7249 N   0  0  0  0  0  0  0  0  0  0  0  0
    1.2513    0.5277   -1.1831 N   0  0  0  0  0  0  0  0  0  0  0  0
    0.7936   -0.6869   -0.9777 C   0  0  0  0  0  0  0  0  0  0  0  0
    1.7250   -2.1300   -1.2229 S   0  0  0  0  0  0  0  0  0  0  0  0
    3.3778   -1.4408   -1.5343 C   0  0  0  0  0  0  0  0  0  0  0  0
    4.0321   -0.9666   -0.2442 C   0  0  0  0  0  0  0  0  0  0  0  0
    4.7525   -1.7200    0.4066 O   0  0  0  0  0  0  0  0  0  0  0  0
    3.7316    0.3477    0.0673 N   0  0  0  0  0  0  0  0  0  0  0  0
    4.2343    1.1305    1.1249 C   0  0  0  0  0  0  0  0  0  0  0  0
    3.7033    2.4201    1.2657 C   0  0  0  0  0  0  0  0  0  0  0  0
    4.1691    3.2785    2.2642 C   0  0  0  0  0  0  0  0  0  0  0  0
    5.1693    2.8538    3.1324 C   0  0  0  0  0  0  0  0  0  0  0  0
    5.6959    1.5694    3.0051 C   0  0  0  0  0  0  0  0  0  0  0  0
    5.2294    0.7096    2.0047 C   0  0  0  0  0  0  0  0  0  0  0  0
   -0.4554   -0.6361   -0.3877 N   0  0  0  0  0  0  0  0  0  0  0  0
   -1.2758   -1.7121    0.0267 C   0  0  0  0  0  0  0  0  0  0  0  0
   -1.7940   -1.7288    1.3298 C   0  0  0  0  0  0  0  0  0  0  0  0
   -2.5906   -2.7996    1.7433 C   0  0  0  0  0  0  0  0  0  0  0  0
   -2.8683   -3.8338    0.8553 C   0  0  0  0  0  0  0  0  0  0  0  0
   -3.6427   -4.8517    1.2512 F   0  0  0  0  0  0  0  0  0  0  0  0
   -2.3582   -3.8242   -0.4395 C   0  0  0  0  0  0  0  0  0  0  0  0
   -1.5495   -2.7654   -0.8568 C   0  0  0  0  0  0  0  0  0  0  0  0
   -4.7036    0.6335    0.9816 H   0  0  0  0  0  0  0  0  0  0  0  0
   -5.9778    0.0521   -0.1113 H   0  0  0  0  0  0  0  0  0  0  0  0
   -4.5005   -0.9300    0.1166 H   0  0  0  0  0  0  0  0  0  0  0  0
   -5.8362    0.5377   -2.4814 H   0  0  0  0  0  0  0  0  0  0  0  0
   -4.1737    1.9485   -4.0958 H   0  0  0  0  0  0  0  0  0  0  0  0
   -1.9496    2.4495   -2.6290 H   0  0  0  0  0  0  0  0  0  0  0  0
   -2.4610    0.8405    0.9819 H   0  0  0  0  0  0  0  0  0  0  0  0
   -1.8650    2.3687    0.4005 H   0  0  0  0  0  0  0  0  0  0  0  0
    4.0077   -2.2300   -1.9586 H   0  0  0  0  0  0  0  0  0  0  0  0
    3.3457   -0.6351   -2.2739 H   0  0  0  0  0  0  0  0  0  0  0  0
    2.9925    0.7840   -0.4869 H   0  0  0  0  0  0  0  0  0  0  0  0
    2.9217    2.7726    0.5970 H   0  0  0  0  0  0  0  0  0  0  0  0
    3.7531    4.2786    2.3582 H   0  0  0  0  0  0  0  0  0  0  0  0
    5.5372    3.5203    3.9087 H   0  0  0  0  0  0  0  0  0  0  0  0
    6.4748    1.2311    3.6857 H   0  0  0  0  0  0  0  0  0  0  0  0
    5.6724   -0.2789    1.9332 H   0  0  0  0  0  0  0  0  0  0  0  0
   -1.5505   -0.9518    2.0505 H   0  0  0  0  0  0  0  0  0  0  0  0
   -2.9868   -2.8419    2.7535 H   0  0  0  0  0  0  0  0  0  0  0  0
   -2.5913   -4.6425   -1.1141 H   0  0  0  0  0  0  0  0  0  0  0  0
   -1.1744   -2.7649   -1.8783 H   0  0  0  0  0  0  0  0  0  0  0  0
  1  2  1  0
  2  3  1  0
  3  4  2  0
  4  5  1  0
  5  6  2  0
  6  7  1  0
  7  8  1  0
  8  9  2  0
  9 10  1  0
 10 11  2  0
 11 12  1  0
 12 13  1  0
 13 14  1  0
 14 15  2  0
 14 16  1  0
 16 17  1  0
 17 18  2  0
 18 19  1  0
 19 20  2  0
 20 21  1  0
 21 22  2  0
 11 23  1  0
 23 24  1  0
 24 25  2  0
 25 26  1  0
 26 27  2  0
 27 28  1  0
 27 29  1  0
 29 30  2  0
  6  2  1  0
 23  8  1  0
 30 24  1  0
 22 17  1  0
  1 31  1  0
  1 32  1  0
  1 33  1  0
  3 34  1  0
  4 35  1  0
  5 36  1  0
  7 37  1  0
  7 38  1  0
 13 39  1  0
 13 40  1  0
 16 41  1  0
 18 42  1  0
 19 43  1  0
 20 44  1  0
 21 45  1  0
 22 46  1  0
 25 47  1  0
 26 48  1  0
 29 49  1  0
 30 50  1  0
M  END
$$$$
