
     RDKit          3D

 69 73  0  0  0  0  0  0  0  0999 V2000
    4.8659   -2.5069   -3.6694 C   0  0  0  0  0  0  0  0  0  0  0  0
    4.1440   -3.1951   -2.6553 O   0  0  0  0  0  0  0  0  0  0  0  0
    3.6858   -2.4470   -1.6035 C   0  0  0  0  0  0  0  0  0  0  0  0
    3.0399   -3.1843   -0.6047 C   0  0  0  0  0  0  0  0  0  0  0  0
    2.5220   -2.5507    0.5247 C   0  0  0  0  0  0  0  0  0  0  0  0
    1.8745   -3.1611    1.5640 O   0  0  0  0  0  0  0  0  0  0  0  0
    1.6299   -4.5565    1.4368 C   0  0  0  0  0  0  0  0  0  0  0  0
    2.6556   -1.1670    0.6525 C   0  0  0  0  0  0  0  0  0  0  0  0
    3.2925   -0.4109   -0.3401 C   0  0  0  0  0  0  0  0  0  0  0  0
    3.3928    1.0496   -0.2074 C   0  0  0  0  0  0  0  0  0  0  0  0
    4.9496    1.7536   -0.1070 S   0  0  0  0  0  0  0  0  0  0  0  0
    4.3223    3.3436    0.0497 C   0  0  0  0  0  0  0  0  0  0  0  0
    5.0622    4.5338    0.1884 C   0  0  0  0  0  0  0  0  0  0  0  0
    4.3842    5.7531    0.3005 C   0  0  0  0  0  0  0  0  0  0  0  0
    2.9970    5.7956    0.2731 C   0  0  0  0  0  0  0  0  0  0  0  0
    2.2235    6.9200    0.3707 O   0  0  0  0  0  0  0  0  0  0  0  0
    2.9045    8.1609    0.5079 C   0  0  0  0  0  0  0  0  0  0  0  0
    2.2740    4.6045    0.1353 C   0  0  0  0  0  0  0  0  0  0  0  0
    2.9277    3.3486    0.0258 C   0  0  0  0  0  0  0  0  0  0  0  0
    2.3955    2.0104   -0.1183 C   0  0  0  0  0  0  0  0  0  0  0  0
    0.9798    1.6540   -0.1612 C   0  0  0  0  0  0  0  0  0  0  0  0
    0.4148    1.1133   -1.3215 C   0  0  0  0  0  0  0  0  0  0  0  0
   -0.9340    0.7409   -1.3447 C   0  0  0  0  0  0  0  0  0  0  0  0
   -1.7261    0.9081   -0.2087 C   0  0  0  0  0  0  0  0  0  0  0  0
   -3.0455    0.5703   -0.0950 O   0  0  0  0  0  0  0  0  0  0  0  0
   -3.6006   -0.2348   -1.1394 C   0  0  0  0  0  0  0  0  0  0  0  0
   -5.0090   -0.7028   -0.7256 C   0  0  0  0  0  0  0  0  0  0  0  0
   -5.0474   -1.9822    0.0142 N   0  0  0  0  0  0  0  0  0  0  0  0
   -4.3417   -1.9354    1.2960 C   0  0  0  0  0  0  0  0  0  0  0  0
   -4.2264   -3.3417    1.9021 C   0  0  0  0  0  0  0  0  0  0  0  0
   -5.4652   -4.2071    1.6763 C   0  0  0  0  0  0  0  0  0  0  0  0
   -6.6818   -3.3450    1.3846 C   0  0  0  0  0  0  0  0  0  0  0  0
   -6.4427   -2.4352    0.1730 C   0  0  0  0  0  0  0  0  0  0  0  0
   -1.1677    1.4737    0.9403 C   0  0  0  0  0  0  0  0  0  0  0  0
    0.1786    1.8437    0.9687 C   0  0  0  0  0  0  0  0  0  0  0  0
    3.8069   -1.0631   -1.4712 C   0  0  0  0  0  0  0  0  0  0  0  0
    5.7642   -2.0316   -3.2618 H   0  0  0  0  0  0  0  0  0  0  0  0
    5.1872   -3.2451   -4.4104 H   0  0  0  0  0  0  0  0  0  0  0  0
    4.2290   -1.7780   -4.1813 H   0  0  0  0  0  0  0  0  0  0  0  0
    2.9605   -4.2580   -0.7397 H   0  0  0  0  0  0  0  0  0  0  0  0
    2.5686   -5.1193    1.4024 H   0  0  0  0  0  0  0  0  0  0  0  0
    1.0799   -4.8823    2.3253 H   0  0  0  0  0  0  0  0  0  0  0  0
    1.0073   -4.7708    0.5621 H   0  0  0  0  0  0  0  0  0  0  0  0
    2.2498   -0.6782    1.5359 H   0  0  0  0  0  0  0  0  0  0  0  0
    6.1484    4.5080    0.2090 H   0  0  0  0  0  0  0  0  0  0  0  0
    4.9819    6.6528    0.4072 H   0  0  0  0  0  0  0  0  0  0  0  0
    2.1504    8.9513    0.5749 H   0  0  0  0  0  0  0  0  0  0  0  0
    3.4961    8.1867    1.4292 H   0  0  0  0  0  0  0  0  0  0  0  0
    3.5268    8.3679   -0.3693 H   0  0  0  0  0  0  0  0  0  0  0  0
    1.1870    4.6472    0.1099 H   0  0  0  0  0  0  0  0  0  0  0  0
    1.0207    0.9698   -2.2131 H   0  0  0  0  0  0  0  0  0  0  0  0
   -1.3324    0.3234   -2.2631 H   0  0  0  0  0  0  0  0  0  0  0  0
   -2.9669   -1.1033   -1.3592 H   0  0  0  0  0  0  0  0  0  0  0  0
   -3.6933    0.3824   -2.0413 H   0  0  0  0  0  0  0  0  0  0  0  0
   -5.5766   -0.8483   -1.6543 H   0  0  0  0  0  0  0  0  0  0  0  0
   -5.5082    0.0855   -0.1477 H   0  0  0  0  0  0  0  0  0  0  0  0
   -3.3200   -1.5629    1.1806 H   0  0  0  0  0  0  0  0  0  0  0  0
   -4.8517   -1.2607    1.9956 H   0  0  0  0  0  0  0  0  0  0  0  0
   -3.3554   -3.8613    1.4834 H   0  0  0  0  0  0  0  0  0  0  0  0
   -4.0389   -3.2422    2.9788 H   0  0  0  0  0  0  0  0  0  0  0  0
   -5.6430   -4.8443    2.5502 H   0  0  0  0  0  0  0  0  0  0  0  0
   -5.2876   -4.8806    0.8281 H   0  0  0  0  0  0  0  0  0  0  0  0
   -6.9073   -2.7309    2.2665 H   0  0  0  0  0  0  0  0  0  0  0  0
   -7.5586   -3.9771    1.2045 H   0  0  0  0  0  0  0  0  0  0  0  0
   -7.1343   -1.5858    0.2597 H   0  0  0  0  0  0  0  0  0  0  0  0
   -6.7212   -2.9771   -0.7398 H   0  0  0  0  0  0  0  0  0  0  0  0
   -1.7832    1.6141    1.8253 H   0  0  0  0  0  0  0  0  0  0  0  0
    0.5969    2.2649    1.8800 H   0  0  0  0  0  0  0  0  0  0  0  0
    4.2885   -0.4668   -2.2395 H   0  0  0  0  0  0  0  0  0  0  0  0
  1  2  1  0
  2  3  1  0
  3  4  2  0
  4  5  1  0
  5  6  1  0
  6  7  1  0
  5  8  2  0
  8  9  1  0
  9 10  1  0
 10 11  1  0
 11 12  1  0
 12 13  2  0
 13 14  1  0
 14 15  2  0
 15 16  1  0
 16 17  1  0
 15 18  1  0
 18 19  2  0
 19 20  1  0
 20 21  1  0
 21 22  2  0
 22 23  1  0
 23 24  2  0
 24 25  1  0
 25 26  1  0
 26 27  1  0
 27 28  1  0
 28 29  1  0
 29 30  1  0
 30 31  1  0
 31 32  1  0
 32 33  1  0
 24 34  1  0
 34 35  2  0
  9 36  2  0
 36  3  1  0
 20 10  2  0
 35 21  1  0
 19 12  1  0
 33 28  1  0
  1 37  1  0
  1 38  1  0
  1 39  1  0
  4 40  1  0
  7 41  1  0
  7 42  1  0
  7 43  1  0
  8 44  1  0
 13 45  1  0
 14 46  1  0
 17 47  1  0
 17 48  1  0
 17 49  1  0
 18 50  1  0
 22 51  1  0
 23 52  1  0
 26 53  1  0
 26 54  1  0
 27 55  1  0
 27 56  1  0
 29 57  1  0
 29 58  1  0
 30 59  1  0
 30 60  1  0
 31 61  1  0
 31 62  1  0
 32 63  1  0
 32 64  1  0
 33 65  1  0
 33 66  1  0
 34 67  1  0
 35 68  1  0
 36 69  1  0
M  END
$$$$
