
     RDKit          3D

 61 65  0  0  0  0  0  0  0  0999 V2000
    6.4354   -1.1781    4.6172 C   0  0  0  0  0  0  0  0  0  0  0  0
    5.4835   -0.2175    4.1785 O   0  0  0  0  0  0  0  0  0  0  0  0
    5.5092    0.1173    2.8529 C   0  0  0  0  0  0  0  0  0  0  0  0
    4.5225    1.0245    2.4620 C   0  0  0  0  0  0  0  0  0  0  0  0
    4.4288    1.4501    1.1351 C   0  0  0  0  0  0  0  0  0  0  0  0
    5.3293    0.9732    0.1737 C   0  0  0  0  0  0  0  0  0  0  0  0
    5.2153    1.4059   -1.2671 C   0  0  0  0  0  0  0  0  0  0  0  0
    4.4607    0.4473   -2.0469 N   0  0  0  0  0  0  0  0  0  0  0  0
    5.0886   -0.4798   -2.8131 N   0  0  0  0  0  0  0  0  0  0  0  0
    4.1500   -1.2236   -3.4001 N   0  0  0  0  0  0  0  0  0  0  0  0
    2.9423   -0.7386   -3.0025 C   0  0  0  0  0  0  0  0  0  0  0  0
    1.6050   -1.1674   -3.3080 C   0  0  0  0  0  0  0  0  0  0  0  0
    1.2976   -2.0979   -4.0447 O   0  0  0  0  0  0  0  0  0  0  0  0
    0.6460   -0.3969   -2.6585 N   0  0  0  0  0  0  0  0  0  0  0  0
    0.9389    0.6818   -1.8312 C   0  0  0  0  0  0  0  0  0  0  0  0
   -0.2398    1.3999   -1.1855 C   0  0  0  0  0  0  0  0  0  0  0  0
   -0.9483    0.4955   -0.1681 C   0  0  0  0  0  0  0  0  0  0  0  0
   -2.3123    0.0285   -0.6607 C   0  0  0  0  0  0  0  0  0  0  0  0
   -3.1903    1.1947   -0.9339 N   0  0  0  0  0  0  0  0  0  0  0  0
   -4.7316    0.8157   -1.5818 S   0  0  0  0  0  6  0  0  0  0  0  0
   -5.5068    2.0365   -1.6475 O   0  0  0  0  0  0  0  0  0  0  0  0
   -4.4974    0.0068   -2.7611 O   0  0  0  0  0  0  0  0  0  0  0  0
   -5.4501   -0.2030   -0.3208 C   0  0  0  0  0  0  0  0  0  0  0  0
   -5.7099   -1.5536   -0.5705 C   0  0  0  0  0  0  0  0  0  0  0  0
   -6.2639   -2.3415    0.4403 C   0  0  0  0  0  0  0  0  0  0  0  0
   -6.5527   -1.7877    1.6972 C   0  0  0  0  0  0  0  0  0  0  0  0
   -7.1778   -2.6333    2.7689 C   0  0  0  0  0  0  0  0  0  0  0  0
   -6.3090   -0.4240    1.9230 C   0  0  0  0  0  0  0  0  0  0  0  0
   -5.7564    0.3707    0.9177 C   0  0  0  0  0  0  0  0  0  0  0  0
   -2.5273    2.3593   -1.5872 C   0  0  0  0  0  0  0  0  0  0  0  0
   -1.2019    1.9740   -2.2276 C   0  0  0  0  0  0  0  0  0  0  0  0
    2.1498    1.0865   -1.5607 N   0  0  0  0  0  0  0  0  0  0  0  0
    3.1047    0.3355   -2.1621 C   0  0  0  0  0  0  0  0  0  0  0  0
    6.3162    0.0589    0.5690 C   0  0  0  0  0  0  0  0  0  0  0  0
    6.4079   -0.3626    1.9005 C   0  0  0  0  0  0  0  0  0  0  0  0
    7.4563   -0.8005    4.5023 H   0  0  0  0  0  0  0  0  0  0  0  0
    6.3048   -2.1322    4.0959 H   0  0  0  0  0  0  0  0  0  0  0  0
    6.2644   -1.3558    5.6836 H   0  0  0  0  0  0  0  0  0  0  0  0
    3.8152    1.3989    3.1984 H   0  0  0  0  0  0  0  0  0  0  0  0
    3.6396    2.1471    0.8585 H   0  0  0  0  0  0  0  0  0  0  0  0
    6.2073    1.5159   -1.7203 H   0  0  0  0  0  0  0  0  0  0  0  0
    4.7155    2.3777   -1.3513 H   0  0  0  0  0  0  0  0  0  0  0  0
   -0.3041   -0.6670   -2.8645 H   0  0  0  0  0  0  0  0  0  0  0  0
    0.1842    2.2434   -0.6218 H   0  0  0  0  0  0  0  0  0  0  0  0
   -0.3323   -0.3730    0.0913 H   0  0  0  0  0  0  0  0  0  0  0  0
   -1.0897    1.0606    0.7623 H   0  0  0  0  0  0  0  0  0  0  0  0
   -2.2003   -0.5873   -1.5588 H   0  0  0  0  0  0  0  0  0  0  0  0
   -2.7617   -0.5909    0.1221 H   0  0  0  0  0  0  0  0  0  0  0  0
   -5.4919   -1.9975   -1.5404 H   0  0  0  0  0  0  0  0  0  0  0  0
   -6.4724   -3.3924    0.2414 H   0  0  0  0  0  0  0  0  0  0  0  0
   -8.2676   -2.6137    2.6751 H   0  0  0  0  0  0  0  0  0  0  0  0
   -6.9023   -2.2682    3.7630 H   0  0  0  0  0  0  0  0  0  0  0  0
   -6.8333   -3.6701    2.6974 H   0  0  0  0  0  0  0  0  0  0  0  0
   -6.5510    0.0271    2.8842 H   0  0  0  0  0  0  0  0  0  0  0  0
   -5.5704    1.4288    1.1002 H   0  0  0  0  0  0  0  0  0  0  0  0
   -2.3716    3.1272   -0.8200 H   0  0  0  0  0  0  0  0  0  0  0  0
   -3.1676    2.8089   -2.3531 H   0  0  0  0  0  0  0  0  0  0  0  0
   -0.7463    2.8543   -2.6962 H   0  0  0  0  0  0  0  0  0  0  0  0
   -1.3885    1.2628   -3.0403 H   0  0  0  0  0  0  0  0  0  0  0  0
    7.0177   -0.3423   -0.1623 H   0  0  0  0  0  0  0  0  0  0  0  0
    7.1894   -1.0692    2.1569 H   0  0  0  0  0  0  0  0  0  0  0  0
  1  2  1  0
  2  3  1  0
  3  4  2  0
  4  5  1  0
  5  6  2  0
  6  7  1  0
  7  8  1  0
  8  9  1  0
  9 10  2  0
 10 11  1  0
 11 12  1  0
 12 13  2  0
 12 14  1  0
 14 15  1  0
 15 16  1  0
 16 17  1  0
 17 18  1  0
 18 19  1  0
 19 20  1  0
 20 21  2  0
 20 22  2  0
 20 23  1  0
 23 24  2  0
 24 25  1  0
 25 26  2  0
 26 27  1  0
 26 28  1  0
 28 29  2  0
 19 30  1  0
 30 31  1  0
 15 32  2  0
 32 33  1  0
  6 34  1  0
 34 35  2  0
 35  3  1  0
 33  8  1  0
 33 11  2  0
 31 16  1  0
 29 23  1  0
  1 36  1  0
  1 37  1  0
  1 38  1  0
  4 39  1  0
  5 40  1  0
  7 41  1  0
  7 42  1  0
 14 43  1  0
 16 44  1  0
 17 45  1  0
 17 46  1  0
 18 47  1  0
 18 48  1  0
 24 49  1  0
 25 50  1  0
 27 51  1  0
 27 52  1  0
 27 53  1  0
 28 54  1  0
 29 55  1  0
 30 56  1  0
 30 57  1  0
 31 58  1  0
 31 59  1  0
 34 60  1  0
 35 61  1  0
M  END
$$$$
