
     RDKit          3D

 36 38  0  0  0  0  0  0  0  0999 V2000
   -5.8436   -0.5831   -1.2336 C   0  0  0  0  0  0  0  0  0  0  0  0
   -5.2820   -0.4295    0.1075 N   0  0  0  0  0  0  0  0  0  0  0  0
   -6.1223    0.2909    1.0628 C   0  0  0  0  0  0  0  0  0  0  0  0
   -3.8905   -0.3775    0.2568 C   0  0  0  0  0  0  0  0  0  0  0  0
   -3.2808    0.0427    1.4515 C   0  0  0  0  0  0  0  0  0  0  0  0
   -1.8863    0.0823    1.6116 C   0  0  0  0  0  0  0  0  0  0  0  0
   -1.0385   -0.2994    0.5733 C   0  0  0  0  0  0  0  0  0  0  0  0
    0.4157   -0.2736    0.7861 C   0  0  0  0  0  0  0  0  0  0  0  0
    1.2893    0.1153   -0.1573 C   0  0  0  0  0  0  0  0  0  0  0  0
    2.7089    0.1649   -0.0021 C   0  0  0  0  0  0  0  0  0  0  0  0
    3.5239    0.5600   -0.9622 N   0  0  0  0  0  0  0  0  0  0  0  0
    4.8446    0.5121   -0.5519 C   0  0  0  0  0  0  0  0  0  0  0  0
    5.9659    0.8664   -1.3293 C   0  0  0  0  0  0  0  0  0  0  0  0
    7.2501    0.7681   -0.7835 C   0  0  0  0  0  0  0  0  0  0  0  0
    7.4273    0.3225    0.5224 C   0  0  0  0  0  0  0  0  0  0  0  0
    6.3302   -0.0346    1.3128 C   0  0  0  0  0  0  0  0  0  0  0  0
    5.0458    0.0689    0.7527 C   0  0  0  0  0  0  0  0  0  0  0  0
    3.5221   -0.2891    1.4576 S   0  0  0  0  0  0  0  0  0  0  0  0
   -1.6161   -0.7532   -0.6115 C   0  0  0  0  0  0  0  0  0  0  0  0
   -3.0122   -0.7898   -0.7604 C   0  0  0  0  0  0  0  0  0  0  0  0
   -6.9390   -0.5984   -1.2062 H   0  0  0  0  0  0  0  0  0  0  0  0
   -5.5430   -1.5356   -1.6830 H   0  0  0  0  0  0  0  0  0  0  0  0
   -5.5411    0.2443   -1.8849 H   0  0  0  0  0  0  0  0  0  0  0  0
   -6.0014   -0.1066    2.0762 H   0  0  0  0  0  0  0  0  0  0  0  0
   -5.8959    1.3628    1.0570 H   0  0  0  0  0  0  0  0  0  0  0  0
   -7.1853    0.1765    0.8220 H   0  0  0  0  0  0  0  0  0  0  0  0
   -3.8769    0.3509    2.3047 H   0  0  0  0  0  0  0  0  0  0  0  0
   -1.4794    0.4218    2.5614 H   0  0  0  0  0  0  0  0  0  0  0  0
    0.7338   -0.5766    1.7797 H   0  0  0  0  0  0  0  0  0  0  0  0
    0.9292    0.4383   -1.1307 H   0  0  0  0  0  0  0  0  0  0  0  0
    5.8215    1.2134   -2.3476 H   0  0  0  0  0  0  0  0  0  0  0  0
    8.1125    1.0423   -1.3865 H   0  0  0  0  0  0  0  0  0  0  0  0
    8.4313    0.2502    0.9357 H   0  0  0  0  0  0  0  0  0  0  0  0
    6.4691   -0.3824    2.3318 H   0  0  0  0  0  0  0  0  0  0  0  0
   -0.9976   -1.1015   -1.4351 H   0  0  0  0  0  0  0  0  0  0  0  0
   -3.3896   -1.1640   -1.7070 H   0  0  0  0  0  0  0  0  0  0  0  0
  1  2  1  0
  2  3  1  0
  2  4  1  0
  4  5  2  0
  5  6  1  0
  6  7  2  0
  7  8  1  0
  8  9  2  3
  9 10  1  0
 10 11  2  0
 11 12  1  0
 12 13  2  0
 13 14  1  0
 14 15  2  0
 15 16  1  0
 16 17  2  0
 17 18  1  0
  7 19  1  0
 19 20  2  0
 20  4  1  0
 18 10  1  0
 17 12  1  0
  1 21  1  0
  1 22  1  0
  1 23  1  0
  3 24  1  0
  3 25  1  0
  3 26  1  0
  5 27  1  0
  6 28  1  0
  8 29  1  0
  9 30  1  0
 13 31  1  0
 14 32  1  0
 15 33  1  0
 16 34  1  0
 19 35  1  0
 20 36  1  0
M  END
$$$$
