
     RDKit          3D

 34 36  0  0  0  0  0  0  0  0999 V2000
    5.2603    0.2243   -1.7971 C   0  0  0  0  0  0  0  0  0  0  0  0
    4.6431    0.5237   -0.5270 N   0  0  0  0  0  0  0  0  0  0  0  0
    5.2674    0.9407    0.6071 C   0  0  0  0  0  0  0  0  0  0  0  0
    4.2712    1.0853    1.5383 C   0  0  0  0  0  0  0  0  0  0  0  0
    4.5069    1.6362    3.3112 Br  0  0  0  0  0  0  0  0  0  0  0  0
    3.0617    0.7360    0.8908 C   0  0  0  0  0  0  0  0  0  0  0  0
    1.6824    0.7095    1.4221 C   0  0  0  0  0  0  0  0  0  0  0  0
    1.4284    1.0349    2.5755 O   0  0  0  0  0  0  0  0  0  0  0  0
    0.7828    0.2879    0.4588 N   0  0  0  0  0  0  0  0  0  0  0  0
   -0.5863    0.1165    0.5705 C   0  0  0  0  0  0  0  0  0  0  0  0
   -1.3915    0.4150    2.0544 S   0  0  0  0  0  0  0  0  0  0  0  0
   -2.8512   -0.0270    1.3891 C   0  0  0  0  0  0  0  0  0  0  0  0
   -2.7805   -0.3864    0.0720 C   0  0  0  0  0  0  0  0  0  0  0  0
   -1.4531   -0.2968   -0.4487 C   0  0  0  0  0  0  0  0  0  0  0  0
   -0.9868   -0.5906   -1.8017 C   0  0  0  0  0  0  0  0  0  0  0  0
   -1.9435   -0.6783   -2.7725 N   0  0  0  0  0  0  0  0  0  0  0  0
    0.1974   -0.7181   -2.0994 O   0  0  0  0  0  0  0  0  0  0  0  0
   -4.1240   -0.7905   -0.4240 C   0  0  0  0  0  0  0  0  0  0  0  0
   -4.9399   -0.9556    0.8955 C   0  0  0  0  0  0  0  0  0  0  0  0
   -4.2054   -0.1157    1.9809 C   0  0  0  0  0  0  0  0  0  0  0  0
    3.3107    0.3930   -0.3961 N   0  0  0  0  0  0  0  0  0  0  0  0
    6.3390    0.3829   -1.7238 H   0  0  0  0  0  0  0  0  0  0  0  0
    5.0520   -0.8199   -2.0433 H   0  0  0  0  0  0  0  0  0  0  0  0
    4.8351    0.8905   -2.5519 H   0  0  0  0  0  0  0  0  0  0  0  0
    6.3359    1.0941    0.6590 H   0  0  0  0  0  0  0  0  0  0  0  0
    1.2036    0.0588   -0.4464 H   0  0  0  0  0  0  0  0  0  0  0  0
   -1.5963   -0.7311   -3.7206 H   0  0  0  0  0  0  0  0  0  0  0  0
   -2.8600   -0.2835   -2.6328 H   0  0  0  0  0  0  0  0  0  0  0  0
   -4.5591    0.0033   -1.0403 H   0  0  0  0  0  0  0  0  0  0  0  0
   -4.1049   -1.7253   -0.9910 H   0  0  0  0  0  0  0  0  0  0  0  0
   -4.9266   -2.0129    1.1922 H   0  0  0  0  0  0  0  0  0  0  0  0
   -5.9871   -0.6607    0.7773 H   0  0  0  0  0  0  0  0  0  0  0  0
   -4.2248   -0.6179    2.9519 H   0  0  0  0  0  0  0  0  0  0  0  0
   -4.6570    0.8776    2.0701 H   0  0  0  0  0  0  0  0  0  0  0  0
  1  2  1  0
  2  3  1  0
  3  4  2  0
  4  5  1  0
  4  6  1  0
  6  7  1  0
  7  8  2  0
  7  9  1  0
  9 10  1  0
 10 11  1  0
 11 12  1  0
 12 13  2  0
 13 14  1  0
 14 15  1  0
 15 16  1  0
 15 17  2  0
 13 18  1  0
 18 19  1  0
 19 20  1  0
  6 21  2  0
 21  2  1  0
 14 10  2  0
 20 12  1  0
  1 22  1  0
  1 23  1  0
  1 24  1  0
  3 25  1  0
  9 26  1  0
 16 27  1  0
 16 28  1  0
 18 29  1  0
 18 30  1  0
 19 31  1  0
 19 32  1  0
 20 33  1  0
 20 34  1  0
M  END
$$$$
