
     RDKit          3D

 44 47  0  0  0  0  0  0  0  0999 V2000
   -5.6281   -3.1870    1.8642 C   0  0  0  0  0  0  0  0  0  0  0  0
   -4.3792   -2.9326    1.0392 C   0  0  0  0  0  0  0  0  0  0  0  0
   -4.3431   -1.5460    0.7142 O   0  0  0  0  0  0  0  0  0  0  0  0
   -3.2416   -1.0756    0.0436 C   0  0  0  0  0  0  0  0  0  0  0  0
   -2.2287   -1.8855   -0.4781 C   0  0  0  0  0  0  0  0  0  0  0  0
   -1.1452   -1.3174   -1.1539 C   0  0  0  0  0  0  0  0  0  0  0  0
   -1.0562    0.0673   -1.3077 C   0  0  0  0  0  0  0  0  0  0  0  0
    0.0509    0.6854   -2.0444 C   0  0  0  0  0  0  0  0  0  0  0  0
    1.3505    0.6565   -1.7112 C   0  0  0  0  0  0  0  0  0  0  0  0
    2.5648    1.4673   -2.7058 S   0  0  0  0  0  0  0  0  0  0  0  0
    3.7864    0.9689   -1.6143 C   0  0  0  0  0  0  0  0  0  0  0  0
    5.0772    1.1170   -1.5425 N   0  0  0  0  0  0  0  0  0  0  0  0
    5.3669    0.4253   -0.3736 C   0  0  0  0  0  0  0  0  0  0  0  0
    6.8259    0.2993    0.1742 C   0  0  0  0  0  0  0  0  0  0  0  0
    7.9514    0.8409   -0.4171 C   0  0  0  0  0  0  0  0  0  0  0  0
    9.0517    0.4901    0.4023 C   0  0  0  0  0  0  0  0  0  0  0  0
    8.5322   -0.2432    1.4423 C   0  0  0  0  0  0  0  0  0  0  0  0
    7.1866   -0.3647    1.3139 O   0  0  0  0  0  0  0  0  0  0  0  0
    4.3034   -0.1253    0.2462 N   0  0  0  0  0  0  0  0  0  0  0  0
    3.3123    0.2483   -0.5798 N   0  0  0  0  0  0  0  0  0  0  0  0
    1.9580   -0.0041   -0.5069 C   0  0  0  0  0  0  0  0  0  0  0  0
    1.4453   -0.6470    0.3887 O   0  0  0  0  0  0  0  0  0  0  0  0
   -2.0763    0.8821   -0.7993 C   0  0  0  0  0  0  0  0  0  0  0  0
   -3.1662    0.3218   -0.1208 C   0  0  0  0  0  0  0  0  0  0  0  0
   -4.2068    1.0461    0.4071 O   0  0  0  0  0  0  0  0  0  0  0  0
   -4.1093    2.4667    0.3893 C   0  0  0  0  0  0  0  0  0  0  0  0
   -5.3223    3.0280    1.1094 C   0  0  0  0  0  0  0  0  0  0  0  0
   -5.6164   -2.5829    2.7775 H   0  0  0  0  0  0  0  0  0  0  0  0
   -6.5249   -2.9010    1.3045 H   0  0  0  0  0  0  0  0  0  0  0  0
   -5.7052   -4.2425    2.1397 H   0  0  0  0  0  0  0  0  0  0  0  0
   -4.4274   -3.5344    0.1246 H   0  0  0  0  0  0  0  0  0  0  0  0
   -3.4986   -3.2118    1.6293 H   0  0  0  0  0  0  0  0  0  0  0  0
   -2.2515   -2.9654   -0.3781 H   0  0  0  0  0  0  0  0  0  0  0  0
   -0.3733   -1.9734   -1.5496 H   0  0  0  0  0  0  0  0  0  0  0  0
   -0.2679    1.2259   -2.9351 H   0  0  0  0  0  0  0  0  0  0  0  0
    7.9661    1.4190   -1.3310 H   0  0  0  0  0  0  0  0  0  0  0  0
   10.0929    0.7400    0.2543 H   0  0  0  0  0  0  0  0  0  0  0  0
    8.9625   -0.7248    2.3096 H   0  0  0  0  0  0  0  0  0  0  0  0
   -2.0037    1.9549   -0.9435 H   0  0  0  0  0  0  0  0  0  0  0  0
   -3.2018    2.7955    0.9089 H   0  0  0  0  0  0  0  0  0  0  0  0
   -4.1067    2.8329   -0.6436 H   0  0  0  0  0  0  0  0  0  0  0  0
   -5.3613    2.6627    2.1410 H   0  0  0  0  0  0  0  0  0  0  0  0
   -5.2969    4.1212    1.1223 H   0  0  0  0  0  0  0  0  0  0  0  0
   -6.2462    2.7014    0.6206 H   0  0  0  0  0  0  0  0  0  0  0  0
  1  2  1  0
  2  3  1  0
  3  4  1  0
  4  5  2  0
  5  6  1  0
  6  7  2  0
  7  8  1  0
  8  9  2  3
  9 10  1  0
 10 11  1  0
 11 12  2  0
 12 13  1  0
 13 14  1  0
 14 15  2  0
 15 16  1  0
 16 17  2  0
 17 18  1  0
 13 19  2  0
 19 20  1  0
 20 21  1  0
 21 22  2  0
  7 23  1  0
 23 24  2  0
 24 25  1  0
 25 26  1  0
 26 27  1  0
 24  4  1  0
 21  9  1  0
 20 11  1  0
 18 14  1  0
  1 28  1  0
  1 29  1  0
  1 30  1  0
  2 31  1  0
  2 32  1  0
  5 33  1  0
  6 34  1  0
  8 35  1  0
 15 36  1  0
 16 37  1  0
 17 38  1  0
 23 39  1  0
 26 40  1  0
 26 41  1  0
 27 42  1  0
 27 43  1  0
 27 44  1  0
M  END
$$$$
