
     RDKit          3D

 45 49  0  0  0  0  0  0  0  0999 V2000
    7.4143    0.8642    1.9867 Cl  0  0  0  0  0  0  0  0  0  0  0  0
    6.3653    0.6966    0.6310 C   0  0  0  0  0  0  0  0  0  0  0  0
    6.8813    0.8041   -0.6539 C   0  0  0  0  0  0  0  0  0  0  0  0
    6.0260    0.6588   -1.7392 C   0  0  0  0  0  0  0  0  0  0  0  0
    4.6634    0.4092   -1.5297 C   0  0  0  0  0  0  0  0  0  0  0  0
    4.1121    0.3026   -0.2411 C   0  0  0  0  0  0  0  0  0  0  0  0
    2.7651    0.0499   -0.0343 N   0  0  0  0  0  0  0  0  0  0  0  0
    2.0927    0.4977    1.2022 C   0  0  0  0  0  0  0  0  0  0  0  0
    0.6074    0.8347    0.9590 C   0  0  0  0  0  0  0  0  0  0  0  0
   -0.1340   -0.3052    0.3874 N   0  0  0  0  0  0  0  0  0  0  0  0
   -1.5233   -0.2451    0.3268 C   0  0  0  0  0  0  0  0  0  0  0  0
   -2.0954    0.9227    0.4934 N   0  0  0  0  0  0  0  0  0  0  0  0
   -3.4930    1.0633    0.4041 C   0  0  0  0  0  0  0  0  0  0  0  0
   -4.0436    2.3352    0.5737 C   0  0  0  0  0  0  0  0  0  0  0  0
   -5.4239    2.5336    0.4830 C   0  0  0  0  0  0  0  0  0  0  0  0
   -6.2698    1.4558    0.2198 C   0  0  0  0  0  0  0  0  0  0  0  0
   -5.7413    0.1759    0.0473 C   0  0  0  0  0  0  0  0  0  0  0  0
   -4.3581   -0.0064    0.1405 C   0  0  0  0  0  0  0  0  0  0  0  0
   -3.7436   -1.2605   -0.0048 N   0  0  0  0  0  0  0  0  0  0  0  0
   -4.3153   -2.4889   -0.2379 C   0  0  0  0  0  0  0  0  0  0  0  0
   -3.3174   -3.4379   -0.2233 C   0  0  0  0  0  0  0  0  0  0  0  0
   -2.0990   -2.7590    0.0100 C   0  0  0  0  0  0  0  0  0  0  0  0
   -2.3760   -1.4053    0.1010 C   0  0  0  0  0  0  0  0  0  0  0  0
    0.6373   -1.1459   -0.5436 C   0  0  0  0  0  0  0  0  0  0  0  0
    1.8844   -0.4318   -1.1109 C   0  0  0  0  0  0  0  0  0  0  0  0
    5.0039    0.4488    0.8347 C   0  0  0  0  0  0  0  0  0  0  0  0
    7.9378    0.9973   -0.8142 H   0  0  0  0  0  0  0  0  0  0  0  0
    6.4115    0.7423   -2.7521 H   0  0  0  0  0  0  0  0  0  0  0  0
    4.0329    0.3228   -2.4106 H   0  0  0  0  0  0  0  0  0  0  0  0
    2.5701    1.3987    1.6060 H   0  0  0  0  0  0  0  0  0  0  0  0
    2.1724   -0.2975    1.9532 H   0  0  0  0  0  0  0  0  0  0  0  0
    0.5344    1.6932    0.2793 H   0  0  0  0  0  0  0  0  0  0  0  0
    0.1597    1.1248    1.9172 H   0  0  0  0  0  0  0  0  0  0  0  0
   -3.3868    3.1770    0.7766 H   0  0  0  0  0  0  0  0  0  0  0  0
   -5.8363    3.5302    0.6177 H   0  0  0  0  0  0  0  0  0  0  0  0
   -7.3434    1.6144    0.1509 H   0  0  0  0  0  0  0  0  0  0  0  0
   -6.4194   -0.6467   -0.1531 H   0  0  0  0  0  0  0  0  0  0  0  0
   -5.3804   -2.6054   -0.3753 H   0  0  0  0  0  0  0  0  0  0  0  0
   -3.4556   -4.5037   -0.3531 H   0  0  0  0  0  0  0  0  0  0  0  0
   -1.1253   -3.2186    0.1049 H   0  0  0  0  0  0  0  0  0  0  0  0
    0.9547   -2.0485   -0.0084 H   0  0  0  0  0  0  0  0  0  0  0  0
    0.0189   -1.4559   -1.3936 H   0  0  0  0  0  0  0  0  0  0  0  0
    1.5757    0.4159   -1.7351 H   0  0  0  0  0  0  0  0  0  0  0  0
    2.4099   -1.1528   -1.7485 H   0  0  0  0  0  0  0  0  0  0  0  0
    4.6496    0.3454    1.8562 H   0  0  0  0  0  0  0  0  0  0  0  0
  1  2  1  0
  2  3  2  0
  3  4  1  0
  4  5  2  0
  5  6  1  0
  6  7  1  0
  7  8  1  0
  8  9  1  0
  9 10  1  0
 10 11  1  0
 11 12  2  0
 12 13  1  0
 13 14  2  0
 14 15  1  0
 15 16  2  0
 16 17  1  0
 17 18  2  0
 18 19  1  0
 19 20  1  0
 20 21  2  0
 21 22  1  0
 22 23  2  0
 10 24  1  0
 24 25  1  0
  6 26  2  0
 26  2  1  0
 25  7  1  0
 23 11  1  0
 18 13  1  0
 23 19  1  0
  3 27  1  0
  4 28  1  0
  5 29  1  0
  8 30  1  0
  8 31  1  0
  9 32  1  0
  9 33  1  0
 14 34  1  0
 15 35  1  0
 16 36  1  0
 17 37  1  0
 20 38  1  0
 21 39  1  0
 22 40  1  0
 24 41  1  0
 24 42  1  0
 25 43  1  0
 25 44  1  0
 26 45  1  0
M  END
$$$$
