
     RDKit          3D

 59 64  0  0  0  0  0  0  0  0999 V2000
   -0.7804   -0.5249    2.0069 C   0  0  0  0  0  0  0  0  0  0  0  0
   -1.8696    0.4821    2.0771 C   0  0  0  0  0  0  0  0  0  0  0  0
   -1.7818    1.6253    2.7322 N   0  0  0  0  0  0  0  0  0  0  0  0
   -2.9777    2.2632    2.5404 C   0  0  0  0  0  0  0  0  0  0  0  0
   -3.4076    3.5112    3.0205 C   0  0  0  0  0  0  0  0  0  0  0  0
   -4.6928    3.9544    2.6880 C   0  0  0  0  0  0  0  0  0  0  0  0
   -5.5328    3.1708    1.8923 C   0  0  0  0  0  0  0  0  0  0  0  0
   -5.1196    1.9237    1.4043 C   0  0  0  0  0  0  0  0  0  0  0  0
   -3.8307    1.4968    1.7514 C   0  0  0  0  0  0  0  0  0  0  0  0
   -3.1043    0.3551    1.4714 N   0  0  0  0  0  0  0  0  0  0  0  0
   -3.6231   -0.7903    0.7386 C   0  0  0  0  0  0  0  0  0  0  0  0
   -3.6363   -0.6052   -0.7802 C   0  0  0  0  0  0  0  0  0  0  0  0
   -2.3707   -0.9665   -1.4741 C   0  0  0  0  0  0  0  0  0  0  0  0
   -2.1086   -0.5174   -2.7490 N   0  0  0  0  0  0  0  0  0  0  0  0
   -0.9591   -1.0931   -3.0333 C   0  0  0  0  0  0  0  0  0  0  0  0
   -0.1285   -1.0715   -4.2189 C   0  0  0  0  0  0  0  0  0  0  0  0
   -0.4648   -0.3471   -5.3643 C   0  0  0  0  0  0  0  0  0  0  0  0
    0.3763   -0.3932   -6.4762 C   0  0  0  0  0  0  0  0  0  0  0  0
    1.5472   -1.1562   -6.4401 C   0  0  0  0  0  0  0  0  0  0  0  0
    1.8807   -1.8809   -5.2925 C   0  0  0  0  0  0  0  0  0  0  0  0
    1.0503   -1.8508   -4.1730 C   0  0  0  0  0  0  0  0  0  0  0  0
    1.4220   -2.6092   -3.0301 N   0  0  0  0  0  0  0  0  0  0  0  0
    0.6453   -2.5857   -1.9781 C   0  0  0  0  0  0  0  0  0  0  0  0
    1.1507   -3.4985   -0.5583 S   0  0  0  0  0  0  0  0  0  0  0  0
    2.7509   -2.6789   -0.2905 C   0  0  0  0  0  0  0  0  0  0  0  0
    2.5677   -1.2011    0.0317 C   0  0  0  0  0  0  0  0  0  0  0  0
    1.8205   -0.4611   -0.6048 O   0  0  0  0  0  0  0  0  0  0  0  0
    3.3231   -0.7476    1.0885 N   0  0  0  0  0  0  0  0  0  0  0  0
    3.2589    0.6376    1.5008 C   0  0  0  0  0  0  0  0  0  0  0  0
    4.3902    0.9134    2.4187 C   0  0  0  0  0  0  0  0  0  0  0  0
    4.4741    1.1935    3.7728 C   0  0  0  0  0  0  0  0  0  0  0  0
    5.8538    1.3564    4.0574 C   0  0  0  0  0  0  0  0  0  0  0  0
    6.5196    1.1810    2.8614 C   0  0  0  0  0  0  0  0  0  0  0  0
    5.6412    0.9035    1.8644 O   0  0  0  0  0  0  0  0  0  0  0  0
   -0.5508   -1.8548   -1.9732 N   0  0  0  0  0  0  0  0  0  0  0  0
   -1.4765   -1.8330   -0.9798 N   0  0  0  0  0  0  0  0  0  0  0  0
   -0.2552   -0.4292    1.0594 H   0  0  0  0  0  0  0  0  0  0  0  0
   -1.1461   -1.5459    2.1208 H   0  0  0  0  0  0  0  0  0  0  0  0
   -0.0524   -0.3471    2.8065 H   0  0  0  0  0  0  0  0  0  0  0  0
   -2.7435    4.1163    3.6354 H   0  0  0  0  0  0  0  0  0  0  0  0
   -5.0365    4.9209    3.0550 H   0  0  0  0  0  0  0  0  0  0  0  0
   -6.5266    3.5386    1.6426 H   0  0  0  0  0  0  0  0  0  0  0  0
   -5.7778    1.3273    0.7833 H   0  0  0  0  0  0  0  0  0  0  0  0
   -3.0882   -1.6901    1.0538 H   0  0  0  0  0  0  0  0  0  0  0  0
   -4.6579   -0.9225    1.0879 H   0  0  0  0  0  0  0  0  0  0  0  0
   -3.9051    0.4288   -1.0454 H   0  0  0  0  0  0  0  0  0  0  0  0
   -4.4280   -1.2495   -1.1989 H   0  0  0  0  0  0  0  0  0  0  0  0
   -1.3789    0.2417   -5.3973 H   0  0  0  0  0  0  0  0  0  0  0  0
    0.1182    0.1651   -7.3747 H   0  0  0  0  0  0  0  0  0  0  0  0
    2.1999   -1.1900   -7.3077 H   0  0  0  0  0  0  0  0  0  0  0  0
    2.7894   -2.4759   -5.2692 H   0  0  0  0  0  0  0  0  0  0  0  0
    3.2478   -3.1883    0.5412 H   0  0  0  0  0  0  0  0  0  0  0  0
    3.3951   -2.7699   -1.1691 H   0  0  0  0  0  0  0  0  0  0  0  0
    3.8736   -1.3848    1.6495 H   0  0  0  0  0  0  0  0  0  0  0  0
    2.2971    0.8024    1.9935 H   0  0  0  0  0  0  0  0  0  0  0  0
    3.3050    1.2860    0.6178 H   0  0  0  0  0  0  0  0  0  0  0  0
    3.6424    1.2669    4.4695 H   0  0  0  0  0  0  0  0  0  0  0  0
    6.3069    1.5832    5.0138 H   0  0  0  0  0  0  0  0  0  0  0  0
    7.5637    1.2150    2.5676 H   0  0  0  0  0  0  0  0  0  0  0  0
  1  2  1  0
  2  3  2  0
  3  4  1  0
  4  5  2  0
  5  6  1  0
  6  7  2  0
  7  8  1  0
  8  9  2  0
  9 10  1  0
 10 11  1  0
 11 12  1  0
 12 13  1  0
 13 14  1  0
 14 15  2  0
 15 16  1  0
 16 17  2  0
 17 18  1  0
 18 19  2  0
 19 20  1  0
 20 21  2  0
 21 22  1  0
 22 23  2  0
 23 24  1  0
 24 25  1  0
 25 26  1  0
 26 27  2  0
 26 28  1  0
 28 29  1  0
 29 30  1  0
 30 31  2  0
 31 32  1  0
 32 33  2  0
 33 34  1  0
 23 35  1  0
 35 36  1  0
 10  2  1  0
 36 13  2  0
  9  4  1  0
 35 15  1  0
 21 16  1  0
 34 30  1  0
  1 37  1  0
  1 38  1  0
  1 39  1  0
  5 40  1  0
  6 41  1  0
  7 42  1  0
  8 43  1  0
 11 44  1  0
 11 45  1  0
 12 46  1  0
 12 47  1  0
 17 48  1  0
 18 49  1  0
 19 50  1  0
 20 51  1  0
 25 52  1  0
 25 53  1  0
 28 54  1  0
 29 55  1  0
 29 56  1  0
 31 57  1  0
 32 58  1  0
 33 59  1  0
M  END
$$$$
