
     RDKit          3D

 48 51  0  0  0  0  0  0  0  0999 V2000
    1.6642   -1.6302    3.1843 C   0  0  0  0  0  0  0  0  0  0  0  0
    1.7747   -0.5699    2.1366 C   0  0  0  0  0  0  0  0  0  0  0  0
    0.7991    0.1729    1.5882 C   0  0  0  0  0  0  0  0  0  0  0  0
   -0.5448    0.3198    1.7902 N   0  0  0  0  0  0  0  0  0  0  0  0
   -1.3333   -0.1060    2.8294 C   0  0  0  0  0  0  0  0  0  0  0  0
   -0.9129   -0.6725    3.8381 O   0  0  0  0  0  0  0  0  0  0  0  0
   -2.8228    0.2089    2.7260 C   0  0  0  0  0  0  0  0  0  0  0  0
   -3.3329    1.1492    1.2501 S   0  0  0  0  0  0  0  0  0  0  0  0
   -3.5215   -0.1830    0.0587 C   0  0  0  0  0  0  0  0  0  0  0  0
   -2.7160   -1.2426    0.2636 N   0  0  0  0  0  0  0  0  0  0  0  0
   -2.8139   -2.2326   -0.6263 C   0  0  0  0  0  0  0  0  0  0  0  0
   -3.6366   -2.2642   -1.6803 N   0  0  0  0  0  0  0  0  0  0  0  0
   -4.4228   -1.2007   -1.8704 C   0  0  0  0  0  0  0  0  0  0  0  0
   -5.2837   -1.2043   -2.9610 C   0  0  0  0  0  0  0  0  0  0  0  0
   -6.1388   -0.1341   -3.2334 C   0  0  0  0  0  0  0  0  0  0  0  0
   -6.1391    0.9748   -2.4000 C   0  0  0  0  0  0  0  0  0  0  0  0
   -5.2879    1.0025   -1.2991 C   0  0  0  0  0  0  0  0  0  0  0  0
   -4.4181   -0.0875   -1.0188 C   0  0  0  0  0  0  0  0  0  0  0  0
    1.4596    0.9630    0.4990 C   0  0  0  0  0  0  0  0  0  0  0  0
    0.8275    1.7018   -0.2436 O   0  0  0  0  0  0  0  0  0  0  0  0
    2.8129    0.6207    0.5181 N   0  0  0  0  0  0  0  0  0  0  0  0
    3.7241    0.7599   -0.5602 C   0  0  0  0  0  0  0  0  0  0  0  0
    4.8342   -0.0882   -0.6908 C   0  0  0  0  0  0  0  0  0  0  0  0
    5.7362    0.0583   -1.7497 C   0  0  0  0  0  0  0  0  0  0  0  0
    5.5398    1.0556   -2.6994 C   0  0  0  0  0  0  0  0  0  0  0  0
    4.4385    1.8985   -2.5942 C   0  0  0  0  0  0  0  0  0  0  0  0
    3.5376    1.7494   -1.5347 C   0  0  0  0  0  0  0  0  0  0  0  0
    3.0434   -0.3009    1.5808 N   0  0  0  0  0  0  0  0  0  0  0  0
    4.0962    0.1432    2.5171 C   0  0  0  0  0  0  0  0  0  0  0  0
    1.7359   -1.1955    4.1852 H   0  0  0  0  0  0  0  0  0  0  0  0
    0.7390   -2.2056    3.0871 H   0  0  0  0  0  0  0  0  0  0  0  0
    2.4745   -2.3594    3.0792 H   0  0  0  0  0  0  0  0  0  0  0  0
   -1.0091    0.8903    1.0838 H   0  0  0  0  0  0  0  0  0  0  0  0
   -3.0773    0.8263    3.5948 H   0  0  0  0  0  0  0  0  0  0  0  0
   -3.3913   -0.7235    2.8029 H   0  0  0  0  0  0  0  0  0  0  0  0
   -2.1684   -3.0913   -0.4816 H   0  0  0  0  0  0  0  0  0  0  0  0
   -5.2895   -2.0679   -3.6235 H   0  0  0  0  0  0  0  0  0  0  0  0
   -6.7983   -0.1721   -4.0985 H   0  0  0  0  0  0  0  0  0  0  0  0
   -6.7951    1.8165   -2.6072 H   0  0  0  0  0  0  0  0  0  0  0  0
   -5.3034    1.8818   -0.6586 H   0  0  0  0  0  0  0  0  0  0  0  0
    4.9977   -0.8991    0.0127 H   0  0  0  0  0  0  0  0  0  0  0  0
    6.5849   -0.6148   -1.8347 H   0  0  0  0  0  0  0  0  0  0  0  0
    6.2374    1.1711   -3.5244 H   0  0  0  0  0  0  0  0  0  0  0  0
    4.2741    2.6762   -3.3355 H   0  0  0  0  0  0  0  0  0  0  0  0
    2.6976    2.4364   -1.4827 H   0  0  0  0  0  0  0  0  0  0  0  0
    4.2967   -0.6350    3.2615 H   0  0  0  0  0  0  0  0  0  0  0  0
    3.7903    1.0562    3.0407 H   0  0  0  0  0  0  0  0  0  0  0  0
    5.0409    0.3474    2.0047 H   0  0  0  0  0  0  0  0  0  0  0  0
  1  2  1  0
  2  3  2  0
  3  4  1  0
  4  5  1  0
  5  6  2  0
  5  7  1  0
  7  8  1  0
  8  9  1  0
  9 10  2  0
 10 11  1  0
 11 12  2  0
 12 13  1  0
 13 14  2  0
 14 15  1  0
 15 16  2  0
 16 17  1  0
 17 18  2  0
  3 19  1  0
 19 20  2  0
 19 21  1  0
 21 22  1  0
 22 23  2  0
 23 24  1  0
 24 25  2  0
 25 26  1  0
 26 27  2  0
 21 28  1  0
 28 29  1  0
 28  2  1  0
 18  9  1  0
 27 22  1  0
 18 13  1  0
  1 30  1  0
  1 31  1  0
  1 32  1  0
  4 33  1  0
  7 34  1  0
  7 35  1  0
 11 36  1  0
 14 37  1  0
 15 38  1  0
 16 39  1  0
 17 40  1  0
 23 41  1  0
 24 42  1  0
 25 43  1  0
 26 44  1  0
 27 45  1  0
 29 46  1  0
 29 47  1  0
 29 48  1  0
M  END
$$$$
