
     RDKit          3D

 40 42  0  0  0  0  0  0  0  0999 V2000
   -5.3127    0.4778   -1.6212 C   0  0  0  0  0  0  0  0  0  0  0  0
   -5.2567   -0.1475   -0.3400 O   0  0  0  0  0  0  0  0  0  0  0  0
   -4.1578   -0.9287   -0.0905 C   0  0  0  0  0  0  0  0  0  0  0  0
   -3.1575   -1.2593   -1.0054 C   0  0  0  0  0  0  0  0  0  0  0  0
   -2.0780   -2.0652   -0.6069 C   0  0  0  0  0  0  0  0  0  0  0  0
   -1.0199   -2.4160   -1.5561 C   0  0  0  0  0  0  0  0  0  0  0  0
   -0.0427   -1.5980   -1.9749 C   0  0  0  0  0  0  0  0  0  0  0  0
    1.1848   -2.1259   -3.0850 S   0  0  0  0  0  0  0  0  0  0  0  0
    2.0562   -0.5988   -3.0141 C   0  0  0  0  0  0  0  0  0  0  0  0
    3.4402   -0.2768   -3.8895 S   0  0  0  0  0  0  0  0  0  0  0  0
    1.3860    0.2494   -2.1606 N   0  0  0  0  0  0  0  0  0  0  0  0
    1.8745    1.5432   -1.8544 N   0  0  0  0  0  0  0  0  0  0  0  0
    2.7053    1.5491   -0.6944 C   0  0  0  0  0  0  0  0  0  0  0  0
    2.8277    0.4134    0.0437 N   0  0  0  0  0  0  0  0  0  0  0  0
    3.5820    0.4556    1.1681 C   0  0  0  0  0  0  0  0  0  0  0  0
    4.2497    1.5865    1.6134 C   0  0  0  0  0  0  0  0  0  0  0  0
    5.0498    1.5272    2.8771 C   0  0  0  0  0  0  0  0  0  0  0  0
    4.2719    1.3576    3.9808 F   0  0  0  0  0  0  0  0  0  0  0  0
    5.7832    2.6494    3.1011 F   0  0  0  0  0  0  0  0  0  0  0  0
    5.9346    0.4943    2.8835 F   0  0  0  0  0  0  0  0  0  0  0  0
    4.1216    2.7518    0.8514 C   0  0  0  0  0  0  0  0  0  0  0  0
    3.3448    2.7361   -0.3084 C   0  0  0  0  0  0  0  0  0  0  0  0
    3.2186    4.1847   -1.2394 Cl  0  0  0  0  0  0  0  0  0  0  0  0
    0.1895   -0.1692   -1.5885 C   0  0  0  0  0  0  0  0  0  0  0  0
   -0.5807    0.5086   -0.9269 O   0  0  0  0  0  0  0  0  0  0  0  0
   -2.0111   -2.5550    0.7072 C   0  0  0  0  0  0  0  0  0  0  0  0
   -3.0122   -2.2357    1.6221 C   0  0  0  0  0  0  0  0  0  0  0  0
   -4.0706   -1.4290    1.2152 C   0  0  0  0  0  0  0  0  0  0  0  0
   -5.0415   -1.1247    2.1312 O   0  0  0  0  0  0  0  0  0  0  0  0
   -5.4162   -0.2681   -2.4183 H   0  0  0  0  0  0  0  0  0  0  0  0
   -6.2046    1.1134   -1.6473 H   0  0  0  0  0  0  0  0  0  0  0  0
   -4.4415    1.1245   -1.7882 H   0  0  0  0  0  0  0  0  0  0  0  0
   -3.1862   -0.8943   -2.0271 H   0  0  0  0  0  0  0  0  0  0  0  0
   -1.0618   -3.4480   -1.9033 H   0  0  0  0  0  0  0  0  0  0  0  0
    2.3879    1.9572   -2.6344 H   0  0  0  0  0  0  0  0  0  0  0  0
    3.6288   -0.4850    1.7174 H   0  0  0  0  0  0  0  0  0  0  0  0
    4.6203    3.6683    1.1624 H   0  0  0  0  0  0  0  0  0  0  0  0
   -1.1796   -3.1824    1.0298 H   0  0  0  0  0  0  0  0  0  0  0  0
   -2.9663   -2.6053    2.6440 H   0  0  0  0  0  0  0  0  0  0  0  0
   -5.6599   -0.5351    1.6516 H   0  0  0  0  0  0  0  0  0  0  0  0
  1  2  1  0
  2  3  1  0
  3  4  2  0
  4  5  1  0
  5  6  1  0
  6  7  2  3
  7  8  1  0
  8  9  1  0
  9 10  2  0
  9 11  1  0
 11 12  1  0
 12 13  1  0
 13 14  2  0
 14 15  1  0
 15 16  2  0
 16 17  1  0
 17 18  1  0
 17 19  1  0
 17 20  1  0
 16 21  1  0
 21 22  2  0
 22 23  1  0
 11 24  1  0
 24 25  2  0
  5 26  2  0
 26 27  1  0
 27 28  2  0
 28 29  1  0
 28  3  1  0
 24  7  1  0
 22 13  1  0
  1 30  1  0
  1 31  1  0
  1 32  1  0
  4 33  1  0
  6 34  1  0
 12 35  1  0
 15 36  1  0
 21 37  1  0
 26 38  1  0
 27 39  1  0
 29 40  1  0
M  END
$$$$
