
     RDKit          3D

 40 42  0  0  0  0  0  0  0  0999 V2000
    2.8922    3.6709   -1.0721 C   0  0  0  0  0  0  0  0  0  0  0  0
    1.9149    4.1051    0.0073 C   0  0  0  0  0  0  0  0  0  0  0  0
    0.1824    3.8360   -0.4974 S   0  0  0  0  0  0  0  0  0  0  0  0
    0.0176    2.0661   -0.2982 C   0  0  0  0  0  0  0  0  0  0  0  0
   -1.0931    1.4478   -0.8306 C   0  0  0  0  0  0  0  0  0  0  0  0
   -1.2111    0.0842   -0.6540 C   0  0  0  0  0  0  0  0  0  0  0  0
   -2.2916   -0.6167   -1.1795 N   0  0  0  0  0  0  0  0  0  0  0  0
   -2.2408   -2.0841   -1.0630 C   0  0  0  0  0  0  0  0  0  0  0  0
   -3.4641   -2.6919   -1.7665 C   0  0  0  0  0  0  0  0  0  0  0  0
   -4.7230   -2.2691   -1.2179 O   0  0  0  0  0  0  0  0  0  0  0  0
   -4.6430   -1.0294   -0.5021 C   0  0  0  0  0  0  0  0  0  0  0  0
   -3.6421   -0.0292   -1.1064 C   0  0  0  0  0  0  0  0  0  0  0  0
   -0.2513   -0.5990   -0.0088 N   0  0  0  0  0  0  0  0  0  0  0  0
    0.7996    0.0794    0.4890 C   0  0  0  0  0  0  0  0  0  0  0  0
    1.8394   -0.6883    1.2060 C   0  0  0  0  0  0  0  0  0  0  0  0
    1.7388   -2.0833    1.3760 C   0  0  0  0  0  0  0  0  0  0  0  0
    2.7223   -2.8123    2.0530 C   0  0  0  0  0  0  0  0  0  0  0  0
    3.8338   -2.1611    2.5787 C   0  0  0  0  0  0  0  0  0  0  0  0
    3.9626   -0.7840    2.4274 C   0  0  0  0  0  0  0  0  0  0  0  0
    2.9771   -0.0588    1.7493 C   0  0  0  0  0  0  0  0  0  0  0  0
    0.9667    1.4051    0.3755 N   0  0  0  0  0  0  0  0  0  0  0  0
    2.7165    4.2088   -2.0099 H   0  0  0  0  0  0  0  0  0  0  0  0
    3.9167    3.8905   -0.7537 H   0  0  0  0  0  0  0  0  0  0  0  0
    2.8353    2.5968   -1.2736 H   0  0  0  0  0  0  0  0  0  0  0  0
    2.1275    3.6079    0.9587 H   0  0  0  0  0  0  0  0  0  0  0  0
    2.0356    5.1798    0.1801 H   0  0  0  0  0  0  0  0  0  0  0  0
   -1.8281    2.0123   -1.3882 H   0  0  0  0  0  0  0  0  0  0  0  0
   -1.3321   -2.4753   -1.5358 H   0  0  0  0  0  0  0  0  0  0  0  0
   -2.2450   -2.3793   -0.0061 H   0  0  0  0  0  0  0  0  0  0  0  0
   -3.4307   -3.7844   -1.7069 H   0  0  0  0  0  0  0  0  0  0  0  0
   -3.4640   -2.4211   -2.8288 H   0  0  0  0  0  0  0  0  0  0  0  0
   -5.6468   -0.5926   -0.4900 H   0  0  0  0  0  0  0  0  0  0  0  0
   -4.3761   -1.2572    0.5368 H   0  0  0  0  0  0  0  0  0  0  0  0
   -3.6710    0.8853   -0.5034 H   0  0  0  0  0  0  0  0  0  0  0  0
   -3.9521    0.2251   -2.1266 H   0  0  0  0  0  0  0  0  0  0  0  0
    0.8795   -2.6185    0.9747 H   0  0  0  0  0  0  0  0  0  0  0  0
    2.6160   -3.8879    2.1677 H   0  0  0  0  0  0  0  0  0  0  0  0
    4.5985   -2.7260    3.1051 H   0  0  0  0  0  0  0  0  0  0  0  0
    4.8285   -0.2695    2.8359 H   0  0  0  0  0  0  0  0  0  0  0  0
    3.1043    1.0177    1.6461 H   0  0  0  0  0  0  0  0  0  0  0  0
  1  2  1  0
  2  3  1  0
  3  4  1  0
  4  5  2  0
  5  6  1  0
  6  7  1  0
  7  8  1  0
  8  9  1  0
  9 10  1  0
 10 11  1  0
 11 12  1  0
  6 13  2  0
 13 14  1  0
 14 15  1  0
 15 16  2  0
 16 17  1  0
 17 18  2  0
 18 19  1  0
 19 20  2  0
 14 21  2  0
 21  4  1  0
 12  7  1  0
 20 15  1  0
  1 22  1  0
  1 23  1  0
  1 24  1  0
  2 25  1  0
  2 26  1  0
  5 27  1  0
  8 28  1  0
  8 29  1  0
  9 30  1  0
  9 31  1  0
 11 32  1  0
 11 33  1  0
 12 34  1  0
 12 35  1  0
 16 36  1  0
 17 37  1  0
 18 38  1  0
 19 39  1  0
 20 40  1  0
M  END
$$$$
