
     RDKit          3D

 44 47  0  0  0  0  0  0  0  0999 V2000
   -3.7852    5.0909   -0.5566 N   0  0  0  0  0  0  0  0  0  0  0  0
   -4.2785    3.8622   -0.7881 C   0  0  0  0  0  0  0  0  0  0  0  0
   -5.5504    3.6091   -1.0927 N   0  0  0  0  0  0  0  0  0  0  0  0
   -5.6319    2.2284   -1.2347 O   0  0  0  0  0  0  0  0  0  0  0  0
   -4.3926    1.6246   -1.0294 N   0  0  0  0  0  0  0  0  0  0  0  0
   -3.5757    2.6418   -0.7533 C   0  0  0  0  0  0  0  0  0  0  0  0
   -2.1976    2.4335   -0.4851 N   0  0  0  0  0  0  0  0  0  0  0  0
   -1.3594    3.4866   -0.2521 N   0  0  0  0  0  0  0  0  0  0  0  0
   -0.1386    3.0339   -0.0356 N   0  0  0  0  0  0  0  0  0  0  0  0
   -0.1630    1.6689   -0.1253 C   0  0  0  0  0  0  0  0  0  0  0  0
    1.0390    0.8576    0.0700 C   0  0  0  0  0  0  0  0  0  0  0  0
    1.0195   -0.3662   -0.0071 O   0  0  0  0  0  0  0  0  0  0  0  0
    2.1587    1.6352    0.3495 N   0  0  0  0  0  0  0  0  0  0  0  0
    3.3974    1.1823    0.7235 N   0  0  0  0  0  0  0  0  0  0  0  0
    3.8266    0.0661    0.2284 C   0  0  0  0  0  0  0  0  0  0  0  0
    5.1272   -0.5178    0.6261 C   0  0  0  0  0  0  0  0  0  0  0  0
    6.2619    0.2716    0.8740 C   0  0  0  0  0  0  0  0  0  0  0  0
    6.3085    1.9871    0.6509 Cl  0  0  0  0  0  0  0  0  0  0  0  0
    7.4680   -0.3306    1.2582 C   0  0  0  0  0  0  0  0  0  0  0  0
    7.5600   -1.7147    1.3860 C   0  0  0  0  0  0  0  0  0  0  0  0
    6.4441   -2.5046    1.1247 C   0  0  0  0  0  0  0  0  0  0  0  0
    5.2329   -1.9138    0.7451 C   0  0  0  0  0  0  0  0  0  0  0  0
    3.8999   -2.9832    0.4781 Cl  0  0  0  0  0  0  0  0  0  0  0  0
   -1.4553    1.2540   -0.4160 C   0  0  0  0  0  0  0  0  0  0  0  0
   -2.0025   -0.1170   -0.6112 C   0  0  0  0  0  0  0  0  0  0  0  0
   -2.7336   -0.7171    0.9353 S   0  0  0  0  0  0  0  0  0  0  0  0
   -3.4923   -2.1581    0.3547 C   0  0  0  0  0  0  0  0  0  0  0  0
   -3.1763   -2.7428   -0.7522 N   0  0  0  0  0  0  0  0  0  0  0  0
   -3.9785   -3.9775   -0.8824 C   0  0  0  0  0  0  0  0  0  0  0  0
   -5.2773   -3.8343   -0.1040 C   0  0  0  0  0  0  0  0  0  0  0  0
   -4.7769   -2.8398    1.3104 S   0  0  0  0  0  0  0  0  0  0  0  0
   -2.7911    5.2648   -0.4227 H   0  0  0  0  0  0  0  0  0  0  0  0
   -4.3601    5.9127   -0.7028 H   0  0  0  0  0  0  0  0  0  0  0  0
    1.9873    2.6118    0.5819 H   0  0  0  0  0  0  0  0  0  0  0  0
    3.2543   -0.5086   -0.5197 H   0  0  0  0  0  0  0  0  0  0  0  0
    8.3492    0.2799    1.4485 H   0  0  0  0  0  0  0  0  0  0  0  0
    8.4990   -2.1759    1.6839 H   0  0  0  0  0  0  0  0  0  0  0  0
    6.5199   -3.5855    1.2268 H   0  0  0  0  0  0  0  0  0  0  0  0
   -1.2089   -0.8049   -0.9153 H   0  0  0  0  0  0  0  0  0  0  0  0
   -2.7323   -0.1370   -1.4250 H   0  0  0  0  0  0  0  0  0  0  0  0
   -4.1910   -4.1697   -1.9402 H   0  0  0  0  0  0  0  0  0  0  0  0
   -3.3877   -4.8252   -0.5128 H   0  0  0  0  0  0  0  0  0  0  0  0
   -5.6952   -4.7994    0.1926 H   0  0  0  0  0  0  0  0  0  0  0  0
   -6.0214   -3.2796   -0.6843 H   0  0  0  0  0  0  0  0  0  0  0  0
  1  2  1  0
  2  3  2  0
  3  4  1  0
  4  5  1  0
  5  6  2  0
  6  7  1  0
  7  8  1  0
  8  9  2  0
  9 10  1  0
 10 11  1  0
 11 12  2  0
 11 13  1  0
 13 14  1  0
 14 15  2  3
 15 16  1  0
 16 17  2  0
 17 18  1  0
 17 19  1  0
 19 20  2  0
 20 21  1  0
 21 22  2  0
 22 23  1  0
 10 24  2  0
 24 25  1  0
 25 26  1  0
 26 27  1  0
 27 28  2  0
 28 29  1  0
 29 30  1  0
 30 31  1  0
  6  2  1  0
 24  7  1  0
 31 27  1  0
 22 16  1  0
  1 32  1  0
  1 33  1  0
 13 34  1  0
 15 35  1  0
 19 36  1  0
 20 37  1  0
 21 38  1  0
 25 39  1  0
 25 40  1  0
 29 41  1  0
 29 42  1  0
 30 43  1  0
 30 44  1  0
M  END
$$$$
