
     RDKit          3D

 81 84  0  0  0  0  0  0  0  0999 V2000
   -6.9033    3.6937    3.0812 C   0  0  0  0  0  0  0  0  0  0  0  0
   -6.0892    4.1338    2.0004 O   0  0  0  0  0  0  0  0  0  0  0  0
   -4.8578    3.5551    1.8755 C   0  0  0  0  0  0  0  0  0  0  0  0
   -4.3508    2.5221    2.6676 C   0  0  0  0  0  0  0  0  0  0  0  0
   -3.0676    2.0171    2.4290 C   0  0  0  0  0  0  0  0  0  0  0  0
   -2.2981    2.5422    1.3871 C   0  0  0  0  0  0  0  0  0  0  0  0
   -0.6575    1.9291    1.1040 S   0  0  0  0  0  6  0  0  0  0  0  0
   -0.1958    1.2878    2.3158 O   0  0  0  0  0  0  0  0  0  0  0  0
    0.1255    2.9733    0.4771 O   0  0  0  0  0  0  0  0  0  0  0  0
   -0.8705    0.7269   -0.0637 N   0  0  0  0  0  0  0  0  0  0  0  0
   -1.3822    1.1142   -1.3884 C   0  0  0  0  0  0  0  0  0  0  0  0
   -1.3177   -0.6146    0.4053 C   0  0  0  0  0  0  0  0  0  0  0  0
   -0.0712   -1.5201    0.5244 C   0  0  0  0  0  0  0  0  0  0  0  0
    0.3910   -1.7069   -0.8393 O   0  0  0  0  0  0  0  0  0  0  0  0
    1.6677   -2.1999   -0.8515 C   0  0  0  0  0  0  0  0  0  0  0  0
    2.7489   -1.2911   -0.7830 C   0  0  0  0  0  0  0  0  0  0  0  0
    2.4641    0.1034   -0.7688 N   0  0  0  0  0  0  0  0  0  0  0  0
    3.3675    1.1349   -0.9820 C   0  0  0  0  0  0  0  0  0  0  0  0
    4.5573    0.9717   -1.2236 O   0  0  0  0  0  0  0  0  0  0  0  0
    2.7503    2.3758   -0.9058 N   0  0  0  0  0  0  0  0  0  0  0  0
    3.3335    3.6251   -1.2291 C   0  0  0  0  0  0  0  0  0  0  0  0
    2.6388    4.7823   -0.8598 C   0  0  0  0  0  0  0  0  0  0  0  0
    3.1457    6.0527   -1.1552 C   0  0  0  0  0  0  0  0  0  0  0  0
    4.3656    6.1937   -1.8291 C   0  0  0  0  0  0  0  0  0  0  0  0
    4.9011    7.5626   -2.1643 C   0  0  0  0  0  0  0  0  0  0  0  0
    4.3557    8.0659   -3.3065 F   0  0  0  0  0  0  0  0  0  0  0  0
    4.6466    8.4858   -1.1940 F   0  0  0  0  0  0  0  0  0  0  0  0
    6.2504    7.5864   -2.3530 F   0  0  0  0  0  0  0  0  0  0  0  0
    5.0523    5.0366   -2.2152 C   0  0  0  0  0  0  0  0  0  0  0  0
    4.5400    3.7669   -1.9184 C   0  0  0  0  0  0  0  0  0  0  0  0
    4.0490   -1.8023   -0.7432 C   0  0  0  0  0  0  0  0  0  0  0  0
    4.2791   -3.1756   -0.8350 C   0  0  0  0  0  0  0  0  0  0  0  0
    3.2074   -4.0526   -0.9794 C   0  0  0  0  0  0  0  0  0  0  0  0
    1.8873   -3.5752   -0.9914 C   0  0  0  0  0  0  0  0  0  0  0  0
    0.8509   -4.6082   -1.2652 C   0  0  0  0  0  0  0  0  0  0  0  0
    1.0560   -5.3245   -2.2490 O   0  0  0  0  0  0  0  0  0  0  0  0
   -0.1713   -4.8969   -0.3361 N   0  0  0  0  0  0  0  0  0  0  0  0
   -0.7776   -6.2483   -0.4747 C   0  0  0  0  0  0  0  0  0  0  0  0
   -1.9512   -6.2571   -1.4586 C   0  0  0  0  0  0  0  0  0  0  0  0
   -1.1252   -6.8998    0.8864 C   0  0  0  0  0  0  0  0  0  0  0  0
   -2.3776   -6.4808    1.4238 O   0  0  0  0  0  0  0  0  0  0  0  0
   -1.0307   -3.8431    0.2186 C   0  0  0  0  0  0  0  0  0  0  0  0
   -0.3266   -2.8902    1.1909 C   0  0  0  0  0  0  0  0  0  0  0  0
   -1.0797   -2.7760    2.5189 C   0  0  0  0  0  0  0  0  0  0  0  0
   -2.7874    3.5902    0.6052 C   0  0  0  0  0  0  0  0  0  0  0  0
   -4.0701    4.0836    0.8472 C   0  0  0  0  0  0  0  0  0  0  0  0
   -6.4201    3.8847    4.0456 H   0  0  0  0  0  0  0  0  0  0  0  0
   -7.1628    2.6357    2.9729 H   0  0  0  0  0  0  0  0  0  0  0  0
   -7.8338    4.2692    3.0536 H   0  0  0  0  0  0  0  0  0  0  0  0
   -4.9258    2.0923    3.4829 H   0  0  0  0  0  0  0  0  0  0  0  0
   -2.6776    1.2258    3.0659 H   0  0  0  0  0  0  0  0  0  0  0  0
   -0.9655    2.0725   -1.7103 H   0  0  0  0  0  0  0  0  0  0  0  0
   -2.4741    1.1788   -1.3805 H   0  0  0  0  0  0  0  0  0  0  0  0
   -1.0785    0.3706   -2.1325 H   0  0  0  0  0  0  0  0  0  0  0  0
   -2.0347   -1.0352   -0.3099 H   0  0  0  0  0  0  0  0  0  0  0  0
   -1.8432   -0.5170    1.3577 H   0  0  0  0  0  0  0  0  0  0  0  0
    0.6872   -0.9844    1.1123 H   0  0  0  0  0  0  0  0  0  0  0  0
    1.4823    0.3427   -0.8340 H   0  0  0  0  0  0  0  0  0  0  0  0
    1.8672    2.4222   -0.4058 H   0  0  0  0  0  0  0  0  0  0  0  0
    1.6935    4.7173   -0.3280 H   0  0  0  0  0  0  0  0  0  0  0  0
    2.5818    6.9336   -0.8521 H   0  0  0  0  0  0  0  0  0  0  0  0
    5.9981    5.1098   -2.7519 H   0  0  0  0  0  0  0  0  0  0  0  0
    5.1099    2.9044   -2.2507 H   0  0  0  0  0  0  0  0  0  0  0  0
    4.9155   -1.1547   -0.6493 H   0  0  0  0  0  0  0  0  0  0  0  0
    5.2982   -3.5555   -0.8243 H   0  0  0  0  0  0  0  0  0  0  0  0
    3.4032   -5.1170   -1.1014 H   0  0  0  0  0  0  0  0  0  0  0  0
    0.0019   -6.8971   -0.8957 H   0  0  0  0  0  0  0  0  0  0  0  0
   -2.3328   -7.2744   -1.5936 H   0  0  0  0  0  0  0  0  0  0  0  0
   -1.6438   -5.8800   -2.4395 H   0  0  0  0  0  0  0  0  0  0  0  0
   -2.7791   -5.6279   -1.1153 H   0  0  0  0  0  0  0  0  0  0  0  0
   -0.3492   -6.6745    1.6263 H   0  0  0  0  0  0  0  0  0  0  0  0
   -1.1683   -7.9894    0.7767 H   0  0  0  0  0  0  0  0  0  0  0  0
   -3.0756   -6.9131    0.9027 H   0  0  0  0  0  0  0  0  0  0  0  0
   -1.8678   -4.3114    0.7378 H   0  0  0  0  0  0  0  0  0  0  0  0
   -1.4777   -3.3182   -0.6327 H   0  0  0  0  0  0  0  0  0  0  0  0
    0.6488   -3.3223    1.4519 H   0  0  0  0  0  0  0  0  0  0  0  0
   -2.1269   -2.4931    2.3732 H   0  0  0  0  0  0  0  0  0  0  0  0
   -1.0704   -3.7375    3.0444 H   0  0  0  0  0  0  0  0  0  0  0  0
   -0.6076   -2.0352    3.1728 H   0  0  0  0  0  0  0  0  0  0  0  0
   -2.1842    4.0314   -0.1854 H   0  0  0  0  0  0  0  0  0  0  0  0
   -4.4603    4.8973    0.2373 H   0  0  0  0  0  0  0  0  0  0  0  0
  1  2  1  0
  2  3  1  0
  3  4  2  0
  4  5  1  0
  5  6  2  0
  6  7  1  0
  7  8  2  0
  7  9  2  0
  7 10  1  0
 10 11  1  0
 10 12  1  0
 12 13  1  0
 13 14  1  0
 14 15  1  0
 15 16  2  0
 16 17  1  0
 17 18  1  0
 18 19  2  0
 18 20  1  0
 20 21  1  0
 21 22  2  0
 22 23  1  0
 23 24  2  0
 24 25  1  0
 25 26  1  0
 25 27  1  0
 25 28  1  0
 24 29  1  0
 29 30  2  0
 16 31  1  0
 31 32  2  0
 32 33  1  0
 33 34  2  0
 34 35  1  0
 35 36  2  0
 35 37  1  0
 37 38  1  0
 38 39  1  0
 38 40  1  0
 40 41  1  0
 37 42  1  0
 42 43  1  0
 43 44  1  0
  6 45  1  0
 45 46  2  0
 46  3  1  0
 43 13  1  0
 34 15  1  0
 30 21  1  0
  1 47  1  0
  1 48  1  0
  1 49  1  0
  4 50  1  0
  5 51  1  0
 11 52  1  0
 11 53  1  0
 11 54  1  0
 12 55  1  0
 12 56  1  0
 13 57  1  0
 17 58  1  0
 20 59  1  0
 22 60  1  0
 23 61  1  0
 29 62  1  0
 30 63  1  0
 31 64  1  0
 32 65  1  0
 33 66  1  0
 38 67  1  0
 39 68  1  0
 39 69  1  0
 39 70  1  0
 40 71  1  0
 40 72  1  0
 41 73  1  0
 42 74  1  0
 42 75  1  0
 43 76  1  0
 44 77  1  0
 44 78  1  0
 44 79  1  0
 45 80  1  0
 46 81  1  0
M  END
$$$$
