
     RDKit          3D

 63 67  0  0  0  0  0  0  0  0999 V2000
   -3.4754   -6.1078    2.9979 C   0  0  0  0  0  0  0  0  0  0  0  0
   -4.0385   -4.8550    2.6138 O   0  0  0  0  0  0  0  0  0  0  0  0
   -3.1283   -3.8566    2.5047 C   0  0  0  0  0  0  0  0  0  0  0  0
   -1.9256   -3.9708    2.7046 O   0  0  0  0  0  0  0  0  0  0  0  0
   -3.7857   -2.5616    2.1409 C   0  0  0  0  0  0  0  0  0  0  0  0
   -5.1890   -2.4832    2.0312 C   0  0  0  0  0  0  0  0  0  0  0  0
   -5.8188   -1.2675    1.7561 C   0  0  0  0  0  0  0  0  0  0  0  0
   -5.0597   -0.1129    1.6039 C   0  0  0  0  0  0  0  0  0  0  0  0
   -3.6671   -0.1765    1.7013 C   0  0  0  0  0  0  0  0  0  0  0  0
   -3.0111   -1.3945    1.9425 C   0  0  0  0  0  0  0  0  0  0  0  0
   -1.5825   -1.4548    2.0232 N   0  0  0  0  0  0  0  0  0  0  0  0
   -0.7458   -0.3700    2.0824 C   0  0  0  0  0  0  0  0  0  0  0  0
    0.0790   -0.1508    3.5312 S   0  0  0  0  0  0  0  0  0  0  0  0
   -0.6016    0.3918    0.9122 N   0  0  0  0  0  0  0  0  0  0  0  0
   -0.9110   -0.2057   -0.4102 C   0  0  0  0  0  0  0  0  0  0  0  0
   -1.2660    0.7757   -1.5081 C   0  0  0  0  0  0  0  0  0  0  0  0
   -0.3313    1.0639   -2.5333 C   0  0  0  0  0  0  0  0  0  0  0  0
   -0.6348    1.9694   -3.5561 C   0  0  0  0  0  0  0  0  0  0  0  0
   -1.8742    2.5693   -3.5330 C   0  0  0  0  0  0  0  0  0  0  0  0
   -2.7893    2.2983   -2.5441 C   0  0  0  0  0  0  0  0  0  0  0  0
   -2.5200    1.4088   -1.5249 C   0  0  0  0  0  0  0  0  0  0  0  0
   -3.9470    2.9919   -2.7029 O   0  0  0  0  0  0  0  0  0  0  0  0
   -3.6627    3.7189   -3.9169 C   0  0  0  0  0  0  0  0  0  0  0  0
   -2.3416    3.4639   -4.4433 O   0  0  0  0  0  0  0  0  0  0  0  0
    0.2351    1.6202    0.9089 C   0  0  0  0  0  0  0  0  0  0  0  0
    1.6800    1.3894    0.5270 C   0  0  0  0  0  0  0  0  0  0  0  0
    2.3406    0.2159    0.5247 C   0  0  0  0  0  0  0  0  0  0  0  0
    3.7472    0.1315    0.1406 C   0  0  0  0  0  0  0  0  0  0  0  0
    4.4394   -1.0786    0.1634 C   0  0  0  0  0  0  0  0  0  0  0  0
    5.7855   -1.1143   -0.2125 C   0  0  0  0  0  0  0  0  0  0  0  0
    6.4480    0.0477   -0.6218 C   0  0  0  0  0  0  0  0  0  0  0  0
    7.7617   -0.1326   -0.9696 O   0  0  0  0  0  0  0  0  0  0  0  0
    8.4143    0.9629   -1.6016 C   0  0  0  0  0  0  0  0  0  0  0  0
    5.7609    1.2615   -0.6337 C   0  0  0  0  0  0  0  0  0  0  0  0
    4.4164    1.2941   -0.2523 C   0  0  0  0  0  0  0  0  0  0  0  0
    3.7212    2.5068   -0.2534 N   0  0  0  0  0  0  0  0  0  0  0  0
    2.4113    2.6368    0.1291 C   0  0  0  0  0  0  0  0  0  0  0  0
    1.8663    3.7377    0.1375 O   0  0  0  0  0  0  0  0  0  0  0  0
   -2.8072   -6.4845    2.2136 H   0  0  0  0  0  0  0  0  0  0  0  0
   -4.3002   -6.8204    3.1273 H   0  0  0  0  0  0  0  0  0  0  0  0
   -2.9458   -6.0159    3.9492 H   0  0  0  0  0  0  0  0  0  0  0  0
   -5.8142   -3.3639    2.1703 H   0  0  0  0  0  0  0  0  0  0  0  0
   -6.9026   -1.2157    1.6786 H   0  0  0  0  0  0  0  0  0  0  0  0
   -5.5496    0.8414    1.4093 H   0  0  0  0  0  0  0  0  0  0  0  0
   -3.1054    0.7518    1.6024 H   0  0  0  0  0  0  0  0  0  0  0  0
   -1.2697   -2.2459    2.5973 H   0  0  0  0  0  0  0  0  0  0  0  0
   -1.7154   -0.9435   -0.3440 H   0  0  0  0  0  0  0  0  0  0  0  0
   -0.0322   -0.7899   -0.7102 H   0  0  0  0  0  0  0  0  0  0  0  0
    0.6418    0.5793   -2.5354 H   0  0  0  0  0  0  0  0  0  0  0  0
    0.0792    2.1903   -4.3423 H   0  0  0  0  0  0  0  0  0  0  0  0
   -3.2695    1.2124   -0.7690 H   0  0  0  0  0  0  0  0  0  0  0  0
   -3.7615    4.7942   -3.7175 H   0  0  0  0  0  0  0  0  0  0  0  0
   -4.4038    3.4318   -4.6754 H   0  0  0  0  0  0  0  0  0  0  0  0
   -0.2422    2.3400    0.2329 H   0  0  0  0  0  0  0  0  0  0  0  0
    0.1996    2.0944    1.8966 H   0  0  0  0  0  0  0  0  0  0  0  0
    1.8586   -0.7075    0.8261 H   0  0  0  0  0  0  0  0  0  0  0  0
    3.9506   -1.9987    0.4754 H   0  0  0  0  0  0  0  0  0  0  0  0
    6.3226   -2.0588   -0.1845 H   0  0  0  0  0  0  0  0  0  0  0  0
    7.8805    1.2738   -2.5045 H   0  0  0  0  0  0  0  0  0  0  0  0
    8.5378    1.7976   -0.9067 H   0  0  0  0  0  0  0  0  0  0  0  0
    9.4128    0.6297   -1.9045 H   0  0  0  0  0  0  0  0  0  0  0  0
    6.2498    2.1824   -0.9234 H   0  0  0  0  0  0  0  0  0  0  0  0
    4.1862    3.3624   -0.5208 H   0  0  0  0  0  0  0  0  0  0  0  0
  1  2  1  0
  2  3  1  0
  3  4  2  0
  3  5  1  0
  5  6  2  0
  6  7  1  0
  7  8  2  0
  8  9  1  0
  9 10  2  0
 10 11  1  0
 11 12  1  0
 12 13  2  0
 12 14  1  0
 14 15  1  0
 15 16  1  0
 16 17  2  0
 17 18  1  0
 18 19  2  0
 19 20  1  0
 20 21  2  0
 20 22  1  0
 22 23  1  0
 23 24  1  0
 14 25  1  0
 25 26  1  0
 26 27  2  0
 27 28  1  0
 28 29  2  0
 29 30  1  0
 30 31  2  0
 31 32  1  0
 32 33  1  0
 31 34  1  0
 34 35  2  0
 35 36  1  0
 36 37  1  0
 37 38  2  0
 10  5  1  0
 21 16  1  0
 37 26  1  0
 24 19  1  0
 35 28  1  0
  1 39  1  0
  1 40  1  0
  1 41  1  0
  6 42  1  0
  7 43  1  0
  8 44  1  0
  9 45  1  0
 11 46  1  0
 15 47  1  0
 15 48  1  0
 17 49  1  0
 18 50  1  0
 21 51  1  0
 23 52  1  0
 23 53  1  0
 25 54  1  0
 25 55  1  0
 27 56  1  0
 29 57  1  0
 30 58  1  0
 33 59  1  0
 33 60  1  0
 33 61  1  0
 34 62  1  0
 36 63  1  0
M  END
$$$$
