
     RDKit          3D

 59 64  0  0  0  0  0  0  0  0999 V2000
   -4.7057    2.8937    1.0175 C   0  0  0  0  0  0  0  0  0  0  0  0
   -4.2534    1.6817    0.4283 O   0  0  0  0  0  0  0  0  0  0  0  0
   -5.2117    0.8067   -0.0216 C   0  0  0  0  0  0  0  0  0  0  0  0
   -6.5505    1.1661   -0.2284 C   0  0  0  0  0  0  0  0  0  0  0  0
   -7.4688    0.2389   -0.7278 C   0  0  0  0  0  0  0  0  0  0  0  0
   -7.0582   -1.0528   -1.0336 C   0  0  0  0  0  0  0  0  0  0  0  0
   -5.7271   -1.4184   -0.8361 C   0  0  0  0  0  0  0  0  0  0  0  0
   -4.7865   -0.5087   -0.3245 C   0  0  0  0  0  0  0  0  0  0  0  0
   -3.4703   -0.9909   -0.1696 N   0  0  0  0  0  0  0  0  0  0  0  0
   -2.5917   -0.5707   -1.2864 C   0  0  0  0  0  0  0  0  0  0  0  0
   -1.1402   -1.0420   -1.0467 C   0  0  0  0  0  0  0  0  0  0  0  0
   -0.5673   -0.5298    0.2347 N   0  0  0  0  0  0  0  0  0  0  0  0
    0.6184    0.1469    0.1238 C   0  0  0  0  0  0  0  0  0  0  0  0
    0.8188    1.4956   -0.1037 C   0  0  0  0  0  0  0  0  0  0  0  0
    2.2020    1.7111   -0.2648 C   0  0  0  0  0  0  0  0  0  0  0  0
    2.8387    0.4975   -0.0860 C   0  0  0  0  0  0  0  0  0  0  0  0
    4.2344    0.1201   -0.1579 C   0  0  0  0  0  0  0  0  0  0  0  0
    5.2816    1.1351   -0.4348 C   0  0  0  0  0  0  0  0  0  0  0  0
    6.2119    0.8845   -1.4492 C   0  0  0  0  0  0  0  0  0  0  0  0
    7.2113    1.8194   -1.7224 C   0  0  0  0  0  0  0  0  0  0  0  0
    7.2902    2.9954   -0.9747 C   0  0  0  0  0  0  0  0  0  0  0  0
    6.3785    3.2350    0.0545 C   0  0  0  0  0  0  0  0  0  0  0  0
    5.3763    2.3029    0.3311 C   0  0  0  0  0  0  0  0  0  0  0  0
    4.6018   -1.1168   -0.0031 N   0  0  0  0  0  0  0  0  0  0  0  0
    3.6297   -2.0885    0.3017 C   0  0  0  0  0  0  0  0  0  0  0  0
    4.0735   -3.3974    0.5171 C   0  0  0  0  0  0  0  0  0  0  0  0
    3.1757   -4.4099    0.8547 C   0  0  0  0  0  0  0  0  0  0  0  0
    1.8208   -4.1167    0.9910 C   0  0  0  0  0  0  0  0  0  0  0  0
    1.3583   -2.8150    0.7794 C   0  0  0  0  0  0  0  0  0  0  0  0
    2.2567   -1.8064    0.4200 C   0  0  0  0  0  0  0  0  0  0  0  0
    1.8719   -0.4640    0.1728 N   0  0  0  0  0  0  0  0  0  0  0  0
   -1.5822    0.0363    1.1603 C   0  0  0  0  0  0  0  0  0  0  0  0
   -2.8729   -0.8120    1.1770 C   0  0  0  0  0  0  0  0  0  0  0  0
   -5.4022    2.7026    1.8419 H   0  0  0  0  0  0  0  0  0  0  0  0
   -5.1496    3.5549    0.2670 H   0  0  0  0  0  0  0  0  0  0  0  0
   -3.8339    3.4095    1.4298 H   0  0  0  0  0  0  0  0  0  0  0  0
   -6.9105    2.1684   -0.0258 H   0  0  0  0  0  0  0  0  0  0  0  0
   -8.5036    0.5307   -0.8853 H   0  0  0  0  0  0  0  0  0  0  0  0
   -7.7672   -1.7750   -1.4294 H   0  0  0  0  0  0  0  0  0  0  0  0
   -5.4101   -2.4308   -1.0743 H   0  0  0  0  0  0  0  0  0  0  0  0
   -2.9532   -1.0128   -2.2233 H   0  0  0  0  0  0  0  0  0  0  0  0
   -2.6003    0.5207   -1.4086 H   0  0  0  0  0  0  0  0  0  0  0  0
   -1.1251   -2.1382   -1.0048 H   0  0  0  0  0  0  0  0  0  0  0  0
   -0.5232   -0.7449   -1.9053 H   0  0  0  0  0  0  0  0  0  0  0  0
    0.0378    2.2383   -0.2020 H   0  0  0  0  0  0  0  0  0  0  0  0
    2.6726    2.6556   -0.5029 H   0  0  0  0  0  0  0  0  0  0  0  0
    6.1574   -0.0363   -2.0247 H   0  0  0  0  0  0  0  0  0  0  0  0
    7.9307    1.6285   -2.5142 H   0  0  0  0  0  0  0  0  0  0  0  0
    8.0715    3.7214   -1.1877 H   0  0  0  0  0  0  0  0  0  0  0  0
    6.4550    4.1446    0.6470 H   0  0  0  0  0  0  0  0  0  0  0  0
    4.6878    2.4847    1.1522 H   0  0  0  0  0  0  0  0  0  0  0  0
    5.1336   -3.6218    0.4267 H   0  0  0  0  0  0  0  0  0  0  0  0
    3.5362   -5.4225    1.0206 H   0  0  0  0  0  0  0  0  0  0  0  0
    1.1206   -4.9009    1.2672 H   0  0  0  0  0  0  0  0  0  0  0  0
    0.3013   -2.6218    0.9201 H   0  0  0  0  0  0  0  0  0  0  0  0
   -1.1653    0.0605    2.1743 H   0  0  0  0  0  0  0  0  0  0  0  0
   -1.8188    1.0681    0.8775 H   0  0  0  0  0  0  0  0  0  0  0  0
   -2.6217   -1.8151    1.5446 H   0  0  0  0  0  0  0  0  0  0  0  0
   -3.5837   -0.3952    1.9005 H   0  0  0  0  0  0  0  0  0  0  0  0
  1  2  1  0
  2  3  1  0
  3  4  2  0
  4  5  1  0
  5  6  2  0
  6  7  1  0
  7  8  2  0
  8  9  1  0
  9 10  1  0
 10 11  1  0
 11 12  1  0
 12 13  1  0
 13 14  2  0
 14 15  1  0
 15 16  2  0
 16 17  1  0
 17 18  1  0
 18 19  2  0
 19 20  1  0
 20 21  2  0
 21 22  1  0
 22 23  2  0
 17 24  2  0
 24 25  1  0
 25 26  2  0
 26 27  1  0
 27 28  2  0
 28 29  1  0
 29 30  2  0
 30 31  1  0
 12 32  1  0
 32 33  1  0
  8  3  1  0
 33  9  1  0
 31 13  1  0
 31 16  1  0
 23 18  1  0
 30 25  1  0
  1 34  1  0
  1 35  1  0
  1 36  1  0
  4 37  1  0
  5 38  1  0
  6 39  1  0
  7 40  1  0
 10 41  1  0
 10 42  1  0
 11 43  1  0
 11 44  1  0
 14 45  1  0
 15 46  1  0
 19 47  1  0
 20 48  1  0
 21 49  1  0
 22 50  1  0
 23 51  1  0
 26 52  1  0
 27 53  1  0
 28 54  1  0
 29 55  1  0
 32 56  1  0
 32 57  1  0
 33 58  1  0
 33 59  1  0
M  END
$$$$
