
     RDKit          3D

 57 62  0  0  0  0  0  0  0  0999 V2000
    6.1549   -1.4457    1.3356 C   0  0  0  0  0  0  0  0  0  0  0  0
    4.7768   -1.1132    1.4364 O   0  0  0  0  0  0  0  0  0  0  0  0
    3.9875   -1.3961    0.3537 C   0  0  0  0  0  0  0  0  0  0  0  0
    4.4228   -1.9961   -0.8440 C   0  0  0  0  0  0  0  0  0  0  0  0
    3.5270   -2.2467   -1.8913 C   0  0  0  0  0  0  0  0  0  0  0  0
    2.2111   -1.8809   -1.7072 C   0  0  0  0  0  0  0  0  0  0  0  0
    1.7602   -1.2769   -0.5319 C   0  0  0  0  0  0  0  0  0  0  0  0
    2.6429   -1.0370    0.5105 C   0  0  0  0  0  0  0  0  0  0  0  0
    0.2921   -1.0091   -0.6591 C   0  0  0  0  0  0  0  0  0  0  0  0
   -0.5474   -1.6227    0.4186 N   0  0  0  0  0  0  0  0  0  0  0  0
   -1.5579   -0.6170    0.8946 C   0  0  2  0  0  0  0  0  0  0  0  0
   -2.9876   -0.8868    0.3777 C   0  0  0  0  0  0  0  0  0  0  0  0
   -3.5550   -2.2224    0.7982 C   0  0  0  0  0  0  0  0  0  0  0  0
   -3.8835   -2.4742    2.1369 C   0  0  0  0  0  0  0  0  0  0  0  0
   -4.3986   -3.7148    2.5162 C   0  0  0  0  0  0  0  0  0  0  0  0
   -4.5916   -4.7128    1.5628 C   0  0  0  0  0  0  0  0  0  0  0  0
   -4.2710   -4.4717    0.2284 C   0  0  0  0  0  0  0  0  0  0  0  0
   -3.7559   -3.2325   -0.1535 C   0  0  0  0  0  0  0  0  0  0  0  0
   -1.0150    0.6575    0.3665 C   0  0  0  0  0  0  0  0  0  0  0  0
    0.0324    0.4298   -0.5227 C   0  0  0  0  0  0  0  0  0  0  0  0
    0.4249    1.6271   -1.0561 C   0  0  0  0  0  0  0  0  0  0  0  0
    1.2659    1.8382   -2.0679 O   0  0  0  0  0  0  0  0  0  0  0  0
   -0.2847    2.6367   -0.3733 N   0  0  0  0  0  0  0  0  0  0  0  0
   -0.0599    4.0450   -0.4941 C   0  0  0  0  0  0  0  0  0  0  0  0
   -1.1130    4.9551   -0.3425 C   0  0  0  0  0  0  0  0  0  0  0  0
   -0.8812    6.3275   -0.4699 C   0  0  0  0  0  0  0  0  0  0  0  0
    0.4017    6.8009   -0.7373 C   0  0  0  0  0  0  0  0  0  0  0  0
    1.4587    5.9040   -0.8720 C   0  0  0  0  0  0  0  0  0  0  0  0
    1.2324    4.5309   -0.7487 C   0  0  0  0  0  0  0  0  0  0  0  0
   -1.2325    2.0077    0.4586 C   0  0  0  0  0  0  0  0  0  0  0  0
   -2.0965    2.6840    1.2109 O   0  0  0  0  0  0  0  0  0  0  0  0
   -0.0397   -1.5873   -2.0638 C   0  0  0  0  0  0  0  0  0  0  0  0
   -1.1341   -1.6793   -2.6022 O   0  0  0  0  0  0  0  0  0  0  0  0
    1.1609   -2.0574   -2.5999 N   0  0  0  0  0  0  0  0  0  0  0  0
    6.6373   -0.8897    0.5250 H   0  0  0  0  0  0  0  0  0  0  0  0
    6.2926   -2.5251    1.2128 H   0  0  0  0  0  0  0  0  0  0  0  0
    6.6387   -1.1536    2.2727 H   0  0  0  0  0  0  0  0  0  0  0  0
    5.4596   -2.2827   -0.9873 H   0  0  0  0  0  0  0  0  0  0  0  0
    3.8652   -2.7138   -2.8089 H   0  0  0  0  0  0  0  0  0  0  0  0
    2.2971   -0.5765    1.4312 H   0  0  0  0  0  0  0  0  0  0  0  0
   -1.0310   -2.4316    0.0316 H   0  0  0  0  0  0  0  0  0  0  0  0
   -1.5397   -0.6135    1.9902 H   0  0  0  0  0  0  0  0  0  0  0  0
   -3.0174   -0.8032   -0.7172 H   0  0  0  0  0  0  0  0  0  0  0  0
   -3.6638   -0.1004    0.7404 H   0  0  0  0  0  0  0  0  0  0  0  0
   -3.7406   -1.7082    2.8952 H   0  0  0  0  0  0  0  0  0  0  0  0
   -4.6491   -3.9035    3.5568 H   0  0  0  0  0  0  0  0  0  0  0  0
   -4.9925   -5.6784    1.8595 H   0  0  0  0  0  0  0  0  0  0  0  0
   -4.4223   -5.2485   -0.5166 H   0  0  0  0  0  0  0  0  0  0  0  0
   -3.5098   -3.0604   -1.2006 H   0  0  0  0  0  0  0  0  0  0  0  0
    1.0770    2.7139   -2.4509 H   0  0  0  0  0  0  0  0  0  0  0  0
   -2.1303    4.6217   -0.1569 H   0  0  0  0  0  0  0  0  0  0  0  0
   -1.7065    7.0266   -0.3600 H   0  0  0  0  0  0  0  0  0  0  0  0
    0.5785    7.8694   -0.8296 H   0  0  0  0  0  0  0  0  0  0  0  0
    2.4643    6.2739   -1.0565 H   0  0  0  0  0  0  0  0  0  0  0  0
    2.0902    3.8629   -0.8006 H   0  0  0  0  0  0  0  0  0  0  0  0
   -2.5690    2.0442    1.7707 H   0  0  0  0  0  0  0  0  0  0  0  0
    1.2245   -2.4870   -3.5094 H   0  0  0  0  0  0  0  0  0  0  0  0
  1  2  1  0
  2  3  1  0
  3  4  2  0
  4  5  1  0
  5  6  2  0
  6  7  1  0
  7  8  2  0
  7  9  1  0
  9 10  1  0
 10 11  1  0
 11 12  1  0
 12 13  1  0
 13 14  2  0
 14 15  1  0
 15 16  2  0
 16 17  1  0
 17 18  2  0
 11 19  1  0
 19 20  1  0
 20 21  2  0
 21 22  1  0
 21 23  1  0
 23 24  1  0
 24 25  2  0
 25 26  1  0
 26 27  2  0
 27 28  1  0
 28 29  2  0
 23 30  1  0
 30 31  1  0
  9 32  1  0
 32 33  2  0
 32 34  1  0
  8  3  1  0
 20  9  1  0
 29 24  1  0
 34  6  1  0
 18 13  1  0
 30 19  2  0
  1 35  1  0
  1 36  1  0
  1 37  1  0
  4 38  1  0
  5 39  1  0
  8 40  1  0
 10 41  1  0
 11 42  1  1
 12 43  1  0
 12 44  1  0
 14 45  1  0
 15 46  1  0
 16 47  1  0
 17 48  1  0
 18 49  1  0
 22 50  1  0
 25 51  1  0
 26 52  1  0
 27 53  1  0
 28 54  1  0
 29 55  1  0
 31 56  1  0
 34 57  1  0
M  END
$$$$
