
     RDKit          3D

 39 40  0  0  0  0  0  0  0  0999 V2000
   -1.9370   -2.5545    1.9058 C   0  0  0  0  0  0  0  0  0  0  0  0
   -2.6270   -1.2970    1.3912 C   0  0  0  0  0  0  0  0  0  0  0  0
   -2.2843   -1.1310    0.0100 O   0  0  0  0  0  0  0  0  0  0  0  0
   -2.7640   -0.0145   -0.6361 C   0  0  0  0  0  0  0  0  0  0  0  0
   -3.5094    1.0051   -0.0394 C   0  0  0  0  0  0  0  0  0  0  0  0
   -3.8683    2.1317   -0.7788 C   0  0  0  0  0  0  0  0  0  0  0  0
   -3.4925    2.2426   -2.1166 C   0  0  0  0  0  0  0  0  0  0  0  0
   -2.7754    1.2173   -2.7315 C   0  0  0  0  0  0  0  0  0  0  0  0
   -2.4064    0.0948   -1.9922 C   0  0  0  0  0  0  0  0  0  0  0  0
   -1.7388   -0.9689   -2.5469 O   0  0  0  0  0  0  0  0  0  0  0  0
   -0.5306   -0.6396   -3.2253 C   0  0  0  0  0  0  0  0  0  0  0  0
    0.6171   -0.0895   -2.3614 C   0  0  0  0  0  0  0  0  0  0  0  0
    1.4903    0.6119   -2.8732 O   0  0  0  0  0  0  0  0  0  0  0  0
    0.5499   -0.5029   -1.0464 N   0  0  0  0  0  0  0  0  0  0  0  0
    1.3867   -0.1276   -0.0267 C   0  0  0  0  0  0  0  0  0  0  0  0
    1.1363   -0.3997    1.2356 N   0  0  0  0  0  0  0  0  0  0  0  0
    2.1100    0.0957    2.0822 N   0  0  0  0  0  0  0  0  0  0  0  0
    3.0578    0.7275    1.4243 C   0  0  0  0  0  0  0  0  0  0  0  0
    4.2332    1.4181    2.0360 C   0  0  0  0  0  0  0  0  0  0  0  0
    4.9301    0.5171    2.9106 O   0  0  0  0  0  0  0  0  0  0  0  0
    5.7717   -0.4021    2.2200 C   0  0  0  0  0  0  0  0  0  0  0  0
    2.8503    0.7071   -0.2853 S   0  0  0  0  0  0  0  0  0  0  0  0
   -0.8472   -2.4655    1.7931 H   0  0  0  0  0  0  0  0  0  0  0  0
   -2.1681   -2.7267    2.9636 H   0  0  0  0  0  0  0  0  0  0  0  0
   -2.2528   -3.4319    1.3346 H   0  0  0  0  0  0  0  0  0  0  0  0
   -2.2729   -0.4400    1.9839 H   0  0  0  0  0  0  0  0  0  0  0  0
   -3.7156   -1.4107    1.4938 H   0  0  0  0  0  0  0  0  0  0  0  0
   -3.8205    0.9537    0.9962 H   0  0  0  0  0  0  0  0  0  0  0  0
   -4.4405    2.9315   -0.3115 H   0  0  0  0  0  0  0  0  0  0  0  0
   -3.7715    3.1260   -2.6824 H   0  0  0  0  0  0  0  0  0  0  0  0
   -2.5307    1.3054   -3.7875 H   0  0  0  0  0  0  0  0  0  0  0  0
   -0.1554   -1.5723   -3.6661 H   0  0  0  0  0  0  0  0  0  0  0  0
   -0.7162    0.0423   -4.0612 H   0  0  0  0  0  0  0  0  0  0  0  0
   -0.2917   -0.9868   -0.7353 H   0  0  0  0  0  0  0  0  0  0  0  0
    4.9273    1.8502    1.2989 H   0  0  0  0  0  0  0  0  0  0  0  0
    3.8603    2.2442    2.6591 H   0  0  0  0  0  0  0  0  0  0  0  0
    6.5396    0.1298    1.6485 H   0  0  0  0  0  0  0  0  0  0  0  0
    5.1887   -1.0521    1.5550 H   0  0  0  0  0  0  0  0  0  0  0  0
    6.2675   -1.0255    2.9614 H   0  0  0  0  0  0  0  0  0  0  0  0
  1  2  1  0
  2  3  1  0
  3  4  1  0
  4  5  2  0
  5  6  1  0
  6  7  2  0
  7  8  1  0
  8  9  2  0
  9 10  1  0
 10 11  1  0
 11 12  1  0
 12 13  2  0
 12 14  1  0
 14 15  1  0
 15 16  2  0
 16 17  1  0
 17 18  2  0
 18 19  1  0
 19 20  1  0
 20 21  1  0
 18 22  1  0
  9  4  1  0
 22 15  1  0
  1 23  1  0
  1 24  1  0
  1 25  1  0
  2 26  1  0
  2 27  1  0
  5 28  1  0
  6 29  1  0
  7 30  1  0
  8 31  1  0
 11 32  1  0
 11 33  1  0
 14 34  1  0
 19 35  1  0
 19 36  1  0
 21 37  1  0
 21 38  1  0
 21 39  1  0
M  END
$$$$
