
     RDKit          3D

 54 57  0  0  0  0  0  0  0  0999 V2000
   -6.2300    2.3890   -1.6130 C   0  0  0  0  0  0  0  0  0  0  0  0
   -4.7749    2.0823   -1.4206 C   0  0  0  0  0  0  0  0  0  0  0  0
   -4.0670    1.3654   -2.3866 C   0  0  0  0  0  0  0  0  0  0  0  0
   -2.7096    1.0273   -2.2118 C   0  0  0  0  0  0  0  0  0  0  0  0
   -2.0992    0.1530   -3.2745 C   0  0  0  0  0  0  0  0  0  0  0  0
   -2.0328    1.4735   -1.0576 C   0  0  0  0  0  0  0  0  0  0  0  0
   -0.6604    1.2300   -0.8123 N   0  0  0  0  0  0  0  0  0  0  0  0
    0.3704    1.2608   -1.7372 C   0  0  0  0  0  0  0  0  0  0  0  0
    0.2860    1.6216   -2.9084 O   0  0  0  0  0  0  0  0  0  0  0  0
    1.7381    0.9436   -1.1256 C   0  0  0  0  0  0  0  0  0  0  0  0
    1.7326   -0.2990   -0.3451 N   0  0  0  0  0  0  0  0  0  0  0  0
    1.4515   -0.2014    1.0104 C   0  0  0  0  0  0  0  0  0  0  0  0
    1.0863    0.8756    1.4950 O   0  0  0  0  0  0  0  0  0  0  0  0
    1.5577   -1.3543    1.7661 N   0  0  0  0  0  0  0  0  0  0  0  0
    1.3694   -1.2397    3.2054 C   0  0  0  0  0  0  0  0  0  0  0  0
    2.6380   -0.7743    3.8344 C   0  0  0  0  0  0  0  0  0  0  0  0
    3.1356    0.4737    4.1518 C   0  0  0  0  0  0  0  0  0  0  0  0
    4.4086    0.2608    4.7326 C   0  0  0  0  0  0  0  0  0  0  0  0
    4.6063   -1.0997    4.7336 C   0  0  0  0  0  0  0  0  0  0  0  0
    3.5374   -1.7359    4.1908 O   0  0  0  0  0  0  0  0  0  0  0  0
    1.7798   -2.6200    1.2459 C   0  0  0  0  0  0  0  0  0  0  0  0
    1.7913   -3.6503    1.9152 O   0  0  0  0  0  0  0  0  0  0  0  0
    1.9719   -2.7129   -0.2106 C   0  0  0  0  0  0  0  0  0  0  0  0
    2.1764   -3.9710   -0.7990 C   0  0  0  0  0  0  0  0  0  0  0  0
    2.3411   -4.0790   -2.1763 C   0  0  0  0  0  0  0  0  0  0  0  0
    2.2960   -2.9333   -2.9625 C   0  0  0  0  0  0  0  0  0  0  0  0
    2.0947   -1.6799   -2.3726 C   0  0  0  0  0  0  0  0  0  0  0  0
    1.9386   -1.5520   -0.9828 C   0  0  0  0  0  0  0  0  0  0  0  0
   -2.7612    2.1481   -0.0465 C   0  0  0  0  0  0  0  0  0  0  0  0
   -2.1240    2.5978    1.2442 C   0  0  0  0  0  0  0  0  0  0  0  0
   -4.1221    2.4421   -0.2424 C   0  0  0  0  0  0  0  0  0  0  0  0
   -6.5060    3.3142   -1.0961 H   0  0  0  0  0  0  0  0  0  0  0  0
   -6.8405    1.5694   -1.2216 H   0  0  0  0  0  0  0  0  0  0  0  0
   -6.4628    2.5291   -2.6738 H   0  0  0  0  0  0  0  0  0  0  0  0
   -4.5846    1.0403   -3.2885 H   0  0  0  0  0  0  0  0  0  0  0  0
   -2.8531   -0.5247   -3.6929 H   0  0  0  0  0  0  0  0  0  0  0  0
   -1.7059    0.7609   -4.0938 H   0  0  0  0  0  0  0  0  0  0  0  0
   -1.3159   -0.4942   -2.8697 H   0  0  0  0  0  0  0  0  0  0  0  0
   -0.3476    1.3490    0.1485 H   0  0  0  0  0  0  0  0  0  0  0  0
    2.0138    1.7896   -0.4837 H   0  0  0  0  0  0  0  0  0  0  0  0
    2.5046    0.9036   -1.9057 H   0  0  0  0  0  0  0  0  0  0  0  0
    1.0649   -2.1971    3.6422 H   0  0  0  0  0  0  0  0  0  0  0  0
    0.5666   -0.5238    3.4175 H   0  0  0  0  0  0  0  0  0  0  0  0
    2.6384    1.4184    3.9766 H   0  0  0  0  0  0  0  0  0  0  0  0
    5.0985    1.0054    5.1039 H   0  0  0  0  0  0  0  0  0  0  0  0
    5.4107   -1.7409    5.0663 H   0  0  0  0  0  0  0  0  0  0  0  0
    2.2040   -4.8683   -0.1832 H   0  0  0  0  0  0  0  0  0  0  0  0
    2.4970   -5.0531   -2.6335 H   0  0  0  0  0  0  0  0  0  0  0  0
    2.4126   -3.0108   -4.0416 H   0  0  0  0  0  0  0  0  0  0  0  0
    2.0488   -0.8263   -3.0435 H   0  0  0  0  0  0  0  0  0  0  0  0
   -1.7944    1.7308    1.8256 H   0  0  0  0  0  0  0  0  0  0  0  0
   -1.2717    3.2545    1.0418 H   0  0  0  0  0  0  0  0  0  0  0  0
   -2.8259    3.1623    1.8676 H   0  0  0  0  0  0  0  0  0  0  0  0
   -4.6775    2.9701    0.5309 H   0  0  0  0  0  0  0  0  0  0  0  0
  1  2  1  0
  2  3  2  0
  3  4  1  0
  4  5  1  0
  4  6  2  0
  6  7  1  0
  7  8  1  0
  8  9  2  0
  8 10  1  0
 10 11  1  0
 11 12  1  0
 12 13  2  0
 12 14  1  0
 14 15  1  0
 15 16  1  0
 16 17  2  0
 17 18  1  0
 18 19  2  0
 19 20  1  0
 14 21  1  0
 21 22  2  0
 21 23  1  0
 23 24  2  0
 24 25  1  0
 25 26  2  0
 26 27  1  0
 27 28  2  0
  6 29  1  0
 29 30  1  0
 29 31  2  0
 31  2  1  0
 28 11  1  0
 20 16  1  0
 28 23  1  0
  1 32  1  0
  1 33  1  0
  1 34  1  0
  3 35  1  0
  5 36  1  0
  5 37  1  0
  5 38  1  0
  7 39  1  0
 10 40  1  0
 10 41  1  0
 15 42  1  0
 15 43  1  0
 17 44  1  0
 18 45  1  0
 19 46  1  0
 24 47  1  0
 25 48  1  0
 26 49  1  0
 27 50  1  0
 30 51  1  0
 30 52  1  0
 30 53  1  0
 31 54  1  0
M  END
$$$$
