
     RDKit          3D

 43 45  0  0  0  0  0  0  0  0999 V2000
    4.4890    5.1196    0.7006 C   0  0  0  0  0  0  0  0  0  0  0  0
    4.6534    3.7694    1.1095 O   0  0  0  0  0  0  0  0  0  0  0  0
    3.6209    2.8967    0.8791 C   0  0  0  0  0  0  0  0  0  0  0  0
    2.4233    3.2373    0.2458 C   0  0  0  0  0  0  0  0  0  0  0  0
    1.4243    2.2769    0.0540 C   0  0  0  0  0  0  0  0  0  0  0  0
    1.6024    0.9637    0.5008 C   0  0  0  0  0  0  0  0  0  0  0  0
    0.5911   -0.0858    0.2948 C   0  0  0  0  0  0  0  0  0  0  0  0
   -0.7336    0.1295    0.3458 C   0  0  0  0  0  0  0  0  0  0  0  0
   -1.7080   -0.9531    0.1649 C   0  0  0  0  0  0  0  0  0  0  0  0
   -1.7949   -1.9348    1.1542 C   0  0  0  0  0  0  0  0  0  0  0  0
   -2.7254   -2.9520    1.0452 C   0  0  0  0  0  0  0  0  0  0  0  0
   -3.5797   -2.9803   -0.0503 C   0  0  0  0  0  0  0  0  0  0  0  0
   -4.5358   -4.0005   -0.1643 C   0  0  0  0  0  0  0  0  0  0  0  0
   -5.4050   -4.0404   -1.2515 C   0  0  0  0  0  0  0  0  0  0  0  0
   -5.3298   -3.0618   -2.2339 C   0  0  0  0  0  0  0  0  0  0  0  0
   -4.3810   -2.0391   -2.1347 C   0  0  0  0  0  0  0  0  0  0  0  0
   -3.4836   -1.9737   -1.0492 C   0  0  0  0  0  0  0  0  0  0  0  0
   -2.5347   -0.9867   -0.9200 N   0  0  0  0  0  4  0  0  0  0  0  0
   -2.4009    0.0293   -1.9918 C   0  0  0  0  0  0  0  0  0  0  0  0
    2.8123    0.6188    1.1216 C   0  0  0  0  0  0  0  0  0  0  0  0
    3.8189    1.5736    1.3190 C   0  0  0  0  0  0  0  0  0  0  0  0
    5.0235    1.3177    1.9247 O   0  0  0  0  0  0  0  0  0  0  0  0
    5.2738    0.0009    2.3925 C   0  0  0  0  0  0  0  0  0  0  0  0
    5.3972    5.6654    0.9741 H   0  0  0  0  0  0  0  0  0  0  0  0
    3.6484    5.5904    1.2208 H   0  0  0  0  0  0  0  0  0  0  0  0
    4.3725    5.1909   -0.3858 H   0  0  0  0  0  0  0  0  0  0  0  0
    2.2396    4.2440   -0.1158 H   0  0  0  0  0  0  0  0  0  0  0  0
    0.5167    2.5810   -0.4596 H   0  0  0  0  0  0  0  0  0  0  0  0
    0.9925   -1.0837    0.1188 H   0  0  0  0  0  0  0  0  0  0  0  0
   -1.1478    1.1135    0.5510 H   0  0  0  0  0  0  0  0  0  0  0  0
   -1.1403   -1.9044    2.0248 H   0  0  0  0  0  0  0  0  0  0  0  0
   -2.7824   -3.7107    1.8255 H   0  0  0  0  0  0  0  0  0  0  0  0
   -4.6181   -4.7788    0.5947 H   0  0  0  0  0  0  0  0  0  0  0  0
   -6.1442   -4.8368   -1.3293 H   0  0  0  0  0  0  0  0  0  0  0  0
   -6.0144   -3.0952   -3.0808 H   0  0  0  0  0  0  0  0  0  0  0  0
   -4.3809   -1.3038   -2.9342 H   0  0  0  0  0  0  0  0  0  0  0  0
   -1.5496    0.6910   -1.8378 H   0  0  0  0  0  0  0  0  0  0  0  0
   -2.2465   -0.4943   -2.9397 H   0  0  0  0  0  0  0  0  0  0  0  0
   -3.3182    0.6245   -2.0031 H   0  0  0  0  0  0  0  0  0  0  0  0
    2.9554   -0.4036    1.4566 H   0  0  0  0  0  0  0  0  0  0  0  0
    4.5550   -0.2860    3.1670 H   0  0  0  0  0  0  0  0  0  0  0  0
    5.2737   -0.7178    1.5665 H   0  0  0  0  0  0  0  0  0  0  0  0
    6.2708   -0.0109    2.8434 H   0  0  0  0  0  0  0  0  0  0  0  0
  1  2  1  0
  2  3  1  0
  3  4  2  0
  4  5  1  0
  5  6  2  0
  6  7  1  0
  7  8  2  3
  8  9  1  0
  9 10  2  0
 10 11  1  0
 11 12  2  0
 12 13  1  0
 13 14  2  0
 14 15  1  0
 15 16  2  0
 16 17  1  0
 17 18  2  0
 18 19  1  0
  6 20  1  0
 20 21  2  0
 21 22  1  0
 22 23  1  0
 21  3  1  0
 18  9  1  0
 17 12  1  0
  1 24  1  0
  1 25  1  0
  1 26  1  0
  4 27  1  0
  5 28  1  0
  7 29  1  0
  8 30  1  0
 10 31  1  0
 11 32  1  0
 13 33  1  0
 14 34  1  0
 15 35  1  0
 16 36  1  0
 19 37  1  0
 19 38  1  0
 19 39  1  0
 20 40  1  0
 23 41  1  0
 23 42  1  0
 23 43  1  0
M  CHG  1  18   1
M  END
$$$$
