
     RDKit          3D

 33 33  0  0  0  0  0  0  0  0999 V2000
   -2.6195    3.7263   -1.0078 C   0  0  0  0  0  0  0  0  0  0  0  0
   -2.9203    2.4032   -0.3486 C   0  0  0  0  0  0  0  0  0  0  0  0
   -4.0723    1.9914   -0.2700 O   0  0  0  0  0  0  0  0  0  0  0  0
   -1.7792    1.7630    0.0883 N   0  0  0  0  0  0  0  0  0  0  0  0
   -1.6737    0.5172    0.7483 C   0  0  0  0  0  0  0  0  0  0  0  0
   -2.7748   -0.2722    1.0855 C   0  0  0  0  0  0  0  0  0  0  0  0
   -2.5928   -1.4922    1.7399 C   0  0  0  0  0  0  0  0  0  0  0  0
   -1.3111   -1.9317    2.0581 C   0  0  0  0  0  0  0  0  0  0  0  0
   -0.2008   -1.1531    1.7274 C   0  0  0  0  0  0  0  0  0  0  0  0
   -0.3739    0.0743    1.0799 C   0  0  0  0  0  0  0  0  0  0  0  0
    0.6523    0.9038    0.6847 O   0  0  0  0  0  0  0  0  0  0  0  0
    1.9354    0.6941    1.2647 C   0  0  0  0  0  0  0  0  0  0  0  0
    2.8335   -0.3008    0.5208 C   0  0  0  0  0  0  0  0  0  0  0  0
    3.9306   -0.6410    0.9546 O   0  0  0  0  0  0  0  0  0  0  0  0
    2.3258   -0.7671   -0.6690 N   0  0  0  0  0  0  0  0  0  0  0  0
    3.1108   -1.6288   -1.5529 C   0  0  0  0  0  0  0  0  0  0  0  0
    2.2969   -2.3738   -2.6071 C   0  0  0  0  0  0  0  0  0  0  0  0
    1.5782   -1.5060   -3.3573 F   0  0  0  0  0  0  0  0  0  0  0  0
    1.4315   -3.2434   -2.0424 F   0  0  0  0  0  0  0  0  0  0  0  0
    3.1000   -3.0699   -3.4405 F   0  0  0  0  0  0  0  0  0  0  0  0
   -3.4736    4.3973   -0.8779 H   0  0  0  0  0  0  0  0  0  0  0  0
   -1.7443    4.2033   -0.5575 H   0  0  0  0  0  0  0  0  0  0  0  0
   -2.4403    3.5654   -2.0740 H   0  0  0  0  0  0  0  0  0  0  0  0
   -0.8874    2.2196   -0.0691 H   0  0  0  0  0  0  0  0  0  0  0  0
   -3.7901    0.0337    0.8535 H   0  0  0  0  0  0  0  0  0  0  0  0
   -3.4576   -2.0997    1.9964 H   0  0  0  0  0  0  0  0  0  0  0  0
   -1.1758   -2.8869    2.5603 H   0  0  0  0  0  0  0  0  0  0  0  0
    0.7789   -1.5458    1.9787 H   0  0  0  0  0  0  0  0  0  0  0  0
    2.4531    1.6594    1.2224 H   0  0  0  0  0  0  0  0  0  0  0  0
    1.8685    0.4196    2.3239 H   0  0  0  0  0  0  0  0  0  0  0  0
    1.4811   -0.3273   -1.0272 H   0  0  0  0  0  0  0  0  0  0  0  0
    3.8462   -0.9842   -2.0467 H   0  0  0  0  0  0  0  0  0  0  0  0
    3.6645   -2.3478   -0.9395 H   0  0  0  0  0  0  0  0  0  0  0  0
  1  2  1  0
  2  3  2  0
  2  4  1  0
  4  5  1  0
  5  6  2  0
  6  7  1  0
  7  8  2  0
  8  9  1  0
  9 10  2  0
 10 11  1  0
 11 12  1  0
 12 13  1  0
 13 14  2  0
 13 15  1  0
 15 16  1  0
 16 17  1  0
 17 18  1  0
 17 19  1  0
 17 20  1  0
 10  5  1  0
  1 21  1  0
  1 22  1  0
  1 23  1  0
  4 24  1  0
  6 25  1  0
  7 26  1  0
  8 27  1  0
  9 28  1  0
 12 29  1  0
 12 30  1  0
 15 31  1  0
 16 32  1  0
 16 33  1  0
M  END
$$$$
