
     RDKit          3D

 36 37  0  0  0  0  0  0  0  0999 V2000
    0.3944   -2.5721   -1.4752 O   0  0  0  0  0  0  0  0  0  0  0  0
    0.1671   -1.3720   -1.6026 C   0  0  0  0  0  0  0  0  0  0  0  0
   -0.9849   -0.8462   -2.4643 C   0  0  0  0  0  0  0  0  0  0  0  0
   -2.1662   -0.5563   -1.7142 O   0  0  0  0  0  0  0  0  0  0  0  0
   -2.1176    0.5905   -0.9970 C   0  0  0  0  0  0  0  0  0  0  0  0
   -1.1905    1.3812   -0.9570 O   0  0  0  0  0  0  0  0  0  0  0  0
   -3.3708    0.7203   -0.2356 C   0  0  0  0  0  0  0  0  0  0  0  0
   -4.5872    0.6918   -0.9345 C   0  0  0  0  0  0  0  0  0  0  0  0
   -5.7835    0.8393   -0.2361 C   0  0  0  0  0  0  0  0  0  0  0  0
   -7.2771    0.8149   -1.0875 Cl  0  0  0  0  0  0  0  0  0  0  0  0
   -5.7788    1.0116    1.1477 C   0  0  0  0  0  0  0  0  0  0  0  0
   -4.5659    1.0358    1.8421 C   0  0  0  0  0  0  0  0  0  0  0  0
   -3.3565    0.8929    1.1532 C   0  0  0  0  0  0  0  0  0  0  0  0
   -1.8999    0.8915    2.0787 Cl  0  0  0  0  0  0  0  0  0  0  0  0
    0.9180   -0.3835   -0.9968 N   0  0  0  0  0  0  0  0  0  0  0  0
    1.9266   -0.7241   -0.0091 C   0  0  0  0  0  0  0  0  0  0  0  0
    2.9081    0.4243    0.2358 C   0  0  0  0  0  0  0  0  0  0  0  0
    3.8977    0.0987    1.2466 N   0  0  0  0  0  0  0  0  0  0  0  0
    5.0447   -0.6090    0.9835 C   0  0  0  0  0  0  0  0  0  0  0  0
    5.3029   -0.9923   -0.2978 O   0  0  0  0  0  0  0  0  0  0  0  0
    5.8050   -0.8547    2.0570 C   0  0  0  0  0  0  0  0  0  0  0  0
    5.0880   -0.2012    3.4991 S   0  0  0  0  0  0  0  0  0  0  0  0
    3.6969    0.4120    2.5815 C   0  0  0  0  0  0  0  0  0  0  0  0
    2.7540    0.9946    3.0899 O   0  0  0  0  0  0  0  0  0  0  0  0
   -0.6607    0.0298   -3.0404 H   0  0  0  0  0  0  0  0  0  0  0  0
   -1.2386   -1.6216   -3.1958 H   0  0  0  0  0  0  0  0  0  0  0  0
   -4.5983    0.5616   -2.0142 H   0  0  0  0  0  0  0  0  0  0  0  0
   -6.7132    1.1259    1.6925 H   0  0  0  0  0  0  0  0  0  0  0  0
   -4.5715    1.1634    2.9233 H   0  0  0  0  0  0  0  0  0  0  0  0
    0.4479    0.5175   -0.8888 H   0  0  0  0  0  0  0  0  0  0  0  0
    2.4603   -1.6211   -0.3420 H   0  0  0  0  0  0  0  0  0  0  0  0
    1.4007   -0.9868    0.9161 H   0  0  0  0  0  0  0  0  0  0  0  0
    3.4159    0.7074   -0.6943 H   0  0  0  0  0  0  0  0  0  0  0  0
    2.3490    1.3090    0.5663 H   0  0  0  0  0  0  0  0  0  0  0  0
    6.1417   -1.4836   -0.3089 H   0  0  0  0  0  0  0  0  0  0  0  0
    6.7423   -1.3895    2.0695 H   0  0  0  0  0  0  0  0  0  0  0  0
  1  2  2  0
  2  3  1  0
  3  4  1  0
  4  5  1  0
  5  6  2  0
  5  7  1  0
  7  8  2  0
  8  9  1  0
  9 10  1  0
  9 11  2  0
 11 12  1  0
 12 13  2  0
 13 14  1  0
  2 15  1  0
 15 16  1  0
 16 17  1  0
 17 18  1  0
 18 19  1  0
 19 20  1  0
 19 21  2  0
 21 22  1  0
 22 23  1  0
 23 24  2  0
 13  7  1  0
 23 18  1  0
  3 25  1  0
  3 26  1  0
  8 27  1  0
 11 28  1  0
 12 29  1  0
 15 30  1  0
 16 31  1  0
 16 32  1  0
 17 33  1  0
 17 34  1  0
 20 35  1  0
 21 36  1  0
M  END
$$$$
