
     RDKit          3D

 36 35  0  0  0  0  0  0  0  0999 V2000
    3.2276   -3.0197    0.8608 C   0  0  0  0  0  0  0  0  0  0  0  0
    2.7589   -2.1041   -0.2609 C   0  0  0  0  0  0  0  0  0  0  0  0
    2.6906   -0.6994    0.1801 N   0  0  0  0  0  0  0  0  0  0  0  0
    3.9364    0.0620   -0.0241 C   0  0  0  0  0  0  0  0  0  0  0  0
    3.9312    0.7931   -1.3585 C   0  0  0  0  0  0  0  0  0  0  0  0
    1.5666   -0.1186    0.8032 C   0  0  0  0  0  0  0  0  0  0  0  0
    1.5399    1.3933    1.5551 S   0  0  0  0  0  0  0  0  0  0  0  0
    0.0732   -1.0743    0.8689 S   0  0  0  0  0  0  0  0  0  0  0  0
   -0.6484   -0.9120   -1.0650 S   0  0  0  0  0  0  0  0  0  0  0  0
   -1.3996    0.6955   -1.0612 C   0  0  0  0  0  0  0  0  0  0  0  0
   -0.5791    1.9241   -1.8791 S   0  0  0  0  0  0  0  0  0  0  0  0
   -2.6518    0.8332   -0.4274 N   0  0  0  0  0  0  0  0  0  0  0  0
   -3.4541   -0.2966    0.0748 C   0  0  0  0  0  0  0  0  0  0  0  0
   -4.3539   -0.8691   -1.0110 C   0  0  0  0  0  0  0  0  0  0  0  0
   -3.2957    2.1505   -0.2733 C   0  0  0  0  0  0  0  0  0  0  0  0
   -2.8835    2.8243    1.0272 C   0  0  0  0  0  0  0  0  0  0  0  0
    2.5459   -2.9833    1.7162 H   0  0  0  0  0  0  0  0  0  0  0  0
    4.2219   -2.7312    1.2166 H   0  0  0  0  0  0  0  0  0  0  0  0
    3.2793   -4.0546    0.5088 H   0  0  0  0  0  0  0  0  0  0  0  0
    1.7954   -2.4550   -0.6312 H   0  0  0  0  0  0  0  0  0  0  0  0
    3.4483   -2.1714   -1.1107 H   0  0  0  0  0  0  0  0  0  0  0  0
    4.7854   -0.6306    0.0164 H   0  0  0  0  0  0  0  0  0  0  0  0
    4.0948    0.7772    0.7872 H   0  0  0  0  0  0  0  0  0  0  0  0
    4.8703    1.3376   -1.4964 H   0  0  0  0  0  0  0  0  0  0  0  0
    3.1082    1.5119   -1.4165 H   0  0  0  0  0  0  0  0  0  0  0  0
    3.8180    0.0913   -2.1912 H   0  0  0  0  0  0  0  0  0  0  0  0
   -4.0619    0.0527    0.9178 H   0  0  0  0  0  0  0  0  0  0  0  0
   -2.8223   -1.0910    0.4728 H   0  0  0  0  0  0  0  0  0  0  0  0
   -4.9458   -1.6996   -0.6140 H   0  0  0  0  0  0  0  0  0  0  0  0
   -3.7692   -1.2405   -1.8584 H   0  0  0  0  0  0  0  0  0  0  0  0
   -5.0449   -0.1103   -1.3920 H   0  0  0  0  0  0  0  0  0  0  0  0
   -3.0580    2.8028   -1.1176 H   0  0  0  0  0  0  0  0  0  0  0  0
   -4.3837    2.0175   -0.2938 H   0  0  0  0  0  0  0  0  0  0  0  0
   -1.8031    2.9942    1.0637 H   0  0  0  0  0  0  0  0  0  0  0  0
   -3.1519    2.2085    1.8917 H   0  0  0  0  0  0  0  0  0  0  0  0
   -3.3847    3.7917    1.1286 H   0  0  0  0  0  0  0  0  0  0  0  0
  1  2  1  0
  2  3  1  0
  3  4  1  0
  4  5  1  0
  3  6  1  0
  6  7  2  0
  6  8  1  0
  8  9  1  0
  9 10  1  0
 10 11  2  0
 10 12  1  0
 12 13  1  0
 13 14  1  0
 12 15  1  0
 15 16  1  0
  1 17  1  0
  1 18  1  0
  1 19  1  0
  2 20  1  0
  2 21  1  0
  4 22  1  0
  4 23  1  0
  5 24  1  0
  5 25  1  0
  5 26  1  0
 13 27  1  0
 13 28  1  0
 14 29  1  0
 14 30  1  0
 14 31  1  0
 15 32  1  0
 15 33  1  0
 16 34  1  0
 16 35  1  0
 16 36  1  0
M  END
$$$$
