
     RDKit          3D

 53 55  0  0  0  0  0  0  0  0999 V2000
   -4.4431   -4.0349   -1.3927 C   0  0  0  0  0  0  0  0  0  0  0  0
   -3.4317   -3.2866   -0.7145 O   0  0  0  0  0  0  0  0  0  0  0  0
   -3.5978   -1.9255   -0.6726 C   0  0  0  0  0  0  0  0  0  0  0  0
   -2.7229   -1.2537    0.1925 C   0  0  0  0  0  0  0  0  0  0  0  0
   -2.7930    0.1381    0.3464 C   0  0  0  0  0  0  0  0  0  0  0  0
   -1.9068    0.7347    1.2779 N   0  0  0  0  0  0  0  0  0  0  0  0
   -1.8410    2.0768    1.6143 C   0  0  0  0  0  0  0  0  0  0  0  0
   -2.4701    3.0025    1.1045 O   0  0  0  0  0  0  0  0  0  0  0  0
   -0.8390    2.3581    2.7079 C   0  0  0  0  0  0  0  0  0  0  0  0
    0.5614    2.4440    2.1035 C   0  0  0  0  0  0  0  0  0  0  0  0
    1.5546    1.8923    3.0388 N   0  0  0  0  0  0  0  0  0  0  0  0
    1.7632    0.2242    3.1095 S   0  0  0  0  0  6  0  0  0  0  0  0
    0.5400   -0.4145    2.6410 O   0  0  0  0  0  0  0  0  0  0  0  0
    2.3087   -0.0262    4.4285 O   0  0  0  0  0  0  0  0  0  0  0  0
    3.0406   -0.0502    1.9012 C   0  0  0  0  0  0  0  0  0  0  0  0
    4.3808   -0.0962    2.3028 C   0  0  0  0  0  0  0  0  0  0  0  0
    5.3710   -0.3716    1.3562 C   0  0  0  0  0  0  0  0  0  0  0  0
    5.0150   -0.5864    0.0201 C   0  0  0  0  0  0  0  0  0  0  0  0
    3.6722   -0.5457   -0.3850 C   0  0  0  0  0  0  0  0  0  0  0  0
    2.6784   -0.2926    0.5657 C   0  0  0  0  0  0  0  0  0  0  0  0
    3.3209   -0.8888   -1.8080 C   0  0  0  0  0  0  0  0  0  0  0  0
    4.4345   -0.4853   -2.7554 C   0  0  0  0  0  0  0  0  0  0  0  0
    5.7819   -0.9709   -2.2677 C   0  0  0  0  0  0  0  0  0  0  0  0
    6.6724   -1.3354   -3.0300 O   0  0  0  0  0  0  0  0  0  0  0  0
    6.0060   -0.8839   -0.9178 N   0  0  0  0  0  0  0  0  0  0  0  0
   -3.7409    0.8563   -0.3985 C   0  0  0  0  0  0  0  0  0  0  0  0
   -4.6160    0.1954   -1.2681 C   0  0  0  0  0  0  0  0  0  0  0  0
   -5.5907    0.7869   -2.0341 O   0  0  0  0  0  0  0  0  0  0  0  0
   -5.7481    2.1952   -1.8924 C   0  0  0  0  0  0  0  0  0  0  0  0
   -4.5363   -1.1941   -1.4062 C   0  0  0  0  0  0  0  0  0  0  0  0
   -4.2526   -5.0953   -1.2057 H   0  0  0  0  0  0  0  0  0  0  0  0
   -5.4446   -3.8036   -1.0058 H   0  0  0  0  0  0  0  0  0  0  0  0
   -4.3932   -3.8670   -2.4757 H   0  0  0  0  0  0  0  0  0  0  0  0
   -1.9963   -1.8429    0.7599 H   0  0  0  0  0  0  0  0  0  0  0  0
   -1.2797    0.0937    1.7787 H   0  0  0  0  0  0  0  0  0  0  0  0
   -1.1080    3.2999    3.2018 H   0  0  0  0  0  0  0  0  0  0  0  0
   -0.9283    1.5814    3.4805 H   0  0  0  0  0  0  0  0  0  0  0  0
    0.8129    3.4954    1.9194 H   0  0  0  0  0  0  0  0  0  0  0  0
    0.6444    1.9431    1.1303 H   0  0  0  0  0  0  0  0  0  0  0  0
    1.6661    2.3300    3.9538 H   0  0  0  0  0  0  0  0  0  0  0  0
    4.6540    0.0691    3.3415 H   0  0  0  0  0  0  0  0  0  0  0  0
    6.4136   -0.4113    1.6691 H   0  0  0  0  0  0  0  0  0  0  0  0
    1.6286   -0.2960    0.2707 H   0  0  0  0  0  0  0  0  0  0  0  0
    3.1451   -1.9705   -1.8671 H   0  0  0  0  0  0  0  0  0  0  0  0
    2.3944   -0.3802   -2.1065 H   0  0  0  0  0  0  0  0  0  0  0  0
    4.2445   -0.8926   -3.7550 H   0  0  0  0  0  0  0  0  0  0  0  0
    4.4912    0.6056   -2.8418 H   0  0  0  0  0  0  0  0  0  0  0  0
    6.9508   -1.0858   -0.6159 H   0  0  0  0  0  0  0  0  0  0  0  0
   -3.8048    1.9302   -0.2963 H   0  0  0  0  0  0  0  0  0  0  0  0
   -6.5930    2.5034   -2.5231 H   0  0  0  0  0  0  0  0  0  0  0  0
   -5.9840    2.4801   -0.8551 H   0  0  0  0  0  0  0  0  0  0  0  0
   -4.8581    2.7244   -2.2530 H   0  0  0  0  0  0  0  0  0  0  0  0
   -5.2272   -1.6732   -2.0933 H   0  0  0  0  0  0  0  0  0  0  0  0
  1  2  1  0
  2  3  1  0
  3  4  2  0
  4  5  1  0
  5  6  1  0
  6  7  1  0
  7  8  2  0
  7  9  1  0
  9 10  1  0
 10 11  1  0
 11 12  1  0
 12 13  2  0
 12 14  2  0
 12 15  1  0
 15 16  2  0
 16 17  1  0
 17 18  2  0
 18 19  1  0
 19 20  2  0
 19 21  1  0
 21 22  1  0
 22 23  1  0
 23 24  2  0
 23 25  1  0
  5 26  2  0
 26 27  1  0
 27 28  1  0
 28 29  1  0
 27 30  2  0
 30  3  1  0
 20 15  1  0
 25 18  1  0
  1 31  1  0
  1 32  1  0
  1 33  1  0
  4 34  1  0
  6 35  1  0
  9 36  1  0
  9 37  1  0
 10 38  1  0
 10 39  1  0
 11 40  1  0
 16 41  1  0
 17 42  1  0
 20 43  1  0
 21 44  1  0
 21 45  1  0
 22 46  1  0
 22 47  1  0
 25 48  1  0
 26 49  1  0
 29 50  1  0
 29 51  1  0
 29 52  1  0
 30 53  1  0
M  END
$$$$
