
     RDKit          3D

102104  0  0  0  0  0  0  0  0999 V2000
    7.9571    2.8030    3.8218 C   0  0  0  0  0  0  0  0  0  0  0  0
    6.8613    2.9346    2.7764 C   0  0  0  0  0  0  0  0  0  0  0  0
    6.1006    1.6207    2.5936 C   0  0  0  0  0  0  0  0  0  0  0  0
    4.9980    1.7590    1.5409 C   0  0  0  0  0  0  0  0  0  0  0  0
    4.2322    0.4462    1.3642 C   0  0  0  0  0  0  0  0  0  0  0  0
    3.1773    0.4863    0.2443 C   0  0  0  0  0  0  0  0  0  0  0  0
    2.0197    1.4371    0.5805 C   0  0  0  0  0  0  0  0  0  0  0  0
    1.0546    1.6055   -0.5776 C   0  0  0  0  0  0  0  0  0  0  0  0
    1.1835    1.0491   -1.6610 O   0  0  0  0  0  0  0  0  0  0  0  0
    0.0137    2.4703   -0.2990 N   0  0  0  0  0  0  0  0  0  0  0  0
   -1.1481    2.5447   -1.1918 C   0  0  0  0  0  0  0  0  0  0  0  0
   -1.6313    3.9924   -1.3185 C   0  0  0  0  0  0  0  0  0  0  0  0
   -2.6749    4.2206   -2.4306 C   0  0  0  0  0  0  0  0  0  0  0  0
   -2.0882    4.0254   -3.8309 C   0  0  0  0  0  0  0  0  0  0  0  0
   -3.2586    5.6311   -2.3090 C   0  0  0  0  0  0  0  0  0  0  0  0
   -2.2230    1.6636   -0.5245 C   0  0  0  0  0  0  0  0  0  0  0  0
   -2.4192    1.6937    0.6904 O   0  0  0  0  0  0  0  0  0  0  0  0
   -2.8941    0.8149   -1.3756 N   0  0  0  0  0  0  0  0  0  0  0  0
   -3.8948   -0.1636   -0.9124 C   0  0  0  0  0  0  0  0  0  0  0  0
   -5.1069    0.4424   -0.1861 C   0  0  0  0  0  0  0  0  0  0  0  0
   -5.8485    1.4734   -1.0076 C   0  0  0  0  0  0  0  0  0  0  0  0
   -5.8291    2.8244   -0.6316 C   0  0  0  0  0  0  0  0  0  0  0  0
   -6.5061    3.7791   -1.3919 C   0  0  0  0  0  0  0  0  0  0  0  0
   -7.2073    3.3950   -2.5338 C   0  0  0  0  0  0  0  0  0  0  0  0
   -7.2413    2.0536   -2.9107 C   0  0  0  0  0  0  0  0  0  0  0  0
   -6.5673    1.0957   -2.1506 C   0  0  0  0  0  0  0  0  0  0  0  0
   -3.2467   -1.2825   -0.0577 C   0  0  0  0  0  0  0  0  0  0  0  0
   -3.8890   -2.0429    0.6582 O   0  0  0  0  0  0  0  0  0  0  0  0
   -1.8989   -1.4120   -0.2641 N   0  0  0  0  0  0  0  0  0  0  0  0
   -0.9883   -2.3223    0.4221 C   0  0  0  0  0  0  0  0  0  0  0  0
   -0.4889   -1.7031    1.7434 C   0  0  0  0  0  0  0  0  0  0  0  0
   -1.5359   -1.5209    2.8601 C   0  0  0  0  0  0  0  0  0  0  0  0
   -0.9135   -0.7433    4.0252 C   0  0  0  0  0  0  0  0  0  0  0  0
   -2.0713   -2.8598    3.3706 C   0  0  0  0  0  0  0  0  0  0  0  0
    0.1713   -2.4975   -0.5976 C   0  0  0  0  0  0  0  0  0  0  0  0
    0.0743   -2.0971   -1.7607 O   0  0  0  0  0  0  0  0  0  0  0  0
    1.3137   -3.1169   -0.1450 N   0  0  0  0  0  0  0  0  0  0  0  0
    2.5463   -3.0313   -0.9421 C   0  0  0  0  0  0  0  0  0  0  0  0
    3.5313   -4.1532   -0.5728 C   0  0  0  0  0  0  0  0  0  0  0  0
    2.9946   -5.5421   -0.8358 C   0  0  0  0  0  0  0  0  0  0  0  0
    2.6741   -6.3977    0.2274 C   0  0  0  0  0  0  0  0  0  0  0  0
    2.1690   -7.6757   -0.0200 C   0  0  0  0  0  0  0  0  0  0  0  0
    1.9819   -8.1113   -1.3298 C   0  0  0  0  0  0  0  0  0  0  0  0
    2.3012   -7.2711   -2.3939 C   0  0  0  0  0  0  0  0  0  0  0  0
    2.8072   -5.9936   -2.1500 C   0  0  0  0  0  0  0  0  0  0  0  0
    3.2734   -1.6810   -0.7668 C   0  0  0  0  0  0  0  0  0  0  0  0
    4.3279   -1.4069   -1.3311 O   0  0  0  0  0  0  0  0  0  0  0  0
    2.6344   -0.8520    0.1156 O   0  0  0  0  0  0  0  0  0  0  0  0
    7.5374    2.5305    4.7958 H   0  0  0  0  0  0  0  0  0  0  0  0
    8.6848    2.0372    3.5336 H   0  0  0  0  0  0  0  0  0  0  0  0
    8.4900    3.7526    3.9335 H   0  0  0  0  0  0  0  0  0  0  0  0
    6.1675    3.7279    3.0800 H   0  0  0  0  0  0  0  0  0  0  0  0
    7.3088    3.2403    1.8235 H   0  0  0  0  0  0  0  0  0  0  0  0
    5.6570    1.3179    3.5496 H   0  0  0  0  0  0  0  0  0  0  0  0
    6.7982    0.8295    2.2938 H   0  0  0  0  0  0  0  0  0  0  0  0
    4.3138    2.5565    1.8501 H   0  0  0  0  0  0  0  0  0  0  0  0
    5.4380    2.0592    0.5824 H   0  0  0  0  0  0  0  0  0  0  0  0
    3.7505    0.1648    2.3095 H   0  0  0  0  0  0  0  0  0  0  0  0
    4.9457   -0.3605    1.1547 H   0  0  0  0  0  0  0  0  0  0  0  0
    3.6410    0.8008   -0.6990 H   0  0  0  0  0  0  0  0  0  0  0  0
    1.4556    1.0564    1.4393 H   0  0  0  0  0  0  0  0  0  0  0  0
    2.3954    2.4352    0.8240 H   0  0  0  0  0  0  0  0  0  0  0  0
   -0.1894    2.6496    0.6802 H   0  0  0  0  0  0  0  0  0  0  0  0
   -0.8763    2.1266   -2.1641 H   0  0  0  0  0  0  0  0  0  0  0  0
   -0.7676    4.6465   -1.5012 H   0  0  0  0  0  0  0  0  0  0  0  0
   -2.0571    4.3134   -0.3572 H   0  0  0  0  0  0  0  0  0  0  0  0
   -3.4983    3.5088   -2.3080 H   0  0  0  0  0  0  0  0  0  0  0  0
   -2.8361    4.2525   -4.5982 H   0  0  0  0  0  0  0  0  0  0  0  0
   -1.2270    4.6805   -3.9978 H   0  0  0  0  0  0  0  0  0  0  0  0
   -1.7692    2.9927   -3.9921 H   0  0  0  0  0  0  0  0  0  0  0  0
   -3.7273    5.7741   -1.3290 H   0  0  0  0  0  0  0  0  0  0  0  0
   -4.0252    5.8034   -3.0716 H   0  0  0  0  0  0  0  0  0  0  0  0
   -2.4828    6.3953   -2.4276 H   0  0  0  0  0  0  0  0  0  0  0  0
   -2.7252    0.8744   -2.3759 H   0  0  0  0  0  0  0  0  0  0  0  0
   -4.2373   -0.6662   -1.8267 H   0  0  0  0  0  0  0  0  0  0  0  0
   -5.8189   -0.3503    0.0789 H   0  0  0  0  0  0  0  0  0  0  0  0
   -4.8007    0.8793    0.7730 H   0  0  0  0  0  0  0  0  0  0  0  0
   -5.2811    3.1408    0.2545 H   0  0  0  0  0  0  0  0  0  0  0  0
   -6.4846    4.8247   -1.0950 H   0  0  0  0  0  0  0  0  0  0  0  0
   -7.7334    4.1405   -3.1253 H   0  0  0  0  0  0  0  0  0  0  0  0
   -7.7987    1.7526   -3.7933 H   0  0  0  0  0  0  0  0  0  0  0  0
   -6.6160    0.0516   -2.4525 H   0  0  0  0  0  0  0  0  0  0  0  0
   -1.4857   -0.8568   -1.0123 H   0  0  0  0  0  0  0  0  0  0  0  0
   -1.4766   -3.2891    0.5692 H   0  0  0  0  0  0  0  0  0  0  0  0
    0.3240   -2.3085    2.1589 H   0  0  0  0  0  0  0  0  0  0  0  0
   -0.0474   -0.7246    1.5167 H   0  0  0  0  0  0  0  0  0  0  0  0
   -2.3726   -0.9223    2.4880 H   0  0  0  0  0  0  0  0  0  0  0  0
   -1.6488   -0.5818    4.8208 H   0  0  0  0  0  0  0  0  0  0  0  0
   -0.5617    0.2390    3.6912 H   0  0  0  0  0  0  0  0  0  0  0  0
   -0.0619   -1.2826    4.4541 H   0  0  0  0  0  0  0  0  0  0  0  0
   -2.5704   -3.4256    2.5788 H   0  0  0  0  0  0  0  0  0  0  0  0
   -1.2630   -3.4816    3.7721 H   0  0  0  0  0  0  0  0  0  0  0  0
   -2.8019   -2.7015    4.1718 H   0  0  0  0  0  0  0  0  0  0  0  0
    1.4179   -3.3036    0.8416 H   0  0  0  0  0  0  0  0  0  0  0  0
    2.2688   -3.0973   -2.0020 H   0  0  0  0  0  0  0  0  0  0  0  0
    4.4682   -4.0424   -1.1338 H   0  0  0  0  0  0  0  0  0  0  0  0
    3.8135   -4.0614    0.4850 H   0  0  0  0  0  0  0  0  0  0  0  0
    2.8174   -6.0797    1.2571 H   0  0  0  0  0  0  0  0  0  0  0  0
    1.9217   -8.3331    0.8093 H   0  0  0  0  0  0  0  0  0  0  0  0
    1.5893   -9.1063   -1.5215 H   0  0  0  0  0  0  0  0  0  0  0  0
    2.1575   -7.6109   -3.4164 H   0  0  0  0  0  0  0  0  0  0  0  0
    3.0527   -5.3532   -2.9952 H   0  0  0  0  0  0  0  0  0  0  0  0
  1  2  1  0
  2  3  1  0
  3  4  1  0
  4  5  1  0
  5  6  1  0
  6  7  1  0
  7  8  1  0
  8  9  2  0
  8 10  1  0
 10 11  1  0
 11 12  1  0
 12 13  1  0
 13 14  1  0
 13 15  1  0
 11 16  1  0
 16 17  2  0
 16 18  1  0
 18 19  1  0
 19 20  1  0
 20 21  1  0
 21 22  2  0
 22 23  1  0
 23 24  2  0
 24 25  1  0
 25 26  2  0
 19 27  1  0
 27 28  2  0
 27 29  1  0
 29 30  1  0
 30 31  1  0
 31 32  1  0
 32 33  1  0
 32 34  1  0
 30 35  1  0
 35 36  2  0
 35 37  1  0
 37 38  1  0
 38 39  1  0
 39 40  1  0
 40 41  2  0
 41 42  1  0
 42 43  2  0
 43 44  1  0
 44 45  2  0
 38 46  1  0
 46 47  2  0
 46 48  1  0
 48  6  1  0
 26 21  1  0
 45 40  1  0
  1 49  1  0
  1 50  1  0
  1 51  1  0
  2 52  1  0
  2 53  1  0
  3 54  1  0
  3 55  1  0
  4 56  1  0
  4 57  1  0
  5 58  1  0
  5 59  1  0
  6 60  1  0
  7 61  1  0
  7 62  1  0
 10 63  1  0
 11 64  1  0
 12 65  1  0
 12 66  1  0
 13 67  1  0
 14 68  1  0
 14 69  1  0
 14 70  1  0
 15 71  1  0
 15 72  1  0
 15 73  1  0
 18 74  1  0
 19 75  1  0
 20 76  1  0
 20 77  1  0
 22 78  1  0
 23 79  1  0
 24 80  1  0
 25 81  1  0
 26 82  1  0
 29 83  1  0
 30 84  1  0
 31 85  1  0
 31 86  1  0
 32 87  1  0
 33 88  1  0
 33 89  1  0
 33 90  1  0
 34 91  1  0
 34 92  1  0
 34 93  1  0
 37 94  1  0
 38 95  1  0
 39 96  1  0
 39 97  1  0
 41 98  1  0
 42 99  1  0
 43100  1  0
 44101  1  0
 45102  1  0
M  END
$$$$
