
     RDKit          3D

 38 39  0  0  0  0  0  0  0  0999 V2000
   -3.0181    2.4623    3.5912 C   0  0  0  0  0  0  0  0  0  0  0  0
   -3.5742    1.4527    2.9085 C   0  0  0  0  0  0  0  0  0  0  0  0
   -3.6805    1.3972    1.4107 C   0  0  0  0  0  0  0  0  0  0  0  0
   -2.9900    0.1856    0.8313 C   0  0  0  0  0  0  0  0  0  0  0  0
   -3.7234   -0.9458    0.4624 C   0  0  0  0  0  0  0  0  0  0  0  0
   -3.0710   -2.0644   -0.0500 C   0  0  0  0  0  0  0  0  0  0  0  0
   -1.6827   -2.0635   -0.1910 C   0  0  0  0  0  0  0  0  0  0  0  0
   -1.1398   -3.2253   -0.6725 O   0  0  0  0  0  0  0  0  0  0  0  0
   -0.9035   -0.9423    0.1467 C   0  0  0  0  0  0  0  0  0  0  0  0
    0.5651   -0.8569   -0.0559 C   0  0  0  0  0  0  0  0  0  0  0  0
    1.1057    0.2379   -0.7623 C   0  0  0  0  0  0  0  0  0  0  0  0
    2.4896    0.3951   -0.9521 C   0  0  0  0  0  0  0  0  0  0  0  0
    3.0292    1.5718   -1.7307 C   0  0  0  0  0  0  0  0  0  0  0  0
    3.3223    1.2207   -3.1618 C   0  0  0  0  0  0  0  0  0  0  0  0
    4.5269    1.3322   -3.7374 C   0  0  0  0  0  0  0  0  0  0  0  0
    3.3580   -0.5727   -0.4373 C   0  0  0  0  0  0  0  0  0  0  0  0
    2.8548   -1.6717    0.2555 C   0  0  0  0  0  0  0  0  0  0  0  0
    1.4764   -1.8061    0.4381 C   0  0  0  0  0  0  0  0  0  0  0  0
    1.0026   -2.9172    1.0881 O   0  0  0  0  0  0  0  0  0  0  0  0
   -1.5919    0.1720    0.6736 C   0  0  0  0  0  0  0  0  0  0  0  0
   -2.9730    2.4386    4.6758 H   0  0  0  0  0  0  0  0  0  0  0  0
   -2.5948    3.3271    3.0900 H   0  0  0  0  0  0  0  0  0  0  0  0
   -3.9845    0.6078    3.4583 H   0  0  0  0  0  0  0  0  0  0  0  0
   -4.7425    1.3860    1.1349 H   0  0  0  0  0  0  0  0  0  0  0  0
   -3.2623    2.3003    0.9478 H   0  0  0  0  0  0  0  0  0  0  0  0
   -4.8042   -0.9678    0.5771 H   0  0  0  0  0  0  0  0  0  0  0  0
   -3.6395   -2.9470   -0.3297 H   0  0  0  0  0  0  0  0  0  0  0  0
   -0.2465   -3.2831   -0.2812 H   0  0  0  0  0  0  0  0  0  0  0  0
    0.4302    0.9815   -1.1848 H   0  0  0  0  0  0  0  0  0  0  0  0
    3.9240    1.9550   -1.2235 H   0  0  0  0  0  0  0  0  0  0  0  0
    2.3022    2.3934   -1.7113 H   0  0  0  0  0  0  0  0  0  0  0  0
    2.4863    0.8573   -3.7567 H   0  0  0  0  0  0  0  0  0  0  0  0
    5.3924    1.6910   -3.1895 H   0  0  0  0  0  0  0  0  0  0  0  0
    4.6695    1.0612   -4.7792 H   0  0  0  0  0  0  0  0  0  0  0  0
    4.4314   -0.4800   -0.5888 H   0  0  0  0  0  0  0  0  0  0  0  0
    3.5472   -2.4203    0.6285 H   0  0  0  0  0  0  0  0  0  0  0  0
    1.7355   -3.3157    1.5890 H   0  0  0  0  0  0  0  0  0  0  0  0
   -1.0267    1.0529    0.9771 H   0  0  0  0  0  0  0  0  0  0  0  0
  1  2  2  0
  2  3  1  0
  3  4  1  0
  4  5  2  0
  5  6  1  0
  6  7  2  0
  7  8  1  0
  7  9  1  0
  9 10  1  0
 10 11  2  0
 11 12  1  0
 12 13  1  0
 13 14  1  0
 14 15  2  0
 12 16  2  0
 16 17  1  0
 17 18  2  0
 18 19  1  0
  9 20  2  0
 20  4  1  0
 18 10  1  0
  1 21  1  0
  1 22  1  0
  2 23  1  0
  3 24  1  0
  3 25  1  0
  5 26  1  0
  6 27  1  0
  8 28  1  0
 11 29  1  0
 13 30  1  0
 13 31  1  0
 14 32  1  0
 15 33  1  0
 15 34  1  0
 16 35  1  0
 17 36  1  0
 19 37  1  0
 20 38  1  0
M  END
$$$$
