
     RDKit          3D

 30 33  0  0  0  0  0  0  0  0999 V2000
    4.9202    1.4699   -0.5573 C   0  0  0  0  0  0  0  0  0  0  0  0
    4.5691    0.2082    0.1220 C   0  0  0  0  0  0  0  0  0  0  0  0
    5.2533   -0.9528    0.3874 C   0  0  0  0  0  0  0  0  0  0  0  0
    4.3407   -1.7929    1.0691 C   0  0  0  0  0  0  0  0  0  0  0  0
    3.1306   -1.1167    1.1721 C   0  0  0  0  0  0  0  0  0  0  0  0
    1.9311   -1.5440    1.7965 C   0  0  0  0  0  0  0  0  0  0  0  0
    0.6984   -1.2115    1.3857 C   0  0  0  0  0  0  0  0  0  0  0  0
   -0.7147   -1.7247    2.3271 S   0  0  0  0  0  0  0  0  0  0  0  0
   -1.7403   -0.8923    1.2402 C   0  0  0  0  0  0  0  0  0  0  0  0
   -3.0233   -0.7009    1.1447 N   0  0  0  0  0  0  0  0  0  0  0  0
   -3.1056    0.0462   -0.0200 C   0  0  0  0  0  0  0  0  0  0  0  0
   -4.4701    0.5545   -0.6005 C   0  0  0  0  0  0  0  0  0  0  0  0
   -4.5895    1.2971   -1.7559 C   0  0  0  0  0  0  0  0  0  0  0  0
   -5.9485    1.6205   -2.0448 C   0  0  0  0  0  0  0  0  0  0  0  0
   -6.8108    1.1116   -1.0982 C   0  0  0  0  0  0  0  0  0  0  0  0
   -5.9816    0.2506    0.1281 S   0  0  0  0  0  0  0  0  0  0  0  0
   -1.9252    0.3022   -0.6214 N   0  0  0  0  0  0  0  0  0  0  0  0
   -1.0767   -0.3110    0.2241 N   0  0  0  0  0  0  0  0  0  0  0  0
    0.2968   -0.4321    0.1612 C   0  0  0  0  0  0  0  0  0  0  0  0
    0.9465   -0.0014   -0.7709 O   0  0  0  0  0  0  0  0  0  0  0  0
    3.3047    0.1238    0.6099 O   0  0  0  0  0  0  0  0  0  0  0  0
    5.9487    1.4422   -0.9304 H   0  0  0  0  0  0  0  0  0  0  0  0
    4.8304    2.3142    0.1330 H   0  0  0  0  0  0  0  0  0  0  0  0
    4.2539    1.6454   -1.4075 H   0  0  0  0  0  0  0  0  0  0  0  0
    6.2790   -1.1675    0.1225 H   0  0  0  0  0  0  0  0  0  0  0  0
    4.5359   -2.7911    1.4368 H   0  0  0  0  0  0  0  0  0  0  0  0
    2.0532   -2.1687    2.6783 H   0  0  0  0  0  0  0  0  0  0  0  0
   -3.7435    1.5943   -2.3650 H   0  0  0  0  0  0  0  0  0  0  0  0
   -6.2747    2.1963   -2.9023 H   0  0  0  0  0  0  0  0  0  0  0  0
   -7.8879    1.2019   -1.0644 H   0  0  0  0  0  0  0  0  0  0  0  0
  1  2  1  0
  2  3  2  0
  3  4  1  0
  4  5  2  0
  5  6  1  0
  6  7  2  3
  7  8  1  0
  8  9  1  0
  9 10  2  0
 10 11  1  0
 11 12  1  0
 12 13  2  0
 13 14  1  0
 14 15  2  0
 15 16  1  0
 11 17  2  0
 17 18  1  0
 18 19  1  0
 19 20  2  0
  5 21  1  0
 21  2  1  0
 19  7  1  0
 18  9  1  0
 16 12  1  0
  1 22  1  0
  1 23  1  0
  1 24  1  0
  3 25  1  0
  4 26  1  0
  6 27  1  0
 13 28  1  0
 14 29  1  0
 15 30  1  0
M  END
$$$$
