
     RDKit          3D

 30 31  0  0  0  0  0  0  0  0999 V2000
    4.5010   -2.3956   -2.7970 C   0  0  0  0  0  0  0  0  0  0  0  0
    4.2775   -2.2906   -1.3966 O   0  0  0  0  0  0  0  0  0  0  0  0
    3.0723   -1.7837   -0.9978 C   0  0  0  0  0  0  0  0  0  0  0  0
    2.9017   -1.7036    0.3856 C   0  0  0  0  0  0  0  0  0  0  0  0
    1.7163   -1.2039    0.9332 C   0  0  0  0  0  0  0  0  0  0  0  0
    0.6777   -0.7710    0.0992 C   0  0  0  0  0  0  0  0  0  0  0  0
   -0.5804   -0.2492    0.6761 C   0  0  0  0  0  0  0  0  0  0  0  0
   -1.2979   -1.0642    1.6062 C   0  0  0  0  0  0  0  0  0  0  0  0
   -1.8929   -1.7295    2.3485 N   0  0  0  0  0  0  0  0  0  0  0  0
   -0.9775    0.9948    0.3404 C   0  0  0  0  0  0  0  0  0  0  0  0
   -2.1630    1.7192    0.8107 C   0  0  0  0  0  0  0  0  0  0  0  0
   -3.4399    1.1669    0.8336 C   0  0  0  0  0  0  0  0  0  0  0  0
   -4.5044    1.9566    1.2630 C   0  0  0  0  0  0  0  0  0  0  0  0
   -4.2685    3.2724    1.6397 C   0  0  0  0  0  0  0  0  0  0  0  0
   -2.9716    3.7485    1.5626 C   0  0  0  0  0  0  0  0  0  0  0  0
   -1.9211    3.0064    1.1474 N   0  0  0  0  0  0  0  0  0  0  0  0
    0.8527   -0.8574   -1.2904 C   0  0  0  0  0  0  0  0  0  0  0  0
    2.0418   -1.3590   -1.8352 C   0  0  0  0  0  0  0  0  0  0  0  0
    5.5008   -2.8147   -2.9455 H   0  0  0  0  0  0  0  0  0  0  0  0
    3.7814   -3.0781   -3.2614 H   0  0  0  0  0  0  0  0  0  0  0  0
    4.4782   -1.4108   -3.2753 H   0  0  0  0  0  0  0  0  0  0  0  0
    3.7009   -2.0337    1.0456 H   0  0  0  0  0  0  0  0  0  0  0  0
    1.6227   -1.1527    2.0164 H   0  0  0  0  0  0  0  0  0  0  0  0
   -0.3533    1.6058   -0.3100 H   0  0  0  0  0  0  0  0  0  0  0  0
   -3.6254    0.1446    0.5214 H   0  0  0  0  0  0  0  0  0  0  0  0
   -5.5095    1.5457    1.3010 H   0  0  0  0  0  0  0  0  0  0  0  0
   -5.0749    3.9117    1.9807 H   0  0  0  0  0  0  0  0  0  0  0  0
   -2.7339    4.7716    1.8399 H   0  0  0  0  0  0  0  0  0  0  0  0
    0.0615   -0.5412   -1.9677 H   0  0  0  0  0  0  0  0  0  0  0  0
    2.1276   -1.4054   -2.9158 H   0  0  0  0  0  0  0  0  0  0  0  0
  1  2  1  0
  2  3  1  0
  3  4  2  0
  4  5  1  0
  5  6  2  0
  6  7  1  0
  7  8  1  0
  8  9  3  0
  7 10  2  3
 10 11  1  0
 11 12  2  0
 12 13  1  0
 13 14  2  0
 14 15  1  0
 15 16  2  0
  6 17  1  0
 17 18  2  0
 18  3  1  0
 16 11  1  0
  1 19  1  0
  1 20  1  0
  1 21  1  0
  4 22  1  0
  5 23  1  0
 10 24  1  0
 12 25  1  0
 13 26  1  0
 14 27  1  0
 15 28  1  0
 17 29  1  0
 18 30  1  0
M  END
$$$$
