
     RDKit          3D

 60 63  0  0  0  0  0  0  0  0999 V2000
   -3.9264    0.7787    0.8819 C   0  0  0  0  0  0  0  0  0  0  0  0
   -4.2919    0.4133   -0.5241 C   0  0  0  0  0  0  0  0  0  0  0  0
   -5.5169    0.7736   -1.0467 C   0  0  0  0  0  0  0  0  0  0  0  0
   -5.7682    0.3913   -2.3504 C   0  0  0  0  0  0  0  0  0  0  0  0
   -7.0667    0.7548   -3.0054 C   0  0  0  0  0  0  0  0  0  0  0  0
   -4.8712   -0.2903   -3.0920 N   0  0  0  0  0  0  0  0  0  0  0  0
   -3.7101   -0.6028   -2.4972 C   0  0  0  0  0  0  0  0  0  0  0  0
   -2.5687   -1.5878   -3.4301 S   0  0  0  0  0  0  0  0  0  0  0  0
   -1.1717   -0.4308   -3.5060 C   0  0  0  0  0  0  0  0  0  0  0  0
   -0.4831   -0.2560   -2.1941 C   0  0  0  0  0  0  0  0  0  0  0  0
   -0.0069   -1.2192   -1.4240 N   0  0  0  0  0  0  0  0  0  0  0  0
    0.4176   -0.6584   -0.2481 N   0  0  0  0  0  0  0  0  0  0  0  0
    0.2287    0.6352   -0.3331 C   0  0  0  0  0  0  0  0  0  0  0  0
    0.5107    1.7738    0.9344 S   0  0  0  0  0  0  0  0  0  0  0  0
    0.4958    0.6721    2.3810 C   0  0  0  0  0  0  0  0  0  0  0  0
    1.8944    0.1589    2.6871 C   0  0  0  0  0  0  0  0  0  0  0  0
    2.5449    0.6455    3.6079 O   0  0  0  0  0  0  0  0  0  0  0  0
    2.2987   -0.8658    1.8519 N   0  0  0  0  0  0  0  0  0  0  0  0
    3.5240   -1.5606    1.8645 C   0  0  0  0  0  0  0  0  0  0  0  0
    3.7642   -2.4446    0.8109 C   0  0  0  0  0  0  0  0  0  0  0  0
    4.9672   -3.1511    0.7369 C   0  0  0  0  0  0  0  0  0  0  0  0
    5.9552   -2.9949    1.7188 C   0  0  0  0  0  0  0  0  0  0  0  0
    7.2277   -3.7868    1.5981 C   0  0  0  0  0  0  0  0  0  0  0  0
    5.6999   -2.1463    2.8118 C   0  0  0  0  0  0  0  0  0  0  0  0
    6.7010   -1.9437    3.9158 C   0  0  0  0  0  0  0  0  0  0  0  0
    4.4925   -1.4214    2.8590 C   0  0  0  0  0  0  0  0  0  0  0  0
   -0.2356    0.9550   -1.5789 N   0  0  0  0  0  0  0  0  0  0  0  0
   -0.2851    2.2692   -2.1905 C   0  0  0  0  0  0  0  0  0  0  0  0
   -1.6104    2.9121   -2.0454 C   0  0  0  0  0  0  0  0  0  0  0  0
   -2.1882    3.7024   -1.0711 C   0  0  0  0  0  0  0  0  0  0  0  0
   -3.4705    4.0588   -1.5542 C   0  0  0  0  0  0  0  0  0  0  0  0
   -3.5946    3.4661   -2.7884 C   0  0  0  0  0  0  0  0  0  0  0  0
   -2.4690    2.7727   -3.0964 O   0  0  0  0  0  0  0  0  0  0  0  0
   -3.3795   -0.2712   -1.2396 N   0  0  0  0  0  0  0  0  0  0  0  0
   -3.8942    1.8685    0.9958 H   0  0  0  0  0  0  0  0  0  0  0  0
   -4.6587    0.3664    1.5842 H   0  0  0  0  0  0  0  0  0  0  0  0
   -2.9414    0.3780    1.1434 H   0  0  0  0  0  0  0  0  0  0  0  0
   -6.2439    1.3255   -0.4637 H   0  0  0  0  0  0  0  0  0  0  0  0
   -7.2047    0.1964   -3.9352 H   0  0  0  0  0  0  0  0  0  0  0  0
   -7.0817    1.8233   -3.2378 H   0  0  0  0  0  0  0  0  0  0  0  0
   -7.9052    0.5198   -2.3426 H   0  0  0  0  0  0  0  0  0  0  0  0
   -0.4478   -0.8404   -4.2184 H   0  0  0  0  0  0  0  0  0  0  0  0
   -1.5238    0.5114   -3.9293 H   0  0  0  0  0  0  0  0  0  0  0  0
   -0.2020   -0.1625    2.2597 H   0  0  0  0  0  0  0  0  0  0  0  0
    0.1515    1.2498    3.2430 H   0  0  0  0  0  0  0  0  0  0  0  0
    1.6764   -1.0842    1.0727 H   0  0  0  0  0  0  0  0  0  0  0  0
    3.0245   -2.5862    0.0252 H   0  0  0  0  0  0  0  0  0  0  0  0
    5.1285   -3.8251   -0.1021 H   0  0  0  0  0  0  0  0  0  0  0  0
    8.0890   -3.2132    1.9488 H   0  0  0  0  0  0  0  0  0  0  0  0
    7.1488   -4.7120    2.1780 H   0  0  0  0  0  0  0  0  0  0  0  0
    7.4280   -4.0465    0.5559 H   0  0  0  0  0  0  0  0  0  0  0  0
    7.4527   -1.2148    3.6088 H   0  0  0  0  0  0  0  0  0  0  0  0
    6.2148   -1.5793    4.8265 H   0  0  0  0  0  0  0  0  0  0  0  0
    7.1956   -2.8822    4.1806 H   0  0  0  0  0  0  0  0  0  0  0  0
    4.3265   -0.7568    3.7006 H   0  0  0  0  0  0  0  0  0  0  0  0
   -0.0195    2.1536   -3.2490 H   0  0  0  0  0  0  0  0  0  0  0  0
    0.5009    2.8916   -1.7489 H   0  0  0  0  0  0  0  0  0  0  0  0
   -1.7362    3.9960   -0.1331 H   0  0  0  0  0  0  0  0  0  0  0  0
   -4.2109    4.6776   -1.0665 H   0  0  0  0  0  0  0  0  0  0  0  0
   -4.3754    3.4437   -3.5363 H   0  0  0  0  0  0  0  0  0  0  0  0
  1  2  1  0
  2  3  2  0
  3  4  1  0
  4  5  1  0
  4  6  2  0
  6  7  1  0
  7  8  1  0
  8  9  1  0
  9 10  1  0
 10 11  2  0
 11 12  1  0
 12 13  2  0
 13 14  1  0
 14 15  1  0
 15 16  1  0
 16 17  2  0
 16 18  1  0
 18 19  1  0
 19 20  2  0
 20 21  1  0
 21 22  2  0
 22 23  1  0
 22 24  1  0
 24 25  1  0
 24 26  2  0
 13 27  1  0
 27 28  1  0
 28 29  1  0
 29 30  2  0
 30 31  1  0
 31 32  2  0
 32 33  1  0
  7 34  2  0
 34  2  1  0
 27 10  1  0
 33 29  1  0
 26 19  1  0
  1 35  1  0
  1 36  1  0
  1 37  1  0
  3 38  1  0
  5 39  1  0
  5 40  1  0
  5 41  1  0
  9 42  1  0
  9 43  1  0
 15 44  1  0
 15 45  1  0
 18 46  1  0
 20 47  1  0
 21 48  1  0
 23 49  1  0
 23 50  1  0
 23 51  1  0
 25 52  1  0
 25 53  1  0
 25 54  1  0
 26 55  1  0
 28 56  1  0
 28 57  1  0
 30 58  1  0
 31 59  1  0
 32 60  1  0
M  END
$$$$
