
     RDKit          3D

 57 60  0  0  0  0  0  0  0  0999 V2000
    5.0977    2.4595    1.8508 C   0  0  0  0  0  0  0  0  0  0  0  0
    4.2226    1.6122    0.9881 C   0  0  0  0  0  0  0  0  0  0  0  0
    2.8455    1.6636    0.8982 C   0  0  0  0  0  0  0  0  0  0  0  0
    2.4194    0.6215    0.0493 C   0  0  0  0  0  0  0  0  0  0  0  0
    1.0789    0.2807   -0.3151 C   0  0  0  0  0  0  0  0  0  0  0  0
   -0.0177    0.9785    0.0264 C   0  0  0  0  0  0  0  0  0  0  0  0
   -1.3684    0.5652   -0.3668 C   0  0  0  0  0  0  0  0  0  0  0  0
   -1.7038    0.5863   -1.7215 C   0  0  0  0  0  0  0  0  0  0  0  0
   -2.9835    0.2497   -2.1238 C   0  0  0  0  0  0  0  0  0  0  0  0
   -3.9366   -0.0914   -1.1692 C   0  0  0  0  0  0  0  0  0  0  0  0
   -5.2486   -0.4227   -1.5661 C   0  0  0  0  0  0  0  0  0  0  0  0
   -6.2616   -0.7616   -0.6546 C   0  0  0  0  0  0  0  0  0  0  0  0
   -7.5442   -1.1137   -1.0643 N   0  0  0  0  0  0  0  0  0  0  0  0
   -8.6335   -1.1843   -0.0874 C   0  0  0  0  0  0  0  0  0  0  0  0
   -7.9609   -0.9066   -2.4531 C   0  0  0  0  0  0  0  0  0  0  0  0
   -5.8853   -0.7619    0.6948 C   0  0  0  0  0  0  0  0  0  0  0  0
   -4.5853   -0.4386    1.1174 C   0  0  0  0  0  0  0  0  0  0  0  0
   -3.5812   -0.1030    0.1988 C   0  0  0  0  0  0  0  0  0  0  0  0
   -2.2949    0.2082    0.5691 N   0  0  0  0  0  4  0  0  0  0  0  0
   -1.9136    0.1193    1.9998 C   0  0  0  0  0  0  0  0  0  0  0  0
    3.5540   -0.0342   -0.4061 C   0  0  0  0  0  0  0  0  0  0  0  0
    3.6637   -1.1218   -1.4298 C   0  0  0  0  0  0  0  0  0  0  0  0
    4.6700    0.5552    0.1997 N   0  0  0  0  0  0  0  0  0  0  0  0
    6.0253    0.1382    0.0504 C   0  0  0  0  0  0  0  0  0  0  0  0
    7.0322    1.0829   -0.1817 C   0  0  0  0  0  0  0  0  0  0  0  0
    8.3582    0.6684   -0.3252 C   0  0  0  0  0  0  0  0  0  0  0  0
    8.6828   -0.6842   -0.2341 C   0  0  0  0  0  0  0  0  0  0  0  0
    7.6833   -1.6276   -0.0014 C   0  0  0  0  0  0  0  0  0  0  0  0
    6.3549   -1.2206    0.1398 C   0  0  0  0  0  0  0  0  0  0  0  0
    5.8821    1.8715    2.3372 H   0  0  0  0  0  0  0  0  0  0  0  0
    5.5541    3.2647    1.2673 H   0  0  0  0  0  0  0  0  0  0  0  0
    4.5083    2.9270    2.6481 H   0  0  0  0  0  0  0  0  0  0  0  0
    2.2333    2.3820    1.4274 H   0  0  0  0  0  0  0  0  0  0  0  0
    0.9574   -0.6260   -0.9072 H   0  0  0  0  0  0  0  0  0  0  0  0
    0.0478    1.8901    0.6131 H   0  0  0  0  0  0  0  0  0  0  0  0
   -0.9678    0.8750   -2.4719 H   0  0  0  0  0  0  0  0  0  0  0  0
   -3.2316    0.2700   -3.1846 H   0  0  0  0  0  0  0  0  0  0  0  0
   -5.4714   -0.4129   -2.6314 H   0  0  0  0  0  0  0  0  0  0  0  0
   -8.4345   -1.9501    0.6702 H   0  0  0  0  0  0  0  0  0  0  0  0
   -9.5813   -1.4656   -0.5598 H   0  0  0  0  0  0  0  0  0  0  0  0
   -8.7833   -0.2149    0.4005 H   0  0  0  0  0  0  0  0  0  0  0  0
   -7.9333    0.1568   -2.7134 H   0  0  0  0  0  0  0  0  0  0  0  0
   -7.3263   -1.4713   -3.1441 H   0  0  0  0  0  0  0  0  0  0  0  0
   -8.9828   -1.2630   -2.6239 H   0  0  0  0  0  0  0  0  0  0  0  0
   -6.6036   -1.0252    1.4685 H   0  0  0  0  0  0  0  0  0  0  0  0
   -4.4098   -0.4657    2.1887 H   0  0  0  0  0  0  0  0  0  0  0  0
   -0.8416    0.2351    2.1544 H   0  0  0  0  0  0  0  0  0  0  0  0
   -2.4446    0.9109    2.5348 H   0  0  0  0  0  0  0  0  0  0  0  0
   -2.1905   -0.8728    2.3665 H   0  0  0  0  0  0  0  0  0  0  0  0
    3.6157   -2.1039   -0.9508 H   0  0  0  0  0  0  0  0  0  0  0  0
    4.5865   -1.0493   -2.0121 H   0  0  0  0  0  0  0  0  0  0  0  0
    2.8447   -1.0623   -2.1540 H   0  0  0  0  0  0  0  0  0  0  0  0
    6.8034    2.1384   -0.2981 H   0  0  0  0  0  0  0  0  0  0  0  0
    9.1392    1.4006   -0.5165 H   0  0  0  0  0  0  0  0  0  0  0  0
    9.7165   -1.0033   -0.3452 H   0  0  0  0  0  0  0  0  0  0  0  0
    7.9419   -2.6808    0.0778 H   0  0  0  0  0  0  0  0  0  0  0  0
    5.6020   -1.9724    0.3586 H   0  0  0  0  0  0  0  0  0  0  0  0
  1  2  1  0
  2  3  2  0
  3  4  1  0
  4  5  1  0
  5  6  2  3
  6  7  1  0
  7  8  2  0
  8  9  1  0
  9 10  2  0
 10 11  1  0
 11 12  2  0
 12 13  1  0
 13 14  1  0
 13 15  1  0
 12 16  1  0
 16 17  2  0
 17 18  1  0
 18 19  2  0
 19 20  1  0
  4 21  2  0
 21 22  1  0
 21 23  1  0
 23 24  1  0
 24 25  2  0
 25 26  1  0
 26 27  2  0
 27 28  1  0
 28 29  2  0
 23  2  1  0
 29 24  1  0
 19  7  1  0
 18 10  1  0
  1 30  1  0
  1 31  1  0
  1 32  1  0
  3 33  1  0
  5 34  1  0
  6 35  1  0
  8 36  1  0
  9 37  1  0
 11 38  1  0
 14 39  1  0
 14 40  1  0
 14 41  1  0
 15 42  1  0
 15 43  1  0
 15 44  1  0
 16 45  1  0
 17 46  1  0
 20 47  1  0
 20 48  1  0
 20 49  1  0
 22 50  1  0
 22 51  1  0
 22 52  1  0
 25 53  1  0
 26 54  1  0
 27 55  1  0
 28 56  1  0
 29 57  1  0
M  CHG  1  19   1
M  END
$$$$
