
     RDKit          3D

 58 61  0  0  0  0  0  0  0  0999 V2000
   -3.3086    5.9854   -0.4251 C   0  0  0  0  0  0  0  0  0  0  0  0
   -2.4878    4.8248   -0.3868 O   0  0  0  0  0  0  0  0  0  0  0  0
   -3.0897    3.6516   -0.0211 C   0  0  0  0  0  0  0  0  0  0  0  0
   -4.4332    3.4843    0.2868 C   0  0  0  0  0  0  0  0  0  0  0  0
   -4.9316    2.2271    0.6480 C   0  0  0  0  0  0  0  0  0  0  0  0
   -4.0546    1.1267    0.6973 C   0  0  0  0  0  0  0  0  0  0  0  0
   -4.4528   -0.4930    1.1117 S   0  0  0  0  0  0  0  0  0  0  0  0
   -2.8447   -1.0325    0.9014 C   0  0  0  0  0  0  0  0  0  0  0  0
   -2.5438   -2.4500    1.1414 C   0  0  0  0  0  0  0  0  0  0  0  0
   -2.8089   -3.3796    0.1218 C   0  0  0  0  0  0  0  0  0  0  0  0
   -2.5193   -4.7308    0.3017 C   0  0  0  0  0  0  0  0  0  0  0  0
   -1.9619   -5.1638    1.5009 C   0  0  0  0  0  0  0  0  0  0  0  0
   -1.6913   -4.2493    2.5233 C   0  0  0  0  0  0  0  0  0  0  0  0
   -1.9752   -2.8887    2.3550 C   0  0  0  0  0  0  0  0  0  0  0  0
   -1.7481   -1.9264    3.3071 O   0  0  0  0  0  0  0  0  0  0  0  0
   -1.0678   -2.3210    4.4902 C   0  0  0  0  0  0  0  0  0  0  0  0
   -2.0064   -0.0012    0.5133 C   0  0  0  0  0  0  0  0  0  0  0  0
   -0.5890   -0.2247    0.2663 C   0  0  0  0  0  0  0  0  0  0  0  0
    0.3418   -0.0183    1.2859 C   0  0  0  0  0  0  0  0  0  0  0  0
    1.6997   -0.2337    1.0414 C   0  0  0  0  0  0  0  0  0  0  0  0
    2.1427   -0.6526   -0.2168 C   0  0  0  0  0  0  0  0  0  0  0  0
    3.4955   -0.8210   -0.3099 O   0  0  0  0  0  0  0  0  0  0  0  0
    4.0495   -1.3097   -1.5344 C   0  0  0  0  0  0  0  0  0  0  0  0
    4.2909   -0.1832   -2.5598 C   0  0  0  0  0  0  0  0  0  0  0  0
    5.5795    0.5286   -2.4039 N   0  0  0  0  0  0  0  0  0  0  0  0
    5.7609    1.4762   -3.5067 C   0  0  0  0  0  0  0  0  0  0  0  0
    5.6520    1.2415   -1.1253 C   0  0  0  0  0  0  0  0  0  0  0  0
    1.2108   -0.8477   -1.2367 C   0  0  0  0  0  0  0  0  0  0  0  0
   -0.1516   -0.6342   -0.9964 C   0  0  0  0  0  0  0  0  0  0  0  0
   -2.6991    1.2603    0.3939 C   0  0  0  0  0  0  0  0  0  0  0  0
   -2.2285    2.5490    0.0303 C   0  0  0  0  0  0  0  0  0  0  0  0
   -3.7246    6.2081    0.5631 H   0  0  0  0  0  0  0  0  0  0  0  0
   -2.6788    6.8305   -0.7192 H   0  0  0  0  0  0  0  0  0  0  0  0
   -4.1004    5.8840   -1.1746 H   0  0  0  0  0  0  0  0  0  0  0  0
   -5.1334    4.3127    0.2578 H   0  0  0  0  0  0  0  0  0  0  0  0
   -5.9840    2.1036    0.8884 H   0  0  0  0  0  0  0  0  0  0  0  0
   -3.2406   -3.0478   -0.8199 H   0  0  0  0  0  0  0  0  0  0  0  0
   -2.7277   -5.4428   -0.4925 H   0  0  0  0  0  0  0  0  0  0  0  0
   -1.7356   -6.2175    1.6441 H   0  0  0  0  0  0  0  0  0  0  0  0
   -1.2604   -4.6333    3.4416 H   0  0  0  0  0  0  0  0  0  0  0  0
   -0.0820   -2.7399    4.2614 H   0  0  0  0  0  0  0  0  0  0  0  0
   -0.9133   -1.4258    5.1001 H   0  0  0  0  0  0  0  0  0  0  0  0
   -1.6713   -3.0219    5.0758 H   0  0  0  0  0  0  0  0  0  0  0  0
    0.0149    0.2998    2.2727 H   0  0  0  0  0  0  0  0  0  0  0  0
    2.4194   -0.0769    1.8409 H   0  0  0  0  0  0  0  0  0  0  0  0
    5.0029   -1.7916   -1.2859 H   0  0  0  0  0  0  0  0  0  0  0  0
    3.4301   -2.1091   -1.9581 H   0  0  0  0  0  0  0  0  0  0  0  0
    4.2980   -0.6605   -3.5479 H   0  0  0  0  0  0  0  0  0  0  0  0
    3.4623    0.5346   -2.5466 H   0  0  0  0  0  0  0  0  0  0  0  0
    4.9820    2.2471   -3.5223 H   0  0  0  0  0  0  0  0  0  0  0  0
    5.7498    0.9546   -4.4700 H   0  0  0  0  0  0  0  0  0  0  0  0
    6.7356    1.9718   -3.4327 H   0  0  0  0  0  0  0  0  0  0  0  0
    5.6719    0.5424   -0.2834 H   0  0  0  0  0  0  0  0  0  0  0  0
    6.5839    1.8150   -1.0575 H   0  0  0  0  0  0  0  0  0  0  0  0
    4.8142    1.9350   -0.9896 H   0  0  0  0  0  0  0  0  0  0  0  0
    1.5025   -1.1611   -2.2324 H   0  0  0  0  0  0  0  0  0  0  0  0
   -0.8680   -0.7903   -1.7994 H   0  0  0  0  0  0  0  0  0  0  0  0
   -1.1766    2.6854   -0.2114 H   0  0  0  0  0  0  0  0  0  0  0  0
  1  2  1  0
  2  3  1  0
  3  4  2  0
  4  5  1  0
  5  6  2  0
  6  7  1  0
  7  8  1  0
  8  9  1  0
  9 10  2  0
 10 11  1  0
 11 12  2  0
 12 13  1  0
 13 14  2  0
 14 15  1  0
 15 16  1  0
  8 17  2  0
 17 18  1  0
 18 19  2  0
 19 20  1  0
 20 21  2  0
 21 22  1  0
 22 23  1  0
 23 24  1  0
 24 25  1  0
 25 26  1  0
 25 27  1  0
 21 28  1  0
 28 29  2  0
 17 30  1  0
 30 31  2  0
 31  3  1  0
 30  6  1  0
 14  9  1  0
 29 18  1  0
  1 32  1  0
  1 33  1  0
  1 34  1  0
  4 35  1  0
  5 36  1  0
 10 37  1  0
 11 38  1  0
 12 39  1  0
 13 40  1  0
 16 41  1  0
 16 42  1  0
 16 43  1  0
 19 44  1  0
 20 45  1  0
 23 46  1  0
 23 47  1  0
 24 48  1  0
 24 49  1  0
 26 50  1  0
 26 51  1  0
 26 52  1  0
 27 53  1  0
 27 54  1  0
 27 55  1  0
 28 56  1  0
 29 57  1  0
 31 58  1  0
M  END
$$$$
