
     RDKit          3D

 45 47  0  0  0  0  0  0  0  0999 V2000
   -1.6151    4.0439    0.1484 C   0  0  0  0  0  0  0  0  0  0  0  0
   -2.2217    2.9472   -0.5268 O   0  0  0  0  0  0  0  0  0  0  0  0
   -2.3514    1.7841    0.1804 C   0  0  0  0  0  0  0  0  0  0  0  0
   -3.1460    0.8107   -0.4291 C   0  0  0  0  0  0  0  0  0  0  0  0
   -3.3466   -0.4327    0.1770 C   0  0  0  0  0  0  0  0  0  0  0  0
   -2.7386   -0.7264    1.4023 C   0  0  0  0  0  0  0  0  0  0  0  0
   -2.8805   -2.0949    2.0359 C   0  0  0  0  0  0  0  0  0  0  0  0
   -2.2280   -3.2141    1.2137 C   0  0  0  0  0  0  0  0  0  0  0  0
   -0.8498   -2.9176    0.8842 N   0  0  0  0  0  0  0  0  0  0  0  0
    0.0007   -3.8544    0.3364 C   0  0  0  0  0  0  0  0  0  0  0  0
   -0.2252   -5.0597    0.3585 O   0  0  0  0  0  0  0  0  0  0  0  0
    1.1569   -3.2516   -0.2949 C   0  0  0  0  0  0  0  0  0  0  0  0
    2.2699   -3.7855   -0.9096 C   0  0  0  0  0  0  0  0  0  0  0  0
    3.0372   -2.6886   -1.3846 C   0  0  0  0  0  0  0  0  0  0  0  0
    2.3531   -1.5409   -1.0367 C   0  0  0  0  0  0  0  0  0  0  0  0
    2.5354   -0.1022   -1.2208 C   0  0  0  0  0  0  0  0  0  0  0  0
    1.3859    0.6899   -1.4318 C   0  0  0  0  0  0  0  0  0  0  0  0
    1.4708    2.0738   -1.6003 C   0  0  0  0  0  0  0  0  0  0  0  0
    2.7223    2.6894   -1.5566 C   0  0  0  0  0  0  0  0  0  0  0  0
    2.8195    4.1446   -1.7042 N   0  0  0  0  0  4  0  0  0  0  0  0
    3.9410    4.6264   -1.9136 O   0  0  0  0  0  0  0  0  0  0  0  0
    1.7748    4.8031   -1.6013 O   0  0  0  0  0  1  0  0  0  0  0  0
    3.8817    1.9323   -1.3564 C   0  0  0  0  0  0  0  0  0  0  0  0
    3.7856    0.5433   -1.1877 C   0  0  0  0  0  0  0  0  0  0  0  0
    5.2683   -0.2982   -0.8897 Cl  0  0  0  0  0  0  0  0  0  0  0  0
    1.2145   -1.8852   -0.3674 O   0  0  0  0  0  0  0  0  0  0  0  0
   -1.9479    0.2563    2.0143 C   0  0  0  0  0  0  0  0  0  0  0  0
   -1.7545    1.5027    1.4078 C   0  0  0  0  0  0  0  0  0  0  0  0
   -2.1558    4.2911    1.0682 H   0  0  0  0  0  0  0  0  0  0  0  0
   -0.5589    3.8435    0.3540 H   0  0  0  0  0  0  0  0  0  0  0  0
   -1.6660    4.9133   -0.5139 H   0  0  0  0  0  0  0  0  0  0  0  0
   -3.6174    1.0242   -1.3857 H   0  0  0  0  0  0  0  0  0  0  0  0
   -3.9709   -1.1695   -0.3235 H   0  0  0  0  0  0  0  0  0  0  0  0
   -2.4309   -2.0817    3.0370 H   0  0  0  0  0  0  0  0  0  0  0  0
   -3.9457   -2.3129    2.1792 H   0  0  0  0  0  0  0  0  0  0  0  0
   -2.7599   -3.3634    0.2670 H   0  0  0  0  0  0  0  0  0  0  0  0
   -2.2677   -4.1613    1.7628 H   0  0  0  0  0  0  0  0  0  0  0  0
   -0.6228   -1.9583    0.6383 H   0  0  0  0  0  0  0  0  0  0  0  0
    2.4871   -4.8403   -1.0115 H   0  0  0  0  0  0  0  0  0  0  0  0
    3.9674   -2.7421   -1.9332 H   0  0  0  0  0  0  0  0  0  0  0  0
    0.3991    0.2261   -1.4665 H   0  0  0  0  0  0  0  0  0  0  0  0
    0.5572    2.6438   -1.7611 H   0  0  0  0  0  0  0  0  0  0  0  0
    4.8580    2.4125   -1.3155 H   0  0  0  0  0  0  0  0  0  0  0  0
   -1.4607    0.0546    2.9667 H   0  0  0  0  0  0  0  0  0  0  0  0
   -1.1244    2.2248    1.9163 H   0  0  0  0  0  0  0  0  0  0  0  0
  1  2  1  0
  2  3  1  0
  3  4  2  0
  4  5  1  0
  5  6  2  0
  6  7  1  0
  7  8  1  0
  8  9  1  0
  9 10  1  0
 10 11  2  0
 10 12  1  0
 12 13  2  0
 13 14  1  0
 14 15  2  0
 15 16  1  0
 16 17  2  0
 17 18  1  0
 18 19  2  0
 19 20  1  0
 20 21  2  0
 20 22  1  0
 19 23  1  0
 23 24  2  0
 24 25  1  0
 15 26  1  0
  6 27  1  0
 27 28  2  0
 28  3  1  0
 26 12  1  0
 24 16  1  0
  1 29  1  0
  1 30  1  0
  1 31  1  0
  4 32  1  0
  5 33  1  0
  7 34  1  0
  7 35  1  0
  8 36  1  0
  8 37  1  0
  9 38  1  0
 13 39  1  0
 14 40  1  0
 17 41  1  0
 18 42  1  0
 23 43  1  0
 27 44  1  0
 28 45  1  0
M  CHG  2  20   1  22  -1
M  END
$$$$
