
     RDKit          3D

 64 69  0  0  0  0  0  0  0  0999 V2000
    6.2314    1.2713   -2.2830 F   0  0  0  0  0  0  0  0  0  0  0  0
    7.2780    1.2249   -1.4091 C   0  0  0  0  0  0  0  0  0  0  0  0
    8.1154    2.2328   -1.7932 F   0  0  0  0  0  0  0  0  0  0  0  0
    7.9427    0.0677   -1.6866 F   0  0  0  0  0  0  0  0  0  0  0  0
    6.8426    1.3137    0.0383 C   0  0  0  0  0  0  0  0  0  0  0  0
    7.4760    2.2479    0.8828 C   0  0  0  0  0  0  0  0  0  0  0  0
    7.1064    2.3724    2.2216 C   0  0  0  0  0  0  0  0  0  0  0  0
    6.0993    1.5652    2.7400 C   0  0  0  0  0  0  0  0  0  0  0  0
    5.4659    0.6273    1.9238 C   0  0  0  0  0  0  0  0  0  0  0  0
    5.8306    0.4802    0.5734 C   0  0  0  0  0  0  0  0  0  0  0  0
    5.1056   -0.5604   -0.2617 C   0  0  0  0  0  0  0  0  0  0  0  0
    3.7668   -0.0576   -0.8387 C   0  0  0  0  0  0  0  0  0  0  0  0
    2.6376   -0.1424    0.1084 N   0  0  0  0  0  0  0  0  0  0  0  0
    1.5369    0.7419   -0.3452 C   0  0  0  0  0  0  0  0  0  0  0  0
    0.1479    0.3532    0.2025 C   0  0  0  0  0  0  0  0  0  0  0  0
   -0.2315   -0.9998   -0.2263 N   0  0  0  0  0  0  0  0  0  0  0  0
   -1.4789   -1.2649   -0.7822 C   0  0  0  0  0  0  0  0  0  0  0  0
   -1.5362   -2.0678   -1.8158 N   0  0  0  0  0  0  0  0  0  0  0  0
   -2.7611   -2.3294   -2.4592 C   0  0  0  0  0  0  0  0  0  0  0  0
   -2.7563   -3.1643   -3.5791 C   0  0  0  0  0  0  0  0  0  0  0  0
   -3.9396   -3.4432   -4.2687 C   0  0  0  0  0  0  0  0  0  0  0  0
   -5.1449   -2.8855   -3.8415 C   0  0  0  0  0  0  0  0  0  0  0  0
   -5.1740   -2.0504   -2.7227 C   0  0  0  0  0  0  0  0  0  0  0  0
   -3.9811   -1.7788   -2.0450 C   0  0  0  0  0  0  0  0  0  0  0  0
   -3.9186   -0.9540   -0.9099 N   0  0  0  0  0  0  0  0  0  0  0  0
   -4.9327   -0.2942   -0.2538 C   0  0  0  0  0  0  0  0  0  0  0  0
   -4.4031    0.3409    0.8535 C   0  0  0  0  0  0  0  0  0  0  0  0
   -5.1788    1.1425    1.7934 C   0  0  0  0  0  0  0  0  0  0  0  0
   -4.5645    2.1932    2.4897 C   0  0  0  0  0  0  0  0  0  0  0  0
   -5.2907    2.9742    3.3931 C   0  0  0  0  0  0  0  0  0  0  0  0
   -6.6400    2.7127    3.6134 C   0  0  0  0  0  0  0  0  0  0  0  0
   -7.2640    1.6710    2.9316 C   0  0  0  0  0  0  0  0  0  0  0  0
   -6.5376    0.8891    2.0278 C   0  0  0  0  0  0  0  0  0  0  0  0
   -3.0089    0.0549    0.8460 C   0  0  0  0  0  0  0  0  0  0  0  0
   -2.7237   -0.7066   -0.2733 C   0  0  0  0  0  0  0  0  0  0  0  0
    0.8936   -1.9029   -0.5229 C   0  0  0  0  0  0  0  0  0  0  0  0
    2.1496   -1.5294    0.2927 C   0  0  0  0  0  0  0  0  0  0  0  0
    8.2660    2.8900    0.4936 H   0  0  0  0  0  0  0  0  0  0  0  0
    7.5986    3.1037    2.8591 H   0  0  0  0  0  0  0  0  0  0  0  0
    5.8042    1.6673    3.7815 H   0  0  0  0  0  0  0  0  0  0  0  0
    4.6721    0.0105    2.3449 H   0  0  0  0  0  0  0  0  0  0  0  0
    4.9733   -1.4690    0.3387 H   0  0  0  0  0  0  0  0  0  0  0  0
    5.7466   -0.8779   -1.0921 H   0  0  0  0  0  0  0  0  0  0  0  0
    3.5276   -0.6263   -1.7462 H   0  0  0  0  0  0  0  0  0  0  0  0
    3.9020    0.9855   -1.1522 H   0  0  0  0  0  0  0  0  0  0  0  0
    1.4730    0.7414   -1.4425 H   0  0  0  0  0  0  0  0  0  0  0  0
    1.7651    1.7671   -0.0337 H   0  0  0  0  0  0  0  0  0  0  0  0
   -0.5696    1.0957   -0.1696 H   0  0  0  0  0  0  0  0  0  0  0  0
    0.1474    0.3985    1.2983 H   0  0  0  0  0  0  0  0  0  0  0  0
   -1.8177   -3.5954   -3.9175 H   0  0  0  0  0  0  0  0  0  0  0  0
   -3.9159   -4.0941   -5.1408 H   0  0  0  0  0  0  0  0  0  0  0  0
   -6.0644   -3.1031   -4.3807 H   0  0  0  0  0  0  0  0  0  0  0  0
   -6.1236   -1.6312   -2.4108 H   0  0  0  0  0  0  0  0  0  0  0  0
   -5.9486   -0.3269   -0.6206 H   0  0  0  0  0  0  0  0  0  0  0  0
   -3.5155    2.4250    2.3289 H   0  0  0  0  0  0  0  0  0  0  0  0
   -4.8007    3.7867    3.9223 H   0  0  0  0  0  0  0  0  0  0  0  0
   -7.2055    3.3173    4.3176 H   0  0  0  0  0  0  0  0  0  0  0  0
   -8.3170    1.4628    3.1066 H   0  0  0  0  0  0  0  0  0  0  0  0
   -7.0463    0.0737    1.5214 H   0  0  0  0  0  0  0  0  0  0  0  0
   -2.2891    0.3719    1.5880 H   0  0  0  0  0  0  0  0  0  0  0  0
    1.1300   -1.8819   -1.5958 H   0  0  0  0  0  0  0  0  0  0  0  0
    0.6062   -2.9302   -0.2623 H   0  0  0  0  0  0  0  0  0  0  0  0
    2.9334   -2.2669    0.0915 H   0  0  0  0  0  0  0  0  0  0  0  0
    1.9088   -1.6394    1.3582 H   0  0  0  0  0  0  0  0  0  0  0  0
  1  2  1  0
  2  3  1  0
  2  4  1  0
  2  5  1  0
  5  6  2  0
  6  7  1  0
  7  8  2  0
  8  9  1  0
  9 10  2  0
 10 11  1  0
 11 12  1  0
 12 13  1  0
 13 14  1  0
 14 15  1  0
 15 16  1  0
 16 17  1  0
 17 18  2  0
 18 19  1  0
 19 20  2  0
 20 21  1  0
 21 22  2  0
 22 23  1  0
 23 24  2  0
 24 25  1  0
 25 26  1  0
 26 27  2  0
 27 28  1  0
 28 29  2  0
 29 30  1  0
 30 31  2  0
 31 32  1  0
 32 33  2  0
 27 34  1  0
 34 35  2  0
 16 36  1  0
 36 37  1  0
 10  5  1  0
 37 13  1  0
 35 17  1  0
 24 19  1  0
 35 25  1  0
 33 28  1  0
  6 38  1  0
  7 39  1  0
  8 40  1  0
  9 41  1  0
 11 42  1  0
 11 43  1  0
 12 44  1  0
 12 45  1  0
 14 46  1  0
 14 47  1  0
 15 48  1  0
 15 49  1  0
 20 50  1  0
 21 51  1  0
 22 52  1  0
 23 53  1  0
 26 54  1  0
 29 55  1  0
 30 56  1  0
 31 57  1  0
 32 58  1  0
 33 59  1  0
 34 60  1  0
 36 61  1  0
 36 62  1  0
 37 63  1  0
 37 64  1  0
M  END
$$$$
