
     RDKit          3D

 46 49  0  0  0  0  0  0  0  0999 V2000
    4.2538    1.9341    0.6256 O   0  0  0  0  0  0  0  0  0  0  0  0
    3.3449    1.1640    0.9341 C   0  0  0  0  0  0  0  0  0  0  0  0
    2.2585    1.5989    1.9035 C   0  0  0  0  0  0  0  0  0  0  0  0
    0.7819    2.1902    1.0238 S   0  0  0  0  0  0  0  0  0  0  0  0
   -0.0805    0.7089    0.8039 C   0  0  0  0  0  0  0  0  0  0  0  0
    0.4535   -0.4895    0.8223 N   0  0  0  0  0  0  0  0  0  0  0  0
   -0.5479   -1.3965    0.6084 N   0  0  0  0  0  0  0  0  0  0  0  0
   -1.6841   -0.7352    0.4723 C   0  0  0  0  0  0  0  0  0  0  0  0
   -3.0255   -1.3497    0.2316 C   0  0  0  0  0  0  0  0  0  0  0  0
   -3.4754   -1.2229   -1.1993 C   0  0  0  0  0  0  0  0  0  0  0  0
   -2.7626   -1.4799   -2.3577 C   0  0  0  0  0  0  0  0  0  0  0  0
   -3.5280   -1.2321   -3.5333 C   0  0  0  0  0  0  0  0  0  0  0  0
   -4.8103   -0.8278   -3.2382 C   0  0  0  0  0  0  0  0  0  0  0  0
   -5.0857   -0.7452   -1.5516 S   0  0  0  0  0  0  0  0  0  0  0  0
   -1.4280    0.6157    0.5924 N   0  0  0  0  0  0  0  0  0  0  0  0
   -2.3874    1.6993    0.5134 C   0  0  0  0  0  0  0  0  0  0  0  0
   -2.8016    2.1314    1.8731 C   0  0  0  0  0  0  0  0  0  0  0  0
   -2.5397    3.2506    2.6371 C   0  0  0  0  0  0  0  0  0  0  0  0
   -3.2210    3.0631    3.8654 C   0  0  0  0  0  0  0  0  0  0  0  0
   -3.8625    1.8505    3.7689 C   0  0  0  0  0  0  0  0  0  0  0  0
   -3.6167    1.2792    2.5616 O   0  0  0  0  0  0  0  0  0  0  0  0
    3.1885   -0.1359    0.4837 N   0  0  0  0  0  0  0  0  0  0  0  0
    4.0670   -0.8760   -0.3292 C   0  0  0  0  0  0  0  0  0  0  0  0
    3.5936   -2.0962   -0.8336 C   0  0  0  0  0  0  0  0  0  0  0  0
    4.4060   -2.8972   -1.6410 C   0  0  0  0  0  0  0  0  0  0  0  0
    5.7043   -2.4825   -1.9361 C   0  0  0  0  0  0  0  0  0  0  0  0
    6.8076   -3.5587   -3.0295 Br  0  0  0  0  0  0  0  0  0  0  0  0
    6.1909   -1.2778   -1.4320 C   0  0  0  0  0  0  0  0  0  0  0  0
    5.3708   -0.4744   -0.6315 C   0  0  0  0  0  0  0  0  0  0  0  0
    2.0194    0.7884    2.5987 H   0  0  0  0  0  0  0  0  0  0  0  0
    2.6543    2.4234    2.5058 H   0  0  0  0  0  0  0  0  0  0  0  0
   -2.9745   -2.4189    0.4779 H   0  0  0  0  0  0  0  0  0  0  0  0
   -3.7581   -0.9135    0.9222 H   0  0  0  0  0  0  0  0  0  0  0  0
   -1.7315   -1.8165   -2.3607 H   0  0  0  0  0  0  0  0  0  0  0  0
   -3.1578   -1.3558   -4.5447 H   0  0  0  0  0  0  0  0  0  0  0  0
   -5.6058   -0.5852   -3.9343 H   0  0  0  0  0  0  0  0  0  0  0  0
   -1.9401    2.5189   -0.0578 H   0  0  0  0  0  0  0  0  0  0  0  0
   -3.2609    1.3616   -0.0519 H   0  0  0  0  0  0  0  0  0  0  0  0
   -1.9230    4.0940    2.3509 H   0  0  0  0  0  0  0  0  0  0  0  0
   -3.2436    3.7287    4.7185 H   0  0  0  0  0  0  0  0  0  0  0  0
   -4.4964    1.2831    4.4365 H   0  0  0  0  0  0  0  0  0  0  0  0
    2.2736   -0.5613    0.6478 H   0  0  0  0  0  0  0  0  0  0  0  0
    2.5808   -2.4320   -0.6147 H   0  0  0  0  0  0  0  0  0  0  0  0
    4.0171   -3.8320   -2.0362 H   0  0  0  0  0  0  0  0  0  0  0  0
    7.2005   -0.9464   -1.6597 H   0  0  0  0  0  0  0  0  0  0  0  0
    5.7817    0.4555   -0.2548 H   0  0  0  0  0  0  0  0  0  0  0  0
  1  2  2  0
  2  3  1  0
  3  4  1  0
  4  5  1  0
  5  6  2  0
  6  7  1  0
  7  8  2  0
  8  9  1  0
  9 10  1  0
 10 11  2  0
 11 12  1  0
 12 13  2  0
 13 14  1  0
  8 15  1  0
 15 16  1  0
 16 17  1  0
 17 18  2  0
 18 19  1  0
 19 20  2  0
 20 21  1  0
  2 22  1  0
 22 23  1  0
 23 24  2  0
 24 25  1  0
 25 26  2  0
 26 27  1  0
 26 28  1  0
 28 29  2  0
 15  5  1  0
 21 17  1  0
 29 23  1  0
 14 10  1  0
  3 30  1  0
  3 31  1  0
  9 32  1  0
  9 33  1  0
 11 34  1  0
 12 35  1  0
 13 36  1  0
 16 37  1  0
 16 38  1  0
 18 39  1  0
 19 40  1  0
 20 41  1  0
 22 42  1  0
 24 43  1  0
 25 44  1  0
 28 45  1  0
 29 46  1  0
M  END
$$$$
