
     RDKit          3D

 46 48  0  0  0  0  0  0  0  0999 V2000
   -3.3007    1.5281   -0.1666 C   0  0  0  0  0  0  0  0  0  0  0  0
   -2.7006    0.6620    0.9252 C   0  0  0  0  0  0  0  0  0  0  0  0
   -2.7340   -0.7744    0.5141 N   0  0  0  0  0  4  0  0  0  0  0  0
   -1.6314   -1.3218   -0.0815 C   0  0  0  0  0  0  0  0  0  0  0  0
   -0.4624   -0.4988   -0.4156 C   0  0  0  0  0  0  0  0  0  0  0  0
    0.7215   -0.6569    0.1982 C   0  0  0  0  0  0  0  0  0  0  0  0
    1.9201    0.1285   -0.1275 C   0  0  0  0  0  0  0  0  0  0  0  0
    1.8718    1.4754   -0.4854 C   0  0  0  0  0  0  0  0  0  0  0  0
    3.0511    2.1854   -0.7653 C   0  0  0  0  0  0  0  0  0  0  0  0
    4.3243    1.5967   -0.6848 C   0  0  0  0  0  0  0  0  0  0  0  0
    5.4898    2.3030   -0.9901 N   0  0  0  0  0  0  0  0  0  0  0  0
    5.4521    3.7640   -1.0465 C   0  0  0  0  0  0  0  0  0  0  0  0
    6.7927    1.7180   -0.6741 C   0  0  0  0  0  0  0  0  0  0  0  0
    4.3431    0.2412   -0.3173 C   0  0  0  0  0  0  0  0  0  0  0  0
    3.1715   -0.4787   -0.0335 C   0  0  0  0  0  0  0  0  0  0  0  0
   -1.6000   -2.6753   -0.4191 C   0  0  0  0  0  0  0  0  0  0  0  0
   -2.6897   -3.4824   -0.1543 C   0  0  0  0  0  0  0  0  0  0  0  0
   -3.8191   -2.9306    0.4363 C   0  0  0  0  0  0  0  0  0  0  0  0
   -4.9314   -3.7456    0.6941 C   0  0  0  0  0  0  0  0  0  0  0  0
   -6.0799   -3.2166    1.2753 C   0  0  0  0  0  0  0  0  0  0  0  0
   -6.1296   -1.8685    1.6011 C   0  0  0  0  0  0  0  0  0  0  0  0
   -5.0271   -1.0438    1.3514 C   0  0  0  0  0  0  0  0  0  0  0  0
   -3.8447   -1.5478    0.7720 C   0  0  0  0  0  0  0  0  0  0  0  0
   -2.7480    1.4261   -1.1052 H   0  0  0  0  0  0  0  0  0  0  0  0
   -3.2744    2.5811    0.1302 H   0  0  0  0  0  0  0  0  0  0  0  0
   -4.3414    1.2591   -0.3693 H   0  0  0  0  0  0  0  0  0  0  0  0
   -3.2270    0.7720    1.8773 H   0  0  0  0  0  0  0  0  0  0  0  0
   -1.6707    0.9599    1.1405 H   0  0  0  0  0  0  0  0  0  0  0  0
   -0.6003    0.2298   -1.2099 H   0  0  0  0  0  0  0  0  0  0  0  0
    0.8617   -1.4131    0.9701 H   0  0  0  0  0  0  0  0  0  0  0  0
    0.9295    2.0103   -0.5535 H   0  0  0  0  0  0  0  0  0  0  0  0
    2.9402    3.2262   -1.0555 H   0  0  0  0  0  0  0  0  0  0  0  0
    4.7857    4.1118   -1.8431 H   0  0  0  0  0  0  0  0  0  0  0  0
    6.4387    4.1818   -1.2763 H   0  0  0  0  0  0  0  0  0  0  0  0
    5.1309    4.1856   -0.0876 H   0  0  0  0  0  0  0  0  0  0  0  0
    7.6118    2.3727   -0.9924 H   0  0  0  0  0  0  0  0  0  0  0  0
    6.9416    0.7720   -1.2059 H   0  0  0  0  0  0  0  0  0  0  0  0
    6.8986    1.5555    0.4041 H   0  0  0  0  0  0  0  0  0  0  0  0
    5.2807   -0.3023   -0.2414 H   0  0  0  0  0  0  0  0  0  0  0  0
    3.2664   -1.5253    0.2475 H   0  0  0  0  0  0  0  0  0  0  0  0
   -0.7226   -3.1065   -0.9002 H   0  0  0  0  0  0  0  0  0  0  0  0
   -2.6504   -4.5378   -0.4231 H   0  0  0  0  0  0  0  0  0  0  0  0
   -4.9194   -4.8064    0.4424 H   0  0  0  0  0  0  0  0  0  0  0  0
   -6.9383   -3.8583    1.4696 H   0  0  0  0  0  0  0  0  0  0  0  0
   -7.0327   -1.4559    2.0496 H   0  0  0  0  0  0  0  0  0  0  0  0
   -5.1480    0.0007    1.6212 H   0  0  0  0  0  0  0  0  0  0  0  0
  1  2  1  0
  2  3  1  0
  3  4  2  0
  4  5  1  0
  5  6  2  3
  6  7  1  0
  7  8  2  0
  8  9  1  0
  9 10  2  0
 10 11  1  0
 11 12  1  0
 11 13  1  0
 10 14  1  0
 14 15  2  0
  4 16  1  0
 16 17  2  0
 17 18  1  0
 18 19  2  0
 19 20  1  0
 20 21  2  0
 21 22  1  0
 22 23  2  0
 23  3  1  0
 15  7  1  0
 23 18  1  0
  1 24  1  0
  1 25  1  0
  1 26  1  0
  2 27  1  0
  2 28  1  0
  5 29  1  0
  6 30  1  0
  8 31  1  0
  9 32  1  0
 12 33  1  0
 12 34  1  0
 12 35  1  0
 13 36  1  0
 13 37  1  0
 13 38  1  0
 14 39  1  0
 15 40  1  0
 16 41  1  0
 17 42  1  0
 19 43  1  0
 20 44  1  0
 21 45  1  0
 22 46  1  0
M  CHG  1   3   1
M  END
$$$$
