
     RDKit          3D

 41 42  0  0  0  0  0  0  0  0999 V2000
   -4.2657   -2.0730    1.2578 C   0  0  0  0  0  0  0  0  0  0  0  0
   -4.2944   -0.5757    1.5366 C   0  0  0  0  0  0  0  0  0  0  0  0
   -3.7870    0.2045    0.3926 N   0  0  0  0  0  0  0  0  0  0  0  0
   -4.7198    0.3570   -0.7346 C   0  0  0  0  0  0  0  0  0  0  0  0
   -4.6761    1.7705   -1.2993 C   0  0  0  0  0  0  0  0  0  0  0  0
   -2.4049    0.1830    0.1783 C   0  0  0  0  0  0  0  0  0  0  0  0
   -1.5163    0.4469    1.2333 C   0  0  0  0  0  0  0  0  0  0  0  0
   -0.1251    0.4367    1.0583 C   0  0  0  0  0  0  0  0  0  0  0  0
    0.4317    0.1533   -0.1888 C   0  0  0  0  0  0  0  0  0  0  0  0
    1.8927    0.1765   -0.3400 C   0  0  0  0  0  0  0  0  0  0  0  0
    2.5683   -0.6698   -1.1326 C   0  0  0  0  0  0  0  0  0  0  0  0
    4.0422   -0.6449   -1.3208 C   0  0  0  0  0  0  0  0  0  0  0  0
    4.5162   -0.9917   -2.3990 O   0  0  0  0  0  0  0  0  0  0  0  0
    4.9401   -0.2144   -0.2312 C   0  0  0  0  0  0  0  0  0  0  0  0
    6.1105    0.4818   -0.5378 C   0  0  0  0  0  0  0  0  0  0  0  0
    6.9649    0.8698    0.4915 C   0  0  0  0  0  0  0  0  0  0  0  0
    6.6211    0.5360    1.7924 C   0  0  0  0  0  0  0  0  0  0  0  0
    5.5062   -0.1543    2.1215 N   0  0  0  0  0  0  0  0  0  0  0  0
    4.6968   -0.5270    1.0998 C   0  0  0  0  0  0  0  0  0  0  0  0
   -0.4330   -0.0819   -1.2585 C   0  0  0  0  0  0  0  0  0  0  0  0
   -1.8243   -0.0663   -1.0733 C   0  0  0  0  0  0  0  0  0  0  0  0
   -4.6841   -2.6222    2.1072 H   0  0  0  0  0  0  0  0  0  0  0  0
   -4.8543   -2.3239    0.3695 H   0  0  0  0  0  0  0  0  0  0  0  0
   -3.2437   -2.4304    1.0960 H   0  0  0  0  0  0  0  0  0  0  0  0
   -3.7426   -0.3618    2.4578 H   0  0  0  0  0  0  0  0  0  0  0  0
   -5.3274   -0.2730    1.7492 H   0  0  0  0  0  0  0  0  0  0  0  0
   -4.5425   -0.3916   -1.5145 H   0  0  0  0  0  0  0  0  0  0  0  0
   -5.7470    0.1827   -0.3897 H   0  0  0  0  0  0  0  0  0  0  0  0
   -4.8845    2.5087   -0.5175 H   0  0  0  0  0  0  0  0  0  0  0  0
   -3.7010    2.0101   -1.7330 H   0  0  0  0  0  0  0  0  0  0  0  0
   -5.4292    1.8855   -2.0854 H   0  0  0  0  0  0  0  0  0  0  0  0
   -1.8988    0.7053    2.2171 H   0  0  0  0  0  0  0  0  0  0  0  0
    0.5092    0.6558    1.9142 H   0  0  0  0  0  0  0  0  0  0  0  0
    2.4023    0.9393    0.2439 H   0  0  0  0  0  0  0  0  0  0  0  0
    2.0629   -1.4032   -1.7539 H   0  0  0  0  0  0  0  0  0  0  0  0
    6.3555    0.7186   -1.5707 H   0  0  0  0  0  0  0  0  0  0  0  0
    7.8788    1.4152    0.2827 H   0  0  0  0  0  0  0  0  0  0  0  0
    7.2555    0.8176    2.6286 H   0  0  0  0  0  0  0  0  0  0  0  0
    3.8330   -1.1106    1.4053 H   0  0  0  0  0  0  0  0  0  0  0  0
   -0.0470   -0.2698   -2.2575 H   0  0  0  0  0  0  0  0  0  0  0  0
   -2.4393   -0.2693   -1.9441 H   0  0  0  0  0  0  0  0  0  0  0  0
  1  2  1  0
  2  3  1  0
  3  4  1  0
  4  5  1  0
  3  6  1  0
  6  7  2  0
  7  8  1  0
  8  9  2  0
  9 10  1  0
 10 11  2  3
 11 12  1  0
 12 13  2  0
 12 14  1  0
 14 15  2  0
 15 16  1  0
 16 17  2  0
 17 18  1  0
 18 19  2  0
  9 20  1  0
 20 21  2  0
 21  6  1  0
 19 14  1  0
  1 22  1  0
  1 23  1  0
  1 24  1  0
  2 25  1  0
  2 26  1  0
  4 27  1  0
  4 28  1  0
  5 29  1  0
  5 30  1  0
  5 31  1  0
  7 32  1  0
  8 33  1  0
 10 34  1  0
 11 35  1  0
 15 36  1  0
 16 37  1  0
 17 38  1  0
 19 39  1  0
 20 40  1  0
 21 41  1  0
M  END
$$$$
