
     RDKit          3D

 57 59  0  0  0  0  0  0  0  0999 V2000
   -8.7087   -0.9025   -2.2870 C   0  0  0  0  0  0  0  0  0  0  0  0
   -8.1163   -0.8110   -0.9993 O   0  0  0  0  0  0  0  0  0  0  0  0
   -6.7589   -0.9954   -0.9057 C   0  0  0  0  0  0  0  0  0  0  0  0
   -5.9150   -1.2165   -2.0014 C   0  0  0  0  0  0  0  0  0  0  0  0
   -4.5434   -1.3876   -1.8107 C   0  0  0  0  0  0  0  0  0  0  0  0
   -4.0165   -1.3297   -0.5201 C   0  0  0  0  0  0  0  0  0  0  0  0
   -2.2701   -1.5387   -0.2965 S   0  0  0  0  0  6  0  0  0  0  0  0
   -1.8502   -2.6469   -1.1257 O   0  0  0  0  0  0  0  0  0  0  0  0
   -1.9785   -1.5117    1.1206 O   0  0  0  0  0  0  0  0  0  0  0  0
   -1.6509   -0.1372   -0.9628 N   0  0  0  0  0  0  0  0  0  0  0  0
   -2.0015    1.1648   -0.3729 C   0  0  0  0  0  0  0  0  0  0  0  0
   -0.7085    1.9546   -0.4173 C   0  0  0  0  0  0  0  0  0  0  0  0
    0.0815    1.3052   -1.4177 O   0  0  0  0  0  0  0  0  0  0  0  0
   -0.2183   -0.0982   -1.3020 C   0  0  0  0  0  0  0  0  0  0  0  0
    0.7290   -0.7752   -0.2725 C   0  0  0  0  0  0  0  0  0  0  0  0
    2.1358   -0.6001   -0.5934 N   0  0  0  0  0  0  0  0  0  0  0  0
    2.8632    0.4773   -0.1414 C   0  0  0  0  0  0  0  0  0  0  0  0
    2.4986    1.3087    0.6785 O   0  0  0  0  0  0  0  0  0  0  0  0
    4.2710    0.5777   -0.7721 C   0  0  0  0  0  0  0  0  0  0  0  0
    4.6324   -0.2496   -1.5976 O   0  0  0  0  0  0  0  0  0  0  0  0
    5.0054    1.6408   -0.3049 N   0  0  0  0  0  0  0  0  0  0  0  0
    6.3913    1.8300   -0.6416 C   0  0  0  0  0  0  0  0  0  0  0  0
    7.2866    1.2539    0.4254 C   0  0  0  0  0  0  0  0  0  0  0  0
    7.7490    2.0557    1.4812 C   0  0  0  0  0  0  0  0  0  0  0  0
    8.5592    1.5096    2.4781 C   0  0  0  0  0  0  0  0  0  0  0  0
    8.9005    0.1633    2.4248 C   0  0  0  0  0  0  0  0  0  0  0  0
    9.6772   -0.3582    3.3834 F   0  0  0  0  0  0  0  0  0  0  0  0
    8.4450   -0.6499    1.3946 C   0  0  0  0  0  0  0  0  0  0  0  0
    7.6354   -0.1066    0.3965 C   0  0  0  0  0  0  0  0  0  0  0  0
   -4.8434   -1.1213    0.5870 C   0  0  0  0  0  0  0  0  0  0  0  0
   -6.2183   -0.9527    0.3990 C   0  0  0  0  0  0  0  0  0  0  0  0
   -7.1146   -0.7302    1.4152 O   0  0  0  0  0  0  0  0  0  0  0  0
   -6.6402   -0.8371    2.7504 C   0  0  0  0  0  0  0  0  0  0  0  0
   -9.7868   -0.7555   -2.1703 H   0  0  0  0  0  0  0  0  0  0  0  0
   -8.5542   -1.8944   -2.7243 H   0  0  0  0  0  0  0  0  0  0  0  0
   -8.3360   -0.1144   -2.9493 H   0  0  0  0  0  0  0  0  0  0  0  0
   -6.2955   -1.2612   -3.0167 H   0  0  0  0  0  0  0  0  0  0  0  0
   -3.8940   -1.5619   -2.6663 H   0  0  0  0  0  0  0  0  0  0  0  0
   -2.7614    1.6355   -1.0056 H   0  0  0  0  0  0  0  0  0  0  0  0
   -2.3894    1.1037    0.6471 H   0  0  0  0  0  0  0  0  0  0  0  0
   -0.1804    1.9146    0.5410 H   0  0  0  0  0  0  0  0  0  0  0  0
   -0.8638    3.0034   -0.6846 H   0  0  0  0  0  0  0  0  0  0  0  0
   -0.0620   -0.5394   -2.2923 H   0  0  0  0  0  0  0  0  0  0  0  0
    0.5574   -0.3709    0.7311 H   0  0  0  0  0  0  0  0  0  0  0  0
    0.5586   -1.8550   -0.2369 H   0  0  0  0  0  0  0  0  0  0  0  0
    2.5661   -1.1542   -1.3301 H   0  0  0  0  0  0  0  0  0  0  0  0
    4.5932    2.1701    0.4578 H   0  0  0  0  0  0  0  0  0  0  0  0
    6.6145    1.3724   -1.6122 H   0  0  0  0  0  0  0  0  0  0  0  0
    6.5624    2.9073   -0.7429 H   0  0  0  0  0  0  0  0  0  0  0  0
    7.4807    3.1086    1.5330 H   0  0  0  0  0  0  0  0  0  0  0  0
    8.9235    2.1228    3.2961 H   0  0  0  0  0  0  0  0  0  0  0  0
    8.7185   -1.6999    1.3763 H   0  0  0  0  0  0  0  0  0  0  0  0
    7.2709   -0.7481   -0.4047 H   0  0  0  0  0  0  0  0  0  0  0  0
   -4.4007   -1.0899    1.5771 H   0  0  0  0  0  0  0  0  0  0  0  0
   -7.4958   -0.7086    3.4204 H   0  0  0  0  0  0  0  0  0  0  0  0
   -5.9202   -0.0436    2.9753 H   0  0  0  0  0  0  0  0  0  0  0  0
   -6.2128   -1.8268    2.9427 H   0  0  0  0  0  0  0  0  0  0  0  0
  1  2  1  0
  2  3  1  0
  3  4  2  0
  4  5  1  0
  5  6  2  0
  6  7  1  0
  7  8  2  0
  7  9  2  0
  7 10  1  0
 10 11  1  0
 11 12  1  0
 12 13  1  0
 13 14  1  0
 14 15  1  0
 15 16  1  0
 16 17  1  0
 17 18  2  0
 17 19  1  0
 19 20  2  0
 19 21  1  0
 21 22  1  0
 22 23  1  0
 23 24  2  0
 24 25  1  0
 25 26  2  0
 26 27  1  0
 26 28  1  0
 28 29  2  0
  6 30  1  0
 30 31  2  0
 31 32  1  0
 32 33  1  0
 31  3  1  0
 14 10  1  0
 29 23  1  0
  1 34  1  0
  1 35  1  0
  1 36  1  0
  4 37  1  0
  5 38  1  0
 11 39  1  0
 11 40  1  0
 12 41  1  0
 12 42  1  0
 14 43  1  0
 15 44  1  0
 15 45  1  0
 16 46  1  0
 21 47  1  0
 22 48  1  0
 22 49  1  0
 24 50  1  0
 25 51  1  0
 28 52  1  0
 29 53  1  0
 30 54  1  0
 33 55  1  0
 33 56  1  0
 33 57  1  0
M  END
$$$$
