
     RDKit          3D

 38 40  0  0  0  0  0  0  0  0999 V2000
    0.7110   -2.8216   -1.0669 S   0  0  0  0  0  0  0  0  0  0  0  0
    0.4000   -1.3112   -0.3982 C   0  0  0  0  0  0  0  0  0  0  0  0
    1.3497   -0.5794    0.2863 N   0  0  0  0  0  0  0  0  0  0  0  0
    2.7440   -0.9263    0.5348 C   0  0  0  0  0  0  0  0  0  0  0  0
    3.6621    0.0030   -0.2186 C   0  0  0  0  0  0  0  0  0  0  0  0
    4.2548    1.0999    0.4236 C   0  0  0  0  0  0  0  0  0  0  0  0
    5.0865    1.9698   -0.2840 C   0  0  0  0  0  0  0  0  0  0  0  0
    5.3287    1.7562   -1.6397 C   0  0  0  0  0  0  0  0  0  0  0  0
    4.7389    0.6741   -2.2901 C   0  0  0  0  0  0  0  0  0  0  0  0
    3.9078   -0.1970   -1.5844 C   0  0  0  0  0  0  0  0  0  0  0  0
   -0.8485   -0.6778   -0.4559 N   0  0  0  0  0  0  0  0  0  0  0  0
   -1.8851   -1.0348   -1.4353 C   0  0  0  0  0  0  0  0  0  0  0  0
   -3.1211   -1.5869   -0.7314 C   0  0  0  0  0  0  0  0  0  0  0  0
   -3.6122   -0.6167    0.3139 C   0  0  0  0  0  0  0  0  0  0  0  0
   -4.9476   -0.6574    0.7366 C   0  0  0  0  0  0  0  0  0  0  0  0
   -5.4050    0.2272    1.7123 C   0  0  0  0  0  0  0  0  0  0  0  0
   -4.5318    1.1525    2.2784 C   0  0  0  0  0  0  0  0  0  0  0  0
   -3.1968    1.1903    1.8747 C   0  0  0  0  0  0  0  0  0  0  0  0
   -2.7199    0.3027    0.8975 C   0  0  0  0  0  0  0  0  0  0  0  0
   -1.2613    0.3681    0.4909 C   0  0  0  0  0  0  0  0  0  0  0  0
    1.1726    0.4114    0.3423 H   0  0  0  0  0  0  0  0  0  0  0  0
    2.9024   -0.8142    1.6136 H   0  0  0  0  0  0  0  0  0  0  0  0
    2.9725   -1.9668    0.2908 H   0  0  0  0  0  0  0  0  0  0  0  0
    4.0754    1.2826    1.4807 H   0  0  0  0  0  0  0  0  0  0  0  0
    5.5463    2.8146    0.2222 H   0  0  0  0  0  0  0  0  0  0  0  0
    5.9765    2.4332   -2.1903 H   0  0  0  0  0  0  0  0  0  0  0  0
    4.9242    0.5076   -3.3481 H   0  0  0  0  0  0  0  0  0  0  0  0
    3.4489   -1.0349   -2.1059 H   0  0  0  0  0  0  0  0  0  0  0  0
   -2.1333   -0.1163   -1.9839 H   0  0  0  0  0  0  0  0  0  0  0  0
   -1.5268   -1.7476   -2.1813 H   0  0  0  0  0  0  0  0  0  0  0  0
   -2.8860   -2.5384   -0.2397 H   0  0  0  0  0  0  0  0  0  0  0  0
   -3.9045   -1.7693   -1.4758 H   0  0  0  0  0  0  0  0  0  0  0  0
   -5.6381   -1.3789    0.3058 H   0  0  0  0  0  0  0  0  0  0  0  0
   -6.4431    0.1925    2.0325 H   0  0  0  0  0  0  0  0  0  0  0  0
   -4.8897    1.8413    3.0391 H   0  0  0  0  0  0  0  0  0  0  0  0
   -2.5264    1.9142    2.3328 H   0  0  0  0  0  0  0  0  0  0  0  0
   -0.6556    0.3036    1.4013 H   0  0  0  0  0  0  0  0  0  0  0  0
   -1.0692    1.3309    0.0030 H   0  0  0  0  0  0  0  0  0  0  0  0
  1  2  2  0
  2  3  1  0
  3  4  1  0
  4  5  1  0
  5  6  2  0
  6  7  1  0
  7  8  2  0
  8  9  1  0
  9 10  2  0
  2 11  1  0
 11 12  1  0
 12 13  1  0
 13 14  1  0
 14 15  2  0
 15 16  1  0
 16 17  2  0
 17 18  1  0
 18 19  2  0
 19 20  1  0
 10  5  1  0
 20 11  1  0
 19 14  1  0
  3 21  1  0
  4 22  1  0
  4 23  1  0
  6 24  1  0
  7 25  1  0
  8 26  1  0
  9 27  1  0
 10 28  1  0
 12 29  1  0
 12 30  1  0
 13 31  1  0
 13 32  1  0
 15 33  1  0
 16 34  1  0
 17 35  1  0
 18 36  1  0
 20 37  1  0
 20 38  1  0
M  END
$$$$
