
     RDKit          3D

 54 57  0  0  0  0  0  0  0  0999 V2000
   -2.2668    2.9393   -3.8948 C   0  0  0  0  0  0  0  0  0  0  0  0
   -3.3253    3.0326   -2.9450 O   0  0  0  0  0  0  0  0  0  0  0  0
   -3.2919    2.1799   -1.8713 C   0  0  0  0  0  0  0  0  0  0  0  0
   -2.2698    1.2606   -1.6085 C   0  0  0  0  0  0  0  0  0  0  0  0
   -2.3027    0.4244   -0.4741 C   0  0  0  0  0  0  0  0  0  0  0  0
   -1.2168   -0.5364   -0.1783 C   0  0  0  0  0  0  0  0  0  0  0  0
    0.1071   -0.3099   -0.5130 C   0  0  0  0  0  0  0  0  0  0  0  0
    1.0534   -1.2811   -0.1826 C   0  0  0  0  0  0  0  0  0  0  0  0
    2.4594   -0.9626   -0.5252 C   0  0  0  0  0  0  0  0  0  0  0  0
    2.7137   -0.6786   -1.6868 O   0  0  0  0  0  0  0  0  0  0  0  0
    3.3170   -0.9599    0.5574 N   0  0  0  0  0  0  0  0  0  0  0  0
    4.7098   -0.7401    0.5432 C   0  0  0  0  0  0  0  0  0  0  0  0
    5.3691   -0.7216    1.7808 C   0  0  0  0  0  0  0  0  0  0  0  0
    6.7516   -0.5222    1.8515 C   0  0  0  0  0  0  0  0  0  0  0  0
    7.4759   -0.3462    0.6796 C   0  0  0  0  0  0  0  0  0  0  0  0
    8.8238   -0.1441    0.6988 O   0  0  0  0  0  0  0  0  0  0  0  0
    6.8394   -0.3627   -0.5550 C   0  0  0  0  0  0  0  0  0  0  0  0
    5.4562   -0.5576   -0.6228 C   0  0  0  0  0  0  0  0  0  0  0  0
    0.6767   -2.4901    0.4425 C   0  0  0  0  0  0  0  0  0  0  0  0
    1.5538   -3.5647    0.7438 C   0  0  0  0  0  0  0  0  0  0  0  0
    1.0901   -4.7141    1.3830 C   0  0  0  0  0  0  0  0  0  0  0  0
   -0.2512   -4.8125    1.7210 C   0  0  0  0  0  0  0  0  0  0  0  0
   -1.1219   -3.7669    1.4037 C   0  0  0  0  0  0  0  0  0  0  0  0
   -0.6865   -2.6136    0.7635 C   0  0  0  0  0  0  0  0  0  0  0  0
   -1.5929   -1.6640    0.4757 N   0  0  0  0  0  0  0  0  0  0  0  0
   -3.4197    0.5210    0.3819 C   0  0  0  0  0  0  0  0  0  0  0  0
   -4.4611    1.4209    0.1354 C   0  0  0  0  0  0  0  0  0  0  0  0
   -5.5647    1.5695    0.9403 O   0  0  0  0  0  0  0  0  0  0  0  0
   -5.8905    0.4676    1.7789 C   0  0  0  0  0  0  0  0  0  0  0  0
   -4.3737    2.2657   -0.9793 C   0  0  0  0  0  0  0  0  0  0  0  0
   -5.4080    3.1349   -1.2513 O   0  0  0  0  0  0  0  0  0  0  0  0
   -5.1659    4.3861   -0.6141 C   0  0  0  0  0  0  0  0  0  0  0  0
   -2.2428    1.9487   -4.3679 H   0  0  0  0  0  0  0  0  0  0  0  0
   -2.4568    3.6772   -4.6804 H   0  0  0  0  0  0  0  0  0  0  0  0
   -1.3007    3.1869   -3.4352 H   0  0  0  0  0  0  0  0  0  0  0  0
   -1.4366    1.1695   -2.2954 H   0  0  0  0  0  0  0  0  0  0  0  0
    0.4233    0.6067   -1.0040 H   0  0  0  0  0  0  0  0  0  0  0  0
    2.9026   -1.1157    1.4688 H   0  0  0  0  0  0  0  0  0  0  0  0
    4.8182   -0.8602    2.7070 H   0  0  0  0  0  0  0  0  0  0  0  0
    7.2405   -0.5164    2.8216 H   0  0  0  0  0  0  0  0  0  0  0  0
    9.1141   -0.0647    1.6209 H   0  0  0  0  0  0  0  0  0  0  0  0
    7.4142   -0.2287   -1.4662 H   0  0  0  0  0  0  0  0  0  0  0  0
    4.9946   -0.5673   -1.6053 H   0  0  0  0  0  0  0  0  0  0  0  0
    2.6062   -3.5248    0.4655 H   0  0  0  0  0  0  0  0  0  0  0  0
    1.7733   -5.5308    1.6047 H   0  0  0  0  0  0  0  0  0  0  0  0
   -0.6295   -5.7041    2.2165 H   0  0  0  0  0  0  0  0  0  0  0  0
   -2.1766   -3.8606    1.6548 H   0  0  0  0  0  0  0  0  0  0  0  0
   -3.4488   -0.1212    1.2578 H   0  0  0  0  0  0  0  0  0  0  0  0
   -5.9221   -0.4722    1.2164 H   0  0  0  0  0  0  0  0  0  0  0  0
   -5.1953    0.4028    2.6230 H   0  0  0  0  0  0  0  0  0  0  0  0
   -6.8912    0.6436    2.1866 H   0  0  0  0  0  0  0  0  0  0  0  0
   -5.1946    4.2863    0.4730 H   0  0  0  0  0  0  0  0  0  0  0  0
   -4.2125    4.8213   -0.9304 H   0  0  0  0  0  0  0  0  0  0  0  0
   -5.9672    5.0695   -0.9106 H   0  0  0  0  0  0  0  0  0  0  0  0
  1  2  1  0
  2  3  1  0
  3  4  2  0
  4  5  1  0
  5  6  1  0
  6  7  2  0
  7  8  1  0
  8  9  1  0
  9 10  2  0
  9 11  1  0
 11 12  1  0
 12 13  2  0
 13 14  1  0
 14 15  2  0
 15 16  1  0
 15 17  1  0
 17 18  2  0
  8 19  2  0
 19 20  1  0
 20 21  2  0
 21 22  1  0
 22 23  2  0
 23 24  1  0
 24 25  2  0
  5 26  2  0
 26 27  1  0
 27 28  1  0
 28 29  1  0
 27 30  2  0
 30 31  1  0
 31 32  1  0
 30  3  1  0
 25  6  1  0
 18 12  1  0
 24 19  1  0
  1 33  1  0
  1 34  1  0
  1 35  1  0
  4 36  1  0
  7 37  1  0
 11 38  1  0
 13 39  1  0
 14 40  1  0
 16 41  1  0
 17 42  1  0
 18 43  1  0
 20 44  1  0
 21 45  1  0
 22 46  1  0
 23 47  1  0
 26 48  1  0
 29 49  1  0
 29 50  1  0
 29 51  1  0
 32 52  1  0
 32 53  1  0
 32 54  1  0
M  END
$$$$
