
     RDKit          3D

 37 39  0  0  0  0  0  0  0  0999 V2000
    3.0827    1.4294    5.0842 C   0  0  0  0  0  0  0  0  0  0  0  0
    2.3359    1.3531    3.8757 O   0  0  0  0  0  0  0  0  0  0  0  0
    2.2283    0.1191    3.2910 C   0  0  0  0  0  0  0  0  0  0  0  0
    2.7886   -1.0639    3.7685 C   0  0  0  0  0  0  0  0  0  0  0  0
    2.6138   -2.2752    3.0861 C   0  0  0  0  0  0  0  0  0  0  0  0
    1.8586   -2.2597    1.9086 C   0  0  0  0  0  0  0  0  0  0  0  0
    1.5331   -3.2857    1.0523 N   0  0  0  0  0  0  0  0  0  0  0  0
    0.7704   -2.8144    0.0141 C   0  0  0  0  0  0  0  0  0  0  0  0
    0.5938   -1.4594    0.1961 C   0  0  0  0  0  0  0  0  0  0  0  0
   -0.1364   -0.5739   -0.6581 C   0  0  0  0  0  0  0  0  0  0  0  0
   -0.8207   -0.9219   -1.7615 C   0  0  0  0  0  0  0  0  0  0  0  0
   -1.5543    0.0377   -2.5939 C   0  0  0  0  0  0  0  0  0  0  0  0
   -2.8127   -0.3066   -3.0830 C   0  0  0  0  0  0  0  0  0  0  0  0
   -3.5083    0.5886   -3.8880 C   0  0  0  0  0  0  0  0  0  0  0  0
   -2.9720    1.7875   -4.2076 N   0  0  0  0  0  4  0  0  0  0  0  0
   -3.7234    2.7159   -5.0692 C   0  0  0  0  0  0  0  0  0  0  0  0
   -1.7419    2.1327   -3.7664 C   0  0  0  0  0  0  0  0  0  0  0  0
   -1.0120    1.2697   -2.9572 C   0  0  0  0  0  0  0  0  0  0  0  0
    1.2820   -1.0968    1.3977 C   0  0  0  0  0  0  0  0  0  0  0  0
    1.4756    0.1077    2.1084 C   0  0  0  0  0  0  0  0  0  0  0  0
    3.0696    2.4710    5.4195 H   0  0  0  0  0  0  0  0  0  0  0  0
    2.6242    0.8208    5.8706 H   0  0  0  0  0  0  0  0  0  0  0  0
    4.1276    1.1454    4.9210 H   0  0  0  0  0  0  0  0  0  0  0  0
    3.3764   -1.0854    4.6812 H   0  0  0  0  0  0  0  0  0  0  0  0
    3.0543   -3.1917    3.4665 H   0  0  0  0  0  0  0  0  0  0  0  0
    1.8207   -4.2470    1.1768 H   0  0  0  0  0  0  0  0  0  0  0  0
    0.4312   -3.4956   -0.7539 H   0  0  0  0  0  0  0  0  0  0  0  0
   -0.1304    0.4708   -0.3544 H   0  0  0  0  0  0  0  0  0  0  0  0
   -0.8738   -1.9627   -2.0721 H   0  0  0  0  0  0  0  0  0  0  0  0
   -3.2630   -1.2657   -2.8327 H   0  0  0  0  0  0  0  0  0  0  0  0
   -4.4931    0.3538   -4.2822 H   0  0  0  0  0  0  0  0  0  0  0  0
   -3.4511    2.4947   -6.1041 H   0  0  0  0  0  0  0  0  0  0  0  0
   -4.7942    2.5680   -4.9076 H   0  0  0  0  0  0  0  0  0  0  0  0
   -3.4570    3.7430   -4.8067 H   0  0  0  0  0  0  0  0  0  0  0  0
   -1.3480    3.0987   -4.0701 H   0  0  0  0  0  0  0  0  0  0  0  0
   -0.0177    1.5626   -2.6243 H   0  0  0  0  0  0  0  0  0  0  0  0
    1.0432    1.0355    1.7475 H   0  0  0  0  0  0  0  0  0  0  0  0
  1  2  1  0
  2  3  1  0
  3  4  2  0
  4  5  1  0
  5  6  2  0
  6  7  1  0
  7  8  1  0
  8  9  2  0
  9 10  1  0
 10 11  2  3
 11 12  1  0
 12 13  2  0
 13 14  1  0
 14 15  2  0
 15 16  1  0
 15 17  1  0
 17 18  2  0
  9 19  1  0
 19 20  2  0
 20  3  1  0
 19  6  1  0
 18 12  1  0
  1 21  1  0
  1 22  1  0
  1 23  1  0
  4 24  1  0
  5 25  1  0
  7 26  1  0
  8 27  1  0
 10 28  1  0
 11 29  1  0
 13 30  1  0
 14 31  1  0
 16 32  1  0
 16 33  1  0
 16 34  1  0
 17 35  1  0
 18 36  1  0
 20 37  1  0
M  CHG  1  15   1
M  END
$$$$
