
     RDKit          3D

 41 44  0  0  0  0  0  0  0  0999 V2000
    6.0455    1.9185    0.5071 C   0  0  0  0  0  0  0  0  0  0  0  0
    4.8586    1.0083    0.4127 C   0  0  0  0  0  0  0  0  0  0  0  0
    5.0171   -0.3755    0.4446 C   0  0  0  0  0  0  0  0  0  0  0  0
    3.9076   -1.2247    0.3231 C   0  0  0  0  0  0  0  0  0  0  0  0
    2.6047   -0.7272    0.1584 C   0  0  0  0  0  0  0  0  0  0  0  0
    1.5016   -1.6173    0.0401 N   0  0  0  0  0  0  0  0  0  0  0  0
    1.5555   -3.0411   -0.0816 C   0  0  0  0  0  0  0  0  0  0  0  0
    2.5120   -3.7972   -0.1245 O   0  0  0  0  0  0  0  0  0  0  0  0
    0.2292   -3.4850   -0.1632 N   0  0  0  0  0  0  0  0  0  0  0  0
   -0.6115   -2.3871   -0.0892 C   0  0  0  0  0  0  0  0  0  0  0  0
   -1.9697   -2.2629   -0.1092 C   0  0  0  0  0  0  0  0  0  0  0  0
   -2.8518   -3.4551   -0.2412 C   0  0  0  0  0  0  0  0  0  0  0  0
   -4.1954   -3.1956   -0.2475 N   0  0  0  0  0  0  0  0  0  0  0  0
   -2.4084   -4.5924   -0.3377 O   0  0  0  0  0  0  0  0  0  0  0  0
   -2.5810   -1.0592   -0.0064 N   0  0  0  0  0  0  0  0  0  0  0  0
   -1.7625    0.0066    0.1212 C   0  0  0  0  0  0  0  0  0  0  0  0
   -2.3784    1.3195    0.2416 C   0  0  0  0  0  0  0  0  0  0  0  0
   -1.8769    2.5973    0.4056 C   0  0  0  0  0  0  0  0  0  0  0  0
   -2.9896    3.4714    0.4546 C   0  0  0  0  0  0  0  0  0  0  0  0
   -4.1081    2.6795    0.3183 C   0  0  0  0  0  0  0  0  0  0  0  0
   -5.5567    2.9608    0.2870 C   0  0  0  0  0  0  0  0  0  0  0  0
   -3.7459    1.3728    0.1883 O   0  0  0  0  0  0  0  0  0  0  0  0
   -0.4131   -0.0225    0.1500 N   0  0  0  0  0  0  0  0  0  0  0  0
    0.1338   -1.2372    0.0356 C   0  0  0  0  0  0  0  0  0  0  0  0
    2.4707    0.6686    0.1085 C   0  0  0  0  0  0  0  0  0  0  0  0
    3.5769    1.5237    0.2292 C   0  0  0  0  0  0  0  0  0  0  0  0
    6.4424    2.1208   -0.4924 H   0  0  0  0  0  0  0  0  0  0  0  0
    5.7722    2.8685    0.9783 H   0  0  0  0  0  0  0  0  0  0  0  0
    6.8358    1.4689    1.1173 H   0  0  0  0  0  0  0  0  0  0  0  0
    6.0050   -0.8148    0.5663 H   0  0  0  0  0  0  0  0  0  0  0  0
    4.1089   -2.2908    0.3730 H   0  0  0  0  0  0  0  0  0  0  0  0
   -0.0613   -4.4516   -0.2565 H   0  0  0  0  0  0  0  0  0  0  0  0
   -4.5330   -2.2418   -0.1652 H   0  0  0  0  0  0  0  0  0  0  0  0
   -4.8526   -3.9579   -0.3339 H   0  0  0  0  0  0  0  0  0  0  0  0
   -0.8302    2.8578    0.4810 H   0  0  0  0  0  0  0  0  0  0  0  0
   -2.9781    4.5459    0.5751 H   0  0  0  0  0  0  0  0  0  0  0  0
   -5.9802    2.6775   -0.6815 H   0  0  0  0  0  0  0  0  0  0  0  0
   -5.7536    4.0253    0.4479 H   0  0  0  0  0  0  0  0  0  0  0  0
   -6.0738    2.3965    1.0693 H   0  0  0  0  0  0  0  0  0  0  0  0
    1.5131    1.1499   -0.0486 H   0  0  0  0  0  0  0  0  0  0  0  0
    3.4211    2.5990    0.1736 H   0  0  0  0  0  0  0  0  0  0  0  0
  1  2  1  0
  2  3  2  0
  3  4  1  0
  4  5  2  0
  5  6  1  0
  6  7  1  0
  7  8  2  0
  7  9  1  0
  9 10  1  0
 10 11  2  0
 11 12  1  0
 12 13  1  0
 12 14  2  0
 11 15  1  0
 15 16  2  0
 16 17  1  0
 17 18  2  0
 18 19  1  0
 19 20  2  0
 20 21  1  0
 20 22  1  0
 16 23  1  0
 23 24  2  0
  5 25  1  0
 25 26  2  0
 26  2  1  0
 24  6  1  0
 24 10  1  0
 22 17  1  0
  1 27  1  0
  1 28  1  0
  1 29  1  0
  3 30  1  0
  4 31  1  0
  9 32  1  0
 13 33  1  0
 13 34  1  0
 18 35  1  0
 19 36  1  0
 21 37  1  0
 21 38  1  0
 21 39  1  0
 25 40  1  0
 26 41  1  0
M  END
$$$$
