
     RDKit          3D

 37 38  0  0  0  0  0  0  0  0999 V2000
    4.5326    2.2055   -0.1925 C   0  0  0  0  0  0  0  0  0  0  0  0
    4.7263    0.9582    0.6508 C   0  0  0  0  0  0  0  0  0  0  0  0
    3.6016    0.0490    0.5483 N   0  0  0  0  0  0  0  0  0  0  0  0
    2.5493   -0.0505    1.4096 C   0  0  0  0  0  0  0  0  0  0  0  0
    1.7366   -1.0528    0.9175 C   0  0  0  0  0  0  0  0  0  0  0  0
    0.4598   -1.5537    1.4817 C   0  0  0  0  0  0  0  0  0  0  0  0
   -0.6213   -0.8284    0.8568 N   0  0  0  0  0  0  0  0  0  0  0  0
   -1.9234   -1.2286    1.0521 C   0  0  0  0  0  0  0  0  0  0  0  0
   -2.2307   -2.2284    1.6905 O   0  0  0  0  0  0  0  0  0  0  0  0
   -2.9843   -0.3596    0.4700 C   0  0  0  0  0  0  0  0  0  0  0  0
   -4.2637   -0.4014    1.0448 C   0  0  0  0  0  0  0  0  0  0  0  0
   -5.2992    0.3860    0.5360 C   0  0  0  0  0  0  0  0  0  0  0  0
   -5.0676    1.2184   -0.5584 C   0  0  0  0  0  0  0  0  0  0  0  0
   -3.7940    1.2503   -1.1428 C   0  0  0  0  0  0  0  0  0  0  0  0
   -3.5502    2.1209   -2.2996 N   0  0  0  0  0  4  0  0  0  0  0  0
   -4.5240    2.6961   -2.8046 O   0  0  0  0  0  0  0  0  0  0  0  0
   -2.3816    2.2326   -2.6959 O   0  0  0  0  0  1  0  0  0  0  0  0
   -2.7484    0.4619   -0.6389 C   0  0  0  0  0  0  0  0  0  0  0  0
    2.4000   -1.4926   -0.2619 C   0  0  0  0  0  0  0  0  0  0  0  0
    1.9729   -2.5558   -1.2057 C   0  0  0  0  0  0  0  0  0  0  0  0
    3.5328   -0.8138   -0.4784 N   0  0  0  0  0  0  0  0  0  0  0  0
    5.3935    2.8728   -0.0876 H   0  0  0  0  0  0  0  0  0  0  0  0
    3.6353    2.7533    0.1145 H   0  0  0  0  0  0  0  0  0  0  0  0
    4.4230    1.9534   -1.2526 H   0  0  0  0  0  0  0  0  0  0  0  0
    5.6239    0.4124    0.3398 H   0  0  0  0  0  0  0  0  0  0  0  0
    4.8445    1.2246    1.7067 H   0  0  0  0  0  0  0  0  0  0  0  0
    2.4666    0.5805    2.2836 H   0  0  0  0  0  0  0  0  0  0  0  0
    0.3319   -2.6269    1.3044 H   0  0  0  0  0  0  0  0  0  0  0  0
    0.4076   -1.3806    2.5624 H   0  0  0  0  0  0  0  0  0  0  0  0
   -0.4232    0.1148    0.5529 H   0  0  0  0  0  0  0  0  0  0  0  0
   -4.4566   -1.0532    1.8966 H   0  0  0  0  0  0  0  0  0  0  0  0
   -6.2860    0.3452    0.9929 H   0  0  0  0  0  0  0  0  0  0  0  0
   -5.8840    1.8260   -0.9449 H   0  0  0  0  0  0  0  0  0  0  0  0
   -1.7752    0.4686   -1.1233 H   0  0  0  0  0  0  0  0  0  0  0  0
    1.9591   -3.5276   -0.7021 H   0  0  0  0  0  0  0  0  0  0  0  0
    2.6488   -2.6284   -2.0641 H   0  0  0  0  0  0  0  0  0  0  0  0
    0.9673   -2.3482   -1.5853 H   0  0  0  0  0  0  0  0  0  0  0  0
  1  2  1  0
  2  3  1  0
  3  4  1  0
  4  5  2  0
  5  6  1  0
  6  7  1  0
  7  8  1  0
  8  9  2  0
  8 10  1  0
 10 11  2  0
 11 12  1  0
 12 13  2  0
 13 14  1  0
 14 15  1  0
 15 16  2  0
 15 17  1  0
 14 18  2  0
  5 19  1  0
 19 20  1  0
 19 21  2  0
 21  3  1  0
 18 10  1  0
  1 22  1  0
  1 23  1  0
  1 24  1  0
  2 25  1  0
  2 26  1  0
  4 27  1  0
  6 28  1  0
  6 29  1  0
  7 30  1  0
 11 31  1  0
 12 32  1  0
 13 33  1  0
 18 34  1  0
 20 35  1  0
 20 36  1  0
 20 37  1  0
M  CHG  2  15   1  17  -1
M  END
$$$$
