
     RDKit          3D

 51 55  0  0  0  0  0  0  0  0999 V2000
   -5.4840    1.7913    3.2817 F   0  0  0  0  0  0  0  0  0  0  0  0
   -5.7536    1.2577    2.0827 C   0  0  0  0  0  0  0  0  0  0  0  0
   -6.8619    1.7014    1.3715 C   0  0  0  0  0  0  0  0  0  0  0  0
   -7.1404    1.1500    0.1226 C   0  0  0  0  0  0  0  0  0  0  0  0
   -6.3084    0.1575   -0.4034 C   0  0  0  0  0  0  0  0  0  0  0  0
   -5.1921   -0.2958    0.3167 C   0  0  0  0  0  0  0  0  0  0  0  0
   -4.2874   -1.3617   -0.2573 C   0  0  0  0  0  0  0  0  0  0  0  0
   -3.0562   -0.7930   -0.9899 C   0  0  0  0  0  0  0  0  0  0  0  0
   -2.0478   -0.2068   -0.0919 N   0  0  0  0  0  0  0  0  0  0  0  0
   -1.1548    0.7083   -0.8315 C   0  0  0  0  0  0  0  0  0  0  0  0
    0.1216    1.0795   -0.0470 C   0  0  0  0  0  0  0  0  0  0  0  0
    0.9276   -0.1084    0.2731 N   0  0  0  0  0  0  0  0  0  0  0  0
    2.3120   -0.1095    0.1285 C   0  0  0  0  0  0  0  0  0  0  0  0
    2.8784   -1.1927   -0.3471 N   0  0  0  0  0  0  0  0  0  0  0  0
    4.2689   -1.2496   -0.5574 C   0  0  0  0  0  0  0  0  0  0  0  0
    4.8126   -2.4243   -1.0811 C   0  0  0  0  0  0  0  0  0  0  0  0
    6.1852   -2.5308   -1.3213 C   0  0  0  0  0  0  0  0  0  0  0  0
    7.0302   -1.4572   -1.0388 C   0  0  0  0  0  0  0  0  0  0  0  0
    6.5085   -0.2740   -0.5144 C   0  0  0  0  0  0  0  0  0  0  0  0
    5.1329   -0.1826   -0.2801 C   0  0  0  0  0  0  0  0  0  0  0  0
    4.5265    0.9634    0.2587 N   0  0  0  0  0  0  0  0  0  0  0  0
    5.1012    2.1476    0.6558 C   0  0  0  0  0  0  0  0  0  0  0  0
    4.1157    2.9451    1.1937 C   0  0  0  0  0  0  0  0  0  0  0  0
    2.9014    2.2257    1.1043 C   0  0  0  0  0  0  0  0  0  0  0  0
    3.1669    1.0163    0.4843 C   0  0  0  0  0  0  0  0  0  0  0  0
    0.1994   -1.3870    0.2148 C   0  0  0  0  0  0  0  0  0  0  0  0
   -1.2706   -1.2198    0.6571 C   0  0  0  0  0  0  0  0  0  0  0  0
   -4.9199    0.2696    1.5693 C   0  0  0  0  0  0  0  0  0  0  0  0
   -7.4970    2.4732    1.7934 H   0  0  0  0  0  0  0  0  0  0  0  0
   -8.0033    1.4924   -0.4427 H   0  0  0  0  0  0  0  0  0  0  0  0
   -6.5379   -0.2607   -1.3814 H   0  0  0  0  0  0  0  0  0  0  0  0
   -4.8647   -1.9650   -0.9703 H   0  0  0  0  0  0  0  0  0  0  0  0
   -3.9979   -2.0589    0.5380 H   0  0  0  0  0  0  0  0  0  0  0  0
   -2.5974   -1.5850   -1.5961 H   0  0  0  0  0  0  0  0  0  0  0  0
   -3.4112   -0.0281   -1.6939 H   0  0  0  0  0  0  0  0  0  0  0  0
   -1.7047    1.6281   -1.0633 H   0  0  0  0  0  0  0  0  0  0  0  0
   -0.8546    0.2586   -1.7881 H   0  0  0  0  0  0  0  0  0  0  0  0
    0.6941    1.7843   -0.6607 H   0  0  0  0  0  0  0  0  0  0  0  0
   -0.1538    1.5869    0.8848 H   0  0  0  0  0  0  0  0  0  0  0  0
    4.1563   -3.2613   -1.3039 H   0  0  0  0  0  0  0  0  0  0  0  0
    6.5923   -3.4524   -1.7291 H   0  0  0  0  0  0  0  0  0  0  0  0
    8.0977   -1.5444   -1.2263 H   0  0  0  0  0  0  0  0  0  0  0  0
    7.1857    0.5457   -0.2996 H   0  0  0  0  0  0  0  0  0  0  0  0
    6.1602    2.3317    0.5491 H   0  0  0  0  0  0  0  0  0  0  0  0
    4.2593    3.9313    1.6161 H   0  0  0  0  0  0  0  0  0  0  0  0
    1.9380    2.5611    1.4617 H   0  0  0  0  0  0  0  0  0  0  0  0
    0.2347   -1.7914   -0.8047 H   0  0  0  0  0  0  0  0  0  0  0  0
    0.6778   -2.1145    0.8816 H   0  0  0  0  0  0  0  0  0  0  0  0
   -1.2751   -0.9043    1.7085 H   0  0  0  0  0  0  0  0  0  0  0  0
   -1.7546   -2.2029    0.6378 H   0  0  0  0  0  0  0  0  0  0  0  0
   -4.0560   -0.0448    2.1474 H   0  0  0  0  0  0  0  0  0  0  0  0
  1  2  1  0
  2  3  2  0
  3  4  1  0
  4  5  2  0
  5  6  1  0
  6  7  1  0
  7  8  1  0
  8  9  1  0
  9 10  1  0
 10 11  1  0
 11 12  1  0
 12 13  1  0
 13 14  2  0
 14 15  1  0
 15 16  2  0
 16 17  1  0
 17 18  2  0
 18 19  1  0
 19 20  2  0
 20 21  1  0
 21 22  1  0
 22 23  2  0
 23 24  1  0
 24 25  2  0
 12 26  1  0
 26 27  1  0
  6 28  2  0
 28  2  1  0
 27  9  1  0
 25 13  1  0
 20 15  1  0
 25 21  1  0
  3 29  1  0
  4 30  1  0
  5 31  1  0
  7 32  1  0
  7 33  1  0
  8 34  1  0
  8 35  1  0
 10 36  1  0
 10 37  1  0
 11 38  1  0
 11 39  1  0
 16 40  1  0
 17 41  1  0
 18 42  1  0
 19 43  1  0
 22 44  1  0
 23 45  1  0
 24 46  1  0
 26 47  1  0
 26 48  1  0
 27 49  1  0
 27 50  1  0
 28 51  1  0
M  END
$$$$
