
     RDKit          3D

 43 46  0  0  0  0  0  0  0  0999 V2000
    6.3984    2.1450   -0.7668 C   0  0  0  0  0  0  0  0  0  0  0  0
    5.0268    1.5366   -0.7190 C   0  0  0  0  0  0  0  0  0  0  0  0
    4.6802    0.6481    0.3032 C   0  0  0  0  0  0  0  0  0  0  0  0
    3.3933    0.1038    0.3692 C   0  0  0  0  0  0  0  0  0  0  0  0
    2.4337    0.4527   -0.5815 C   0  0  0  0  0  0  0  0  0  0  0  0
    0.9852   -0.1526   -0.5218 C   0  0  0  0  0  0  0  0  0  0  0  0
   -0.0348    0.0600   -1.4418 C   0  0  0  0  0  0  0  0  0  0  0  0
   -1.1600   -0.6682   -1.0513 N   0  0  0  0  0  4  0  0  0  0  0  0
   -2.4383   -0.7431   -1.7549 C   0  0  0  0  0  0  0  0  0  0  0  0
   -3.5333   -0.1759   -0.8885 C   0  0  0  0  0  0  0  0  0  0  0  0
   -4.7302   -0.8865   -0.7038 C   0  0  0  0  0  0  0  0  0  0  0  0
   -5.7529   -0.3634    0.0916 C   0  0  0  0  0  0  0  0  0  0  0  0
   -5.5965    0.8780    0.7067 C   0  0  0  0  0  0  0  0  0  0  0  0
   -4.4204    1.5969    0.5175 C   0  0  0  0  0  0  0  0  0  0  0  0
   -4.2180    3.1279    1.2726 Cl  0  0  0  0  0  0  0  0  0  0  0  0
   -3.3965    1.0823   -0.2788 C   0  0  0  0  0  0  0  0  0  0  0  0
   -0.8452   -1.3098    0.0698 C   0  0  0  0  0  0  0  0  0  0  0  0
    0.4053   -1.0030    0.4027 N   0  0  0  0  0  0  0  0  0  0  0  0
    0.8156   -1.6544    1.6385 C   0  0  0  0  0  0  0  0  0  0  0  0
   -0.5124   -2.2190    2.2126 C   0  0  0  0  0  0  0  0  0  0  0  0
   -1.4898   -2.2449    1.0209 C   0  0  0  0  0  0  0  0  0  0  0  0
    2.7726    1.3501   -1.6008 C   0  0  0  0  0  0  0  0  0  0  0  0
    4.0597    1.8925   -1.6631 C   0  0  0  0  0  0  0  0  0  0  0  0
    6.6906    2.3684   -1.7983 H   0  0  0  0  0  0  0  0  0  0  0  0
    7.1456    1.4555   -0.3600 H   0  0  0  0  0  0  0  0  0  0  0  0
    6.4169    3.0714   -0.1848 H   0  0  0  0  0  0  0  0  0  0  0  0
    5.4170    0.3714    1.0560 H   0  0  0  0  0  0  0  0  0  0  0  0
    3.1857   -0.5922    1.1710 H   0  0  0  0  0  0  0  0  0  0  0  0
   -0.1015    0.6407   -2.3463 H   0  0  0  0  0  0  0  0  0  0  0  0
   -2.6198   -1.7971   -1.9940 H   0  0  0  0  0  0  0  0  0  0  0  0
   -2.3814   -0.1839   -2.6949 H   0  0  0  0  0  0  0  0  0  0  0  0
   -4.8871   -1.8541   -1.1793 H   0  0  0  0  0  0  0  0  0  0  0  0
   -6.6786   -0.9200    0.2284 H   0  0  0  0  0  0  0  0  0  0  0  0
   -6.3971    1.2812    1.3229 H   0  0  0  0  0  0  0  0  0  0  0  0
   -2.4916    1.6690   -0.4194 H   0  0  0  0  0  0  0  0  0  0  0  0
    1.2662   -0.9374    2.3284 H   0  0  0  0  0  0  0  0  0  0  0  0
    1.5155   -2.4596    1.3974 H   0  0  0  0  0  0  0  0  0  0  0  0
   -0.8932   -1.5274    2.9736 H   0  0  0  0  0  0  0  0  0  0  0  0
   -0.3881   -3.1984    2.6826 H   0  0  0  0  0  0  0  0  0  0  0  0
   -2.4836   -1.8792    1.2773 H   0  0  0  0  0  0  0  0  0  0  0  0
   -1.5249   -3.2179    0.5266 H   0  0  0  0  0  0  0  0  0  0  0  0
    2.0608    1.6588   -2.3605 H   0  0  0  0  0  0  0  0  0  0  0  0
    4.3061    2.5977   -2.4557 H   0  0  0  0  0  0  0  0  0  0  0  0
  1  2  1  0
  2  3  2  0
  3  4  1  0
  4  5  2  0
  5  6  1  0
  6  7  2  0
  7  8  1  0
  8  9  1  0
  9 10  1  0
 10 11  2  0
 11 12  1  0
 12 13  2  0
 13 14  1  0
 14 15  1  0
 14 16  2  0
  8 17  2  0
 17 18  1  0
 18 19  1  0
 19 20  1  0
 20 21  1  0
  5 22  1  0
 22 23  2  0
 23  2  1  0
 18  6  1  0
 16 10  1  0
 21 17  1  0
  1 24  1  0
  1 25  1  0
  1 26  1  0
  3 27  1  0
  4 28  1  0
  7 29  1  0
  9 30  1  0
  9 31  1  0
 11 32  1  0
 12 33  1  0
 13 34  1  0
 16 35  1  0
 19 36  1  0
 19 37  1  0
 20 38  1  0
 20 39  1  0
 21 40  1  0
 21 41  1  0
 22 42  1  0
 23 43  1  0
M  CHG  1   8   1
M  END
$$$$
