
     RDKit          3D

 72 77  0  0  0  0  0  0  0  0999 V2000
   -9.9297   -2.1506   -1.2418 C   0  0  0  0  0  0  0  0  0  0  0  0
   -8.5729   -1.5267   -1.3813 C   0  0  0  0  0  0  0  0  0  0  0  0
   -7.7578   -1.8421   -2.4687 C   0  0  0  0  0  0  0  0  0  0  0  0
   -6.5052   -1.2427   -2.6077 C   0  0  0  0  0  0  0  0  0  0  0  0
   -6.0433   -0.2988   -1.6749 C   0  0  0  0  0  0  0  0  0  0  0  0
   -4.6706    0.2833   -1.8734 C   0  0  0  0  0  0  0  0  0  0  0  0
   -6.8616    0.0355   -0.5753 C   0  0  0  0  0  0  0  0  0  0  0  0
   -6.4468    1.0228    0.4947 C   0  0  0  0  0  0  0  0  0  0  0  0
   -5.8503    0.3666    1.6415 N   0  0  0  0  0  0  0  0  0  0  0  0
   -6.6262   -0.2208    2.5881 N   0  0  0  0  0  0  0  0  0  0  0  0
   -5.8224   -0.6887    3.5431 N   0  0  0  0  0  0  0  0  0  0  0  0
   -4.5510   -0.3548    3.1983 C   0  0  0  0  0  0  0  0  0  0  0  0
   -3.3018   -0.5913    3.8683 C   0  0  0  0  0  0  0  0  0  0  0  0
   -3.1515   -1.1935    4.9250 O   0  0  0  0  0  0  0  0  0  0  0  0
   -2.2260   -0.0490    3.1750 N   0  0  0  0  0  0  0  0  0  0  0  0
   -2.3367    0.6402    1.9730 C   0  0  0  0  0  0  0  0  0  0  0  0
   -1.0451    1.1664    1.3596 C   0  0  0  0  0  0  0  0  0  0  0  0
   -0.1065    0.0211    0.9688 C   0  0  0  0  0  0  0  0  0  0  0  0
    1.2927    0.5612    0.7110 C   0  0  0  0  0  0  0  0  0  0  0  0
    1.8802    1.1287    1.9571 N   0  0  0  0  0  0  0  0  0  0  0  0
    3.2345    2.1577    1.7237 S   0  0  0  0  0  6  0  0  0  0  0  0
    2.8122    3.2286    0.8457 O   0  0  0  0  0  0  0  0  0  0  0  0
    3.8177    2.4355    3.0187 O   0  0  0  0  0  0  0  0  0  0  0  0
    4.3727    1.1184    0.8405 C   0  0  0  0  0  0  0  0  0  0  0  0
    5.0556    0.1126    1.5360 C   0  0  0  0  0  0  0  0  0  0  0  0
    5.9465   -0.7147    0.8504 C   0  0  0  0  0  0  0  0  0  0  0  0
    6.1528   -0.5170   -0.5200 C   0  0  0  0  0  0  0  0  0  0  0  0
    7.2435   -1.5912   -1.4224 S   0  0  0  0  0  6  0  0  0  0  0  0
    6.6263   -1.8536   -2.7034 O   0  0  0  0  0  0  0  0  0  0  0  0
    7.6633   -2.6576   -0.5395 O   0  0  0  0  0  0  0  0  0  0  0  0
    8.5990   -0.5829   -1.6215 N   0  0  0  0  0  0  0  0  0  0  0  0
    9.1635   -0.5809   -2.9799 C   0  0  0  0  0  0  0  0  0  0  0  0
   10.5892   -0.1613   -3.2054 C   0  0  0  0  0  0  0  0  0  0  0  0
   10.1843   -1.5934   -3.4117 C   0  0  0  0  0  0  0  0  0  0  0  0
    5.4756    0.4949   -1.2127 C   0  0  0  0  0  0  0  0  0  0  0  0
    4.5880    1.3239   -0.5269 C   0  0  0  0  0  0  0  0  0  0  0  0
    0.8918    1.6521    2.9416 C   0  0  0  0  0  0  0  0  0  0  0  0
   -0.3566    2.2011    2.2615 C   0  0  0  0  0  0  0  0  0  0  0  0
   -3.4668    0.8566    1.3568 N   0  0  0  0  0  0  0  0  0  0  0  0
   -4.5341    0.3323    2.0083 C   0  0  0  0  0  0  0  0  0  0  0  0
   -8.1224   -0.5856   -0.4494 C   0  0  0  0  0  0  0  0  0  0  0  0
   -9.9144   -3.1909   -1.5835 H   0  0  0  0  0  0  0  0  0  0  0  0
  -10.6603   -1.5920   -1.8352 H   0  0  0  0  0  0  0  0  0  0  0  0
  -10.2573   -2.1556   -0.1967 H   0  0  0  0  0  0  0  0  0  0  0  0
   -8.0894   -2.5627   -3.2130 H   0  0  0  0  0  0  0  0  0  0  0  0
   -5.8866   -1.5206   -3.4597 H   0  0  0  0  0  0  0  0  0  0  0  0
   -4.3011    0.0949   -2.8868 H   0  0  0  0  0  0  0  0  0  0  0  0
   -3.9661   -0.1688   -1.1708 H   0  0  0  0  0  0  0  0  0  0  0  0
   -4.6777    1.3693   -1.7462 H   0  0  0  0  0  0  0  0  0  0  0  0
   -7.3182    1.5824    0.8576 H   0  0  0  0  0  0  0  0  0  0  0  0
   -5.7448    1.7719    0.1175 H   0  0  0  0  0  0  0  0  0  0  0  0
   -1.3324   -0.2133    3.6126 H   0  0  0  0  0  0  0  0  0  0  0  0
   -1.3356    1.6931    0.4380 H   0  0  0  0  0  0  0  0  0  0  0  0
   -0.4892   -0.4730    0.0672 H   0  0  0  0  0  0  0  0  0  0  0  0
   -0.0665   -0.7512    1.7477 H   0  0  0  0  0  0  0  0  0  0  0  0
    1.9269   -0.2628    0.3680 H   0  0  0  0  0  0  0  0  0  0  0  0
    1.2532    1.3172   -0.0816 H   0  0  0  0  0  0  0  0  0  0  0  0
    4.8910   -0.0294    2.6029 H   0  0  0  0  0  0  0  0  0  0  0  0
    6.4696   -1.5049    1.3862 H   0  0  0  0  0  0  0  0  0  0  0  0
    9.2904   -0.8485   -0.9151 H   0  0  0  0  0  0  0  0  0  0  0  0
    8.4474   -0.2428   -3.7259 H   0  0  0  0  0  0  0  0  0  0  0  0
   10.8090    0.4349   -4.0831 H   0  0  0  0  0  0  0  0  0  0  0  0
   11.2059    0.0727   -2.3464 H   0  0  0  0  0  0  0  0  0  0  0  0
   10.1220   -1.9641   -4.4293 H   0  0  0  0  0  0  0  0  0  0  0  0
   10.5189   -2.3325   -2.6932 H   0  0  0  0  0  0  0  0  0  0  0  0
    5.6387    0.6385   -2.2795 H   0  0  0  0  0  0  0  0  0  0  0  0
    4.0665    2.1153   -1.0624 H   0  0  0  0  0  0  0  0  0  0  0  0
    0.6353    0.8335    3.6234 H   0  0  0  0  0  0  0  0  0  0  0  0
    1.3306    2.4339    3.5699 H   0  0  0  0  0  0  0  0  0  0  0  0
   -0.0622    3.0601    1.6436 H   0  0  0  0  0  0  0  0  0  0  0  0
   -1.0484    2.5921    3.0168 H   0  0  0  0  0  0  0  0  0  0  0  0
   -8.7591   -0.3390    0.4012 H   0  0  0  0  0  0  0  0  0  0  0  0
  1  2  1  0
  2  3  2  0
  3  4  1  0
  4  5  2  0
  5  6  1  0
  5  7  1  0
  7  8  1  0
  8  9  1  0
  9 10  1  0
 10 11  2  0
 11 12  1  0
 12 13  1  0
 13 14  2  0
 13 15  1  0
 15 16  1  0
 16 17  1  0
 17 18  1  0
 18 19  1  0
 19 20  1  0
 20 21  1  0
 21 22  2  0
 21 23  2  0
 21 24  1  0
 24 25  2  0
 25 26  1  0
 26 27  2  0
 27 28  1  0
 28 29  2  0
 28 30  2  0
 28 31  1  0
 31 32  1  0
 32 33  1  0
 33 34  1  0
 27 35  1  0
 35 36  2  0
 20 37  1  0
 37 38  1  0
 16 39  2  0
 39 40  1  0
  7 41  2  0
 41  2  1  0
 40  9  1  0
 40 12  2  0
 38 17  1  0
 36 24  1  0
 34 32  1  0
  1 42  1  0
  1 43  1  0
  1 44  1  0
  3 45  1  0
  4 46  1  0
  6 47  1  0
  6 48  1  0
  6 49  1  0
  8 50  1  0
  8 51  1  0
 15 52  1  0
 17 53  1  0
 18 54  1  0
 18 55  1  0
 19 56  1  0
 19 57  1  0
 25 58  1  0
 26 59  1  0
 31 60  1  0
 32 61  1  0
 33 62  1  0
 33 63  1  0
 34 64  1  0
 34 65  1  0
 35 66  1  0
 36 67  1  0
 37 68  1  0
 37 69  1  0
 38 70  1  0
 38 71  1  0
 41 72  1  0
M  END
$$$$
