
     RDKit          3D

 39 41  0  0  0  0  0  0  0  0999 V2000
   -4.6629    2.3457    0.3461 C   0  0  0  0  0  0  0  0  0  0  0  0
   -3.7479    1.4935    1.0365 O   0  0  0  0  0  0  0  0  0  0  0  0
   -3.4273    0.3941    0.2835 C   0  0  0  0  0  0  0  0  0  0  0  0
   -3.7859   -0.8504    0.8028 C   0  0  0  0  0  0  0  0  0  0  0  0
   -3.4961   -2.0247    0.0942 C   0  0  0  0  0  0  0  0  0  0  0  0
   -3.8684   -3.3617    0.6623 C   0  0  0  0  0  0  0  0  0  0  0  0
   -2.7987   -1.9372   -1.1172 C   0  0  0  0  0  0  0  0  0  0  0  0
   -2.4066   -0.6948   -1.6188 C   0  0  0  0  0  0  0  0  0  0  0  0
   -2.7039    0.4684   -0.9087 C   0  0  0  0  0  0  0  0  0  0  0  0
   -2.2722    1.6597   -1.4338 O   0  0  0  0  0  0  0  0  0  0  0  0
   -1.1187    2.1323   -0.7444 C   0  0  0  0  0  0  0  0  0  0  0  0
    0.1884    1.4209   -1.1255 C   0  0  0  0  0  0  0  0  0  0  0  0
    0.4487    1.1468   -2.2948 O   0  0  0  0  0  0  0  0  0  0  0  0
    0.9848    1.1571   -0.0270 N   0  0  0  0  0  0  0  0  0  0  0  0
    2.2179    0.5800   -0.1496 C   0  0  0  0  0  0  0  0  0  0  0  0
    2.8851    0.2038   -1.2128 N   0  0  0  0  0  0  0  0  0  0  0  0
    4.1281   -0.3079   -0.8822 N   0  0  0  0  0  0  0  0  0  0  0  0
    4.3301   -0.2835    0.4177 C   0  0  0  0  0  0  0  0  0  0  0  0
    5.6551   -0.7958    1.0607 C   0  0  0  0  0  0  0  0  0  0  0  0
    6.6046    0.1939    1.6879 C   0  0  0  0  0  0  0  0  0  0  0  0
    6.9697   -0.4723    0.3921 C   0  0  0  0  0  0  0  0  0  0  0  0
    3.0288    0.3353    1.3386 S   0  0  0  0  0  0  0  0  0  0  0  0
   -5.1546    2.9733    1.0931 H   0  0  0  0  0  0  0  0  0  0  0  0
   -5.4452    1.7773   -0.1720 H   0  0  0  0  0  0  0  0  0  0  0  0
   -4.1334    3.0053   -0.3440 H   0  0  0  0  0  0  0  0  0  0  0  0
   -4.3027   -0.9003    1.7553 H   0  0  0  0  0  0  0  0  0  0  0  0
   -3.0769   -3.7130    1.3338 H   0  0  0  0  0  0  0  0  0  0  0  0
   -4.8119   -3.2991    1.2174 H   0  0  0  0  0  0  0  0  0  0  0  0
   -4.0090   -4.1013   -0.1336 H   0  0  0  0  0  0  0  0  0  0  0  0
   -2.5397   -2.8374   -1.6673 H   0  0  0  0  0  0  0  0  0  0  0  0
   -1.8443   -0.6369   -2.5488 H   0  0  0  0  0  0  0  0  0  0  0  0
   -1.2692    2.1309    0.3407 H   0  0  0  0  0  0  0  0  0  0  0  0
   -0.9867    3.1837   -1.0290 H   0  0  0  0  0  0  0  0  0  0  0  0
    0.6695    1.3533    0.9113 H   0  0  0  0  0  0  0  0  0  0  0  0
    5.5649   -1.7687    1.5339 H   0  0  0  0  0  0  0  0  0  0  0  0
    7.1362   -0.1128    2.5828 H   0  0  0  0  0  0  0  0  0  0  0  0
    6.3569    1.2500    1.6576 H   0  0  0  0  0  0  0  0  0  0  0  0
    7.7396   -1.2359    0.3994 H   0  0  0  0  0  0  0  0  0  0  0  0
    6.9537    0.1283   -0.5107 H   0  0  0  0  0  0  0  0  0  0  0  0
  1  2  1  0
  2  3  1  0
  3  4  2  0
  4  5  1  0
  5  6  1  0
  5  7  2  0
  7  8  1  0
  8  9  2  0
  9 10  1  0
 10 11  1  0
 11 12  1  0
 12 13  2  0
 12 14  1  0
 14 15  1  0
 15 16  2  0
 16 17  1  0
 17 18  2  0
 18 19  1  0
 19 20  1  0
 20 21  1  0
 18 22  1  0
  9  3  1  0
 22 15  1  0
 21 19  1  0
  1 23  1  0
  1 24  1  0
  1 25  1  0
  4 26  1  0
  6 27  1  0
  6 28  1  0
  6 29  1  0
  7 30  1  0
  8 31  1  0
 11 32  1  0
 11 33  1  0
 14 34  1  0
 19 35  1  0
 20 36  1  0
 20 37  1  0
 21 38  1  0
 21 39  1  0
M  END
$$$$
