
     RDKit          3D

 42 43  0  0  0  0  0  0  0  0999 V2000
   -5.4475    2.0051   -1.0794 C   0  0  0  0  0  0  0  0  0  0  0  0
   -4.3352    1.2493   -0.4265 C   0  0  0  0  0  0  0  0  0  0  0  0
   -4.1097   -0.0819   -0.4231 C   0  0  0  0  0  0  0  0  0  0  0  0
   -5.0228   -1.0909   -1.0714 C   0  0  0  0  0  0  0  0  0  0  0  0
   -2.9138   -0.7298    0.2696 C   0  0  0  0  0  0  0  0  0  0  0  0
   -1.8294    0.1775    0.6683 N   0  0  0  0  0  0  0  0  0  0  0  0
   -1.0113    0.6173   -0.4861 C   0  0  0  0  0  0  0  0  0  0  0  0
    0.3218   -0.1386   -0.7029 C   0  0  0  0  0  0  0  0  0  0  0  0
    1.1584   -0.1106    0.5082 N   0  0  0  0  0  0  0  0  0  0  0  0
    2.5403   -0.1568    0.4325 C   0  0  0  0  0  0  0  0  0  0  0  0
    3.2015   -0.6995   -0.6808 C   0  0  0  0  0  0  0  0  0  0  0  0
    4.5998   -0.7549   -0.7660 C   0  0  0  0  0  0  0  0  0  0  0  0
    5.3922   -0.2548    0.2664 C   0  0  0  0  0  0  0  0  0  0  0  0
    6.8865   -0.3406    0.1963 C   0  0  0  0  0  0  0  0  0  0  0  0
    4.7601    0.2733    1.3913 C   0  0  0  0  0  0  0  0  0  0  0  0
    3.3606    0.3216    1.4658 C   0  0  0  0  0  0  0  0  0  0  0  0
    0.4545    0.1057    1.7816 C   0  0  0  0  0  0  0  0  0  0  0  0
   -0.9828   -0.4573    1.7028 C   0  0  0  0  0  0  0  0  0  0  0  0
   -6.0596    1.3985   -1.7489 H   0  0  0  0  0  0  0  0  0  0  0  0
   -6.0982    2.4415   -0.3155 H   0  0  0  0  0  0  0  0  0  0  0  0
   -5.0295    2.8227   -1.6759 H   0  0  0  0  0  0  0  0  0  0  0  0
   -3.6349    1.8910    0.1085 H   0  0  0  0  0  0  0  0  0  0  0  0
   -5.9597   -0.6654   -1.4357 H   0  0  0  0  0  0  0  0  0  0  0  0
   -5.2911   -1.8715   -0.3510 H   0  0  0  0  0  0  0  0  0  0  0  0
   -4.5168   -1.5644   -1.9191 H   0  0  0  0  0  0  0  0  0  0  0  0
   -3.3198   -1.2212    1.1650 H   0  0  0  0  0  0  0  0  0  0  0  0
   -2.5094   -1.5264   -0.3697 H   0  0  0  0  0  0  0  0  0  0  0  0
   -1.5851    0.6017   -1.4206 H   0  0  0  0  0  0  0  0  0  0  0  0
   -0.7700    1.6745   -0.3110 H   0  0  0  0  0  0  0  0  0  0  0  0
    0.8342    0.3449   -1.5436 H   0  0  0  0  0  0  0  0  0  0  0  0
    0.1188   -1.1798   -0.9805 H   0  0  0  0  0  0  0  0  0  0  0  0
    2.6339   -1.1208   -1.5057 H   0  0  0  0  0  0  0  0  0  0  0  0
    5.0582   -1.1973   -1.6471 H   0  0  0  0  0  0  0  0  0  0  0  0
    7.2278   -1.2883    0.6240 H   0  0  0  0  0  0  0  0  0  0  0  0
    7.2335   -0.2748   -0.8403 H   0  0  0  0  0  0  0  0  0  0  0  0
    7.3514    0.4841    0.7468 H   0  0  0  0  0  0  0  0  0  0  0  0
    5.3464    0.6588    2.2220 H   0  0  0  0  0  0  0  0  0  0  0  0
    2.9248    0.7678    2.3549 H   0  0  0  0  0  0  0  0  0  0  0  0
    0.4308    1.1761    2.0194 H   0  0  0  0  0  0  0  0  0  0  0  0
    0.9645   -0.4165    2.6002 H   0  0  0  0  0  0  0  0  0  0  0  0
   -0.9033   -1.5381    1.5183 H   0  0  0  0  0  0  0  0  0  0  0  0
   -1.4696   -0.3309    2.6768 H   0  0  0  0  0  0  0  0  0  0  0  0
  1  2  1  0
  2  3  2  3
  3  4  1  0
  3  5  1  0
  5  6  1  0
  6  7  1  0
  7  8  1  0
  8  9  1  0
  9 10  1  0
 10 11  2  0
 11 12  1  0
 12 13  2  0
 13 14  1  0
 13 15  1  0
 15 16  2  0
  9 17  1  0
 17 18  1  0
 18  6  1  0
 16 10  1  0
  1 19  1  0
  1 20  1  0
  1 21  1  0
  2 22  1  0
  4 23  1  0
  4 24  1  0
  4 25  1  0
  5 26  1  0
  5 27  1  0
  7 28  1  0
  7 29  1  0
  8 30  1  0
  8 31  1  0
 11 32  1  0
 12 33  1  0
 14 34  1  0
 14 35  1  0
 14 36  1  0
 15 37  1  0
 16 38  1  0
 17 39  1  0
 17 40  1  0
 18 41  1  0
 18 42  1  0
M  END
$$$$
