
     RDKit          3D

 59 64  0  0  0  0  0  0  0  0999 V2000
    0.5390    1.1058   -2.9646 C   0  0  0  0  0  0  0  0  0  0  0  0
    0.9251    0.2356   -1.9128 O   0  0  0  0  0  0  0  0  0  0  0  0
    2.2452    0.2456   -1.5229 C   0  0  0  0  0  0  0  0  0  0  0  0
    3.2283    1.0815   -2.0801 C   0  0  0  0  0  0  0  0  0  0  0  0
    4.5528    0.9734   -1.6124 C   0  0  0  0  0  0  0  0  0  0  0  0
    4.8283    0.0527   -0.6068 C   0  0  0  0  0  0  0  0  0  0  0  0
    3.8785   -0.7838   -0.0197 C   0  0  0  0  0  0  0  0  0  0  0  0
    2.5680   -0.6819   -0.5005 C   0  0  0  0  0  0  0  0  0  0  0  0
    1.5156   -1.5110   -0.0418 N   0  0  0  0  0  0  0  0  0  0  0  0
    1.5500   -2.4616    0.9598 C   0  0  0  0  0  0  0  0  0  0  0  0
    2.4797   -2.6525    1.7406 O   0  0  0  0  0  0  0  0  0  0  0  0
    0.2987   -3.3210    1.0281 C   0  0  0  0  0  0  0  0  0  0  0  0
   -0.9431   -2.5797    2.1249 S   0  0  0  0  0  0  0  0  0  0  0  0
   -1.7901   -1.5623    1.0170 C   0  0  0  0  0  0  0  0  0  0  0  0
   -1.3937   -1.2598   -0.1967 N   0  0  0  0  0  0  0  0  0  0  0  0
   -2.3487   -0.4565   -0.7598 N   0  0  0  0  0  0  0  0  0  0  0  0
   -3.3199   -0.2858    0.1209 C   0  0  0  0  0  0  0  0  0  0  0  0
   -4.5659    0.5063   -0.1132 C   0  0  0  0  0  0  0  0  0  0  0  0
   -4.5935    1.8075    0.6380 C   0  0  0  0  0  0  0  0  0  0  0  0
   -3.6142    2.7769    0.7208 C   0  0  0  0  0  0  0  0  0  0  0  0
   -4.0116    3.8807    1.5286 C   0  0  0  0  0  0  0  0  0  0  0  0
   -5.2832    3.7255    2.0290 C   0  0  0  0  0  0  0  0  0  0  0  0
   -5.9962    2.2641    1.5154 S   0  0  0  0  0  0  0  0  0  0  0  0
   -3.0024   -0.9798    1.2696 N   0  0  0  0  0  0  0  0  0  0  0  0
   -3.7748   -1.0549    2.4944 C   0  0  0  0  0  0  0  0  0  0  0  0
   -4.6884   -2.2243    2.4777 C   0  0  0  0  0  0  0  0  0  0  0  0
   -4.6319   -3.4842    3.0409 C   0  0  0  0  0  0  0  0  0  0  0  0
   -5.8319   -4.1404    2.6757 C   0  0  0  0  0  0  0  0  0  0  0  0
   -6.5434   -3.2423    1.9169 C   0  0  0  0  0  0  0  0  0  0  0  0
   -5.8631   -2.0765    1.7957 O   0  0  0  0  0  0  0  0  0  0  0  0
    6.1520    0.0779   -0.2874 O   0  0  0  0  0  0  0  0  0  0  0  0
    6.7393    1.0060   -1.0904 C   0  0  0  0  0  0  0  0  0  0  0  0
    8.0948    1.3268   -1.0901 C   0  0  0  0  0  0  0  0  0  0  0  0
    8.5056    2.3064   -1.9981 C   0  0  0  0  0  0  0  0  0  0  0  0
    7.5905    2.9260   -2.8559 C   0  0  0  0  0  0  0  0  0  0  0  0
    6.2301    2.5841   -2.8327 C   0  0  0  0  0  0  0  0  0  0  0  0
    5.7966    1.5971   -1.9273 C   0  0  0  0  0  0  0  0  0  0  0  0
    1.0657    0.8537   -3.8893 H   0  0  0  0  0  0  0  0  0  0  0  0
    0.6966    2.1534   -2.6896 H   0  0  0  0  0  0  0  0  0  0  0  0
   -0.5316    0.9669   -3.1445 H   0  0  0  0  0  0  0  0  0  0  0  0
    3.0080    1.7926   -2.8669 H   0  0  0  0  0  0  0  0  0  0  0  0
    4.1804   -1.4764    0.7516 H   0  0  0  0  0  0  0  0  0  0  0  0
    0.6139   -1.3247   -0.4934 H   0  0  0  0  0  0  0  0  0  0  0  0
   -0.0986   -3.5157    0.0253 H   0  0  0  0  0  0  0  0  0  0  0  0
    0.5853   -4.2940    1.4440 H   0  0  0  0  0  0  0  0  0  0  0  0
   -5.4378   -0.1116    0.1125 H   0  0  0  0  0  0  0  0  0  0  0  0
   -4.6352    0.7370   -1.1848 H   0  0  0  0  0  0  0  0  0  0  0  0
   -2.6538    2.6989    0.2260 H   0  0  0  0  0  0  0  0  0  0  0  0
   -3.3943    4.7476    1.7292 H   0  0  0  0  0  0  0  0  0  0  0  0
   -5.8321    4.4044    2.6654 H   0  0  0  0  0  0  0  0  0  0  0  0
   -3.0847   -1.1073    3.3426 H   0  0  0  0  0  0  0  0  0  0  0  0
   -4.3377   -0.1277    2.6168 H   0  0  0  0  0  0  0  0  0  0  0  0
   -3.8270   -3.8797    3.6463 H   0  0  0  0  0  0  0  0  0  0  0  0
   -6.1430   -5.1400    2.9403 H   0  0  0  0  0  0  0  0  0  0  0  0
   -7.5070   -3.2766    1.4249 H   0  0  0  0  0  0  0  0  0  0  0  0
    8.7873    0.8380   -0.4169 H   0  0  0  0  0  0  0  0  0  0  0  0
    9.5562    2.5879   -2.0358 H   0  0  0  0  0  0  0  0  0  0  0  0
    7.9385    3.6839   -3.5525 H   0  0  0  0  0  0  0  0  0  0  0  0
    5.5290    3.0680   -3.5033 H   0  0  0  0  0  0  0  0  0  0  0  0
  1  2  1  0
  2  3  1  0
  3  4  2  0
  4  5  1  0
  5  6  2  0
  6  7  1  0
  7  8  2  0
  8  9  1  0
  9 10  1  0
 10 11  2  0
 10 12  1  0
 12 13  1  0
 13 14  1  0
 14 15  2  0
 15 16  1  0
 16 17  2  0
 17 18  1  0
 18 19  1  0
 19 20  2  0
 20 21  1  0
 21 22  2  0
 22 23  1  0
 17 24  1  0
 24 25  1  0
 25 26  1  0
 26 27  2  0
 27 28  1  0
 28 29  2  0
 29 30  1  0
  6 31  1  0
 31 32  1  0
 32 33  2  0
 33 34  1  0
 34 35  2  0
 35 36  1  0
 36 37  2  0
  8  3  1  0
 24 14  1  0
 30 26  1  0
 37 32  1  0
 37  5  1  0
 23 19  1  0
  1 38  1  0
  1 39  1  0
  1 40  1  0
  4 41  1  0
  7 42  1  0
  9 43  1  0
 12 44  1  0
 12 45  1  0
 18 46  1  0
 18 47  1  0
 20 48  1  0
 21 49  1  0
 22 50  1  0
 25 51  1  0
 25 52  1  0
 27 53  1  0
 28 54  1  0
 29 55  1  0
 33 56  1  0
 34 57  1  0
 35 58  1  0
 36 59  1  0
M  END
$$$$
