
     RDKit          3D

 48 51  0  0  0  0  0  0  0  0999 V2000
    7.6543    0.6480   -1.9871 C   0  0  0  0  0  0  0  0  0  0  0  0
    6.2922    0.5601   -1.4317 C   0  0  0  0  0  0  0  0  0  0  0  0
    5.7765    0.1956   -0.2136 C   0  0  0  0  0  0  0  0  0  0  0  0
    4.3739    0.3350   -0.3625 C   0  0  0  0  0  0  0  0  0  0  0  0
    3.3423    0.0650    0.6400 C   0  0  0  0  0  0  0  0  0  0  0  0
    3.6048   -0.3702    1.7572 O   0  0  0  0  0  0  0  0  0  0  0  0
    2.0592    0.3275    0.2136 N   0  0  0  0  0  0  0  0  0  0  0  0
    0.9031   -0.0396    0.9970 C   0  0  0  0  0  0  0  0  0  0  0  0
    0.5978   -1.5495    0.8473 C   0  0  0  0  0  0  0  0  0  0  0  0
   -0.8505   -1.9438    1.2618 C   0  0  0  0  0  0  0  0  0  0  0  0
   -1.0424   -3.4526    1.0178 C   0  0  0  0  0  0  0  0  0  0  0  0
   -1.0780   -1.6725    2.7633 C   0  0  0  0  0  0  0  0  0  0  0  0
   -1.8935   -1.1615    0.4019 C   0  0  0  0  0  0  0  0  0  0  0  0
   -1.5126    0.2756    0.2584 C   0  0  0  0  0  0  0  0  0  0  0  0
   -0.2543    0.7795    0.5408 C   0  0  0  0  0  0  0  0  0  0  0  0
   -0.3871    2.1647    0.3981 C   0  0  0  0  0  0  0  0  0  0  0  0
   -1.6147    2.5197    0.0285 N   0  0  0  0  0  0  0  0  0  0  0  0
   -2.3061    1.3514   -0.1217 N   0  0  0  0  0  0  0  0  0  0  0  0
   -3.6499    1.4059   -0.6101 C   0  0  0  0  0  0  0  0  0  0  0  0
   -4.2873    2.6611   -0.6924 C   0  0  0  0  0  0  0  0  0  0  0  0
   -5.5996    2.7691   -1.1603 C   0  0  0  0  0  0  0  0  0  0  0  0
   -6.2772    1.6268   -1.5595 C   0  0  0  0  0  0  0  0  0  0  0  0
   -7.5339    1.7251   -2.0117 F   0  0  0  0  0  0  0  0  0  0  0  0
   -5.6644    0.3814   -1.5036 C   0  0  0  0  0  0  0  0  0  0  0  0
   -4.3500    0.2682   -1.0337 C   0  0  0  0  0  0  0  0  0  0  0  0
    4.0667    0.7592   -1.6022 N   0  0  0  0  0  0  0  0  0  0  0  0
    5.2734    0.8960   -2.2656 O   0  0  0  0  0  0  0  0  0  0  0  0
    7.7502    1.5167   -2.6502 H   0  0  0  0  0  0  0  0  0  0  0  0
    7.8889   -0.2566   -2.5637 H   0  0  0  0  0  0  0  0  0  0  0  0
    8.3976    0.7476   -1.1849 H   0  0  0  0  0  0  0  0  0  0  0  0
    6.3178   -0.1258    0.6649 H   0  0  0  0  0  0  0  0  0  0  0  0
    1.9475    0.5625   -0.7688 H   0  0  0  0  0  0  0  0  0  0  0  0
    1.1087    0.1846    2.0513 H   0  0  0  0  0  0  0  0  0  0  0  0
    1.3314   -2.1261    1.4260 H   0  0  0  0  0  0  0  0  0  0  0  0
    0.7493   -1.8445   -0.2020 H   0  0  0  0  0  0  0  0  0  0  0  0
   -2.0567   -3.7699    1.2842 H   0  0  0  0  0  0  0  0  0  0  0  0
   -0.8792   -3.7087   -0.0350 H   0  0  0  0  0  0  0  0  0  0  0  0
   -0.3387   -4.0427    1.6158 H   0  0  0  0  0  0  0  0  0  0  0  0
   -2.0680   -2.0209    3.0792 H   0  0  0  0  0  0  0  0  0  0  0  0
   -1.0165   -0.6081    3.0096 H   0  0  0  0  0  0  0  0  0  0  0  0
   -0.3331   -2.1967    3.3724 H   0  0  0  0  0  0  0  0  0  0  0  0
   -2.8829   -1.2600    0.8625 H   0  0  0  0  0  0  0  0  0  0  0  0
   -1.9337   -1.6045   -0.6010 H   0  0  0  0  0  0  0  0  0  0  0  0
    0.3555    2.9358    0.5616 H   0  0  0  0  0  0  0  0  0  0  0  0
   -3.7727    3.5711   -0.3868 H   0  0  0  0  0  0  0  0  0  0  0  0
   -6.0894    3.7360   -1.2164 H   0  0  0  0  0  0  0  0  0  0  0  0
   -6.2099   -0.4963   -1.8369 H   0  0  0  0  0  0  0  0  0  0  0  0
   -3.9087   -0.7188   -1.0515 H   0  0  0  0  0  0  0  0  0  0  0  0
  1  2  1  0
  2  3  2  0
  3  4  1  0
  4  5  1  0
  5  6  2  0
  5  7  1  0
  7  8  1  0
  8  9  1  0
  9 10  1  0
 10 11  1  0
 10 12  1  0
 10 13  1  0
 13 14  1  0
 14 15  2  0
 15 16  1  0
 16 17  2  0
 17 18  1  0
 18 19  1  0
 19 20  2  0
 20 21  1  0
 21 22  2  0
 22 23  1  0
 22 24  1  0
 24 25  2  0
  4 26  2  0
 26 27  1  0
 27  2  1  0
 15  8  1  0
 25 19  1  0
 18 14  1  0
  1 28  1  0
  1 29  1  0
  1 30  1  0
  3 31  1  0
  7 32  1  0
  8 33  1  0
  9 34  1  0
  9 35  1  0
 11 36  1  0
 11 37  1  0
 11 38  1  0
 12 39  1  0
 12 40  1  0
 12 41  1  0
 13 42  1  0
 13 43  1  0
 16 44  1  0
 20 45  1  0
 21 46  1  0
 24 47  1  0
 25 48  1  0
M  END
$$$$
