
     RDKit          3D

 43 45  0  0  0  0  0  0  0  0999 V2000
   -6.7945   -1.9213   -0.0038 C   0  0  0  0  0  0  0  0  0  0  0  0
   -6.3512   -0.5692   -0.3393 N   0  0  0  0  0  0  0  0  0  0  0  0
   -7.0884    0.5140    0.3098 C   0  0  0  0  0  0  0  0  0  0  0  0
   -5.0107   -0.3609   -0.6871 C   0  0  0  0  0  0  0  0  0  0  0  0
   -4.1522   -1.4209   -1.0295 C   0  0  0  0  0  0  0  0  0  0  0  0
   -2.8122   -1.2163   -1.3932 C   0  0  0  0  0  0  0  0  0  0  0  0
   -2.2798    0.0695   -1.4314 C   0  0  0  0  0  0  0  0  0  0  0  0
   -0.8835    0.2645   -1.8296 C   0  0  0  0  0  0  0  0  0  0  0  0
    0.0974    0.7485   -1.0555 C   0  0  0  0  0  0  0  0  0  0  0  0
   -0.0027    1.2626    0.5865 S   0  0  0  0  0  0  0  0  0  0  0  0
    1.7056    1.6855    0.6662 C   0  0  0  0  0  0  0  0  0  0  0  0
    2.3851    2.4338    1.9930 S   0  0  0  0  0  0  0  0  0  0  0  0
    2.3075    1.3076   -0.5205 N   0  0  0  0  0  0  0  0  0  0  0  0
    3.6580    1.5922   -0.8251 N   0  0  0  0  0  0  0  0  0  0  0  0
    4.6365    0.8294   -0.1636 C   0  0  0  0  0  0  0  0  0  0  0  0
    5.6590    1.5826    0.3149 N   0  0  0  0  0  0  0  0  0  0  0  0
    6.6735    0.9682    0.9678 C   0  0  0  0  0  0  0  0  0  0  0  0
    6.7476   -0.3983    1.1644 C   0  0  0  0  0  0  0  0  0  0  0  0
    7.8954   -0.9938    1.9177 C   0  0  0  0  0  0  0  0  0  0  0  0
    8.1462   -2.2860    1.5712 F   0  0  0  0  0  0  0  0  0  0  0  0
    9.0636   -0.3228    1.7247 F   0  0  0  0  0  0  0  0  0  0  0  0
    7.6826   -0.9999    3.2609 F   0  0  0  0  0  0  0  0  0  0  0  0
    5.6994   -1.1722    0.6615 C   0  0  0  0  0  0  0  0  0  0  0  0
    4.6367   -0.5643   -0.0160 C   0  0  0  0  0  0  0  0  0  0  0  0
    3.4082   -1.6086   -0.6288 Cl  0  0  0  0  0  0  0  0  0  0  0  0
    1.4902    0.8921   -1.5657 C   0  0  0  0  0  0  0  0  0  0  0  0
    1.8075    0.7032   -2.7326 O   0  0  0  0  0  0  0  0  0  0  0  0
   -3.1112    1.1439   -1.1259 C   0  0  0  0  0  0  0  0  0  0  0  0
   -4.4495    0.9265   -0.7634 C   0  0  0  0  0  0  0  0  0  0  0  0
   -6.6794   -2.5996   -0.8559 H   0  0  0  0  0  0  0  0  0  0  0  0
   -6.2438   -2.3141    0.8581 H   0  0  0  0  0  0  0  0  0  0  0  0
   -7.8606   -1.9383    0.2494 H   0  0  0  0  0  0  0  0  0  0  0  0
   -6.6088    0.8096    1.2495 H   0  0  0  0  0  0  0  0  0  0  0  0
   -8.1152    0.2113    0.5445 H   0  0  0  0  0  0  0  0  0  0  0  0
   -7.1769    1.3842   -0.3493 H   0  0  0  0  0  0  0  0  0  0  0  0
   -4.5038   -2.4480   -1.0268 H   0  0  0  0  0  0  0  0  0  0  0  0
   -2.1980   -2.0781   -1.6439 H   0  0  0  0  0  0  0  0  0  0  0  0
   -0.6597   -0.0461   -2.8498 H   0  0  0  0  0  0  0  0  0  0  0  0
    3.9038    2.5700   -0.6645 H   0  0  0  0  0  0  0  0  0  0  0  0
    7.4481    1.6395    1.3355 H   0  0  0  0  0  0  0  0  0  0  0  0
    5.7138   -2.2535    0.7916 H   0  0  0  0  0  0  0  0  0  0  0  0
   -2.7395    2.1646   -1.1712 H   0  0  0  0  0  0  0  0  0  0  0  0
   -5.0441    1.8087   -0.5475 H   0  0  0  0  0  0  0  0  0  0  0  0
  1  2  1  0
  2  3  1  0
  2  4  1  0
  4  5  2  0
  5  6  1  0
  6  7  2  0
  7  8  1  0
  8  9  2  3
  9 10  1  0
 10 11  1  0
 11 12  2  0
 11 13  1  0
 13 14  1  0
 14 15  1  0
 15 16  2  0
 16 17  1  0
 17 18  2  0
 18 19  1  0
 19 20  1  0
 19 21  1  0
 19 22  1  0
 18 23  1  0
 23 24  2  0
 24 25  1  0
 13 26  1  0
 26 27  2  0
  7 28  1  0
 28 29  2  0
 29  4  1  0
 26  9  1  0
 24 15  1  0
  1 30  1  0
  1 31  1  0
  1 32  1  0
  3 33  1  0
  3 34  1  0
  3 35  1  0
  5 36  1  0
  6 37  1  0
  8 38  1  0
 14 39  1  0
 17 40  1  0
 23 41  1  0
 28 42  1  0
 29 43  1  0
M  END
$$$$
