
     RDKit          3D

 41 43  0  0  0  0  0  0  0  0999 V2000
    7.8288    0.3635    2.5386 C   0  0  0  0  0  0  0  0  0  0  0  0
    6.5750    0.3027    2.0645 C   0  0  0  0  0  0  0  0  0  0  0  0
    5.5238    1.1164    2.6624 C   0  0  0  0  0  0  0  0  0  0  0  0
    4.2655    1.0582    2.1896 C   0  0  0  0  0  0  0  0  0  0  0  0
    3.9107    0.1740    1.0569 C   0  0  0  0  0  0  0  0  0  0  0  0
    2.6415    0.1166    0.5808 C   0  0  0  0  0  0  0  0  0  0  0  0
    1.5880    0.8395    1.0725 N   0  0  0  0  0  0  0  0  0  0  0  0
    0.3557    0.6808    0.4939 C   0  0  0  0  0  0  0  0  0  0  0  0
   -0.6431    1.2765    0.8591 O   0  0  0  0  0  0  0  0  0  0  0  0
    0.4660   -0.3084   -0.6122 C   0  0  0  0  0  0  0  0  0  0  0  0
   -0.5072   -0.7562   -1.4194 C   0  0  0  0  0  0  0  0  0  0  0  0
   -1.9175   -0.3552   -1.4062 C   0  0  0  0  0  0  0  0  0  0  0  0
   -2.3036    0.9516   -1.7093 C   0  0  0  0  0  0  0  0  0  0  0  0
   -3.6562    1.3028   -1.7313 C   0  0  0  0  0  0  0  0  0  0  0  0
   -4.6403    0.3477   -1.4587 C   0  0  0  0  0  0  0  0  0  0  0  0
   -5.9899    0.6014   -1.4634 O   0  0  0  0  0  0  0  0  0  0  0  0
   -6.4031    1.9483   -1.6414 C   0  0  0  0  0  0  0  0  0  0  0  0
   -4.2588   -0.9764   -1.1629 C   0  0  0  0  0  0  0  0  0  0  0  0
   -5.2833   -1.8586   -0.9181 O   0  0  0  0  0  0  0  0  0  0  0  0
   -4.9374   -3.1646   -0.4815 C   0  0  0  0  0  0  0  0  0  0  0  0
   -2.9002   -1.3185   -1.1444 C   0  0  0  0  0  0  0  0  0  0  0  0
    2.1027   -0.8856   -0.7463 S   0  0  0  0  0  0  0  0  0  0  0  0
    4.9987   -0.6403    0.4709 C   0  0  0  0  0  0  0  0  0  0  0  0
    6.2547   -0.5777    0.9481 C   0  0  0  0  0  0  0  0  0  0  0  0
    8.0966    1.0097    3.3687 H   0  0  0  0  0  0  0  0  0  0  0  0
    8.6309   -0.2313    2.1126 H   0  0  0  0  0  0  0  0  0  0  0  0
    5.7684    1.7699    3.4940 H   0  0  0  0  0  0  0  0  0  0  0  0
    3.5140    1.6783    2.6616 H   0  0  0  0  0  0  0  0  0  0  0  0
    1.6600    1.4839    1.8433 H   0  0  0  0  0  0  0  0  0  0  0  0
   -0.2761   -1.5093   -2.1708 H   0  0  0  0  0  0  0  0  0  0  0  0
   -1.5574    1.7135   -1.9228 H   0  0  0  0  0  0  0  0  0  0  0  0
   -3.9059    2.3319   -1.9653 H   0  0  0  0  0  0  0  0  0  0  0  0
   -5.9962    2.5960   -0.8577 H   0  0  0  0  0  0  0  0  0  0  0  0
   -6.1342    2.3140   -2.6377 H   0  0  0  0  0  0  0  0  0  0  0  0
   -7.4942    1.9766   -1.5616 H   0  0  0  0  0  0  0  0  0  0  0  0
   -5.8660   -3.7031   -0.2688 H   0  0  0  0  0  0  0  0  0  0  0  0
   -4.3526   -3.1331    0.4439 H   0  0  0  0  0  0  0  0  0  0  0  0
   -4.4082   -3.7141   -1.2667 H   0  0  0  0  0  0  0  0  0  0  0  0
   -2.5834   -2.3331   -0.9271 H   0  0  0  0  0  0  0  0  0  0  0  0
    4.7942   -1.3058   -0.3608 H   0  0  0  0  0  0  0  0  0  0  0  0
    7.0397   -1.1825    0.5053 H   0  0  0  0  0  0  0  0  0  0  0  0
  1  2  2  0
  2  3  1  0
  3  4  2  0
  4  5  1  0
  5  6  2  3
  6  7  1  0
  7  8  1  0
  8  9  2  0
  8 10  1  0
 10 11  2  3
 11 12  1  0
 12 13  2  0
 13 14  1  0
 14 15  2  0
 15 16  1  0
 16 17  1  0
 15 18  1  0
 18 19  1  0
 19 20  1  0
 18 21  2  0
 10 22  1  0
  5 23  1  0
 23 24  2  0
 24  2  1  0
 22  6  1  0
 21 12  1  0
  1 25  1  0
  1 26  1  0
  3 27  1  0
  4 28  1  0
  7 29  1  0
 11 30  1  0
 13 31  1  0
 14 32  1  0
 17 33  1  0
 17 34  1  0
 17 35  1  0
 20 36  1  0
 20 37  1  0
 20 38  1  0
 21 39  1  0
 23 40  1  0
 24 41  1  0
M  END
$$$$
