
     RDKit          3D

 39 40  0  0  0  0  0  0  0  0999 V2000
   -3.0023    4.1047   -1.3122 C   0  0  0  0  0  0  0  0  0  0  0  0
   -2.7654    2.7212   -0.7695 C   0  0  0  0  0  0  0  0  0  0  0  0
   -3.4828    2.2447    0.1029 O   0  0  0  0  0  0  0  0  0  0  0  0
   -1.6563    2.1244   -1.3022 N   0  0  0  0  0  0  0  0  0  0  0  0
   -1.5852    0.8308   -1.4230 C   0  0  0  0  0  0  0  0  0  0  0  0
   -2.6241   -0.2304   -1.1344 C   0  0  0  0  0  0  0  0  0  0  0  0
   -2.1844   -1.1704   -0.0363 C   0  0  0  0  0  0  0  0  0  0  0  0
   -1.6139   -2.4133   -0.3463 C   0  0  0  0  0  0  0  0  0  0  0  0
   -1.1629   -3.2579    0.6698 C   0  0  0  0  0  0  0  0  0  0  0  0
   -1.2778   -2.8698    2.0028 C   0  0  0  0  0  0  0  0  0  0  0  0
   -1.8468   -1.6390    2.3216 C   0  0  0  0  0  0  0  0  0  0  0  0
   -2.2963   -0.7918    1.3070 C   0  0  0  0  0  0  0  0  0  0  0  0
   -0.2802    0.2744   -1.9591 C   0  0  0  0  0  0  0  0  0  0  0  0
   -0.1885   -0.2051   -3.0740 O   0  0  0  0  0  0  0  0  0  0  0  0
    0.6599    0.3621   -1.0032 O   0  0  0  0  0  0  0  0  0  0  0  0
    1.9044   -0.2323   -1.3689 C   0  0  0  0  0  0  0  0  0  0  0  0
    2.8531   -0.1106   -0.2036 C   0  0  0  0  0  0  0  0  0  0  0  0
    4.0760    0.5592   -0.3423 C   0  0  0  0  0  0  0  0  0  0  0  0
    4.9548    0.6604    0.7387 C   0  0  0  0  0  0  0  0  0  0  0  0
    4.6219    0.0913    1.9668 C   0  0  0  0  0  0  0  0  0  0  0  0
    3.4101   -0.5798    2.1165 C   0  0  0  0  0  0  0  0  0  0  0  0
    2.5294   -0.6812    1.0373 C   0  0  0  0  0  0  0  0  0  0  0  0
   -2.1470    4.7406   -1.0728 H   0  0  0  0  0  0  0  0  0  0  0  0
   -3.9004    4.5334   -0.8593 H   0  0  0  0  0  0  0  0  0  0  0  0
   -3.1431    4.0586   -2.3955 H   0  0  0  0  0  0  0  0  0  0  0  0
   -3.6052    0.1859   -0.8996 H   0  0  0  0  0  0  0  0  0  0  0  0
   -2.7788   -0.7981   -2.0613 H   0  0  0  0  0  0  0  0  0  0  0  0
   -1.5117   -2.7330   -1.3818 H   0  0  0  0  0  0  0  0  0  0  0  0
   -0.7202   -4.2171    0.4210 H   0  0  0  0  0  0  0  0  0  0  0  0
   -0.9269   -3.5273    2.7953 H   0  0  0  0  0  0  0  0  0  0  0  0
   -1.9389   -1.3350    3.3613 H   0  0  0  0  0  0  0  0  0  0  0  0
   -2.7328    0.1683    1.5731 H   0  0  0  0  0  0  0  0  0  0  0  0
    1.7653   -1.2947   -1.6031 H   0  0  0  0  0  0  0  0  0  0  0  0
    2.3090    0.2783   -2.2501 H   0  0  0  0  0  0  0  0  0  0  0  0
    4.3529    1.0121   -1.2914 H   0  0  0  0  0  0  0  0  0  0  0  0
    5.8993    1.1858    0.6234 H   0  0  0  0  0  0  0  0  0  0  0  0
    5.3058    0.1728    2.8082 H   0  0  0  0  0  0  0  0  0  0  0  0
    3.1482   -1.0210    3.0749 H   0  0  0  0  0  0  0  0  0  0  0  0
    1.5818   -1.2013    1.1692 H   0  0  0  0  0  0  0  0  0  0  0  0
  1  2  1  0
  2  3  2  0
  2  4  1  0
  4  5  2  3
  5  6  1  0
  6  7  1  0
  7  8  2  0
  8  9  1  0
  9 10  2  0
 10 11  1  0
 11 12  2  0
  5 13  1  0
 13 14  2  0
 13 15  1  0
 15 16  1  0
 16 17  1  0
 17 18  2  0
 18 19  1  0
 19 20  2  0
 20 21  1  0
 21 22  2  0
 12  7  1  0
 22 17  1  0
  1 23  1  0
  1 24  1  0
  1 25  1  0
  6 26  1  0
  6 27  1  0
  8 28  1  0
  9 29  1  0
 10 30  1  0
 11 31  1  0
 12 32  1  0
 16 33  1  0
 16 34  1  0
 18 35  1  0
 19 36  1  0
 20 37  1  0
 21 38  1  0
 22 39  1  0
M  END
$$$$
