
     RDKit          3D

 60 64  0  0  0  0  0  0  0  0999 V2000
   -1.5554   -4.3349   -0.6113 C   0  0  0  0  0  0  0  0  0  0  0  0
   -2.1559   -3.0437   -0.2885 N   0  0  0  0  0  0  0  0  0  0  0  0
   -3.5229   -3.0397   -0.0051 C   0  0  0  0  0  0  0  0  0  0  0  0
   -4.1923   -4.0775    0.0077 O   0  0  0  0  0  0  0  0  0  0  0  0
   -4.2129   -1.7305    0.2369 C   0  0  0  0  0  0  0  0  0  0  0  0
   -5.5220   -1.6658   -0.0727 C   0  0  0  0  0  0  0  0  0  0  0  0
   -6.3954   -0.5031    0.1125 C   0  0  0  0  0  0  0  0  0  0  0  0
   -7.2365   -0.4348    1.2267 C   0  0  0  0  0  0  0  0  0  0  0  0
   -8.0686    0.6724    1.4132 C   0  0  0  0  0  0  0  0  0  0  0  0
   -8.0770    1.7231    0.4831 C   0  0  0  0  0  0  0  0  0  0  0  0
   -8.9552    2.9323    0.6930 C   0  0  0  0  0  0  0  0  0  0  0  0
   -8.2934    3.9532    1.3047 F   0  0  0  0  0  0  0  0  0  0  0  0
  -10.0475    2.6776    1.4670 F   0  0  0  0  0  0  0  0  0  0  0  0
   -9.4395    3.4464   -0.4725 F   0  0  0  0  0  0  0  0  0  0  0  0
   -7.2254    1.6490   -0.6302 C   0  0  0  0  0  0  0  0  0  0  0  0
   -6.3931    0.5421   -0.8161 C   0  0  0  0  0  0  0  0  0  0  0  0
   -3.3416   -0.4498    0.9792 S   0  0  0  0  0  0  0  0  0  0  0  0
   -1.7948   -0.6327    0.1344 C   0  0  0  0  0  0  0  0  0  0  0  0
   -0.9902    0.5170    0.0363 C   0  0  0  0  0  0  0  0  0  0  0  0
    0.2674    0.4584   -0.5577 C   0  0  0  0  0  0  0  0  0  0  0  0
    0.7347   -0.7634   -1.0342 C   0  0  0  0  0  0  0  0  0  0  0  0
    2.0516   -0.8592   -1.7022 C   0  0  0  0  0  0  0  0  0  0  0  0
    2.0836   -1.3734   -2.8176 O   0  0  0  0  0  0  0  0  0  0  0  0
    3.1755   -0.3453   -1.0557 N   0  0  0  0  0  0  0  0  0  0  0  0
    4.4501   -0.4550   -1.7741 C   0  0  0  0  0  0  0  0  0  0  0  0
    5.5169    0.5287   -1.2594 C   0  0  0  0  0  0  0  0  0  0  0  0
    5.6576    0.4184    0.2104 N   0  0  0  0  0  0  0  0  0  0  0  0
    6.6903    1.2424    0.7077 C   0  0  0  0  0  0  0  0  0  0  0  0
    8.0120    0.9822    0.3371 C   0  0  0  0  0  0  0  0  0  0  0  0
    9.0445    1.7787    0.8292 C   0  0  0  0  0  0  0  0  0  0  0  0
    8.7413    2.8197    1.6918 C   0  0  0  0  0  0  0  0  0  0  0  0
    7.4147    3.0102    2.0279 C   0  0  0  0  0  0  0  0  0  0  0  0
    6.3991    2.2487    1.5616 N   0  0  0  0  0  0  0  0  0  0  0  0
    4.3734    0.6426    0.9092 C   0  0  0  0  0  0  0  0  0  0  0  0
    3.3147   -0.3572    0.4116 C   0  0  0  0  0  0  0  0  0  0  0  0
   -0.0692   -1.9085   -0.9601 C   0  0  0  0  0  0  0  0  0  0  0  0
   -1.3469   -1.8635   -0.3730 C   0  0  0  0  0  0  0  0  0  0  0  0
   -2.1991   -5.1722   -0.3265 H   0  0  0  0  0  0  0  0  0  0  0  0
   -0.6131   -4.4545   -0.0669 H   0  0  0  0  0  0  0  0  0  0  0  0
   -1.3873   -4.3918   -1.6916 H   0  0  0  0  0  0  0  0  0  0  0  0
   -6.0276   -2.5306   -0.5003 H   0  0  0  0  0  0  0  0  0  0  0  0
   -7.2448   -1.2391    1.9597 H   0  0  0  0  0  0  0  0  0  0  0  0
   -8.7121    0.7109    2.2911 H   0  0  0  0  0  0  0  0  0  0  0  0
   -7.2075    2.4568   -1.3606 H   0  0  0  0  0  0  0  0  0  0  0  0
   -5.7422    0.5038   -1.6870 H   0  0  0  0  0  0  0  0  0  0  0  0
   -1.3440    1.4708    0.4250 H   0  0  0  0  0  0  0  0  0  0  0  0
    0.8703    1.3584   -0.6494 H   0  0  0  0  0  0  0  0  0  0  0  0
    4.8003   -1.4878   -1.6539 H   0  0  0  0  0  0  0  0  0  0  0  0
    4.2870   -0.2844   -2.8441 H   0  0  0  0  0  0  0  0  0  0  0  0
    5.2238    1.5529   -1.5277 H   0  0  0  0  0  0  0  0  0  0  0  0
    6.4577    0.3031   -1.7742 H   0  0  0  0  0  0  0  0  0  0  0  0
    8.2448    0.1458   -0.3132 H   0  0  0  0  0  0  0  0  0  0  0  0
   10.0732    1.5775    0.5463 H   0  0  0  0  0  0  0  0  0  0  0  0
    9.5160    3.4589    2.0983 H   0  0  0  0  0  0  0  0  0  0  0  0
    7.1190    3.8054    2.7058 H   0  0  0  0  0  0  0  0  0  0  0  0
    4.0076    1.6622    0.7259 H   0  0  0  0  0  0  0  0  0  0  0  0
    4.4928    0.5026    1.9910 H   0  0  0  0  0  0  0  0  0  0  0  0
    2.3627   -0.1528    0.9053 H   0  0  0  0  0  0  0  0  0  0  0  0
    3.6036   -1.3789    0.6901 H   0  0  0  0  0  0  0  0  0  0  0  0
    0.3273   -2.8223   -1.3950 H   0  0  0  0  0  0  0  0  0  0  0  0
  1  2  1  0
  2  3  1  0
  3  4  2  0
  3  5  1  0
  5  6  2  3
  6  7  1  0
  7  8  2  0
  8  9  1  0
  9 10  2  0
 10 11  1  0
 11 12  1  0
 11 13  1  0
 11 14  1  0
 10 15  1  0
 15 16  2  0
  5 17  1  0
 17 18  1  0
 18 19  2  0
 19 20  1  0
 20 21  2  0
 21 22  1  0
 22 23  2  0
 22 24  1  0
 24 25  1  0
 25 26  1  0
 26 27  1  0
 27 28  1  0
 28 29  2  0
 29 30  1  0
 30 31  2  0
 31 32  1  0
 32 33  2  0
 27 34  1  0
 34 35  1  0
 21 36  1  0
 36 37  2  0
 37  2  1  0
 16  7  1  0
 37 18  1  0
 35 24  1  0
 33 28  1  0
  1 38  1  0
  1 39  1  0
  1 40  1  0
  6 41  1  0
  8 42  1  0
  9 43  1  0
 15 44  1  0
 16 45  1  0
 19 46  1  0
 20 47  1  0
 25 48  1  0
 25 49  1  0
 26 50  1  0
 26 51  1  0
 29 52  1  0
 30 53  1  0
 31 54  1  0
 32 55  1  0
 34 56  1  0
 34 57  1  0
 35 58  1  0
 35 59  1  0
 36 60  1  0
M  END
$$$$
