
     RDKit          3D

 42 44  0  0  0  0  0  0  0  0999 V2000
   -2.6910   -1.4497    3.6032 C   0  0  0  0  0  0  0  0  0  0  0  0
   -3.2134   -0.4024    2.7958 O   0  0  0  0  0  0  0  0  0  0  0  0
   -2.8126   -0.3709    1.4886 C   0  0  0  0  0  0  0  0  0  0  0  0
   -1.8989   -1.2410    0.8895 C   0  0  0  0  0  0  0  0  0  0  0  0
   -1.5747   -1.0972   -0.4631 C   0  0  0  0  0  0  0  0  0  0  0  0
   -2.1563   -0.0691   -1.2107 C   0  0  0  0  0  0  0  0  0  0  0  0
   -1.7526    0.1100   -2.9335 S   0  0  0  0  0  6  0  0  0  0  0  0
   -2.8970    0.7083   -3.5896 O   0  0  0  0  0  0  0  0  0  0  0  0
   -1.1976   -1.1422   -3.3990 O   0  0  0  0  0  0  0  0  0  0  0  0
   -0.5504    1.2946   -2.9326 N   0  0  0  0  0  0  0  0  0  0  0  0
    0.5770    1.1826   -2.0657 C   0  0  0  0  0  0  0  0  0  0  0  0
    1.4076    0.0582   -2.1405 C   0  0  0  0  0  0  0  0  0  0  0  0
    2.4931   -0.0964   -1.2690 C   0  0  0  0  0  0  0  0  0  0  0  0
    3.4946   -1.5646   -1.4360 S   0  0  0  0  0  0  0  0  0  0  0  0
    3.2706   -2.3068    0.1214 C   0  0  0  0  0  0  0  0  0  0  0  0
    2.3624   -3.2944    0.3761 N   0  0  0  0  0  0  0  0  0  0  0  0
    2.5424   -3.5370    1.6530 C   0  0  0  0  0  0  0  0  0  0  0  0
    3.5103   -2.7166    2.1402 N   0  0  0  0  0  0  0  0  0  0  0  0
    3.9861   -1.9044    1.1799 N   0  0  0  0  0  0  0  0  0  0  0  0
    2.7574    0.9192   -0.3442 C   0  0  0  0  0  0  0  0  0  0  0  0
    3.7983    0.8774    0.5431 O   0  0  0  0  0  0  0  0  0  0  0  0
    1.9548    2.0576   -0.2851 C   0  0  0  0  0  0  0  0  0  0  0  0
    0.8511    2.2017   -1.1384 C   0  0  0  0  0  0  0  0  0  0  0  0
    0.0072    3.4408   -1.0331 C   0  0  0  0  0  0  0  0  0  0  0  0
   -3.0850    0.7939   -0.6270 C   0  0  0  0  0  0  0  0  0  0  0  0
   -3.4026    0.6419    0.7239 C   0  0  0  0  0  0  0  0  0  0  0  0
   -1.6035   -1.3667    3.7010 H   0  0  0  0  0  0  0  0  0  0  0  0
   -2.9798   -2.4315    3.2134 H   0  0  0  0  0  0  0  0  0  0  0  0
   -3.1235   -1.3484    4.6032 H   0  0  0  0  0  0  0  0  0  0  0  0
   -1.4216   -2.0435    1.4423 H   0  0  0  0  0  0  0  0  0  0  0  0
   -0.8669   -1.7873   -0.9193 H   0  0  0  0  0  0  0  0  0  0  0  0
   -0.9288    2.2197   -3.1239 H   0  0  0  0  0  0  0  0  0  0  0  0
    1.2121   -0.7075   -2.8889 H   0  0  0  0  0  0  0  0  0  0  0  0
    2.0221   -4.2687    2.2547 H   0  0  0  0  0  0  0  0  0  0  0  0
    3.8844   -2.6532    3.0811 H   0  0  0  0  0  0  0  0  0  0  0  0
    4.1418   -0.0405    0.5784 H   0  0  0  0  0  0  0  0  0  0  0  0
    2.1969    2.8299    0.4421 H   0  0  0  0  0  0  0  0  0  0  0  0
    0.0747    4.0235   -1.9573 H   0  0  0  0  0  0  0  0  0  0  0  0
    0.3362    4.0844   -0.2103 H   0  0  0  0  0  0  0  0  0  0  0  0
   -1.0379    3.1785   -0.8426 H   0  0  0  0  0  0  0  0  0  0  0  0
   -3.5641    1.5778   -1.2082 H   0  0  0  0  0  0  0  0  0  0  0  0
   -4.1226    1.3130    1.1871 H   0  0  0  0  0  0  0  0  0  0  0  0
  1  2  1  0
  2  3  1  0
  3  4  2  0
  4  5  1  0
  5  6  2  0
  6  7  1  0
  7  8  2  0
  7  9  2  0
  7 10  1  0
 10 11  1  0
 11 12  2  0
 12 13  1  0
 13 14  1  0
 14 15  1  0
 15 16  1  0
 16 17  2  0
 17 18  1  0
 18 19  1  0
 13 20  2  0
 20 21  1  0
 20 22  1  0
 22 23  2  0
 23 24  1  0
  6 25  1  0
 25 26  2  0
 26  3  1  0
 23 11  1  0
 19 15  2  0
  1 27  1  0
  1 28  1  0
  1 29  1  0
  4 30  1  0
  5 31  1  0
 10 32  1  0
 12 33  1  0
 17 34  1  0
 18 35  1  0
 21 36  1  0
 22 37  1  0
 24 38  1  0
 24 39  1  0
 24 40  1  0
 25 41  1  0
 26 42  1  0
M  END
$$$$
