
     RDKit          3D

 50 51  0  0  0  0  0  0  0  0999 V2000
   -5.9697   -3.1999   -0.8147 C   0  0  0  0  0  0  0  0  0  0  0  0
   -5.6993   -2.3923    0.3218 O   0  0  0  0  0  0  0  0  0  0  0  0
   -4.4309   -1.8875    0.4596 C   0  0  0  0  0  0  0  0  0  0  0  0
   -3.3990   -2.0790   -0.4644 C   0  0  0  0  0  0  0  0  0  0  0  0
   -2.1368   -1.5224   -0.2404 C   0  0  0  0  0  0  0  0  0  0  0  0
   -1.8923   -0.7802    0.9144 C   0  0  0  0  0  0  0  0  0  0  0  0
   -0.6067   -0.1926    1.1489 N   0  0  0  0  0  0  0  0  0  0  0  0
    0.5951   -1.0513    1.1335 C   0  0  0  0  0  0  0  0  0  0  0  0
    1.4491   -0.9310   -0.1202 C   0  0  0  0  0  0  0  0  0  0  0  0
    1.1750   -1.5793   -1.1273 O   0  0  0  0  0  0  0  0  0  0  0  0
    2.4795   -0.0105    0.0010 N   0  0  0  0  0  0  0  0  0  0  0  0
    3.4970    0.2842   -0.9404 C   0  0  0  0  0  0  0  0  0  0  0  0
    3.7056   -0.5260   -2.0697 C   0  0  0  0  0  0  0  0  0  0  0  0
    4.6890   -0.2269   -3.0164 C   0  0  0  0  0  0  0  0  0  0  0  0
    5.4802    0.9000   -2.8567 C   0  0  0  0  0  0  0  0  0  0  0  0
    5.2880    1.7070   -1.7295 C   0  0  0  0  0  0  0  0  0  0  0  0
    6.1160    2.9007   -1.6420 N   0  0  0  0  0  4  0  0  0  0  0  0
    5.5333    3.9928   -1.6118 O   0  0  0  0  0  0  0  0  0  0  0  0
    7.3428    2.7346   -1.6251 O   0  0  0  0  0  1  0  0  0  0  0  0
    4.3312    1.4089   -0.7312 C   0  0  0  0  0  0  0  0  0  0  0  0
    4.1881    2.2821    0.4919 C   0  0  0  0  0  0  0  0  0  0  0  0
   -0.4322    1.4770    0.9911 S   0  0  0  0  0  6  0  0  0  0  0  0
   -0.6169    1.7401   -0.7646 C   0  0  0  0  0  0  0  0  0  0  0  0
   -1.5327    2.1413    1.6554 O   0  0  0  0  0  0  0  0  0  0  0  0
    0.9390    1.7921    1.3515 O   0  0  0  0  0  0  0  0  0  0  0  0
   -2.9195   -0.5785    1.8386 C   0  0  0  0  0  0  0  0  0  0  0  0
   -4.1910   -1.1198    1.6169 C   0  0  0  0  0  0  0  0  0  0  0  0
   -5.2527   -0.9701    2.4757 O   0  0  0  0  0  0  0  0  0  0  0  0
   -5.1262    0.0038    3.5036 C   0  0  0  0  0  0  0  0  0  0  0  0
   -5.8595   -2.6267   -1.7410 H   0  0  0  0  0  0  0  0  0  0  0  0
   -5.3379   -4.0942   -0.8242 H   0  0  0  0  0  0  0  0  0  0  0  0
   -7.0111   -3.5299   -0.7506 H   0  0  0  0  0  0  0  0  0  0  0  0
   -3.5443   -2.6543   -1.3729 H   0  0  0  0  0  0  0  0  0  0  0  0
   -1.3588   -1.6813   -0.9822 H   0  0  0  0  0  0  0  0  0  0  0  0
    1.2015   -0.8247    2.0194 H   0  0  0  0  0  0  0  0  0  0  0  0
    0.3203   -2.1079    1.2455 H   0  0  0  0  0  0  0  0  0  0  0  0
    2.3729    0.6440    0.7777 H   0  0  0  0  0  0  0  0  0  0  0  0
    3.1146   -1.4211   -2.2442 H   0  0  0  0  0  0  0  0  0  0  0  0
    4.8230   -0.8746   -3.8800 H   0  0  0  0  0  0  0  0  0  0  0  0
    6.2336    1.1443   -3.6026 H   0  0  0  0  0  0  0  0  0  0  0  0
    3.3609    2.9851    0.3560 H   0  0  0  0  0  0  0  0  0  0  0  0
    5.0982    2.8489    0.7094 H   0  0  0  0  0  0  0  0  0  0  0  0
    4.0152    1.6798    1.3895 H   0  0  0  0  0  0  0  0  0  0  0  0
   -1.6257    1.4544   -1.0664 H   0  0  0  0  0  0  0  0  0  0  0  0
    0.1332    1.1691   -1.3097 H   0  0  0  0  0  0  0  0  0  0  0  0
   -0.4696    2.8061   -0.9542 H   0  0  0  0  0  0  0  0  0  0  0  0
   -2.7044    0.0008    2.7305 H   0  0  0  0  0  0  0  0  0  0  0  0
   -6.0950    0.0868    4.0057 H   0  0  0  0  0  0  0  0  0  0  0  0
   -4.8788    0.9888    3.0935 H   0  0  0  0  0  0  0  0  0  0  0  0
   -4.3913   -0.3108    4.2514 H   0  0  0  0  0  0  0  0  0  0  0  0
  1  2  1  0
  2  3  1  0
  3  4  2  0
  4  5  1  0
  5  6  2  0
  6  7  1  0
  7  8  1  0
  8  9  1  0
  9 10  2  0
  9 11  1  0
 11 12  1  0
 12 13  2  0
 13 14  1  0
 14 15  2  0
 15 16  1  0
 16 17  1  0
 17 18  2  0
 17 19  1  0
 16 20  2  0
 20 21  1  0
  7 22  1  0
 22 23  1  0
 22 24  2  0
 22 25  2  0
  6 26  1  0
 26 27  2  0
 27 28  1  0
 28 29  1  0
 27  3  1  0
 20 12  1  0
  1 30  1  0
  1 31  1  0
  1 32  1  0
  4 33  1  0
  5 34  1  0
  8 35  1  0
  8 36  1  0
 11 37  1  0
 13 38  1  0
 14 39  1  0
 15 40  1  0
 21 41  1  0
 21 42  1  0
 21 43  1  0
 23 44  1  0
 23 45  1  0
 23 46  1  0
 26 47  1  0
 29 48  1  0
 29 49  1  0
 29 50  1  0
M  CHG  2  17   1  19  -1
M  END
$$$$
