
     RDKit          3D

 58 61  0  0  0  0  0  0  0  0999 V2000
   -5.6617    3.9492   -1.3192 C   0  0  0  0  0  0  0  0  0  0  0  0
   -4.8186    4.4146   -0.2729 O   0  0  0  0  0  0  0  0  0  0  0  0
   -4.0867    3.4728    0.3975 C   0  0  0  0  0  0  0  0  0  0  0  0
   -3.3051    3.9765    1.4397 C   0  0  0  0  0  0  0  0  0  0  0  0
   -2.5077    3.1269    2.2054 C   0  0  0  0  0  0  0  0  0  0  0  0
   -2.4876    1.7604    1.9312 C   0  0  0  0  0  0  0  0  0  0  0  0
   -3.2638    1.2364    0.8895 C   0  0  0  0  0  0  0  0  0  0  0  0
   -3.2252   -0.2017    0.5914 C   0  0  0  0  0  0  0  0  0  0  0  0
   -4.6593   -1.1129    0.7964 S   0  0  0  0  0  0  0  0  0  0  0  0
   -3.9056   -2.5804    0.3224 C   0  0  0  0  0  0  0  0  0  0  0  0
   -4.5086   -3.8488    0.2392 C   0  0  0  0  0  0  0  0  0  0  0  0
   -3.7367   -4.9366   -0.1761 C   0  0  0  0  0  0  0  0  0  0  0  0
   -2.3963   -4.7826   -0.5080 C   0  0  0  0  0  0  0  0  0  0  0  0
   -1.7694   -5.9331   -0.9023 O   0  0  0  0  0  0  0  0  0  0  0  0
   -0.4030   -5.8248   -1.2816 C   0  0  0  0  0  0  0  0  0  0  0  0
   -1.8071   -3.5180   -0.4192 C   0  0  0  0  0  0  0  0  0  0  0  0
   -2.5603   -2.3873    0.0069 C   0  0  0  0  0  0  0  0  0  0  0  0
   -2.1717   -1.0023    0.1760 C   0  0  0  0  0  0  0  0  0  0  0  0
   -0.8363   -0.4605   -0.0572 C   0  0  0  0  0  0  0  0  0  0  0  0
    0.2203   -0.8208    0.7867 C   0  0  0  0  0  0  0  0  0  0  0  0
    1.5056   -0.3108    0.5704 C   0  0  0  0  0  0  0  0  0  0  0  0
    1.7438    0.5609   -0.4926 C   0  0  0  0  0  0  0  0  0  0  0  0
    2.9453    1.1288   -0.8141 O   0  0  0  0  0  0  0  0  0  0  0  0
    4.0609    0.8144    0.0264 C   0  0  0  0  0  0  0  0  0  0  0  0
    5.2824    1.5886   -0.4960 C   0  0  0  0  0  0  0  0  0  0  0  0
    6.4955    1.4304    0.3297 N   0  0  0  0  0  0  0  0  0  0  0  0
    7.0481    0.0777    0.2314 C   0  0  0  0  0  0  0  0  0  0  0  0
    7.5083    2.4063   -0.0844 C   0  0  0  0  0  0  0  0  0  0  0  0
    0.6877    0.9155   -1.3363 C   0  0  0  0  0  0  0  0  0  0  0  0
   -0.5967    0.4086   -1.1246 C   0  0  0  0  0  0  0  0  0  0  0  0
   -4.0620    2.1036    0.1236 C   0  0  0  0  0  0  0  0  0  0  0  0
   -6.1872    4.8144   -1.7347 H   0  0  0  0  0  0  0  0  0  0  0  0
   -6.4162    3.2525   -0.9391 H   0  0  0  0  0  0  0  0  0  0  0  0
   -5.0754    3.4971   -2.1260 H   0  0  0  0  0  0  0  0  0  0  0  0
   -3.3183    5.0422    1.6555 H   0  0  0  0  0  0  0  0  0  0  0  0
   -1.9024    3.5300    3.0128 H   0  0  0  0  0  0  0  0  0  0  0  0
   -1.8625    1.1065    2.5348 H   0  0  0  0  0  0  0  0  0  0  0  0
   -5.5565   -3.9839    0.4912 H   0  0  0  0  0  0  0  0  0  0  0  0
   -4.1967   -5.9202   -0.2435 H   0  0  0  0  0  0  0  0  0  0  0  0
    0.2151   -5.4961   -0.4396 H   0  0  0  0  0  0  0  0  0  0  0  0
   -0.2836   -5.1608   -2.1441 H   0  0  0  0  0  0  0  0  0  0  0  0
   -0.0587   -6.8203   -1.5780 H   0  0  0  0  0  0  0  0  0  0  0  0
   -0.7646   -3.3636   -0.6753 H   0  0  0  0  0  0  0  0  0  0  0  0
    0.0491   -1.4949    1.6233 H   0  0  0  0  0  0  0  0  0  0  0  0
    2.2939   -0.6121    1.2522 H   0  0  0  0  0  0  0  0  0  0  0  0
    4.2506   -0.2637   -0.0147 H   0  0  0  0  0  0  0  0  0  0  0  0
    3.8521    1.1232    1.0579 H   0  0  0  0  0  0  0  0  0  0  0  0
    5.4746    1.3113   -1.5415 H   0  0  0  0  0  0  0  0  0  0  0  0
    4.9972    2.6494   -0.5224 H   0  0  0  0  0  0  0  0  0  0  0  0
    7.2884   -0.1972   -0.8020 H   0  0  0  0  0  0  0  0  0  0  0  0
    7.9626   -0.0078    0.8296 H   0  0  0  0  0  0  0  0  0  0  0  0
    6.3530   -0.6642    0.6364 H   0  0  0  0  0  0  0  0  0  0  0  0
    8.4008    2.3268    0.5465 H   0  0  0  0  0  0  0  0  0  0  0  0
    7.8101    2.2711   -1.1294 H   0  0  0  0  0  0  0  0  0  0  0  0
    7.1320    3.4282    0.0379 H   0  0  0  0  0  0  0  0  0  0  0  0
    0.8657    1.5962   -2.1654 H   0  0  0  0  0  0  0  0  0  0  0  0
   -1.4019    0.6998   -1.7945 H   0  0  0  0  0  0  0  0  0  0  0  0
   -4.6496    1.6848   -0.6868 H   0  0  0  0  0  0  0  0  0  0  0  0
  1  2  1  0
  2  3  1  0
  3  4  2  0
  4  5  1  0
  5  6  2  0
  6  7  1  0
  7  8  1  0
  8  9  1  0
  9 10  1  0
 10 11  2  0
 11 12  1  0
 12 13  2  0
 13 14  1  0
 14 15  1  0
 13 16  1  0
 16 17  2  0
 17 18  1  0
 18 19  1  0
 19 20  2  0
 20 21  1  0
 21 22  2  0
 22 23  1  0
 23 24  1  0
 24 25  1  0
 25 26  1  0
 26 27  1  0
 26 28  1  0
 22 29  1  0
 29 30  2  0
  7 31  2  0
 31  3  1  0
 18  8  2  0
 30 19  1  0
 17 10  1  0
  1 32  1  0
  1 33  1  0
  1 34  1  0
  4 35  1  0
  5 36  1  0
  6 37  1  0
 11 38  1  0
 12 39  1  0
 15 40  1  0
 15 41  1  0
 15 42  1  0
 16 43  1  0
 20 44  1  0
 21 45  1  0
 24 46  1  0
 24 47  1  0
 25 48  1  0
 25 49  1  0
 27 50  1  0
 27 51  1  0
 27 52  1  0
 28 53  1  0
 28 54  1  0
 28 55  1  0
 29 56  1  0
 30 57  1  0
 31 58  1  0
M  END
$$$$
