
     RDKit          3D

 41 42  0  0  0  0  0  0  0  0999 V2000
   -5.0906    1.7235    0.5455 C   0  0  0  0  0  0  0  0  0  0  0  0
   -4.6583    0.3727    1.0950 C   0  0  0  0  0  0  0  0  0  0  0  0
   -3.7416   -0.3137    0.1744 N   0  0  0  0  0  0  0  0  0  0  0  0
   -4.3619   -1.1317   -0.8778 C   0  0  0  0  0  0  0  0  0  0  0  0
   -4.2145   -0.4922   -2.2522 C   0  0  0  0  0  0  0  0  0  0  0  0
   -2.3608   -0.2072    0.3101 C   0  0  0  0  0  0  0  0  0  0  0  0
   -1.7577    0.7771    1.1110 C   0  0  0  0  0  0  0  0  0  0  0  0
   -0.3646    0.8915    1.2508 C   0  0  0  0  0  0  0  0  0  0  0  0
    0.4912    0.0206    0.5794 C   0  0  0  0  0  0  0  0  0  0  0  0
    1.9526    0.0796    0.7134 C   0  0  0  0  0  0  0  0  0  0  0  0
    2.6433    1.2273    0.7957 C   0  0  0  0  0  0  0  0  0  0  0  0
    4.1182    1.3066    0.9590 C   0  0  0  0  0  0  0  0  0  0  0  0
    4.6044    2.2471    1.5808 O   0  0  0  0  0  0  0  0  0  0  0  0
    5.0028    0.2752    0.3822 C   0  0  0  0  0  0  0  0  0  0  0  0
    6.1693   -0.0876    1.0578 C   0  0  0  0  0  0  0  0  0  0  0  0
    7.0113   -1.0475    0.5015 C   0  0  0  0  0  0  0  0  0  0  0  0
    6.6595   -1.6026   -0.7192 C   0  0  0  0  0  0  0  0  0  0  0  0
    5.5482   -1.2595   -1.4084 N   0  0  0  0  0  0  0  0  0  0  0  0
    4.7511   -0.3165   -0.8486 C   0  0  0  0  0  0  0  0  0  0  0  0
   -0.0785   -0.9777   -0.2084 C   0  0  0  0  0  0  0  0  0  0  0  0
   -1.4730   -1.0796   -0.3411 C   0  0  0  0  0  0  0  0  0  0  0  0
   -5.6580    1.6073   -0.3831 H   0  0  0  0  0  0  0  0  0  0  0  0
   -5.7342    2.2356    1.2678 H   0  0  0  0  0  0  0  0  0  0  0  0
   -4.2334    2.3699    0.3344 H   0  0  0  0  0  0  0  0  0  0  0  0
   -5.5521   -0.2433    1.2557 H   0  0  0  0  0  0  0  0  0  0  0  0
   -4.2213    0.4857    2.0939 H   0  0  0  0  0  0  0  0  0  0  0  0
   -3.9613   -2.1514   -0.8754 H   0  0  0  0  0  0  0  0  0  0  0  0
   -5.4346   -1.2500   -0.6796 H   0  0  0  0  0  0  0  0  0  0  0  0
   -4.6533    0.5100   -2.2722 H   0  0  0  0  0  0  0  0  0  0  0  0
   -3.1667   -0.4009   -2.5524 H   0  0  0  0  0  0  0  0  0  0  0  0
   -4.7260   -1.0999   -3.0054 H   0  0  0  0  0  0  0  0  0  0  0  0
   -2.3592    1.5049    1.6471 H   0  0  0  0  0  0  0  0  0  0  0  0
    0.0268    1.6698    1.9013 H   0  0  0  0  0  0  0  0  0  0  0  0
    2.4500   -0.8870    0.7418 H   0  0  0  0  0  0  0  0  0  0  0  0
    2.1507    2.1949    0.8150 H   0  0  0  0  0  0  0  0  0  0  0  0
    6.4209    0.3754    2.0093 H   0  0  0  0  0  0  0  0  0  0  0  0
    7.9219   -1.3513    1.0062 H   0  0  0  0  0  0  0  0  0  0  0  0
    7.2842   -2.3556   -1.1923 H   0  0  0  0  0  0  0  0  0  0  0  0
    3.8903   -0.0442   -1.4528 H   0  0  0  0  0  0  0  0  0  0  0  0
    0.5477   -1.6914   -0.7390 H   0  0  0  0  0  0  0  0  0  0  0  0
   -1.8425   -1.8839   -0.9695 H   0  0  0  0  0  0  0  0  0  0  0  0
  1  2  1  0
  2  3  1  0
  3  4  1  0
  4  5  1  0
  3  6  1  0
  6  7  2  0
  7  8  1  0
  8  9  2  0
  9 10  1  0
 10 11  2  3
 11 12  1  0
 12 13  2  0
 12 14  1  0
 14 15  2  0
 15 16  1  0
 16 17  2  0
 17 18  1  0
 18 19  2  0
  9 20  1  0
 20 21  2  0
 21  6  1  0
 19 14  1  0
  1 22  1  0
  1 23  1  0
  1 24  1  0
  2 25  1  0
  2 26  1  0
  4 27  1  0
  4 28  1  0
  5 29  1  0
  5 30  1  0
  5 31  1  0
  7 32  1  0
  8 33  1  0
 10 34  1  0
 11 35  1  0
 15 36  1  0
 16 37  1  0
 17 38  1  0
 19 39  1  0
 20 40  1  0
 21 41  1  0
M  END
$$$$
