
     RDKit          3D

 57 59  0  0  0  0  0  0  0  0999 V2000
   -1.9372    1.0633   -4.6474 C   0  0  0  0  0  0  0  0  0  0  0  0
   -1.9453    0.9900   -3.1972 N   0  0  0  0  0  0  0  0  0  0  0  0
   -1.3952   -0.0295   -2.4364 C   0  0  0  0  0  0  0  0  0  0  0  0
   -0.6180   -1.3477   -3.1345 S   0  0  0  0  0  0  0  0  0  0  0  0
   -1.5842    0.1576   -1.0521 N   0  0  0  0  0  0  0  0  0  0  0  0
   -2.7171    0.9534   -0.5265 C   0  0  0  0  0  0  0  0  0  0  0  0
   -4.0899    0.3070   -0.7787 C   0  0  0  0  0  0  0  0  0  0  0  0
   -4.2956   -0.9858   -0.0255 C   0  0  0  0  0  0  0  0  0  0  0  0
   -4.1575   -2.2164   -0.6788 C   0  0  0  0  0  0  0  0  0  0  0  0
   -4.3280   -3.4098    0.0216 C   0  0  0  0  0  0  0  0  0  0  0  0
   -4.6326   -3.3855    1.3823 C   0  0  0  0  0  0  0  0  0  0  0  0
   -4.7579   -2.1666    2.0578 C   0  0  0  0  0  0  0  0  0  0  0  0
   -5.1125   -2.1374    3.5149 C   0  0  0  0  0  0  0  0  0  0  0  0
   -4.6004   -0.9712    1.3437 C   0  0  0  0  0  0  0  0  0  0  0  0
   -0.8722   -0.6492   -0.0355 C   0  0  0  0  0  0  0  0  0  0  0  0
    0.4411    0.0007    0.3115 C   0  0  0  0  0  0  0  0  0  0  0  0
    1.6143   -0.3670   -0.2369 C   0  0  0  0  0  0  0  0  0  0  0  0
    2.8709    0.2775    0.1430 C   0  0  0  0  0  0  0  0  0  0  0  0
    4.0843   -0.0808   -0.4510 C   0  0  0  0  0  0  0  0  0  0  0  0
    5.2719    0.5542   -0.0660 C   0  0  0  0  0  0  0  0  0  0  0  0
    6.5080    0.2695   -0.5929 O   0  0  0  0  0  0  0  0  0  0  0  0
    6.5827   -0.7205   -1.6088 C   0  0  0  0  0  0  0  0  0  0  0  0
    5.2411    1.5578    0.9273 C   0  0  0  0  0  0  0  0  0  0  0  0
    6.4510    2.1259    1.2438 O   0  0  0  0  0  0  0  0  0  0  0  0
    6.4709    3.1263    2.2515 C   0  0  0  0  0  0  0  0  0  0  0  0
    4.0236    1.9133    1.5180 C   0  0  0  0  0  0  0  0  0  0  0  0
    2.8499    1.2727    1.1212 C   0  0  0  0  0  0  0  0  0  0  0  0
    1.6295    1.6217    1.7091 N   0  0  0  0  0  0  0  0  0  0  0  0
    0.4305    1.0433    1.3829 C   0  0  0  0  0  0  0  0  0  0  0  0
   -0.5964    1.3777    1.9665 O   0  0  0  0  0  0  0  0  0  0  0  0
   -2.5536    1.9143   -4.9477 H   0  0  0  0  0  0  0  0  0  0  0  0
   -2.3510    0.1465   -5.0749 H   0  0  0  0  0  0  0  0  0  0  0  0
   -0.9118    1.2137   -4.9956 H   0  0  0  0  0  0  0  0  0  0  0  0
   -1.9130    1.8916   -2.7453 H   0  0  0  0  0  0  0  0  0  0  0  0
   -2.7042    1.9461   -0.9859 H   0  0  0  0  0  0  0  0  0  0  0  0
   -2.5768    1.1279    0.5441 H   0  0  0  0  0  0  0  0  0  0  0  0
   -4.8752    1.0110   -0.4745 H   0  0  0  0  0  0  0  0  0  0  0  0
   -4.2458    0.1370   -1.8507 H   0  0  0  0  0  0  0  0  0  0  0  0
   -3.9100   -2.2522   -1.7378 H   0  0  0  0  0  0  0  0  0  0  0  0
   -4.2226   -4.3601   -0.4950 H   0  0  0  0  0  0  0  0  0  0  0  0
   -4.7687   -4.3248    1.9132 H   0  0  0  0  0  0  0  0  0  0  0  0
   -6.1992   -2.0896    3.6345 H   0  0  0  0  0  0  0  0  0  0  0  0
   -4.6623   -1.2696    4.0083 H   0  0  0  0  0  0  0  0  0  0  0  0
   -4.7395   -3.0309    4.0267 H   0  0  0  0  0  0  0  0  0  0  0  0
   -4.7082   -0.0196    1.8615 H   0  0  0  0  0  0  0  0  0  0  0  0
   -1.4941   -0.7673    0.8587 H   0  0  0  0  0  0  0  0  0  0  0  0
   -0.7101   -1.6675   -0.4021 H   0  0  0  0  0  0  0  0  0  0  0  0
    1.6581   -1.1489   -0.9877 H   0  0  0  0  0  0  0  0  0  0  0  0
    4.0818   -0.8548   -1.2110 H   0  0  0  0  0  0  0  0  0  0  0  0
    6.0032   -0.4272   -2.4902 H   0  0  0  0  0  0  0  0  0  0  0  0
    6.2644   -1.6979   -1.2314 H   0  0  0  0  0  0  0  0  0  0  0  0
    7.6299   -0.8079   -1.9142 H   0  0  0  0  0  0  0  0  0  0  0  0
    5.8797    3.9984    1.9535 H   0  0  0  0  0  0  0  0  0  0  0  0
    6.1310    2.7262    3.2124 H   0  0  0  0  0  0  0  0  0  0  0  0
    7.5072    3.4549    2.3765 H   0  0  0  0  0  0  0  0  0  0  0  0
    3.9699    2.6805    2.2810 H   0  0  0  0  0  0  0  0  0  0  0  0
    1.5916    2.3255    2.4331 H   0  0  0  0  0  0  0  0  0  0  0  0
  1  2  1  0
  2  3  1  0
  3  4  2  0
  3  5  1  0
  5  6  1  0
  6  7  1  0
  7  8  1  0
  8  9  2  0
  9 10  1  0
 10 11  2  0
 11 12  1  0
 12 13  1  0
 12 14  2  0
  5 15  1  0
 15 16  1  0
 16 17  2  0
 17 18  1  0
 18 19  2  0
 19 20  1  0
 20 21  1  0
 21 22  1  0
 20 23  2  0
 23 24  1  0
 24 25  1  0
 23 26  1  0
 26 27  2  0
 27 28  1  0
 28 29  1  0
 29 30  2  0
 14  8  1  0
 29 16  1  0
 27 18  1  0
  1 31  1  0
  1 32  1  0
  1 33  1  0
  2 34  1  0
  6 35  1  0
  6 36  1  0
  7 37  1  0
  7 38  1  0
  9 39  1  0
 10 40  1  0
 11 41  1  0
 13 42  1  0
 13 43  1  0
 13 44  1  0
 14 45  1  0
 15 46  1  0
 15 47  1  0
 17 48  1  0
 19 49  1  0
 22 50  1  0
 22 51  1  0
 22 52  1  0
 25 53  1  0
 25 54  1  0
 25 55  1  0
 26 56  1  0
 28 57  1  0
M  END
$$$$
