
     RDKit          3D

 39 39  0  0  0  0  0  0  0  0999 V2000
   -2.7419    1.8465   -3.1837 C   0  0  0  0  0  0  0  0  0  0  0  0
   -2.7751    2.3931   -1.7896 C   0  0  0  0  0  0  0  0  0  0  0  0
   -3.0416    3.5520   -1.5046 O   0  0  0  0  0  0  0  0  0  0  0  0
   -2.4832    1.4064   -0.8970 O   0  0  0  0  0  0  0  0  0  0  0  0
   -2.3736    1.8568    0.4582 C   0  0  0  0  0  0  0  0  0  0  0  0
   -1.8534    0.7117    1.3254 C   0  0  0  0  0  0  0  0  0  0  0  0
   -0.4834    0.1834    0.8586 C   0  0  0  0  0  0  0  0  0  0  0  0
    0.5373    1.2276    1.0767 N   0  0  0  0  0  0  0  0  0  0  0  0
    1.5218    1.6087   -0.2190 S   0  0  0  0  0  6  0  0  0  0  0  0
    0.6854    1.9216   -1.3535 O   0  0  0  0  0  0  0  0  0  0  0  0
    2.5109    2.5378    0.2737 O   0  0  0  0  0  0  0  0  0  0  0  0
    2.2861    0.2171   -0.5336 O   0  0  0  0  0  0  0  0  0  0  0  0
    3.1475    0.1806   -1.6711 C   0  0  0  0  0  0  0  0  0  0  0  0
    2.8694   -1.0454   -2.5528 C   0  0  0  0  0  0  0  0  0  0  0  0
    3.9622   -1.0232   -3.9724 Cl  0  0  0  0  0  0  0  0  0  0  0  0
    3.1629   -2.5591   -1.6383 Cl  0  0  0  0  0  0  0  0  0  0  0  0
    1.1756   -1.0504   -3.1335 Cl  0  0  0  0  0  0  0  0  0  0  0  0
   -0.1005   -1.0946    1.5905 C   0  0  0  0  0  0  0  0  0  0  0  0
   -0.0042   -1.1427    2.9915 C   0  0  0  0  0  0  0  0  0  0  0  0
    0.3736   -2.3204    3.6393 C   0  0  0  0  0  0  0  0  0  0  0  0
    0.6628   -3.4634    2.8978 C   0  0  0  0  0  0  0  0  0  0  0  0
    0.5725   -3.4315    1.5086 C   0  0  0  0  0  0  0  0  0  0  0  0
    0.1925   -2.2560    0.8588 C   0  0  0  0  0  0  0  0  0  0  0  0
   -1.7575    1.4193   -3.3913 H   0  0  0  0  0  0  0  0  0  0  0  0
   -3.5224    1.0913   -3.3040 H   0  0  0  0  0  0  0  0  0  0  0  0
   -2.9238    2.6571   -3.8951 H   0  0  0  0  0  0  0  0  0  0  0  0
   -1.6980    2.7181    0.5192 H   0  0  0  0  0  0  0  0  0  0  0  0
   -3.3657    2.1577    0.8139 H   0  0  0  0  0  0  0  0  0  0  0  0
   -1.8108    1.0537    2.3667 H   0  0  0  0  0  0  0  0  0  0  0  0
   -2.5800   -0.1106    1.2828 H   0  0  0  0  0  0  0  0  0  0  0  0
   -0.5635   -0.0504   -0.2097 H   0  0  0  0  0  0  0  0  0  0  0  0
    1.0884    1.1198    1.9265 H   0  0  0  0  0  0  0  0  0  0  0  0
    3.0470    1.0986   -2.2651 H   0  0  0  0  0  0  0  0  0  0  0  0
    4.1776    0.1600   -1.2955 H   0  0  0  0  0  0  0  0  0  0  0  0
   -0.2225   -0.2636    3.5940 H   0  0  0  0  0  0  0  0  0  0  0  0
    0.4429   -2.3466    4.7240 H   0  0  0  0  0  0  0  0  0  0  0  0
    0.9581   -4.3798    3.4024 H   0  0  0  0  0  0  0  0  0  0  0  0
    0.7993   -4.3230    0.9286 H   0  0  0  0  0  0  0  0  0  0  0  0
    0.1274   -2.2583   -0.2274 H   0  0  0  0  0  0  0  0  0  0  0  0
  1  2  1  0
  2  3  2  0
  2  4  1  0
  4  5  1  0
  5  6  1  0
  6  7  1  0
  7  8  1  0
  8  9  1  0
  9 10  2  0
  9 11  2  0
  9 12  1  0
 12 13  1  0
 13 14  1  0
 14 15  1  0
 14 16  1  0
 14 17  1  0
  7 18  1  0
 18 19  2  0
 19 20  1  0
 20 21  2  0
 21 22  1  0
 22 23  2  0
 23 18  1  0
  1 24  1  0
  1 25  1  0
  1 26  1  0
  5 27  1  0
  5 28  1  0
  6 29  1  0
  6 30  1  0
  7 31  1  0
  8 32  1  0
 13 33  1  0
 13 34  1  0
 19 35  1  0
 20 36  1  0
 21 37  1  0
 22 38  1  0
 23 39  1  0
M  END
$$$$
