
     RDKit          3D

 56 59  0  0  0  0  0  0  0  0999 V2000
   -4.2688    4.0492   -0.5407 C   0  0  0  0  0  0  0  0  0  0  0  0
   -5.0827    3.5519    0.6417 C   0  0  0  0  0  0  0  0  0  0  0  0
   -4.1231    2.4061    1.6911 S   0  0  0  0  0  0  0  0  0  0  0  0
   -4.0428    0.9743    0.6283 C   0  0  0  0  0  0  0  0  0  0  0  0
   -5.1918    0.3073    0.2283 C   0  0  0  0  0  0  0  0  0  0  0  0
   -5.0809   -0.8125   -0.5892 C   0  0  0  0  0  0  0  0  0  0  0  0
   -3.8229   -1.2848   -1.0111 C   0  0  0  0  0  0  0  0  0  0  0  0
   -2.6347   -0.6377   -0.6181 C   0  0  0  0  0  0  0  0  0  0  0  0
   -2.7895    0.4928    0.2198 C   0  0  0  0  0  0  0  0  0  0  0  0
   -1.3526   -1.1142   -1.0247 N   0  0  0  0  0  0  0  0  0  0  0  0
   -0.1957   -0.2040   -0.8255 C   0  0  0  0  0  0  0  0  0  0  0  0
    0.4709   -0.4322    0.5398 C   0  0  0  0  0  0  0  0  0  0  0  0
    1.5095    0.6496    0.8654 C   0  0  0  0  0  0  0  0  0  0  0  0
    2.5917    0.7531   -0.1299 N   0  0  0  0  0  0  0  0  0  0  0  0
    3.3878    1.9882    0.0883 C   0  0  0  0  0  0  0  0  0  0  0  0
    4.6628    1.8559    0.9678 C   0  0  0  0  0  0  0  0  0  0  0  0
    4.5854    0.7405    1.9180 N   0  0  0  0  0  0  0  0  0  0  0  0
    5.7569    0.6764    2.7833 C   0  0  0  0  0  0  0  0  0  0  0  0
    4.3718   -0.5310    1.2020 C   0  0  0  0  0  0  0  0  0  0  0  0
    3.5098   -0.4037   -0.0840 C   0  0  0  0  0  0  0  0  0  0  0  0
   -1.1022   -2.3542   -1.6820 C   0  0  0  0  0  0  0  0  0  0  0  0
    0.2043   -2.8632   -1.8623 C   0  0  0  0  0  0  0  0  0  0  0  0
    0.4607   -4.0861   -2.4952 C   0  0  0  0  0  0  0  0  0  0  0  0
   -0.5889   -4.8513   -2.9721 C   0  0  0  0  0  0  0  0  0  0  0  0
   -1.8889   -4.3882   -2.8105 C   0  0  0  0  0  0  0  0  0  0  0  0
   -2.1509   -3.1588   -2.1720 C   0  0  0  0  0  0  0  0  0  0  0  0
   -3.8658   -2.7056   -2.0752 S   0  0  0  0  0  0  0  0  0  0  0  0
   -4.0025    3.2368   -1.2245 H   0  0  0  0  0  0  0  0  0  0  0  0
   -4.8534    4.7786   -1.1114 H   0  0  0  0  0  0  0  0  0  0  0  0
   -3.3487    4.5458   -0.2141 H   0  0  0  0  0  0  0  0  0  0  0  0
   -6.0093    3.0785    0.3027 H   0  0  0  0  0  0  0  0  0  0  0  0
   -5.3666    4.4052    1.2663 H   0  0  0  0  0  0  0  0  0  0  0  0
   -6.1750    0.6366    0.5515 H   0  0  0  0  0  0  0  0  0  0  0  0
   -5.9903   -1.3249   -0.8980 H   0  0  0  0  0  0  0  0  0  0  0  0
   -1.9242    1.0303    0.5937 H   0  0  0  0  0  0  0  0  0  0  0  0
   -0.5044    0.8440   -0.9336 H   0  0  0  0  0  0  0  0  0  0  0  0
    0.5336   -0.3109   -1.6382 H   0  0  0  0  0  0  0  0  0  0  0  0
   -0.2845   -0.4223    1.3347 H   0  0  0  0  0  0  0  0  0  0  0  0
    0.9227   -1.4280    0.5919 H   0  0  0  0  0  0  0  0  0  0  0  0
    1.8946    0.4815    1.8775 H   0  0  0  0  0  0  0  0  0  0  0  0
    0.9644    1.6024    0.9023 H   0  0  0  0  0  0  0  0  0  0  0  0
    3.7055    2.3477   -0.8989 H   0  0  0  0  0  0  0  0  0  0  0  0
    2.7527    2.7878    0.4909 H   0  0  0  0  0  0  0  0  0  0  0  0
    5.5338    1.7244    0.3112 H   0  0  0  0  0  0  0  0  0  0  0  0
    4.8053    2.8012    1.5057 H   0  0  0  0  0  0  0  0  0  0  0  0
    6.6829    0.5268    2.2166 H   0  0  0  0  0  0  0  0  0  0  0  0
    5.6573   -0.1425    3.5046 H   0  0  0  0  0  0  0  0  0  0  0  0
    5.8560    1.5994    3.3650 H   0  0  0  0  0  0  0  0  0  0  0  0
    3.8761   -1.2242    1.8921 H   0  0  0  0  0  0  0  0  0  0  0  0
    5.3281   -0.9869    0.9143 H   0  0  0  0  0  0  0  0  0  0  0  0
    2.9758   -1.3429   -0.2620 H   0  0  0  0  0  0  0  0  0  0  0  0
    4.1916   -0.3055   -0.9406 H   0  0  0  0  0  0  0  0  0  0  0  0
    1.0759   -2.3281   -1.5020 H   0  0  0  0  0  0  0  0  0  0  0  0
    1.4845   -4.4333   -2.6079 H   0  0  0  0  0  0  0  0  0  0  0  0
   -0.4016   -5.8007   -3.4652 H   0  0  0  0  0  0  0  0  0  0  0  0
   -2.7096   -4.9941   -3.1897 H   0  0  0  0  0  0  0  0  0  0  0  0
  1  2  1  0
  2  3  1  0
  3  4  1  0
  4  5  2  0
  5  6  1  0
  6  7  2  0
  7  8  1  0
  8  9  2  0
  8 10  1  0
 10 11  1  0
 11 12  1  0
 12 13  1  0
 13 14  1  0
 14 15  1  0
 15 16  1  0
 16 17  1  0
 17 18  1  0
 17 19  1  0
 19 20  1  0
 10 21  1  0
 21 22  2  0
 22 23  1  0
 23 24  2  0
 24 25  1  0
 25 26  2  0
 26 27  1  0
  9  4  1  0
 20 14  1  0
 26 21  1  0
 27  7  1  0
  1 28  1  0
  1 29  1  0
  1 30  1  0
  2 31  1  0
  2 32  1  0
  5 33  1  0
  6 34  1  0
  9 35  1  0
 11 36  1  0
 11 37  1  0
 12 38  1  0
 12 39  1  0
 13 40  1  0
 13 41  1  0
 15 42  1  0
 15 43  1  0
 16 44  1  0
 16 45  1  0
 18 46  1  0
 18 47  1  0
 18 48  1  0
 19 49  1  0
 19 50  1  0
 20 51  1  0
 20 52  1  0
 22 53  1  0
 23 54  1  0
 24 55  1  0
 25 56  1  0
M  END
$$$$
