
     RDKit          3D

 71 72  0  0  0  0  0  0  0  0999 V2000
   -3.4893   -5.6272   -1.3612 C   0  0  0  0  0  0  0  0  0  0  0  0
   -2.9359   -4.3183   -1.3574 O   0  0  0  0  0  0  0  0  0  0  0  0
   -3.1955   -3.5251   -0.2704 C   0  0  0  0  0  0  0  0  0  0  0  0
   -4.0742   -3.8578    0.7581 C   0  0  0  0  0  0  0  0  0  0  0  0
   -4.2593   -2.9867    1.8304 C   0  0  0  0  0  0  0  0  0  0  0  0
   -3.5590   -1.7788    1.8944 C   0  0  0  0  0  0  0  0  0  0  0  0
   -2.6572   -1.4084    0.8871 C   0  0  0  0  0  0  0  0  0  0  0  0
   -1.8761   -0.0924    0.8977 C   0  0  0  0  0  0  0  0  0  0  0  0
   -2.2674    1.0221    1.9038 C   0  0  0  0  0  0  0  0  0  0  0  0
   -2.6421    0.8211    3.0562 O   0  0  0  0  0  0  0  0  0  0  0  0
   -2.0747    2.2984    1.3888 N   0  0  0  0  0  0  0  0  0  0  0  0
   -2.2730    3.5554    2.1205 C   0  0  0  0  0  0  0  0  0  0  0  0
   -3.7322    3.6993    2.5787 C   0  0  0  0  0  0  0  0  0  0  0  0
   -1.9519    4.7169    1.1616 C   0  0  0  0  0  0  0  0  0  0  0  0
   -1.3257    3.6458    3.3266 C   0  0  0  0  0  0  0  0  0  0  0  0
   -0.3903   -0.2359    0.8510 N   0  0  0  0  0  0  0  0  0  0  0  0
    0.2495    0.5193   -0.1400 C   0  0  0  0  0  0  0  0  0  0  0  0
   -0.3492    1.3764   -0.7966 O   0  0  0  0  0  0  0  0  0  0  0  0
    1.7260    0.2562   -0.3739 C   0  0  0  0  0  0  0  0  0  0  0  0
    2.2051    0.8992   -1.6733 C   0  0  0  0  0  0  0  0  0  0  0  0
    3.6813    0.6456   -1.9022 C   0  0  0  0  0  0  0  0  0  0  0  0
    4.4415    0.3503   -0.9844 O   0  0  0  0  0  0  0  0  0  0  0  0
    4.0414    0.8160   -3.2199 N   0  0  0  0  0  0  0  0  0  0  0  0
    5.3061    0.6190   -3.7275 C   0  0  0  0  0  0  0  0  0  0  0  0
    6.5071    0.3105   -3.0524 C   0  0  0  0  0  0  0  0  0  0  0  0
    7.4456    0.1992   -4.0494 C   0  0  0  0  0  0  0  0  0  0  0  0
    8.8841   -0.1083   -4.0789 C   0  0  0  0  0  0  0  0  0  0  0  0
    6.8514    0.4383   -5.2477 O   0  0  0  0  0  0  0  0  0  0  0  0
    5.5086    0.6990   -5.0494 N   0  0  0  0  0  0  0  0  0  0  0  0
    0.3746   -0.7874    2.0023 C   0  0  0  0  0  0  0  0  0  0  0  0
   -0.2608   -1.9612    2.7447 C   0  0  0  0  0  0  0  0  0  0  0  0
    0.7675    0.3080    3.0032 C   0  0  0  0  0  0  0  0  0  0  0  0
   -2.5158   -2.2911   -0.2106 C   0  0  0  0  0  0  0  0  0  0  0  0
   -1.6303   -1.9435   -1.2106 O   0  0  0  0  0  0  0  0  0  0  0  0
   -2.3276   -1.5455   -2.3925 C   0  0  0  0  0  0  0  0  0  0  0  0
   -4.5826   -5.5925   -1.4110 H   0  0  0  0  0  0  0  0  0  0  0  0
   -3.1494   -6.2053   -0.4957 H   0  0  0  0  0  0  0  0  0  0  0  0
   -3.1338   -6.1363   -2.2617 H   0  0  0  0  0  0  0  0  0  0  0  0
   -4.6364   -4.7851    0.7564 H   0  0  0  0  0  0  0  0  0  0  0  0
   -4.9495   -3.2486    2.6300 H   0  0  0  0  0  0  0  0  0  0  0  0
   -3.7363   -1.1484    2.7612 H   0  0  0  0  0  0  0  0  0  0  0  0
   -2.2007    0.3368   -0.0626 H   0  0  0  0  0  0  0  0  0  0  0  0
   -1.5678    2.3448    0.5028 H   0  0  0  0  0  0  0  0  0  0  0  0
   -4.0154    2.9298    3.3021 H   0  0  0  0  0  0  0  0  0  0  0  0
   -4.4188    3.6182    1.7287 H   0  0  0  0  0  0  0  0  0  0  0  0
   -3.9037    4.6712    3.0573 H   0  0  0  0  0  0  0  0  0  0  0  0
   -2.0915    5.6889    1.6486 H   0  0  0  0  0  0  0  0  0  0  0  0
   -2.5957    4.6877    0.2751 H   0  0  0  0  0  0  0  0  0  0  0  0
   -0.9141    4.6627    0.8125 H   0  0  0  0  0  0  0  0  0  0  0  0
   -1.5327    2.8714    4.0736 H   0  0  0  0  0  0  0  0  0  0  0  0
   -1.4150    4.6158    3.8295 H   0  0  0  0  0  0  0  0  0  0  0  0
   -0.2815    3.5251    3.0138 H   0  0  0  0  0  0  0  0  0  0  0  0
    1.8935   -0.8251   -0.4359 H   0  0  0  0  0  0  0  0  0  0  0  0
    2.2951    0.6555    0.4720 H   0  0  0  0  0  0  0  0  0  0  0  0
    2.0542    1.9851   -1.6455 H   0  0  0  0  0  0  0  0  0  0  0  0
    1.6275    0.5010   -2.5174 H   0  0  0  0  0  0  0  0  0  0  0  0
    3.3463    1.0236   -3.9251 H   0  0  0  0  0  0  0  0  0  0  0  0
    6.6726    0.1778   -1.9931 H   0  0  0  0  0  0  0  0  0  0  0  0
    9.2499   -0.3682   -3.0805 H   0  0  0  0  0  0  0  0  0  0  0  0
    9.4547    0.7544   -4.4382 H   0  0  0  0  0  0  0  0  0  0  0  0
    9.0833   -0.9549   -4.7443 H   0  0  0  0  0  0  0  0  0  0  0  0
    1.3134   -1.1810    1.5989 H   0  0  0  0  0  0  0  0  0  0  0  0
   -1.1527   -1.6601    3.2995 H   0  0  0  0  0  0  0  0  0  0  0  0
   -0.5175   -2.7746    2.0608 H   0  0  0  0  0  0  0  0  0  0  0  0
    0.4446   -2.3710    3.4773 H   0  0  0  0  0  0  0  0  0  0  0  0
    1.2374    1.1630    2.5078 H   0  0  0  0  0  0  0  0  0  0  0  0
   -0.0974    0.6807    3.5560 H   0  0  0  0  0  0  0  0  0  0  0  0
    1.4803   -0.0828    3.7379 H   0  0  0  0  0  0  0  0  0  0  0  0
   -1.6596   -0.8967   -2.9682 H   0  0  0  0  0  0  0  0  0  0  0  0
   -2.5646   -2.4154   -3.0124 H   0  0  0  0  0  0  0  0  0  0  0  0
   -3.2385   -0.9757   -2.1690 H   0  0  0  0  0  0  0  0  0  0  0  0
  1  2  1  0
  2  3  1  0
  3  4  2  0
  4  5  1  0
  5  6  2  0
  6  7  1  0
  7  8  1  0
  8  9  1  0
  9 10  2  0
  9 11  1  0
 11 12  1  0
 12 13  1  0
 12 14  1  0
 12 15  1  0
  8 16  1  0
 16 17  1  0
 17 18  2  0
 17 19  1  0
 19 20  1  0
 20 21  1  0
 21 22  2  0
 21 23  1  0
 23 24  1  0
 24 25  1  0
 25 26  2  0
 26 27  1  0
 26 28  1  0
 28 29  1  0
 16 30  1  0
 30 31  1  0
 30 32  1  0
  7 33  2  0
 33 34  1  0
 34 35  1  0
 33  3  1  0
 29 24  2  0
  1 36  1  0
  1 37  1  0
  1 38  1  0
  4 39  1  0
  5 40  1  0
  6 41  1  0
  8 42  1  0
 11 43  1  0
 13 44  1  0
 13 45  1  0
 13 46  1  0
 14 47  1  0
 14 48  1  0
 14 49  1  0
 15 50  1  0
 15 51  1  0
 15 52  1  0
 19 53  1  0
 19 54  1  0
 20 55  1  0
 20 56  1  0
 23 57  1  0
 25 58  1  0
 27 59  1  0
 27 60  1  0
 27 61  1  0
 30 62  1  0
 31 63  1  0
 31 64  1  0
 31 65  1  0
 32 66  1  0
 32 67  1  0
 32 68  1  0
 35 69  1  0
 35 70  1  0
 35 71  1  0
M  END
$$$$
