
     RDKit          3D

 41 42  0  0  0  0  0  0  0  0999 V2000
    6.6243    0.7123   -1.3399 C   0  0  0  0  0  0  0  0  0  0  0  0
    5.4351    0.3705   -0.6269 O   0  0  0  0  0  0  0  0  0  0  0  0
    5.0616    1.2944    0.3014 C   0  0  0  0  0  0  0  0  0  0  0  0
    5.6698    2.3341    0.5220 O   0  0  0  0  0  0  0  0  0  0  0  0
    3.8823    0.8546    1.0261 C   0  0  0  0  0  0  0  0  0  0  0  0
    3.4837    1.3438    2.2607 C   0  0  0  0  0  0  0  0  0  0  0  0
    2.3597    0.6126    2.6838 C   0  0  0  0  0  0  0  0  0  0  0  0
    2.0444   -0.3142    1.7015 C   0  0  0  0  0  0  0  0  0  0  0  0
    0.7650   -1.5544    1.7050 S   0  0  0  0  0  6  0  0  0  0  0  0
    0.4154   -1.7383    3.0936 O   0  0  0  0  0  0  0  0  0  0  0  0
    1.2515   -2.6337    0.8779 O   0  0  0  0  0  0  0  0  0  0  0  0
   -0.5460   -0.8672    0.9067 N   0  0  0  0  0  0  0  0  0  0  0  0
   -1.8115   -1.5917    1.1233 C   0  0  0  0  0  0  0  0  0  0  0  0
   -2.9050   -1.0098    0.2605 C   0  0  0  0  0  0  0  0  0  0  0  0
   -3.3893   -1.7053   -0.8531 C   0  0  0  0  0  0  0  0  0  0  0  0
   -4.3872   -1.1439   -1.6539 C   0  0  0  0  0  0  0  0  0  0  0  0
   -4.9140    0.1164   -1.3619 C   0  0  0  0  0  0  0  0  0  0  0  0
   -5.8821    0.5452   -2.2273 O   0  0  0  0  0  0  0  0  0  0  0  0
   -6.4750    1.8083   -1.9530 C   0  0  0  0  0  0  0  0  0  0  0  0
   -4.4301    0.8170   -0.2578 C   0  0  0  0  0  0  0  0  0  0  0  0
   -3.4306    0.2580    0.5463 C   0  0  0  0  0  0  0  0  0  0  0  0
    2.9329   -0.0922    0.6570 N   0  0  0  0  0  0  0  0  0  0  0  0
    2.8543   -0.7180   -0.6495 C   0  0  0  0  0  0  0  0  0  0  0  0
    6.8346   -0.0913   -2.0510 H   0  0  0  0  0  0  0  0  0  0  0  0
    6.4819    1.6415   -1.9006 H   0  0  0  0  0  0  0  0  0  0  0  0
    7.4727    0.7974   -0.6536 H   0  0  0  0  0  0  0  0  0  0  0  0
    3.9960    2.1228    2.8142 H   0  0  0  0  0  0  0  0  0  0  0  0
    1.8317    0.7142    3.6247 H   0  0  0  0  0  0  0  0  0  0  0  0
   -0.3480   -0.7742   -0.0882 H   0  0  0  0  0  0  0  0  0  0  0  0
   -1.6796   -2.6525    0.8797 H   0  0  0  0  0  0  0  0  0  0  0  0
   -2.1148   -1.5217    2.1740 H   0  0  0  0  0  0  0  0  0  0  0  0
   -2.9995   -2.6882   -1.1085 H   0  0  0  0  0  0  0  0  0  0  0  0
   -4.7599   -1.6942   -2.5147 H   0  0  0  0  0  0  0  0  0  0  0  0
   -5.7348    2.6130   -2.0138 H   0  0  0  0  0  0  0  0  0  0  0  0
   -6.9784    1.8060   -0.9805 H   0  0  0  0  0  0  0  0  0  0  0  0
   -7.2332    1.9952   -2.7196 H   0  0  0  0  0  0  0  0  0  0  0  0
   -4.8042    1.8006    0.0055 H   0  0  0  0  0  0  0  0  0  0  0  0
   -3.0570    0.8210    1.4002 H   0  0  0  0  0  0  0  0  0  0  0  0
    3.1916   -0.0120   -1.4120 H   0  0  0  0  0  0  0  0  0  0  0  0
    3.4745   -1.6169   -0.6394 H   0  0  0  0  0  0  0  0  0  0  0  0
    1.8174   -0.9591   -0.8868 H   0  0  0  0  0  0  0  0  0  0  0  0
  1  2  1  0
  2  3  1  0
  3  4  2  0
  3  5  1  0
  5  6  2  0
  6  7  1  0
  7  8  2  0
  8  9  1  0
  9 10  2  0
  9 11  2  0
  9 12  1  0
 12 13  1  0
 13 14  1  0
 14 15  2  0
 15 16  1  0
 16 17  2  0
 17 18  1  0
 18 19  1  0
 17 20  1  0
 20 21  2  0
  8 22  1  0
 22 23  1  0
 22  5  1  0
 21 14  1  0
  1 24  1  0
  1 25  1  0
  1 26  1  0
  6 27  1  0
  7 28  1  0
 12 29  1  0
 13 30  1  0
 13 31  1  0
 15 32  1  0
 16 33  1  0
 19 34  1  0
 19 35  1  0
 19 36  1  0
 20 37  1  0
 21 38  1  0
 23 39  1  0
 23 40  1  0
 23 41  1  0
M  END
$$$$
