
     RDKit          3D

 39 41  0  0  0  0  0  0  0  0999 V2000
    4.3059   -1.0661   -0.9465 C   0  0  0  0  0  0  0  0  0  0  0  0
    3.3893   -0.3892   -0.0253 N   0  0  0  0  0  0  0  0  0  0  0  0
    4.1458    0.1904    1.0865 C   0  0  0  0  0  0  0  0  0  0  0  0
    2.6056    0.6308   -0.7512 C   0  0  0  0  0  0  0  0  0  0  0  0
    1.4356    1.2434    0.0449 C   0  0  0  0  0  0  0  0  0  0  0  0
    0.4408    0.2139    0.5218 C   0  0  0  0  0  0  0  0  0  0  0  0
   -0.8584    0.0439    0.1856 C   0  0  0  0  0  0  0  0  0  0  0  0
   -1.5644    0.9149   -0.7895 C   0  0  0  0  0  0  0  0  0  0  0  0
   -1.0534    1.1652   -2.0718 C   0  0  0  0  0  0  0  0  0  0  0  0
   -1.7491    1.9762   -2.9709 C   0  0  0  0  0  0  0  0  0  0  0  0
   -2.9747    2.5277   -2.6074 C   0  0  0  0  0  0  0  0  0  0  0  0
   -3.5183    2.2499   -1.3530 C   0  0  0  0  0  0  0  0  0  0  0  0
   -2.8302    1.4301   -0.4487 C   0  0  0  0  0  0  0  0  0  0  0  0
   -3.6230    1.0393    1.1124 S   0  0  0  0  0  0  0  0  0  0  0  0
   -2.9213   -0.5779    1.4451 C   0  0  0  0  0  0  0  0  0  0  0  0
   -3.6772   -1.4867    2.1973 C   0  0  0  0  0  0  0  0  0  0  0  0
   -3.1801   -2.7633    2.4666 C   0  0  0  0  0  0  0  0  0  0  0  0
   -1.9284   -3.1344    1.9815 C   0  0  0  0  0  0  0  0  0  0  0  0
   -1.3258   -4.7143    2.3013 Cl  0  0  0  0  0  0  0  0  0  0  0  0
   -1.1614   -2.2387    1.2380 C   0  0  0  0  0  0  0  0  0  0  0  0
   -1.6428   -0.9454    0.9779 C   0  0  0  0  0  0  0  0  0  0  0  0
    4.8615   -1.8552   -0.4275 H   0  0  0  0  0  0  0  0  0  0  0  0
    3.7496   -1.5574   -1.7527 H   0  0  0  0  0  0  0  0  0  0  0  0
    5.0269   -0.3734   -1.3956 H   0  0  0  0  0  0  0  0  0  0  0  0
    3.4784    0.6033    1.8490 H   0  0  0  0  0  0  0  0  0  0  0  0
    4.8278    0.9815    0.7545 H   0  0  0  0  0  0  0  0  0  0  0  0
    4.7379   -0.5817    1.5914 H   0  0  0  0  0  0  0  0  0  0  0  0
    3.2624    1.4408   -1.0953 H   0  0  0  0  0  0  0  0  0  0  0  0
    2.1793    0.1721   -1.6533 H   0  0  0  0  0  0  0  0  0  0  0  0
    1.8169    1.7794    0.9222 H   0  0  0  0  0  0  0  0  0  0  0  0
    0.9613    2.0158   -0.5674 H   0  0  0  0  0  0  0  0  0  0  0  0
    0.8691   -0.4245    1.2962 H   0  0  0  0  0  0  0  0  0  0  0  0
   -0.1136    0.7194   -2.3857 H   0  0  0  0  0  0  0  0  0  0  0  0
   -1.3367    2.1700   -3.9579 H   0  0  0  0  0  0  0  0  0  0  0  0
   -3.5177    3.1584   -3.3067 H   0  0  0  0  0  0  0  0  0  0  0  0
   -4.4896    2.6637   -1.0922 H   0  0  0  0  0  0  0  0  0  0  0  0
   -4.6600   -1.2093    2.5720 H   0  0  0  0  0  0  0  0  0  0  0  0
   -3.7761   -3.4623    3.0474 H   0  0  0  0  0  0  0  0  0  0  0  0
   -0.1921   -2.5502    0.8557 H   0  0  0  0  0  0  0  0  0  0  0  0
  1  2  1  0
  2  3  1  0
  2  4  1  0
  4  5  1  0
  5  6  1  0
  6  7  2  3
  7  8  1  0
  8  9  2  0
  9 10  1  0
 10 11  2  0
 11 12  1  0
 12 13  2  0
 13 14  1  0
 14 15  1  0
 15 16  2  0
 16 17  1  0
 17 18  2  0
 18 19  1  0
 18 20  1  0
 20 21  2  0
 21  7  1  0
 13  8  1  0
 21 15  1  0
  1 22  1  0
  1 23  1  0
  1 24  1  0
  3 25  1  0
  3 26  1  0
  3 27  1  0
  4 28  1  0
  4 29  1  0
  5 30  1  0
  5 31  1  0
  6 32  1  0
  9 33  1  0
 10 34  1  0
 11 35  1  0
 12 36  1  0
 16 37  1  0
 17 38  1  0
 20 39  1  0
M  END
$$$$
