
     RDKit          3D

 41 44  0  0  0  0  0  0  0  0999 V2000
    5.5081    2.3689    0.4648 C   0  0  0  0  0  0  0  0  0  0  0  0
    4.4268    1.3342    0.3917 C   0  0  0  0  0  0  0  0  0  0  0  0
    4.7403   -0.0186    0.2826 C   0  0  0  0  0  0  0  0  0  0  0  0
    3.7254   -0.9817    0.1823 C   0  0  0  0  0  0  0  0  0  0  0  0
    2.3645   -0.6331    0.1768 C   0  0  0  0  0  0  0  0  0  0  0  0
    1.3616   -1.6386    0.0757 N   0  0  0  0  0  0  0  0  0  0  0  0
    1.5645   -3.0505   -0.0252 C   0  0  0  0  0  0  0  0  0  0  0  0
    2.5929   -3.7064   -0.0493 O   0  0  0  0  0  0  0  0  0  0  0  0
    0.2919   -3.6328   -0.0994 N   0  0  0  0  0  0  0  0  0  0  0  0
   -0.6594   -2.6281   -0.0462 C   0  0  0  0  0  0  0  0  0  0  0  0
   -2.0239   -2.6469   -0.0789 C   0  0  0  0  0  0  0  0  0  0  0  0
   -2.7689   -3.9319   -0.1918 C   0  0  0  0  0  0  0  0  0  0  0  0
   -4.1333   -3.8269   -0.2152 N   0  0  0  0  0  0  0  0  0  0  0  0
   -2.2032   -5.0158   -0.2595 O   0  0  0  0  0  0  0  0  0  0  0  0
   -2.7628   -1.5114   -0.0102 N   0  0  0  0  0  0  0  0  0  0  0  0
   -2.0561   -0.3634    0.0925 C   0  0  0  0  0  0  0  0  0  0  0  0
   -2.8338    0.8647    0.1668 C   0  0  0  0  0  0  0  0  0  0  0  0
   -4.1885    1.1406    0.1591 C   0  0  0  0  0  0  0  0  0  0  0  0
   -4.3216    2.5471    0.2597 C   0  0  0  0  0  0  0  0  0  0  0  0
   -3.0417    3.0515    0.3234 C   0  0  0  0  0  0  0  0  0  0  0  0
   -2.4875    4.4150    0.4350 C   0  0  0  0  0  0  0  0  0  0  0  0
   -2.1346    2.0376    0.2674 O   0  0  0  0  0  0  0  0  0  0  0  0
   -0.7126   -0.2561    0.1317 N   0  0  0  0  0  0  0  0  0  0  0  0
   -0.0387   -1.4059    0.0603 C   0  0  0  0  0  0  0  0  0  0  0  0
    2.0728    0.7364    0.2723 C   0  0  0  0  0  0  0  0  0  0  0  0
    3.0838    1.7050    0.3724 C   0  0  0  0  0  0  0  0  0  0  0  0
    5.7908    2.6872   -0.5434 H   0  0  0  0  0  0  0  0  0  0  0  0
    5.1738    3.2443    1.0314 H   0  0  0  0  0  0  0  0  0  0  0  0
    6.3940    1.9730    0.9725 H   0  0  0  0  0  0  0  0  0  0  0  0
    5.7781   -0.3451    0.2750 H   0  0  0  0  0  0  0  0  0  0  0  0
    4.0507   -2.0147    0.1063 H   0  0  0  0  0  0  0  0  0  0  0  0
    0.1061   -4.6260   -0.1776 H   0  0  0  0  0  0  0  0  0  0  0  0
   -4.5825   -2.9206   -0.1574 H   0  0  0  0  0  0  0  0  0  0  0  0
   -4.6938   -4.6647   -0.2892 H   0  0  0  0  0  0  0  0  0  0  0  0
   -4.9811    0.4090    0.0891 H   0  0  0  0  0  0  0  0  0  0  0  0
   -5.2366    3.1228    0.2829 H   0  0  0  0  0  0  0  0  0  0  0  0
   -1.8839    4.5097    1.3427 H   0  0  0  0  0  0  0  0  0  0  0  0
   -3.2867    5.1613    0.4773 H   0  0  0  0  0  0  0  0  0  0  0  0
   -1.8537    4.6423   -0.4277 H   0  0  0  0  0  0  0  0  0  0  0  0
    1.0572    1.1146    0.2715 H   0  0  0  0  0  0  0  0  0  0  0  0
    2.8018    2.7538    0.4367 H   0  0  0  0  0  0  0  0  0  0  0  0
  1  2  1  0
  2  3  2  0
  3  4  1  0
  4  5  2  0
  5  6  1  0
  6  7  1  0
  7  8  2  0
  7  9  1  0
  9 10  1  0
 10 11  2  0
 11 12  1  0
 12 13  1  0
 12 14  2  0
 11 15  1  0
 15 16  2  0
 16 17  1  0
 17 18  2  0
 18 19  1  0
 19 20  2  0
 20 21  1  0
 20 22  1  0
 16 23  1  0
 23 24  2  0
  5 25  1  0
 25 26  2  0
 26  2  1  0
 24  6  1  0
 24 10  1  0
 22 17  1  0
  1 27  1  0
  1 28  1  0
  1 29  1  0
  3 30  1  0
  4 31  1  0
  9 32  1  0
 13 33  1  0
 13 34  1  0
 18 35  1  0
 19 36  1  0
 21 37  1  0
 21 38  1  0
 21 39  1  0
 25 40  1  0
 26 41  1  0
M  END
$$$$
