
     RDKit          3D

 58 61  0  0  0  0  0  0  0  0999 V2000
   -3.9991    5.8852   -0.4601 C   0  0  0  0  0  0  0  0  0  0  0  0
   -3.1142    4.7729   -0.4958 O   0  0  0  0  0  0  0  0  0  0  0  0
   -3.5383    3.6230    0.1127 C   0  0  0  0  0  0  0  0  0  0  0  0
   -4.7663    3.4315    0.7311 C   0  0  0  0  0  0  0  0  0  0  0  0
   -5.0840    2.2026    1.3211 C   0  0  0  0  0  0  0  0  0  0  0  0
   -4.1439    1.1550    1.2803 C   0  0  0  0  0  0  0  0  0  0  0  0
   -4.3288   -0.4217    1.9367 S   0  0  0  0  0  0  0  0  0  0  0  0
   -2.7747   -0.9120    1.4210 C   0  0  0  0  0  0  0  0  0  0  0  0
   -2.3493   -2.2892    1.7048 C   0  0  0  0  0  0  0  0  0  0  0  0
   -2.5184   -3.2633    0.7070 C   0  0  0  0  0  0  0  0  0  0  0  0
   -2.1202   -4.5803    0.9277 C   0  0  0  0  0  0  0  0  0  0  0  0
   -1.5476   -4.9337    2.1457 C   0  0  0  0  0  0  0  0  0  0  0  0
   -1.3688   -3.9732    3.1459 C   0  0  0  0  0  0  0  0  0  0  0  0
   -1.7639   -2.6464    2.9372 C   0  0  0  0  0  0  0  0  0  0  0  0
   -1.6126   -1.6386    3.8566 O   0  0  0  0  0  0  0  0  0  0  0  0
   -1.0423   -1.9740    5.1135 C   0  0  0  0  0  0  0  0  0  0  0  0
   -2.1130    0.1028    0.7494 C   0  0  0  0  0  0  0  0  0  0  0  0
   -0.7763   -0.0883    0.1979 C   0  0  0  0  0  0  0  0  0  0  0  0
    0.3318   -0.1908    1.0424 C   0  0  0  0  0  0  0  0  0  0  0  0
    1.6071   -0.3686    0.5013 C   0  0  0  0  0  0  0  0  0  0  0  0
    1.7923   -0.4388   -0.8819 C   0  0  0  0  0  0  0  0  0  0  0  0
    3.0898   -0.6168   -1.2736 O   0  0  0  0  0  0  0  0  0  0  0  0
    3.3561   -0.6075   -2.6767 C   0  0  0  0  0  0  0  0  0  0  0  0
    4.8685   -0.7866   -2.9185 C   0  0  0  0  0  0  0  0  0  0  0  0
    5.7346    0.2919   -2.3964 N   0  0  0  0  0  0  0  0  0  0  0  0
    5.4819    1.5757   -3.0484 C   0  0  0  0  0  0  0  0  0  0  0  0
    7.1434   -0.0782   -2.5436 C   0  0  0  0  0  0  0  0  0  0  0  0
    0.6858   -0.3326   -1.7255 C   0  0  0  0  0  0  0  0  0  0  0  0
   -0.5943   -0.1562   -1.1874 C   0  0  0  0  0  0  0  0  0  0  0  0
   -2.9020    1.3119    0.6638 C   0  0  0  0  0  0  0  0  0  0  0  0
   -2.6127    2.5731    0.0794 C   0  0  0  0  0  0  0  0  0  0  0  0
   -4.9280    5.6674   -0.9974 H   0  0  0  0  0  0  0  0  0  0  0  0
   -4.2012    6.1969    0.5701 H   0  0  0  0  0  0  0  0  0  0  0  0
   -3.5079    6.7196   -0.9698 H   0  0  0  0  0  0  0  0  0  0  0  0
   -5.5115    4.2189    0.7782 H   0  0  0  0  0  0  0  0  0  0  0  0
   -6.0459    2.0603    1.8059 H   0  0  0  0  0  0  0  0  0  0  0  0
   -2.9618   -2.9928   -0.2486 H   0  0  0  0  0  0  0  0  0  0  0  0
   -2.2546   -5.3268    0.1496 H   0  0  0  0  0  0  0  0  0  0  0  0
   -1.2341   -5.9602    2.3192 H   0  0  0  0  0  0  0  0  0  0  0  0
   -0.9128   -4.2943    4.0762 H   0  0  0  0  0  0  0  0  0  0  0  0
   -1.0096   -1.0631    5.7191 H   0  0  0  0  0  0  0  0  0  0  0  0
   -1.6600   -2.7047    5.6460 H   0  0  0  0  0  0  0  0  0  0  0  0
   -0.0142   -2.3322    4.9972 H   0  0  0  0  0  0  0  0  0  0  0  0
    0.2108   -0.1341    2.1216 H   0  0  0  0  0  0  0  0  0  0  0  0
    2.4658   -0.4496    1.1633 H   0  0  0  0  0  0  0  0  0  0  0  0
    2.9998    0.3213   -3.1355 H   0  0  0  0  0  0  0  0  0  0  0  0
    2.8408   -1.4546   -3.1465 H   0  0  0  0  0  0  0  0  0  0  0  0
    5.0393   -0.9179   -3.9948 H   0  0  0  0  0  0  0  0  0  0  0  0
    5.1594   -1.7232   -2.4248 H   0  0  0  0  0  0  0  0  0  0  0  0
    4.4735    1.9401   -2.8299 H   0  0  0  0  0  0  0  0  0  0  0  0
    5.6058    1.5179   -4.1357 H   0  0  0  0  0  0  0  0  0  0  0  0
    6.1659    2.3429   -2.6671 H   0  0  0  0  0  0  0  0  0  0  0  0
    7.3573   -1.0084   -2.0054 H   0  0  0  0  0  0  0  0  0  0  0  0
    7.4271   -0.2131   -3.5937 H   0  0  0  0  0  0  0  0  0  0  0  0
    7.7920    0.6893   -2.1065 H   0  0  0  0  0  0  0  0  0  0  0  0
    0.7807   -0.3850   -2.8043 H   0  0  0  0  0  0  0  0  0  0  0  0
   -1.4480   -0.0754   -1.8564 H   0  0  0  0  0  0  0  0  0  0  0  0
   -1.6494    2.7320   -0.4007 H   0  0  0  0  0  0  0  0  0  0  0  0
  1  2  1  0
  2  3  1  0
  3  4  2  0
  4  5  1  0
  5  6  2  0
  6  7  1  0
  7  8  1  0
  8  9  1  0
  9 10  2  0
 10 11  1  0
 11 12  2  0
 12 13  1  0
 13 14  2  0
 14 15  1  0
 15 16  1  0
  8 17  2  0
 17 18  1  0
 18 19  2  0
 19 20  1  0
 20 21  2  0
 21 22  1  0
 22 23  1  0
 23 24  1  0
 24 25  1  0
 25 26  1  0
 25 27  1  0
 21 28  1  0
 28 29  2  0
 17 30  1  0
 30 31  2  0
 31  3  1  0
 30  6  1  0
 14  9  1  0
 29 18  1  0
  1 32  1  0
  1 33  1  0
  1 34  1  0
  4 35  1  0
  5 36  1  0
 10 37  1  0
 11 38  1  0
 12 39  1  0
 13 40  1  0
 16 41  1  0
 16 42  1  0
 16 43  1  0
 19 44  1  0
 20 45  1  0
 23 46  1  0
 23 47  1  0
 24 48  1  0
 24 49  1  0
 26 50  1  0
 26 51  1  0
 26 52  1  0
 27 53  1  0
 27 54  1  0
 27 55  1  0
 28 56  1  0
 29 57  1  0
 31 58  1  0
M  END
$$$$
