
     RDKit          3D

 57 61  0  0  0  0  0  0  0  0999 V2000
   -5.7310   -1.6900   -2.6246 C   0  0  0  0  0  0  0  0  0  0  0  0
   -4.7981   -1.3329   -1.4661 C   0  0  0  0  0  0  0  0  0  0  0  0
   -5.2853   -1.9985   -0.1801 C   0  0  0  0  0  0  0  0  0  0  0  0
   -3.3674   -1.7858   -1.7701 C   0  0  0  0  0  0  0  0  0  0  0  0
   -3.1631   -2.7706   -2.4830 O   0  0  0  0  0  0  0  0  0  0  0  0
   -2.3198   -1.0852   -1.1756 N   0  0  0  0  0  0  0  0  0  0  0  0
   -0.9510   -1.5018   -1.4689 C   0  0  0  0  0  0  0  0  0  0  0  0
   -0.0277   -0.3087   -1.7016 C   0  0  0  0  0  0  0  0  0  0  0  0
   -0.0272    0.7206   -0.5301 C   0  0  0  0  0  0  0  0  0  0  0  0
   -1.2218    0.4563    0.4216 C   0  0  0  0  0  0  0  0  0  0  0  0
   -2.4857    0.1169   -0.3629 C   0  0  0  0  0  0  0  0  0  0  0  0
   -0.2697    1.9938   -1.1987 O   0  0  0  0  0  0  0  0  0  0  0  0
    0.0717    3.1402   -0.5431 C   0  0  0  0  0  0  0  0  0  0  0  0
   -0.3856    4.3307   -1.1104 C   0  0  0  0  0  0  0  0  0  0  0  0
   -0.1097    5.5507   -0.4901 C   0  0  0  0  0  0  0  0  0  0  0  0
    0.6232    5.5716    0.6928 C   0  0  0  0  0  0  0  0  0  0  0  0
    0.8790    6.7437    1.2870 F   0  0  0  0  0  0  0  0  0  0  0  0
    1.0945    4.3972    1.2639 C   0  0  0  0  0  0  0  0  0  0  0  0
    0.8232    3.1834    0.6287 C   0  0  0  0  0  0  0  0  0  0  0  0
    1.3196    1.9194    1.1865 C   0  0  0  0  0  0  0  0  0  0  0  0
    1.6672    1.8634    2.3626 O   0  0  0  0  0  0  0  0  0  0  0  0
    1.3336    0.7387    0.2240 C   0  0  0  0  0  0  0  0  0  0  0  0
    1.7049   -0.5559    0.9296 C   0  0  0  0  0  0  0  0  0  0  0  0
    3.1735   -0.5448    0.6684 C   0  0  0  0  0  0  0  0  0  0  0  0
    4.1085   -1.4436    1.3850 C   0  0  0  0  0  0  0  0  0  0  0  0
    5.4830   -1.3214    1.1448 C   0  0  0  0  0  0  0  0  0  0  0  0
    6.3896   -2.1562    1.8007 C   0  0  0  0  0  0  0  0  0  0  0  0
    5.9281   -3.1175    2.6978 C   0  0  0  0  0  0  0  0  0  0  0  0
    4.5610   -3.2460    2.9397 C   0  0  0  0  0  0  0  0  0  0  0  0
    3.6500   -2.4122    2.2852 C   0  0  0  0  0  0  0  0  0  0  0  0
    3.5515    0.2821   -0.2544 N   0  0  0  0  0  0  0  0  0  0  0  0
    2.4049    0.9700   -0.7071 O   0  0  0  0  0  0  0  0  0  0  0  0
   -6.7423   -1.3136   -2.4379 H   0  0  0  0  0  0  0  0  0  0  0  0
   -5.3724   -1.2477   -3.5605 H   0  0  0  0  0  0  0  0  0  0  0  0
   -5.7962   -2.7735   -2.7737 H   0  0  0  0  0  0  0  0  0  0  0  0
   -4.8259   -0.2445   -1.3555 H   0  0  0  0  0  0  0  0  0  0  0  0
   -5.3239   -3.0882   -0.2914 H   0  0  0  0  0  0  0  0  0  0  0  0
   -6.2897   -1.6491    0.0808 H   0  0  0  0  0  0  0  0  0  0  0  0
   -4.6245   -1.7876    0.6656 H   0  0  0  0  0  0  0  0  0  0  0  0
   -0.9197   -2.1548   -2.3473 H   0  0  0  0  0  0  0  0  0  0  0  0
   -0.6103   -2.1013   -0.6178 H   0  0  0  0  0  0  0  0  0  0  0  0
   -0.3437    0.1852   -2.6310 H   0  0  0  0  0  0  0  0  0  0  0  0
    0.9806   -0.6876   -1.9026 H   0  0  0  0  0  0  0  0  0  0  0  0
   -1.4345    1.3342    1.0421 H   0  0  0  0  0  0  0  0  0  0  0  0
   -0.9966   -0.3718    1.1044 H   0  0  0  0  0  0  0  0  0  0  0  0
   -2.7592    0.9368   -1.0373 H   0  0  0  0  0  0  0  0  0  0  0  0
   -3.3137   -0.0223    0.3361 H   0  0  0  0  0  0  0  0  0  0  0  0
   -0.9608    4.3095   -2.0331 H   0  0  0  0  0  0  0  0  0  0  0  0
   -0.4616    6.4837   -0.9204 H   0  0  0  0  0  0  0  0  0  0  0  0
    1.6729    4.4368    2.1821 H   0  0  0  0  0  0  0  0  0  0  0  0
    1.4609   -0.5716    1.9940 H   0  0  0  0  0  0  0  0  0  0  0  0
    1.2918   -1.4455    0.4484 H   0  0  0  0  0  0  0  0  0  0  0  0
    5.8576   -0.5744    0.4476 H   0  0  0  0  0  0  0  0  0  0  0  0
    7.4552   -2.0541    1.6107 H   0  0  0  0  0  0  0  0  0  0  0  0
    6.6349   -3.7668    3.2088 H   0  0  0  0  0  0  0  0  0  0  0  0
    4.2044   -3.9975    3.6402 H   0  0  0  0  0  0  0  0  0  0  0  0
    2.5929   -2.5417    2.4942 H   0  0  0  0  0  0  0  0  0  0  0  0
  1  2  1  0
  2  3  1  0
  2  4  1  0
  4  5  2  0
  4  6  1  0
  6  7  1  0
  7  8  1  0
  8  9  1  0
  9 10  1  0
 10 11  1  0
  9 12  1  0
 12 13  1  0
 13 14  2  0
 14 15  1  0
 15 16  2  0
 16 17  1  0
 16 18  1  0
 18 19  2  0
 19 20  1  0
 20 21  2  0
 20 22  1  0
 22 23  1  0
 23 24  1  0
 24 25  1  0
 25 26  2  0
 26 27  1  0
 27 28  2  0
 28 29  1  0
 29 30  2  0
 24 31  2  0
 31 32  1  0
 11  6  1  0
 19 13  1  0
 32 22  1  0
 22  9  1  0
 30 25  1  0
  1 33  1  0
  1 34  1  0
  1 35  1  0
  2 36  1  0
  3 37  1  0
  3 38  1  0
  3 39  1  0
  7 40  1  0
  7 41  1  0
  8 42  1  0
  8 43  1  0
 10 44  1  0
 10 45  1  0
 11 46  1  0
 11 47  1  0
 14 48  1  0
 15 49  1  0
 18 50  1  0
 23 51  1  0
 23 52  1  0
 26 53  1  0
 27 54  1  0
 28 55  1  0
 29 56  1  0
 30 57  1  0
M  END
$$$$
