
     RDKit          3D

 27 27  0  0  0  0  0  0  0  0999 V2000
   -2.0437    0.8063    0.6354 C   0  0  0  0  0  0  0  0  0  0  0  0
   -1.3795    0.2346   -0.6258 C   0  0  0  0  0  0  0  0  0  0  0  0
   -1.3743   -1.2940   -0.5506 C   0  0  0  0  0  0  0  0  0  0  0  0
   -2.1978    0.6674   -1.8561 C   0  0  0  0  0  0  0  0  0  0  0  0
    0.3031    0.9009   -0.8240 S   0  0  0  0  0  6  0  0  0  0  0  0
    0.2471    2.3486   -0.7403 O   0  0  0  0  0  0  0  0  0  0  0  0
    0.9906    0.2555   -1.9219 O   0  0  0  0  0  0  0  0  0  0  0  0
    1.2138    0.4582    0.5934 C   0  0  0  0  0  0  0  0  0  0  0  0
    1.2323    1.2731    1.7734 C   0  0  0  0  0  0  0  0  0  0  0  0
    2.0656    0.7669    2.7435 C   0  0  0  0  0  0  0  0  0  0  0  0
    2.8371   -0.6675    2.2346 S   0  0  0  0  0  0  0  0  0  0  0  0
    2.0609   -0.6311    0.7005 C   0  0  0  0  0  0  0  0  0  0  0  0
    2.3185   -1.6935   -0.2383 C   0  0  0  0  0  0  0  0  0  0  0  0
    1.4991   -2.3649   -0.8458 O   0  0  0  0  0  0  0  0  0  0  0  0
    3.6401   -1.9257   -0.3937 O   0  0  0  0  0  0  0  0  0  0  0  0
   -2.0390    1.9015    0.6325 H   0  0  0  0  0  0  0  0  0  0  0  0
   -3.0872    0.4802    0.7114 H   0  0  0  0  0  0  0  0  0  0  0  0
   -1.5356    0.4742    1.5458 H   0  0  0  0  0  0  0  0  0  0  0  0
   -0.9309   -1.7354   -1.4490 H   0  0  0  0  0  0  0  0  0  0  0  0
   -0.8165   -1.6532    0.3195 H   0  0  0  0  0  0  0  0  0  0  0  0
   -2.3943   -1.6867   -0.4653 H   0  0  0  0  0  0  0  0  0  0  0  0
   -3.2256    0.2918   -1.8025 H   0  0  0  0  0  0  0  0  0  0  0  0
   -2.2458    1.7590   -1.9383 H   0  0  0  0  0  0  0  0  0  0  0  0
   -1.7516    0.2892   -2.7827 H   0  0  0  0  0  0  0  0  0  0  0  0
    0.6756    2.1965    1.8940 H   0  0  0  0  0  0  0  0  0  0  0  0
    2.2709    1.1789    3.7228 H   0  0  0  0  0  0  0  0  0  0  0  0
    3.6672   -2.6307   -1.0722 H   0  0  0  0  0  0  0  0  0  0  0  0
  1  2  1  0
  2  3  1  0
  2  4  1  0
  2  5  1  0
  5  6  2  0
  5  7  2  0
  5  8  1  0
  8  9  1  0
  9 10  2  0
 10 11  1  0
 11 12  1  0
 12 13  1  0
 13 14  2  0
 13 15  1  0
 12  8  2  0
  1 16  1  0
  1 17  1  0
  1 18  1  0
  3 19  1  0
  3 20  1  0
  3 21  1  0
  4 22  1  0
  4 23  1  0
  4 24  1  0
  9 25  1  0
 10 26  1  0
 15 27  1  0
M  END
$$$$
