
     RDKit          3D

 57 59  0  0  0  0  0  0  0  0999 V2000
    8.5887   -3.8092   -2.7783 C   0  0  0  0  0  0  0  0  0  0  0  0
    7.6822   -4.2834   -1.7909 O   0  0  0  0  0  0  0  0  0  0  0  0
    7.1516   -3.3524   -0.9409 C   0  0  0  0  0  0  0  0  0  0  0  0
    6.2520   -3.8636   -0.0033 C   0  0  0  0  0  0  0  0  0  0  0  0
    5.6349   -3.0227    0.9256 C   0  0  0  0  0  0  0  0  0  0  0  0
    5.9167   -1.6513    0.9359 C   0  0  0  0  0  0  0  0  0  0  0  0
    5.2307   -0.7400    1.9194 C   0  0  0  0  0  0  0  0  0  0  0  0
    3.9691   -0.2825    1.4000 N   0  0  0  0  0  0  0  0  0  0  0  0
    2.7820   -0.9098    1.6919 C   0  0  0  0  0  0  0  0  0  0  0  0
    2.6127   -1.8045    2.5083 O   0  0  0  0  0  0  0  0  0  0  0  0
    1.5900   -0.3825    0.8605 C   0  0  0  0  0  0  0  0  0  0  0  0
    1.7425    0.5526    0.0877 O   0  0  0  0  0  0  0  0  0  0  0  0
    0.4090   -1.0437    1.1009 N   0  0  0  0  0  0  0  0  0  0  0  0
   -0.8516   -0.5798    0.5472 C   0  0  0  0  0  0  0  0  0  0  0  0
   -1.3620    0.7293    1.1881 C   0  0  0  0  0  0  0  0  0  0  0  0
   -1.4628    0.5342    2.6216 O   0  0  0  0  0  0  0  0  0  0  0  0
   -2.8465    0.6062    2.9705 C   0  0  0  0  0  0  0  0  0  0  0  0
   -3.4628    1.4846    1.9089 C   0  0  0  0  0  0  0  0  0  0  0  0
   -2.7270    1.0568    0.7116 N   0  0  0  0  0  0  0  0  0  0  0  0
   -2.7562    2.0856   -0.6273 S   0  0  0  0  0  6  0  0  0  0  0  0
   -2.0534    1.4346   -1.7097 O   0  0  0  0  0  0  0  0  0  0  0  0
   -2.3880    3.4099   -0.1749 O   0  0  0  0  0  0  0  0  0  0  0  0
   -4.4807    2.1000   -1.0505 C   0  0  0  0  0  0  0  0  0  0  0  0
   -5.2419    3.2559   -0.8624 C   0  0  0  0  0  0  0  0  0  0  0  0
   -6.5993    3.2528   -1.2008 C   0  0  0  0  0  0  0  0  0  0  0  0
   -7.1897    2.1018   -1.7293 C   0  0  0  0  0  0  0  0  0  0  0  0
   -8.4999    1.9676   -2.0974 O   0  0  0  0  0  0  0  0  0  0  0  0
   -9.3292    3.1151   -1.9613 C   0  0  0  0  0  0  0  0  0  0  0  0
   -6.4122    0.9541   -1.9202 C   0  0  0  0  0  0  0  0  0  0  0  0
   -5.0569    0.9475   -1.5873 C   0  0  0  0  0  0  0  0  0  0  0  0
    6.8125   -1.1398   -0.0126 C   0  0  0  0  0  0  0  0  0  0  0  0
    7.4290   -1.9854   -0.9427 C   0  0  0  0  0  0  0  0  0  0  0  0
    8.9123   -4.6677   -3.3748 H   0  0  0  0  0  0  0  0  0  0  0  0
    9.4794   -3.3695   -2.3175 H   0  0  0  0  0  0  0  0  0  0  0  0
    8.1010   -3.0992   -3.4545 H   0  0  0  0  0  0  0  0  0  0  0  0
    6.0249   -4.9269    0.0010 H   0  0  0  0  0  0  0  0  0  0  0  0
    4.9277   -3.4436    1.6384 H   0  0  0  0  0  0  0  0  0  0  0  0
    5.8477    0.1442    2.1139 H   0  0  0  0  0  0  0  0  0  0  0  0
    5.0859   -1.2528    2.8771 H   0  0  0  0  0  0  0  0  0  0  0  0
    3.9532    0.3616    0.6143 H   0  0  0  0  0  0  0  0  0  0  0  0
    0.4062   -1.6737    1.8993 H   0  0  0  0  0  0  0  0  0  0  0  0
   -0.7230   -0.4570   -0.5326 H   0  0  0  0  0  0  0  0  0  0  0  0
   -1.5717   -1.3890    0.7141 H   0  0  0  0  0  0  0  0  0  0  0  0
   -0.6590    1.5548    1.0347 H   0  0  0  0  0  0  0  0  0  0  0  0
   -2.9612    1.0099    3.9798 H   0  0  0  0  0  0  0  0  0  0  0  0
   -3.2584   -0.4088    2.9434 H   0  0  0  0  0  0  0  0  0  0  0  0
   -3.2658    2.5381    2.1342 H   0  0  0  0  0  0  0  0  0  0  0  0
   -4.5385    1.3173    1.8218 H   0  0  0  0  0  0  0  0  0  0  0  0
   -4.7913    4.1608   -0.4600 H   0  0  0  0  0  0  0  0  0  0  0  0
   -7.1657    4.1652   -1.0445 H   0  0  0  0  0  0  0  0  0  0  0  0
   -9.4117    3.4191   -0.9126 H   0  0  0  0  0  0  0  0  0  0  0  0
   -8.9692    3.9396   -2.5857 H   0  0  0  0  0  0  0  0  0  0  0  0
  -10.3311    2.8466   -2.3096 H   0  0  0  0  0  0  0  0  0  0  0  0
   -6.8683    0.0600   -2.3402 H   0  0  0  0  0  0  0  0  0  0  0  0
   -4.4617    0.0519   -1.7501 H   0  0  0  0  0  0  0  0  0  0  0  0
    7.0376   -0.0757   -0.0367 H   0  0  0  0  0  0  0  0  0  0  0  0
    8.1170   -1.5431   -1.6555 H   0  0  0  0  0  0  0  0  0  0  0  0
  1  2  1  0
  2  3  1  0
  3  4  2  0
  4  5  1  0
  5  6  2  0
  6  7  1  0
  7  8  1  0
  8  9  1  0
  9 10  2  0
  9 11  1  0
 11 12  2  0
 11 13  1  0
 13 14  1  0
 14 15  1  0
 15 16  1  0
 16 17  1  0
 17 18  1  0
 18 19  1  0
 19 20  1  0
 20 21  2  0
 20 22  2  0
 20 23  1  0
 23 24  2  0
 24 25  1  0
 25 26  2  0
 26 27  1  0
 27 28  1  0
 26 29  1  0
 29 30  2  0
  6 31  1  0
 31 32  2  0
 32  3  1  0
 19 15  1  0
 30 23  1  0
  1 33  1  0
  1 34  1  0
  1 35  1  0
  4 36  1  0
  5 37  1  0
  7 38  1  0
  7 39  1  0
  8 40  1  0
 13 41  1  0
 14 42  1  0
 14 43  1  0
 15 44  1  0
 17 45  1  0
 17 46  1  0
 18 47  1  0
 18 48  1  0
 24 49  1  0
 25 50  1  0
 28 51  1  0
 28 52  1  0
 28 53  1  0
 29 54  1  0
 30 55  1  0
 31 56  1  0
 32 57  1  0
M  END
$$$$
