
     RDKit          3D

 47 49  0  0  0  0  0  0  0  0999 V2000
    8.1382    0.6358    0.9091 C   0  0  0  0  0  0  0  0  0  0  0  0
    6.7390    1.1055    1.2781 C   0  0  0  0  0  0  0  0  0  0  0  0
    5.6725    0.2983    0.5787 C   0  0  0  0  0  0  0  0  0  0  0  0
    5.1601    0.7194   -0.6561 C   0  0  0  0  0  0  0  0  0  0  0  0
    4.1856   -0.0376   -1.3109 C   0  0  0  0  0  0  0  0  0  0  0  0
    3.7033   -1.2184   -0.7390 C   0  0  0  0  0  0  0  0  0  0  0  0
    2.7138   -1.9687   -1.3855 N   0  0  0  0  0  0  0  0  0  0  0  0
    1.4768   -1.6648   -1.1894 C   0  0  0  0  0  0  0  0  0  0  0  0
    0.9798   -0.6754   -0.4013 N   0  0  0  0  0  0  0  0  0  0  0  0
   -0.3753   -0.5143   -0.3570 C   0  0  0  0  0  0  0  0  0  0  0  0
   -0.9321    0.3546    0.2910 O   0  0  0  0  0  0  0  0  0  0  0  0
   -1.0347   -1.5379   -1.2193 C   0  0  0  0  0  0  0  0  0  0  0  0
   -2.3452   -1.7262   -1.4253 C   0  0  0  0  0  0  0  0  0  0  0  0
   -3.4310   -0.9398   -0.8370 C   0  0  0  0  0  0  0  0  0  0  0  0
   -4.2398   -1.5185    0.1476 C   0  0  0  0  0  0  0  0  0  0  0  0
   -5.2884   -0.7910    0.7120 C   0  0  0  0  0  0  0  0  0  0  0  0
   -6.0397   -1.4493    1.6507 O   0  0  0  0  0  0  0  0  0  0  0  0
   -6.0969   -0.7354    2.8869 C   0  0  0  0  0  0  0  0  0  0  0  0
   -5.5602    0.4966    0.2473 C   0  0  0  0  0  0  0  0  0  0  0  0
   -6.6339    1.2044    0.7293 O   0  0  0  0  0  0  0  0  0  0  0  0
   -4.7660    1.0856   -0.7479 C   0  0  0  0  0  0  0  0  0  0  0  0
   -5.1619    2.3465   -1.1256 O   0  0  0  0  0  0  0  0  0  0  0  0
   -4.4156    2.9655   -2.1642 C   0  0  0  0  0  0  0  0  0  0  0  0
   -3.6911    0.3681   -1.2773 C   0  0  0  0  0  0  0  0  0  0  0  0
    0.1781   -2.5332   -1.9616 S   0  0  0  0  0  0  0  0  0  0  0  0
    4.2327   -1.6557    0.4770 C   0  0  0  0  0  0  0  0  0  0  0  0
    5.2080   -0.9020    1.1350 C   0  0  0  0  0  0  0  0  0  0  0  0
    8.8907    1.2251    1.4472 H   0  0  0  0  0  0  0  0  0  0  0  0
    8.3239    0.7468   -0.1649 H   0  0  0  0  0  0  0  0  0  0  0  0
    8.2859   -0.4172    1.1673 H   0  0  0  0  0  0  0  0  0  0  0  0
    6.6269    2.1661    1.0204 H   0  0  0  0  0  0  0  0  0  0  0  0
    6.5963    1.0394    2.3649 H   0  0  0  0  0  0  0  0  0  0  0  0
    5.5238    1.6356   -1.1200 H   0  0  0  0  0  0  0  0  0  0  0  0
    3.8047    0.2931   -2.2739 H   0  0  0  0  0  0  0  0  0  0  0  0
    1.5753   -0.0578    0.1263 H   0  0  0  0  0  0  0  0  0  0  0  0
   -2.6842   -2.5325   -2.0706 H   0  0  0  0  0  0  0  0  0  0  0  0
   -4.0609   -2.5373    0.4879 H   0  0  0  0  0  0  0  0  0  0  0  0
   -5.1221   -0.3017    3.1546 H   0  0  0  0  0  0  0  0  0  0  0  0
   -6.8765    0.0380    2.8680 H   0  0  0  0  0  0  0  0  0  0  0  0
   -6.3683   -1.4613    3.6669 H   0  0  0  0  0  0  0  0  0  0  0  0
   -6.6254    2.0488    0.2372 H   0  0  0  0  0  0  0  0  0  0  0  0
   -4.4437    2.3689   -3.0829 H   0  0  0  0  0  0  0  0  0  0  0  0
   -4.8871    3.9308   -2.3817 H   0  0  0  0  0  0  0  0  0  0  0  0
   -3.3852    3.1604   -1.8480 H   0  0  0  0  0  0  0  0  0  0  0  0
   -3.0481    0.7983   -2.0361 H   0  0  0  0  0  0  0  0  0  0  0  0
    3.8877   -2.5927    0.9099 H   0  0  0  0  0  0  0  0  0  0  0  0
    5.6098   -1.2627    2.0801 H   0  0  0  0  0  0  0  0  0  0  0  0
  1  2  1  0
  2  3  1  0
  3  4  2  0
  4  5  1  0
  5  6  2  0
  6  7  1  0
  7  8  2  3
  8  9  1  0
  9 10  1  0
 10 11  2  0
 10 12  1  0
 12 13  2  3
 13 14  1  0
 14 15  2  0
 15 16  1  0
 16 17  1  0
 17 18  1  0
 16 19  2  0
 19 20  1  0
 19 21  1  0
 21 22  1  0
 22 23  1  0
 21 24  2  0
 12 25  1  0
  6 26  1  0
 26 27  2  0
 27  3  1  0
 25  8  1  0
 24 14  1  0
  1 28  1  0
  1 29  1  0
  1 30  1  0
  2 31  1  0
  2 32  1  0
  4 33  1  0
  5 34  1  0
  9 35  1  0
 13 36  1  0
 15 37  1  0
 18 38  1  0
 18 39  1  0
 18 40  1  0
 20 41  1  0
 23 42  1  0
 23 43  1  0
 23 44  1  0
 24 45  1  0
 26 46  1  0
 27 47  1  0
M  END
$$$$
