
     RDKit          3D

 46 48  0  0  0  0  0  0  0  0999 V2000
   -2.9394    1.3587    1.6767 C   0  0  0  0  0  0  0  0  0  0  0  0
   -2.2704    0.0088    1.8581 C   0  0  0  0  0  0  0  0  0  0  0  0
   -2.6442   -0.9018    0.7337 N   0  0  0  0  0  4  0  0  0  0  0  0
   -1.8151   -0.9962   -0.3497 C   0  0  0  0  0  0  0  0  0  0  0  0
   -0.6255   -0.1444   -0.4712 C   0  0  0  0  0  0  0  0  0  0  0  0
    0.6196   -0.6450   -0.4220 C   0  0  0  0  0  0  0  0  0  0  0  0
    1.8329    0.1715   -0.5667 C   0  0  0  0  0  0  0  0  0  0  0  0
    1.9408    1.4677   -0.0642 C   0  0  0  0  0  0  0  0  0  0  0  0
    3.1328    2.1964   -0.2110 C   0  0  0  0  0  0  0  0  0  0  0  0
    4.2695    1.6657   -0.8437 C   0  0  0  0  0  0  0  0  0  0  0  0
    5.4418    2.4067   -1.0083 N   0  0  0  0  0  0  0  0  0  0  0  0
    5.6471    3.6155   -0.2109 C   0  0  0  0  0  0  0  0  0  0  0  0
    6.6603    1.7387   -1.4654 C   0  0  0  0  0  0  0  0  0  0  0  0
    4.1339    0.3570   -1.3353 C   0  0  0  0  0  0  0  0  0  0  0  0
    2.9485   -0.3820   -1.1933 C   0  0  0  0  0  0  0  0  0  0  0  0
   -2.0959   -1.8843   -1.3886 C   0  0  0  0  0  0  0  0  0  0  0  0
   -3.2222   -2.6828   -1.3342 C   0  0  0  0  0  0  0  0  0  0  0  0
   -4.0773   -2.5817   -0.2444 C   0  0  0  0  0  0  0  0  0  0  0  0
   -5.2282   -3.3822   -0.1935 C   0  0  0  0  0  0  0  0  0  0  0  0
   -6.1077   -3.2938    0.8814 C   0  0  0  0  0  0  0  0  0  0  0  0
   -5.8480   -2.4028    1.9132 C   0  0  0  0  0  0  0  0  0  0  0  0
   -4.7031   -1.5992    1.8768 C   0  0  0  0  0  0  0  0  0  0  0  0
   -3.7863   -1.6689    0.8080 C   0  0  0  0  0  0  0  0  0  0  0  0
   -2.6647    2.0290    2.4968 H   0  0  0  0  0  0  0  0  0  0  0  0
   -4.0296    1.2704    1.6619 H   0  0  0  0  0  0  0  0  0  0  0  0
   -2.6370    1.8303    0.7370 H   0  0  0  0  0  0  0  0  0  0  0  0
   -1.1827    0.1130    1.9021 H   0  0  0  0  0  0  0  0  0  0  0  0
   -2.5433   -0.4645    2.8052 H   0  0  0  0  0  0  0  0  0  0  0  0
   -0.8087    0.9146   -0.6319 H   0  0  0  0  0  0  0  0  0  0  0  0
    0.7951   -1.7128   -0.2949 H   0  0  0  0  0  0  0  0  0  0  0  0
    1.1148    1.9454    0.4538 H   0  0  0  0  0  0  0  0  0  0  0  0
    3.1425    3.2068    0.1876 H   0  0  0  0  0  0  0  0  0  0  0  0
    6.6147    4.0807   -0.4304 H   0  0  0  0  0  0  0  0  0  0  0  0
    4.8905    4.3734   -0.4401 H   0  0  0  0  0  0  0  0  0  0  0  0
    5.6267    3.3870    0.8604 H   0  0  0  0  0  0  0  0  0  0  0  0
    6.9746    0.9667   -0.7545 H   0  0  0  0  0  0  0  0  0  0  0  0
    6.5196    1.2926   -2.4559 H   0  0  0  0  0  0  0  0  0  0  0  0
    7.4886    2.4484   -1.5713 H   0  0  0  0  0  0  0  0  0  0  0  0
    4.9555   -0.1322   -1.8508 H   0  0  0  0  0  0  0  0  0  0  0  0
    2.9203   -1.3915   -1.5977 H   0  0  0  0  0  0  0  0  0  0  0  0
   -1.4370   -1.9517   -2.2538 H   0  0  0  0  0  0  0  0  0  0  0  0
   -3.4282   -3.3722   -2.1527 H   0  0  0  0  0  0  0  0  0  0  0  0
   -5.4575   -4.0859   -0.9941 H   0  0  0  0  0  0  0  0  0  0  0  0
   -6.9991   -3.9190    0.9099 H   0  0  0  0  0  0  0  0  0  0  0  0
   -6.5421   -2.3308    2.7500 H   0  0  0  0  0  0  0  0  0  0  0  0
   -4.5770   -0.9187    2.7130 H   0  0  0  0  0  0  0  0  0  0  0  0
  1  2  1  0
  2  3  1  0
  3  4  2  0
  4  5  1  0
  5  6  2  3
  6  7  1  0
  7  8  2  0
  8  9  1  0
  9 10  2  0
 10 11  1  0
 11 12  1  0
 11 13  1  0
 10 14  1  0
 14 15  2  0
  4 16  1  0
 16 17  2  0
 17 18  1  0
 18 19  2  0
 19 20  1  0
 20 21  2  0
 21 22  1  0
 22 23  2  0
 23  3  1  0
 15  7  1  0
 23 18  1  0
  1 24  1  0
  1 25  1  0
  1 26  1  0
  2 27  1  0
  2 28  1  0
  5 29  1  0
  6 30  1  0
  8 31  1  0
  9 32  1  0
 12 33  1  0
 12 34  1  0
 12 35  1  0
 13 36  1  0
 13 37  1  0
 13 38  1  0
 14 39  1  0
 15 40  1  0
 16 41  1  0
 17 42  1  0
 19 43  1  0
 20 44  1  0
 21 45  1  0
 22 46  1  0
M  CHG  1   3   1
M  END
$$$$
