
     RDKit          3D

 97 99  0  0  0  0  0  0  0  0999 V2000
   -0.5620   -0.0319   -2.2011 C   0  0  0  0  0  0  0  0  0  0  0  0
   -1.0306    0.4450   -1.0309 C   0  0  0  0  0  0  0  0  0  0  0  0
   -2.4361    0.1002   -0.5124 C   0  0  1  0  0  0  0  0  0  0  0  0
   -3.2873   -0.1702   -1.6529 O   0  0  0  0  0  0  0  0  0  0  0  0
   -4.6076    0.1163   -1.5436 C   0  0  0  0  0  0  0  0  0  0  0  0
   -5.1403    0.6803   -0.5961 O   0  0  0  0  0  0  0  0  0  0  0  0
   -5.3470   -0.3881   -2.7657 C   0  0  0  0  0  0  0  0  0  0  0  0
   -6.2055   -1.5837   -2.3755 C   0  0  0  0  0  0  0  0  0  0  0  0
   -6.1867    0.7326   -3.3671 C   0  0  0  0  0  0  0  0  0  0  0  0
   -2.4765   -1.0672    0.5135 C   0  0  0  0  0  0  0  0  0  0  0  0
   -3.7759   -1.1306    1.1489 O   0  0  0  0  0  0  0  0  0  0  0  0
   -3.9500   -0.2918    2.2042 C   0  0  0  0  0  0  0  0  0  0  0  0
   -5.3657   -0.3481    2.6889 C   0  0  0  0  0  0  0  0  0  0  0  0
   -3.0757    0.4098    2.6935 O   0  0  0  0  0  0  0  0  0  0  0  0
   -2.2756   -2.4707   -0.0865 C   0  0  0  0  0  0  0  0  0  0  0  0
   -2.5756   -2.7334   -1.2572 O   0  0  0  0  0  0  0  0  0  0  0  0
   -1.6755   -3.5784    0.8377 C   0  0  0  0  0  0  0  0  0  0  0  0
   -1.8424   -4.9605    0.1774 C   0  0  0  0  0  0  0  0  0  0  0  0
   -2.4128   -3.6138    2.1871 C   0  0  0  0  0  0  0  0  0  0  0  0
   -0.1952   -3.3010    1.0590 C   0  0  0  0  0  0  0  0  0  0  0  0
    0.6635   -2.9721    0.0781 C   0  0  0  0  0  0  0  0  0  0  0  0
    2.1054   -2.5262    0.2135 C   0  0  2  0  0  0  0  0  0  0  0  0
    2.7730   -2.8108    1.5625 C   0  0  0  0  0  0  0  0  0  0  0  0
    2.2509   -1.0439   -0.2513 C   0  0  2  0  0  0  0  0  0  0  0  0
    3.6505   -0.8467   -0.5918 O   0  0  0  0  0  0  0  0  0  0  0  0
    3.9460   -0.3592   -1.8196 C   0  0  0  0  0  0  0  0  0  0  0  0
    3.1406    0.0018   -2.6635 O   0  0  0  0  0  0  0  0  0  0  0  0
    5.4200   -0.2924   -2.0078 C   0  0  0  0  0  0  0  0  0  0  0  0
    5.9122    0.3522   -3.1509 C   0  0  0  0  0  0  0  0  0  0  0  0
    7.2875    0.4310   -3.3794 C   0  0  0  0  0  0  0  0  0  0  0  0
    8.1769   -0.1393   -2.4704 C   0  0  0  0  0  0  0  0  0  0  0  0
    7.6970   -0.7815   -1.3297 C   0  0  0  0  0  0  0  0  0  0  0  0
    6.3214   -0.8578   -1.0955 C   0  0  0  0  0  0  0  0  0  0  0  0
    1.7571    0.0742    0.7407 C   0  0  1  0  0  0  0  0  0  0  0  0
    0.6732   -0.3954    1.5441 O   0  0  0  0  0  0  0  0  0  0  0  0
    2.9002    0.5960    1.6619 C   0  0  0  0  0  0  0  0  0  0  0  0
    3.2356    1.9936    1.1426 C   0  0  2  0  0  0  0  0  0  0  0  0
    3.9863    2.8310    2.1661 C   0  0  0  0  0  0  0  0  0  0  0  0
    1.8593    2.5327    0.7530 C   0  0  2  0  0  0  0  0  0  0  0  0
    1.0854    2.7758    1.9424 O   0  0  0  0  0  0  0  0  0  0  0  0
    0.7308    4.0648    2.2035 C   0  0  0  0  0  0  0  0  0  0  0  0
   -0.1369    4.1131    3.4229 C   0  0  0  0  0  0  0  0  0  0  0  0
    1.0757    5.0427    1.5538 O   0  0  0  0  0  0  0  0  0  0  0  0
    1.2534    1.3435   -0.0347 C   0  0  2  0  0  0  0  0  0  0  0  0
   -0.2842    1.4948   -0.2076 C   0  0  1  0  0  0  0  0  0  0  0  0
   -0.4999    2.7496   -0.9113 O   0  0  0  0  0  0  0  0  0  0  0  0
   -1.3603    3.6444   -0.3581 C   0  0  0  0  0  0  0  0  0  0  0  0
   -1.4661    4.8592   -1.2272 C   0  0  0  0  0  0  0  0  0  0  0  0
   -1.9650    3.4953    0.6947 O   0  0  0  0  0  0  0  0  0  0  0  0
   -1.1339   -0.7422   -2.7943 H   0  0  0  0  0  0  0  0  0  0  0  0
    0.3871    0.2878   -2.6200 H   0  0  0  0  0  0  0  0  0  0  0  0
   -2.8323    1.0046   -0.0348 H   0  0  0  0  0  0  0  0  0  0  0  0
   -4.6149   -0.7099   -3.5183 H   0  0  0  0  0  0  0  0  0  0  0  0
   -5.5992   -2.3595   -1.8921 H   0  0  0  0  0  0  0  0  0  0  0  0
   -6.6811   -2.0246   -3.2595 H   0  0  0  0  0  0  0  0  0  0  0  0
   -6.9974   -1.2942   -1.6728 H   0  0  0  0  0  0  0  0  0  0  0  0
   -6.9573    1.0793   -2.6668 H   0  0  0  0  0  0  0  0  0  0  0  0
   -5.5595    1.5943   -3.6179 H   0  0  0  0  0  0  0  0  0  0  0  0
   -6.6829    0.3963   -4.2843 H   0  0  0  0  0  0  0  0  0  0  0  0
   -1.7028   -0.9147    1.2702 H   0  0  0  0  0  0  0  0  0  0  0  0
   -5.4163    0.0583    3.7042 H   0  0  0  0  0  0  0  0  0  0  0  0
   -6.0043    0.2443    2.0299 H   0  0  0  0  0  0  0  0  0  0  0  0
   -5.7129   -1.3855    2.7273 H   0  0  0  0  0  0  0  0  0  0  0  0
   -2.9006   -5.1885    0.0046 H   0  0  0  0  0  0  0  0  0  0  0  0
   -1.4246   -5.7561    0.8037 H   0  0  0  0  0  0  0  0  0  0  0  0
   -1.3389   -5.0103   -0.7939 H   0  0  0  0  0  0  0  0  0  0  0  0
   -2.2296   -2.7105    2.7787 H   0  0  0  0  0  0  0  0  0  0  0  0
   -3.4961   -3.7028    2.0423 H   0  0  0  0  0  0  0  0  0  0  0  0
   -2.0865   -4.4625    2.7984 H   0  0  0  0  0  0  0  0  0  0  0  0
    0.1529   -3.3165    2.0901 H   0  0  0  0  0  0  0  0  0  0  0  0
    0.2960   -2.9671   -0.9516 H   0  0  0  0  0  0  0  0  0  0  0  0
    2.6645   -3.1377   -0.5118 H   0  0  0  0  0  0  0  0  0  0  0  0
    3.8282   -2.5230    1.5417 H   0  0  0  0  0  0  0  0  0  0  0  0
    2.7361   -3.8836    1.7915 H   0  0  0  0  0  0  0  0  0  0  0  0
    2.2959   -2.2791    2.3915 H   0  0  0  0  0  0  0  0  0  0  0  0
    1.6595   -0.9741   -1.1662 H   0  0  0  0  0  0  0  0  0  0  0  0
    5.2261    0.7960   -3.8709 H   0  0  0  0  0  0  0  0  0  0  0  0
    7.6626    0.9337   -4.2682 H   0  0  0  0  0  0  0  0  0  0  0  0
    9.2483   -0.0838   -2.6511 H   0  0  0  0  0  0  0  0  0  0  0  0
    8.3953   -1.2293   -0.6257 H   0  0  0  0  0  0  0  0  0  0  0  0
    5.9706   -1.3700   -0.2036 H   0  0  0  0  0  0  0  0  0  0  0  0
    0.9374   -0.4309    2.4810 H   0  0  0  0  0  0  0  0  0  0  0  0
    3.7888   -0.0391    1.6668 H   0  0  0  0  0  0  0  0  0  0  0  0
    2.5732    0.6526    2.7060 H   0  0  0  0  0  0  0  0  0  0  0  0
    3.8558    1.9081    0.2425 H   0  0  0  0  0  0  0  0  0  0  0  0
    3.4372    2.9161    3.1091 H   0  0  0  0  0  0  0  0  0  0  0  0
    4.9566    2.3770    2.3900 H   0  0  0  0  0  0  0  0  0  0  0  0
    4.1643    3.8412    1.7853 H   0  0  0  0  0  0  0  0  0  0  0  0
    1.9421    3.4210    0.1174 H   0  0  0  0  0  0  0  0  0  0  0  0
    0.4721    3.9567    4.3150 H   0  0  0  0  0  0  0  0  0  0  0  0
   -0.6216    5.0915    3.4832 H   0  0  0  0  0  0  0  0  0  0  0  0
   -0.9203    3.3519    3.3593 H   0  0  0  0  0  0  0  0  0  0  0  0
    1.7292    1.3846   -1.0225 H   0  0  0  0  0  0  0  0  0  0  0  0
   -0.7357    1.5305    0.7923 H   0  0  0  0  0  0  0  0  0  0  0  0
   -2.1164    5.5930   -0.7430 H   0  0  0  0  0  0  0  0  0  0  0  0
   -1.9031    4.5864   -2.1904 H   0  0  0  0  0  0  0  0  0  0  0  0
   -0.4773    5.3052   -1.3643 H   0  0  0  0  0  0  0  0  0  0  0  0
  1  2  2  0
  2  3  1  0
  3  4  1  0
  4  5  1  0
  5  6  2  0
  5  7  1  0
  7  8  1  0
  7  9  1  0
  3 10  1  0
 10 11  1  0
 11 12  1  0
 12 13  1  0
 12 14  2  0
 10 15  1  0
 15 16  2  0
 15 17  1  0
 17 18  1  0
 17 19  1  0
 17 20  1  0
 20 21  2  0
 21 22  1  0
 22 23  1  0
 22 24  1  0
 24 25  1  0
 25 26  1  0
 26 27  2  0
 26 28  1  0
 28 29  2  0
 29 30  1  0
 30 31  2  0
 31 32  1  0
 32 33  2  0
 24 34  1  0
 34 35  1  1
 34 36  1  0
 36 37  1  0
 37 38  1  0
 37 39  1  0
 39 40  1  0
 40 41  1  0
 41 42  1  0
 41 43  2  0
 39 44  1  0
 44 45  1  0
 45 46  1  0
 46 47  1  0
 47 48  1  0
 47 49  2  0
 45  2  1  0
 33 28  1  0
 44 34  1  0
  1 50  1  0
  1 51  1  0
  3 52  1  1
  7 53  1  0
  8 54  1  0
  8 55  1  0
  8 56  1  0
  9 57  1  0
  9 58  1  0
  9 59  1  0
 10 60  1  0
 13 61  1  0
 13 62  1  0
 13 63  1  0
 18 64  1  0
 18 65  1  0
 18 66  1  0
 19 67  1  0
 19 68  1  0
 19 69  1  0
 20 70  1  0
 21 71  1  0
 22 72  1  6
 23 73  1  0
 23 74  1  0
 23 75  1  0
 24 76  1  6
 29 77  1  0
 30 78  1  0
 31 79  1  0
 32 80  1  0
 33 81  1  0
 35 82  1  0
 36 83  1  0
 36 84  1  0
 37 85  1  6
 38 86  1  0
 38 87  1  0
 38 88  1  0
 39 89  1  6
 42 90  1  0
 42 91  1  0
 42 92  1  0
 44 93  1  6
 45 94  1  1
 48 95  1  0
 48 96  1  0
 48 97  1  0
M  END
$$$$
