
     RDKit          3D

 41 44  0  0  0  0  0  0  0  0999 V2000
    1.0155    2.6834   -1.0477 O   0  0  0  0  0  0  0  0  0  0  0  0
    0.0930    1.9566   -1.8941 S   0  0  0  0  0  6  0  0  0  0  0  0
   -0.3449    2.5092   -3.1600 O   0  0  0  0  0  0  0  0  0  0  0  0
    0.7331    0.4344   -2.2578 N   0  0  0  0  0  0  0  0  0  0  0  0
    0.9958   -0.4833   -1.1922 C   0  0  0  0  0  0  0  0  0  0  0  0
    2.0554   -0.1872   -0.3308 C   0  0  0  0  0  0  0  0  0  0  0  0
    2.3122   -0.9877    0.7816 C   0  0  0  0  0  0  0  0  0  0  0  0
    3.6496   -0.5779    1.8966 S   0  0  0  0  0  0  0  0  0  0  0  0
    3.2266    1.0511    2.3616 C   0  0  0  0  0  0  0  0  0  0  0  0
    1.9372    1.4728    2.5558 N   0  0  0  0  0  0  0  0  0  0  0  0
    2.0825    2.7504    2.8181 C   0  0  0  0  0  0  0  0  0  0  0  0
    3.4032    3.0691    2.8034 N   0  0  0  0  0  0  0  0  0  0  0  0
    4.1589    1.9921    2.5378 N   0  0  0  0  0  0  0  0  0  0  0  0
    1.5122   -2.1167    0.9999 C   0  0  0  0  0  0  0  0  0  0  0  0
    1.7544   -2.9303    2.0848 O   0  0  0  0  0  0  0  0  0  0  0  0
    0.4445   -2.4497    0.1376 C   0  0  0  0  0  0  0  0  0  0  0  0
   -0.3658   -3.5822    0.3648 C   0  0  0  0  0  0  0  0  0  0  0  0
   -1.4308   -3.8991   -0.4763 C   0  0  0  0  0  0  0  0  0  0  0  0
   -1.7102   -3.0875   -1.5650 C   0  0  0  0  0  0  0  0  0  0  0  0
   -0.9210   -1.9631   -1.8134 C   0  0  0  0  0  0  0  0  0  0  0  0
    0.1705   -1.6186   -0.9782 C   0  0  0  0  0  0  0  0  0  0  0  0
   -1.3603    1.5877   -0.9388 C   0  0  0  0  0  0  0  0  0  0  0  0
   -2.5967    1.4632   -1.5802 C   0  0  0  0  0  0  0  0  0  0  0  0
   -3.7348    1.1776   -0.8258 C   0  0  0  0  0  0  0  0  0  0  0  0
   -3.6365    1.0281    0.5587 C   0  0  0  0  0  0  0  0  0  0  0  0
   -2.4038    1.1741    1.1966 C   0  0  0  0  0  0  0  0  0  0  0  0
   -1.2624    1.4646    0.4506 C   0  0  0  0  0  0  0  0  0  0  0  0
    0.3843    0.0655   -3.1391 H   0  0  0  0  0  0  0  0  0  0  0  0
    2.6738    0.6872   -0.5261 H   0  0  0  0  0  0  0  0  0  0  0  0
    1.2987    3.4681    3.0144 H   0  0  0  0  0  0  0  0  0  0  0  0
    3.8491    3.9663    2.9611 H   0  0  0  0  0  0  0  0  0  0  0  0
    2.4915   -2.5320    2.5833 H   0  0  0  0  0  0  0  0  0  0  0  0
   -0.1667   -4.2291    1.2183 H   0  0  0  0  0  0  0  0  0  0  0  0
   -2.0398   -4.7760   -0.2741 H   0  0  0  0  0  0  0  0  0  0  0  0
   -2.5431   -3.3251   -2.2217 H   0  0  0  0  0  0  0  0  0  0  0  0
   -1.1816   -1.3531   -2.6735 H   0  0  0  0  0  0  0  0  0  0  0  0
   -2.6827    1.5868   -2.6569 H   0  0  0  0  0  0  0  0  0  0  0  0
   -4.7003    1.0732   -1.3147 H   0  0  0  0  0  0  0  0  0  0  0  0
   -4.5245    0.8009    1.1442 H   0  0  0  0  0  0  0  0  0  0  0  0
   -2.3307    1.0590    2.2753 H   0  0  0  0  0  0  0  0  0  0  0  0
   -0.3053    1.5771    0.9556 H   0  0  0  0  0  0  0  0  0  0  0  0
  1  2  2  0
  2  3  2  0
  2  4  1  0
  4  5  1  0
  5  6  2  0
  6  7  1  0
  7  8  1  0
  8  9  1  0
  9 10  1  0
 10 11  2  0
 11 12  1  0
 12 13  1  0
  7 14  2  0
 14 15  1  0
 14 16  1  0
 16 17  2  0
 17 18  1  0
 18 19  2  0
 19 20  1  0
 20 21  2  0
  2 22  1  0
 22 23  2  0
 23 24  1  0
 24 25  2  0
 25 26  1  0
 26 27  2  0
 21  5  1  0
 27 22  1  0
 13  9  2  0
 21 16  1  0
  4 28  1  0
  6 29  1  0
 11 30  1  0
 12 31  1  0
 15 32  1  0
 17 33  1  0
 18 34  1  0
 19 35  1  0
 20 36  1  0
 23 37  1  0
 24 38  1  0
 25 39  1  0
 26 40  1  0
 27 41  1  0
M  END
$$$$
