
     RDKit          3D

 46 49  0  0  0  0  0  0  0  0999 V2000
    1.8568    1.7507   -0.3084 O   0  0  0  0  0  0  0  0  0  0  0  0
    1.7919    1.3396   -1.4604 C   0  0  0  0  0  0  0  0  0  0  0  0
    0.4979    0.9233   -2.1449 C   0  0  0  0  0  0  0  0  0  0  0  0
   -0.5607    0.6125   -1.1651 N   0  0  0  0  0  4  0  0  0  0  0  0
   -1.8285    1.1838   -1.0862 C   0  0  0  0  0  0  0  0  0  0  0  0
   -2.5001    0.6438    0.0058 C   0  0  0  0  0  0  0  0  0  0  0  0
   -3.9486    1.0194    0.4914 C   0  0  0  0  0  0  0  0  0  0  0  0
   -4.7166    1.9359   -0.2363 C   0  0  0  0  0  0  0  0  0  0  0  0
   -6.0059    2.2717    0.1928 C   0  0  0  0  0  0  0  0  0  0  0  0
   -6.5377    1.6996    1.3505 C   0  0  0  0  0  0  0  0  0  0  0  0
   -8.1327    2.1587    1.8189 Cl  0  0  0  0  0  0  0  0  0  0  0  0
   -5.7704    0.7891    2.0811 C   0  0  0  0  0  0  0  0  0  0  0  0
   -6.3472    0.0395    3.5267 Cl  0  0  0  0  0  0  0  0  0  0  0  0
   -4.4788    0.4521    1.6517 C   0  0  0  0  0  0  0  0  0  0  0  0
   -1.5911   -0.2627    0.5221 N   0  0  0  0  0  0  0  0  0  0  0  0
   -0.4422   -0.2392   -0.1494 C   0  0  0  0  0  0  0  0  0  0  0  0
    0.5754   -1.1689    0.3981 C   0  0  0  0  0  0  0  0  0  0  0  0
   -0.2713   -2.0503    1.3359 C   0  0  0  0  0  0  0  0  0  0  0  0
   -1.5466   -1.2128    1.6274 C   0  0  0  0  0  0  0  0  0  0  0  0
    2.8460    1.1328   -2.2936 O   0  0  0  0  0  0  0  0  0  0  0  0
    4.1395    1.2218   -1.6740 C   0  0  0  0  0  0  0  0  0  0  0  0
    4.4298   -0.0772   -0.9647 C   0  0  0  0  0  0  0  0  0  0  0  0
    4.5025   -0.1256    0.4344 C   0  0  0  0  0  0  0  0  0  0  0  0
    4.7414   -1.3350    1.0888 C   0  0  0  0  0  0  0  0  0  0  0  0
    4.9071   -2.5063    0.3523 C   0  0  0  0  0  0  0  0  0  0  0  0
    4.8361   -2.4704   -1.0390 C   0  0  0  0  0  0  0  0  0  0  0  0
    4.5980   -1.2623   -1.6958 C   0  0  0  0  0  0  0  0  0  0  0  0
    0.1654    1.7331   -2.8004 H   0  0  0  0  0  0  0  0  0  0  0  0
    0.6647    0.0130   -2.7300 H   0  0  0  0  0  0  0  0  0  0  0  0
   -2.0923    1.9258   -1.8207 H   0  0  0  0  0  0  0  0  0  0  0  0
   -4.3491    2.4068   -1.1443 H   0  0  0  0  0  0  0  0  0  0  0  0
   -6.5957    2.9841   -0.3825 H   0  0  0  0  0  0  0  0  0  0  0  0
   -3.9093   -0.2454    2.2524 H   0  0  0  0  0  0  0  0  0  0  0  0
    1.0368   -1.7192   -0.4225 H   0  0  0  0  0  0  0  0  0  0  0  0
    1.2972   -0.5622    0.9471 H   0  0  0  0  0  0  0  0  0  0  0  0
   -0.5606   -2.9643    0.8036 H   0  0  0  0  0  0  0  0  0  0  0  0
    0.2617   -2.3436    2.2442 H   0  0  0  0  0  0  0  0  0  0  0  0
   -1.4496   -0.6576    2.5649 H   0  0  0  0  0  0  0  0  0  0  0  0
   -2.4366   -1.8459    1.6365 H   0  0  0  0  0  0  0  0  0  0  0  0
    4.2015    2.0901   -1.0069 H   0  0  0  0  0  0  0  0  0  0  0  0
    4.8797    1.3799   -2.4663 H   0  0  0  0  0  0  0  0  0  0  0  0
    4.3775    0.7805    1.0253 H   0  0  0  0  0  0  0  0  0  0  0  0
    4.8142   -1.3614    2.1737 H   0  0  0  0  0  0  0  0  0  0  0  0
    5.1105   -3.4454    0.8621 H   0  0  0  0  0  0  0  0  0  0  0  0
    4.9832   -3.3828   -1.6128 H   0  0  0  0  0  0  0  0  0  0  0  0
    4.5569   -1.2490   -2.7834 H   0  0  0  0  0  0  0  0  0  0  0  0
  1  2  2  0
  2  3  1  0
  3  4  1  0
  4  5  1  0
  5  6  2  0
  6  7  1  0
  7  8  2  0
  8  9  1  0
  9 10  2  0
 10 11  1  0
 10 12  1  0
 12 13  1  0
 12 14  2  0
  6 15  1  0
 15 16  1  0
 16 17  1  0
 17 18  1  0
 18 19  1  0
  2 20  1  0
 20 21  1  0
 21 22  1  0
 22 23  2  0
 23 24  1  0
 24 25  2  0
 25 26  1  0
 26 27  2  0
 16  4  2  0
 27 22  1  0
 14  7  1  0
 19 15  1  0
  3 28  1  0
  3 29  1  0
  5 30  1  0
  8 31  1  0
  9 32  1  0
 14 33  1  0
 17 34  1  0
 17 35  1  0
 18 36  1  0
 18 37  1  0
 19 38  1  0
 19 39  1  0
 21 40  1  0
 21 41  1  0
 23 42  1  0
 24 43  1  0
 25 44  1  0
 26 45  1  0
 27 46  1  0
M  CHG  1   4   1
M  END
$$$$
