
     RDKit          3D

 63 66  0  0  0  0  0  0  0  0999 V2000
    4.7745    2.3219    3.2905 C   0  0  0  0  0  0  0  0  0  0  0  0
    3.9327    1.6538    2.2407 C   0  0  0  0  0  0  0  0  0  0  0  0
    2.9602    0.8766    2.6290 N   0  0  0  0  0  0  0  0  0  0  0  0
    2.1527    0.2112    1.7007 N   0  0  0  0  0  0  0  0  0  0  0  0
    1.1073   -0.6390    2.2651 C   0  0  0  0  0  0  0  0  0  0  0  0
   -0.2401    0.0702    2.2965 C   0  0  0  0  0  0  0  0  0  0  0  0
   -1.2948   -0.8014    2.9385 C   0  0  0  0  0  0  0  0  0  0  0  0
   -1.0420   -1.8497    3.5224 O   0  0  0  0  0  0  0  0  0  0  0  0
   -2.5647   -0.2757    2.8304 N   0  0  0  0  0  0  0  0  0  0  0  0
   -3.7265   -1.0051    3.2885 C   0  0  0  0  0  0  0  0  0  0  0  0
   -4.4005   -1.7188    2.1456 C   0  0  0  0  0  0  0  0  0  0  0  0
   -3.9100   -2.9494    1.6941 C   0  0  0  0  0  0  0  0  0  0  0  0
   -4.5225   -3.6034    0.6227 C   0  0  0  0  0  0  0  0  0  0  0  0
   -5.6299   -3.0443   -0.0190 C   0  0  0  0  0  0  0  0  0  0  0  0
   -6.1205   -3.7928   -1.0508 O   0  0  0  0  0  0  0  0  0  0  0  0
   -7.3226   -3.3815   -1.7084 C   0  0  0  0  0  0  0  0  0  0  0  0
   -7.9705   -4.6478   -2.2645 C   0  0  0  0  0  0  0  0  0  0  0  0
   -6.9918   -2.4223   -2.8487 C   0  0  0  0  0  0  0  0  0  0  0  0
   -6.1146   -1.8129    0.4184 C   0  0  0  0  0  0  0  0  0  0  0  0
   -5.5031   -1.1533    1.4921 C   0  0  0  0  0  0  0  0  0  0  0  0
    2.2536    0.3364    0.2992 C   0  0  0  0  0  0  0  0  0  0  0  0
    1.4935   -0.2235   -0.4886 O   0  0  0  0  0  0  0  0  0  0  0  0
    3.3458    1.2105   -0.1085 C   0  0  0  0  0  0  0  0  0  0  0  0
    3.6761    1.5342   -1.3604 N   0  0  0  0  0  0  0  0  0  0  0  0
    4.8049    2.2856   -1.2447 N   0  0  0  0  0  0  0  0  0  0  0  0
    5.5426    2.5967   -2.4289 C   0  0  0  0  0  0  0  0  0  0  0  0
    6.8828    3.0005   -2.3934 C   0  0  0  0  0  0  0  0  0  0  0  0
    7.5667    3.2840   -3.5806 C   0  0  0  0  0  0  0  0  0  0  0  0
    6.9252    3.1564   -4.8101 C   0  0  0  0  0  0  0  0  0  0  0  0
    5.6009    2.7307   -4.8593 C   0  0  0  0  0  0  0  0  0  0  0  0
    4.9148    2.4441   -3.6773 C   0  0  0  0  0  0  0  0  0  0  0  0
    5.0429    2.6260    0.0933 C   0  0  0  0  0  0  0  0  0  0  0  0
    6.0101    3.6615    0.5419 C   0  0  0  0  0  0  0  0  0  0  0  0
    4.1626    1.8505    0.8301 C   0  0  0  0  0  0  0  0  0  0  0  0
    4.5328    3.3877    3.3283 H   0  0  0  0  0  0  0  0  0  0  0  0
    5.8362    2.1914    3.0650 H   0  0  0  0  0  0  0  0  0  0  0  0
    4.5727    1.8855    4.2734 H   0  0  0  0  0  0  0  0  0  0  0  0
    1.0375   -1.5528    1.6616 H   0  0  0  0  0  0  0  0  0  0  0  0
    1.4167   -0.9427    3.2731 H   0  0  0  0  0  0  0  0  0  0  0  0
   -0.5601    0.3281    1.2805 H   0  0  0  0  0  0  0  0  0  0  0  0
   -0.1658    1.0005    2.8719 H   0  0  0  0  0  0  0  0  0  0  0  0
   -2.7212    0.4647    2.1606 H   0  0  0  0  0  0  0  0  0  0  0  0
   -3.4553   -1.7183    4.0750 H   0  0  0  0  0  0  0  0  0  0  0  0
   -4.4098   -0.2749    3.7361 H   0  0  0  0  0  0  0  0  0  0  0  0
   -3.0433   -3.4038    2.1723 H   0  0  0  0  0  0  0  0  0  0  0  0
   -4.1295   -4.5590    0.2835 H   0  0  0  0  0  0  0  0  0  0  0  0
   -8.0364   -2.9336   -1.0081 H   0  0  0  0  0  0  0  0  0  0  0  0
   -8.9004   -4.4198   -2.7952 H   0  0  0  0  0  0  0  0  0  0  0  0
   -8.1961   -5.3468   -1.4509 H   0  0  0  0  0  0  0  0  0  0  0  0
   -7.2927   -5.1705   -2.9493 H   0  0  0  0  0  0  0  0  0  0  0  0
   -7.8926   -2.1438   -3.4046 H   0  0  0  0  0  0  0  0  0  0  0  0
   -6.5255   -1.5064   -2.4740 H   0  0  0  0  0  0  0  0  0  0  0  0
   -6.2756   -2.8737   -3.5446 H   0  0  0  0  0  0  0  0  0  0  0  0
   -6.9601   -1.3283   -0.0564 H   0  0  0  0  0  0  0  0  0  0  0  0
   -5.8981   -0.1918    1.8127 H   0  0  0  0  0  0  0  0  0  0  0  0
    7.4480    3.0587   -1.4715 H   0  0  0  0  0  0  0  0  0  0  0  0
    8.6098    3.5903   -3.5455 H   0  0  0  0  0  0  0  0  0  0  0  0
    7.4610    3.3730   -5.7303 H   0  0  0  0  0  0  0  0  0  0  0  0
    5.0991    2.6151   -5.8163 H   0  0  0  0  0  0  0  0  0  0  0  0
    3.8798    2.1104   -3.7457 H   0  0  0  0  0  0  0  0  0  0  0  0
    6.1273    4.4600   -0.1973 H   0  0  0  0  0  0  0  0  0  0  0  0
    5.6603    4.1562    1.4524 H   0  0  0  0  0  0  0  0  0  0  0  0
    6.9853    3.2146    0.7576 H   0  0  0  0  0  0  0  0  0  0  0  0
  1  2  1  0
  2  3  2  0
  3  4  1  0
  4  5  1  0
  5  6  1  0
  6  7  1  0
  7  8  2  0
  7  9  1  0
  9 10  1  0
 10 11  1  0
 11 12  2  0
 12 13  1  0
 13 14  2  0
 14 15  1  0
 15 16  1  0
 16 17  1  0
 16 18  1  0
 14 19  1  0
 19 20  2  0
  4 21  1  0
 21 22  2  0
 21 23  1  0
 23 24  2  0
 24 25  1  0
 25 26  1  0
 26 27  2  0
 27 28  1  0
 28 29  2  0
 29 30  1  0
 30 31  2  0
 25 32  1  0
 32 33  1  0
 32 34  2  0
 34  2  1  0
 20 11  1  0
 34 23  1  0
 31 26  1  0
  1 35  1  0
  1 36  1  0
  1 37  1  0
  5 38  1  0
  5 39  1  0
  6 40  1  0
  6 41  1  0
  9 42  1  0
 10 43  1  0
 10 44  1  0
 12 45  1  0
 13 46  1  0
 16 47  1  0
 17 48  1  0
 17 49  1  0
 17 50  1  0
 18 51  1  0
 18 52  1  0
 18 53  1  0
 19 54  1  0
 20 55  1  0
 27 56  1  0
 28 57  1  0
 29 58  1  0
 30 59  1  0
 31 60  1  0
 33 61  1  0
 33 62  1  0
 33 63  1  0
M  END
$$$$
