
     RDKit          3D

 61 64  0  0  0  0  0  0  0  0999 V2000
   -7.8146   -3.4920   -2.7390 C   0  0  0  0  0  0  0  0  0  0  0  0
   -6.6314   -3.0532   -2.0822 O   0  0  0  0  0  0  0  0  0  0  0  0
   -6.6256   -1.7684   -1.6124 C   0  0  0  0  0  0  0  0  0  0  0  0
   -7.6594   -0.8402   -1.7471 C   0  0  0  0  0  0  0  0  0  0  0  0
   -7.5405    0.4475   -1.2103 C   0  0  0  0  0  0  0  0  0  0  0  0
   -8.6323    1.2489   -1.4091 O   0  0  0  0  0  0  0  0  0  0  0  0
   -8.5779    2.5603   -0.8597 C   0  0  0  0  0  0  0  0  0  0  0  0
   -6.3718    0.8097   -0.5431 C   0  0  0  0  0  0  0  0  0  0  0  0
   -5.3208   -0.1103   -0.4190 C   0  0  0  0  0  0  0  0  0  0  0  0
   -4.0882    0.3189    0.3003 C   0  0  0  0  0  0  0  0  0  0  0  0
   -4.1806    1.1867    1.1635 O   0  0  0  0  0  0  0  0  0  0  0  0
   -2.9133   -0.2956   -0.1230 N   0  0  0  0  0  0  0  0  0  0  0  0
   -1.6534    0.0657    0.2834 N   0  0  0  0  0  0  0  0  0  0  0  0
   -1.4923    0.3960    1.5265 C   0  0  0  0  0  0  0  0  0  0  0  0
   -0.1868    0.8546    2.0445 C   0  0  0  0  0  0  0  0  0  0  0  0
   -0.0857    1.2160    3.3872 C   0  0  0  0  0  0  0  0  0  0  0  0
    1.1385    1.6558    3.9010 C   0  0  0  0  0  0  0  0  0  0  0  0
    2.2685    1.7409    3.0781 C   0  0  0  0  0  0  0  0  0  0  0  0
    3.5011    2.1662    3.4985 O   0  0  0  0  0  0  0  0  0  0  0  0
    3.6897    2.3543    4.8948 C   0  0  0  0  0  0  0  0  0  0  0  0
    2.1649    1.3910    1.7185 C   0  0  0  0  0  0  0  0  0  0  0  0
    3.3520    1.4517    0.7842 C   0  0  0  0  0  0  0  0  0  0  0  0
    3.8810    0.1324    0.6517 O   0  0  0  0  0  0  0  0  0  0  0  0
    4.9630   -0.0266   -0.1697 C   0  0  0  0  0  0  0  0  0  0  0  0
    5.5817    0.9737   -0.9168 C   0  0  0  0  0  0  0  0  0  0  0  0
    6.6842    0.6669   -1.7227 C   0  0  0  0  0  0  0  0  0  0  0  0
    7.1859   -0.6426   -1.7935 C   0  0  0  0  0  0  0  0  0  0  0  0
    8.2913   -0.9645   -2.5986 C   0  0  0  0  0  0  0  0  0  0  0  0
    8.7764   -2.2735   -2.6553 C   0  0  0  0  0  0  0  0  0  0  0  0
    8.1637   -3.2747   -1.9079 C   0  0  0  0  0  0  0  0  0  0  0  0
    7.0638   -2.9699   -1.1032 C   0  0  0  0  0  0  0  0  0  0  0  0
    6.5631   -1.6589   -1.0367 C   0  0  0  0  0  0  0  0  0  0  0  0
    5.4566   -1.3338   -0.2341 C   0  0  0  0  0  0  0  0  0  0  0  0
    0.9318    0.9369    1.2136 C   0  0  0  0  0  0  0  0  0  0  0  0
   -5.4568   -1.4010   -0.9433 C   0  0  0  0  0  0  0  0  0  0  0  0
   -7.9988   -2.9103   -3.6483 H   0  0  0  0  0  0  0  0  0  0  0  0
   -7.6651   -4.5351   -3.0351 H   0  0  0  0  0  0  0  0  0  0  0  0
   -8.6765   -3.4573   -2.0643 H   0  0  0  0  0  0  0  0  0  0  0  0
   -8.5823   -1.0883   -2.2622 H   0  0  0  0  0  0  0  0  0  0  0  0
   -8.4791    2.5284    0.2304 H   0  0  0  0  0  0  0  0  0  0  0  0
   -9.5234    3.0593   -1.0942 H   0  0  0  0  0  0  0  0  0  0  0  0
   -7.7713    3.1446   -1.3141 H   0  0  0  0  0  0  0  0  0  0  0  0
   -6.2458    1.7997   -0.1140 H   0  0  0  0  0  0  0  0  0  0  0  0
   -2.9171   -0.7329   -1.0398 H   0  0  0  0  0  0  0  0  0  0  0  0
   -2.3067    0.3308    2.2689 H   0  0  0  0  0  0  0  0  0  0  0  0
   -0.9513    1.1636    4.0431 H   0  0  0  0  0  0  0  0  0  0  0  0
    1.1746    1.9312    4.9500 H   0  0  0  0  0  0  0  0  0  0  0  0
    4.7423    2.6059    5.0591 H   0  0  0  0  0  0  0  0  0  0  0  0
    3.4760    1.4364    5.4518 H   0  0  0  0  0  0  0  0  0  0  0  0
    3.0874    3.1911    5.2622 H   0  0  0  0  0  0  0  0  0  0  0  0
    3.0103    1.8261   -0.1904 H   0  0  0  0  0  0  0  0  0  0  0  0
    4.1161    2.1399    1.1654 H   0  0  0  0  0  0  0  0  0  0  0  0
    5.2364    2.0028   -0.8993 H   0  0  0  0  0  0  0  0  0  0  0  0
    7.1507    1.4641   -2.2977 H   0  0  0  0  0  0  0  0  0  0  0  0
    8.7835   -0.1952   -3.1892 H   0  0  0  0  0  0  0  0  0  0  0  0
    9.6325   -2.5094   -3.2826 H   0  0  0  0  0  0  0  0  0  0  0  0
    8.5403   -4.2936   -1.9496 H   0  0  0  0  0  0  0  0  0  0  0  0
    6.5976   -3.7648   -0.5255 H   0  0  0  0  0  0  0  0  0  0  0  0
    4.9651   -2.1055    0.3546 H   0  0  0  0  0  0  0  0  0  0  0  0
    0.8522    0.6446    0.1680 H   0  0  0  0  0  0  0  0  0  0  0  0
   -4.6737   -2.1450   -0.8181 H   0  0  0  0  0  0  0  0  0  0  0  0
  1  2  1  0
  2  3  1  0
  3  4  2  0
  4  5  1  0
  5  6  1  0
  6  7  1  0
  5  8  2  0
  8  9  1  0
  9 10  1  0
 10 11  2  0
 10 12  1  0
 12 13  1  0
 13 14  2  3
 14 15  1  0
 15 16  2  0
 16 17  1  0
 17 18  2  0
 18 19  1  0
 19 20  1  0
 18 21  1  0
 21 22  1  0
 22 23  1  0
 23 24  1  0
 24 25  2  0
 25 26  1  0
 26 27  2  0
 27 28  1  0
 28 29  2  0
 29 30  1  0
 30 31  2  0
 31 32  1  0
 32 33  2  0
 21 34  2  0
  9 35  2  0
 35  3  1  0
 34 15  1  0
 33 24  1  0
 32 27  1  0
  1 36  1  0
  1 37  1  0
  1 38  1  0
  4 39  1  0
  7 40  1  0
  7 41  1  0
  7 42  1  0
  8 43  1  0
 12 44  1  0
 14 45  1  0
 16 46  1  0
 17 47  1  0
 20 48  1  0
 20 49  1  0
 20 50  1  0
 22 51  1  0
 22 52  1  0
 25 53  1  0
 26 54  1  0
 28 55  1  0
 29 56  1  0
 30 57  1  0
 31 58  1  0
 33 59  1  0
 34 60  1  0
 35 61  1  0
M  END
$$$$
