
     RDKit          3D

 36 37  0  0  0  0  0  0  0  0999 V2000
   -0.2339    0.0282   -3.4665 O   0  0  0  0  0  0  0  0  0  0  0  0
   -0.8455   -0.5617   -2.5864 C   0  0  0  0  0  0  0  0  0  0  0  0
   -2.2109   -1.0773   -2.8442 C   0  0  0  0  0  0  0  0  0  0  0  0
   -3.2957   -0.8679   -2.0805 C   0  0  0  0  0  0  0  0  0  0  0  0
   -3.3566   -0.0640   -0.8497 C   0  0  0  0  0  0  0  0  0  0  0  0
   -3.0316    1.3001   -0.9075 C   0  0  0  0  0  0  0  0  0  0  0  0
   -3.0828    2.0937    0.2405 C   0  0  0  0  0  0  0  0  0  0  0  0
   -3.4675    1.5383    1.4586 C   0  0  0  0  0  0  0  0  0  0  0  0
   -3.8029    0.1871    1.5307 C   0  0  0  0  0  0  0  0  0  0  0  0
   -3.7512   -0.6104    0.3833 C   0  0  0  0  0  0  0  0  0  0  0  0
   -4.1554   -2.2845    0.5491 Cl  0  0  0  0  0  0  0  0  0  0  0  0
   -0.3543   -0.8573   -1.3413 N   0  0  0  0  0  0  0  0  0  0  0  0
    0.8697   -0.2535   -0.8501 C   0  0  0  0  0  0  0  0  0  0  0  0
    1.5537   -1.1391    0.1902 C   0  0  0  0  0  0  0  0  0  0  0  0
    2.7749   -0.4810    0.7808 C   0  0  0  0  0  0  0  0  0  0  0  0
    2.7212    0.1106    2.0496 C   0  0  0  0  0  0  0  0  0  0  0  0
    3.8493    0.7315    2.5879 C   0  0  0  0  0  0  0  0  0  0  0  0
    5.0385    0.7709    1.8616 C   0  0  0  0  0  0  0  0  0  0  0  0
    5.1014    0.1891    0.5971 C   0  0  0  0  0  0  0  0  0  0  0  0
    3.9757   -0.4351    0.0587 C   0  0  0  0  0  0  0  0  0  0  0  0
   -2.2994   -1.6246   -3.7771 H   0  0  0  0  0  0  0  0  0  0  0  0
   -4.2443   -1.3042   -2.3876 H   0  0  0  0  0  0  0  0  0  0  0  0
   -2.7322    1.7574   -1.8496 H   0  0  0  0  0  0  0  0  0  0  0  0
   -2.8221    3.1478    0.1808 H   0  0  0  0  0  0  0  0  0  0  0  0
   -3.5080    2.1577    2.3519 H   0  0  0  0  0  0  0  0  0  0  0  0
   -4.1039   -0.2394    2.4842 H   0  0  0  0  0  0  0  0  0  0  0  0
   -0.9900   -1.2608   -0.6658 H   0  0  0  0  0  0  0  0  0  0  0  0
    0.5932    0.7140   -0.4146 H   0  0  0  0  0  0  0  0  0  0  0  0
    1.5412   -0.0504   -1.6923 H   0  0  0  0  0  0  0  0  0  0  0  0
    1.8404   -2.0984   -0.2604 H   0  0  0  0  0  0  0  0  0  0  0  0
    0.8446   -1.3911    0.9899 H   0  0  0  0  0  0  0  0  0  0  0  0
    1.8008    0.0923    2.6285 H   0  0  0  0  0  0  0  0  0  0  0  0
    3.8002    1.1854    3.5744 H   0  0  0  0  0  0  0  0  0  0  0  0
    5.9153    1.2577    2.2804 H   0  0  0  0  0  0  0  0  0  0  0  0
    6.0274    0.2224    0.0288 H   0  0  0  0  0  0  0  0  0  0  0  0
    4.0407   -0.8837   -0.9303 H   0  0  0  0  0  0  0  0  0  0  0  0
  1  2  2  0
  2  3  1  0
  3  4  2  3
  4  5  1  0
  5  6  2  0
  6  7  1  0
  7  8  2  0
  8  9  1  0
  9 10  2  0
 10 11  1  0
  2 12  1  0
 12 13  1  0
 13 14  1  0
 14 15  1  0
 15 16  2  0
 16 17  1  0
 17 18  2  0
 18 19  1  0
 19 20  2  0
 10  5  1  0
 20 15  1  0
  3 21  1  0
  4 22  1  0
  6 23  1  0
  7 24  1  0
  8 25  1  0
  9 26  1  0
 12 27  1  0
 13 28  1  0
 13 29  1  0
 14 30  1  0
 14 31  1  0
 16 32  1  0
 17 33  1  0
 18 34  1  0
 19 35  1  0
 20 36  1  0
M  END
$$$$
