
     RDKit          3D

 58 63  0  0  0  0  0  0  0  0999 V2000
    8.3962   -0.1048    0.4503 C   0  0  0  0  0  0  0  0  0  0  0  0
    6.9506   -0.4591    0.3801 C   0  0  0  0  0  0  0  0  0  0  0  0
    6.1233   -0.8983    1.3921 C   0  0  0  0  0  0  0  0  0  0  0  0
    4.7969   -1.1451    0.9329 C   0  0  0  0  0  0  0  0  0  0  0  0
    4.6444   -0.8675   -0.4132 C   0  0  0  0  0  0  0  0  0  0  0  0
    3.4631   -1.0017   -1.2547 C   0  0  0  0  0  0  0  0  0  0  0  0
    3.5154   -1.4737   -2.3914 O   0  0  0  0  0  0  0  0  0  0  0  0
    2.2257   -0.6123   -0.6959 N   0  0  0  0  0  0  0  0  0  0  0  0
    2.1329    0.6067    0.1035 C   0  0  0  0  0  0  0  0  0  0  0  0
    0.8775    0.6185    0.9706 C   0  0  0  0  0  0  0  0  0  0  0  0
   -0.4166    0.4128    0.1342 C   0  0  0  0  0  0  0  0  0  0  0  0
   -0.2291   -0.9086   -0.6543 C   0  0  0  0  0  0  0  0  0  0  0  0
    1.0450   -0.9066   -1.4967 C   0  0  0  0  0  0  0  0  0  0  0  0
   -0.5343    1.4505   -0.8695 O   0  0  0  0  0  0  0  0  0  0  0  0
   -0.9316    2.6790   -0.4237 C   0  0  0  0  0  0  0  0  0  0  0  0
   -0.6892    3.7508   -1.2820 C   0  0  0  0  0  0  0  0  0  0  0  0
   -1.0450    5.0464   -0.8995 C   0  0  0  0  0  0  0  0  0  0  0  0
   -1.6476    5.2650    0.3398 C   0  0  0  0  0  0  0  0  0  0  0  0
   -2.0810    6.8624    0.8058 Cl  0  0  0  0  0  0  0  0  0  0  0  0
   -1.9069    4.1989    1.1972 C   0  0  0  0  0  0  0  0  0  0  0  0
   -1.5546    2.9041    0.8030 C   0  0  0  0  0  0  0  0  0  0  0  0
   -1.8545    1.7506    1.6725 C   0  0  0  0  0  0  0  0  0  0  0  0
   -2.2509    1.9431    2.8169 O   0  0  0  0  0  0  0  0  0  0  0  0
   -1.6903    0.3794    1.0263 C   0  0  0  0  0  0  0  0  0  0  0  0
   -2.9962    0.0495    0.3124 C   0  0  0  0  0  0  0  0  0  0  0  0
   -3.1600   -1.3630    0.7537 C   0  0  0  0  0  0  0  0  0  0  0  0
   -4.1626   -2.2653    0.1417 C   0  0  0  0  0  0  0  0  0  0  0  0
   -5.0874   -1.8000   -0.8002 C   0  0  0  0  0  0  0  0  0  0  0  0
   -6.0156   -2.6806   -1.3624 C   0  0  0  0  0  0  0  0  0  0  0  0
   -6.0249   -4.0232   -0.9864 C   0  0  0  0  0  0  0  0  0  0  0  0
   -5.1089   -4.4901   -0.0457 C   0  0  0  0  0  0  0  0  0  0  0  0
   -4.1801   -3.6140    0.5187 C   0  0  0  0  0  0  0  0  0  0  0  0
   -2.3618   -1.7294    1.7044 N   0  0  0  0  0  0  0  0  0  0  0  0
   -1.5651   -0.6139    2.0488 O   0  0  0  0  0  0  0  0  0  0  0  0
    6.1206   -0.3561   -1.1128 S   0  0  0  0  0  0  0  0  0  0  0  0
    8.7755   -0.2110    1.4721 H   0  0  0  0  0  0  0  0  0  0  0  0
    8.9885   -0.7604   -0.1966 H   0  0  0  0  0  0  0  0  0  0  0  0
    8.5578    0.9327    0.1398 H   0  0  0  0  0  0  0  0  0  0  0  0
    6.4539   -1.0477    2.4132 H   0  0  0  0  0  0  0  0  0  0  0  0
    3.9930   -1.5153    1.5583 H   0  0  0  0  0  0  0  0  0  0  0  0
    3.0080    0.7377    0.7428 H   0  0  0  0  0  0  0  0  0  0  0  0
    2.1360    1.4551   -0.5923 H   0  0  0  0  0  0  0  0  0  0  0  0
    0.9623   -0.1748    1.7241 H   0  0  0  0  0  0  0  0  0  0  0  0
    0.8576    1.5710    1.5110 H   0  0  0  0  0  0  0  0  0  0  0  0
   -1.0697   -1.0775   -1.3364 H   0  0  0  0  0  0  0  0  0  0  0  0
   -0.1848   -1.7579    0.0380 H   0  0  0  0  0  0  0  0  0  0  0  0
    0.9872   -0.1663   -2.3040 H   0  0  0  0  0  0  0  0  0  0  0  0
    1.1587   -1.8902   -1.9679 H   0  0  0  0  0  0  0  0  0  0  0  0
   -0.2128    3.5829   -2.2455 H   0  0  0  0  0  0  0  0  0  0  0  0
   -0.8469    5.8798   -1.5697 H   0  0  0  0  0  0  0  0  0  0  0  0
   -2.3854    4.3703    2.1592 H   0  0  0  0  0  0  0  0  0  0  0  0
   -2.9392    0.1494   -0.7738 H   0  0  0  0  0  0  0  0  0  0  0  0
   -3.8484    0.6304    0.6829 H   0  0  0  0  0  0  0  0  0  0  0  0
   -5.1137   -0.7593   -1.1078 H   0  0  0  0  0  0  0  0  0  0  0  0
   -6.7358   -2.3191   -2.0927 H   0  0  0  0  0  0  0  0  0  0  0  0
   -6.7492   -4.7063   -1.4239 H   0  0  0  0  0  0  0  0  0  0  0  0
   -5.1174   -5.5360    0.2517 H   0  0  0  0  0  0  0  0  0  0  0  0
   -3.4724   -3.9919    1.2542 H   0  0  0  0  0  0  0  0  0  0  0  0
  1  2  1  0
  2  3  2  0
  3  4  1  0
  4  5  2  0
  5  6  1  0
  6  7  2  0
  6  8  1  0
  8  9  1  0
  9 10  1  0
 10 11  1  0
 11 12  1  0
 12 13  1  0
 11 14  1  0
 14 15  1  0
 15 16  2  0
 16 17  1  0
 17 18  2  0
 18 19  1  0
 18 20  1  0
 20 21  2  0
 21 22  1  0
 22 23  2  0
 22 24  1  0
 24 25  1  0
 25 26  1  0
 26 27  1  0
 27 28  2  0
 28 29  1  0
 29 30  2  0
 30 31  1  0
 31 32  2  0
 26 33  2  0
 33 34  1  0
  5 35  1  0
 35  2  1  0
 13  8  1  0
 21 15  1  0
 34 24  1  0
 24 11  1  0
 32 27  1  0
  1 36  1  0
  1 37  1  0
  1 38  1  0
  3 39  1  0
  4 40  1  0
  9 41  1  0
  9 42  1  0
 10 43  1  0
 10 44  1  0
 12 45  1  0
 12 46  1  0
 13 47  1  0
 13 48  1  0
 16 49  1  0
 17 50  1  0
 20 51  1  0
 25 52  1  0
 25 53  1  0
 28 54  1  0
 29 55  1  0
 30 56  1  0
 31 57  1  0
 32 58  1  0
M  END
$$$$
