
     RDKit          3D

 44 44  0  0  0  0  0  0  0  0999 V2000
   -3.6472    1.8110   -0.2250 C   0  0  0  0  0  0  0  0  0  0  0  0
   -2.2954    1.1751    0.1281 C   0  0  0  0  0  0  0  0  0  0  0  0
   -1.7533    1.7663    1.4346 C   0  0  0  0  0  0  0  0  0  0  0  0
   -2.2591   -0.3937    0.0843 C   0  0  0  0  0  0  0  0  0  0  0  0
   -3.0096   -0.8286   -1.0557 O   0  0  0  0  0  0  0  0  0  0  0  0
   -0.8445   -0.7949   -0.1495 C   0  0  0  0  0  0  0  0  0  0  0  0
    0.3048   -1.0948   -0.3360 C   0  0  0  0  0  0  0  0  0  0  0  0
    1.7161   -1.4510   -0.5526 C   0  0  0  0  0  0  0  0  0  0  0  0
    2.6240   -0.3693   -0.1436 N   0  0  0  0  0  0  0  0  0  0  0  0
    4.0236   -0.8212   -0.1095 C   0  0  0  0  0  0  0  0  0  0  0  0
    4.8386   -0.3934   -1.3278 C   0  0  0  0  0  0  0  0  0  0  0  0
    4.8723    1.1274   -1.4691 C   0  0  0  0  0  0  0  0  0  0  0  0
    3.6232    1.7898   -0.8906 C   0  0  0  0  0  0  0  0  0  0  0  0
    2.4203    0.8496   -0.9461 C   0  0  0  0  0  0  0  0  0  0  0  0
   -2.8028   -1.1486    1.3438 C   0  0  0  0  0  0  0  0  0  0  0  0
   -4.2450   -0.7881    1.7179 C   0  0  0  0  0  0  0  0  0  0  0  0
   -2.7493   -2.6814    1.1685 C   0  0  0  0  0  0  0  0  0  0  0  0
   -4.0211    1.4519   -1.1889 H   0  0  0  0  0  0  0  0  0  0  0  0
   -4.4138    1.6280    0.5289 H   0  0  0  0  0  0  0  0  0  0  0  0
   -3.5385    2.8985   -0.3112 H   0  0  0  0  0  0  0  0  0  0  0  0
   -1.6221    1.5285   -0.6689 H   0  0  0  0  0  0  0  0  0  0  0  0
   -0.7591    1.3730    1.6692 H   0  0  0  0  0  0  0  0  0  0  0  0
   -2.4121    1.5577    2.2823 H   0  0  0  0  0  0  0  0  0  0  0  0
   -1.6616    2.8550    1.3518 H   0  0  0  0  0  0  0  0  0  0  0  0
   -2.5296   -0.5182   -1.8421 H   0  0  0  0  0  0  0  0  0  0  0  0
    1.9173   -2.3467    0.0488 H   0  0  0  0  0  0  0  0  0  0  0  0
    1.8821   -1.7268   -1.6014 H   0  0  0  0  0  0  0  0  0  0  0  0
    4.4881   -0.3931    0.7884 H   0  0  0  0  0  0  0  0  0  0  0  0
    4.0972   -1.9081    0.0189 H   0  0  0  0  0  0  0  0  0  0  0  0
    4.4037   -0.8375   -2.2324 H   0  0  0  0  0  0  0  0  0  0  0  0
    5.8622   -0.7781   -1.2542 H   0  0  0  0  0  0  0  0  0  0  0  0
    5.7568    1.5338   -0.9643 H   0  0  0  0  0  0  0  0  0  0  0  0
    4.9781    1.3837   -2.5301 H   0  0  0  0  0  0  0  0  0  0  0  0
    3.4087    2.7148   -1.4381 H   0  0  0  0  0  0  0  0  0  0  0  0
    3.8106    2.0821    0.1508 H   0  0  0  0  0  0  0  0  0  0  0  0
    1.5413    1.3869   -0.5713 H   0  0  0  0  0  0  0  0  0  0  0  0
    2.2262    0.6016   -1.9985 H   0  0  0  0  0  0  0  0  0  0  0  0
   -2.1663   -0.9074    2.2058 H   0  0  0  0  0  0  0  0  0  0  0  0
   -4.6249   -1.4536    2.5015 H   0  0  0  0  0  0  0  0  0  0  0  0
   -4.9185   -0.8689    0.8588 H   0  0  0  0  0  0  0  0  0  0  0  0
   -4.3096    0.2234    2.1243 H   0  0  0  0  0  0  0  0  0  0  0  0
   -3.0996   -3.1853    2.0766 H   0  0  0  0  0  0  0  0  0  0  0  0
   -3.3822   -3.0142    0.3389 H   0  0  0  0  0  0  0  0  0  0  0  0
   -1.7303   -3.0348    0.9851 H   0  0  0  0  0  0  0  0  0  0  0  0
  1  2  1  0
  2  3  1  0
  2  4  1  0
  4  5  1  0
  4  6  1  0
  6  7  3  0
  7  8  1  0
  8  9  1  0
  9 10  1  0
 10 11  1  0
 11 12  1  0
 12 13  1  0
 13 14  1  0
  4 15  1  0
 15 16  1  0
 15 17  1  0
 14  9  1  0
  1 18  1  0
  1 19  1  0
  1 20  1  0
  2 21  1  0
  3 22  1  0
  3 23  1  0
  3 24  1  0
  5 25  1  0
  8 26  1  0
  8 27  1  0
 10 28  1  0
 10 29  1  0
 11 30  1  0
 11 31  1  0
 12 32  1  0
 12 33  1  0
 13 34  1  0
 13 35  1  0
 14 36  1  0
 14 37  1  0
 15 38  1  0
 16 39  1  0
 16 40  1  0
 16 41  1  0
 17 42  1  0
 17 43  1  0
 17 44  1  0
M  END
$$$$
