
     RDKit          3D

 39 41  0  0  0  0  0  0  0  0999 V2000
    4.6161    2.5639    0.2530 C   0  0  0  0  0  0  0  0  0  0  0  0
    4.3282    1.7490    1.5011 C   0  0  0  0  0  0  0  0  0  0  0  0
    3.8944    0.4009    1.1869 N   0  0  0  0  0  0  0  0  0  0  0  0
    4.6586   -0.7270    1.2188 C   0  0  0  0  0  0  0  0  0  0  0  0
    3.8264   -1.7576    0.8549 C   0  0  0  0  0  0  0  0  0  0  0  0
    2.5626   -1.1577    0.6190 C   0  0  0  0  0  0  0  0  0  0  0  0
    1.3181   -1.8342    0.1996 C   0  0  0  0  0  0  0  0  0  0  0  0
    1.2882   -3.0454    0.0207 O   0  0  0  0  0  0  0  0  0  0  0  0
    0.2875   -0.9268    0.0572 N   0  0  0  0  0  0  0  0  0  0  0  0
   -1.0240   -1.1519   -0.3175 C   0  0  0  0  0  0  0  0  0  0  0  0
   -1.5661   -2.7448   -0.6685 S   0  0  0  0  0  0  0  0  0  0  0  0
   -3.0999   -2.1889   -0.9969 C   0  0  0  0  0  0  0  0  0  0  0  0
   -3.2390   -0.8386   -0.8577 C   0  0  0  0  0  0  0  0  0  0  0  0
   -2.0338   -0.1934   -0.4544 C   0  0  0  0  0  0  0  0  0  0  0  0
   -1.9026    1.2453   -0.2256 C   0  0  0  0  0  0  0  0  0  0  0  0
   -2.8359    2.0307   -0.3514 O   0  0  0  0  0  0  0  0  0  0  0  0
   -0.6405    1.6225    0.1403 O   0  0  0  0  0  0  0  0  0  0  0  0
   -0.4890    3.0239    0.3667 C   0  0  0  0  0  0  0  0  0  0  0  0
   -4.6302   -0.4133   -1.1633 C   0  0  0  0  0  0  0  0  0  0  0  0
   -5.2247   -1.6856   -1.8458 C   0  0  0  0  0  0  0  0  0  0  0  0
   -4.3368   -2.8903   -1.4079 C   0  0  0  0  0  0  0  0  0  0  0  0
    2.6146    0.1766    0.8292 N   0  0  0  0  0  0  0  0  0  0  0  0
    3.7224    2.6584   -0.3730 H   0  0  0  0  0  0  0  0  0  0  0  0
    4.9500    3.5699    0.5245 H   0  0  0  0  0  0  0  0  0  0  0  0
    5.3991    2.0943   -0.3520 H   0  0  0  0  0  0  0  0  0  0  0  0
    5.2252    1.6755    2.1255 H   0  0  0  0  0  0  0  0  0  0  0  0
    3.5392    2.2177    2.0995 H   0  0  0  0  0  0  0  0  0  0  0  0
    5.7052   -0.7068    1.4890 H   0  0  0  0  0  0  0  0  0  0  0  0
    4.0765   -2.8061    0.7651 H   0  0  0  0  0  0  0  0  0  0  0  0
    0.5555    0.0374    0.2588 H   0  0  0  0  0  0  0  0  0  0  0  0
   -0.7055    3.5860   -0.5470 H   0  0  0  0  0  0  0  0  0  0  0  0
   -1.1338    3.3517    1.1879 H   0  0  0  0  0  0  0  0  0  0  0  0
    0.5513    3.2097    0.6485 H   0  0  0  0  0  0  0  0  0  0  0  0
   -5.1723   -0.1852   -0.2397 H   0  0  0  0  0  0  0  0  0  0  0  0
   -4.6746    0.4484   -1.8349 H   0  0  0  0  0  0  0  0  0  0  0  0
   -5.1555   -1.5696   -2.9357 H   0  0  0  0  0  0  0  0  0  0  0  0
   -6.2803   -1.8350   -1.5985 H   0  0  0  0  0  0  0  0  0  0  0  0
   -4.1852   -3.5915   -2.2329 H   0  0  0  0  0  0  0  0  0  0  0  0
   -4.7895   -3.4121   -0.5586 H   0  0  0  0  0  0  0  0  0  0  0  0
  1  2  1  0
  2  3  1  0
  3  4  1  0
  4  5  2  0
  5  6  1  0
  6  7  1  0
  7  8  2  0
  7  9  1  0
  9 10  1  0
 10 11  1  0
 11 12  1  0
 12 13  2  0
 13 14  1  0
 14 15  1  0
 15 16  2  0
 15 17  1  0
 17 18  1  0
 13 19  1  0
 19 20  1  0
 20 21  1  0
  6 22  2  0
 22  3  1  0
 14 10  2  0
 21 12  1  0
  1 23  1  0
  1 24  1  0
  1 25  1  0
  2 26  1  0
  2 27  1  0
  4 28  1  0
  5 29  1  0
  9 30  1  0
 18 31  1  0
 18 32  1  0
 18 33  1  0
 19 34  1  0
 19 35  1  0
 20 36  1  0
 20 37  1  0
 21 38  1  0
 21 39  1  0
M  END
$$$$
