
     RDKit          3D

 92 95  0  0  0  0  0  0  0  0999 V2000
    1.8834    2.9256   -2.2971 C   0  0  0  0  0  0  0  0  0  0  0  0
    2.9203    2.2371   -1.8038 C   0  0  0  0  0  0  0  0  0  0  0  0
    3.2438    2.1377   -0.3383 C   0  0  0  0  0  0  0  0  0  0  0  0
    3.2293    0.6876    0.1800 C   0  0  0  0  0  0  0  0  0  0  0  0
    3.5478    0.6218    1.6790 C   0  0  0  0  0  0  0  0  0  0  0  0
    5.0441    0.5987    1.9011 C   0  0  0  0  0  0  0  0  0  0  0  0
    5.6369    1.6647    2.0958 O   0  0  0  0  0  0  0  0  0  0  0  0
    5.7279   -0.6010    1.8312 N   0  0  0  0  0  0  0  0  0  0  0  0
    7.1872   -0.5780    2.0288 C   0  0  0  0  0  0  0  0  0  0  0  0
    7.9448   -0.1468    0.7651 C   0  0  0  0  0  0  0  0  0  0  0  0
    7.8412    1.2494    0.5042 O   0  0  0  0  0  0  0  0  0  0  0  0
    5.1333   -1.8935    1.4685 C   0  0  0  0  0  0  0  0  0  0  0  0
    5.1311   -2.8851    2.6115 C   0  0  0  0  0  0  0  0  0  0  0  0
    4.6625   -2.5305    3.8859 C   0  0  0  0  0  0  0  0  0  0  0  0
    4.6427   -3.4647    4.9235 C   0  0  0  0  0  0  0  0  0  0  0  0
    5.0826   -4.7678    4.6976 C   0  0  0  0  0  0  0  0  0  0  0  0
    5.5424   -5.1358    3.4356 C   0  0  0  0  0  0  0  0  0  0  0  0
    5.5621   -4.2027    2.3967 C   0  0  0  0  0  0  0  0  0  0  0  0
    1.9101   -0.0282   -0.0761 C   0  0  0  0  0  0  0  0  0  0  0  0
    1.8701   -1.0996   -0.6741 O   0  0  0  0  0  0  0  0  0  0  0  0
    0.7968    0.5703    0.4631 N   0  0  0  0  0  0  0  0  0  0  0  0
   -0.5573    0.1114    0.1377 C   0  0  0  0  0  0  0  0  0  0  0  0
   -1.0160    0.6751   -1.2218 C   0  0  0  0  0  0  0  0  0  0  0  0
   -2.3345    0.1950   -1.5477 O   0  0  0  0  0  0  0  0  0  0  0  0
   -2.5220   -0.2732   -2.8124 C   0  0  0  0  0  0  0  0  0  0  0  0
   -1.6525   -0.3671   -3.6699 O   0  0  0  0  0  0  0  0  0  0  0  0
   -3.9532   -0.7220   -3.0317 C   0  0  0  0  0  0  0  0  0  0  0  0
   -4.9693    0.3679   -2.6524 C   0  0  0  0  0  0  0  0  0  0  0  0
   -4.7910    1.6482   -3.4244 C   0  0  0  0  0  0  0  0  0  0  0  0
   -5.6713    2.1059   -4.3251 C   0  0  0  0  0  0  0  0  0  0  0  0
   -4.1556   -2.0266   -2.2438 C   0  0  0  0  0  0  0  0  0  0  0  0
   -5.4714   -2.7123   -2.5261 C   0  0  0  0  0  0  0  0  0  0  0  0
   -6.4908   -2.7104   -1.5617 C   0  0  0  0  0  0  0  0  0  0  0  0
   -7.7144   -3.3264   -1.8270 C   0  0  0  0  0  0  0  0  0  0  0  0
   -7.9185   -3.9423   -3.0545 C   0  0  0  0  0  0  0  0  0  0  0  0
   -9.0951   -4.5297   -3.3083 F   0  0  0  0  0  0  0  0  0  0  0  0
   -6.9205   -3.9583   -4.0217 C   0  0  0  0  0  0  0  0  0  0  0  0
   -5.6949   -3.3451   -3.7585 C   0  0  0  0  0  0  0  0  0  0  0  0
   -1.5440    0.3922    1.2911 C   0  0  0  0  0  0  0  0  0  0  0  0
   -1.5930    1.8200    1.7604 C   0  0  0  0  0  0  0  0  0  0  0  0
   -0.7955    2.3798    2.7423 C   0  0  0  0  0  0  0  0  0  0  0  0
   -1.1596    3.6884    2.9047 N   0  0  0  0  0  0  0  0  0  0  0  0
   -2.1886    4.0026    2.0504 C   0  0  0  0  0  0  0  0  0  0  0  0
   -2.8756    5.2099    1.8745 C   0  0  0  0  0  0  0  0  0  0  0  0
   -3.9054    5.2392    0.9302 C   0  0  0  0  0  0  0  0  0  0  0  0
   -4.2358    4.1042    0.1966 C   0  0  0  0  0  0  0  0  0  0  0  0
   -3.5396    2.9062    0.3891 C   0  0  0  0  0  0  0  0  0  0  0  0
   -2.4898    2.8487    1.3269 C   0  0  0  0  0  0  0  0  0  0  0  0
    1.1988    3.4766   -1.6585 H   0  0  0  0  0  0  0  0  0  0  0  0
    1.6975    2.9548   -3.3683 H   0  0  0  0  0  0  0  0  0  0  0  0
    3.5791    1.7074   -2.4912 H   0  0  0  0  0  0  0  0  0  0  0  0
    2.5558    2.7634    0.2436 H   0  0  0  0  0  0  0  0  0  0  0  0
    4.2429    2.5679   -0.1870 H   0  0  0  0  0  0  0  0  0  0  0  0
    3.9889    0.1292   -0.3862 H   0  0  0  0  0  0  0  0  0  0  0  0
    3.1423    1.4940    2.2090 H   0  0  0  0  0  0  0  0  0  0  0  0
    3.0915   -0.2450    2.1706 H   0  0  0  0  0  0  0  0  0  0  0  0
    7.4119    0.1152    2.8485 H   0  0  0  0  0  0  0  0  0  0  0  0
    7.5187   -1.5754    2.3346 H   0  0  0  0  0  0  0  0  0  0  0  0
    9.0096   -0.3714    0.8818 H   0  0  0  0  0  0  0  0  0  0  0  0
    7.5752   -0.6836   -0.1140 H   0  0  0  0  0  0  0  0  0  0  0  0
    7.1164    1.6103    1.0575 H   0  0  0  0  0  0  0  0  0  0  0  0
    5.7125   -2.2803    0.6213 H   0  0  0  0  0  0  0  0  0  0  0  0
    4.1076   -1.7863    1.1124 H   0  0  0  0  0  0  0  0  0  0  0  0
    4.3168   -1.5173    4.0850 H   0  0  0  0  0  0  0  0  0  0  0  0
    4.2823   -3.1776    5.9077 H   0  0  0  0  0  0  0  0  0  0  0  0
    5.0690   -5.4933    5.5067 H   0  0  0  0  0  0  0  0  0  0  0  0
    5.8822   -6.1510    3.2577 H   0  0  0  0  0  0  0  0  0  0  0  0
    5.9151   -4.5181    1.4157 H   0  0  0  0  0  0  0  0  0  0  0  0
    0.8733    1.5300    0.7767 H   0  0  0  0  0  0  0  0  0  0  0  0
   -0.5193   -0.9804    0.0268 H   0  0  0  0  0  0  0  0  0  0  0  0
   -0.2803    0.4106   -1.9895 H   0  0  0  0  0  0  0  0  0  0  0  0
   -1.0604    1.7692   -1.1899 H   0  0  0  0  0  0  0  0  0  0  0  0
   -4.0560   -0.9260   -4.1068 H   0  0  0  0  0  0  0  0  0  0  0  0
   -5.9873   -0.0065   -2.8182 H   0  0  0  0  0  0  0  0  0  0  0  0
   -4.9091    0.5966   -1.5818 H   0  0  0  0  0  0  0  0  0  0  0  0
   -3.8986    2.2389   -3.2227 H   0  0  0  0  0  0  0  0  0  0  0  0
   -6.5819    1.5634   -4.5638 H   0  0  0  0  0  0  0  0  0  0  0  0
   -5.4948    3.0421   -4.8487 H   0  0  0  0  0  0  0  0  0  0  0  0
   -4.0666   -1.8326   -1.1662 H   0  0  0  0  0  0  0  0  0  0  0  0
   -3.3466   -2.7353   -2.4722 H   0  0  0  0  0  0  0  0  0  0  0  0
   -6.3397   -2.2268   -0.5992 H   0  0  0  0  0  0  0  0  0  0  0  0
   -8.5057   -3.3307   -1.0848 H   0  0  0  0  0  0  0  0  0  0  0  0
   -7.1040   -4.4453   -4.9727 H   0  0  0  0  0  0  0  0  0  0  0  0
   -4.9166   -3.3634   -4.5193 H   0  0  0  0  0  0  0  0  0  0  0  0
   -2.5515    0.0570    1.0167 H   0  0  0  0  0  0  0  0  0  0  0  0
   -1.2530   -0.2299    2.1496 H   0  0  0  0  0  0  0  0  0  0  0  0
   -0.0111    1.9491    3.3507 H   0  0  0  0  0  0  0  0  0  0  0  0
   -0.7483    4.3336    3.5653 H   0  0  0  0  0  0  0  0  0  0  0  0
   -2.6254    6.0942    2.4507 H   0  0  0  0  0  0  0  0  0  0  0  0
   -4.4603    6.1612    0.7706 H   0  0  0  0  0  0  0  0  0  0  0  0
   -5.0434    4.1438   -0.5306 H   0  0  0  0  0  0  0  0  0  0  0  0
   -3.8125    2.0277   -0.1827 H   0  0  0  0  0  0  0  0  0  0  0  0
  1  2  2  0
  2  3  1  0
  3  4  1  0
  4  5  1  0
  5  6  1  0
  6  7  2  0
  6  8  1  0
  8  9  1  0
  9 10  1  0
 10 11  1  0
  8 12  1  0
 12 13  1  0
 13 14  2  0
 14 15  1  0
 15 16  2  0
 16 17  1  0
 17 18  2  0
  4 19  1  0
 19 20  2  0
 19 21  1  0
 21 22  1  0
 22 23  1  0
 23 24  1  0
 24 25  1  0
 25 26  2  0
 25 27  1  0
 27 28  1  0
 28 29  1  0
 29 30  2  0
 27 31  1  0
 31 32  1  0
 32 33  2  0
 33 34  1  0
 34 35  2  0
 35 36  1  0
 35 37  1  0
 37 38  2  0
 22 39  1  0
 39 40  1  0
 40 41  2  0
 41 42  1  0
 42 43  1  0
 43 44  2  0
 44 45  1  0
 45 46  2  0
 46 47  1  0
 47 48  2  0
 18 13  1  0
 38 32  1  0
 48 40  1  0
 48 43  1  0
  1 49  1  0
  1 50  1  0
  2 51  1  0
  3 52  1  0
  3 53  1  0
  4 54  1  0
  5 55  1  0
  5 56  1  0
  9 57  1  0
  9 58  1  0
 10 59  1  0
 10 60  1  0
 11 61  1  0
 12 62  1  0
 12 63  1  0
 14 64  1  0
 15 65  1  0
 16 66  1  0
 17 67  1  0
 18 68  1  0
 21 69  1  0
 22 70  1  0
 23 71  1  0
 23 72  1  0
 27 73  1  0
 28 74  1  0
 28 75  1  0
 29 76  1  0
 30 77  1  0
 30 78  1  0
 31 79  1  0
 31 80  1  0
 33 81  1  0
 34 82  1  0
 37 83  1  0
 38 84  1  0
 39 85  1  0
 39 86  1  0
 41 87  1  0
 42 88  1  0
 44 89  1  0
 45 90  1  0
 46 91  1  0
 47 92  1  0
M  END
$$$$
