
     RDKit          3D

 40 42  0  0  0  0  0  0  0  0999 V2000
   -5.7911   -1.3116    1.1020 C   0  0  0  0  0  0  0  0  0  0  0  0
   -5.3563    0.1302    0.7812 C   0  0  0  0  0  0  0  0  0  0  0  0
   -5.8872    1.0482    1.9036 C   0  0  0  0  0  0  0  0  0  0  0  0
   -5.9958    0.5828   -0.5443 C   0  0  0  0  0  0  0  0  0  0  0  0
   -3.8398    0.2299    0.7074 C   0  0  0  0  0  0  0  0  0  0  0  0
   -3.0970    0.9902    1.4899 N   0  0  0  0  0  0  0  0  0  0  0  0
   -1.7518    0.8873    1.2043 N   0  0  0  0  0  0  0  0  0  0  0  0
   -1.5162    0.0545    0.2166 C   0  0  0  0  0  0  0  0  0  0  0  0
   -0.2493   -0.2016   -0.2356 N   0  0  0  0  0  0  0  0  0  0  0  0
    0.1249   -1.0461   -1.2539 C   0  0  0  0  0  0  0  0  0  0  0  0
   -0.6133   -1.7339   -1.9535 O   0  0  0  0  0  0  0  0  0  0  0  0
    1.6407   -1.0746   -1.4751 C   0  0  0  0  0  0  0  0  0  0  0  0
    2.3122   -0.2093   -0.5629 O   0  0  0  0  0  0  0  0  0  0  0  0
    3.6764   -0.1440   -0.6573 C   0  0  0  0  0  0  0  0  0  0  0  0
    4.4712   -0.8562   -1.5758 C   0  0  0  0  0  0  0  0  0  0  0  0
    5.8645   -0.7084   -1.5789 C   0  0  0  0  0  0  0  0  0  0  0  0
    6.4239    0.1510   -0.6596 C   0  0  0  0  0  0  0  0  0  0  0  0
    5.6517    0.8472    0.2375 C   0  0  0  0  0  0  0  0  0  0  0  0
    4.2791    0.7214    0.2635 C   0  0  0  0  0  0  0  0  0  0  0  0
    6.3943    1.6390    1.0563 O   0  0  0  0  0  0  0  0  0  0  0  0
    7.7242    1.3605    0.5705 C   0  0  0  0  0  0  0  0  0  0  0  0
    7.7496    0.4155   -0.5201 O   0  0  0  0  0  0  0  0  0  0  0  0
   -2.9101   -0.6657   -0.4387 S   0  0  0  0  0  0  0  0  0  0  0  0
   -6.8782   -1.3776    1.2263 H   0  0  0  0  0  0  0  0  0  0  0  0
   -5.3266   -1.6698    2.0284 H   0  0  0  0  0  0  0  0  0  0  0  0
   -5.5142   -2.0097    0.3040 H   0  0  0  0  0  0  0  0  0  0  0  0
   -5.4757    0.7654    2.8799 H   0  0  0  0  0  0  0  0  0  0  0  0
   -6.9795    0.9945    1.9775 H   0  0  0  0  0  0  0  0  0  0  0  0
   -5.6195    2.0963    1.7233 H   0  0  0  0  0  0  0  0  0  0  0  0
   -7.0898    0.5808   -0.4757 H   0  0  0  0  0  0  0  0  0  0  0  0
   -5.7231   -0.0763   -1.3762 H   0  0  0  0  0  0  0  0  0  0  0  0
   -5.6797    1.5981   -0.8116 H   0  0  0  0  0  0  0  0  0  0  0  0
    0.4835    0.3018    0.2526 H   0  0  0  0  0  0  0  0  0  0  0  0
    1.8197   -0.7486   -2.5062 H   0  0  0  0  0  0  0  0  0  0  0  0
    1.9668   -2.1100   -1.3231 H   0  0  0  0  0  0  0  0  0  0  0  0
    4.0373   -1.5353   -2.3032 H   0  0  0  0  0  0  0  0  0  0  0  0
    6.4859   -1.2522   -2.2819 H   0  0  0  0  0  0  0  0  0  0  0  0
    3.6885    1.2807    0.9805 H   0  0  0  0  0  0  0  0  0  0  0  0
    8.1775    2.2991    0.2316 H   0  0  0  0  0  0  0  0  0  0  0  0
    8.3224    0.9588    1.3965 H   0  0  0  0  0  0  0  0  0  0  0  0
  1  2  1  0
  2  3  1  0
  2  4  1  0
  2  5  1  0
  5  6  2  0
  6  7  1  0
  7  8  2  0
  8  9  1  0
  9 10  1  0
 10 11  2  0
 10 12  1  0
 12 13  1  0
 13 14  1  0
 14 15  2  0
 15 16  1  0
 16 17  2  0
 17 18  1  0
 18 19  2  0
 18 20  1  0
 20 21  1  0
 21 22  1  0
  8 23  1  0
 23  5  1  0
 19 14  1  0
 22 17  1  0
  1 24  1  0
  1 25  1  0
  1 26  1  0
  3 27  1  0
  3 28  1  0
  3 29  1  0
  4 30  1  0
  4 31  1  0
  4 32  1  0
  9 33  1  0
 12 34  1  0
 12 35  1  0
 15 36  1  0
 16 37  1  0
 19 38  1  0
 21 39  1  0
 21 40  1  0
M  END
$$$$
