
     RDKit          3D

 56 61  0  0  0  0  0  0  0  0999 V2000
    5.1258   -0.2707   -1.6365 C   0  0  0  0  0  0  0  0  0  0  0  0
    3.9859   -1.0977   -1.1308 C   0  0  0  0  0  0  0  0  0  0  0  0
    3.7930   -2.3989   -1.5868 C   0  0  0  0  0  0  0  0  0  0  0  0
    2.7384   -3.1572   -1.0901 C   0  0  0  0  0  0  0  0  0  0  0  0
    1.8718   -2.6222   -0.1341 C   0  0  0  0  0  0  0  0  0  0  0  0
    2.0262   -1.3100    0.3307 C   0  0  0  0  0  0  0  0  0  0  0  0
    3.1123   -0.5718   -0.1649 C   0  0  0  0  0  0  0  0  0  0  0  0
    1.0589   -0.7343    1.3556 C   0  0  0  0  0  0  0  0  0  0  0  0
   -0.1865   -1.6139    1.4955 C   0  0  0  0  0  0  0  0  0  0  0  0
    0.2123   -3.0764    1.4623 C   0  0  0  0  0  0  0  0  0  0  0  0
    0.8570   -3.4534    0.2535 O   0  0  0  0  0  0  0  0  0  0  0  0
   -1.0553   -1.1196    0.3126 C   0  0  0  0  0  0  0  0  0  0  0  0
   -2.4470   -1.7082    0.1603 C   0  0  0  0  0  0  0  0  0  0  0  0
   -3.0317   -1.7511   -1.1155 C   0  0  0  0  0  0  0  0  0  0  0  0
   -4.3052   -2.2897   -1.3094 C   0  0  0  0  0  0  0  0  0  0  0  0
   -5.0139   -2.8088   -0.2339 C   0  0  0  0  0  0  0  0  0  0  0  0
   -4.4483   -2.7911    1.0384 C   0  0  0  0  0  0  0  0  0  0  0  0
   -3.1766   -2.2464    1.2308 C   0  0  0  0  0  0  0  0  0  0  0  0
   -0.8641    0.4460    0.4075 C   0  0  0  0  0  0  0  0  0  0  0  0
   -0.9729    1.0496   -1.0042 C   0  0  0  0  0  0  0  0  0  0  0  0
   -1.8515    1.1317    1.3978 C   0  0  0  0  0  0  0  0  0  0  0  0
   -2.8190    0.5711    1.9118 O   0  0  0  0  0  0  0  0  0  0  0  0
   -1.7504    2.4732    1.6419 N   0  0  0  0  0  0  0  0  0  0  0  0
   -0.7547    3.3846    1.2687 C   0  0  0  0  0  0  0  0  0  0  0  0
   -1.1533    4.7272    1.1826 C   0  0  0  0  0  0  0  0  0  0  0  0
   -0.2416    5.7076    0.8028 C   0  0  0  0  0  0  0  0  0  0  0  0
   -0.6499    6.9788    0.7084 F   0  0  0  0  0  0  0  0  0  0  0  0
    1.0769    5.3740    0.5274 C   0  0  0  0  0  0  0  0  0  0  0  0
    1.9605    6.3232    0.1779 F   0  0  0  0  0  0  0  0  0  0  0  0
    1.4985    4.0580    0.6477 C   0  0  0  0  0  0  0  0  0  0  0  0
    0.5848    3.0534    1.0196 C   0  0  0  0  0  0  0  0  0  0  0  0
    1.1680    1.7297    1.3130 C   0  0  0  0  0  0  0  0  0  0  0  0
    2.2599    1.7244    1.8813 O   0  0  0  0  0  0  0  0  0  0  0  0
    0.4972    0.5730    0.9837 N   0  0  0  0  0  0  0  0  0  0  0  0
    5.5983   -0.7316   -2.5100 H   0  0  0  0  0  0  0  0  0  0  0  0
    4.7665    0.7174   -1.9404 H   0  0  0  0  0  0  0  0  0  0  0  0
    5.8779   -0.1536   -0.8535 H   0  0  0  0  0  0  0  0  0  0  0  0
    4.4585   -2.8344   -2.3275 H   0  0  0  0  0  0  0  0  0  0  0  0
    2.5899   -4.1765   -1.4442 H   0  0  0  0  0  0  0  0  0  0  0  0
    3.2967    0.4313    0.1990 H   0  0  0  0  0  0  0  0  0  0  0  0
    1.5860   -0.6586    2.3147 H   0  0  0  0  0  0  0  0  0  0  0  0
   -0.6818   -1.3898    2.4461 H   0  0  0  0  0  0  0  0  0  0  0  0
   -0.6681   -3.7159    1.5712 H   0  0  0  0  0  0  0  0  0  0  0  0
    0.8744   -3.3194    2.3026 H   0  0  0  0  0  0  0  0  0  0  0  0
   -0.5420   -1.4418   -0.6052 H   0  0  0  0  0  0  0  0  0  0  0  0
   -2.4930   -1.3697   -1.9829 H   0  0  0  0  0  0  0  0  0  0  0  0
   -4.7398   -2.3028   -2.3043 H   0  0  0  0  0  0  0  0  0  0  0  0
   -6.0082   -3.2236   -0.3815 H   0  0  0  0  0  0  0  0  0  0  0  0
   -5.0005   -3.1927    1.8860 H   0  0  0  0  0  0  0  0  0  0  0  0
   -2.7846   -2.2236    2.2404 H   0  0  0  0  0  0  0  0  0  0  0  0
   -0.2390    0.6010   -1.6823 H   0  0  0  0  0  0  0  0  0  0  0  0
   -0.8086    2.1250   -1.0422 H   0  0  0  0  0  0  0  0  0  0  0  0
   -1.9712    0.8898   -1.4192 H   0  0  0  0  0  0  0  0  0  0  0  0
   -2.5876    2.8312    2.0949 H   0  0  0  0  0  0  0  0  0  0  0  0
   -2.1781    5.0309    1.3915 H   0  0  0  0  0  0  0  0  0  0  0  0
    2.5488    3.8235    0.4865 H   0  0  0  0  0  0  0  0  0  0  0  0
  1  2  1  0
  2  3  2  0
  3  4  1  0
  4  5  2  0
  5  6  1  0
  6  7  2  0
  6  8  1  0
  8  9  1  0
  9 10  1  0
 10 11  1  0
  9 12  1  0
 12 13  1  0
 13 14  2  0
 14 15  1  0
 15 16  2  0
 16 17  1  0
 17 18  2  0
 12 19  1  0
 19 20  1  0
 19 21  1  0
 21 22  2  0
 21 23  1  0
 23 24  1  0
 24 25  2  0
 25 26  1  0
 26 27  1  0
 26 28  2  0
 28 29  1  0
 28 30  1  0
 30 31  2  0
 31 32  1  0
 32 33  2  0
 32 34  1  0
  7  2  1  0
 34  8  1  0
 11  5  1  0
 18 13  1  0
 34 19  1  0
 31 24  1  0
  1 35  1  0
  1 36  1  0
  1 37  1  0
  3 38  1  0
  4 39  1  0
  7 40  1  0
  8 41  1  0
  9 42  1  0
 10 43  1  0
 10 44  1  0
 12 45  1  0
 14 46  1  0
 15 47  1  0
 16 48  1  0
 17 49  1  0
 18 50  1  0
 20 51  1  0
 20 52  1  0
 20 53  1  0
 23 54  1  0
 25 55  1  0
 30 56  1  0
M  END
$$$$
