
     RDKit          3D

 55 58  0  0  0  0  0  0  0  0999 V2000
    6.7334   -1.9840   -1.5677 C   0  0  0  0  0  0  0  0  0  0  0  0
    6.7906   -1.3980   -0.1634 C   0  0  0  0  0  0  0  0  0  0  0  0
    6.0484   -0.1309   -0.0842 N   0  0  0  0  0  0  0  0  0  0  0  0
    6.6883    0.9332    0.7115 C   0  0  0  0  0  0  0  0  0  0  0  0
    6.5293    0.6951    2.2077 C   0  0  0  0  0  0  0  0  0  0  0  0
    4.6504   -0.1169   -0.1421 C   0  0  0  0  0  0  0  0  0  0  0  0
    3.9633    1.0621   -0.4747 C   0  0  0  0  0  0  0  0  0  0  0  0
    2.5637    1.1178   -0.5428 C   0  0  0  0  0  0  0  0  0  0  0  0
    1.7947   -0.0144   -0.2740 C   0  0  0  0  0  0  0  0  0  0  0  0
    0.3278   -0.0137   -0.3623 C   0  0  0  0  0  0  0  0  0  0  0  0
   -0.4407    1.0132    0.0379 C   0  0  0  0  0  0  0  0  0  0  0  0
   -1.9057    1.0692   -0.0365 C   0  0  0  0  0  0  0  0  0  0  0  0
   -2.7151   -0.0546   -0.0187 C   0  0  0  0  0  0  0  0  0  0  0  0
   -4.1065    0.0999   -0.0681 C   0  0  0  0  0  0  0  0  0  0  0  0
   -4.9458   -1.1070   -0.0540 C   0  0  0  0  0  0  0  0  0  0  0  0
   -5.3883   -1.6571    1.1587 C   0  0  0  0  0  0  0  0  0  0  0  0
   -6.1829   -2.8054    1.1719 C   0  0  0  0  0  0  0  0  0  0  0  0
   -6.5426   -3.4181   -0.0269 C   0  0  0  0  0  0  0  0  0  0  0  0
   -6.1087   -2.8849   -1.2390 C   0  0  0  0  0  0  0  0  0  0  0  0
   -5.3140   -1.7367   -1.2527 C   0  0  0  0  0  0  0  0  0  0  0  0
   -4.6496    1.4078   -0.1253 C   0  0  0  0  0  0  0  0  0  0  0  0
   -6.0378    1.6869   -0.1805 C   0  0  0  0  0  0  0  0  0  0  0  0
   -6.5106    2.9971   -0.2317 C   0  0  0  0  0  0  0  0  0  0  0  0
   -5.6068    4.0490   -0.2280 C   0  0  0  0  0  0  0  0  0  0  0  0
   -4.2370    3.7824   -0.1735 C   0  0  0  0  0  0  0  0  0  0  0  0
   -3.7401    2.4866   -0.1228 C   0  0  0  0  0  0  0  0  0  0  0  0
   -2.4088    2.3214   -0.0727 N   0  0  0  0  0  0  0  0  0  0  0  0
    2.4581   -1.2045    0.0277 C   0  0  0  0  0  0  0  0  0  0  0  0
    3.8594   -1.2504    0.0924 C   0  0  0  0  0  0  0  0  0  0  0  0
    5.7153   -2.2602   -1.8570 H   0  0  0  0  0  0  0  0  0  0  0  0
    7.3533   -2.8844   -1.6257 H   0  0  0  0  0  0  0  0  0  0  0  0
    7.1069   -1.2654   -2.3051 H   0  0  0  0  0  0  0  0  0  0  0  0
    7.8492   -1.2203    0.0653 H   0  0  0  0  0  0  0  0  0  0  0  0
    6.4467   -2.1195    0.5858 H   0  0  0  0  0  0  0  0  0  0  0  0
    6.3061    1.9263    0.4537 H   0  0  0  0  0  0  0  0  0  0  0  0
    7.7578    0.9701    0.4688 H   0  0  0  0  0  0  0  0  0  0  0  0
    5.4759    0.7062    2.5051 H   0  0  0  0  0  0  0  0  0  0  0  0
    7.0466    1.4785    2.7706 H   0  0  0  0  0  0  0  0  0  0  0  0
    6.9524   -0.2701    2.5043 H   0  0  0  0  0  0  0  0  0  0  0  0
    4.5155    1.9626   -0.7292 H   0  0  0  0  0  0  0  0  0  0  0  0
    2.0933    2.0553   -0.8289 H   0  0  0  0  0  0  0  0  0  0  0  0
   -0.1095   -0.9172   -0.7778 H   0  0  0  0  0  0  0  0  0  0  0  0
    0.0076    1.9162    0.4453 H   0  0  0  0  0  0  0  0  0  0  0  0
   -2.2863   -1.0496    0.0439 H   0  0  0  0  0  0  0  0  0  0  0  0
   -5.1154   -1.1880    2.1021 H   0  0  0  0  0  0  0  0  0  0  0  0
   -6.5202   -3.2207    2.1180 H   0  0  0  0  0  0  0  0  0  0  0  0
   -7.1610   -4.3120   -0.0164 H   0  0  0  0  0  0  0  0  0  0  0  0
   -6.3882   -3.3622   -2.1746 H   0  0  0  0  0  0  0  0  0  0  0  0
   -4.9828   -1.3301   -2.2064 H   0  0  0  0  0  0  0  0  0  0  0  0
   -6.7644    0.8765   -0.1835 H   0  0  0  0  0  0  0  0  0  0  0  0
   -7.5792    3.1910   -0.2738 H   0  0  0  0  0  0  0  0  0  0  0  0
   -5.9587    5.0763   -0.2674 H   0  0  0  0  0  0  0  0  0  0  0  0
   -3.5335    4.6122   -0.1714 H   0  0  0  0  0  0  0  0  0  0  0  0
    1.8964   -2.1138    0.2279 H   0  0  0  0  0  0  0  0  0  0  0  0
    4.3101   -2.2028    0.3509 H   0  0  0  0  0  0  0  0  0  0  0  0
  1  2  1  0
  2  3  1  0
  3  4  1  0
  4  5  1  0
  3  6  1  0
  6  7  2  0
  7  8  1  0
  8  9  2  0
  9 10  1  0
 10 11  2  3
 11 12  1  0
 12 13  2  0
 13 14  1  0
 14 15  1  0
 15 16  2  0
 16 17  1  0
 17 18  2  0
 18 19  1  0
 19 20  2  0
 14 21  2  0
 21 22  1  0
 22 23  2  0
 23 24  1  0
 24 25  2  0
 25 26  1  0
 26 27  2  0
  9 28  1  0
 28 29  2  0
 29  6  1  0
 27 12  1  0
 20 15  1  0
 26 21  1  0
  1 30  1  0
  1 31  1  0
  1 32  1  0
  2 33  1  0
  2 34  1  0
  4 35  1  0
  4 36  1  0
  5 37  1  0
  5 38  1  0
  5 39  1  0
  7 40  1  0
  8 41  1  0
 10 42  1  0
 11 43  1  0
 13 44  1  0
 16 45  1  0
 17 46  1  0
 18 47  1  0
 19 48  1  0
 20 49  1  0
 22 50  1  0
 23 51  1  0
 24 52  1  0
 25 53  1  0
 28 54  1  0
 29 55  1  0
M  END
$$$$
