
     RDKit          3D

 60 64  0  0  0  0  0  0  0  0999 V2000
   -8.0765    2.3807   -0.4077 C   0  0  0  0  0  0  0  0  0  0  0  0
   -7.0617    1.6092    0.3851 C   0  0  0  0  0  0  0  0  0  0  0  0
   -6.9398    1.8126    1.7655 C   0  0  0  0  0  0  0  0  0  0  0  0
   -6.0109    1.0816    2.5100 C   0  0  0  0  0  0  0  0  0  0  0  0
   -5.1977    0.1222    1.8896 C   0  0  0  0  0  0  0  0  0  0  0  0
   -4.1834   -0.6553    2.6890 C   0  0  0  0  0  0  0  0  0  0  0  0
   -2.9475    0.0814    2.8478 N   0  0  0  0  0  0  0  0  0  0  0  0
   -2.6766    0.7436    4.0005 N   0  0  0  0  0  0  0  0  0  0  0  0
   -1.4627    1.2823    3.8827 N   0  0  0  0  0  0  0  0  0  0  0  0
   -0.9813    0.9323    2.6583 C   0  0  0  0  0  0  0  0  0  0  0  0
    0.2693    1.2327    2.0148 C   0  0  0  0  0  0  0  0  0  0  0  0
    1.1747    1.8968    2.5047 O   0  0  0  0  0  0  0  0  0  0  0  0
    0.3540    0.6656    0.7463 N   0  0  0  0  0  0  0  0  0  0  0  0
   -0.6469   -0.1017    0.1639 C   0  0  0  0  0  0  0  0  0  0  0  0
   -0.3933   -0.6778   -1.2286 C   0  0  0  0  0  0  0  0  0  0  0  0
    0.5673   -1.8742   -1.1723 C   0  0  0  0  0  0  0  0  0  0  0  0
    2.0404   -1.4907   -1.2417 C   0  0  0  0  0  0  0  0  0  0  0  0
    2.3291   -0.4753   -2.2926 N   0  0  0  0  0  0  0  0  0  0  0  0
    3.3240    0.8294   -1.8056 S   0  0  0  0  0  6  0  0  0  0  0  0
    3.5976    1.6596   -2.9584 O   0  0  0  0  0  0  0  0  0  0  0  0
    2.6871    1.3636   -0.6166 O   0  0  0  0  0  0  0  0  0  0  0  0
    4.8319    0.0222   -1.3463 C   0  0  0  0  0  0  0  0  0  0  0  0
    5.3220    0.1320   -0.0442 C   0  0  0  0  0  0  0  0  0  0  0  0
    6.5059   -0.5245    0.3009 C   0  0  0  0  0  0  0  0  0  0  0  0
    7.1978   -1.2897   -0.6487 C   0  0  0  0  0  0  0  0  0  0  0  0
    8.4840   -1.9817   -0.2931 C   0  0  0  0  0  0  0  0  0  0  0  0
    6.6968   -1.3819   -1.9553 C   0  0  0  0  0  0  0  0  0  0  0  0
    5.5159   -0.7265   -2.3076 C   0  0  0  0  0  0  0  0  0  0  0  0
    1.1680   -0.0915   -3.1288 C   0  0  0  0  0  0  0  0  0  0  0  0
    0.0118    0.3791   -2.2604 C   0  0  0  0  0  0  0  0  0  0  0  0
   -1.7759   -0.3952    0.7530 N   0  0  0  0  0  0  0  0  0  0  0  0
   -1.8920    0.1578    1.9842 C   0  0  0  0  0  0  0  0  0  0  0  0
   -5.3287   -0.0866    0.5089 C   0  0  0  0  0  0  0  0  0  0  0  0
   -6.2570    0.6461   -0.2345 C   0  0  0  0  0  0  0  0  0  0  0  0
   -7.7959    2.4313   -1.4664 H   0  0  0  0  0  0  0  0  0  0  0  0
   -8.1516    3.4094   -0.0437 H   0  0  0  0  0  0  0  0  0  0  0  0
   -9.0576    1.8999   -0.3285 H   0  0  0  0  0  0  0  0  0  0  0  0
   -7.5636    2.5497    2.2685 H   0  0  0  0  0  0  0  0  0  0  0  0
   -5.9202    1.2728    3.5792 H   0  0  0  0  0  0  0  0  0  0  0  0
   -4.5751   -0.8902    3.6855 H   0  0  0  0  0  0  0  0  0  0  0  0
   -3.9459   -1.6113    2.2073 H   0  0  0  0  0  0  0  0  0  0  0  0
    1.2046    0.9207    0.2471 H   0  0  0  0  0  0  0  0  0  0  0  0
   -1.3630   -1.0837   -1.5562 H   0  0  0  0  0  0  0  0  0  0  0  0
    0.3421   -2.5381   -2.0194 H   0  0  0  0  0  0  0  0  0  0  0  0
    0.3936   -2.4718   -0.2686 H   0  0  0  0  0  0  0  0  0  0  0  0
    2.3618   -1.1457   -0.2548 H   0  0  0  0  0  0  0  0  0  0  0  0
    2.6343   -2.3844   -1.4667 H   0  0  0  0  0  0  0  0  0  0  0  0
    4.8022    0.7249    0.7010 H   0  0  0  0  0  0  0  0  0  0  0  0
    6.8899   -0.4309    1.3142 H   0  0  0  0  0  0  0  0  0  0  0  0
    8.4327   -3.0427   -0.5601 H   0  0  0  0  0  0  0  0  0  0  0  0
    8.6891   -1.9182    0.7774 H   0  0  0  0  0  0  0  0  0  0  0  0
    9.3214   -1.5166   -0.8253 H   0  0  0  0  0  0  0  0  0  0  0  0
    7.2299   -1.9615   -2.7078 H   0  0  0  0  0  0  0  0  0  0  0  0
    5.1373   -0.7983   -3.3261 H   0  0  0  0  0  0  0  0  0  0  0  0
    1.4435    0.6858   -3.8478 H   0  0  0  0  0  0  0  0  0  0  0  0
    0.8728   -0.9567   -3.7341 H   0  0  0  0  0  0  0  0  0  0  0  0
    0.2614    1.3348   -1.7902 H   0  0  0  0  0  0  0  0  0  0  0  0
   -0.8475    0.5937   -2.9070 H   0  0  0  0  0  0  0  0  0  0  0  0
   -4.7002   -0.8156   -0.0008 H   0  0  0  0  0  0  0  0  0  0  0  0
   -6.3417    0.4647   -1.3047 H   0  0  0  0  0  0  0  0  0  0  0  0
  1  2  1  0
  2  3  2  0
  3  4  1  0
  4  5  2  0
  5  6  1  0
  6  7  1  0
  7  8  1  0
  8  9  2  0
  9 10  1  0
 10 11  1  0
 11 12  2  0
 11 13  1  0
 13 14  1  0
 14 15  1  0
 15 16  1  0
 16 17  1  0
 17 18  1  0
 18 19  1  0
 19 20  2  0
 19 21  2  0
 19 22  1  0
 22 23  2  0
 23 24  1  0
 24 25  2  0
 25 26  1  0
 25 27  1  0
 27 28  2  0
 18 29  1  0
 29 30  1  0
 14 31  2  0
 31 32  1  0
  5 33  1  0
 33 34  2  0
 34  2  1  0
 32  7  1  0
 32 10  2  0
 30 15  1  0
 28 22  1  0
  1 35  1  0
  1 36  1  0
  1 37  1  0
  3 38  1  0
  4 39  1  0
  6 40  1  0
  6 41  1  0
 13 42  1  0
 15 43  1  0
 16 44  1  0
 16 45  1  0
 17 46  1  0
 17 47  1  0
 23 48  1  0
 24 49  1  0
 26 50  1  0
 26 51  1  0
 26 52  1  0
 27 53  1  0
 28 54  1  0
 29 55  1  0
 29 56  1  0
 30 57  1  0
 30 58  1  0
 33 59  1  0
 34 60  1  0
M  END
$$$$
