
     RDKit          3D

 60 64  0  0  0  0  0  0  0  0999 V2000
   -4.2565    4.7565    2.4240 C   0  0  0  0  0  0  0  0  0  0  0  0
   -4.4619    3.4075    1.8010 C   0  0  0  0  0  0  0  0  0  0  0  0
   -5.6342    3.1273    1.0910 C   0  0  0  0  0  0  0  0  0  0  0  0
   -5.8405    1.8632    0.5341 C   0  0  0  0  0  0  0  0  0  0  0  0
   -4.8831    0.8515    0.6900 C   0  0  0  0  0  0  0  0  0  0  0  0
   -5.0973   -0.5077    0.0734 C   0  0  0  0  0  0  0  0  0  0  0  0
   -4.7440   -0.5144   -1.3309 N   0  0  0  0  0  0  0  0  0  0  0  0
   -5.6977   -0.4064   -2.2906 N   0  0  0  0  0  0  0  0  0  0  0  0
   -5.0895   -0.4608   -3.4764 N   0  0  0  0  0  0  0  0  0  0  0  0
   -3.7591   -0.6215   -3.2408 C   0  0  0  0  0  0  0  0  0  0  0  0
   -2.6493   -0.7378   -4.1470 C   0  0  0  0  0  0  0  0  0  0  0  0
   -2.7129   -0.7144   -5.3710 O   0  0  0  0  0  0  0  0  0  0  0  0
   -1.4417   -0.8882   -3.4750 N   0  0  0  0  0  0  0  0  0  0  0  0
   -1.3143   -0.9221   -2.0873 C   0  0  0  0  0  0  0  0  0  0  0  0
    0.1106   -1.1146   -1.5925 C   0  0  0  0  0  0  0  0  0  0  0  0
    0.2718   -0.7354   -0.1194 C   0  0  0  0  0  0  0  0  0  0  0  0
    1.7168   -0.9079    0.3441 C   0  0  0  0  0  0  0  0  0  0  0  0
    2.3585   -2.1177   -0.2512 N   0  0  0  0  0  0  0  0  0  0  0  0
    3.6596   -2.7705    0.6583 S   0  0  0  0  0  6  0  0  0  0  0  0
    3.1637   -3.0224    1.9958 O   0  0  0  0  0  0  0  0  0  0  0  0
    4.2722   -3.8235   -0.1241 O   0  0  0  0  0  0  0  0  0  0  0  0
    4.8026   -1.4143    0.7170 C   0  0  0  0  0  0  0  0  0  0  0  0
    5.0268   -0.7380    1.9179 C   0  0  0  0  0  0  0  0  0  0  0  0
    5.9216    0.3329    1.9434 C   0  0  0  0  0  0  0  0  0  0  0  0
    6.6043    0.7179    0.7800 C   0  0  0  0  0  0  0  0  0  0  0  0
    7.5388    1.8923    0.8027 C   0  0  0  0  0  0  0  0  0  0  0  0
    6.3676    0.0289   -0.4180 C   0  0  0  0  0  0  0  0  0  0  0  0
    5.4743   -1.0425   -0.4511 C   0  0  0  0  0  0  0  0  0  0  0  0
    1.3815   -3.1406   -0.6939 C   0  0  0  0  0  0  0  0  0  0  0  0
    0.5586   -2.5644   -1.8452 C   0  0  0  0  0  0  0  0  0  0  0  0
   -2.3187   -0.8383   -1.2591 N   0  0  0  0  0  0  0  0  0  0  0  0
   -3.5084   -0.6766   -1.8903 C   0  0  0  0  0  0  0  0  0  0  0  0
   -3.7128    1.1320    1.4081 C   0  0  0  0  0  0  0  0  0  0  0  0
   -3.5085    2.3963    1.9652 C   0  0  0  0  0  0  0  0  0  0  0  0
   -3.1899    5.0001    2.4866 H   0  0  0  0  0  0  0  0  0  0  0  0
   -4.7337    5.5397    1.8243 H   0  0  0  0  0  0  0  0  0  0  0  0
   -4.6830    4.7720    3.4323 H   0  0  0  0  0  0  0  0  0  0  0  0
   -6.3945    3.8949    0.9604 H   0  0  0  0  0  0  0  0  0  0  0  0
   -6.7540    1.6762   -0.0287 H   0  0  0  0  0  0  0  0  0  0  0  0
   -4.4935   -1.2726    0.5758 H   0  0  0  0  0  0  0  0  0  0  0  0
   -6.1457   -0.8151    0.1680 H   0  0  0  0  0  0  0  0  0  0  0  0
   -0.6322   -0.9633   -4.0738 H   0  0  0  0  0  0  0  0  0  0  0  0
    0.7503   -0.4480   -2.1879 H   0  0  0  0  0  0  0  0  0  0  0  0
   -0.3844   -1.3577    0.5039 H   0  0  0  0  0  0  0  0  0  0  0  0
   -0.0455    0.3005    0.0519 H   0  0  0  0  0  0  0  0  0  0  0  0
    1.7325   -0.9405    1.4389 H   0  0  0  0  0  0  0  0  0  0  0  0
    2.2980   -0.0346    0.0244 H   0  0  0  0  0  0  0  0  0  0  0  0
    4.5137   -1.0327    2.8309 H   0  0  0  0  0  0  0  0  0  0  0  0
    6.0883    0.8643    2.8789 H   0  0  0  0  0  0  0  0  0  0  0  0
    6.9993    2.8041    0.5249 H   0  0  0  0  0  0  0  0  0  0  0  0
    7.9733    2.0284    1.7991 H   0  0  0  0  0  0  0  0  0  0  0  0
    8.3686    1.7434    0.1033 H   0  0  0  0  0  0  0  0  0  0  0  0
    6.8830    0.3219   -1.3311 H   0  0  0  0  0  0  0  0  0  0  0  0
    5.3040   -1.5796   -1.3817 H   0  0  0  0  0  0  0  0  0  0  0  0
    0.7363   -3.4350    0.1424 H   0  0  0  0  0  0  0  0  0  0  0  0
    1.8890   -4.0411   -1.0547 H   0  0  0  0  0  0  0  0  0  0  0  0
    1.1612   -2.5827   -2.7629 H   0  0  0  0  0  0  0  0  0  0  0  0
   -0.2963   -3.2264   -2.0325 H   0  0  0  0  0  0  0  0  0  0  0  0
   -2.9477    0.3681    1.5348 H   0  0  0  0  0  0  0  0  0  0  0  0
   -2.5962    2.5891    2.5251 H   0  0  0  0  0  0  0  0  0  0  0  0
  1  2  1  0
  2  3  2  0
  3  4  1  0
  4  5  2  0
  5  6  1  0
  6  7  1  0
  7  8  1  0
  8  9  2  0
  9 10  1  0
 10 11  1  0
 11 12  2  0
 11 13  1  0
 13 14  1  0
 14 15  1  0
 15 16  1  0
 16 17  1  0
 17 18  1  0
 18 19  1  0
 19 20  2  0
 19 21  2  0
 19 22  1  0
 22 23  2  0
 23 24  1  0
 24 25  2  0
 25 26  1  0
 25 27  1  0
 27 28  2  0
 18 29  1  0
 29 30  1  0
 14 31  2  0
 31 32  1  0
  5 33  1  0
 33 34  2  0
 34  2  1  0
 32  7  1  0
 32 10  2  0
 30 15  1  0
 28 22  1  0
  1 35  1  0
  1 36  1  0
  1 37  1  0
  3 38  1  0
  4 39  1  0
  6 40  1  0
  6 41  1  0
 13 42  1  0
 15 43  1  0
 16 44  1  0
 16 45  1  0
 17 46  1  0
 17 47  1  0
 23 48  1  0
 24 49  1  0
 26 50  1  0
 26 51  1  0
 26 52  1  0
 27 53  1  0
 28 54  1  0
 29 55  1  0
 29 56  1  0
 30 57  1  0
 30 58  1  0
 33 59  1  0
 34 60  1  0
M  END
$$$$
