
     RDKit          3D

 53 56  0  0  0  0  0  0  0  0999 V2000
   -7.5583    2.9032   -2.1116 C   0  0  0  0  0  0  0  0  0  0  0  0
   -6.3809    2.1877   -1.5187 C   0  0  0  0  0  0  0  0  0  0  0  0
   -6.5631    1.0280   -0.7585 C   0  0  0  0  0  0  0  0  0  0  0  0
   -5.4653    0.3364   -0.2306 C   0  0  0  0  0  0  0  0  0  0  0  0
   -4.1640    0.7988   -0.4531 C   0  0  0  0  0  0  0  0  0  0  0  0
   -3.0117    0.1237    0.0574 N   0  0  0  0  0  0  0  0  0  0  0  0
   -1.8023    0.3845   -0.5093 N   0  0  0  0  0  0  0  0  0  0  0  0
   -0.9723   -0.5236    0.0085 C   0  0  0  0  0  0  0  0  0  0  0  0
    0.4335   -0.7051   -0.3288 C   0  0  0  0  0  0  0  0  0  0  0  0
    1.0312   -0.0359   -1.1692 O   0  0  0  0  0  0  0  0  0  0  0  0
    1.0361   -1.7468    0.4027 N   0  0  0  0  0  0  0  0  0  0  0  0
    2.4595   -1.9743    0.2207 C   0  0  0  0  0  0  0  0  0  0  0  0
    3.2879   -1.0094    1.0727 C   0  0  0  0  0  0  0  0  0  0  0  0
    2.8180   -0.2497    1.9164 O   0  0  0  0  0  0  0  0  0  0  0  0
    4.6500   -1.0945    0.8265 N   0  0  0  0  0  0  0  0  0  0  0  0
    5.5757   -0.1582    1.4411 C   0  0  0  0  0  0  0  0  0  0  0  0
    5.6353    1.1890    0.7118 C   0  0  0  0  0  0  0  0  0  0  0  0
    6.2851    1.0675   -0.6405 C   0  0  0  0  0  0  0  0  0  0  0  0
    7.6302    1.1258   -0.9492 C   0  0  0  0  0  0  0  0  0  0  0  0
    7.8738    0.9648   -2.3435 C   0  0  0  0  0  0  0  0  0  0  0  0
    6.7069    0.7973   -3.0540 C   0  0  0  0  0  0  0  0  0  0  0  0
    5.3296    0.8285   -2.0429 S   0  0  0  0  0  0  0  0  0  0  0  0
    0.3943   -2.5452    1.3571 N   0  0  0  0  0  0  0  0  0  0  0  0
   -0.8615   -2.3544    1.6517 C   0  0  0  0  0  0  0  0  0  0  0  0
   -1.4921   -3.2380    2.6902 C   0  0  0  0  0  0  0  0  0  0  0  0
   -1.5999   -1.3149    0.9764 C   0  0  0  0  0  0  0  0  0  0  0  0
   -2.8894   -0.8213    1.0841 C   0  0  0  0  0  0  0  0  0  0  0  0
   -3.9437   -1.1252    2.0856 C   0  0  0  0  0  0  0  0  0  0  0  0
   -3.9822    1.9404   -1.2517 C   0  0  0  0  0  0  0  0  0  0  0  0
   -5.0804    2.6284   -1.7763 C   0  0  0  0  0  0  0  0  0  0  0  0
   -7.7974    2.4809   -3.0927 H   0  0  0  0  0  0  0  0  0  0  0  0
   -7.3492    3.9720   -2.2277 H   0  0  0  0  0  0  0  0  0  0  0  0
   -8.4361    2.8128   -1.4632 H   0  0  0  0  0  0  0  0  0  0  0  0
   -7.5661    0.6450   -0.5815 H   0  0  0  0  0  0  0  0  0  0  0  0
   -5.6718   -0.5831    0.3031 H   0  0  0  0  0  0  0  0  0  0  0  0
    2.7213   -1.8342   -0.8336 H   0  0  0  0  0  0  0  0  0  0  0  0
    2.7004   -3.0025    0.5111 H   0  0  0  0  0  0  0  0  0  0  0  0
    4.9493   -1.5275   -0.0392 H   0  0  0  0  0  0  0  0  0  0  0  0
    5.2674    0.0046    2.4798 H   0  0  0  0  0  0  0  0  0  0  0  0
    6.5581   -0.6425    1.4541 H   0  0  0  0  0  0  0  0  0  0  0  0
    6.2242    1.8898    1.3172 H   0  0  0  0  0  0  0  0  0  0  0  0
    4.6322    1.6234    0.6200 H   0  0  0  0  0  0  0  0  0  0  0  0
    8.4070    1.2788   -0.2096 H   0  0  0  0  0  0  0  0  0  0  0  0
    8.8543    0.9784   -2.8038 H   0  0  0  0  0  0  0  0  0  0  0  0
    6.5932    0.6615   -4.1210 H   0  0  0  0  0  0  0  0  0  0  0  0
   -1.6469   -2.6668    3.6091 H   0  0  0  0  0  0  0  0  0  0  0  0
   -2.4487   -3.6241    2.3299 H   0  0  0  0  0  0  0  0  0  0  0  0
   -0.8376   -4.0853    2.9161 H   0  0  0  0  0  0  0  0  0  0  0  0
   -3.5012   -1.3918    3.0497 H   0  0  0  0  0  0  0  0  0  0  0  0
   -4.5797   -0.2586    2.2881 H   0  0  0  0  0  0  0  0  0  0  0  0
   -4.5617   -1.9656    1.7562 H   0  0  0  0  0  0  0  0  0  0  0  0
   -2.9832    2.3169   -1.4697 H   0  0  0  0  0  0  0  0  0  0  0  0
   -4.9073    3.5104   -2.3895 H   0  0  0  0  0  0  0  0  0  0  0  0
  1  2  1  0
  2  3  2  0
  3  4  1  0
  4  5  2  0
  5  6  1  0
  6  7  1  0
  7  8  2  0
  8  9  1  0
  9 10  2  0
  9 11  1  0
 11 12  1  0
 12 13  1  0
 13 14  2  0
 13 15  1  0
 15 16  1  0
 16 17  1  0
 17 18  1  0
 18 19  2  0
 19 20  1  0
 20 21  2  0
 21 22  1  0
 11 23  1  0
 23 24  2  0
 24 25  1  0
 24 26  1  0
 26 27  2  0
 27 28  1  0
  5 29  1  0
 29 30  2  0
 30  2  1  0
 27  6  1  0
 26  8  1  0
 22 18  1  0
  1 31  1  0
  1 32  1  0
  1 33  1  0
  3 34  1  0
  4 35  1  0
 12 36  1  0
 12 37  1  0
 15 38  1  0
 16 39  1  0
 16 40  1  0
 17 41  1  0
 17 42  1  0
 19 43  1  0
 20 44  1  0
 21 45  1  0
 25 46  1  0
 25 47  1  0
 25 48  1  0
 28 49  1  0
 28 50  1  0
 28 51  1  0
 29 52  1  0
 30 53  1  0
M  END
$$$$
