
     RDKit          3D

 61 66  0  0  0  0  0  0  0  0999 V2000
    9.8917   -3.4932   -1.4516 Cl  0  0  0  0  0  0  0  0  0  0  0  0
    8.6094   -2.4636   -0.9212 C   0  0  0  0  0  0  0  0  0  0  0  0
    7.7845   -2.9291    0.1067 C   0  0  0  0  0  0  0  0  0  0  0  0
    6.7304   -2.1414    0.5756 C   0  0  0  0  0  0  0  0  0  0  0  0
    6.4920   -0.8763    0.0246 C   0  0  0  0  0  0  0  0  0  0  0  0
    5.3405   -0.0298    0.5171 C   0  0  0  0  0  0  0  0  0  0  0  0
    4.0539   -0.3051   -0.2803 C   0  0  0  0  0  0  0  0  0  0  0  0
    2.9346    0.5412    0.1598 N   0  0  0  0  0  0  0  0  0  0  0  0
    2.3510    0.1117    1.4540 C   0  0  0  0  0  0  0  0  0  0  0  0
    0.9892   -0.6137    1.3502 C   0  0  0  0  0  0  0  0  0  0  0  0
   -0.0214    0.2453    0.6971 N   0  0  0  0  0  0  0  0  0  0  0  0
   -1.2643   -0.2860    0.4612 C   0  0  0  0  0  0  0  0  0  0  0  0
   -1.5984   -1.5760    0.0917 C   0  0  0  0  0  0  0  0  0  0  0  0
   -2.9697   -1.5981   -0.2380 C   0  0  0  0  0  0  0  0  0  0  0  0
   -3.4776   -0.3367    0.0017 C   0  0  0  0  0  0  0  0  0  0  0  0
   -4.7944    0.2318   -0.1949 C   0  0  0  0  0  0  0  0  0  0  0  0
   -5.8958   -0.5833   -0.7651 C   0  0  0  0  0  0  0  0  0  0  0  0
   -6.2528   -1.8109   -0.1967 C   0  0  0  0  0  0  0  0  0  0  0  0
   -7.3037   -2.5487   -0.7440 C   0  0  0  0  0  0  0  0  0  0  0  0
   -8.0036   -2.0558   -1.8464 C   0  0  0  0  0  0  0  0  0  0  0  0
   -7.6627   -0.8205   -2.3991 C   0  0  0  0  0  0  0  0  0  0  0  0
   -6.6132   -0.0791   -1.8553 C   0  0  0  0  0  0  0  0  0  0  0  0
   -5.0367    1.4745    0.0995 N   0  0  0  0  0  0  0  0  0  0  0  0
   -4.0231    2.2481    0.6977 C   0  0  0  0  0  0  0  0  0  0  0  0
   -4.3500    3.5490    1.0920 C   0  0  0  0  0  0  0  0  0  0  0  0
   -3.4139    4.3562    1.7397 C   0  0  0  0  0  0  0  0  0  0  0  0
   -2.1417    3.8594    2.0130 C   0  0  0  0  0  0  0  0  0  0  0  0
   -1.7961    2.5635    1.6241 C   0  0  0  0  0  0  0  0  0  0  0  0
   -2.7246    1.7698    0.9445 C   0  0  0  0  0  0  0  0  0  0  0  0
   -2.4515    0.4502    0.5043 N   0  0  0  0  0  0  0  0  0  0  0  0
    0.5302    1.1234   -0.3726 C   0  0  0  0  0  0  0  0  0  0  0  0
    1.8900    0.6056   -0.8907 C   0  0  0  0  0  0  0  0  0  0  0  0
    7.3202   -0.4160   -1.0098 C   0  0  0  0  0  0  0  0  0  0  0  0
    8.3764   -1.2039   -1.4817 C   0  0  0  0  0  0  0  0  0  0  0  0
    9.3489   -0.5630   -2.7584 Cl  0  0  0  0  0  0  0  0  0  0  0  0
    7.9577   -3.9079    0.5483 H   0  0  0  0  0  0  0  0  0  0  0  0
    6.0985   -2.5221    1.3761 H   0  0  0  0  0  0  0  0  0  0  0  0
    5.1959   -0.2202    1.5871 H   0  0  0  0  0  0  0  0  0  0  0  0
    5.6121    1.0310    0.4365 H   0  0  0  0  0  0  0  0  0  0  0  0
    3.7817   -1.3676   -0.2284 H   0  0  0  0  0  0  0  0  0  0  0  0
    4.2711   -0.0930   -1.3362 H   0  0  0  0  0  0  0  0  0  0  0  0
    3.0417   -0.5203    2.0229 H   0  0  0  0  0  0  0  0  0  0  0  0
    2.2102    1.0193    2.0551 H   0  0  0  0  0  0  0  0  0  0  0  0
    0.6443   -0.8692    2.3593 H   0  0  0  0  0  0  0  0  0  0  0  0
    1.1289   -1.5507    0.7965 H   0  0  0  0  0  0  0  0  0  0  0  0
   -0.9072   -2.3995   -0.0223 H   0  0  0  0  0  0  0  0  0  0  0  0
   -3.5121   -2.4460   -0.6349 H   0  0  0  0  0  0  0  0  0  0  0  0
   -5.7325   -2.1880    0.6796 H   0  0  0  0  0  0  0  0  0  0  0  0
   -7.5844   -3.5031   -0.3054 H   0  0  0  0  0  0  0  0  0  0  0  0
   -8.8249   -2.6300   -2.2686 H   0  0  0  0  0  0  0  0  0  0  0  0
   -8.2184   -0.4319   -3.2488 H   0  0  0  0  0  0  0  0  0  0  0  0
   -6.3554    0.8890   -2.2785 H   0  0  0  0  0  0  0  0  0  0  0  0
   -5.3511    3.9267    0.9006 H   0  0  0  0  0  0  0  0  0  0  0  0
   -3.6851    5.3631    2.0450 H   0  0  0  0  0  0  0  0  0  0  0  0
   -1.4184    4.4773    2.5395 H   0  0  0  0  0  0  0  0  0  0  0  0
   -0.8125    2.1934    1.8901 H   0  0  0  0  0  0  0  0  0  0  0  0
    0.6629    2.1331    0.0335 H   0  0  0  0  0  0  0  0  0  0  0  0
   -0.1637    1.2056   -1.2189 H   0  0  0  0  0  0  0  0  0  0  0  0
    1.7333   -0.3867   -1.3358 H   0  0  0  0  0  0  0  0  0  0  0  0
    2.2386    1.2695   -1.6906 H   0  0  0  0  0  0  0  0  0  0  0  0
    7.1411    0.5633   -1.4504 H   0  0  0  0  0  0  0  0  0  0  0  0
  1  2  1  0
  2  3  2  0
  3  4  1  0
  4  5  2  0
  5  6  1  0
  6  7  1  0
  7  8  1  0
  8  9  1  0
  9 10  1  0
 10 11  1  0
 11 12  1  0
 12 13  2  0
 13 14  1  0
 14 15  2  0
 15 16  1  0
 16 17  1  0
 17 18  2  0
 18 19  1  0
 19 20  2  0
 20 21  1  0
 21 22  2  0
 16 23  2  0
 23 24  1  0
 24 25  2  0
 25 26  1  0
 26 27  2  0
 27 28  1  0
 28 29  2  0
 29 30  1  0
 11 31  1  0
 31 32  1  0
  5 33  1  0
 33 34  2  0
 34 35  1  0
 34  2  1  0
 32  8  1  0
 30 12  1  0
 30 15  1  0
 22 17  1  0
 29 24  1  0
  3 36  1  0
  4 37  1  0
  6 38  1  0
  6 39  1  0
  7 40  1  0
  7 41  1  0
  9 42  1  0
  9 43  1  0
 10 44  1  0
 10 45  1  0
 13 46  1  0
 14 47  1  0
 18 48  1  0
 19 49  1  0
 20 50  1  0
 21 51  1  0
 22 52  1  0
 25 53  1  0
 26 54  1  0
 27 55  1  0
 28 56  1  0
 31 57  1  0
 31 58  1  0
 32 59  1  0
 32 60  1  0
 33 61  1  0
M  END
$$$$
