
     RDKit          3D

 60 65  0  0  0  0  0  0  0  0999 V2000
    4.3460   -2.5460    4.3205 O   0  0  0  0  0  0  0  0  0  0  0  0
    3.7655   -2.3396    3.2596 C   0  0  0  0  0  0  0  0  0  0  0  0
    2.3819   -2.4175    3.1497 N   0  0  0  0  0  0  0  0  0  0  0  0
    1.6774   -2.2315    1.9618 C   0  0  0  0  0  0  0  0  0  0  0  0
    0.1646   -2.3480    2.0970 C   0  0  0  0  0  0  0  0  0  0  0  0
   -0.3832   -1.1391    2.8802 C   0  0  0  0  0  0  0  0  0  0  0  0
   -1.5072   -0.4144    2.1456 C   0  0  0  0  0  0  0  0  0  0  0  0
   -2.5213   -1.4043    1.7380 N   0  0  0  0  0  0  0  0  0  0  0  0
   -4.1036   -0.8400    1.4591 S   0  0  0  0  0  6  0  0  0  0  0  0
   -4.4686    0.0390    2.5490 O   0  0  0  0  0  0  0  0  0  0  0  0
   -4.9256   -1.9810    1.1104 O   0  0  0  0  0  0  0  0  0  0  0  0
   -3.9177    0.1658    0.0019 C   0  0  0  0  0  0  0  0  0  0  0  0
   -4.1764   -0.3750   -1.2617 C   0  0  0  0  0  0  0  0  0  0  0  0
   -4.0344    0.4278   -2.3963 C   0  0  0  0  0  0  0  0  0  0  0  0
   -3.6572    1.7641   -2.2603 C   0  0  0  0  0  0  0  0  0  0  0  0
   -3.4016    2.2975   -0.9920 C   0  0  0  0  0  0  0  0  0  0  0  0
   -3.5553    1.5087    0.1440 C   0  0  0  0  0  0  0  0  0  0  0  0
   -3.0036    3.5934   -0.7872 O   0  0  0  0  0  0  0  0  0  0  0  0
   -2.5639    4.2064   -2.0060 C   0  0  0  0  0  0  0  0  0  0  0  0
   -3.5287    3.9023   -3.1413 C   0  0  0  0  0  0  0  0  0  0  0  0
   -3.5583    2.4967   -3.4151 O   0  0  0  0  0  0  0  0  0  0  0  0
   -2.0400   -2.5020    0.8670 C   0  0  0  0  0  0  0  0  0  0  0  0
   -0.5219   -2.5052    0.7355 C   0  0  0  0  0  0  0  0  0  0  0  0
    2.2373   -1.9409    0.8196 N   0  0  0  0  0  0  0  0  0  0  0  0
    3.5857   -1.8400    0.9038 C   0  0  0  0  0  0  0  0  0  0  0  0
    4.3879   -2.0099    2.0056 C   0  0  0  0  0  0  0  0  0  0  0  0
    5.6960   -1.8318    1.6762 N   0  0  0  0  0  0  0  0  0  0  0  0
    5.7426   -1.5471    0.3738 N   0  0  0  0  0  0  0  0  0  0  0  0
    4.4696   -1.5373   -0.0917 N   0  0  0  0  0  0  0  0  0  0  0  0
    4.1895   -1.3073   -1.4932 C   0  0  0  0  0  0  0  0  0  0  0  0
    3.7346    0.1105   -1.7440 C   0  0  0  0  0  0  0  0  0  0  0  0
    4.6746    1.1439   -1.9016 C   0  0  0  0  0  0  0  0  0  0  0  0
    4.2557    2.4593   -2.1237 C   0  0  0  0  0  0  0  0  0  0  0  0
    2.8944    2.7577   -2.1848 C   0  0  0  0  0  0  0  0  0  0  0  0
    1.9624    1.7390   -2.0188 C   0  0  0  0  0  0  0  0  0  0  0  0
    0.6535    2.0270   -2.0694 F   0  0  0  0  0  0  0  0  0  0  0  0
    2.3669    0.4247   -1.7986 C   0  0  0  0  0  0  0  0  0  0  0  0
    1.9031   -2.6541    4.0077 H   0  0  0  0  0  0  0  0  0  0  0  0
   -0.0335   -3.2538    2.6895 H   0  0  0  0  0  0  0  0  0  0  0  0
   -0.7661   -1.4996    3.8467 H   0  0  0  0  0  0  0  0  0  0  0  0
    0.4055   -0.4142    3.1194 H   0  0  0  0  0  0  0  0  0  0  0  0
   -1.1165    0.1182    1.2714 H   0  0  0  0  0  0  0  0  0  0  0  0
   -1.9370    0.3289    2.8258 H   0  0  0  0  0  0  0  0  0  0  0  0
   -4.4916   -1.4104   -1.3709 H   0  0  0  0  0  0  0  0  0  0  0  0
   -4.2334    0.0201   -3.3843 H   0  0  0  0  0  0  0  0  0  0  0  0
   -3.3830    1.9405    1.1267 H   0  0  0  0  0  0  0  0  0  0  0  0
   -1.5503    3.8499   -2.2319 H   0  0  0  0  0  0  0  0  0  0  0  0
   -2.5155    5.2866   -1.8337 H   0  0  0  0  0  0  0  0  0  0  0  0
   -4.5483    4.2314   -2.9012 H   0  0  0  0  0  0  0  0  0  0  0  0
   -3.2102    4.4146   -4.0568 H   0  0  0  0  0  0  0  0  0  0  0  0
   -2.3691   -3.4481    1.3134 H   0  0  0  0  0  0  0  0  0  0  0  0
   -2.4738   -2.4384   -0.1349 H   0  0  0  0  0  0  0  0  0  0  0  0
   -0.1967   -3.4352    0.2534 H   0  0  0  0  0  0  0  0  0  0  0  0
   -0.2222   -1.6937    0.0591 H   0  0  0  0  0  0  0  0  0  0  0  0
    3.4254   -2.0293   -1.8065 H   0  0  0  0  0  0  0  0  0  0  0  0
    5.0972   -1.5325   -2.0684 H   0  0  0  0  0  0  0  0  0  0  0  0
    5.7421    0.9295   -1.8461 H   0  0  0  0  0  0  0  0  0  0  0  0
    4.9932    3.2507   -2.2438 H   0  0  0  0  0  0  0  0  0  0  0  0
    2.5557    3.7751   -2.3564 H   0  0  0  0  0  0  0  0  0  0  0  0
    1.6073   -0.3423   -1.6646 H   0  0  0  0  0  0  0  0  0  0  0  0
  1  2  2  0
  2  3  1  0
  3  4  1  0
  4  5  1  0
  5  6  1  0
  6  7  1  0
  7  8  1  0
  8  9  1  0
  9 10  2  0
  9 11  2  0
  9 12  1  0
 12 13  2  0
 13 14  1  0
 14 15  2  0
 15 16  1  0
 16 17  2  0
 16 18  1  0
 18 19  1  0
 19 20  1  0
 20 21  1  0
  8 22  1  0
 22 23  1  0
  4 24  2  0
 24 25  1  0
 25 26  2  0
 26 27  1  0
 27 28  2  0
 28 29  1  0
 29 30  1  0
 30 31  1  0
 31 32  2  0
 32 33  1  0
 33 34  2  0
 34 35  1  0
 35 36  1  0
 35 37  2  0
 26  2  1  0
 37 31  1  0
 23  5  1  0
 29 25  1  0
 17 12  1  0
 21 15  1  0
  3 38  1  0
  5 39  1  0
  6 40  1  0
  6 41  1  0
  7 42  1  0
  7 43  1  0
 13 44  1  0
 14 45  1  0
 17 46  1  0
 19 47  1  0
 19 48  1  0
 20 49  1  0
 20 50  1  0
 22 51  1  0
 22 52  1  0
 23 53  1  0
 23 54  1  0
 30 55  1  0
 30 56  1  0
 32 57  1  0
 33 58  1  0
 34 59  1  0
 37 60  1  0
M  END
$$$$
