
     RDKit          3D

 36 39  0  0  0  0  0  0  0  0999 V2000
   -6.6385    2.5610   -0.5779 C   0  0  0  0  0  0  0  0  0  0  0  0
   -5.6137    1.5864   -1.0774 C   0  0  0  0  0  0  0  0  0  0  0  0
   -5.3092    1.4491   -2.2544 O   0  0  0  0  0  0  0  0  0  0  0  0
   -5.0942    0.8904    0.0099 O   0  0  0  0  0  0  0  0  0  0  0  0
   -4.1101   -0.0671   -0.2734 C   0  0  0  0  0  0  0  0  0  0  0  0
   -4.3333   -1.3629    0.1867 C   0  0  0  0  0  0  0  0  0  0  0  0
   -3.3644   -2.3405   -0.0298 C   0  0  0  0  0  0  0  0  0  0  0  0
   -2.1767   -2.0146   -0.6908 C   0  0  0  0  0  0  0  0  0  0  0  0
   -1.9439   -0.7033   -1.1264 C   0  0  0  0  0  0  0  0  0  0  0  0
   -0.7149   -0.3482   -1.8398 C   0  0  0  0  0  0  0  0  0  0  0  0
    0.5188   -0.3045   -1.3153 C   0  0  0  0  0  0  0  0  0  0  0  0
    1.9154    0.1496   -2.2954 S   0  0  0  0  0  0  0  0  0  0  0  0
    2.9298   -0.0366   -0.9283 C   0  0  0  0  0  0  0  0  0  0  0  0
    4.2039    0.0956   -0.6986 N   0  0  0  0  0  0  0  0  0  0  0  0
    4.2732   -0.2281    0.6500 C   0  0  0  0  0  0  0  0  0  0  0  0
    5.6258   -0.2216    1.4344 C   0  0  0  0  0  0  0  0  0  0  0  0
    6.8594    0.0951    0.8978 C   0  0  0  0  0  0  0  0  0  0  0  0
    7.8034   -0.0247    1.9465 C   0  0  0  0  0  0  0  0  0  0  0  0
    7.0903   -0.4065    3.0577 C   0  0  0  0  0  0  0  0  0  0  0  0
    5.7720   -0.5285    2.7589 O   0  0  0  0  0  0  0  0  0  0  0  0
    3.0961   -0.5462    1.2256 N   0  0  0  0  0  0  0  0  0  0  0  0
    2.2628   -0.4101    0.1807 N   0  0  0  0  0  0  0  0  0  0  0  0
    0.8978   -0.5966    0.1081 C   0  0  0  0  0  0  0  0  0  0  0  0
    0.2176   -0.9320    1.0586 O   0  0  0  0  0  0  0  0  0  0  0  0
   -2.9182    0.2770   -0.9125 C   0  0  0  0  0  0  0  0  0  0  0  0
   -7.4516    2.0232   -0.0840 H   0  0  0  0  0  0  0  0  0  0  0  0
   -6.1712    3.2704    0.1095 H   0  0  0  0  0  0  0  0  0  0  0  0
   -7.0518    3.1170   -1.4243 H   0  0  0  0  0  0  0  0  0  0  0  0
   -5.2519   -1.6117    0.7094 H   0  0  0  0  0  0  0  0  0  0  0  0
   -3.5284   -3.3562    0.3211 H   0  0  0  0  0  0  0  0  0  0  0  0
   -1.4339   -2.7928   -0.8503 H   0  0  0  0  0  0  0  0  0  0  0  0
   -0.8764   -0.0883   -2.8852 H   0  0  0  0  0  0  0  0  0  0  0  0
    7.0452    0.3776   -0.1294 H   0  0  0  0  0  0  0  0  0  0  0  0
    8.8697    0.1457    1.8991 H   0  0  0  0  0  0  0  0  0  0  0  0
    7.3569   -0.6213    4.0834 H   0  0  0  0  0  0  0  0  0  0  0  0
   -2.7557    1.2985   -1.2444 H   0  0  0  0  0  0  0  0  0  0  0  0
  1  2  1  0
  2  3  2  0
  2  4  1  0
  4  5  1  0
  5  6  2  0
  6  7  1  0
  7  8  2  0
  8  9  1  0
  9 10  1  0
 10 11  2  3
 11 12  1  0
 12 13  1  0
 13 14  2  0
 14 15  1  0
 15 16  1  0
 16 17  2  0
 17 18  1  0
 18 19  2  0
 19 20  1  0
 15 21  2  0
 21 22  1  0
 22 23  1  0
 23 24  2  0
  9 25  2  0
 25  5  1  0
 23 11  1  0
 22 13  1  0
 20 16  1  0
  1 26  1  0
  1 27  1  0
  1 28  1  0
  6 29  1  0
  7 30  1  0
  8 31  1  0
 10 32  1  0
 17 33  1  0
 18 34  1  0
 19 35  1  0
 25 36  1  0
M  END
$$$$
