
     RDKit          3D

 57 60  0  0  0  0  0  0  0  0999 V2000
    0.4717   -2.0088    4.0332 C   0  0  0  0  0  0  0  0  0  0  0  0
    1.2855   -0.9031    3.3686 C   0  0  0  0  0  0  0  0  0  0  0  0
    0.5623   -0.2532    2.1713 C   0  0  0  0  0  0  0  0  0  0  0  0
    0.4042   -1.4504    0.7871 S   0  0  0  0  0  0  0  0  0  0  0  0
   -0.9685   -0.7776   -0.0825 C   0  0  0  0  0  0  0  0  0  0  0  0
   -0.9623    0.5067   -0.2199 N   0  0  0  0  0  0  0  0  0  0  0  0
   -2.0349    1.0285   -0.9387 C   0  0  0  0  0  0  0  0  0  0  0  0
   -2.1746    2.3920   -1.2539 C   0  0  0  0  0  0  0  0  0  0  0  0
   -3.3432    2.5975   -1.9367 C   0  0  0  0  0  0  0  0  0  0  0  0
   -4.2318    1.1535   -2.1984 S   0  0  0  0  0  0  0  0  0  0  0  0
   -3.0469    0.2454   -1.4057 C   0  0  0  0  0  0  0  0  0  0  0  0
   -3.0857   -1.1718   -1.2079 C   0  0  0  0  0  0  0  0  0  0  0  0
   -4.0233   -1.8894   -1.5502 O   0  0  0  0  0  0  0  0  0  0  0  0
   -1.9468   -1.6564   -0.5568 N   0  0  0  0  0  0  0  0  0  0  0  0
   -1.9178   -3.0991   -0.3187 C   0  0  0  0  0  0  0  0  0  0  0  0
   -1.0417   -3.8680   -1.2849 C   0  0  0  0  0  0  0  0  0  0  0  0
   -0.0043   -4.6894   -0.8049 C   0  0  0  0  0  0  0  0  0  0  0  0
    0.7689   -5.4559   -1.6792 C   0  0  0  0  0  0  0  0  0  0  0  0
    0.5343   -5.4056   -3.0576 C   0  0  0  0  0  0  0  0  0  0  0  0
    1.3898   -6.2373   -3.9496 C   0  0  0  0  0  0  0  0  0  0  0  0
    2.2389   -7.0295   -3.5786 O   0  0  0  0  0  0  0  0  0  0  0  0
    1.1315   -6.0559   -5.2589 O   0  0  0  0  0  0  0  0  0  0  0  0
   -0.4901   -4.5886   -3.5489 C   0  0  0  0  0  0  0  0  0  0  0  0
   -1.2820   -3.8331   -2.6652 C   0  0  0  0  0  0  0  0  0  0  0  0
    1.3614    0.9879    1.7182 C   0  0  0  0  0  0  0  0  0  0  0  0
    2.5421    0.9054    1.3914 O   0  0  0  0  0  0  0  0  0  0  0  0
    0.6123    2.1569    1.7835 N   0  0  0  0  0  0  0  0  0  0  0  0
    1.0306    3.4699    1.4937 C   0  0  0  0  0  0  0  0  0  0  0  0
    2.2961    3.7949    1.0159 C   0  0  0  0  0  0  0  0  0  0  0  0
    2.6499    5.1286    0.7741 C   0  0  0  0  0  0  0  0  0  0  0  0
    1.7354    6.1649    0.9874 C   0  0  0  0  0  0  0  0  0  0  0  0
    2.1892    7.5810    0.7448 C   0  0  0  0  0  0  0  0  0  0  0  0
    0.4564    5.8298    1.4617 C   0  0  0  0  0  0  0  0  0  0  0  0
   -0.7387    7.0361    1.7961 Cl  0  0  0  0  0  0  0  0  0  0  0  0
    0.1132    4.4944    1.7128 C   0  0  0  0  0  0  0  0  0  0  0  0
   -0.5283   -1.6512    4.3037 H   0  0  0  0  0  0  0  0  0  0  0  0
    0.3690   -2.8822    3.3774 H   0  0  0  0  0  0  0  0  0  0  0  0
    0.9680   -2.3436    4.9507 H   0  0  0  0  0  0  0  0  0  0  0  0
    1.5069   -0.1271    4.1259 H   0  0  0  0  0  0  0  0  0  0  0  0
    2.2630   -1.3121    3.0583 H   0  0  0  0  0  0  0  0  0  0  0  0
   -0.4443    0.0377    2.4962 H   0  0  0  0  0  0  0  0  0  0  0  0
   -1.4793    3.1756   -0.9970 H   0  0  0  0  0  0  0  0  0  0  0  0
   -3.7462    3.5440   -2.2921 H   0  0  0  0  0  0  0  0  0  0  0  0
   -1.6063   -3.2799    0.7153 H   0  0  0  0  0  0  0  0  0  0  0  0
   -2.9252   -3.5274   -0.3830 H   0  0  0  0  0  0  0  0  0  0  0  0
    0.2130   -4.7433    0.2564 H   0  0  0  0  0  0  0  0  0  0  0  0
    1.5665   -6.0902   -1.2857 H   0  0  0  0  0  0  0  0  0  0  0  0
    1.7426   -6.6814   -5.7111 H   0  0  0  0  0  0  0  0  0  0  0  0
   -0.6810   -4.5323   -4.6205 H   0  0  0  0  0  0  0  0  0  0  0  0
   -2.0956   -3.2296   -3.0715 H   0  0  0  0  0  0  0  0  0  0  0  0
   -0.3628    2.0567    2.0317 H   0  0  0  0  0  0  0  0  0  0  0  0
    3.0433    3.0267    0.7914 H   0  0  0  0  0  0  0  0  0  0  0  0
    3.6604    5.3439    0.4162 H   0  0  0  0  0  0  0  0  0  0  0  0
    2.6227    7.9919    1.6640 H   0  0  0  0  0  0  0  0  0  0  0  0
    2.9431    7.6197   -0.0541 H   0  0  0  0  0  0  0  0  0  0  0  0
    1.3702    8.2353    0.4163 H   0  0  0  0  0  0  0  0  0  0  0  0
   -0.8804    4.2686    2.0687 H   0  0  0  0  0  0  0  0  0  0  0  0
  1  2  1  0
  2  3  1  0
  3  4  1  0
  4  5  1  0
  5  6  2  0
  6  7  1  0
  7  8  1  0
  8  9  2  0
  9 10  1  0
 10 11  1  0
 11 12  1  0
 12 13  2  0
 12 14  1  0
 14 15  1  0
 15 16  1  0
 16 17  2  0
 17 18  1  0
 18 19  2  0
 19 20  1  0
 20 21  2  0
 20 22  1  0
 19 23  1  0
 23 24  2  0
  3 25  1  0
 25 26  2  0
 25 27  1  0
 27 28  1  0
 28 29  2  0
 29 30  1  0
 30 31  2  0
 31 32  1  0
 31 33  1  0
 33 34  1  0
 33 35  2  0
 14  5  1  0
 24 16  1  0
 35 28  1  0
 11  7  2  0
  1 36  1  0
  1 37  1  0
  1 38  1  0
  2 39  1  0
  2 40  1  0
  3 41  1  0
  8 42  1  0
  9 43  1  0
 15 44  1  0
 15 45  1  0
 17 46  1  0
 18 47  1  0
 22 48  1  0
 23 49  1  0
 24 50  1  0
 27 51  1  0
 29 52  1  0
 30 53  1  0
 32 54  1  0
 32 55  1  0
 32 56  1  0
 35 57  1  0
M  END
$$$$
