
     RDKit          3D

 36 37  0  0  0  0  0  0  0  0999 V2000
    1.0271    0.8522    3.1693 O   0  0  0  0  0  0  0  0  0  0  0  0
    0.2301    0.3662    2.3732 C   0  0  0  0  0  0  0  0  0  0  0  0
   -1.1823   -0.0570    2.7810 C   0  0  0  0  0  0  0  0  0  0  0  0
   -2.0691   -0.2326    1.6713 O   0  0  0  0  0  0  0  0  0  0  0  0
   -2.6722    0.9046    1.2513 C   0  0  0  0  0  0  0  0  0  0  0  0
   -2.4864    2.0334    1.6684 O   0  0  0  0  0  0  0  0  0  0  0  0
   -3.5231    0.6053    0.0884 C   0  0  0  0  0  0  0  0  0  0  0  0
   -3.2894    1.3556   -1.0735 C   0  0  0  0  0  0  0  0  0  0  0  0
   -4.0548    1.1181   -2.2121 C   0  0  0  0  0  0  0  0  0  0  0  0
   -3.7594    2.0220   -3.6442 Cl  0  0  0  0  0  0  0  0  0  0  0  0
   -5.0572    0.1495   -2.2000 C   0  0  0  0  0  0  0  0  0  0  0  0
   -5.3034   -0.5830   -1.0354 C   0  0  0  0  0  0  0  0  0  0  0  0
   -4.5409   -0.3553    0.1154 C   0  0  0  0  0  0  0  0  0  0  0  0
   -4.9457   -1.2556    1.5316 Cl  0  0  0  0  0  0  0  0  0  0  0  0
    0.5504    0.0901    1.0609 N   0  0  0  0  0  0  0  0  0  0  0  0
    1.8593    0.3800    0.5052 C   0  0  0  0  0  0  0  0  0  0  0  0
    2.9328   -0.6207    0.9486 C   0  0  0  0  0  0  0  0  0  0  0  0
    4.1493   -0.5033    0.1629 N   0  0  0  0  0  0  0  0  0  0  0  0
    4.3298   -1.1239   -1.0487 C   0  0  0  0  0  0  0  0  0  0  0  0
    3.3355   -1.9163   -1.5397 O   0  0  0  0  0  0  0  0  0  0  0  0
    5.5022   -0.8643   -1.6384 C   0  0  0  0  0  0  0  0  0  0  0  0
    6.4625    0.2187   -0.6780 S   0  0  0  0  0  0  0  0  0  0  0  0
    5.1925    0.3181    0.5600 C   0  0  0  0  0  0  0  0  0  0  0  0
    5.2787    1.0124    1.5574 O   0  0  0  0  0  0  0  0  0  0  0  0
   -1.5863    0.6640    3.5011 H   0  0  0  0  0  0  0  0  0  0  0  0
   -1.1017   -1.0245    3.2874 H   0  0  0  0  0  0  0  0  0  0  0  0
   -2.5139    2.1195   -1.0836 H   0  0  0  0  0  0  0  0  0  0  0  0
   -5.6573   -0.0332   -3.0887 H   0  0  0  0  0  0  0  0  0  0  0  0
   -6.1002   -1.3242   -1.0303 H   0  0  0  0  0  0  0  0  0  0  0  0
   -0.1185   -0.4296    0.5057 H   0  0  0  0  0  0  0  0  0  0  0  0
    1.7425    0.3692   -0.5839 H   0  0  0  0  0  0  0  0  0  0  0  0
    2.1498    1.3959    0.7968 H   0  0  0  0  0  0  0  0  0  0  0  0
    3.1764   -0.4534    2.0046 H   0  0  0  0  0  0  0  0  0  0  0  0
    2.5600   -1.6497    0.8756 H   0  0  0  0  0  0  0  0  0  0  0  0
    3.6420   -2.3008   -2.3792 H   0  0  0  0  0  0  0  0  0  0  0  0
    5.8408   -1.2471   -2.5896 H   0  0  0  0  0  0  0  0  0  0  0  0
  1  2  2  0
  2  3  1  0
  3  4  1  0
  4  5  1  0
  5  6  2  0
  5  7  1  0
  7  8  2  0
  8  9  1  0
  9 10  1  0
  9 11  2  0
 11 12  1  0
 12 13  2  0
 13 14  1  0
  2 15  1  0
 15 16  1  0
 16 17  1  0
 17 18  1  0
 18 19  1  0
 19 20  1  0
 19 21  2  0
 21 22  1  0
 22 23  1  0
 23 24  2  0
 13  7  1  0
 23 18  1  0
  3 25  1  0
  3 26  1  0
  8 27  1  0
 11 28  1  0
 12 29  1  0
 15 30  1  0
 16 31  1  0
 16 32  1  0
 17 33  1  0
 17 34  1  0
 20 35  1  0
 21 36  1  0
M  END
$$$$
