
     RDKit          3D

 43 46  0  0  0  0  0  0  0  0999 V2000
    6.4008    2.1245   -0.8464 C   0  0  0  0  0  0  0  0  0  0  0  0
    5.0298    1.5172   -0.7729 C   0  0  0  0  0  0  0  0  0  0  0  0
    4.6138    0.8422    0.3786 C   0  0  0  0  0  0  0  0  0  0  0  0
    3.3266    0.3014    0.4624 C   0  0  0  0  0  0  0  0  0  0  0  0
    2.4370    0.4379   -0.6035 C   0  0  0  0  0  0  0  0  0  0  0  0
    0.9883   -0.1638   -0.5226 C   0  0  0  0  0  0  0  0  0  0  0  0
   -0.0141   -0.0315   -1.4768 C   0  0  0  0  0  0  0  0  0  0  0  0
   -1.1652   -0.6755   -1.0208 N   0  0  0  0  0  4  0  0  0  0  0  0
   -2.4446   -0.7757   -1.7183 C   0  0  0  0  0  0  0  0  0  0  0  0
   -3.5242   -0.1501   -0.8744 C   0  0  0  0  0  0  0  0  0  0  0  0
   -3.4589    1.2050   -0.5107 C   0  0  0  0  0  0  0  0  0  0  0  0
   -4.4584    1.7789    0.2781 C   0  0  0  0  0  0  0  0  0  0  0  0
   -5.5360    1.0078    0.7115 C   0  0  0  0  0  0  0  0  0  0  0  0
   -5.6134   -0.3337    0.3494 C   0  0  0  0  0  0  0  0  0  0  0  0
   -6.9356   -1.2922    0.8862 Cl  0  0  0  0  0  0  0  0  0  0  0  0
   -4.6200   -0.9135   -0.4416 C   0  0  0  0  0  0  0  0  0  0  0  0
   -0.8772   -1.2048    0.1642 C   0  0  0  0  0  0  0  0  0  0  0  0
    0.3889   -0.9278    0.4624 N   0  0  0  0  0  0  0  0  0  0  0  0
    0.7835   -1.5028    1.7407 C   0  0  0  0  0  0  0  0  0  0  0  0
   -0.3746   -2.4846    2.0695 C   0  0  0  0  0  0  0  0  0  0  0  0
   -1.5587   -2.0104    1.2042 C   0  0  0  0  0  0  0  0  0  0  0  0
    2.8414    1.1305   -1.7505 C   0  0  0  0  0  0  0  0  0  0  0  0
    4.1292    1.6690   -1.8309 C   0  0  0  0  0  0  0  0  0  0  0  0
    6.3778    3.1473   -0.4581 H   0  0  0  0  0  0  0  0  0  0  0  0
    7.1187    1.5393   -0.2621 H   0  0  0  0  0  0  0  0  0  0  0  0
    6.7635    2.1454   -1.8794 H   0  0  0  0  0  0  0  0  0  0  0  0
    5.2946    0.7357    1.2221 H   0  0  0  0  0  0  0  0  0  0  0  0
    3.0546   -0.2024    1.3805 H   0  0  0  0  0  0  0  0  0  0  0  0
   -0.0600    0.4616   -2.4330 H   0  0  0  0  0  0  0  0  0  0  0  0
   -2.3853   -0.2668   -2.6865 H   0  0  0  0  0  0  0  0  0  0  0  0
   -2.6397   -1.8374   -1.9062 H   0  0  0  0  0  0  0  0  0  0  0  0
   -2.6299    1.8292   -0.8402 H   0  0  0  0  0  0  0  0  0  0  0  0
   -4.4026    2.8308    0.5527 H   0  0  0  0  0  0  0  0  0  0  0  0
   -6.3132    1.4599    1.3238 H   0  0  0  0  0  0  0  0  0  0  0  0
   -4.7112   -1.9626   -0.7173 H   0  0  0  0  0  0  0  0  0  0  0  0
    0.8456   -0.7020    2.4833 H   0  0  0  0  0  0  0  0  0  0  0  0
    1.7344   -2.0335    1.6562 H   0  0  0  0  0  0  0  0  0  0  0  0
   -0.6121   -2.5188    3.1361 H   0  0  0  0  0  0  0  0  0  0  0  0
   -0.0840   -3.4945    1.7564 H   0  0  0  0  0  0  0  0  0  0  0  0
   -2.1021   -2.8260    0.7259 H   0  0  0  0  0  0  0  0  0  0  0  0
   -2.2220   -1.3320    1.7445 H   0  0  0  0  0  0  0  0  0  0  0  0
    2.1851    1.2696   -2.6042 H   0  0  0  0  0  0  0  0  0  0  0  0
    4.4292    2.2089   -2.7280 H   0  0  0  0  0  0  0  0  0  0  0  0
  1  2  1  0
  2  3  2  0
  3  4  1  0
  4  5  2  0
  5  6  1  0
  6  7  2  0
  7  8  1  0
  8  9  1  0
  9 10  1  0
 10 11  2  0
 11 12  1  0
 12 13  2  0
 13 14  1  0
 14 15  1  0
 14 16  2  0
  8 17  2  0
 17 18  1  0
 18 19  1  0
 19 20  1  0
 20 21  1  0
  5 22  1  0
 22 23  2  0
 23  2  1  0
 18  6  1  0
 16 10  1  0
 21 17  1  0
  1 24  1  0
  1 25  1  0
  1 26  1  0
  3 27  1  0
  4 28  1  0
  7 29  1  0
  9 30  1  0
  9 31  1  0
 11 32  1  0
 12 33  1  0
 13 34  1  0
 16 35  1  0
 19 36  1  0
 19 37  1  0
 20 38  1  0
 20 39  1  0
 21 40  1  0
 21 41  1  0
 22 42  1  0
 23 43  1  0
M  CHG  1   8   1
M  END
$$$$
