
     RDKit          3D

 45 47  0  0  0  0  0  0  0  0999 V2000
   -3.0077    0.6717   -0.8338 O   0  0  0  0  0  0  0  0  0  0  0  0
   -3.2360    0.2192    0.2871 C   0  0  0  0  0  0  0  0  0  0  0  0
   -4.6367    0.1742    0.8864 C   0  0  0  0  0  0  0  0  0  0  0  0
   -5.7183    0.7418   -0.0043 C   0  0  0  0  0  0  0  0  0  0  0  0
   -6.3965   -0.0838   -0.9133 C   0  0  0  0  0  0  0  0  0  0  0  0
   -7.3881    0.4436   -1.7438 C   0  0  0  0  0  0  0  0  0  0  0  0
   -7.7017    1.7989   -1.6737 C   0  0  0  0  0  0  0  0  0  0  0  0
   -8.9244    2.4475   -2.6961 Cl  0  0  0  0  0  0  0  0  0  0  0  0
   -7.0303    2.6328   -0.7827 C   0  0  0  0  0  0  0  0  0  0  0  0
   -6.0386    2.1065    0.0483 C   0  0  0  0  0  0  0  0  0  0  0  0
   -2.1316   -0.3061    1.0988 C   0  0  0  0  0  0  0  0  0  0  0  0
   -2.2031   -0.8622    2.3622 C   0  0  0  0  0  0  0  0  0  0  0  0
   -0.9374   -1.2170    2.7500 N   0  0  0  0  0  0  0  0  0  0  0  0
   -0.0266   -0.9132    1.7612 C   0  0  0  0  0  0  0  0  0  0  0  0
    1.3826   -1.1946    1.9296 C   0  0  0  0  0  0  0  0  0  0  0  0
    1.8293   -1.6801    2.9647 O   0  0  0  0  0  0  0  0  0  0  0  0
    2.1788   -0.8965    0.8460 N   0  0  0  0  0  0  0  0  0  0  0  0
    3.5757   -1.2716    0.8278 C   0  0  0  0  0  0  0  0  0  0  0  0
    4.3406   -0.5205   -0.2530 C   0  0  0  0  0  0  0  0  0  0  0  0
    5.8169   -0.9043   -0.2405 C   0  0  0  0  0  0  0  0  0  0  0  0
    6.5656   -0.2148   -1.2710 N   0  0  0  0  0  0  0  0  0  0  0  0
    7.1677    1.0056   -1.1536 C   0  0  0  0  0  0  0  0  0  0  0  0
    7.7519    1.2292   -2.3788 C   0  0  0  0  0  0  0  0  0  0  0  0
    7.5221    0.1762   -3.2267 N   0  0  0  0  0  0  0  0  0  0  0  0
    6.8090   -0.6802   -2.5308 C   0  0  0  0  0  0  0  0  0  0  0  0
   -0.7515   -0.3399    0.7301 C   0  0  0  0  0  0  0  0  0  0  0  0
   -4.8823   -0.8685    1.1232 H   0  0  0  0  0  0  0  0  0  0  0  0
   -4.6304    0.7283    1.8332 H   0  0  0  0  0  0  0  0  0  0  0  0
   -6.1532   -1.1416   -0.9872 H   0  0  0  0  0  0  0  0  0  0  0  0
   -7.9055   -0.2053   -2.4451 H   0  0  0  0  0  0  0  0  0  0  0  0
   -7.2685    3.6918   -0.7342 H   0  0  0  0  0  0  0  0  0  0  0  0
   -5.5135    2.7716    0.7308 H   0  0  0  0  0  0  0  0  0  0  0  0
   -3.0381   -1.0383    3.0279 H   0  0  0  0  0  0  0  0  0  0  0  0
   -0.6786   -1.6441    3.6325 H   0  0  0  0  0  0  0  0  0  0  0  0
    1.7180   -0.7014   -0.0320 H   0  0  0  0  0  0  0  0  0  0  0  0
    4.0094   -1.0730    1.8145 H   0  0  0  0  0  0  0  0  0  0  0  0
    3.6214   -2.3528    0.6549 H   0  0  0  0  0  0  0  0  0  0  0  0
    4.2319    0.5611   -0.1008 H   0  0  0  0  0  0  0  0  0  0  0  0
    3.9029   -0.7361   -1.2363 H   0  0  0  0  0  0  0  0  0  0  0  0
    5.9442   -1.9808   -0.4036 H   0  0  0  0  0  0  0  0  0  0  0  0
    6.2791   -0.6571    0.7223 H   0  0  0  0  0  0  0  0  0  0  0  0
    7.1337    1.5956   -0.2486 H   0  0  0  0  0  0  0  0  0  0  0  0
    8.3258    2.0905   -2.6952 H   0  0  0  0  0  0  0  0  0  0  0  0
    6.4486   -1.6356   -2.8896 H   0  0  0  0  0  0  0  0  0  0  0  0
   -0.3564    0.0334   -0.2070 H   0  0  0  0  0  0  0  0  0  0  0  0
  1  2  2  0
  2  3  1  0
  3  4  1  0
  4  5  2  0
  5  6  1  0
  6  7  2  0
  7  8  1  0
  7  9  1  0
  9 10  2  0
  2 11  1  0
 11 12  2  0
 12 13  1  0
 13 14  1  0
 14 15  1  0
 15 16  2  0
 15 17  1  0
 17 18  1  0
 18 19  1  0
 19 20  1  0
 20 21  1  0
 21 22  1  0
 22 23  2  0
 23 24  1  0
 24 25  2  0
 14 26  2  0
 10  4  1  0
 26 11  1  0
 25 21  1  0
  3 27  1  0
  3 28  1  0
  5 29  1  0
  6 30  1  0
  9 31  1  0
 10 32  1  0
 12 33  1  0
 13 34  1  0
 17 35  1  0
 18 36  1  0
 18 37  1  0
 19 38  1  0
 19 39  1  0
 20 40  1  0
 20 41  1  0
 22 42  1  0
 23 43  1  0
 25 44  1  0
 26 45  1  0
M  END
$$$$
