
     RDKit          3D

 40 42  0  0  0  0  0  0  0  0999 V2000
   -2.2136   -0.6934   -2.6417 O   0  0  0  0  0  0  0  0  0  0  0  0
   -1.9007   -0.4072   -1.4917 C   0  0  0  0  0  0  0  0  0  0  0  0
   -2.7634   -0.1396   -0.4468 N   0  0  0  0  0  0  0  0  0  0  0  0
   -4.1822   -0.1978   -0.4360 C   0  0  0  0  0  0  0  0  0  0  0  0
   -4.9185   -0.6230   -1.5490 C   0  0  0  0  0  0  0  0  0  0  0  0
   -6.3160   -0.6723   -1.5146 C   0  0  0  0  0  0  0  0  0  0  0  0
   -7.0035   -0.3001   -0.3654 C   0  0  0  0  0  0  0  0  0  0  0  0
   -6.2935    0.1212    0.7568 C   0  0  0  0  0  0  0  0  0  0  0  0
   -4.8880    0.1745    0.7337 C   0  0  0  0  0  0  0  0  0  0  0  0
   -4.1513    0.6191    1.9492 C   0  0  0  0  0  0  0  0  0  0  0  0
   -2.9377    0.6746    2.0610 O   0  0  0  0  0  0  0  0  0  0  0  0
   -4.9552    0.9744    2.9671 O   0  0  0  0  0  0  0  0  0  0  0  0
   -0.4468   -0.2927   -1.1659 C   0  0  0  0  0  0  0  0  0  0  0  0
    0.0617   -0.5538    0.1114 C   0  0  0  0  0  0  0  0  0  0  0  0
    1.4359   -0.4376    0.3638 C   0  0  0  0  0  0  0  0  0  0  0  0
    2.3182   -0.0703   -0.6539 C   0  0  0  0  0  0  0  0  0  0  0  0
    3.7074    0.0674   -0.4819 N   0  0  0  0  0  0  0  0  0  0  0  0
    4.4543   -0.1119    0.6691 C   0  0  0  0  0  0  0  0  0  0  0  0
    4.0093   -0.4293    1.7668 O   0  0  0  0  0  0  0  0  0  0  0  0
    5.8723    0.1198    0.4546 C   0  0  0  0  0  0  0  0  0  0  0  0
    6.9472    0.0482    1.3207 C   0  0  0  0  0  0  0  0  0  0  0  0
    8.1008    0.3758    0.5676 C   0  0  0  0  0  0  0  0  0  0  0  0
    7.6646    0.6281   -0.7122 C   0  0  0  0  0  0  0  0  0  0  0  0
    8.7749    1.1210   -2.1755 Br  0  0  0  0  0  0  0  0  0  0  0  0
    6.3155    0.4764   -0.7939 O   0  0  0  0  0  0  0  0  0  0  0  0
    1.8080    0.1742   -1.9346 C   0  0  0  0  0  0  0  0  0  0  0  0
    0.4377    0.0600   -2.1909 C   0  0  0  0  0  0  0  0  0  0  0  0
   -2.3479    0.1999    0.4210 H   0  0  0  0  0  0  0  0  0  0  0  0
   -4.4329   -0.9297   -2.4705 H   0  0  0  0  0  0  0  0  0  0  0  0
   -6.8629   -1.0051   -2.3940 H   0  0  0  0  0  0  0  0  0  0  0  0
   -8.0897   -0.3398   -0.3423 H   0  0  0  0  0  0  0  0  0  0  0  0
   -6.8479    0.4051    1.6484 H   0  0  0  0  0  0  0  0  0  0  0  0
   -4.3424    1.2416    3.6841 H   0  0  0  0  0  0  0  0  0  0  0  0
   -0.5840   -0.8727    0.9258 H   0  0  0  0  0  0  0  0  0  0  0  0
    1.7821   -0.6512    1.3708 H   0  0  0  0  0  0  0  0  0  0  0  0
    4.2477    0.3329   -1.2989 H   0  0  0  0  0  0  0  0  0  0  0  0
    6.8902   -0.2113    2.3698 H   0  0  0  0  0  0  0  0  0  0  0  0
    9.1228    0.4213    0.9175 H   0  0  0  0  0  0  0  0  0  0  0  0
    2.4659    0.4541   -2.7539 H   0  0  0  0  0  0  0  0  0  0  0  0
    0.0619    0.2492   -3.1949 H   0  0  0  0  0  0  0  0  0  0  0  0
  1  2  2  0
  2  3  1  0
  3  4  1  0
  4  5  2  0
  5  6  1  0
  6  7  2  0
  7  8  1  0
  8  9  2  0
  9 10  1  0
 10 11  2  0
 10 12  1  0
  2 13  1  0
 13 14  2  0
 14 15  1  0
 15 16  2  0
 16 17  1  0
 17 18  1  0
 18 19  2  0
 18 20  1  0
 20 21  2  0
 21 22  1  0
 22 23  2  0
 23 24  1  0
 23 25  1  0
 16 26  1  0
 26 27  2  0
  9  4  1  0
 27 13  1  0
 25 20  1  0
  3 28  1  0
  5 29  1  0
  6 30  1  0
  7 31  1  0
  8 32  1  0
 12 33  1  0
 14 34  1  0
 15 35  1  0
 17 36  1  0
 21 37  1  0
 22 38  1  0
 26 39  1  0
 27 40  1  0
M  END
$$$$
