
     RDKit          3D

 54 57  0  0  0  0  0  0  0  0999 V2000
   -6.1628    2.6144   -1.7552 C   0  0  0  0  0  0  0  0  0  0  0  0
   -4.7384    2.2587   -1.4500 C   0  0  0  0  0  0  0  0  0  0  0  0
   -3.8765    1.8443   -2.4667 C   0  0  0  0  0  0  0  0  0  0  0  0
   -2.5278    1.5236   -2.2100 C   0  0  0  0  0  0  0  0  0  0  0  0
   -1.7463    0.9607   -3.3669 C   0  0  0  0  0  0  0  0  0  0  0  0
   -2.0144    1.7008   -0.9082 C   0  0  0  0  0  0  0  0  0  0  0  0
   -0.6661    1.4519   -0.5574 N   0  0  0  0  0  0  0  0  0  0  0  0
    0.4603    1.7380   -1.3108 C   0  0  0  0  0  0  0  0  0  0  0  0
    0.4895    2.3610   -2.3692 O   0  0  0  0  0  0  0  0  0  0  0  0
    1.7656    1.3319   -0.6203 C   0  0  0  0  0  0  0  0  0  0  0  0
    1.7561   -0.0660   -0.1741 N   0  0  0  0  0  0  0  0  0  0  0  0
    1.2987   -0.3211    1.1126 C   0  0  0  0  0  0  0  0  0  0  0  0
    0.7883    0.5850    1.7789 O   0  0  0  0  0  0  0  0  0  0  0  0
    1.3949   -1.6219    1.5715 N   0  0  0  0  0  0  0  0  0  0  0  0
    1.0280   -1.8859    2.9553 C   0  0  0  0  0  0  0  0  0  0  0  0
    2.2458   -1.8101    3.8103 C   0  0  0  0  0  0  0  0  0  0  0  0
    3.2285   -2.7217    4.1401 C   0  0  0  0  0  0  0  0  0  0  0  0
    4.1298   -2.0456    4.9963 C   0  0  0  0  0  0  0  0  0  0  0  0
    3.6410   -0.7681    5.1350 C   0  0  0  0  0  0  0  0  0  0  0  0
    2.4977   -0.6154    4.4191 O   0  0  0  0  0  0  0  0  0  0  0  0
    1.8072   -2.7012    0.8049 C   0  0  0  0  0  0  0  0  0  0  0  0
    1.8767   -3.8544    1.2257 O   0  0  0  0  0  0  0  0  0  0  0  0
    2.1612   -2.4235   -0.5960 C   0  0  0  0  0  0  0  0  0  0  0  0
    2.5258   -3.4857   -1.4381 C   0  0  0  0  0  0  0  0  0  0  0  0
    2.8519   -3.2405   -2.7683 C   0  0  0  0  0  0  0  0  0  0  0  0
    2.8093   -1.9385   -3.2544 C   0  0  0  0  0  0  0  0  0  0  0  0
    2.4486   -0.8813   -2.4108 C   0  0  0  0  0  0  0  0  0  0  0  0
    2.1268   -1.1100   -1.0633 C   0  0  0  0  0  0  0  0  0  0  0  0
   -2.8912    2.0933    0.1337 C   0  0  0  0  0  0  0  0  0  0  0  0
   -2.4285    2.2552    1.5601 C   0  0  0  0  0  0  0  0  0  0  0  0
   -4.2382    2.3760   -0.1540 C   0  0  0  0  0  0  0  0  0  0  0  0
   -6.5453    2.0164   -2.5890 H   0  0  0  0  0  0  0  0  0  0  0  0
   -6.8087    2.4180   -0.8930 H   0  0  0  0  0  0  0  0  0  0  0  0
   -6.2356    3.6744   -2.0173 H   0  0  0  0  0  0  0  0  0  0  0  0
   -4.2639    1.7431   -3.4798 H   0  0  0  0  0  0  0  0  0  0  0  0
   -1.3030    1.7654   -3.9598 H   0  0  0  0  0  0  0  0  0  0  0  0
   -0.9741    0.2608   -3.0350 H   0  0  0  0  0  0  0  0  0  0  0  0
   -2.4029    0.3818   -4.0274 H   0  0  0  0  0  0  0  0  0  0  0  0
   -0.4728    1.3449    0.4367 H   0  0  0  0  0  0  0  0  0  0  0  0
    2.6193    1.5186   -1.2791 H   0  0  0  0  0  0  0  0  0  0  0  0
    1.9043    2.0000    0.2390 H   0  0  0  0  0  0  0  0  0  0  0  0
    0.2777   -1.1667    3.3022 H   0  0  0  0  0  0  0  0  0  0  0  0
    0.5778   -2.8817    3.0413 H   0  0  0  0  0  0  0  0  0  0  0  0
    3.2836   -3.7458    3.7946 H   0  0  0  0  0  0  0  0  0  0  0  0
    5.0258   -2.4393    5.4550 H   0  0  0  0  0  0  0  0  0  0  0  0
    3.9714    0.1063    5.6784 H   0  0  0  0  0  0  0  0  0  0  0  0
    2.5522   -4.5055   -1.0585 H   0  0  0  0  0  0  0  0  0  0  0  0
    3.1315   -4.0619   -3.4234 H   0  0  0  0  0  0  0  0  0  0  0  0
    3.0523   -1.7399   -4.2963 H   0  0  0  0  0  0  0  0  0  0  0  0
    2.4140    0.1095   -2.8559 H   0  0  0  0  0  0  0  0  0  0  0  0
   -1.5988    2.9674    1.6151 H   0  0  0  0  0  0  0  0  0  0  0  0
   -2.1158    1.2888    1.9681 H   0  0  0  0  0  0  0  0  0  0  0  0
   -3.2271    2.6395    2.2039 H   0  0  0  0  0  0  0  0  0  0  0  0
   -4.9035    2.7020    0.6436 H   0  0  0  0  0  0  0  0  0  0  0  0
  1  2  1  0
  2  3  2  0
  3  4  1  0
  4  5  1  0
  4  6  2  0
  6  7  1  0
  7  8  1  0
  8  9  2  0
  8 10  1  0
 10 11  1  0
 11 12  1  0
 12 13  2  0
 12 14  1  0
 14 15  1  0
 15 16  1  0
 16 17  2  0
 17 18  1  0
 18 19  2  0
 19 20  1  0
 14 21  1  0
 21 22  2  0
 21 23  1  0
 23 24  2  0
 24 25  1  0
 25 26  2  0
 26 27  1  0
 27 28  2  0
  6 29  1  0
 29 30  1  0
 29 31  2  0
 31  2  1  0
 28 11  1  0
 20 16  1  0
 28 23  1  0
  1 32  1  0
  1 33  1  0
  1 34  1  0
  3 35  1  0
  5 36  1  0
  5 37  1  0
  5 38  1  0
  7 39  1  0
 10 40  1  0
 10 41  1  0
 15 42  1  0
 15 43  1  0
 17 44  1  0
 18 45  1  0
 19 46  1  0
 24 47  1  0
 25 48  1  0
 26 49  1  0
 27 50  1  0
 30 51  1  0
 30 52  1  0
 30 53  1  0
 31 54  1  0
M  END
$$$$
