
     RDKit          3D

 33 33  0  0  0  0  0  0  0  0999 V2000
   -4.3834    1.3434    1.1620 C   0  0  0  0  0  0  0  0  0  0  0  0
   -2.9858    0.7197    1.1346 C   0  0  0  0  0  0  0  0  0  0  0  0
   -3.0894   -0.7879    1.3790 C   0  0  0  0  0  0  0  0  0  0  0  0
   -2.2969    1.0417   -0.2061 C   0  0  0  0  0  0  0  0  0  0  0  0
   -0.8379    0.6550   -0.2503 C   0  0  0  0  0  0  0  0  0  0  0  0
   -0.4132   -0.4402   -1.0103 C   0  0  0  0  0  0  0  0  0  0  0  0
    0.9367   -0.7991   -1.0473 C   0  0  0  0  0  0  0  0  0  0  0  0
    1.8921   -0.0725   -0.3221 C   0  0  0  0  0  0  0  0  0  0  0  0
    3.3639   -0.4429   -0.3546 C   0  0  0  0  0  0  0  0  0  0  0  0
    3.6192   -1.8801    0.1074 C   0  0  0  0  0  0  0  0  0  0  0  0
    3.9853   -0.1499   -1.7084 C   0  0  0  0  0  0  0  0  0  0  0  0
    4.4600    0.9202   -2.0598 O   0  0  0  0  0  0  0  0  0  0  0  0
    3.9462   -1.1801   -2.5774 O   0  0  0  0  0  0  0  0  0  0  0  0
    1.4637    1.0292    0.4317 C   0  0  0  0  0  0  0  0  0  0  0  0
    0.1138    1.3877    0.4683 C   0  0  0  0  0  0  0  0  0  0  0  0
   -4.3273    2.4295    1.0328 H   0  0  0  0  0  0  0  0  0  0  0  0
   -4.8785    1.1475    2.1190 H   0  0  0  0  0  0  0  0  0  0  0  0
   -5.0154    0.9386    0.3641 H   0  0  0  0  0  0  0  0  0  0  0  0
   -2.4085    1.1589    1.9581 H   0  0  0  0  0  0  0  0  0  0  0  0
   -2.0992   -1.2471    1.4604 H   0  0  0  0  0  0  0  0  0  0  0  0
   -3.6305   -1.2859    0.5672 H   0  0  0  0  0  0  0  0  0  0  0  0
   -3.6214   -0.9930    2.3143 H   0  0  0  0  0  0  0  0  0  0  0  0
   -2.8369    0.5560   -1.0295 H   0  0  0  0  0  0  0  0  0  0  0  0
   -2.3616    2.1195   -0.4075 H   0  0  0  0  0  0  0  0  0  0  0  0
   -1.1315   -1.0251   -1.5805 H   0  0  0  0  0  0  0  0  0  0  0  0
    1.2339   -1.6520   -1.6543 H   0  0  0  0  0  0  0  0  0  0  0  0
    3.9073    0.1963    0.3556 H   0  0  0  0  0  0  0  0  0  0  0  0
    4.6927   -2.0998    0.1050 H   0  0  0  0  0  0  0  0  0  0  0  0
    3.2440   -2.0338    1.1253 H   0  0  0  0  0  0  0  0  0  0  0  0
    3.1350   -2.6204   -0.5387 H   0  0  0  0  0  0  0  0  0  0  0  0
    4.3351   -0.8053   -3.3956 H   0  0  0  0  0  0  0  0  0  0  0  0
    2.1787    1.6238    0.9968 H   0  0  0  0  0  0  0  0  0  0  0  0
   -0.1902    2.2479    1.0607 H   0  0  0  0  0  0  0  0  0  0  0  0
  1  2  1  0
  2  3  1  0
  2  4  1  0
  4  5  1  0
  5  6  2  0
  6  7  1  0
  7  8  2  0
  8  9  1  0
  9 10  1  0
  9 11  1  0
 11 12  2  0
 11 13  1  0
  8 14  1  0
 14 15  2  0
 15  5  1  0
  1 16  1  0
  1 17  1  0
  1 18  1  0
  2 19  1  0
  3 20  1  0
  3 21  1  0
  3 22  1  0
  4 23  1  0
  4 24  1  0
  6 25  1  0
  7 26  1  0
  9 27  1  0
 10 28  1  0
 10 29  1  0
 10 30  1  0
 13 31  1  0
 14 32  1  0
 15 33  1  0
M  END
$$$$
