
     RDKit          3D

 47 49  0  0  0  0  0  0  0  0999 V2000
    7.7950    0.8380    0.8398 C   0  0  0  0  0  0  0  0  0  0  0  0
    7.5385   -0.6165    0.4764 C   0  0  0  0  0  0  0  0  0  0  0  0
    6.0673   -0.9006    0.3085 C   0  0  0  0  0  0  0  0  0  0  0  0
    5.2850   -1.2717    1.4097 C   0  0  0  0  0  0  0  0  0  0  0  0
    3.9200   -1.5236    1.2540 C   0  0  0  0  0  0  0  0  0  0  0  0
    3.3153   -1.3925    0.0026 C   0  0  0  0  0  0  0  0  0  0  0  0
    1.9437   -1.6294   -0.1485 N   0  0  0  0  0  0  0  0  0  0  0  0
    1.1243   -0.6443   -0.0167 C   0  0  0  0  0  0  0  0  0  0  0  0
    1.4248    0.6510    0.2648 N   0  0  0  0  0  0  0  0  0  0  0  0
    0.3891    1.5336    0.3592 C   0  0  0  0  0  0  0  0  0  0  0  0
    0.5078    2.7245    0.6000 O   0  0  0  0  0  0  0  0  0  0  0  0
   -0.8993    0.8271    0.1226 C   0  0  0  0  0  0  0  0  0  0  0  0
   -2.0719    1.4743    0.1457 C   0  0  0  0  0  0  0  0  0  0  0  0
   -3.3940    0.8801   -0.0887 C   0  0  0  0  0  0  0  0  0  0  0  0
   -3.9187   -0.0848    0.7860 C   0  0  0  0  0  0  0  0  0  0  0  0
   -5.1850   -0.6309    0.5642 C   0  0  0  0  0  0  0  0  0  0  0  0
   -5.7840   -1.5757    1.3539 O   0  0  0  0  0  0  0  0  0  0  0  0
   -4.9955   -2.1694    2.3752 C   0  0  0  0  0  0  0  0  0  0  0  0
   -5.9218   -0.1804   -0.5372 C   0  0  0  0  0  0  0  0  0  0  0  0
   -7.1741   -0.6968   -0.7737 O   0  0  0  0  0  0  0  0  0  0  0  0
   -5.4178    0.7891   -1.4169 C   0  0  0  0  0  0  0  0  0  0  0  0
   -6.2577    1.1269   -2.4488 O   0  0  0  0  0  0  0  0  0  0  0  0
   -5.7710    2.0810   -3.3856 C   0  0  0  0  0  0  0  0  0  0  0  0
   -4.1501    1.3201   -1.1848 C   0  0  0  0  0  0  0  0  0  0  0  0
   -0.6009   -0.8427   -0.1911 S   0  0  0  0  0  0  0  0  0  0  0  0
    4.0949   -1.0369   -1.0996 C   0  0  0  0  0  0  0  0  0  0  0  0
    5.4602   -0.7838   -0.9484 C   0  0  0  0  0  0  0  0  0  0  0  0
    7.4143    1.5140    0.0669 H   0  0  0  0  0  0  0  0  0  0  0  0
    7.3100    1.1018    1.7855 H   0  0  0  0  0  0  0  0  0  0  0  0
    8.8694    1.0170    0.9486 H   0  0  0  0  0  0  0  0  0  0  0  0
    7.9538   -1.2719    1.2516 H   0  0  0  0  0  0  0  0  0  0  0  0
    8.0715   -0.8668   -0.4490 H   0  0  0  0  0  0  0  0  0  0  0  0
    5.7360   -1.3756    2.3942 H   0  0  0  0  0  0  0  0  0  0  0  0
    3.3259   -1.8278    2.1116 H   0  0  0  0  0  0  0  0  0  0  0  0
    2.3720    0.9666    0.3993 H   0  0  0  0  0  0  0  0  0  0  0  0
   -2.0861    2.5475    0.3336 H   0  0  0  0  0  0  0  0  0  0  0  0
   -3.3237   -0.3907    1.6405 H   0  0  0  0  0  0  0  0  0  0  0  0
   -4.0977   -2.6410    1.9618 H   0  0  0  0  0  0  0  0  0  0  0  0
   -4.7382   -1.4373    3.1474 H   0  0  0  0  0  0  0  0  0  0  0  0
   -5.5950   -2.9534    2.8479 H   0  0  0  0  0  0  0  0  0  0  0  0
   -7.4894   -0.2459   -1.5789 H   0  0  0  0  0  0  0  0  0  0  0  0
   -6.5442    2.2262   -4.1461 H   0  0  0  0  0  0  0  0  0  0  0  0
   -5.5905    3.0482   -2.9052 H   0  0  0  0  0  0  0  0  0  0  0  0
   -4.8712    1.7147   -3.8910 H   0  0  0  0  0  0  0  0  0  0  0  0
   -3.7269    2.0735   -1.8412 H   0  0  0  0  0  0  0  0  0  0  0  0
    3.6374   -0.9608   -2.0824 H   0  0  0  0  0  0  0  0  0  0  0  0
    6.0483   -0.5035   -1.8196 H   0  0  0  0  0  0  0  0  0  0  0  0
  1  2  1  0
  2  3  1  0
  3  4  2  0
  4  5  1  0
  5  6  2  0
  6  7  1  0
  7  8  2  3
  8  9  1  0
  9 10  1  0
 10 11  2  0
 10 12  1  0
 12 13  2  3
 13 14  1  0
 14 15  2  0
 15 16  1  0
 16 17  1  0
 17 18  1  0
 16 19  2  0
 19 20  1  0
 19 21  1  0
 21 22  1  0
 22 23  1  0
 21 24  2  0
 12 25  1  0
  6 26  1  0
 26 27  2  0
 27  3  1  0
 25  8  1  0
 24 14  1  0
  1 28  1  0
  1 29  1  0
  1 30  1  0
  2 31  1  0
  2 32  1  0
  4 33  1  0
  5 34  1  0
  9 35  1  0
 13 36  1  0
 15 37  1  0
 18 38  1  0
 18 39  1  0
 18 40  1  0
 20 41  1  0
 23 42  1  0
 23 43  1  0
 23 44  1  0
 24 45  1  0
 26 46  1  0
 27 47  1  0
M  END
$$$$
