
     RDKit          3D

 68 70  0  0  0  0  0  0  0  0999 V2000
   -4.2355   -0.2463    6.3272 C   0  0  0  0  0  0  0  0  0  0  0  0
   -4.7689   -0.0638    5.0232 O   0  0  0  0  0  0  0  0  0  0  0  0
   -3.9645   -0.4176    3.9744 C   0  0  0  0  0  0  0  0  0  0  0  0
   -2.6384   -0.8331    4.0619 C   0  0  0  0  0  0  0  0  0  0  0  0
   -1.9232   -1.1516    2.9003 C   0  0  0  0  0  0  0  0  0  0  0  0
   -2.5193   -1.0679    1.6273 C   0  0  0  0  0  0  0  0  0  0  0  0
   -1.6695   -1.3929    0.4010 C   0  0  0  0  0  0  0  0  0  0  0  0
   -2.4075   -1.9955   -0.8406 C   0  0  0  0  0  0  0  0  0  0  0  0
   -3.5816   -2.3559   -0.8435 O   0  0  0  0  0  0  0  0  0  0  0  0
   -1.5691   -2.1979   -1.9335 N   0  0  0  0  0  0  0  0  0  0  0  0
   -1.9634   -2.8826   -3.1744 C   0  0  0  0  0  0  0  0  0  0  0  0
   -2.2540   -4.3690   -2.9082 C   0  0  0  0  0  0  0  0  0  0  0  0
   -3.1871   -2.2134   -3.8273 C   0  0  0  0  0  0  0  0  0  0  0  0
   -0.7845   -2.7709   -4.1612 C   0  0  0  0  0  0  0  0  0  0  0  0
   -0.7625   -0.2712    0.0180 N   0  0  0  0  0  0  0  0  0  0  0  0
   -1.3901    0.9986   -0.3765 C   0  0  0  0  0  0  0  0  0  0  0  0
   -1.5435    1.9421    0.7635 C   0  0  0  0  0  0  0  0  0  0  0  0
   -0.6705    2.6539    1.5681 C   0  0  0  0  0  0  0  0  0  0  0  0
   -1.4694    3.4087    2.4605 C   0  0  0  0  0  0  0  0  0  0  0  0
   -2.7766    3.1233    2.1417 C   0  0  0  0  0  0  0  0  0  0  0  0
   -2.8318    2.2606    1.0960 O   0  0  0  0  0  0  0  0  0  0  0  0
    0.5449   -0.5933   -0.3224 C   0  0  0  0  0  0  0  0  0  0  0  0
    0.9063   -1.7707   -0.4201 O   0  0  0  0  0  0  0  0  0  0  0  0
    1.5236    0.5379   -0.5795 C   0  0  0  0  0  0  0  0  0  0  0  0
    2.9464    0.0145   -0.7763 C   0  0  0  0  0  0  0  0  0  0  0  0
    3.9500    1.1464   -0.8581 C   0  0  0  0  0  0  0  0  0  0  0  0
    3.6164    2.3233   -0.7743 O   0  0  0  0  0  0  0  0  0  0  0  0
    5.2346    0.6814   -1.0281 N   0  0  0  0  0  0  0  0  0  0  0  0
    6.3604    1.4687   -1.1233 C   0  0  0  0  0  0  0  0  0  0  0  0
    6.4868    2.8723   -1.0612 C   0  0  0  0  0  0  0  0  0  0  0  0
    7.8317    3.1059   -1.2013 C   0  0  0  0  0  0  0  0  0  0  0  0
    8.6640    4.3215   -1.2162 C   0  0  0  0  0  0  0  0  0  0  0  0
    8.4759    1.9190   -1.3562 O   0  0  0  0  0  0  0  0  0  0  0  0
    7.5544    0.8897   -1.2923 N   0  0  0  0  0  0  0  0  0  0  0  0
   -3.8510   -0.6417    1.5561 C   0  0  0  0  0  0  0  0  0  0  0  0
   -4.5633   -0.3244    2.7182 C   0  0  0  0  0  0  0  0  0  0  0  0
   -3.9801   -1.2952    6.5061 H   0  0  0  0  0  0  0  0  0  0  0  0
   -3.3742    0.4075    6.4943 H   0  0  0  0  0  0  0  0  0  0  0  0
   -5.0097    0.0351    7.0482 H   0  0  0  0  0  0  0  0  0  0  0  0
   -2.1258   -0.9109    5.0145 H   0  0  0  0  0  0  0  0  0  0  0  0
   -0.8839   -1.4607    2.9964 H   0  0  0  0  0  0  0  0  0  0  0  0
   -1.0414   -2.2356    0.7252 H   0  0  0  0  0  0  0  0  0  0  0  0
   -0.5887   -2.2872   -1.6729 H   0  0  0  0  0  0  0  0  0  0  0  0
   -2.4632   -4.9056   -3.8416 H   0  0  0  0  0  0  0  0  0  0  0  0
   -1.4028   -4.8595   -2.4212 H   0  0  0  0  0  0  0  0  0  0  0  0
   -3.1212   -4.5001   -2.2510 H   0  0  0  0  0  0  0  0  0  0  0  0
   -3.0301   -1.1342   -3.9490 H   0  0  0  0  0  0  0  0  0  0  0  0
   -3.3862   -2.6408   -4.8175 H   0  0  0  0  0  0  0  0  0  0  0  0
   -4.0981   -2.3454   -3.2352 H   0  0  0  0  0  0  0  0  0  0  0  0
   -1.0095   -3.2688   -5.1122 H   0  0  0  0  0  0  0  0  0  0  0  0
    0.1284   -3.2244   -3.7494 H   0  0  0  0  0  0  0  0  0  0  0  0
   -0.5583   -1.7165   -4.3747 H   0  0  0  0  0  0  0  0  0  0  0  0
   -2.3618    0.7788   -0.8336 H   0  0  0  0  0  0  0  0  0  0  0  0
   -0.8026    1.4871   -1.1590 H   0  0  0  0  0  0  0  0  0  0  0  0
    0.4098    2.6437    1.5238 H   0  0  0  0  0  0  0  0  0  0  0  0
   -1.1384    4.0800    3.2398 H   0  0  0  0  0  0  0  0  0  0  0  0
   -3.7320    3.4425    2.5369 H   0  0  0  0  0  0  0  0  0  0  0  0
    1.2229    1.1017   -1.4693 H   0  0  0  0  0  0  0  0  0  0  0  0
    1.5123    1.2016    0.2895 H   0  0  0  0  0  0  0  0  0  0  0  0
    3.0085   -0.5837   -1.6980 H   0  0  0  0  0  0  0  0  0  0  0  0
    3.2331   -0.6280    0.0698 H   0  0  0  0  0  0  0  0  0  0  0  0
    5.4229   -0.3085   -1.0905 H   0  0  0  0  0  0  0  0  0  0  0  0
    5.7144    3.6123   -0.9108 H   0  0  0  0  0  0  0  0  0  0  0  0
    8.2680    5.0465   -1.9354 H   0  0  0  0  0  0  0  0  0  0  0  0
    8.6709    4.7898   -0.2265 H   0  0  0  0  0  0  0  0  0  0  0  0
    9.6989    4.0948   -1.4928 H   0  0  0  0  0  0  0  0  0  0  0  0
   -4.3580   -0.5321    0.5995 H   0  0  0  0  0  0  0  0  0  0  0  0
   -5.5943    0.0077    2.6335 H   0  0  0  0  0  0  0  0  0  0  0  0
  1  2  1  0
  2  3  1  0
  3  4  2  0
  4  5  1  0
  5  6  2  0
  6  7  1  0
  7  8  1  0
  8  9  2  0
  8 10  1  0
 10 11  1  0
 11 12  1  0
 11 13  1  0
 11 14  1  0
  7 15  1  0
 15 16  1  0
 16 17  1  0
 17 18  2  0
 18 19  1  0
 19 20  2  0
 20 21  1  0
 15 22  1  0
 22 23  2  0
 22 24  1  0
 24 25  1  0
 25 26  1  0
 26 27  2  0
 26 28  1  0
 28 29  1  0
 29 30  1  0
 30 31  2  0
 31 32  1  0
 31 33  1  0
 33 34  1  0
  6 35  1  0
 35 36  2  0
 36  3  1  0
 21 17  1  0
 34 29  2  0
  1 37  1  0
  1 38  1  0
  1 39  1  0
  4 40  1  0
  5 41  1  0
  7 42  1  0
 10 43  1  0
 12 44  1  0
 12 45  1  0
 12 46  1  0
 13 47  1  0
 13 48  1  0
 13 49  1  0
 14 50  1  0
 14 51  1  0
 14 52  1  0
 16 53  1  0
 16 54  1  0
 18 55  1  0
 19 56  1  0
 20 57  1  0
 24 58  1  0
 24 59  1  0
 25 60  1  0
 25 61  1  0
 28 62  1  0
 30 63  1  0
 32 64  1  0
 32 65  1  0
 32 66  1  0
 35 67  1  0
 36 68  1  0
M  END
$$$$
