
     RDKit          3D

 27 27  0  0  0  0  0  0  0  0999 V2000
    2.6521    0.3847   -2.5742 C   0  0  0  0  0  0  0  0  0  0  0  0
    1.8370    0.1794   -1.3545 C   0  0  0  0  0  0  0  0  0  0  0  0
    2.2707   -0.1072   -0.0538 C   0  0  0  0  0  0  0  0  0  0  0  0
    1.1290   -0.2070    0.7301 C   0  0  0  0  0  0  0  0  0  0  0  0
    1.0760   -0.4900    2.1375 C   0  0  0  0  0  0  0  0  0  0  0  0
    0.1116   -0.5900    2.8775 O   0  0  0  0  0  0  0  0  0  0  0  0
    2.3162   -0.6585    2.6496 O   0  0  0  0  0  0  0  0  0  0  0  0
    0.0777    0.0252   -0.1440 N   0  0  0  0  0  0  0  0  0  0  0  0
   -1.3842    0.0528    0.0946 C   0  0  0  0  0  0  0  0  0  0  0  0
   -1.8903   -1.3214    0.5724 C   0  0  0  0  0  0  0  0  0  0  0  0
   -2.1679    0.3598   -1.2166 C   0  0  0  0  0  0  0  0  0  0  0  0
   -1.7604    1.1759    1.0795 C   0  0  0  0  0  0  0  0  0  0  0  0
    0.5101    0.2598   -1.4101 N   0  0  0  0  0  0  0  0  0  0  0  0
    3.7204    0.2849   -2.3567 H   0  0  0  0  0  0  0  0  0  0  0  0
    2.4826    1.3847   -2.9860 H   0  0  0  0  0  0  0  0  0  0  0  0
    2.3921   -0.3542   -3.3391 H   0  0  0  0  0  0  0  0  0  0  0  0
    3.2903   -0.2295    0.2870 H   0  0  0  0  0  0  0  0  0  0  0  0
    2.1429   -0.8415    3.5952 H   0  0  0  0  0  0  0  0  0  0  0  0
   -1.6189   -2.1075   -0.1423 H   0  0  0  0  0  0  0  0  0  0  0  0
   -2.9822   -1.3253    0.6722 H   0  0  0  0  0  0  0  0  0  0  0  0
   -1.4872   -1.6182    1.5407 H   0  0  0  0  0  0  0  0  0  0  0  0
   -1.9818   -0.3998   -1.9854 H   0  0  0  0  0  0  0  0  0  0  0  0
   -1.8915    1.3360   -1.6329 H   0  0  0  0  0  0  0  0  0  0  0  0
   -3.2494    0.3793   -1.0355 H   0  0  0  0  0  0  0  0  0  0  0  0
   -1.3493    1.0309    2.0785 H   0  0  0  0  0  0  0  0  0  0  0  0
   -1.3975    2.1469    0.7215 H   0  0  0  0  0  0  0  0  0  0  0  0
   -2.8482    1.2496    1.1950 H   0  0  0  0  0  0  0  0  0  0  0  0
  1  2  1  0
  2  3  1  0
  3  4  2  0
  4  5  1  0
  5  6  2  0
  5  7  1  0
  4  8  1  0
  8  9  1  0
  9 10  1  0
  9 11  1  0
  9 12  1  0
  8 13  1  0
 13  2  2  0
  1 14  1  0
  1 15  1  0
  1 16  1  0
  3 17  1  0
  7 18  1  0
 10 19  1  0
 10 20  1  0
 10 21  1  0
 11 22  1  0
 11 23  1  0
 11 24  1  0
 12 25  1  0
 12 26  1  0
 12 27  1  0
M  END
$$$$
