
     RDKit          3D

 57 62  0  0  0  0  0  0  0  0999 V2000
    7.3362   -0.3488    3.1805 C   0  0  0  0  0  0  0  0  0  0  0  0
    6.2010   -0.6015    2.2490 C   0  0  0  0  0  0  0  0  0  0  0  0
    5.2311   -1.5778    2.3272 C   0  0  0  0  0  0  0  0  0  0  0  0
    4.3088   -1.5085    1.2425 C   0  0  0  0  0  0  0  0  0  0  0  0
    4.5916   -0.4679    0.3778 C   0  0  0  0  0  0  0  0  0  0  0  0
    3.9148   -0.0714   -0.8481 C   0  0  0  0  0  0  0  0  0  0  0  0
    4.5291    0.1374   -1.8951 O   0  0  0  0  0  0  0  0  0  0  0  0
    2.5145    0.0354   -0.8186 N   0  0  0  0  0  0  0  0  0  0  0  0
    1.8356    0.2713   -2.0860 C   0  0  0  0  0  0  0  0  0  0  0  0
    0.3418   -0.0090   -1.9783 C   0  0  0  0  0  0  0  0  0  0  0  0
   -0.3291    0.9609   -0.9731 C   0  0  0  0  0  0  0  0  0  0  0  0
    0.6039    1.2042    0.2536 C   0  0  0  0  0  0  0  0  0  0  0  0
    1.7265    0.1784    0.4033 C   0  0  0  0  0  0  0  0  0  0  0  0
   -0.3981    2.2747   -1.6027 O   0  0  0  0  0  0  0  0  0  0  0  0
   -1.4255    2.5211   -2.4652 C   0  0  0  0  0  0  0  0  0  0  0  0
   -1.3181    3.6804   -3.2326 C   0  0  0  0  0  0  0  0  0  0  0  0
   -2.3106    3.9989   -4.1636 C   0  0  0  0  0  0  0  0  0  0  0  0
   -3.4113    3.1565   -4.3224 C   0  0  0  0  0  0  0  0  0  0  0  0
   -4.6260    3.5500   -5.4738 Cl  0  0  0  0  0  0  0  0  0  0  0  0
   -3.5330    2.0021   -3.5541 C   0  0  0  0  0  0  0  0  0  0  0  0
   -2.5388    1.7002   -2.6189 C   0  0  0  0  0  0  0  0  0  0  0  0
   -2.6430    0.5021   -1.7766 C   0  0  0  0  0  0  0  0  0  0  0  0
   -3.4036   -0.4085   -2.0922 O   0  0  0  0  0  0  0  0  0  0  0  0
   -1.7458    0.4825   -0.5449 C   0  0  0  0  0  0  0  0  0  0  0  0
   -1.7984   -0.8654    0.1576 C   0  0  0  0  0  0  0  0  0  0  0  0
   -2.8842   -0.5672    1.1365 C   0  0  0  0  0  0  0  0  0  0  0  0
   -3.5717   -1.6280    1.8966 C   0  0  0  0  0  0  0  0  0  0  0  0
   -3.2352   -2.9775    1.7802 C   0  0  0  0  0  0  0  0  0  0  0  0
   -3.9275   -3.9219    2.5374 C   0  0  0  0  0  0  0  0  0  0  0  0
   -4.9298   -3.4832    3.3878 C   0  0  0  0  0  0  0  0  0  0  0  0
   -5.2764   -2.1866    3.5273 N   0  0  0  0  0  0  0  0  0  0  0  0
   -4.5928   -1.2868    2.7765 C   0  0  0  0  0  0  0  0  0  0  0  0
   -3.1399    0.6923    1.2915 N   0  0  0  0  0  0  0  0  0  0  0  0
   -2.3085    1.4076    0.4021 O   0  0  0  0  0  0  0  0  0  0  0  0
    5.9880    0.3897    0.8710 S   0  0  0  0  0  0  0  0  0  0  0  0
    8.2371   -0.0347    2.6421 H   0  0  0  0  0  0  0  0  0  0  0  0
    7.0707    0.4349    3.8989 H   0  0  0  0  0  0  0  0  0  0  0  0
    7.5842   -1.2562    3.7429 H   0  0  0  0  0  0  0  0  0  0  0  0
    5.1918   -2.3174    3.1184 H   0  0  0  0  0  0  0  0  0  0  0  0
    3.4876   -2.1990    1.0973 H   0  0  0  0  0  0  0  0  0  0  0  0
    2.2800   -0.3743   -2.8521 H   0  0  0  0  0  0  0  0  0  0  0  0
    2.0247    1.3097   -2.3834 H   0  0  0  0  0  0  0  0  0  0  0  0
   -0.0972    0.0910   -2.9770 H   0  0  0  0  0  0  0  0  0  0  0  0
    0.1996   -1.0505   -1.6653 H   0  0  0  0  0  0  0  0  0  0  0  0
    0.0348    1.2342    1.1896 H   0  0  0  0  0  0  0  0  0  0  0  0
    1.0714    2.1957    0.1691 H   0  0  0  0  0  0  0  0  0  0  0  0
    1.3193   -0.8097    0.6388 H   0  0  0  0  0  0  0  0  0  0  0  0
    2.3638    0.4825    1.2387 H   0  0  0  0  0  0  0  0  0  0  0  0
   -0.4575    4.3354   -3.1131 H   0  0  0  0  0  0  0  0  0  0  0  0
   -2.2178    4.9027   -4.7610 H   0  0  0  0  0  0  0  0  0  0  0  0
   -4.3950    1.3490   -3.6705 H   0  0  0  0  0  0  0  0  0  0  0  0
   -2.0324   -1.7052   -0.4997 H   0  0  0  0  0  0  0  0  0  0  0  0
   -0.8959   -1.0911    0.7296 H   0  0  0  0  0  0  0  0  0  0  0  0
   -2.4499   -3.3178    1.1136 H   0  0  0  0  0  0  0  0  0  0  0  0
   -3.6931   -4.9782    2.4646 H   0  0  0  0  0  0  0  0  0  0  0  0
   -5.4967   -4.1826    3.9964 H   0  0  0  0  0  0  0  0  0  0  0  0
   -4.9049   -0.2541    2.9135 H   0  0  0  0  0  0  0  0  0  0  0  0
  1  2  1  0
  2  3  2  0
  3  4  1  0
  4  5  2  0
  5  6  1  0
  6  7  2  0
  6  8  1  0
  8  9  1  0
  9 10  1  0
 10 11  1  0
 11 12  1  0
 12 13  1  0
 11 14  1  0
 14 15  1  0
 15 16  2  0
 16 17  1  0
 17 18  2  0
 18 19  1  0
 18 20  1  0
 20 21  2  0
 21 22  1  0
 22 23  2  0
 22 24  1  0
 24 25  1  0
 25 26  1  0
 26 27  1  0
 27 28  2  0
 28 29  1  0
 29 30  2  0
 30 31  1  0
 31 32  2  0
 26 33  2  0
 33 34  1  0
  5 35  1  0
 35  2  1  0
 13  8  1  0
 21 15  1  0
 34 24  1  0
 24 11  1  0
 32 27  1  0
  1 36  1  0
  1 37  1  0
  1 38  1  0
  3 39  1  0
  4 40  1  0
  9 41  1  0
  9 42  1  0
 10 43  1  0
 10 44  1  0
 12 45  1  0
 12 46  1  0
 13 47  1  0
 13 48  1  0
 16 49  1  0
 17 50  1  0
 20 51  1  0
 25 52  1  0
 25 53  1  0
 28 54  1  0
 29 55  1  0
 30 56  1  0
 32 57  1  0
M  END
$$$$
