
     RDKit          3D

 32 34  0  0  0  0  0  0  0  0999 V2000
    0.0340   -1.0330   -1.6629 O   0  0  0  0  0  0  0  0  0  0  0  0
   -0.2217   -0.2784   -0.7309 C   0  0  0  0  0  0  0  0  0  0  0  0
   -1.6267    0.3019   -0.5265 C   0  0  0  0  0  0  0  0  0  0  0  0
   -2.6173   -0.6852   -0.7859 O   0  0  0  0  0  0  0  0  0  0  0  0
   -3.9286   -0.3056   -0.7040 C   0  0  0  0  0  0  0  0  0  0  0  0
   -4.3879    0.9835   -0.4177 C   0  0  0  0  0  0  0  0  0  0  0  0
   -5.7635    1.2431   -0.3645 C   0  0  0  0  0  0  0  0  0  0  0  0
   -6.6798    0.2162   -0.5979 C   0  0  0  0  0  0  0  0  0  0  0  0
   -8.5331    0.5793   -0.5249 Br  0  0  0  0  0  0  0  0  0  0  0  0
   -6.2378   -1.0710   -0.8833 C   0  0  0  0  0  0  0  0  0  0  0  0
   -4.8691   -1.3193   -0.9334 C   0  0  0  0  0  0  0  0  0  0  0  0
   -4.4592   -2.5689   -1.2042 F   0  0  0  0  0  0  0  0  0  0  0  0
    0.6783    0.1721    0.2159 N   0  0  0  0  0  0  0  0  0  0  0  0
    1.9938   -0.2058    0.2025 C   0  0  0  0  0  0  0  0  0  0  0  0
    2.6543   -0.9787   -0.6234 N   0  0  0  0  0  0  0  0  0  0  0  0
    3.9867   -1.0941   -0.2635 N   0  0  0  0  0  0  0  0  0  0  0  0
    4.2595   -0.3874    0.8098 C   0  0  0  0  0  0  0  0  0  0  0  0
    5.6891   -0.3347    1.4309 C   0  0  0  0  0  0  0  0  0  0  0  0
    6.5053    0.9259    1.2943 C   0  0  0  0  0  0  0  0  0  0  0  0
    6.8865   -0.2982    0.5152 C   0  0  0  0  0  0  0  0  0  0  0  0
    2.9250    0.4519    1.4770 S   0  0  0  0  0  0  0  0  0  0  0  0
   -1.7281    0.6622    0.5069 H   0  0  0  0  0  0  0  0  0  0  0  0
   -1.7188    1.1431   -1.2289 H   0  0  0  0  0  0  0  0  0  0  0  0
   -3.7101    1.8111   -0.2352 H   0  0  0  0  0  0  0  0  0  0  0  0
   -6.1095    2.2509   -0.1421 H   0  0  0  0  0  0  0  0  0  0  0  0
   -6.9310   -1.8858   -1.0685 H   0  0  0  0  0  0  0  0  0  0  0  0
    0.3940    0.7774    0.9698 H   0  0  0  0  0  0  0  0  0  0  0  0
    5.7933   -0.9063    2.3465 H   0  0  0  0  0  0  0  0  0  0  0  0
    7.1394    1.2128    2.1250 H   0  0  0  0  0  0  0  0  0  0  0  0
    6.0935    1.7621    0.7407 H   0  0  0  0  0  0  0  0  0  0  0  0
    6.7175   -0.2962   -0.5565 H   0  0  0  0  0  0  0  0  0  0  0  0
    7.7718   -0.8448    0.8188 H   0  0  0  0  0  0  0  0  0  0  0  0
  1  2  2  0
  2  3  1  0
  3  4  1  0
  4  5  1  0
  5  6  2  0
  6  7  1  0
  7  8  2  0
  8  9  1  0
  8 10  1  0
 10 11  2  0
 11 12  1  0
  2 13  1  0
 13 14  1  0
 14 15  2  0
 15 16  1  0
 16 17  2  0
 17 18  1  0
 18 19  1  0
 19 20  1  0
 17 21  1  0
 11  5  1  0
 21 14  1  0
 20 18  1  0
  3 22  1  0
  3 23  1  0
  6 24  1  0
  7 25  1  0
 10 26  1  0
 13 27  1  0
 18 28  1  0
 19 29  1  0
 19 30  1  0
 20 31  1  0
 20 32  1  0
M  END
$$$$
