
     RDKit          3D

 60 65  0  0  0  0  0  0  0  0999 V2000
    1.4502   -3.4958    2.1633 O   0  0  0  0  0  0  0  0  0  0  0  0
    1.9183   -2.8220    1.2538 C   0  0  0  0  0  0  0  0  0  0  0  0
    1.1354   -2.0052    0.4466 N   0  0  0  0  0  0  0  0  0  0  0  0
    1.6202   -1.2490   -0.6134 C   0  0  0  0  0  0  0  0  0  0  0  0
    0.6034   -0.4131   -1.3885 C   0  0  0  0  0  0  0  0  0  0  0  0
   -0.5878   -1.2531   -1.8764 C   0  0  0  0  0  0  0  0  0  0  0  0
   -1.8732   -0.9781   -1.0977 C   0  0  0  0  0  0  0  0  0  0  0  0
   -1.5268   -0.7839    0.3271 N   0  0  0  0  0  0  0  0  0  0  0  0
   -2.7401   -1.1790    1.4727 S   0  0  0  0  0  6  0  0  0  0  0  0
   -2.1837   -0.9238    2.7832 O   0  0  0  0  0  0  0  0  0  0  0  0
   -3.2654   -2.4786    1.1169 O   0  0  0  0  0  0  0  0  0  0  0  0
   -4.0144    0.0242    1.1750 C   0  0  0  0  0  0  0  0  0  0  0  0
   -4.0727    1.1839    1.9569 C   0  0  0  0  0  0  0  0  0  0  0  0
   -5.0925    2.1115    1.7386 C   0  0  0  0  0  0  0  0  0  0  0  0
   -6.0550    1.8680    0.7594 C   0  0  0  0  0  0  0  0  0  0  0  0
   -5.9900    0.7072   -0.0204 C   0  0  0  0  0  0  0  0  0  0  0  0
   -4.9850   -0.2306    0.2014 C   0  0  0  0  0  0  0  0  0  0  0  0
   -6.8880    0.4190   -1.0154 O   0  0  0  0  0  0  0  0  0  0  0  0
   -7.6749    1.5643   -1.3651 C   0  0  0  0  0  0  0  0  0  0  0  0
   -8.1528    2.2932   -0.1202 C   0  0  0  0  0  0  0  0  0  0  0  0
   -7.0390    2.8120    0.6165 O   0  0  0  0  0  0  0  0  0  0  0  0
   -0.7777    0.4756    0.5862 C   0  0  0  0  0  0  0  0  0  0  0  0
    0.1611    0.8081   -0.5763 C   0  0  0  0  0  0  0  0  0  0  0  0
    2.8777   -1.2006   -0.9624 N   0  0  0  0  0  0  0  0  0  0  0  0
    3.6690   -1.9744   -0.1790 C   0  0  0  0  0  0  0  0  0  0  0  0
    3.3060   -2.7711    0.8800 C   0  0  0  0  0  0  0  0  0  0  0  0
    4.3944   -3.3996    1.4026 N   0  0  0  0  0  0  0  0  0  0  0  0
    5.4547   -3.0116    0.6937 N   0  0  0  0  0  0  0  0  0  0  0  0
    5.0226   -2.1382   -0.2494 N   0  0  0  0  0  0  0  0  0  0  0  0
    5.9474   -1.5484   -1.1935 C   0  0  0  0  0  0  0  0  0  0  0  0
    6.3887   -0.1745   -0.7493 C   0  0  0  0  0  0  0  0  0  0  0  0
    5.7788    0.9750   -1.2783 C   0  0  0  0  0  0  0  0  0  0  0  0
    6.1792    2.2435   -0.8565 C   0  0  0  0  0  0  0  0  0  0  0  0
    7.1827    2.3646    0.0970 C   0  0  0  0  0  0  0  0  0  0  0  0
    7.5634    3.5834    0.5014 F   0  0  0  0  0  0  0  0  0  0  0  0
    7.7931    1.2407    0.6397 C   0  0  0  0  0  0  0  0  0  0  0  0
    7.3961   -0.0294    0.2192 C   0  0  0  0  0  0  0  0  0  0  0  0
    0.1454   -1.9998    0.6716 H   0  0  0  0  0  0  0  0  0  0  0  0
    1.1338   -0.0474   -2.2791 H   0  0  0  0  0  0  0  0  0  0  0  0
   -0.3505   -2.3233   -1.8285 H   0  0  0  0  0  0  0  0  0  0  0  0
   -0.7792   -1.0379   -2.9352 H   0  0  0  0  0  0  0  0  0  0  0  0
   -2.5526   -1.8238   -1.2398 H   0  0  0  0  0  0  0  0  0  0  0  0
   -2.3711   -0.0817   -1.4858 H   0  0  0  0  0  0  0  0  0  0  0  0
   -3.3402    1.3670    2.7407 H   0  0  0  0  0  0  0  0  0  0  0  0
   -5.1509    3.0124    2.3444 H   0  0  0  0  0  0  0  0  0  0  0  0
   -4.9659   -1.1470   -0.3832 H   0  0  0  0  0  0  0  0  0  0  0  0
   -8.5304    1.2125   -1.9500 H   0  0  0  0  0  0  0  0  0  0  0  0
   -7.0692    2.2185   -2.0043 H   0  0  0  0  0  0  0  0  0  0  0  0
   -8.7296    1.6312    0.5375 H   0  0  0  0  0  0  0  0  0  0  0  0
   -8.7899    3.1389   -0.3974 H   0  0  0  0  0  0  0  0  0  0  0  0
   -0.1834    0.3438    1.4974 H   0  0  0  0  0  0  0  0  0  0  0  0
   -1.4576    1.3174    0.7453 H   0  0  0  0  0  0  0  0  0  0  0  0
   -0.3603    1.4970   -1.2546 H   0  0  0  0  0  0  0  0  0  0  0  0
    1.0290    1.3598   -0.1947 H   0  0  0  0  0  0  0  0  0  0  0  0
    6.8104   -2.2167   -1.2964 H   0  0  0  0  0  0  0  0  0  0  0  0
    5.4540   -1.5109   -2.1716 H   0  0  0  0  0  0  0  0  0  0  0  0
    4.9830    0.8874   -2.0158 H   0  0  0  0  0  0  0  0  0  0  0  0
    5.7135    3.1363   -1.2608 H   0  0  0  0  0  0  0  0  0  0  0  0
    8.5687    1.3590    1.3897 H   0  0  0  0  0  0  0  0  0  0  0  0
    7.8696   -0.9066    0.6584 H   0  0  0  0  0  0  0  0  0  0  0  0
  1  2  2  0
  2  3  1  0
  3  4  1  0
  4  5  1  0
  5  6  1  0
  6  7  1  0
  7  8  1  0
  8  9  1  0
  9 10  2  0
  9 11  2  0
  9 12  1  0
 12 13  2  0
 13 14  1  0
 14 15  2  0
 15 16  1  0
 16 17  2  0
 16 18  1  0
 18 19  1  0
 19 20  1  0
 20 21  1  0
  8 22  1  0
 22 23  1  0
  4 24  2  0
 24 25  1  0
 25 26  2  0
 26 27  1  0
 27 28  2  0
 28 29  1  0
 29 30  1  0
 30 31  1  0
 31 32  2  0
 32 33  1  0
 33 34  2  0
 34 35  1  0
 34 36  1  0
 36 37  2  0
 26  2  1  0
 37 31  1  0
 23  5  1  0
 29 25  1  0
 17 12  1  0
 21 15  1  0
  3 38  1  0
  5 39  1  0
  6 40  1  0
  6 41  1  0
  7 42  1  0
  7 43  1  0
 13 44  1  0
 14 45  1  0
 17 46  1  0
 19 47  1  0
 19 48  1  0
 20 49  1  0
 20 50  1  0
 22 51  1  0
 22 52  1  0
 23 53  1  0
 23 54  1  0
 30 55  1  0
 30 56  1  0
 32 57  1  0
 33 58  1  0
 36 59  1  0
 37 60  1  0
M  END
$$$$
