
     RDKit          3D

 43 45  0  0  0  0  0  0  0  0999 V2000
    6.2442    0.5897   -2.8372 C   0  0  0  0  0  0  0  0  0  0  0  0
    6.0813    0.0442   -1.5335 O   0  0  0  0  0  0  0  0  0  0  0  0
    4.8335    0.1238   -0.9787 C   0  0  0  0  0  0  0  0  0  0  0  0
    3.7069    0.6826   -1.5760 C   0  0  0  0  0  0  0  0  0  0  0  0
    2.4832    0.6993   -0.8958 C   0  0  0  0  0  0  0  0  0  0  0  0
    2.3662    0.1652    0.3933 C   0  0  0  0  0  0  0  0  0  0  0  0
    1.1413    0.1003    1.1057 N   0  0  0  0  0  0  0  0  0  0  0  0
   -0.0979    0.5265    0.7277 C   0  0  0  0  0  0  0  0  0  0  0  0
   -0.8338    1.1919    1.5665 N   0  0  0  0  0  0  0  0  0  0  0  0
   -2.0720    1.5428    1.0708 C   0  0  0  0  0  0  0  0  0  0  0  0
   -2.8254    2.3027    1.6705 O   0  0  0  0  0  0  0  0  0  0  0  0
   -2.5547    1.0137   -0.2802 C   0  0  0  0  0  0  0  0  0  0  0  0
   -3.9778    1.2924   -0.6812 C   0  0  0  0  0  0  0  0  0  0  0  0
   -4.9353    0.2757   -0.1116 C   0  0  0  0  0  0  0  0  0  0  0  0
   -5.1111   -0.9638   -0.7424 C   0  0  0  0  0  0  0  0  0  0  0  0
   -5.9796   -1.9144   -0.2041 C   0  0  0  0  0  0  0  0  0  0  0  0
   -6.6751   -1.6380    0.9713 C   0  0  0  0  0  0  0  0  0  0  0  0
   -6.5008   -0.4122    1.6110 C   0  0  0  0  0  0  0  0  0  0  0  0
   -5.6334    0.5402    1.0742 C   0  0  0  0  0  0  0  0  0  0  0  0
   -1.7595    0.3198   -1.0471 N   0  0  0  0  0  0  0  0  0  0  0  0
   -0.5104    0.1389   -0.5275 N   0  0  0  0  0  0  0  0  0  0  0  0
    3.5148   -0.4004    0.9940 C   0  0  0  0  0  0  0  0  0  0  0  0
    3.3241   -0.8936    2.2646 O   0  0  0  0  0  0  0  0  0  0  0  0
    4.4359   -1.5229    2.8901 C   0  0  0  0  0  0  0  0  0  0  0  0
    4.7330   -0.4147    0.3071 C   0  0  0  0  0  0  0  0  0  0  0  0
    7.2890    0.4487   -3.1302 H   0  0  0  0  0  0  0  0  0  0  0  0
    6.0386    1.6652   -2.8434 H   0  0  0  0  0  0  0  0  0  0  0  0
    5.6197    0.0627   -3.5661 H   0  0  0  0  0  0  0  0  0  0  0  0
    3.7423    1.1207   -2.5683 H   0  0  0  0  0  0  0  0  0  0  0  0
    1.6383    1.1723   -1.3888 H   0  0  0  0  0  0  0  0  0  0  0  0
    1.3238    0.2142    2.1015 H   0  0  0  0  0  0  0  0  0  0  0  0
   -4.2626    2.3069   -0.3809 H   0  0  0  0  0  0  0  0  0  0  0  0
   -4.0448    1.2775   -1.7765 H   0  0  0  0  0  0  0  0  0  0  0  0
   -4.5685   -1.1976   -1.6564 H   0  0  0  0  0  0  0  0  0  0  0  0
   -6.1110   -2.8723   -0.7005 H   0  0  0  0  0  0  0  0  0  0  0  0
   -7.3498   -2.3790    1.3916 H   0  0  0  0  0  0  0  0  0  0  0  0
   -7.0374   -0.1977    2.5316 H   0  0  0  0  0  0  0  0  0  0  0  0
   -5.5022    1.4888    1.5928 H   0  0  0  0  0  0  0  0  0  0  0  0
    0.0627   -0.5802   -0.9667 H   0  0  0  0  0  0  0  0  0  0  0  0
    4.1075   -1.8824    3.8701 H   0  0  0  0  0  0  0  0  0  0  0  0
    5.2508   -0.8101    3.0538 H   0  0  0  0  0  0  0  0  0  0  0  0
    4.7754   -2.3903    2.3145 H   0  0  0  0  0  0  0  0  0  0  0  0
    5.6303   -0.8371    0.7471 H   0  0  0  0  0  0  0  0  0  0  0  0
  1  2  1  0
  2  3  1  0
  3  4  2  0
  4  5  1  0
  5  6  2  0
  6  7  1  0
  7  8  1  0
  8  9  2  0
  9 10  1  0
 10 11  2  0
 10 12  1  0
 12 13  1  0
 13 14  1  0
 14 15  2  0
 15 16  1  0
 16 17  2  0
 17 18  1  0
 18 19  2  0
 12 20  2  0
 20 21  1  0
  6 22  1  0
 22 23  1  0
 23 24  1  0
 22 25  2  0
 25  3  1  0
 21  8  1  0
 19 14  1  0
  1 26  1  0
  1 27  1  0
  1 28  1  0
  4 29  1  0
  5 30  1  0
  7 31  1  0
 13 32  1  0
 13 33  1  0
 15 34  1  0
 16 35  1  0
 17 36  1  0
 18 37  1  0
 19 38  1  0
 21 39  1  0
 24 40  1  0
 24 41  1  0
 24 42  1  0
 25 43  1  0
M  END
$$$$
