
     RDKit          3D

 52 51  0  0  0  0  0  0  0  0999 V2000
   -5.0475    2.4408   -2.4771 C   0  0  0  0  0  0  0  0  0  0  0  0
   -5.0129    1.3097   -2.0735 C   0  0  0  0  0  0  0  0  0  0  0  0
   -4.9756   -0.0762   -1.5984 C   0  0  0  0  0  0  0  0  0  0  0  0
   -4.6523   -0.1709   -0.0859 N   0  0  0  0  0  4  0  0  0  0  0  0
   -4.7011   -1.6522    0.2816 C   0  0  0  0  0  0  0  0  0  0  0  0
   -5.7207    0.5735    0.7089 C   0  0  0  0  0  0  0  0  0  0  0  0
   -3.2451    0.4141    0.1631 C   0  0  0  0  0  0  0  0  0  0  0  0
   -2.7825    0.3039    1.6202 C   0  0  0  0  0  0  0  0  0  0  0  0
   -1.3856    0.9049    1.8337 C   0  0  0  0  0  0  0  0  0  0  0  0
   -0.2375   -0.1112    1.8046 C   0  0  0  0  0  0  0  0  0  0  0  0
   -0.0568   -0.8156    0.4586 C   0  0  0  0  0  0  0  0  0  0  0  0
    1.2098   -1.6785    0.4063 C   0  0  0  0  0  0  0  0  0  0  0  0
    2.3983   -1.0251   -0.3103 C   0  0  0  0  0  0  0  0  0  0  0  0
    2.9265    0.2347    0.3769 C   0  0  0  0  0  0  0  0  0  0  0  0
    4.1417    0.8479   -0.3273 C   0  0  0  0  0  0  0  0  0  0  0  0
    5.4009   -0.0172   -0.2371 C   0  0  0  0  0  0  0  0  0  0  0  0
    6.6071    0.6966   -0.8496 C   0  0  0  0  0  0  0  0  0  0  0  0
    7.8614   -0.1588   -0.7677 C   0  0  0  0  0  0  0  0  0  0  0  0
   -5.0805    3.4416   -2.8487 H   0  0  0  0  0  0  0  0  0  0  0  0
   -5.9461   -0.5617   -1.7530 H   0  0  0  0  0  0  0  0  0  0  0  0
   -4.2087   -0.6538   -2.1271 H   0  0  0  0  0  0  0  0  0  0  0  0
   -5.6674   -2.0571   -0.0349 H   0  0  0  0  0  0  0  0  0  0  0  0
   -4.6039   -1.7570    1.3650 H   0  0  0  0  0  0  0  0  0  0  0  0
   -3.8832   -2.1645   -0.2333 H   0  0  0  0  0  0  0  0  0  0  0  0
   -5.5986    1.6488    0.5541 H   0  0  0  0  0  0  0  0  0  0  0  0
   -5.6037    0.3318    1.7687 H   0  0  0  0  0  0  0  0  0  0  0  0
   -6.7044    0.2401    0.3646 H   0  0  0  0  0  0  0  0  0  0  0  0
   -2.5664   -0.1132   -0.5134 H   0  0  0  0  0  0  0  0  0  0  0  0
   -3.2748    1.4694   -0.1292 H   0  0  0  0  0  0  0  0  0  0  0  0
   -2.7920   -0.7312    1.9740 H   0  0  0  0  0  0  0  0  0  0  0  0
   -3.4788    0.8640    2.2545 H   0  0  0  0  0  0  0  0  0  0  0  0
   -1.1931    1.7100    1.1147 H   0  0  0  0  0  0  0  0  0  0  0  0
   -1.3710    1.3721    2.8271 H   0  0  0  0  0  0  0  0  0  0  0  0
   -0.4010   -0.8633    2.5867 H   0  0  0  0  0  0  0  0  0  0  0  0
    0.6824    0.4166    2.0777 H   0  0  0  0  0  0  0  0  0  0  0  0
   -0.0616   -0.0897   -0.3624 H   0  0  0  0  0  0  0  0  0  0  0  0
   -0.9158   -1.4795    0.3044 H   0  0  0  0  0  0  0  0  0  0  0  0
    0.9692   -2.5952   -0.1477 H   0  0  0  0  0  0  0  0  0  0  0  0
    1.5068   -1.9980    1.4123 H   0  0  0  0  0  0  0  0  0  0  0  0
    2.1134   -0.7868   -1.3425 H   0  0  0  0  0  0  0  0  0  0  0  0
    3.1952   -1.7747   -0.3710 H   0  0  0  0  0  0  0  0  0  0  0  0
    2.1383    0.9957    0.3900 H   0  0  0  0  0  0  0  0  0  0  0  0
    3.1789    0.0133    1.4206 H   0  0  0  0  0  0  0  0  0  0  0  0
    4.3460    1.8219    0.1346 H   0  0  0  0  0  0  0  0  0  0  0  0
    3.8988    1.0425   -1.3790 H   0  0  0  0  0  0  0  0  0  0  0  0
    5.6098   -0.2549    0.8129 H   0  0  0  0  0  0  0  0  0  0  0  0
    5.2449   -0.9667   -0.7607 H   0  0  0  0  0  0  0  0  0  0  0  0
    6.7843    1.6442   -0.3278 H   0  0  0  0  0  0  0  0  0  0  0  0
    6.4036    0.9370   -1.8995 H   0  0  0  0  0  0  0  0  0  0  0  0
    8.7108    0.3705   -1.2108 H   0  0  0  0  0  0  0  0  0  0  0  0
    7.7294   -1.1016   -1.3082 H   0  0  0  0  0  0  0  0  0  0  0  0
    8.1109   -0.3908    0.2726 H   0  0  0  0  0  0  0  0  0  0  0  0
  1  2  3  0
  2  3  1  0
  3  4  1  0
  4  5  1  0
  4  6  1  0
  4  7  1  0
  7  8  1  0
  8  9  1  0
  9 10  1  0
 10 11  1  0
 11 12  1  0
 12 13  1  0
 13 14  1  0
 14 15  1  0
 15 16  1  0
 16 17  1  0
 17 18  1  0
  1 19  1  0
  3 20  1  0
  3 21  1  0
  5 22  1  0
  5 23  1  0
  5 24  1  0
  6 25  1  0
  6 26  1  0
  6 27  1  0
  7 28  1  0
  7 29  1  0
  8 30  1  0
  8 31  1  0
  9 32  1  0
  9 33  1  0
 10 34  1  0
 10 35  1  0
 11 36  1  0
 11 37  1  0
 12 38  1  0
 12 39  1  0
 13 40  1  0
 13 41  1  0
 14 42  1  0
 14 43  1  0
 15 44  1  0
 15 45  1  0
 16 46  1  0
 16 47  1  0
 17 48  1  0
 17 49  1  0
 18 50  1  0
 18 51  1  0
 18 52  1  0
M  CHG  1   4   1
M  END
$$$$
