
     RDKit          3D

 23 23  0  0  0  0  0  0  0  0999 V2000
   -2.0137    0.5611   -1.3448 C   0  0  0  0  0  0  0  0  0  0  0  0
   -1.5155   -0.1162   -0.0917 C   0  0  0  0  0  0  0  0  0  0  0  0
   -0.0652   -0.1100    0.1459 C   0  0  0  0  0  0  0  0  0  0  0  0
    0.8628    0.4855   -0.6217 C   0  0  0  0  0  0  0  0  0  0  0  0
    2.2559    0.4501   -0.3260 C   0  0  0  0  0  0  0  0  0  0  0  0
    2.9729   -0.1421    0.7105 C   0  0  0  0  0  0  0  0  0  0  0  0
    4.3466    0.1391    0.5147 C   0  0  0  0  0  0  0  0  0  0  0  0
    4.4134    0.8890   -0.6295 C   0  0  0  0  0  0  0  0  0  0  0  0
    3.1746    1.0812   -1.1400 O   0  0  0  0  0  0  0  0  0  0  0  0
   -2.3017   -0.7305    0.8167 C   0  0  0  0  0  0  0  0  0  0  0  0
   -3.7721   -0.8381    0.7955 C   0  0  0  0  0  0  0  0  0  0  0  0
   -4.5699   -0.3193    0.0428 O   0  0  0  0  0  0  0  0  0  0  0  0
   -4.1744   -1.6395    1.7983 O   0  0  0  0  0  0  0  0  0  0  0  0
   -3.0817    0.4395   -1.5241 H   0  0  0  0  0  0  0  0  0  0  0  0
   -1.8152    1.6377   -1.3011 H   0  0  0  0  0  0  0  0  0  0  0  0
   -1.5139    0.1478   -2.2284 H   0  0  0  0  0  0  0  0  0  0  0  0
    0.2591   -0.6424    1.0388 H   0  0  0  0  0  0  0  0  0  0  0  0
    0.5904    1.0340   -1.5176 H   0  0  0  0  0  0  0  0  0  0  0  0
    2.5516   -0.7170    1.5230 H   0  0  0  0  0  0  0  0  0  0  0  0
    5.1797   -0.1673    1.1309 H   0  0  0  0  0  0  0  0  0  0  0  0
    5.2232    1.3405   -1.1852 H   0  0  0  0  0  0  0  0  0  0  0  0
   -1.8566   -1.2076    1.6861 H   0  0  0  0  0  0  0  0  0  0  0  0
   -5.1501   -1.6487    1.7067 H   0  0  0  0  0  0  0  0  0  0  0  0
  1  2  1  0
  2  3  1  0
  3  4  2  3
  4  5  1  0
  5  6  2  0
  6  7  1  0
  7  8  2  0
  8  9  1  0
  2 10  2  3
 10 11  1  0
 11 12  2  0
 11 13  1  0
  9  5  1  0
  1 14  1  0
  1 15  1  0
  1 16  1  0
  3 17  1  0
  4 18  1  0
  6 19  1  0
  7 20  1  0
  8 21  1  0
 10 22  1  0
 13 23  1  0
M  END
$$$$
