
     RDKit          3D

 39 39  0  0  0  0  0  0  0  0999 V2000
   -3.9096   -2.5846    0.3812 C   0  0  0  0  0  0  0  0  0  0  0  0
   -3.0382   -2.4087   -0.8482 C   0  0  0  0  0  0  0  0  0  0  0  0
   -2.0510   -1.3949   -0.6106 O   0  0  0  0  0  0  0  0  0  0  0  0
   -0.9037   -1.7995    0.0089 C   0  0  0  0  0  0  0  0  0  0  0  0
   -0.6542   -2.9698    0.2909 O   0  0  0  0  0  0  0  0  0  0  0  0
    0.0917   -0.6299    0.2716 C   0  0  0  0  0  0  0  0  0  0  0  0
   -0.3197    0.6058   -0.3862 N   0  0  0  0  0  0  0  0  0  0  0  0
   -1.3252    1.4028    0.0851 C   0  0  0  0  0  0  0  0  0  0  0  0
   -1.9152    1.1670    1.1300 O   0  0  0  0  0  0  0  0  0  0  0  0
   -1.6185    2.5871   -0.8120 C   0  0  0  0  0  0  0  0  0  0  0  0
   -2.7343    3.4605   -0.2679 C   0  0  0  0  0  0  0  0  0  0  0  0
    1.3481   -0.9875   -0.4742 N   0  0  0  0  0  0  0  0  0  0  0  0
    2.5729   -0.3400   -0.2820 C   0  0  0  0  0  0  0  0  0  0  0  0
    2.7180    0.9701    0.1841 C   0  0  0  0  0  0  0  0  0  0  0  0
    3.9780    1.5751    0.2743 C   0  0  0  0  0  0  0  0  0  0  0  0
    5.1171    0.8897   -0.1331 C   0  0  0  0  0  0  0  0  0  0  0  0
    4.9943   -0.3969   -0.6423 C   0  0  0  0  0  0  0  0  0  0  0  0
    3.7336   -0.9953   -0.7270 C   0  0  0  0  0  0  0  0  0  0  0  0
    0.2202   -0.6469    1.8361 C   0  0  0  0  0  0  0  0  0  0  0  0
    1.0806   -1.6207    2.2440 F   0  0  0  0  0  0  0  0  0  0  0  0
    0.7118    0.5209    2.3247 F   0  0  0  0  0  0  0  0  0  0  0  0
   -0.9490   -0.8850    2.4755 F   0  0  0  0  0  0  0  0  0  0  0  0
   -4.3638   -1.6308    0.6696 H   0  0  0  0  0  0  0  0  0  0  0  0
   -4.7043   -3.3118    0.1927 H   0  0  0  0  0  0  0  0  0  0  0  0
   -3.3183   -2.9265    1.2365 H   0  0  0  0  0  0  0  0  0  0  0  0
   -3.6514   -2.0670   -1.6883 H   0  0  0  0  0  0  0  0  0  0  0  0
   -2.5740   -3.3538   -1.1518 H   0  0  0  0  0  0  0  0  0  0  0  0
    0.0688    0.7438   -1.3072 H   0  0  0  0  0  0  0  0  0  0  0  0
   -1.8975    2.2117   -1.8028 H   0  0  0  0  0  0  0  0  0  0  0  0
   -0.7034    3.1814   -0.9130 H   0  0  0  0  0  0  0  0  0  0  0  0
   -2.4763    3.8583    0.7192 H   0  0  0  0  0  0  0  0  0  0  0  0
   -3.6648    2.8920   -0.1672 H   0  0  0  0  0  0  0  0  0  0  0  0
   -2.9198    4.3046   -0.9391 H   0  0  0  0  0  0  0  0  0  0  0  0
    1.4902   -2.0010   -0.4039 H   0  0  0  0  0  0  0  0  0  0  0  0
    1.8668    1.5639    0.5003 H   0  0  0  0  0  0  0  0  0  0  0  0
    4.0636    2.5877    0.6610 H   0  0  0  0  0  0  0  0  0  0  0  0
    6.0938    1.3607   -0.0634 H   0  0  0  0  0  0  0  0  0  0  0  0
    5.8751   -0.9364   -0.9803 H   0  0  0  0  0  0  0  0  0  0  0  0
    3.6678   -1.9959   -1.1495 H   0  0  0  0  0  0  0  0  0  0  0  0
  1  2  1  0
  2  3  1  0
  3  4  1  0
  4  5  2  0
  4  6  1  0
  6  7  1  0
  7  8  1  0
  8  9  2  0
  8 10  1  0
 10 11  1  0
  6 12  1  0
 12 13  1  0
 13 14  2  0
 14 15  1  0
 15 16  2  0
 16 17  1  0
 17 18  2  0
  6 19  1  0
 19 20  1  0
 19 21  1  0
 19 22  1  0
 18 13  1  0
  1 23  1  0
  1 24  1  0
  1 25  1  0
  2 26  1  0
  2 27  1  0
  7 28  1  0
 10 29  1  0
 10 30  1  0
 11 31  1  0
 11 32  1  0
 11 33  1  0
 12 34  1  0
 14 35  1  0
 15 36  1  0
 16 37  1  0
 17 38  1  0
 18 39  1  0
M  END
$$$$
