
     RDKit          3D

 44 47  0  0  0  0  0  0  0  0999 V2000
   -2.9317    1.3859    2.7499 N   0  0  0  0  0  0  0  0  0  0  0  0
   -3.5567    1.4691    1.5600 C   0  0  0  0  0  0  0  0  0  0  0  0
   -4.8488    1.7585    1.4105 N   0  0  0  0  0  0  0  0  0  0  0  0
   -5.0788    1.7386    0.0405 O   0  0  0  0  0  0  0  0  0  0  0  0
   -3.9165    1.4322   -0.6633 N   0  0  0  0  0  0  0  0  0  0  0  0
   -2.9926    1.2683    0.2849 C   0  0  0  0  0  0  0  0  0  0  0  0
   -1.6424    0.9701   -0.0374 N   0  0  0  0  0  0  0  0  0  0  0  0
   -0.6750    0.9790    0.9308 N   0  0  0  0  0  0  0  0  0  0  0  0
    0.5042    0.7859    0.3711 N   0  0  0  0  0  0  0  0  0  0  0  0
    0.3172    0.6173   -0.9751 C   0  0  0  0  0  0  0  0  0  0  0  0
    1.4358    0.3963   -1.8899 C   0  0  0  0  0  0  0  0  0  0  0  0
    1.2961    0.3780   -3.1083 O   0  0  0  0  0  0  0  0  0  0  0  0
    2.6357    0.2392   -1.2118 N   0  0  0  0  0  0  0  0  0  0  0  0
    3.8063    0.0758   -1.8884 N   0  0  0  0  0  0  0  0  0  0  0  0
    4.9105   -0.0456   -1.2150 C   0  0  0  0  0  0  0  0  0  0  0  0
    5.0888   -0.0154    0.2456 C   0  0  0  0  0  0  0  0  0  0  0  0
    5.4544   -1.1914    0.9111 C   0  0  0  0  0  0  0  0  0  0  0  0
    5.6780   -2.6892    0.0809 Cl  0  0  0  0  0  0  0  0  0  0  0  0
    5.6397   -1.1818    2.2967 C   0  0  0  0  0  0  0  0  0  0  0  0
    5.4731    0.0002    3.0180 C   0  0  0  0  0  0  0  0  0  0  0  0
    5.1290    1.1774    2.3537 C   0  0  0  0  0  0  0  0  0  0  0  0
    4.9429    1.1753    0.9677 C   0  0  0  0  0  0  0  0  0  0  0  0
    4.5603    2.6795    0.2118 Cl  0  0  0  0  0  0  0  0  0  0  0  0
   -1.0395    0.6878   -1.2639 C   0  0  0  0  0  0  0  0  0  0  0  0
   -1.7415    0.4880   -2.5599 C   0  0  0  0  0  0  0  0  0  0  0  0
   -1.8971   -1.2674   -2.9898 S   0  0  0  0  0  0  0  0  0  0  0  0
   -3.2277   -1.7092   -1.9838 C   0  0  0  0  0  0  0  0  0  0  0  0
   -3.1406   -1.7579   -0.6967 N   0  0  0  0  0  0  0  0  0  0  0  0
   -4.4259   -2.2490   -0.1537 C   0  0  0  0  0  0  0  0  0  0  0  0
   -5.5549   -1.9528   -1.1289 C   0  0  0  0  0  0  0  0  0  0  0  0
   -4.7457   -2.0999   -2.7305 S   0  0  0  0  0  0  0  0  0  0  0  0
   -1.9146    1.3577    2.8046 H   0  0  0  0  0  0  0  0  0  0  0  0
   -3.3885    1.7603    3.5746 H   0  0  0  0  0  0  0  0  0  0  0  0
    2.6197    0.2925   -0.1995 H   0  0  0  0  0  0  0  0  0  0  0  0
    5.8332   -0.2203   -1.7959 H   0  0  0  0  0  0  0  0  0  0  0  0
    5.9149   -2.0947    2.8216 H   0  0  0  0  0  0  0  0  0  0  0  0
    5.6184    0.0055    4.0965 H   0  0  0  0  0  0  0  0  0  0  0  0
    5.0139    2.0980    2.9231 H   0  0  0  0  0  0  0  0  0  0  0  0
   -2.7180    0.9664   -2.6234 H   0  0  0  0  0  0  0  0  0  0  0  0
   -1.1570    0.9610   -3.3567 H   0  0  0  0  0  0  0  0  0  0  0  0
   -4.3414   -3.3265    0.0356 H   0  0  0  0  0  0  0  0  0  0  0  0
   -4.6257   -1.7667    0.8091 H   0  0  0  0  0  0  0  0  0  0  0  0
   -5.9198   -0.9287   -1.0061 H   0  0  0  0  0  0  0  0  0  0  0  0
   -6.3915   -2.6475   -1.0203 H   0  0  0  0  0  0  0  0  0  0  0  0
  1  2  1  0
  2  3  2  0
  3  4  1  0
  4  5  1  0
  5  6  2  0
  6  7  1  0
  7  8  1  0
  8  9  2  0
  9 10  1  0
 10 11  1  0
 11 12  2  0
 11 13  1  0
 13 14  1  0
 14 15  2  3
 15 16  1  0
 16 17  2  0
 17 18  1  0
 17 19  1  0
 19 20  2  0
 20 21  1  0
 21 22  2  0
 22 23  1  0
 10 24  2  0
 24 25  1  0
 25 26  1  0
 26 27  1  0
 27 28  2  0
 28 29  1  0
 29 30  1  0
 30 31  1  0
  6  2  1  0
 24  7  1  0
 31 27  1  0
 22 16  1  0
  1 32  1  0
  1 33  1  0
 13 34  1  0
 15 35  1  0
 19 36  1  0
 20 37  1  0
 21 38  1  0
 25 39  1  0
 25 40  1  0
 29 41  1  0
 29 42  1  0
 30 43  1  0
 30 44  1  0
M  END
$$$$
