
     RDKit          3D

 74 78  0  0  0  0  0  0  0  0999 V2000
   -3.8732    0.2661    1.2387 C   0  0  0  0  0  0  0  0  0  0  0  0
   -2.8142    1.1572    0.5725 C   0  0  0  0  0  0  0  0  0  0  0  0
   -3.4921    2.1168   -0.4170 C   0  0  0  0  0  0  0  0  0  0  0  0
   -3.1599    3.5216   -0.1952 N   0  0  0  0  0  0  0  0  0  0  0  0
   -4.2951    4.4681   -0.3778 C   0  0  0  0  0  0  0  0  0  0  0  0
   -4.6659    4.7163   -1.8417 C   0  0  0  0  0  0  0  0  0  0  0  0
   -4.0800    5.7917    0.3903 C   0  0  0  0  0  0  0  0  0  0  0  0
   -3.8814    5.5122    1.7786 O   0  0  0  0  0  0  0  0  0  0  0  0
   -1.8866    3.9614   -0.5903 C   0  0  0  0  0  0  0  0  0  0  0  0
   -1.7092    4.9626   -1.2844 O   0  0  0  0  0  0  0  0  0  0  0  0
   -0.6799    3.3846    0.0556 C   0  0  0  0  0  0  0  0  0  0  0  0
    0.0438    4.3070    0.8315 C   0  0  0  0  0  0  0  0  0  0  0  0
    1.3106    3.9940    1.3113 C   0  0  0  0  0  0  0  0  0  0  0  0
    1.8956    2.7793    0.9653 C   0  0  0  0  0  0  0  0  0  0  0  0
    1.1960    1.8483    0.1906 C   0  0  0  0  0  0  0  0  0  0  0  0
    1.7962    0.6691   -0.3011 N   0  0  0  0  0  0  0  0  0  0  0  0
    3.0354    0.1316    0.0078 C   0  0  0  0  0  0  0  0  0  0  0  0
    3.7928    0.5709    0.8623 O   0  0  0  0  0  0  0  0  0  0  0  0
    3.2785   -0.9973   -0.7617 N   0  0  0  0  0  0  0  0  0  0  0  0
    4.3353   -1.9229   -0.6329 C   0  0  0  0  0  0  0  0  0  0  0  0
    4.4027   -2.9474   -1.6040 C   0  0  0  0  0  0  0  0  0  0  0  0
    5.3974   -3.9304   -1.5532 C   0  0  0  0  0  0  0  0  0  0  0  0
    6.3039   -3.8678   -0.5208 C   0  0  0  0  0  0  0  0  0  0  0  0
    6.2355   -2.8833    0.4362 C   0  0  0  0  0  0  0  0  0  0  0  0
    5.2698   -1.8975    0.4098 C   0  0  0  0  0  0  0  0  0  0  0  0
    7.2060   -3.0148    1.3832 O   0  0  0  0  0  0  0  0  0  0  0  0
    7.9284   -4.1544    0.8712 C   0  0  0  0  0  0  0  0  0  0  0  0
    7.3334   -4.7303   -0.3100 O   0  0  0  0  0  0  0  0  0  0  0  0
   -0.1400    2.1166   -0.1934 C   0  0  0  0  0  0  0  0  0  0  0  0
   -0.8012    1.1625   -0.9264 O   0  0  0  0  0  0  0  0  0  0  0  0
   -1.7448    0.3345   -0.1937 C   0  0  0  0  0  0  0  0  0  0  0  0
   -1.0882   -0.7582    0.6852 C   0  0  0  0  0  0  0  0  0  0  0  0
    0.0022   -1.5454    0.0336 N   0  0  0  0  0  0  0  0  0  0  0  0
    0.8519   -2.2152    1.0651 C   0  0  0  0  0  0  0  0  0  0  0  0
   -0.3544   -2.5275   -1.3180 S   0  0  0  0  0  6  0  0  0  0  0  0
    0.9124   -2.9481   -1.8796 O   0  0  0  0  0  0  0  0  0  0  0  0
   -1.3273   -1.8526   -2.1470 O   0  0  0  0  0  0  0  0  0  0  0  0
   -1.2062   -3.9830   -0.7441 C   0  0  0  0  0  0  0  0  0  0  0  0
   -2.5512   -4.2320   -0.5413 C   0  0  0  0  0  0  0  0  0  0  0  0
   -2.7938   -5.5494   -0.0521 C   0  0  0  0  0  0  0  0  0  0  0  0
   -1.6259   -6.2670    0.0870 C   0  0  0  0  0  0  0  0  0  0  0  0
   -0.2527   -5.3507   -0.3557 S   0  0  0  0  0  0  0  0  0  0  0  0
   -4.3200   -0.4273    0.5189 H   0  0  0  0  0  0  0  0  0  0  0  0
   -4.6746    0.8746    1.6708 H   0  0  0  0  0  0  0  0  0  0  0  0
   -3.4472   -0.3173    2.0601 H   0  0  0  0  0  0  0  0  0  0  0  0
   -2.3410    1.7249    1.3833 H   0  0  0  0  0  0  0  0  0  0  0  0
   -3.2450    1.8829   -1.4591 H   0  0  0  0  0  0  0  0  0  0  0  0
   -4.5798    2.0078   -0.3394 H   0  0  0  0  0  0  0  0  0  0  0  0
   -5.1537    3.9879    0.1123 H   0  0  0  0  0  0  0  0  0  0  0  0
   -5.5720    5.3275   -1.9057 H   0  0  0  0  0  0  0  0  0  0  0  0
   -3.8764    5.2353   -2.3925 H   0  0  0  0  0  0  0  0  0  0  0  0
   -4.8656    3.7720   -2.3591 H   0  0  0  0  0  0  0  0  0  0  0  0
   -3.2217    6.3654    0.0305 H   0  0  0  0  0  0  0  0  0  0  0  0
   -4.9656    6.4307    0.3080 H   0  0  0  0  0  0  0  0  0  0  0  0
   -3.1886    4.8272    1.8140 H   0  0  0  0  0  0  0  0  0  0  0  0
   -0.3633    5.2993    1.0169 H   0  0  0  0  0  0  0  0  0  0  0  0
    1.8711    4.7189    1.8975 H   0  0  0  0  0  0  0  0  0  0  0  0
    2.9180    2.6036    1.2863 H   0  0  0  0  0  0  0  0  0  0  0  0
    1.1649    0.0677   -0.8222 H   0  0  0  0  0  0  0  0  0  0  0  0
    2.6380   -1.1635   -1.5269 H   0  0  0  0  0  0  0  0  0  0  0  0
    3.6742   -2.9904   -2.4123 H   0  0  0  0  0  0  0  0  0  0  0  0
    5.4506   -4.7166   -2.2970 H   0  0  0  0  0  0  0  0  0  0  0  0
    5.2622   -1.1492    1.1941 H   0  0  0  0  0  0  0  0  0  0  0  0
    7.9713   -4.9214    1.6515 H   0  0  0  0  0  0  0  0  0  0  0  0
    8.9517   -3.8425    0.6314 H   0  0  0  0  0  0  0  0  0  0  0  0
   -2.3030   -0.1818   -0.9788 H   0  0  0  0  0  0  0  0  0  0  0  0
   -0.6628   -0.2632    1.5679 H   0  0  0  0  0  0  0  0  0  0  0  0
   -1.8374   -1.4672    1.0536 H   0  0  0  0  0  0  0  0  0  0  0  0
    0.2431   -2.8559    1.7095 H   0  0  0  0  0  0  0  0  0  0  0  0
    1.6388   -2.8186    0.6087 H   0  0  0  0  0  0  0  0  0  0  0  0
    1.3401   -1.4625    1.6915 H   0  0  0  0  0  0  0  0  0  0  0  0
   -3.3261   -3.5005   -0.7442 H   0  0  0  0  0  0  0  0  0  0  0  0
   -3.7746   -5.9548    0.1720 H   0  0  0  0  0  0  0  0  0  0  0  0
   -1.5103   -7.2897    0.4239 H   0  0  0  0  0  0  0  0  0  0  0  0
  1  2  1  0
  2  3  1  0
  3  4  1  0
  4  5  1  0
  5  6  1  0
  5  7  1  0
  7  8  1  0
  4  9  1  0
  9 10  2  0
  9 11  1  0
 11 12  2  0
 12 13  1  0
 13 14  2  0
 14 15  1  0
 15 16  1  0
 16 17  1  0
 17 18  2  0
 17 19  1  0
 19 20  1  0
 20 21  2  0
 21 22  1  0
 22 23  2  0
 23 24  1  0
 24 25  2  0
 24 26  1  0
 26 27  1  0
 27 28  1  0
 15 29  2  0
 29 30  1  0
 30 31  1  0
 31 32  1  0
 32 33  1  0
 33 34  1  0
 33 35  1  0
 35 36  2  0
 35 37  2  0
 35 38  1  0
 38 39  2  0
 39 40  1  0
 40 41  2  0
 41 42  1  0
 31  2  1  0
 42 38  1  0
 29 11  1  0
 25 20  1  0
 28 23  1  0
  1 43  1  0
  1 44  1  0
  1 45  1  0
  2 46  1  0
  3 47  1  0
  3 48  1  0
  5 49  1  0
  6 50  1  0
  6 51  1  0
  6 52  1  0
  7 53  1  0
  7 54  1  0
  8 55  1  0
 12 56  1  0
 13 57  1  0
 14 58  1  0
 16 59  1  0
 19 60  1  0
 21 61  1  0
 22 62  1  0
 25 63  1  0
 27 64  1  0
 27 65  1  0
 31 66  1  0
 32 67  1  0
 32 68  1  0
 34 69  1  0
 34 70  1  0
 34 71  1  0
 39 72  1  0
 40 73  1  0
 41 74  1  0
M  END
$$$$
