
     RDKit          3D

 34 36  0  0  0  0  0  0  0  0999 V2000
    4.4542   -0.8718   -0.5295 N   0  0  0  0  0  0  0  0  0  0  0  0
    3.3977   -0.8196    0.4725 C   0  0  0  0  0  0  0  0  0  0  0  0
    2.0737   -0.4058   -0.1662 C   0  0  0  0  0  0  0  0  0  0  0  0
    0.9721   -0.3035    0.8986 C   0  0  0  0  0  0  0  0  0  0  0  0
   -0.3388    0.0525    0.3065 N   0  0  0  0  0  0  0  0  0  0  0  0
   -1.2030   -1.0237   -0.0527 C   0  0  0  0  0  0  0  0  0  0  0  0
   -0.7344   -2.3496   -0.2025 C   0  0  0  0  0  0  0  0  0  0  0  0
   -1.5720   -3.4113   -0.5670 C   0  0  0  0  0  0  0  0  0  0  0  0
   -2.9169   -3.1828   -0.8000 C   0  0  0  0  0  0  0  0  0  0  0  0
   -3.4148   -1.8920   -0.6699 C   0  0  0  0  0  0  0  0  0  0  0  0
   -2.5748   -0.8201   -0.3058 C   0  0  0  0  0  0  0  0  0  0  0  0
   -3.3780    0.7572   -0.1570 S   0  0  0  0  0  0  0  0  0  0  0  0
   -2.0035    1.8662    0.0304 C   0  0  0  0  0  0  0  0  0  0  0  0
   -2.3261    3.2374   -0.0281 C   0  0  0  0  0  0  0  0  0  0  0  0
   -1.3468    4.2114    0.1269 C   0  0  0  0  0  0  0  0  0  0  0  0
   -0.0387    3.8137    0.3401 C   0  0  0  0  0  0  0  0  0  0  0  0
    1.1931    5.0018    0.5285 Cl  0  0  0  0  0  0  0  0  0  0  0  0
    0.2911    2.4556    0.4014 C   0  0  0  0  0  0  0  0  0  0  0  0
   -0.6782    1.4369    0.2559 C   0  0  0  0  0  0  0  0  0  0  0  0
    5.3190   -1.2024   -0.1024 H   0  0  0  0  0  0  0  0  0  0  0  0
    4.2174   -1.5457   -1.2570 H   0  0  0  0  0  0  0  0  0  0  0  0
    3.2983   -1.8026    0.9460 H   0  0  0  0  0  0  0  0  0  0  0  0
    3.6819   -0.1018    1.2494 H   0  0  0  0  0  0  0  0  0  0  0  0
    1.7948   -1.1295   -0.9408 H   0  0  0  0  0  0  0  0  0  0  0  0
    2.1960    0.5525   -0.6839 H   0  0  0  0  0  0  0  0  0  0  0  0
    1.2613    0.4161    1.6759 H   0  0  0  0  0  0  0  0  0  0  0  0
    0.9037   -1.2405    1.4668 H   0  0  0  0  0  0  0  0  0  0  0  0
    0.3102   -2.6033   -0.0580 H   0  0  0  0  0  0  0  0  0  0  0  0
   -1.1634   -4.4132   -0.6719 H   0  0  0  0  0  0  0  0  0  0  0  0
   -3.5754   -3.9988   -1.0834 H   0  0  0  0  0  0  0  0  0  0  0  0
   -4.4736   -1.7202   -0.8545 H   0  0  0  0  0  0  0  0  0  0  0  0
   -3.3547    3.5527   -0.1953 H   0  0  0  0  0  0  0  0  0  0  0  0
   -1.6112    5.2635    0.0780 H   0  0  0  0  0  0  0  0  0  0  0  0
    1.3395    2.2207    0.5491 H   0  0  0  0  0  0  0  0  0  0  0  0
  1  2  1  0
  2  3  1  0
  3  4  1  0
  4  5  1  0
  5  6  1  0
  6  7  2  0
  7  8  1  0
  8  9  2  0
  9 10  1  0
 10 11  2  0
 11 12  1  0
 12 13  1  0
 13 14  2  0
 14 15  1  0
 15 16  2  0
 16 17  1  0
 16 18  1  0
 18 19  2  0
 19  5  1  0
 11  6  1  0
 19 13  1  0
  1 20  1  0
  1 21  1  0
  2 22  1  0
  2 23  1  0
  3 24  1  0
  3 25  1  0
  4 26  1  0
  4 27  1  0
  7 28  1  0
  8 29  1  0
  9 30  1  0
 10 31  1  0
 14 32  1  0
 15 33  1  0
 18 34  1  0
M  END
$$$$
