
     RDKit          3D

 52 51  0  0  0  0  0  0  0  0999 V2000
   -5.5790    3.2948    2.3428 C   0  0  0  0  0  0  0  0  0  0  0  0
   -5.1296    2.2466    1.9649 C   0  0  0  0  0  0  0  0  0  0  0  0
   -4.5691    0.9651    1.5223 C   0  0  0  0  0  0  0  0  0  0  0  0
   -4.9081    0.6503    0.0519 N   0  0  0  0  0  4  0  0  0  0  0  0
   -6.4401    0.6042   -0.0971 C   0  0  0  0  0  0  0  0  0  0  0  0
   -4.3760    1.7343   -0.8768 C   0  0  0  0  0  0  0  0  0  0  0  0
   -4.3829   -0.7487   -0.3369 C   0  0  0  0  0  0  0  0  0  0  0  0
   -2.9104   -0.8538   -0.7570 C   0  0  0  0  0  0  0  0  0  0  0  0
   -1.8759   -0.6355    0.3463 C   0  0  0  0  0  0  0  0  0  0  0  0
   -0.4866   -1.1843   -0.0064 C   0  0  0  0  0  0  0  0  0  0  0  0
    0.1647   -0.4640   -1.1903 C   0  0  0  0  0  0  0  0  0  0  0  0
    1.5492   -1.0140   -1.5490 C   0  0  0  0  0  0  0  0  0  0  0  0
    2.6070   -0.7553   -0.4724 C   0  0  0  0  0  0  0  0  0  0  0  0
    3.9917   -1.2120   -0.9406 C   0  0  0  0  0  0  0  0  0  0  0  0
    5.0720   -1.0955    0.1400 C   0  0  0  0  0  0  0  0  0  0  0  0
    5.3907    0.3513    0.5263 C   0  0  0  0  0  0  0  0  0  0  0  0
    6.4768    0.4655    1.5995 C   0  0  0  0  0  0  0  0  0  0  0  0
    7.8495    0.0104    1.1286 C   0  0  0  0  0  0  0  0  0  0  0  0
   -5.9718    4.2247    2.6920 H   0  0  0  0  0  0  0  0  0  0  0  0
   -3.4847    0.9901    1.6201 H   0  0  0  0  0  0  0  0  0  0  0  0
   -4.9589    0.1400    2.1287 H   0  0  0  0  0  0  0  0  0  0  0  0
   -6.8292   -0.1551    0.5878 H   0  0  0  0  0  0  0  0  0  0  0  0
   -6.6775    0.3442   -1.1336 H   0  0  0  0  0  0  0  0  0  0  0  0
   -6.8596    1.5873    0.1319 H   0  0  0  0  0  0  0  0  0  0  0  0
   -3.3130    1.8856   -0.6732 H   0  0  0  0  0  0  0  0  0  0  0  0
   -4.9251    2.6633   -0.6984 H   0  0  0  0  0  0  0  0  0  0  0  0
   -4.5338    1.4085   -1.9094 H   0  0  0  0  0  0  0  0  0  0  0  0
   -4.6073   -1.4256    0.4959 H   0  0  0  0  0  0  0  0  0  0  0  0
   -4.9852   -1.0741   -1.1944 H   0  0  0  0  0  0  0  0  0  0  0  0
   -2.7756   -1.8715   -1.1477 H   0  0  0  0  0  0  0  0  0  0  0  0
   -2.7068   -0.1889   -1.6029 H   0  0  0  0  0  0  0  0  0  0  0  0
   -2.2128   -1.1297    1.2653 H   0  0  0  0  0  0  0  0  0  0  0  0
   -1.7749    0.4325    0.5616 H   0  0  0  0  0  0  0  0  0  0  0  0
   -0.5578   -2.2579   -0.2183 H   0  0  0  0  0  0  0  0  0  0  0  0
    0.1457   -1.0782    0.8821 H   0  0  0  0  0  0  0  0  0  0  0  0
    0.2390    0.6091   -0.9769 H   0  0  0  0  0  0  0  0  0  0  0  0
   -0.4721   -0.5676   -2.0763 H   0  0  0  0  0  0  0  0  0  0  0  0
    1.4769   -2.0901   -1.7480 H   0  0  0  0  0  0  0  0  0  0  0  0
    1.8711   -0.5407   -2.4851 H   0  0  0  0  0  0  0  0  0  0  0  0
    2.3463   -1.2902    0.4472 H   0  0  0  0  0  0  0  0  0  0  0  0
    2.6235    0.3143   -0.2372 H   0  0  0  0  0  0  0  0  0  0  0  0
    4.2930   -0.6375   -1.8250 H   0  0  0  0  0  0  0  0  0  0  0  0
    3.9334   -2.2627   -1.2515 H   0  0  0  0  0  0  0  0  0  0  0  0
    5.9770   -1.5795   -0.2440 H   0  0  0  0  0  0  0  0  0  0  0  0
    4.7645   -1.6582    1.0296 H   0  0  0  0  0  0  0  0  0  0  0  0
    4.4880    0.8343    0.9166 H   0  0  0  0  0  0  0  0  0  0  0  0
    5.6931    0.9153   -0.3643 H   0  0  0  0  0  0  0  0  0  0  0  0
    6.1863   -0.1076    2.4877 H   0  0  0  0  0  0  0  0  0  0  0  0
    6.5478    1.5151    1.9092 H   0  0  0  0  0  0  0  0  0  0  0  0
    8.5974    0.2134    1.9020 H   0  0  0  0  0  0  0  0  0  0  0  0
    8.1498    0.5417    0.2200 H   0  0  0  0  0  0  0  0  0  0  0  0
    7.8693   -1.0640    0.9250 H   0  0  0  0  0  0  0  0  0  0  0  0
  1  2  3  0
  2  3  1  0
  3  4  1  0
  4  5  1  0
  4  6  1  0
  4  7  1  0
  7  8  1  0
  8  9  1  0
  9 10  1  0
 10 11  1  0
 11 12  1  0
 12 13  1  0
 13 14  1  0
 14 15  1  0
 15 16  1  0
 16 17  1  0
 17 18  1  0
  1 19  1  0
  3 20  1  0
  3 21  1  0
  5 22  1  0
  5 23  1  0
  5 24  1  0
  6 25  1  0
  6 26  1  0
  6 27  1  0
  7 28  1  0
  7 29  1  0
  8 30  1  0
  8 31  1  0
  9 32  1  0
  9 33  1  0
 10 34  1  0
 10 35  1  0
 11 36  1  0
 11 37  1  0
 12 38  1  0
 12 39  1  0
 13 40  1  0
 13 41  1  0
 14 42  1  0
 14 43  1  0
 15 44  1  0
 15 45  1  0
 16 46  1  0
 16 47  1  0
 17 48  1  0
 17 49  1  0
 18 50  1  0
 18 51  1  0
 18 52  1  0
M  CHG  1   4   1
M  END
$$$$
