
     RDKit          3D

 44 46  0  0  0  0  0  0  0  0999 V2000
   -3.4989   -0.8251   -3.0539 C   0  0  0  0  0  0  0  0  0  0  0  0
   -2.9196   -1.2283   -1.8204 O   0  0  0  0  0  0  0  0  0  0  0  0
   -2.5508   -0.2475   -0.9407 C   0  0  0  0  0  0  0  0  0  0  0  0
   -2.5247    1.1168   -1.2449 C   0  0  0  0  0  0  0  0  0  0  0  0
   -2.1473    2.0563   -0.2769 C   0  0  0  0  0  0  0  0  0  0  0  0
   -1.7913    1.6487    1.0126 C   0  0  0  0  0  0  0  0  0  0  0  0
   -1.3791    2.6644    1.9901 C   0  0  0  0  0  0  0  0  0  0  0  0
   -0.2768    2.6692    2.7700 C   0  0  0  0  0  0  0  0  0  0  0  0
   -0.0934    3.7336    3.7019 C   0  0  0  0  0  0  0  0  0  0  0  0
    0.0182    4.6434    4.4141 N   0  0  0  0  0  0  0  0  0  0  0  0
    0.7718    1.5986    2.7866 C   0  0  0  0  0  0  0  0  0  0  0  0
    1.1764    1.1835    3.8661 O   0  0  0  0  0  0  0  0  0  0  0  0
    1.1949    1.1963    1.5333 N   0  0  0  0  0  0  0  0  0  0  0  0
    2.1003    0.1486    1.2103 C   0  0  0  0  0  0  0  0  0  0  0  0
    2.8449   -0.5015    2.1997 C   0  0  0  0  0  0  0  0  0  0  0  0
    3.7226   -1.5272    1.8666 C   0  0  0  0  0  0  0  0  0  0  0  0
    3.8624   -1.9146    0.5384 C   0  0  0  0  0  0  0  0  0  0  0  0
    3.1467   -1.3044   -0.4761 C   0  0  0  0  0  0  0  0  0  0  0  0
    3.3462   -1.7588   -1.7257 N   0  0  0  0  0  0  0  0  0  0  0  0
    2.6557   -1.1929   -2.7338 C   0  0  0  0  0  0  0  0  0  0  0  0
    1.7526   -0.1702   -2.5543 C   0  0  0  0  0  0  0  0  0  0  0  0
    1.5509    0.2998   -1.2601 C   0  0  0  0  0  0  0  0  0  0  0  0
    2.2497   -0.2549   -0.1582 C   0  0  0  0  0  0  0  0  0  0  0  0
   -1.8489    0.2899    1.3304 C   0  0  0  0  0  0  0  0  0  0  0  0
   -2.1847   -0.6531    0.3526 C   0  0  0  0  0  0  0  0  0  0  0  0
   -2.1844   -1.9573    0.7796 O   0  0  0  0  0  0  0  0  0  0  0  0
   -1.3382   -2.7978   -0.0050 C   0  0  0  0  0  0  0  0  0  0  0  0
   -3.8199   -1.7274   -3.5831 H   0  0  0  0  0  0  0  0  0  0  0  0
   -4.3839   -0.2004   -2.8934 H   0  0  0  0  0  0  0  0  0  0  0  0
   -2.7626   -0.3151   -3.6834 H   0  0  0  0  0  0  0  0  0  0  0  0
   -2.7948    1.4860   -2.2292 H   0  0  0  0  0  0  0  0  0  0  0  0
   -2.1364    3.1108   -0.5482 H   0  0  0  0  0  0  0  0  0  0  0  0
   -2.0794    3.4983    2.0678 H   0  0  0  0  0  0  0  0  0  0  0  0
    0.7511    1.6488    0.7494 H   0  0  0  0  0  0  0  0  0  0  0  0
    2.7781   -0.2290    3.2480 H   0  0  0  0  0  0  0  0  0  0  0  0
    4.2988   -2.0243    2.6430 H   0  0  0  0  0  0  0  0  0  0  0  0
    4.5502   -2.7193    0.2876 H   0  0  0  0  0  0  0  0  0  0  0  0
    2.8567   -1.6015   -3.7199 H   0  0  0  0  0  0  0  0  0  0  0  0
    1.2157    0.2510   -3.3963 H   0  0  0  0  0  0  0  0  0  0  0  0
    0.8299    1.0993   -1.1362 H   0  0  0  0  0  0  0  0  0  0  0  0
   -1.6121   -0.0645    2.3320 H   0  0  0  0  0  0  0  0  0  0  0  0
   -1.9194   -3.2925   -0.7885 H   0  0  0  0  0  0  0  0  0  0  0  0
   -0.4868   -2.2600   -0.4375 H   0  0  0  0  0  0  0  0  0  0  0  0
   -0.9405   -3.5757    0.6541 H   0  0  0  0  0  0  0  0  0  0  0  0
  1  2  1  0
  2  3  1  0
  3  4  2  0
  4  5  1  0
  5  6  2  0
  6  7  1  0
  7  8  2  3
  8  9  1  0
  9 10  3  0
  8 11  1  0
 11 12  2  0
 11 13  1  0
 13 14  1  0
 14 15  2  0
 15 16  1  0
 16 17  2  0
 17 18  1  0
 18 19  2  0
 19 20  1  0
 20 21  2  0
 21 22  1  0
 22 23  2  0
  6 24  1  0
 24 25  2  0
 25 26  1  0
 26 27  1  0
 25  3  1  0
 23 14  1  0
 23 18  1  0
  1 28  1  0
  1 29  1  0
  1 30  1  0
  4 31  1  0
  5 32  1  0
  7 33  1  0
 13 34  1  0
 15 35  1  0
 16 36  1  0
 17 37  1  0
 20 38  1  0
 21 39  1  0
 22 40  1  0
 24 41  1  0
 27 42  1  0
 27 43  1  0
 27 44  1  0
M  END
$$$$
