
     RDKit          3D

 41 42  0  0  0  0  0  0  0  0999 V2000
    7.3186   -0.0952   -0.8301 C   0  0  0  0  0  0  0  0  0  0  0  0
    6.0968    0.5237   -0.4409 O   0  0  0  0  0  0  0  0  0  0  0  0
    5.1893   -0.3487    0.0862 C   0  0  0  0  0  0  0  0  0  0  0  0
    5.3940   -1.5433    0.2600 O   0  0  0  0  0  0  0  0  0  0  0  0
    3.9596    0.3497    0.4224 C   0  0  0  0  0  0  0  0  0  0  0  0
    3.6521    1.6938    0.2568 C   0  0  0  0  0  0  0  0  0  0  0  0
    2.3536    1.9161    0.7538 C   0  0  0  0  0  0  0  0  0  0  0  0
    1.8531    0.7088    1.2282 C   0  0  0  0  0  0  0  0  0  0  0  0
    0.2710    0.3381    1.9581 S   0  0  0  0  0  6  0  0  0  0  0  0
   -0.4351    1.5981    2.0487 O   0  0  0  0  0  0  0  0  0  0  0  0
    0.5606   -0.4678    3.1214 O   0  0  0  0  0  0  0  0  0  0  0  0
   -0.5139   -0.6355    0.8510 N   0  0  0  0  0  0  0  0  0  0  0  0
   -0.9494   -0.0232   -0.4047 C   0  0  0  0  0  0  0  0  0  0  0  0
   -2.4384   -0.1339   -0.6064 C   0  0  0  0  0  0  0  0  0  0  0  0
   -3.3168    0.7155    0.0872 C   0  0  0  0  0  0  0  0  0  0  0  0
   -4.7001    0.6214   -0.1142 C   0  0  0  0  0  0  0  0  0  0  0  0
   -5.2218   -0.3081   -1.0085 C   0  0  0  0  0  0  0  0  0  0  0  0
   -6.5418   -0.4860   -1.3053 O   0  0  0  0  0  0  0  0  0  0  0  0
   -7.4332    0.5357   -0.8744 C   0  0  0  0  0  0  0  0  0  0  0  0
   -4.3511   -1.1726   -1.6774 C   0  0  0  0  0  0  0  0  0  0  0  0
   -2.9720   -1.0932   -1.4781 C   0  0  0  0  0  0  0  0  0  0  0  0
    2.8390   -0.2403    0.9994 N   0  0  0  0  0  0  0  0  0  0  0  0
    2.7606   -1.6543    1.3157 C   0  0  0  0  0  0  0  0  0  0  0  0
    7.7651   -0.6517   -0.0004 H   0  0  0  0  0  0  0  0  0  0  0  0
    8.0136    0.6863   -1.1281 H   0  0  0  0  0  0  0  0  0  0  0  0
    7.1517   -0.7486   -1.6890 H   0  0  0  0  0  0  0  0  0  0  0  0
    4.3106    2.4398   -0.1691 H   0  0  0  0  0  0  0  0  0  0  0  0
    1.8157    2.8580    0.7821 H   0  0  0  0  0  0  0  0  0  0  0  0
   -1.1785   -1.2804    1.2840 H   0  0  0  0  0  0  0  0  0  0  0  0
   -0.4344   -0.5419   -1.2220 H   0  0  0  0  0  0  0  0  0  0  0  0
   -0.6486    1.0302   -0.4932 H   0  0  0  0  0  0  0  0  0  0  0  0
   -2.9274    1.4593    0.7787 H   0  0  0  0  0  0  0  0  0  0  0  0
   -5.3393    1.2932    0.4387 H   0  0  0  0  0  0  0  0  0  0  0  0
   -7.6400    0.4369    0.1951 H   0  0  0  0  0  0  0  0  0  0  0  0
   -8.3702    0.4078   -1.4230 H   0  0  0  0  0  0  0  0  0  0  0  0
   -7.0589    1.5371   -1.1102 H   0  0  0  0  0  0  0  0  0  0  0  0
   -4.7537   -1.9140   -2.3705 H   0  0  0  0  0  0  0  0  0  0  0  0
   -2.3201   -1.7844   -2.0125 H   0  0  0  0  0  0  0  0  0  0  0  0
    2.9891   -2.2214    0.4153 H   0  0  0  0  0  0  0  0  0  0  0  0
    1.7684   -1.9404    1.6392 H   0  0  0  0  0  0  0  0  0  0  0  0
    3.4823   -1.8644    2.1084 H   0  0  0  0  0  0  0  0  0  0  0  0
  1  2  1  0
  2  3  1  0
  3  4  2  0
  3  5  1  0
  5  6  2  0
  6  7  1  0
  7  8  2  0
  8  9  1  0
  9 10  2  0
  9 11  2  0
  9 12  1  0
 12 13  1  0
 13 14  1  0
 14 15  2  0
 15 16  1  0
 16 17  2  0
 17 18  1  0
 18 19  1  0
 17 20  1  0
 20 21  2  0
  8 22  1  0
 22 23  1  0
 22  5  1  0
 21 14  1  0
  1 24  1  0
  1 25  1  0
  1 26  1  0
  6 27  1  0
  7 28  1  0
 12 29  1  0
 13 30  1  0
 13 31  1  0
 15 32  1  0
 16 33  1  0
 19 34  1  0
 19 35  1  0
 19 36  1  0
 20 37  1  0
 21 38  1  0
 23 39  1  0
 23 40  1  0
 23 41  1  0
M  END
$$$$
