
     RDKit          3D

 40 41  0  0  0  0  0  0  0  0999 V2000
    7.6161   -1.3426    0.4531 C   0  0  0  0  0  0  0  0  0  0  0  0
    6.8855   -0.1265    0.5504 O   0  0  0  0  0  0  0  0  0  0  0  0
    5.5227   -0.2250    0.5905 C   0  0  0  0  0  0  0  0  0  0  0  0
    4.8525    0.9926    0.7199 C   0  0  0  0  0  0  0  0  0  0  0  0
    3.4559    1.0389    0.7746 C   0  0  0  0  0  0  0  0  0  0  0  0
    2.7057   -0.1399    0.7088 C   0  0  0  0  0  0  0  0  0  0  0  0
    1.2368   -0.1385    0.7273 C   0  0  0  0  0  0  0  0  0  0  0  0
    0.5074    0.6845    1.4972 C   0  0  0  0  0  0  0  0  0  0  0  0
   -0.9784    0.6460    1.5454 C   0  0  0  0  0  0  0  0  0  0  0  0
   -1.5355    0.7999    2.6237 O   0  0  0  0  0  0  0  0  0  0  0  0
   -1.5736    0.5059    0.3084 N   0  0  0  0  0  0  0  0  0  0  0  0
   -2.9198    0.4123   -0.0031 C   0  0  0  0  0  0  0  0  0  0  0  0
   -3.8649    0.3588    0.9422 C   0  0  0  0  0  0  0  0  0  0  0  0
   -5.2855    0.2483    0.5945 C   0  0  0  0  0  0  0  0  0  0  0  0
   -6.1144    0.1690    1.4983 O   0  0  0  0  0  0  0  0  0  0  0  0
   -5.5813    0.2367   -0.7473 N   0  0  0  0  0  0  0  0  0  0  0  0
   -6.9702    0.1381   -1.1545 C   0  0  0  0  0  0  0  0  0  0  0  0
   -4.6275    0.2648   -1.7518 C   0  0  0  0  0  0  0  0  0  0  0  0
   -4.9495    0.2074   -2.9413 O   0  0  0  0  0  0  0  0  0  0  0  0
   -3.2923    0.3571   -1.3439 N   0  0  0  0  0  0  0  0  0  0  0  0
   -2.2913    0.4012   -2.4062 C   0  0  0  0  0  0  0  0  0  0  0  0
    3.3813   -1.3576    0.5622 C   0  0  0  0  0  0  0  0  0  0  0  0
    4.7807   -1.4020    0.5094 C   0  0  0  0  0  0  0  0  0  0  0  0
    7.4271   -1.9877    1.3176 H   0  0  0  0  0  0  0  0  0  0  0  0
    8.6816   -1.0931    0.4503 H   0  0  0  0  0  0  0  0  0  0  0  0
    7.3933   -1.8624   -0.4845 H   0  0  0  0  0  0  0  0  0  0  0  0
    5.4239    1.9164    0.7770 H   0  0  0  0  0  0  0  0  0  0  0  0
    2.9724    2.0085    0.8601 H   0  0  0  0  0  0  0  0  0  0  0  0
    0.7616   -0.8926    0.1046 H   0  0  0  0  0  0  0  0  0  0  0  0
    0.9579    1.3711    2.2069 H   0  0  0  0  0  0  0  0  0  0  0  0
   -0.9370    0.5242   -0.4728 H   0  0  0  0  0  0  0  0  0  0  0  0
   -3.6722    0.3811    2.0063 H   0  0  0  0  0  0  0  0  0  0  0  0
   -7.1174   -0.8142   -1.6751 H   0  0  0  0  0  0  0  0  0  0  0  0
   -7.1996    0.9513   -1.8514 H   0  0  0  0  0  0  0  0  0  0  0  0
   -7.6594    0.1920   -0.3080 H   0  0  0  0  0  0  0  0  0  0  0  0
   -1.6142   -0.4527   -2.2992 H   0  0  0  0  0  0  0  0  0  0  0  0
   -1.7319    1.3399   -2.3355 H   0  0  0  0  0  0  0  0  0  0  0  0
   -2.7297    0.3524   -3.4066 H   0  0  0  0  0  0  0  0  0  0  0  0
    2.8272   -2.2922    0.4981 H   0  0  0  0  0  0  0  0  0  0  0  0
    5.2559   -2.3715    0.4043 H   0  0  0  0  0  0  0  0  0  0  0  0
  1  2  1  0
  2  3  1  0
  3  4  2  0
  4  5  1  0
  5  6  2  0
  6  7  1  0
  7  8  2  3
  8  9  1  0
  9 10  2  0
  9 11  1  0
 11 12  1  0
 12 13  2  0
 13 14  1  0
 14 15  2  0
 14 16  1  0
 16 17  1  0
 16 18  1  0
 18 19  2  0
 18 20  1  0
 20 21  1  0
  6 22  1  0
 22 23  2  0
 23  3  1  0
 20 12  1  0
  1 24  1  0
  1 25  1  0
  1 26  1  0
  4 27  1  0
  5 28  1  0
  7 29  1  0
  8 30  1  0
 11 31  1  0
 13 32  1  0
 17 33  1  0
 17 34  1  0
 17 35  1  0
 21 36  1  0
 21 37  1  0
 21 38  1  0
 22 39  1  0
 23 40  1  0
M  END
$$$$
