
     RDKit          3D

 54 57  0  0  0  0  0  0  0  0999 V2000
   -3.9203   -4.6069   -1.7040 C   0  0  0  0  0  0  0  0  0  0  0  0
   -2.8758   -4.2510   -0.8071 O   0  0  0  0  0  0  0  0  0  0  0  0
   -2.7630   -2.9277   -0.4796 C   0  0  0  0  0  0  0  0  0  0  0  0
   -1.7290   -2.6374    0.4180 C   0  0  0  0  0  0  0  0  0  0  0  0
   -1.4974   -1.3272    0.8399 C   0  0  0  0  0  0  0  0  0  0  0  0
   -2.3001   -0.3007    0.3425 C   0  0  0  0  0  0  0  0  0  0  0  0
   -2.0718    1.0949    0.7707 C   0  0  0  0  0  0  0  0  0  0  0  0
   -2.8633    1.5755    1.6760 N   0  0  0  0  0  0  0  0  0  0  0  0
   -2.6752    2.8933    2.1037 C   0  0  0  0  0  0  0  0  0  0  0  0
   -3.5356    3.4170    3.0719 C   0  0  0  0  0  0  0  0  0  0  0  0
   -3.3796    4.7284    3.5300 C   0  0  0  0  0  0  0  0  0  0  0  0
   -2.3569    5.5289    3.0217 C   0  0  0  0  0  0  0  0  0  0  0  0
   -1.4918    5.0170    2.0554 C   0  0  0  0  0  0  0  0  0  0  0  0
   -1.6593    3.7020    1.6038 C   0  0  0  0  0  0  0  0  0  0  0  0
   -0.7678    3.1280    0.5832 C   0  0  0  0  0  0  0  0  0  0  0  0
    0.1624    3.8000    0.1433 O   0  0  0  0  0  0  0  0  0  0  0  0
   -1.0392    1.8204    0.1815 N   0  0  0  0  0  0  0  0  0  0  0  0
   -0.1681    1.2743   -0.8670 C   0  0  0  0  0  0  0  0  0  0  0  0
    1.1989    0.8401   -0.3284 C   0  0  0  0  0  0  0  0  0  0  0  0
    1.8221    0.0198   -1.3182 O   0  0  0  0  0  0  0  0  0  0  0  0
    2.9743   -0.6299   -0.9584 C   0  0  0  0  0  0  0  0  0  0  0  0
    3.7368   -0.3285    0.1761 C   0  0  0  0  0  0  0  0  0  0  0  0
    4.9148   -1.0367    0.4587 C   0  0  0  0  0  0  0  0  0  0  0  0
    5.7055   -0.7252    1.6955 C   0  0  0  0  0  0  0  0  0  0  0  0
    5.3141   -2.0664   -0.3976 C   0  0  0  0  0  0  0  0  0  0  0  0
    4.5648   -2.3666   -1.5354 C   0  0  0  0  0  0  0  0  0  0  0  0
    3.3941   -1.6524   -1.8272 C   0  0  0  0  0  0  0  0  0  0  0  0
    2.6017   -1.9894   -3.0600 C   0  0  0  0  0  0  0  0  0  0  0  0
   -3.3485   -0.5771   -0.5378 C   0  0  0  0  0  0  0  0  0  0  0  0
   -3.5759   -1.8934   -0.9521 C   0  0  0  0  0  0  0  0  0  0  0  0
   -3.8722   -5.6889   -1.8605 H   0  0  0  0  0  0  0  0  0  0  0  0
   -3.7868   -4.1235   -2.6778 H   0  0  0  0  0  0  0  0  0  0  0  0
   -4.9023   -4.3751   -1.2785 H   0  0  0  0  0  0  0  0  0  0  0  0
   -1.1028   -3.4436    0.7947 H   0  0  0  0  0  0  0  0  0  0  0  0
   -0.7049   -1.1205    1.5530 H   0  0  0  0  0  0  0  0  0  0  0  0
   -4.3326    2.7941    3.4704 H   0  0  0  0  0  0  0  0  0  0  0  0
   -4.0574    5.1226    4.2835 H   0  0  0  0  0  0  0  0  0  0  0  0
   -2.2344    6.5491    3.3772 H   0  0  0  0  0  0  0  0  0  0  0  0
   -0.6935    5.6380    1.6556 H   0  0  0  0  0  0  0  0  0  0  0  0
   -0.6527    0.4403   -1.3837 H   0  0  0  0  0  0  0  0  0  0  0  0
   -0.0183    2.0405   -1.6388 H   0  0  0  0  0  0  0  0  0  0  0  0
    1.8167    1.7233   -0.1295 H   0  0  0  0  0  0  0  0  0  0  0  0
    1.0673    0.2737    0.6009 H   0  0  0  0  0  0  0  0  0  0  0  0
    3.4424    0.4666    0.8549 H   0  0  0  0  0  0  0  0  0  0  0  0
    5.6883    0.3492    1.9072 H   0  0  0  0  0  0  0  0  0  0  0  0
    6.7546   -1.0150    1.5750 H   0  0  0  0  0  0  0  0  0  0  0  0
    5.2879   -1.2637    2.5519 H   0  0  0  0  0  0  0  0  0  0  0  0
    6.2155   -2.6386   -0.1893 H   0  0  0  0  0  0  0  0  0  0  0  0
    4.9004   -3.1651   -2.1938 H   0  0  0  0  0  0  0  0  0  0  0  0
    1.5786   -2.2713   -2.7889 H   0  0  0  0  0  0  0  0  0  0  0  0
    2.5758   -1.1310   -3.7395 H   0  0  0  0  0  0  0  0  0  0  0  0
    3.0429   -2.8318   -3.6040 H   0  0  0  0  0  0  0  0  0  0  0  0
   -3.9876    0.2252   -0.8982 H   0  0  0  0  0  0  0  0  0  0  0  0
   -4.3954   -2.0774   -1.6390 H   0  0  0  0  0  0  0  0  0  0  0  0
  1  2  1  0
  2  3  1  0
  3  4  2  0
  4  5  1  0
  5  6  2  0
  6  7  1  0
  7  8  2  0
  8  9  1  0
  9 10  2  0
 10 11  1  0
 11 12  2  0
 12 13  1  0
 13 14  2  0
 14 15  1  0
 15 16  2  0
 15 17  1  0
 17 18  1  0
 18 19  1  0
 19 20  1  0
 20 21  1  0
 21 22  2  0
 22 23  1  0
 23 24  1  0
 23 25  2  0
 25 26  1  0
 26 27  2  0
 27 28  1  0
  6 29  1  0
 29 30  2  0
 30  3  1  0
 17  7  1  0
 27 21  1  0
 14  9  1  0
  1 31  1  0
  1 32  1  0
  1 33  1  0
  4 34  1  0
  5 35  1  0
 10 36  1  0
 11 37  1  0
 12 38  1  0
 13 39  1  0
 18 40  1  0
 18 41  1  0
 19 42  1  0
 19 43  1  0
 22 44  1  0
 24 45  1  0
 24 46  1  0
 24 47  1  0
 25 48  1  0
 26 49  1  0
 28 50  1  0
 28 51  1  0
 28 52  1  0
 29 53  1  0
 30 54  1  0
M  END
$$$$
