
     RDKit          3D

 85 87  0  0  0  0  0  0  0  0999 V2000
   -3.2868    4.1743   -1.1735 C   0  0  0  0  0  0  0  0  0  0  0  0
   -2.4120    2.9614   -1.1754 C   0  0  0  0  0  0  0  0  0  0  0  0
   -1.4499    2.8093   -1.9186 O   0  0  0  0  0  0  0  0  0  0  0  0
   -2.8739    2.0665   -0.2760 O   0  0  0  0  0  0  0  0  0  0  0  0
   -2.1278    0.8275   -0.0959 C   0  0  1  0  0  0  0  0  0  0  0  0
   -1.1626    1.0107    1.1102 C   0  0  2  0  0  0  0  0  0  0  0  0
   -0.2028    2.0515    0.8048 O   0  0  0  0  0  0  0  0  0  0  0  0
   -0.4027    3.2731    1.3674 C   0  0  0  0  0  0  0  0  0  0  0  0
    0.6753    4.2222    0.9326 C   0  0  0  0  0  0  0  0  0  0  0  0
   -1.3467    3.5816    2.0817 O   0  0  0  0  0  0  0  0  0  0  0  0
   -0.3271   -0.2095    1.5014 C   0  0  0  0  0  0  0  0  0  0  0  0
   -0.5825   -0.7039    2.9164 C   0  0  0  0  0  0  0  0  0  0  0  0
    0.6669   -0.7781    0.7838 C   0  0  0  0  0  0  0  0  0  0  0  0
    1.1455   -0.4482   -0.6141 C   0  0  1  0  0  0  0  0  0  0  0  0
    2.3951    0.4654   -0.6339 C   0  0  1  0  0  0  0  0  0  0  0  0
    3.3784    0.0038    0.3161 O   0  0  0  0  0  0  0  0  0  0  0  0
    4.3214    0.9059    0.6837 C   0  0  0  0  0  0  0  0  0  0  0  0
    4.3423    2.0906    0.3788 O   0  0  0  0  0  0  0  0  0  0  0  0
    5.3840    0.2496    1.4932 C   0  0  0  0  0  0  0  0  0  0  0  0
    5.2816   -1.0814    1.9159 C   0  0  0  0  0  0  0  0  0  0  0  0
    6.3097   -1.6565    2.6642 C   0  0  0  0  0  0  0  0  0  0  0  0
    7.4409   -0.9084    2.9927 C   0  0  0  0  0  0  0  0  0  0  0  0
    7.5509    0.4179    2.5735 C   0  0  0  0  0  0  0  0  0  0  0  0
    6.5234    0.9998    1.8286 C   0  0  0  0  0  0  0  0  0  0  0  0
    2.9868    0.2942   -2.0523 C   0  0  2  0  0  0  0  0  0  0  0  0
    2.8555    1.5621   -2.8895 C   0  0  0  0  0  0  0  0  0  0  0  0
    2.2206   -0.8792   -2.6857 C   0  0  0  0  0  0  0  0  0  0  0  0
    1.5588   -1.6392   -1.5125 C   0  0  1  0  0  0  0  0  0  0  0  0
    2.5314   -2.4736   -0.8755 O   0  0  0  0  0  0  0  0  0  0  0  0
    0.3975   -2.5052   -2.0464 C   0  0  0  0  0  0  0  0  0  0  0  0
    0.2812   -2.7917   -3.2468 O   0  0  0  0  0  0  0  0  0  0  0  0
   -0.5455   -3.1405   -1.0678 C   0  0  0  0  0  0  0  0  0  0  0  0
    0.0216   -4.2260   -0.2027 C   0  0  0  0  0  0  0  0  0  0  0  0
   -1.8560   -2.8265   -1.0946 C   0  0  0  0  0  0  0  0  0  0  0  0
   -2.5322   -1.7742   -1.9442 C   0  0  0  0  0  0  0  0  0  0  0  0
   -3.6730   -0.9799   -1.2200 C   0  0  0  0  0  0  0  0  0  0  0  0
   -4.8507   -1.9397   -0.9206 C   0  0  0  0  0  0  0  0  0  0  0  0
   -4.2132    0.0753   -2.2092 C   0  0  0  0  0  0  0  0  0  0  0  0
   -3.1578   -0.3173    0.1163 C   0  0  2  0  0  0  0  0  0  0  0  0
   -4.2921    0.2289    0.8464 O   0  0  0  0  0  0  0  0  0  0  0  0
   -4.7064   -0.4215    1.9650 C   0  0  0  0  0  0  0  0  0  0  0  0
   -5.9412    0.2423    2.4925 C   0  0  0  0  0  0  0  0  0  0  0  0
   -4.1772   -1.4099    2.4535 O   0  0  0  0  0  0  0  0  0  0  0  0
   -3.4849    4.4905   -0.1449 H   0  0  0  0  0  0  0  0  0  0  0  0
   -2.7647    4.9982   -1.6720 H   0  0  0  0  0  0  0  0  0  0  0  0
   -4.2219    3.9612   -1.6952 H   0  0  0  0  0  0  0  0  0  0  0  0
   -1.5425    0.6379   -0.9950 H   0  0  0  0  0  0  0  0  0  0  0  0
   -1.7606    1.3139    1.9808 H   0  0  0  0  0  0  0  0  0  0  0  0
    0.6519    5.1090    1.5773 H   0  0  0  0  0  0  0  0  0  0  0  0
    1.6534    3.7481    1.0053 H   0  0  0  0  0  0  0  0  0  0  0  0
    0.4802    4.5333   -0.0935 H   0  0  0  0  0  0  0  0  0  0  0  0
   -1.6403   -0.9534    3.0566 H   0  0  0  0  0  0  0  0  0  0  0  0
   -0.0019   -1.6110    3.1535 H   0  0  0  0  0  0  0  0  0  0  0  0
   -0.3006    0.0764    3.6418 H   0  0  0  0  0  0  0  0  0  0  0  0
    1.2403   -1.5810    1.2552 H   0  0  0  0  0  0  0  0  0  0  0  0
    0.3540    0.0790   -1.1522 H   0  0  0  0  0  0  0  0  0  0  0  0
    2.1099    1.4970   -0.4053 H   0  0  0  0  0  0  0  0  0  0  0  0
    4.4113   -1.6803    1.6660 H   0  0  0  0  0  0  0  0  0  0  0  0
    6.2246   -2.6896    2.9889 H   0  0  0  0  0  0  0  0  0  0  0  0
    8.2410   -1.3570    3.5780 H   0  0  0  0  0  0  0  0  0  0  0  0
    8.4349    0.9979    2.8368 H   0  0  0  0  0  0  0  0  0  0  0  0
    6.6148    2.0307    1.5098 H   0  0  0  0  0  0  0  0  0  0  0  0
    4.0534    0.0266   -1.9927 H   0  0  0  0  0  0  0  0  0  0  0  0
    1.8183    1.8965   -2.9625 H   0  0  0  0  0  0  0  0  0  0  0  0
    3.4391    2.3724   -2.4402 H   0  0  0  0  0  0  0  0  0  0  0  0
    3.2358    1.4016   -3.9023 H   0  0  0  0  0  0  0  0  0  0  0  0
    1.4644   -0.5048   -3.3935 H   0  0  0  0  0  0  0  0  0  0  0  0
    2.9047   -1.5136   -3.2571 H   0  0  0  0  0  0  0  0  0  0  0  0
    2.9891   -2.9694   -1.5752 H   0  0  0  0  0  0  0  0  0  0  0  0
    0.5611   -4.9584   -0.8141 H   0  0  0  0  0  0  0  0  0  0  0  0
    0.7115   -3.8152    0.5309 H   0  0  0  0  0  0  0  0  0  0  0  0
   -0.7682   -4.7604    0.3428 H   0  0  0  0  0  0  0  0  0  0  0  0
   -2.5243   -3.4072   -0.4516 H   0  0  0  0  0  0  0  0  0  0  0  0
   -2.9571   -2.2724   -2.8306 H   0  0  0  0  0  0  0  0  0  0  0  0
   -1.7890   -1.0626   -2.3345 H   0  0  0  0  0  0  0  0  0  0  0  0
   -5.7474   -1.3915   -0.6049 H   0  0  0  0  0  0  0  0  0  0  0  0
   -5.1357   -2.5141   -1.8100 H   0  0  0  0  0  0  0  0  0  0  0  0
   -4.6066   -2.6562   -0.1301 H   0  0  0  0  0  0  0  0  0  0  0  0
   -4.6973   -0.3962   -3.0713 H   0  0  0  0  0  0  0  0  0  0  0  0
   -3.4121    0.7114   -2.6061 H   0  0  0  0  0  0  0  0  0  0  0  0
   -4.9552    0.7249   -1.7331 H   0  0  0  0  0  0  0  0  0  0  0  0
   -2.6878   -1.1049    0.7146 H   0  0  0  0  0  0  0  0  0  0  0  0
   -6.6853    0.3066    1.6975 H   0  0  0  0  0  0  0  0  0  0  0  0
   -5.7001    1.2402    2.8650 H   0  0  0  0  0  0  0  0  0  0  0  0
   -6.3586   -0.3578    3.3037 H   0  0  0  0  0  0  0  0  0  0  0  0
  1  2  1  0
  2  3  2  0
  2  4  1  0
  4  5  1  0
  5  6  1  0
  6  7  1  0
  7  8  1  0
  8  9  1  0
  8 10  2  0
  6 11  1  0
 11 12  1  0
 11 13  2  0
 13 14  1  0
 14 15  1  0
 15 16  1  0
 16 17  1  0
 17 18  2  0
 17 19  1  0
 19 20  2  0
 20 21  1  0
 21 22  2  0
 22 23  1  0
 23 24  2  0
 15 25  1  0
 25 26  1  0
 25 27  1  0
 27 28  1  0
 28 29  1  1
 28 30  1  0
 30 31  2  0
 30 32  1  0
 32 33  1  0
 32 34  2  3
 34 35  1  0
 35 36  1  0
 36 37  1  0
 36 38  1  0
 36 39  1  0
 39 40  1  0
 40 41  1  0
 41 42  1  0
 41 43  2  0
 39  5  1  0
 28 14  1  0
 24 19  1  0
  1 44  1  0
  1 45  1  0
  1 46  1  0
  5 47  1  6
  6 48  1  1
  9 49  1  0
  9 50  1  0
  9 51  1  0
 12 52  1  0
 12 53  1  0
 12 54  1  0
 13 55  1  0
 14 56  1  6
 15 57  1  1
 20 58  1  0
 21 59  1  0
 22 60  1  0
 23 61  1  0
 24 62  1  0
 25 63  1  1
 26 64  1  0
 26 65  1  0
 26 66  1  0
 27 67  1  0
 27 68  1  0
 29 69  1  0
 33 70  1  0
 33 71  1  0
 33 72  1  0
 34 73  1  0
 35 74  1  0
 35 75  1  0
 37 76  1  0
 37 77  1  0
 37 78  1  0
 38 79  1  0
 38 80  1  0
 38 81  1  0
 39 82  1  1
 42 83  1  0
 42 84  1  0
 42 85  1  0
M  END
$$$$
