
     RDKit          3D

 43 45  0  0  0  0  0  0  0  0999 V2000
   -7.3561    1.3386    1.2665 C   0  0  0  0  0  0  0  0  0  0  0  0
   -6.0293    0.7923    1.0410 N   0  0  0  0  0  0  0  0  0  0  0  0
   -5.8537   -0.6169    1.3650 C   0  0  0  0  0  0  0  0  0  0  0  0
   -4.9895    1.6794    0.7675 C   0  0  0  0  0  0  0  0  0  0  0  0
   -5.1071    2.9015    0.8310 O   0  0  0  0  0  0  0  0  0  0  0  0
   -3.6689    1.1433    0.3625 C   0  0  0  0  0  0  0  0  0  0  0  0
   -3.5547    0.2199   -0.6802 C   0  0  0  0  0  0  0  0  0  0  0  0
   -2.2934   -0.2501   -1.0647 C   0  0  0  0  0  0  0  0  0  0  0  0
   -1.1397    0.2124   -0.4262 C   0  0  0  0  0  0  0  0  0  0  0  0
    0.1622   -0.2069   -0.7537 N   0  0  0  0  0  0  0  0  0  0  0  0
    0.5562   -1.1320   -1.7045 C   0  0  0  0  0  0  0  0  0  0  0  0
   -0.1962   -1.7690   -2.4340 O   0  0  0  0  0  0  0  0  0  0  0  0
    1.9989   -1.2912   -1.7605 C   0  0  0  0  0  0  0  0  0  0  0  0
    2.7943   -2.0861   -2.5604 C   0  0  0  0  0  0  0  0  0  0  0  0
    4.1344   -1.8330   -2.1808 C   0  0  0  0  0  0  0  0  0  0  0  0
    4.0940   -0.8971   -1.1651 C   0  0  0  0  0  0  0  0  0  0  0  0
    5.1081   -0.2239   -0.3548 C   0  0  0  0  0  0  0  0  0  0  0  0
    6.4741   -0.4430   -0.5959 C   0  0  0  0  0  0  0  0  0  0  0  0
    7.4528    0.1956    0.1743 C   0  0  0  0  0  0  0  0  0  0  0  0
    7.0745    1.0611    1.1963 C   0  0  0  0  0  0  0  0  0  0  0  0
    8.2762    1.8457    2.1436 Cl  0  0  0  0  0  0  0  0  0  0  0  0
    5.7271    1.2933    1.4542 C   0  0  0  0  0  0  0  0  0  0  0  0
    4.7509    0.6537    0.6822 C   0  0  0  0  0  0  0  0  0  0  0  0
    2.7914   -0.5660   -0.9079 O   0  0  0  0  0  0  0  0  0  0  0  0
   -1.2634    1.1611    0.5990 C   0  0  0  0  0  0  0  0  0  0  0  0
   -2.5208    1.6312    0.9888 C   0  0  0  0  0  0  0  0  0  0  0  0
   -7.5357    1.3906    2.3444 H   0  0  0  0  0  0  0  0  0  0  0  0
   -8.0968    0.6820    0.8008 H   0  0  0  0  0  0  0  0  0  0  0  0
   -7.4570    2.3404    0.8402 H   0  0  0  0  0  0  0  0  0  0  0  0
   -6.3413   -1.2144    0.5899 H   0  0  0  0  0  0  0  0  0  0  0  0
   -6.3297   -0.8191    2.3298 H   0  0  0  0  0  0  0  0  0  0  0  0
   -4.8037   -0.9020    1.4462 H   0  0  0  0  0  0  0  0  0  0  0  0
   -4.4394   -0.1286   -1.2070 H   0  0  0  0  0  0  0  0  0  0  0  0
   -2.2487   -0.9683   -1.8777 H   0  0  0  0  0  0  0  0  0  0  0  0
    0.9266    0.2143   -0.2371 H   0  0  0  0  0  0  0  0  0  0  0  0
    2.4371   -2.7630   -3.3253 H   0  0  0  0  0  0  0  0  0  0  0  0
    5.0213   -2.2854   -2.6015 H   0  0  0  0  0  0  0  0  0  0  0  0
    6.7987   -1.1121   -1.3895 H   0  0  0  0  0  0  0  0  0  0  0  0
    8.5044    0.0122   -0.0307 H   0  0  0  0  0  0  0  0  0  0  0  0
    5.4269    1.9678    2.2520 H   0  0  0  0  0  0  0  0  0  0  0  0
    3.7045    0.8499    0.9037 H   0  0  0  0  0  0  0  0  0  0  0  0
   -0.3847    1.5538    1.1045 H   0  0  0  0  0  0  0  0  0  0  0  0
   -2.6051    2.3796    1.7738 H   0  0  0  0  0  0  0  0  0  0  0  0
  1  2  1  0
  2  3  1  0
  2  4  1  0
  4  5  2  0
  4  6  1  0
  6  7  2  0
  7  8  1  0
  8  9  2  0
  9 10  1  0
 10 11  1  0
 11 12  2  0
 11 13  1  0
 13 14  2  0
 14 15  1  0
 15 16  2  0
 16 17  1  0
 17 18  2  0
 18 19  1  0
 19 20  2  0
 20 21  1  0
 20 22  1  0
 22 23  2  0
 16 24  1  0
  9 25  1  0
 25 26  2  0
 26  6  1  0
 24 13  1  0
 23 17  1  0
  1 27  1  0
  1 28  1  0
  1 29  1  0
  3 30  1  0
  3 31  1  0
  3 32  1  0
  7 33  1  0
  8 34  1  0
 10 35  1  0
 14 36  1  0
 15 37  1  0
 18 38  1  0
 19 39  1  0
 22 40  1  0
 23 41  1  0
 25 42  1  0
 26 43  1  0
M  END
$$$$
