
     RDKit          3D

 59 64  0  0  0  0  0  0  0  0999 V2000
   -5.2155    1.5366    3.0966 C   0  0  0  0  0  0  0  0  0  0  0  0
   -4.6107    1.0687    1.8977 O   0  0  0  0  0  0  0  0  0  0  0  0
   -5.3900    0.3677    1.0054 C   0  0  0  0  0  0  0  0  0  0  0  0
   -6.7824    0.2317    1.1675 C   0  0  0  0  0  0  0  0  0  0  0  0
   -7.5535   -0.4339    0.2152 C   0  0  0  0  0  0  0  0  0  0  0  0
   -6.9420   -0.9714   -0.9103 C   0  0  0  0  0  0  0  0  0  0  0  0
   -5.5611   -0.8438   -1.0778 C   0  0  0  0  0  0  0  0  0  0  0  0
   -4.7415   -0.1790   -0.1384 C   0  0  0  0  0  0  0  0  0  0  0  0
   -3.3697   -0.1176   -0.3756 N   0  0  0  0  0  0  0  0  0  0  0  0
   -2.8584    0.0282   -1.7508 C   0  0  0  0  0  0  0  0  0  0  0  0
   -1.4991    0.7609   -1.7794 C   0  0  0  0  0  0  0  0  0  0  0  0
   -0.4806    0.0448   -0.9790 N   0  0  0  0  0  0  0  0  0  0  0  0
    0.7942    0.5514   -0.9438 C   0  0  0  0  0  0  0  0  0  0  0  0
    1.2135    1.8695   -1.0304 C   0  0  0  0  0  0  0  0  0  0  0  0
    2.5952    1.9085   -0.7378 C   0  0  0  0  0  0  0  0  0  0  0  0
    3.0083    0.6086   -0.5031 C   0  0  0  0  0  0  0  0  0  0  0  0
    4.2883    0.0498   -0.1232 C   0  0  0  0  0  0  0  0  0  0  0  0
    5.4061    0.9376    0.2837 C   0  0  0  0  0  0  0  0  0  0  0  0
    6.6616    0.7585   -0.3097 C   0  0  0  0  0  0  0  0  0  0  0  0
    7.7279    1.5805    0.0583 C   0  0  0  0  0  0  0  0  0  0  0  0
    7.5431    2.5695    1.0263 C   0  0  0  0  0  0  0  0  0  0  0  0
    6.2958    2.7348    1.6349 C   0  0  0  0  0  0  0  0  0  0  0  0
    5.2253    1.9170    1.2680 C   0  0  0  0  0  0  0  0  0  0  0  0
    4.4873   -1.2355   -0.1349 N   0  0  0  0  0  0  0  0  0  0  0  0
    3.4363   -2.0879   -0.5288 C   0  0  0  0  0  0  0  0  0  0  0  0
    3.7007   -3.4599   -0.5888 C   0  0  0  0  0  0  0  0  0  0  0  0
    2.7201   -4.3587   -1.0121 C   0  0  0  0  0  0  0  0  0  0  0  0
    1.4665   -3.8872   -1.3993 C   0  0  0  0  0  0  0  0  0  0  0  0
    1.1818   -2.5210   -1.3411 C   0  0  0  0  0  0  0  0  0  0  0  0
    2.1523   -1.6289   -0.8760 C   0  0  0  0  0  0  0  0  0  0  0  0
    1.9418   -0.2304   -0.7819 N   0  0  0  0  0  0  0  0  0  0  0  0
   -1.0039   -0.5257    0.3005 C   0  0  0  0  0  0  0  0  0  0  0  0
   -2.3843    0.0470    0.7076 C   0  0  0  0  0  0  0  0  0  0  0  0
   -4.4401    2.0283    3.6919 H   0  0  0  0  0  0  0  0  0  0  0  0
   -5.6122    0.7054    3.6891 H   0  0  0  0  0  0  0  0  0  0  0  0
   -5.9889    2.2820    2.8852 H   0  0  0  0  0  0  0  0  0  0  0  0
   -7.3051    0.6471    2.0266 H   0  0  0  0  0  0  0  0  0  0  0  0
   -8.6283   -0.5301    0.3562 H   0  0  0  0  0  0  0  0  0  0  0  0
   -7.5310   -1.4976   -1.6577 H   0  0  0  0  0  0  0  0  0  0  0  0
   -5.1161   -1.3086   -1.9574 H   0  0  0  0  0  0  0  0  0  0  0  0
   -3.5605    0.6018   -2.3676 H   0  0  0  0  0  0  0  0  0  0  0  0
   -2.7429   -0.9670   -2.1956 H   0  0  0  0  0  0  0  0  0  0  0  0
   -1.1586    0.8306   -2.8179 H   0  0  0  0  0  0  0  0  0  0  0  0
   -1.6350    1.7806   -1.3991 H   0  0  0  0  0  0  0  0  0  0  0  0
    0.5750    2.7277   -1.2012 H   0  0  0  0  0  0  0  0  0  0  0  0
    3.2100    2.7979   -0.6796 H   0  0  0  0  0  0  0  0  0  0  0  0
    6.8074   -0.0171   -1.0584 H   0  0  0  0  0  0  0  0  0  0  0  0
    8.7030    1.4469   -0.4060 H   0  0  0  0  0  0  0  0  0  0  0  0
    8.3765    3.2063    1.3139 H   0  0  0  0  0  0  0  0  0  0  0  0
    6.1605    3.4966    2.3997 H   0  0  0  0  0  0  0  0  0  0  0  0
    4.2634    2.0362    1.7626 H   0  0  0  0  0  0  0  0  0  0  0  0
    4.6853   -3.8246   -0.3085 H   0  0  0  0  0  0  0  0  0  0  0  0
    2.9411   -5.4222   -1.0550 H   0  0  0  0  0  0  0  0  0  0  0  0
    0.7110   -4.5829   -1.7544 H   0  0  0  0  0  0  0  0  0  0  0  0
    0.2130   -2.1803   -1.6912 H   0  0  0  0  0  0  0  0  0  0  0  0
   -0.2992   -0.3594    1.1260 H   0  0  0  0  0  0  0  0  0  0  0  0
   -1.1049   -1.6102    0.1727 H   0  0  0  0  0  0  0  0  0  0  0  0
   -2.7020   -0.4901    1.6108 H   0  0  0  0  0  0  0  0  0  0  0  0
   -2.2750    1.1122    0.9492 H   0  0  0  0  0  0  0  0  0  0  0  0
  1  2  1  0
  2  3  1  0
  3  4  2  0
  4  5  1  0
  5  6  2  0
  6  7  1  0
  7  8  2  0
  8  9  1  0
  9 10  1  0
 10 11  1  0
 11 12  1  0
 12 13  1  0
 13 14  2  0
 14 15  1  0
 15 16  2  0
 16 17  1  0
 17 18  1  0
 18 19  2  0
 19 20  1  0
 20 21  2  0
 21 22  1  0
 22 23  2  0
 17 24  2  0
 24 25  1  0
 25 26  2  0
 26 27  1  0
 27 28  2  0
 28 29  1  0
 29 30  2  0
 30 31  1  0
 12 32  1  0
 32 33  1  0
  8  3  1  0
 33  9  1  0
 31 13  1  0
 31 16  1  0
 23 18  1  0
 30 25  1  0
  1 34  1  0
  1 35  1  0
  1 36  1  0
  4 37  1  0
  5 38  1  0
  6 39  1  0
  7 40  1  0
 10 41  1  0
 10 42  1  0
 11 43  1  0
 11 44  1  0
 14 45  1  0
 15 46  1  0
 19 47  1  0
 20 48  1  0
 21 49  1  0
 22 50  1  0
 23 51  1  0
 26 52  1  0
 27 53  1  0
 28 54  1  0
 29 55  1  0
 32 56  1  0
 32 57  1  0
 33 58  1  0
 33 59  1  0
M  END
$$$$
