
     RDKit          3D

 60 64  0  0  0  0  0  0  0  0999 V2000
   -7.1655   -1.6854   -2.5741 C   0  0  0  0  0  0  0  0  0  0  0  0
   -6.5908   -0.9279   -1.4144 C   0  0  0  0  0  0  0  0  0  0  0  0
   -7.0181   -1.1899   -0.1084 C   0  0  0  0  0  0  0  0  0  0  0  0
   -6.4983   -0.4646    0.9659 C   0  0  0  0  0  0  0  0  0  0  0  0
   -5.5508    0.5458    0.7517 C   0  0  0  0  0  0  0  0  0  0  0  0
   -4.9803    1.3197    1.9132 C   0  0  0  0  0  0  0  0  0  0  0  0
   -3.9218    0.5851    2.5728 N   0  0  0  0  0  0  0  0  0  0  0  0
   -4.1707   -0.1448    3.6888 N   0  0  0  0  0  0  0  0  0  0  0  0
   -3.0183   -0.6864    4.0840 N   0  0  0  0  0  0  0  0  0  0  0  0
   -2.0563   -0.2695    3.2159 C   0  0  0  0  0  0  0  0  0  0  0  0
   -0.6454   -0.5438    3.1695 C   0  0  0  0  0  0  0  0  0  0  0  0
   -0.0298   -1.2429    3.9649 O   0  0  0  0  0  0  0  0  0  0  0  0
   -0.0298    0.0924    2.0981 N   0  0  0  0  0  0  0  0  0  0  0  0
   -0.6844    0.9160    1.1909 C   0  0  0  0  0  0  0  0  0  0  0  0
    0.1616    1.5287    0.0768 C   0  0  0  0  0  0  0  0  0  0  0  0
    1.3812    2.2852    0.6262 C   0  0  0  0  0  0  0  0  0  0  0  0
    2.6990    1.5512    0.3851 C   0  0  0  0  0  0  0  0  0  0  0  0
    2.4714    0.1022    0.5729 N   0  0  0  0  0  0  0  0  0  0  0  0
    3.8276   -0.8257    1.0666 S   0  0  0  0  0  6  0  0  0  0  0  0
    4.4428   -0.1324    2.1773 O   0  0  0  0  0  0  0  0  0  0  0  0
    3.3815   -2.1964    1.1886 O   0  0  0  0  0  0  0  0  0  0  0  0
    4.9370   -0.7277   -0.3195 C   0  0  0  0  0  0  0  0  0  0  0  0
    5.8457    0.3307   -0.4033 C   0  0  0  0  0  0  0  0  0  0  0  0
    6.7320    0.3942   -1.4798 C   0  0  0  0  0  0  0  0  0  0  0  0
    6.7212   -0.5987   -2.4688 C   0  0  0  0  0  0  0  0  0  0  0  0
    7.7070   -0.5496   -3.5989 C   0  0  0  0  0  0  0  0  0  0  0  0
    5.8333   -1.6765   -2.3499 C   0  0  0  0  0  0  0  0  0  0  0  0
    4.9440   -1.7460   -1.2759 C   0  0  0  0  0  0  0  0  0  0  0  0
    1.6269   -0.5037   -0.4925 C   0  0  0  0  0  0  0  0  0  0  0  0
    0.5493    0.4755   -0.9657 C   0  0  0  0  0  0  0  0  0  0  0  0
   -1.9633    1.1750    1.2293 N   0  0  0  0  0  0  0  0  0  0  0  0
   -2.5942    0.5519    2.2551 C   0  0  0  0  0  0  0  0  0  0  0  0
   -5.1270    0.8089   -0.5576 C   0  0  0  0  0  0  0  0  0  0  0  0
   -5.6484    0.0832   -1.6311 C   0  0  0  0  0  0  0  0  0  0  0  0
   -7.6138   -2.6297   -2.2487 H   0  0  0  0  0  0  0  0  0  0  0  0
   -7.9364   -1.0862   -3.0677 H   0  0  0  0  0  0  0  0  0  0  0  0
   -6.3828   -1.9296   -3.2995 H   0  0  0  0  0  0  0  0  0  0  0  0
   -7.7550   -1.9666    0.0845 H   0  0  0  0  0  0  0  0  0  0  0  0
   -6.8332   -0.7001    1.9748 H   0  0  0  0  0  0  0  0  0  0  0  0
   -5.7605    1.5405    2.6517 H   0  0  0  0  0  0  0  0  0  0  0  0
   -4.5699    2.2825    1.5860 H   0  0  0  0  0  0  0  0  0  0  0  0
    0.9692   -0.0694    2.0175 H   0  0  0  0  0  0  0  0  0  0  0  0
   -0.4857    2.2657   -0.4189 H   0  0  0  0  0  0  0  0  0  0  0  0
    1.4482    3.2695    0.1469 H   0  0  0  0  0  0  0  0  0  0  0  0
    1.2611    2.4836    1.6983 H   0  0  0  0  0  0  0  0  0  0  0  0
    3.0629    1.7428   -0.6309 H   0  0  0  0  0  0  0  0  0  0  0  0
    3.4453    1.9398    1.0842 H   0  0  0  0  0  0  0  0  0  0  0  0
    5.8818    1.0977    0.3671 H   0  0  0  0  0  0  0  0  0  0  0  0
    7.4433    1.2159   -1.5368 H   0  0  0  0  0  0  0  0  0  0  0  0
    7.9138    0.4856   -3.8887 H   0  0  0  0  0  0  0  0  0  0  0  0
    8.6429   -1.0290   -3.2983 H   0  0  0  0  0  0  0  0  0  0  0  0
    7.3156   -1.0632   -4.4836 H   0  0  0  0  0  0  0  0  0  0  0  0
    5.8392   -2.4762   -3.0881 H   0  0  0  0  0  0  0  0  0  0  0  0
    4.2734   -2.5988   -1.1888 H   0  0  0  0  0  0  0  0  0  0  0  0
    2.2290   -0.8117   -1.3523 H   0  0  0  0  0  0  0  0  0  0  0  0
    1.1414   -1.3968   -0.0827 H   0  0  0  0  0  0  0  0  0  0  0  0
   -0.3308   -0.0878   -1.2996 H   0  0  0  0  0  0  0  0  0  0  0  0
    0.9267    0.9996   -1.8541 H   0  0  0  0  0  0  0  0  0  0  0  0
   -4.3827    1.5788   -0.7512 H   0  0  0  0  0  0  0  0  0  0  0  0
   -5.3113    0.3093   -2.6398 H   0  0  0  0  0  0  0  0  0  0  0  0
  1  2  1  0
  2  3  2  0
  3  4  1  0
  4  5  2  0
  5  6  1  0
  6  7  1  0
  7  8  1  0
  8  9  2  0
  9 10  1  0
 10 11  1  0
 11 12  2  0
 11 13  1  0
 13 14  1  0
 14 15  1  0
 15 16  1  0
 16 17  1  0
 17 18  1  0
 18 19  1  0
 19 20  2  0
 19 21  2  0
 19 22  1  0
 22 23  2  0
 23 24  1  0
 24 25  2  0
 25 26  1  0
 25 27  1  0
 27 28  2  0
 18 29  1  0
 29 30  1  0
 14 31  2  0
 31 32  1  0
  5 33  1  0
 33 34  2  0
 34  2  1  0
 32  7  1  0
 32 10  2  0
 30 15  1  0
 28 22  1  0
  1 35  1  0
  1 36  1  0
  1 37  1  0
  3 38  1  0
  4 39  1  0
  6 40  1  0
  6 41  1  0
 13 42  1  0
 15 43  1  0
 16 44  1  0
 16 45  1  0
 17 46  1  0
 17 47  1  0
 23 48  1  0
 24 49  1  0
 26 50  1  0
 26 51  1  0
 26 52  1  0
 27 53  1  0
 28 54  1  0
 29 55  1  0
 29 56  1  0
 30 57  1  0
 30 58  1  0
 33 59  1  0
 34 60  1  0
M  END
$$$$
