
     RDKit          3D

 36 37  0  0  0  0  0  0  0  0999 V2000
   -5.6209   -0.8465    1.2155 C   0  0  0  0  0  0  0  0  0  0  0  0
   -4.3394   -1.4987    0.7346 C   0  0  0  0  0  0  0  0  0  0  0  0
   -3.5079   -0.4812    0.1632 O   0  0  0  0  0  0  0  0  0  0  0  0
   -2.3145   -0.9327   -0.2948 C   0  0  0  0  0  0  0  0  0  0  0  0
   -1.9321   -2.0939   -0.2824 O   0  0  0  0  0  0  0  0  0  0  0  0
   -1.4943    0.1865   -0.8245 C   0  0  0  0  0  0  0  0  0  0  0  0
   -2.0949    1.3913   -1.2241 C   0  0  0  0  0  0  0  0  0  0  0  0
   -1.3185    2.4253   -1.7511 C   0  0  0  0  0  0  0  0  0  0  0  0
    0.0586    2.2639   -1.8871 C   0  0  0  0  0  0  0  0  0  0  0  0
    0.6653    1.0706   -1.4927 C   0  0  0  0  0  0  0  0  0  0  0  0
   -0.1035    0.0267   -0.9672 C   0  0  0  0  0  0  0  0  0  0  0  0
    0.5796   -1.1447   -0.4954 N   0  0  0  0  0  0  0  0  0  0  0  0
    1.2163   -1.0661    1.0790 S   0  0  0  0  0  6  0  0  0  0  0  0
    1.4065   -2.4230    1.5421 O   0  0  0  0  0  0  0  0  0  0  0  0
    0.4244   -0.1263    1.8478 O   0  0  0  0  0  0  0  0  0  0  0  0
    2.8139   -0.3682    0.8333 C   0  0  0  0  0  0  0  0  0  0  0  0
    3.1496    0.8566    1.4206 C   0  0  0  0  0  0  0  0  0  0  0  0
    4.4232    1.3907    1.2158 C   0  0  0  0  0  0  0  0  0  0  0  0
    5.3529    0.7032    0.4329 C   0  0  0  0  0  0  0  0  0  0  0  0
    5.0103   -0.5197   -0.1465 C   0  0  0  0  0  0  0  0  0  0  0  0
    3.7400   -1.0527    0.0577 C   0  0  0  0  0  0  0  0  0  0  0  0
    3.4365   -2.2200   -0.5246 F   0  0  0  0  0  0  0  0  0  0  0  0
   -6.1381   -0.3545    0.3851 H   0  0  0  0  0  0  0  0  0  0  0  0
   -5.4038   -0.0722    1.9588 H   0  0  0  0  0  0  0  0  0  0  0  0
   -6.2918   -1.5862    1.6612 H   0  0  0  0  0  0  0  0  0  0  0  0
   -3.8228   -1.9678    1.5795 H   0  0  0  0  0  0  0  0  0  0  0  0
   -4.5709   -2.2552   -0.0235 H   0  0  0  0  0  0  0  0  0  0  0  0
   -3.1693    1.5352   -1.1336 H   0  0  0  0  0  0  0  0  0  0  0  0
   -1.7900    3.3565   -2.0576 H   0  0  0  0  0  0  0  0  0  0  0  0
    0.6624    3.0690   -2.2996 H   0  0  0  0  0  0  0  0  0  0  0  0
    1.7397    0.9591   -1.6118 H   0  0  0  0  0  0  0  0  0  0  0  0
    0.0362   -2.0178   -0.5665 H   0  0  0  0  0  0  0  0  0  0  0  0
    2.4317    1.3956    2.0357 H   0  0  0  0  0  0  0  0  0  0  0  0
    4.6931    2.3414    1.6710 H   0  0  0  0  0  0  0  0  0  0  0  0
    6.3460    1.1187    0.2772 H   0  0  0  0  0  0  0  0  0  0  0  0
    5.7266   -1.0631   -0.7558 H   0  0  0  0  0  0  0  0  0  0  0  0
  1  2  1  0
  2  3  1  0
  3  4  1  0
  4  5  2  0
  4  6  1  0
  6  7  2  0
  7  8  1  0
  8  9  2  0
  9 10  1  0
 10 11  2  0
 11 12  1  0
 12 13  1  0
 13 14  2  0
 13 15  2  0
 13 16  1  0
 16 17  2  0
 17 18  1  0
 18 19  2  0
 19 20  1  0
 20 21  2  0
 21 22  1  0
 11  6  1  0
 21 16  1  0
  1 23  1  0
  1 24  1  0
  1 25  1  0
  2 26  1  0
  2 27  1  0
  7 28  1  0
  8 29  1  0
  9 30  1  0
 10 31  1  0
 12 32  1  0
 17 33  1  0
 18 34  1  0
 19 35  1  0
 20 36  1  0
M  END
$$$$
