
     RDKit          3D

 47 50  0  0  0  0  0  0  0  0999 V2000
   -6.2394   -3.5037    1.7744 C   0  0  0  0  0  0  0  0  0  0  0  0
   -5.5129   -2.4360    1.1630 O   0  0  0  0  0  0  0  0  0  0  0  0
   -6.0065   -1.2035    1.4390 C   0  0  0  0  0  0  0  0  0  0  0  0
   -6.9786   -0.9621    2.1377 O   0  0  0  0  0  0  0  0  0  0  0  0
   -5.1963   -0.1483    0.7688 C   0  0  0  0  0  0  0  0  0  0  0  0
   -5.5688    1.1850    0.9603 C   0  0  0  0  0  0  0  0  0  0  0  0
   -4.8399    2.2061    0.3553 C   0  0  0  0  0  0  0  0  0  0  0  0
   -3.7323    1.9096   -0.4486 C   0  0  0  0  0  0  0  0  0  0  0  0
   -3.3391    0.5830   -0.6598 C   0  0  0  0  0  0  0  0  0  0  0  0
   -2.2207    0.2142   -1.4704 N   0  0  0  0  0  0  0  0  0  0  0  0
   -1.8970   -1.1054   -1.6007 N   0  0  0  0  0  0  0  0  0  0  0  0
   -0.8367   -1.1716   -2.3854 N   0  0  0  0  0  0  0  0  0  0  0  0
   -0.4500    0.0683   -2.7870 N   0  0  0  0  0  0  0  0  0  0  0  0
   -1.2881    0.9181   -2.2308 C   0  0  0  0  0  0  0  0  0  0  0  0
   -1.1822    2.6286   -2.4761 S   0  0  0  0  0  0  0  0  0  0  0  0
    0.4854    2.7950   -3.1786 C   0  0  0  0  0  0  0  0  0  0  0  0
    1.5375    2.6482   -2.0888 C   0  0  0  0  0  0  0  0  0  0  0  0
    1.8472    3.6147   -1.3972 O   0  0  0  0  0  0  0  0  0  0  0  0
    2.0358    1.3684   -1.9946 N   0  0  0  0  0  0  0  0  0  0  0  0
    2.9895    0.9108   -1.1234 C   0  0  0  0  0  0  0  0  0  0  0  0
    3.2936   -0.3670   -1.0705 N   0  0  0  0  0  0  0  0  0  0  0  0
    4.2752   -0.5621   -0.1226 C   0  0  0  0  0  0  0  0  0  0  0  0
    4.6993    0.5786    0.5260 C   0  0  0  0  0  0  0  0  0  0  0  0
    3.8626    1.9328   -0.0695 S   0  0  0  0  0  0  0  0  0  0  0  0
    5.7571    0.6334    1.5732 C   0  0  0  0  0  0  0  0  0  0  0  0
    6.0287   -0.7802    2.1212 C   0  0  0  0  0  0  0  0  0  0  0  0
    6.1119   -1.8318    0.9988 C   0  0  0  0  0  0  0  0  0  0  0  0
    4.8024   -1.9198    0.1933 C   0  0  0  0  0  0  0  0  0  0  0  0
   -4.0849   -0.4436   -0.0383 C   0  0  0  0  0  0  0  0  0  0  0  0
   -7.2663   -3.5326    1.3957 H   0  0  0  0  0  0  0  0  0  0  0  0
   -6.2307   -3.4017    2.8648 H   0  0  0  0  0  0  0  0  0  0  0  0
   -5.7457   -4.4433    1.5106 H   0  0  0  0  0  0  0  0  0  0  0  0
   -6.4270    1.4345    1.5830 H   0  0  0  0  0  0  0  0  0  0  0  0
   -5.1343    3.2431    0.5112 H   0  0  0  0  0  0  0  0  0  0  0  0
   -3.2192    2.7617   -0.8752 H   0  0  0  0  0  0  0  0  0  0  0  0
    0.6533    2.0869   -3.9969 H   0  0  0  0  0  0  0  0  0  0  0  0
    0.5851    3.7986   -3.6070 H   0  0  0  0  0  0  0  0  0  0  0  0
    1.5997    0.6185   -2.5220 H   0  0  0  0  0  0  0  0  0  0  0  0
    6.6779    1.0319    1.1308 H   0  0  0  0  0  0  0  0  0  0  0  0
    5.4684    1.2965    2.3962 H   0  0  0  0  0  0  0  0  0  0  0  0
    6.9609   -0.7741    2.6974 H   0  0  0  0  0  0  0  0  0  0  0  0
    5.2264   -1.0646    2.8147 H   0  0  0  0  0  0  0  0  0  0  0  0
    6.9375   -1.5665    0.3252 H   0  0  0  0  0  0  0  0  0  0  0  0
    6.3457   -2.8140    1.4235 H   0  0  0  0  0  0  0  0  0  0  0  0
    4.9716   -2.4874   -0.7277 H   0  0  0  0  0  0  0  0  0  0  0  0
    4.0495   -2.4593    0.7800 H   0  0  0  0  0  0  0  0  0  0  0  0
   -3.8057   -1.4879   -0.1778 H   0  0  0  0  0  0  0  0  0  0  0  0
  1  2  1  0
  2  3  1  0
  3  4  2  0
  3  5  1  0
  5  6  2  0
  6  7  1  0
  7  8  2  0
  8  9  1  0
  9 10  1  0
 10 11  1  0
 11 12  2  0
 12 13  1  0
 13 14  2  0
 14 15  1  0
 15 16  1  0
 16 17  1  0
 17 18  2  0
 17 19  1  0
 19 20  1  0
 20 21  2  0
 21 22  1  0
 22 23  2  0
 23 24  1  0
 23 25  1  0
 25 26  1  0
 26 27  1  0
 27 28  1  0
  9 29  2  0
 29  5  1  0
 14 10  1  0
 24 20  1  0
 28 22  1  0
  1 30  1  0
  1 31  1  0
  1 32  1  0
  6 33  1  0
  7 34  1  0
  8 35  1  0
 16 36  1  0
 16 37  1  0
 19 38  1  0
 25 39  1  0
 25 40  1  0
 26 41  1  0
 26 42  1  0
 27 43  1  0
 27 44  1  0
 28 45  1  0
 28 46  1  0
 29 47  1  0
M  END
$$$$
