
     RDKit          3D

 47 48  0  0  0  0  0  0  0  0999 V2000
    3.3767    2.7325    0.4605 C   0  0  0  0  0  0  0  0  0  0  0  0
    4.7419    2.3268    0.4806 O   0  0  0  0  0  0  0  0  0  0  0  0
    5.0172    1.1073   -0.0858 C   0  0  0  0  0  0  0  0  0  0  0  0
    4.1179    0.3090   -0.7934 C   0  0  0  0  0  0  0  0  0  0  0  0
    4.5247   -0.9313   -1.3123 C   0  0  0  0  0  0  0  0  0  0  0  0
    3.6002   -1.7653   -2.0889 C   0  0  0  0  0  0  0  0  0  0  0  0
    2.4021   -2.2294   -1.7007 C   0  0  0  0  0  0  0  0  0  0  0  0
    1.7901   -2.0409   -0.3516 C   0  0  0  0  0  0  0  0  0  0  0  0
    2.4705   -1.9950    0.6702 O   0  0  0  0  0  0  0  0  0  0  0  0
    0.2874   -1.9440   -0.2888 C   0  0  0  0  0  0  0  0  0  0  0  0
   -0.2285   -0.5453   -0.5131 C   0  0  0  0  0  0  0  0  0  0  0  0
    0.4669    0.3538   -0.9857 O   0  0  0  0  0  0  0  0  0  0  0  0
   -1.6489   -0.2231   -0.1944 C   0  0  0  0  0  0  0  0  0  0  0  0
   -2.5571   -1.1102    0.2377 C   0  0  0  0  0  0  0  0  0  0  0  0
   -3.9536   -0.7496    0.5285 C   0  0  0  0  0  0  0  0  0  0  0  0
   -4.9693   -1.6394    0.1498 C   0  0  0  0  0  0  0  0  0  0  0  0
   -6.3041   -1.3487    0.4288 C   0  0  0  0  0  0  0  0  0  0  0  0
   -6.6171   -0.1731    1.0964 C   0  0  0  0  0  0  0  0  0  0  0  0
   -7.9341    0.0887    1.3586 O   0  0  0  0  0  0  0  0  0  0  0  0
   -5.6253    0.7263    1.5012 C   0  0  0  0  0  0  0  0  0  0  0  0
   -6.0878    1.8377    2.1582 O   0  0  0  0  0  0  0  0  0  0  0  0
   -5.1123    2.7832    2.5823 C   0  0  0  0  0  0  0  0  0  0  0  0
   -4.2902    0.4290    1.2189 C   0  0  0  0  0  0  0  0  0  0  0  0
    5.8510   -1.3508   -1.1457 C   0  0  0  0  0  0  0  0  0  0  0  0
    6.7591   -0.5527   -0.4500 C   0  0  0  0  0  0  0  0  0  0  0  0
    6.3343    0.6624    0.0710 C   0  0  0  0  0  0  0  0  0  0  0  0
    7.2422    1.4289    0.7507 O   0  0  0  0  0  0  0  0  0  0  0  0
    3.3028    3.6774    1.0075 H   0  0  0  0  0  0  0  0  0  0  0  0
    3.0364    2.9147   -0.5641 H   0  0  0  0  0  0  0  0  0  0  0  0
    2.7368    2.0032    0.9689 H   0  0  0  0  0  0  0  0  0  0  0  0
    3.0941    0.6297   -0.9556 H   0  0  0  0  0  0  0  0  0  0  0  0
    3.9482   -1.9972   -3.0937 H   0  0  0  0  0  0  0  0  0  0  0  0
    1.8001   -2.7885   -2.4091 H   0  0  0  0  0  0  0  0  0  0  0  0
   -0.1548   -2.6166   -1.0313 H   0  0  0  0  0  0  0  0  0  0  0  0
   -0.0120   -2.2949    0.7053 H   0  0  0  0  0  0  0  0  0  0  0  0
   -1.9050    0.8192   -0.3646 H   0  0  0  0  0  0  0  0  0  0  0  0
   -2.3181   -2.1609    0.3757 H   0  0  0  0  0  0  0  0  0  0  0  0
   -4.7335   -2.5632   -0.3739 H   0  0  0  0  0  0  0  0  0  0  0  0
   -7.0938   -2.0317    0.1302 H   0  0  0  0  0  0  0  0  0  0  0  0
   -7.9330    0.9450    1.8293 H   0  0  0  0  0  0  0  0  0  0  0  0
   -4.4258    2.3408    3.3116 H   0  0  0  0  0  0  0  0  0  0  0  0
   -4.5689    3.1999    1.7277 H   0  0  0  0  0  0  0  0  0  0  0  0
   -5.6379    3.6061    3.0761 H   0  0  0  0  0  0  0  0  0  0  0  0
   -3.4958    1.0951    1.5383 H   0  0  0  0  0  0  0  0  0  0  0  0
    6.1843   -2.3040   -1.5483 H   0  0  0  0  0  0  0  0  0  0  0  0
    7.7861   -0.8753   -0.3117 H   0  0  0  0  0  0  0  0  0  0  0  0
    6.7357    2.2142    1.0357 H   0  0  0  0  0  0  0  0  0  0  0  0
  1  2  1  0
  2  3  1  0
  3  4  2  0
  4  5  1  0
  5  6  1  0
  6  7  2  3
  7  8  1  0
  8  9  2  0
  8 10  1  0
 10 11  1  0
 11 12  2  0
 11 13  1  0
 13 14  2  3
 14 15  1  0
 15 16  2  0
 16 17  1  0
 17 18  2  0
 18 19  1  0
 18 20  1  0
 20 21  1  0
 21 22  1  0
 20 23  2  0
  5 24  2  0
 24 25  1  0
 25 26  2  0
 26 27  1  0
 26  3  1  0
 23 15  1  0
  1 28  1  0
  1 29  1  0
  1 30  1  0
  4 31  1  0
  6 32  1  0
  7 33  1  0
 10 34  1  0
 10 35  1  0
 13 36  1  0
 14 37  1  0
 16 38  1  0
 17 39  1  0
 19 40  1  0
 22 41  1  0
 22 42  1  0
 22 43  1  0
 23 44  1  0
 24 45  1  0
 25 46  1  0
 27 47  1  0
M  END
$$$$
