
     RDKit          3D

 28 31  0  0  0  0  0  0  0  0999 V2000
    3.3859    1.5723    1.0043 C   0  0  0  0  0  0  0  0  0  0  0  0
    2.7296    0.5817    1.7966 O   0  0  0  0  0  0  0  0  0  0  0  0
    2.1071   -0.3424    0.9929 C   0  0  0  0  0  0  0  0  0  0  0  0
    2.8381   -1.5651    0.7520 C   0  0  0  0  0  0  0  0  0  0  0  0
    2.3390   -2.6613   -0.0094 C   0  0  0  0  0  0  0  0  0  0  0  0
    1.0387   -2.4448   -0.4937 C   0  0  0  0  0  0  0  0  0  0  0  0
    0.1984   -3.2007   -1.2335 N   0  0  0  0  0  0  0  0  0  0  0  0
   -0.9871   -2.4564   -1.3908 O   0  0  0  0  0  0  0  0  0  0  0  0
   -0.8453   -1.2695   -0.7534 C   0  0  0  0  0  0  0  0  0  0  0  0
    0.3853   -1.2238   -0.1989 C   0  0  0  0  0  0  0  0  0  0  0  0
    0.8013   -0.1254    0.5199 C   0  0  0  0  0  0  0  0  0  0  0  0
   -0.1272    1.0245    0.6721 C   0  0  0  0  0  0  0  0  0  0  0  0
    0.2032    2.0372    1.2735 O   0  0  0  0  0  0  0  0  0  0  0  0
   -1.4990    0.9160    0.0381 C   0  0  0  0  0  0  0  0  0  0  0  0
   -2.4105    1.9659    0.1633 C   0  0  0  0  0  0  0  0  0  0  0  0
   -3.6706    1.8562   -0.4290 C   0  0  0  0  0  0  0  0  0  0  0  0
   -4.0204    0.7052   -1.1436 C   0  0  0  0  0  0  0  0  0  0  0  0
   -3.1158   -0.3513   -1.2755 C   0  0  0  0  0  0  0  0  0  0  0  0
   -1.8567   -0.2490   -0.6872 C   0  0  0  0  0  0  0  0  0  0  0  0
    4.2241    1.1304    0.4546 H   0  0  0  0  0  0  0  0  0  0  0  0
    3.7868    2.3319    1.6819 H   0  0  0  0  0  0  0  0  0  0  0  0
    2.6999    2.0657    0.3082 H   0  0  0  0  0  0  0  0  0  0  0  0
    3.8343   -1.6552    1.1884 H   0  0  0  0  0  0  0  0  0  0  0  0
    2.8982   -3.5701   -0.1829 H   0  0  0  0  0  0  0  0  0  0  0  0
   -2.1447    2.8633    0.7179 H   0  0  0  0  0  0  0  0  0  0  0  0
   -4.3846    2.6717   -0.3331 H   0  0  0  0  0  0  0  0  0  0  0  0
   -5.0059    0.6329   -1.5995 H   0  0  0  0  0  0  0  0  0  0  0  0
   -3.4020   -1.2400   -1.8331 H   0  0  0  0  0  0  0  0  0  0  0  0
  1  2  1  0
  2  3  1  0
  3  4  1  0
  4  5  2  0
  5  6  1  0
  6  7  2  0
  7  8  1  0
  8  9  1  0
  9 10  2  0
 10 11  1  0
 11 12  1  0
 12 13  2  0
 12 14  1  0
 14 15  2  0
 15 16  1  0
 16 17  2  0
 17 18  1  0
 18 19  2  0
 11  3  2  0
 19 14  1  0
 10  6  1  0
 19  9  1  0
  1 20  1  0
  1 21  1  0
  1 22  1  0
  4 23  1  0
  5 24  1  0
 15 25  1  0
 16 26  1  0
 17 27  1  0
 18 28  1  0
M  END
$$$$
