
     RDKit          3D

 37 38  0  0  0  0  0  0  0  0999 V2000
    0.6521   -1.8769    2.5042 O   0  0  0  0  0  0  0  0  0  0  0  0
    0.3262   -2.1228    1.3472 C   0  0  0  0  0  0  0  0  0  0  0  0
   -1.0534   -2.6761    0.9870 C   0  0  0  0  0  0  0  0  0  0  0  0
   -2.0296   -1.6485    0.7850 O   0  0  0  0  0  0  0  0  0  0  0  0
   -1.9168   -0.9721   -0.3854 C   0  0  0  0  0  0  0  0  0  0  0  0
   -1.0500   -1.1610   -1.2269 O   0  0  0  0  0  0  0  0  0  0  0  0
   -2.9974    0.0419   -0.5273 C   0  0  0  0  0  0  0  0  0  0  0  0
   -3.0971    0.6858   -1.7734 C   0  0  0  0  0  0  0  0  0  0  0  0
   -4.0777    1.6562   -1.9985 C   0  0  0  0  0  0  0  0  0  0  0  0
   -4.9643    1.9925   -0.9784 C   0  0  0  0  0  0  0  0  0  0  0  0
   -6.1687    3.1884   -1.2561 Cl  0  0  0  0  0  0  0  0  0  0  0  0
   -4.8780    1.3677    0.2629 C   0  0  0  0  0  0  0  0  0  0  0  0
   -3.8996    0.3959    0.4879 C   0  0  0  0  0  0  0  0  0  0  0  0
   -3.9037   -0.1454    1.7434 O   0  0  0  0  0  0  0  0  0  0  0  0
    1.1458   -1.8967    0.2629 N   0  0  0  0  0  0  0  0  0  0  0  0
    2.4644   -1.3082    0.4080 C   0  0  0  0  0  0  0  0  0  0  0  0
    2.4192    0.1823    0.7753 C   0  0  0  0  0  0  0  0  0  0  0  0
    3.6942    0.8407    0.5499 N   0  0  0  0  0  0  0  0  0  0  0  0
    4.1312    1.3429   -0.6543 C   0  0  0  0  0  0  0  0  0  0  0  0
    3.3154    1.4045   -1.7430 O   0  0  0  0  0  0  0  0  0  0  0  0
    5.4022    1.7538   -0.6619 C   0  0  0  0  0  0  0  0  0  0  0  0
    6.1522    1.5312    0.8850 S   0  0  0  0  0  0  0  0  0  0  0  0
    4.6725    0.8089    1.5415 C   0  0  0  0  0  0  0  0  0  0  0  0
    4.5866    0.3547    2.6694 O   0  0  0  0  0  0  0  0  0  0  0  0
   -0.9936   -3.3348    0.1118 H   0  0  0  0  0  0  0  0  0  0  0  0
   -1.3940   -3.2975    1.8221 H   0  0  0  0  0  0  0  0  0  0  0  0
   -2.4114    0.4353   -2.5824 H   0  0  0  0  0  0  0  0  0  0  0  0
   -4.1433    2.1440   -2.9683 H   0  0  0  0  0  0  0  0  0  0  0  0
   -5.5674    1.6314    1.0607 H   0  0  0  0  0  0  0  0  0  0  0  0
   -3.2063   -0.8260    1.8078 H   0  0  0  0  0  0  0  0  0  0  0  0
    0.6888   -1.8307   -0.6474 H   0  0  0  0  0  0  0  0  0  0  0  0
    2.9752   -1.4580   -0.5495 H   0  0  0  0  0  0  0  0  0  0  0  0
    3.0171   -1.8674    1.1712 H   0  0  0  0  0  0  0  0  0  0  0  0
    1.6346    0.7006    0.2139 H   0  0  0  0  0  0  0  0  0  0  0  0
    2.1530    0.2875    1.8340 H   0  0  0  0  0  0  0  0  0  0  0  0
    2.4043    1.5034   -1.4289 H   0  0  0  0  0  0  0  0  0  0  0  0
    5.9175    2.1726   -1.5148 H   0  0  0  0  0  0  0  0  0  0  0  0
  1  2  2  0
  2  3  1  0
  3  4  1  0
  4  5  1  0
  5  6  2  0
  5  7  1  0
  7  8  2  0
  8  9  1  0
  9 10  2  0
 10 11  1  0
 10 12  1  0
 12 13  2  0
 13 14  1  0
  2 15  1  0
 15 16  1  0
 16 17  1  0
 17 18  1  0
 18 19  1  0
 19 20  1  0
 19 21  2  0
 21 22  1  0
 22 23  1  0
 23 24  2  0
 13  7  1  0
 23 18  1  0
  3 25  1  0
  3 26  1  0
  8 27  1  0
  9 28  1  0
 12 29  1  0
 14 30  1  0
 15 31  1  0
 16 32  1  0
 16 33  1  0
 17 34  1  0
 17 35  1  0
 20 36  1  0
 21 37  1  0
M  END
$$$$
