
     RDKit          3D

 50 52  0  0  0  0  0  0  0  0999 V2000
    7.8542    2.4915   -1.5944 C   0  0  0  0  0  0  0  0  0  0  0  0
    6.5692    3.0804   -1.4411 O   0  0  0  0  0  0  0  0  0  0  0  0
    5.5336    2.2384   -1.1473 C   0  0  0  0  0  0  0  0  0  0  0  0
    4.2936    2.8619   -1.0044 C   0  0  0  0  0  0  0  0  0  0  0  0
    3.1446    2.1208   -0.7034 C   0  0  0  0  0  0  0  0  0  0  0  0
    3.2220    0.7389   -0.5422 C   0  0  0  0  0  0  0  0  0  0  0  0
    2.1212   -0.0854   -0.2370 N   0  0  0  0  0  0  0  0  0  0  0  0
    0.7895    0.2873   -0.1126 C   0  0  0  0  0  0  0  0  0  0  0  0
    0.3326    1.4195   -0.2742 O   0  0  0  0  0  0  0  0  0  0  0  0
   -0.1390   -0.9017    0.2518 C   0  0  0  0  0  0  0  0  0  0  0  0
   -1.4632   -0.3895    0.5668 N   0  0  0  0  0  0  0  0  0  0  0  0
   -2.2191   -0.9223    1.5831 C   0  0  0  0  0  0  0  0  0  0  0  0
   -1.8545   -1.8792    2.2583 O   0  0  0  0  0  0  0  0  0  0  0  0
   -3.5170   -0.2493    1.8677 C   0  0  0  0  0  0  0  0  0  0  0  0
   -4.0576   -0.3635    3.1536 C   0  0  0  0  0  0  0  0  0  0  0  0
   -5.2726    0.2519    3.4649 C   0  0  0  0  0  0  0  0  0  0  0  0
   -5.9722    0.9720    2.4896 C   0  0  0  0  0  0  0  0  0  0  0  0
   -7.2610    1.6596    2.8327 C   0  0  0  0  0  0  0  0  0  0  0  0
   -5.4299    1.0834    1.2032 C   0  0  0  0  0  0  0  0  0  0  0  0
   -4.2137    0.4693    0.8888 C   0  0  0  0  0  0  0  0  0  0  0  0
   -0.2266   -1.9396   -0.8547 C   0  0  0  0  0  0  0  0  0  0  0  0
   -0.3190   -1.5741   -2.2077 C   0  0  0  0  0  0  0  0  0  0  0  0
   -0.4026   -2.5501   -3.2025 C   0  0  0  0  0  0  0  0  0  0  0  0
   -0.4113   -3.9001   -2.8585 C   0  0  0  0  0  0  0  0  0  0  0  0
   -0.3458   -4.2770   -1.5192 C   0  0  0  0  0  0  0  0  0  0  0  0
   -0.2594   -3.3037   -0.5228 C   0  0  0  0  0  0  0  0  0  0  0  0
    4.4677    0.1148   -0.6832 C   0  0  0  0  0  0  0  0  0  0  0  0
    5.6169    0.8578   -0.9847 C   0  0  0  0  0  0  0  0  0  0  0  0
    8.1821    2.0121   -0.6661 H   0  0  0  0  0  0  0  0  0  0  0  0
    7.8674    1.7848   -2.4308 H   0  0  0  0  0  0  0  0  0  0  0  0
    8.5638    3.2922   -1.8241 H   0  0  0  0  0  0  0  0  0  0  0  0
    4.2157    3.9398   -1.1269 H   0  0  0  0  0  0  0  0  0  0  0  0
    2.2095    2.6610   -0.5992 H   0  0  0  0  0  0  0  0  0  0  0  0
    2.3200   -1.0761   -0.1500 H   0  0  0  0  0  0  0  0  0  0  0  0
    0.2885   -1.3564    1.1553 H   0  0  0  0  0  0  0  0  0  0  0  0
   -1.6758    0.5305    0.1984 H   0  0  0  0  0  0  0  0  0  0  0  0
   -3.5302   -0.9284    3.9196 H   0  0  0  0  0  0  0  0  0  0  0  0
   -5.6700    0.1610    4.4736 H   0  0  0  0  0  0  0  0  0  0  0  0
   -7.8018    1.1104    3.6106 H   0  0  0  0  0  0  0  0  0  0  0  0
   -7.9185    1.7157    1.9587 H   0  0  0  0  0  0  0  0  0  0  0  0
   -7.0598    2.6741    3.1902 H   0  0  0  0  0  0  0  0  0  0  0  0
   -5.9571    1.6432    0.4333 H   0  0  0  0  0  0  0  0  0  0  0  0
   -3.8396    0.5440   -0.1281 H   0  0  0  0  0  0  0  0  0  0  0  0
   -0.3311   -0.5258   -2.5017 H   0  0  0  0  0  0  0  0  0  0  0  0
   -0.4696   -2.2557   -4.2469 H   0  0  0  0  0  0  0  0  0  0  0  0
   -0.4842   -4.6585   -3.6337 H   0  0  0  0  0  0  0  0  0  0  0  0
   -0.3752   -5.3293   -1.2478 H   0  0  0  0  0  0  0  0  0  0  0  0
   -0.2387   -3.6147    0.5214 H   0  0  0  0  0  0  0  0  0  0  0  0
    4.5668   -0.9612   -0.5637 H   0  0  0  0  0  0  0  0  0  0  0  0
    6.5568    0.3257   -1.0848 H   0  0  0  0  0  0  0  0  0  0  0  0
  1  2  1  0
  2  3  1  0
  3  4  2  0
  4  5  1  0
  5  6  2  0
  6  7  1  0
  7  8  1  0
  8  9  2  0
  8 10  1  0
 10 11  1  0
 11 12  1  0
 12 13  2  0
 12 14  1  0
 14 15  2  0
 15 16  1  0
 16 17  2  0
 17 18  1  0
 17 19  1  0
 19 20  2  0
 10 21  1  0
 21 22  2  0
 22 23  1  0
 23 24  2  0
 24 25  1  0
 25 26  2  0
  6 27  1  0
 27 28  2  0
 28  3  1  0
 20 14  1  0
 26 21  1  0
  1 29  1  0
  1 30  1  0
  1 31  1  0
  4 32  1  0
  5 33  1  0
  7 34  1  0
 10 35  1  0
 11 36  1  0
 15 37  1  0
 16 38  1  0
 18 39  1  0
 18 40  1  0
 18 41  1  0
 19 42  1  0
 20 43  1  0
 22 44  1  0
 23 45  1  0
 24 46  1  0
 25 47  1  0
 26 48  1  0
 27 49  1  0
 28 50  1  0
M  END
$$$$
