
     RDKit          3D

 44 47  0  0  0  0  0  0  0  0999 V2000
   -3.6913    2.5334   -0.3493 C   0  0  0  0  0  0  0  0  0  0  0  0
   -2.3953    1.7766   -0.6307 C   0  0  0  0  0  0  0  0  0  0  0  0
   -2.6155    0.6960   -1.6779 C   0  0  0  0  0  0  0  0  0  0  0  0
   -1.4091   -0.2040   -1.8049 C   0  0  0  0  0  0  0  0  0  0  0  0
   -0.4964    0.0746   -2.5877 O   0  0  0  0  0  0  0  0  0  0  0  0
   -1.3836   -1.3499   -1.0176 N   0  0  0  0  0  0  0  0  0  0  0  0
   -0.3130   -2.3262   -1.2714 C   0  0  0  0  0  0  0  0  0  0  0  0
    0.9592   -2.0132   -0.4723 C   0  0  0  0  0  0  0  0  0  0  0  0
    1.4176   -2.8381    0.3146 O   0  0  0  0  0  0  0  0  0  0  0  0
    1.5185   -0.7898   -0.7990 N   0  0  0  0  0  0  0  0  0  0  0  0
    2.6584   -0.1779   -0.2440 C   0  0  0  0  0  0  0  0  0  0  0  0
    3.4242   -0.7438    0.7930 C   0  0  0  0  0  0  0  0  0  0  0  0
    4.5467   -0.0796    1.3060 C   0  0  0  0  0  0  0  0  0  0  0  0
    4.8742    1.1425    0.7651 C   0  0  0  0  0  0  0  0  0  0  0  0
    4.1313    1.7027   -0.2449 C   0  0  0  0  0  0  0  0  0  0  0  0
    3.0222    1.0712   -0.7689 C   0  0  0  0  0  0  0  0  0  0  0  0
    4.6180    2.9106   -0.6383 O   0  0  0  0  0  0  0  0  0  0  0  0
    5.7521    3.0451    0.2437 C   0  0  0  0  0  0  0  0  0  0  0  0
    5.9219    1.9247    1.1360 O   0  0  0  0  0  0  0  0  0  0  0  0
   -2.1816   -1.5145    0.1627 C   0  0  0  0  0  0  0  0  0  0  0  0
   -2.7203   -2.7814    0.4460 C   0  0  0  0  0  0  0  0  0  0  0  0
   -3.5154   -2.9937    1.5750 C   0  0  0  0  0  0  0  0  0  0  0  0
   -3.7772   -1.9460    2.4487 C   0  0  0  0  0  0  0  0  0  0  0  0
   -3.2402   -0.6853    2.1964 C   0  0  0  0  0  0  0  0  0  0  0  0
   -2.4501   -0.4539    1.0589 C   0  0  0  0  0  0  0  0  0  0  0  0
   -1.6962    1.1677    0.9480 S   0  0  0  0  0  0  0  0  0  0  0  0
   -3.5273    3.3621    0.3486 H   0  0  0  0  0  0  0  0  0  0  0  0
   -4.4637    1.8787    0.0698 H   0  0  0  0  0  0  0  0  0  0  0  0
   -4.0902    2.9632   -1.2750 H   0  0  0  0  0  0  0  0  0  0  0  0
   -1.6605    2.4928   -1.0176 H   0  0  0  0  0  0  0  0  0  0  0  0
   -3.5154    0.1006   -1.4818 H   0  0  0  0  0  0  0  0  0  0  0  0
   -2.7910    1.1577   -2.6582 H   0  0  0  0  0  0  0  0  0  0  0  0
   -0.6340   -3.3449   -1.0396 H   0  0  0  0  0  0  0  0  0  0  0  0
   -0.0531   -2.3206   -2.3372 H   0  0  0  0  0  0  0  0  0  0  0  0
    1.0426   -0.2664   -1.5351 H   0  0  0  0  0  0  0  0  0  0  0  0
    3.1662   -1.7052    1.2267 H   0  0  0  0  0  0  0  0  0  0  0  0
    5.1357   -0.5154    2.1049 H   0  0  0  0  0  0  0  0  0  0  0  0
    2.4581    1.5445   -1.5651 H   0  0  0  0  0  0  0  0  0  0  0  0
    5.6244    3.9542    0.8426 H   0  0  0  0  0  0  0  0  0  0  0  0
    6.6582    3.1494   -0.3644 H   0  0  0  0  0  0  0  0  0  0  0  0
   -2.5675   -3.6220   -0.2253 H   0  0  0  0  0  0  0  0  0  0  0  0
   -3.9284   -3.9807    1.7703 H   0  0  0  0  0  0  0  0  0  0  0  0
   -4.3853   -2.1114    3.3346 H   0  0  0  0  0  0  0  0  0  0  0  0
   -3.4278    0.1157    2.9093 H   0  0  0  0  0  0  0  0  0  0  0  0
  1  2  1  0
  2  3  1  0
  3  4  1  0
  4  5  2  0
  4  6  1  0
  6  7  1  0
  7  8  1  0
  8  9  2  0
  8 10  1  0
 10 11  1  0
 11 12  2  0
 12 13  1  0
 13 14  2  0
 14 15  1  0
 15 16  2  0
 15 17  1  0
 17 18  1  0
 18 19  1  0
  6 20  1  0
 20 21  2  0
 21 22  1  0
 22 23  2  0
 23 24  1  0
 24 25  2  0
 25 26  1  0
 26  2  1  0
 16 11  1  0
 25 20  1  0
 19 14  1  0
  1 27  1  0
  1 28  1  0
  1 29  1  0
  2 30  1  0
  3 31  1  0
  3 32  1  0
  7 33  1  0
  7 34  1  0
 10 35  1  0
 12 36  1  0
 13 37  1  0
 16 38  1  0
 18 39  1  0
 18 40  1  0
 21 41  1  0
 22 42  1  0
 23 43  1  0
 24 44  1  0
M  END
$$$$
