
     RDKit          3D

 38 40  0  0  0  0  0  0  0  0999 V2000
   -2.2037    2.1007   -0.5200 C   0  0  0  0  0  0  0  0  0  0  0  0
   -2.8770    0.7783   -0.7528 C   0  0  0  0  0  0  0  0  0  0  0  0
   -3.5185    0.5789   -1.9903 C   0  0  0  0  0  0  0  0  0  0  0  0
   -4.1874   -0.6102   -2.2661 C   0  0  0  0  0  0  0  0  0  0  0  0
   -4.7882   -0.7691   -3.4522 F   0  0  0  0  0  0  0  0  0  0  0  0
   -4.2485   -1.6290   -1.3282 C   0  0  0  0  0  0  0  0  0  0  0  0
   -3.6221   -1.4576   -0.0954 C   0  0  0  0  0  0  0  0  0  0  0  0
   -2.9251   -0.2662    0.1930 C   0  0  0  0  0  0  0  0  0  0  0  0
   -2.1630   -0.1808    1.8154 S   0  0  0  0  0  6  0  0  0  0  0  0
   -1.7146    1.1663    2.0846 O   0  0  0  0  0  0  0  0  0  0  0  0
   -3.0556   -0.8595    2.7332 O   0  0  0  0  0  0  0  0  0  0  0  0
   -0.8182   -1.1908    1.6511 N   0  0  0  0  0  0  0  0  0  0  0  0
    0.1312   -0.9352    0.6249 C   0  0  0  0  0  0  0  0  0  0  0  0
    0.2226   -1.8223   -0.4489 C   0  0  0  0  0  0  0  0  0  0  0  0
    1.1212   -1.5680   -1.4843 C   0  0  0  0  0  0  0  0  0  0  0  0
    1.9244   -0.4323   -1.4364 C   0  0  0  0  0  0  0  0  0  0  0  0
    2.7780   -0.2355   -2.4877 O   0  0  0  0  0  0  0  0  0  0  0  0
    1.8491    0.4605   -0.3597 C   0  0  0  0  0  0  0  0  0  0  0  0
    2.8589    1.9292   -0.3062 S   0  0  0  0  0  0  0  0  0  0  0  0
    4.2361    1.3904    0.6220 C   0  0  0  0  0  0  0  0  0  0  0  0
    4.3257    0.1694    1.2355 N   0  0  0  0  0  0  0  0  0  0  0  0
    5.5091    0.2044    1.8002 C   0  0  0  0  0  0  0  0  0  0  0  0
    6.1035    1.3947    1.5293 N   0  0  0  0  0  0  0  0  0  0  0  0
    5.3147    2.1678    0.7675 N   0  0  0  0  0  0  0  0  0  0  0  0
    0.9382    0.2025    0.6710 C   0  0  0  0  0  0  0  0  0  0  0  0
   -1.1469    1.9663   -0.2803 H   0  0  0  0  0  0  0  0  0  0  0  0
   -2.2402    2.7306   -1.4161 H   0  0  0  0  0  0  0  0  0  0  0  0
   -2.7109    2.6527    0.2768 H   0  0  0  0  0  0  0  0  0  0  0  0
   -3.5100    1.3518   -2.7556 H   0  0  0  0  0  0  0  0  0  0  0  0
   -4.7873   -2.5425   -1.5592 H   0  0  0  0  0  0  0  0  0  0  0  0
   -3.6863   -2.2550    0.6429 H   0  0  0  0  0  0  0  0  0  0  0  0
   -1.0311   -2.1602    1.8785 H   0  0  0  0  0  0  0  0  0  0  0  0
   -0.4042   -2.7078   -0.4987 H   0  0  0  0  0  0  0  0  0  0  0  0
    1.1955   -2.2492   -2.3276 H   0  0  0  0  0  0  0  0  0  0  0  0
    3.2831    0.5767   -2.2983 H   0  0  0  0  0  0  0  0  0  0  0  0
    5.9692   -0.5723    2.3941 H   0  0  0  0  0  0  0  0  0  0  0  0
    7.0131    1.7390    1.8162 H   0  0  0  0  0  0  0  0  0  0  0  0
    0.8652    0.8835    1.5162 H   0  0  0  0  0  0  0  0  0  0  0  0
  1  2  1  0
  2  3  2  0
  3  4  1  0
  4  5  1  0
  4  6  2  0
  6  7  1  0
  7  8  2  0
  8  9  1  0
  9 10  2  0
  9 11  2  0
  9 12  1  0
 12 13  1  0
 13 14  2  0
 14 15  1  0
 15 16  2  0
 16 17  1  0
 16 18  1  0
 18 19  1  0
 19 20  1  0
 20 21  1  0
 21 22  2  0
 22 23  1  0
 23 24  1  0
 18 25  2  0
  8  2  1  0
 25 13  1  0
 24 20  2  0
  1 26  1  0
  1 27  1  0
  1 28  1  0
  3 29  1  0
  6 30  1  0
  7 31  1  0
 12 32  1  0
 14 33  1  0
 15 34  1  0
 17 35  1  0
 22 36  1  0
 23 37  1  0
 25 38  1  0
M  END
$$$$
