
     RDKit          3D

 40 42  0  0  0  0  0  0  0  0999 V2000
   -5.2554   -1.2705   -0.6544 C   0  0  0  0  0  0  0  0  0  0  0  0
   -3.9283   -0.7214   -0.2204 C   0  0  0  0  0  0  0  0  0  0  0  0
   -3.1792    0.0835   -1.0792 C   0  0  0  0  0  0  0  0  0  0  0  0
   -1.9204    0.5883   -0.7034 C   0  0  0  0  0  0  0  0  0  0  0  0
   -1.2130    1.4608   -1.7087 C   0  0  0  0  0  0  0  0  0  0  0  0
   -1.3854    0.2280    0.5610 C   0  0  0  0  0  0  0  0  0  0  0  0
    0.2766    0.7863    1.0049 S   0  0  0  0  0  6  0  0  0  0  0  0
    0.2211    2.2326    1.0643 O   0  0  0  0  0  0  0  0  0  0  0  0
    0.7656    0.0211    2.1348 O   0  0  0  0  0  0  0  0  0  0  0  0
    1.2074    0.2831   -0.3430 N   0  0  0  0  0  0  0  0  0  0  0  0
    1.2890   -1.2072   -0.5441 C   0  0  0  0  0  0  0  0  0  0  0  0
    2.7582   -1.6097   -0.3395 C   0  0  0  0  0  0  0  0  0  0  0  0
    3.4638   -0.2981   -0.4170 C   0  0  0  0  0  0  0  0  0  0  0  0
    4.8290   -0.0653   -0.4684 C   0  0  0  0  0  0  0  0  0  0  0  0
    5.2748    1.2585   -0.4812 C   0  0  0  0  0  0  0  0  0  0  0  0
    4.3590    2.3215   -0.4376 C   0  0  0  0  0  0  0  0  0  0  0  0
    2.9854    2.0738   -0.3788 C   0  0  0  0  0  0  0  0  0  0  0  0
    2.5593    0.7580   -0.3579 C   0  0  0  0  0  0  0  0  0  0  0  0
   -2.1469   -0.5661    1.4522 C   0  0  0  0  0  0  0  0  0  0  0  0
   -1.7059   -0.9458    2.8402 C   0  0  0  0  0  0  0  0  0  0  0  0
   -3.4035   -1.0434    1.0323 C   0  0  0  0  0  0  0  0  0  0  0  0
   -5.9222   -1.4062    0.2037 H   0  0  0  0  0  0  0  0  0  0  0  0
   -5.1162   -2.2359   -1.1507 H   0  0  0  0  0  0  0  0  0  0  0  0
   -5.7549   -0.5850   -1.3472 H   0  0  0  0  0  0  0  0  0  0  0  0
   -3.5864    0.3303   -2.0595 H   0  0  0  0  0  0  0  0  0  0  0  0
   -0.4894    0.8747   -2.2819 H   0  0  0  0  0  0  0  0  0  0  0  0
   -0.7191    2.3137   -1.2392 H   0  0  0  0  0  0  0  0  0  0  0  0
   -1.9262    1.8894   -2.4227 H   0  0  0  0  0  0  0  0  0  0  0  0
    0.6287   -1.7777    0.1157 H   0  0  0  0  0  0  0  0  0  0  0  0
    0.9758   -1.4172   -1.5746 H   0  0  0  0  0  0  0  0  0  0  0  0
    3.0898   -2.3112   -1.1103 H   0  0  0  0  0  0  0  0  0  0  0  0
    2.9032   -2.0544    0.6507 H   0  0  0  0  0  0  0  0  0  0  0  0
    5.5387   -0.8861   -0.4901 H   0  0  0  0  0  0  0  0  0  0  0  0
    6.3410    1.4697   -0.5203 H   0  0  0  0  0  0  0  0  0  0  0  0
    4.7209    3.3469   -0.4487 H   0  0  0  0  0  0  0  0  0  0  0  0
    2.2795    2.8972   -0.3564 H   0  0  0  0  0  0  0  0  0  0  0  0
   -1.3832   -0.0634    3.4012 H   0  0  0  0  0  0  0  0  0  0  0  0
   -0.9112   -1.6963    2.7987 H   0  0  0  0  0  0  0  0  0  0  0  0
   -2.5302   -1.3833    3.4154 H   0  0  0  0  0  0  0  0  0  0  0  0
   -3.9901   -1.6735    1.7008 H   0  0  0  0  0  0  0  0  0  0  0  0
  1  2  1  0
  2  3  2  0
  3  4  1  0
  4  5  1  0
  4  6  2  0
  6  7  1  0
  7  8  2  0
  7  9  2  0
  7 10  1  0
 10 11  1  0
 11 12  1  0
 12 13  1  0
 13 14  2  0
 14 15  1  0
 15 16  2  0
 16 17  1  0
 17 18  2  0
  6 19  1  0
 19 20  1  0
 19 21  2  0
 21  2  1  0
 18 10  1  0
 18 13  1  0
  1 22  1  0
  1 23  1  0
  1 24  1  0
  3 25  1  0
  5 26  1  0
  5 27  1  0
  5 28  1  0
 11 29  1  0
 11 30  1  0
 12 31  1  0
 12 32  1  0
 14 33  1  0
 15 34  1  0
 16 35  1  0
 17 36  1  0
 20 37  1  0
 20 38  1  0
 20 39  1  0
 21 40  1  0
M  END
$$$$
