
     RDKit          3D

 39 41  0  0  0  0  0  0  0  0999 V2000
    1.7443    3.3293   -2.0256 O   0  0  0  0  0  0  0  0  0  0  0  0
    1.6713    2.2278   -1.4881 C   0  0  0  0  0  0  0  0  0  0  0  0
    2.9134    1.4381   -1.2788 C   0  0  0  0  0  0  0  0  0  0  0  0
    3.1058    0.5886   -0.2579 C   0  0  0  0  0  0  0  0  0  0  0  0
    4.3519   -0.1614   -0.0475 C   0  0  0  0  0  0  0  0  0  0  0  0
    4.2757   -1.4683    0.4538 C   0  0  0  0  0  0  0  0  0  0  0  0
    5.4371   -2.2089    0.6930 C   0  0  0  0  0  0  0  0  0  0  0  0
    6.6829   -1.6395    0.4425 C   0  0  0  0  0  0  0  0  0  0  0  0
    8.2544   -2.6381    0.7668 Br  0  0  0  0  0  0  0  0  0  0  0  0
    6.7778   -0.3365   -0.0398 C   0  0  0  0  0  0  0  0  0  0  0  0
    5.6146    0.4019   -0.2789 C   0  0  0  0  0  0  0  0  0  0  0  0
    0.3537    1.7010   -1.0579 C   0  0  0  0  0  0  0  0  0  0  0  0
    0.0158    0.3510   -1.1898 C   0  0  0  0  0  0  0  0  0  0  0  0
   -1.2463   -0.1016   -0.7847 C   0  0  0  0  0  0  0  0  0  0  0  0
   -2.1863    0.7888   -0.2609 C   0  0  0  0  0  0  0  0  0  0  0  0
   -3.4719    0.4138    0.1680 N   0  0  0  0  0  0  0  0  0  0  0  0
   -4.0394   -0.8484    0.1892 C   0  0  0  0  0  0  0  0  0  0  0  0
   -3.4868   -1.8834   -0.1683 O   0  0  0  0  0  0  0  0  0  0  0  0
   -5.4001   -0.8374    0.6981 C   0  0  0  0  0  0  0  0  0  0  0  0
   -6.3122   -1.8596    0.8811 C   0  0  0  0  0  0  0  0  0  0  0  0
   -7.4859   -1.2707    1.4089 C   0  0  0  0  0  0  0  0  0  0  0  0
   -7.2236    0.0742    1.5178 C   0  0  0  0  0  0  0  0  0  0  0  0
   -5.9642    0.3513    1.0914 O   0  0  0  0  0  0  0  0  0  0  0  0
   -1.8504    2.1449   -0.1572 C   0  0  0  0  0  0  0  0  0  0  0  0
   -0.5910    2.6012   -0.5582 C   0  0  0  0  0  0  0  0  0  0  0  0
    3.6946    1.6605   -1.9991 H   0  0  0  0  0  0  0  0  0  0  0  0
    2.3282    0.4086    0.4806 H   0  0  0  0  0  0  0  0  0  0  0  0
    3.3101   -1.9274    0.6562 H   0  0  0  0  0  0  0  0  0  0  0  0
    5.3569   -3.2234    1.0746 H   0  0  0  0  0  0  0  0  0  0  0  0
    7.7476    0.1167   -0.2276 H   0  0  0  0  0  0  0  0  0  0  0  0
    5.7115    1.4248   -0.6359 H   0  0  0  0  0  0  0  0  0  0  0  0
    0.7131   -0.3628   -1.6215 H   0  0  0  0  0  0  0  0  0  0  0  0
   -1.4657   -1.1584   -0.9045 H   0  0  0  0  0  0  0  0  0  0  0  0
   -4.0782    1.1507    0.5139 H   0  0  0  0  0  0  0  0  0  0  0  0
   -6.1369   -2.9031    0.6551 H   0  0  0  0  0  0  0  0  0  0  0  0
   -8.4094   -1.7653    1.6766 H   0  0  0  0  0  0  0  0  0  0  0  0
   -7.7993    0.9225    1.8622 H   0  0  0  0  0  0  0  0  0  0  0  0
   -2.5632    2.8676    0.2330 H   0  0  0  0  0  0  0  0  0  0  0  0
   -0.3499    3.6598   -0.4806 H   0  0  0  0  0  0  0  0  0  0  0  0
  1  2  2  0
  2  3  1  0
  3  4  2  3
  4  5  1  0
  5  6  2  0
  6  7  1  0
  7  8  2  0
  8  9  1  0
  8 10  1  0
 10 11  2  0
  2 12  1  0
 12 13  2  0
 13 14  1  0
 14 15  2  0
 15 16  1  0
 16 17  1  0
 17 18  2  0
 17 19  1  0
 19 20  2  0
 20 21  1  0
 21 22  2  0
 22 23  1  0
 15 24  1  0
 24 25  2  0
 11  5  1  0
 25 12  1  0
 23 19  1  0
  3 26  1  0
  4 27  1  0
  6 28  1  0
  7 29  1  0
 10 30  1  0
 11 31  1  0
 13 32  1  0
 14 33  1  0
 16 34  1  0
 20 35  1  0
 21 36  1  0
 22 37  1  0
 24 38  1  0
 25 39  1  0
M  END
$$$$
