
     RDKit          3D

 60 65  0  0  0  0  0  0  0  0999 V2000
    3.0705   -2.7449    4.2801 O   0  0  0  0  0  0  0  0  0  0  0  0
    3.0475   -2.3415    3.1228 C   0  0  0  0  0  0  0  0  0  0  0  0
    1.8657   -1.9472    2.5061 N   0  0  0  0  0  0  0  0  0  0  0  0
    1.7804   -1.4794    1.1955 C   0  0  0  0  0  0  0  0  0  0  0  0
    0.3720   -1.1197    0.7408 C   0  0  0  0  0  0  0  0  0  0  0  0
   -0.4569   -2.3967    0.5449 C   0  0  0  0  0  0  0  0  0  0  0  0
   -1.8621   -2.0764    0.0413 C   0  0  0  0  0  0  0  0  0  0  0  0
   -1.7664   -1.2820   -1.2028 N   0  0  0  0  0  0  0  0  0  0  0  0
   -3.1537   -1.2477   -2.1962 S   0  0  0  0  0  6  0  0  0  0  0  0
   -2.8470   -0.4726   -3.3789 O   0  0  0  0  0  0  0  0  0  0  0  0
   -3.6642   -2.5985   -2.2990 O   0  0  0  0  0  0  0  0  0  0  0  0
   -4.3182   -0.3114   -1.2281 C   0  0  0  0  0  0  0  0  0  0  0  0
   -5.2054   -0.9791   -0.3755 C   0  0  0  0  0  0  0  0  0  0  0  0
   -6.1333   -0.2445    0.3641 C   0  0  0  0  0  0  0  0  0  0  0  0
   -6.1817    1.1432    0.2353 C   0  0  0  0  0  0  0  0  0  0  0  0
   -5.2884    1.8049   -0.6159 C   0  0  0  0  0  0  0  0  0  0  0  0
   -4.3694    1.0787   -1.3688 C   0  0  0  0  0  0  0  0  0  0  0  0
   -5.2660    3.1672   -0.7685 O   0  0  0  0  0  0  0  0  0  0  0  0
   -6.0163    3.8268    0.2585 C   0  0  0  0  0  0  0  0  0  0  0  0
   -7.3452    3.1273    0.4914 C   0  0  0  0  0  0  0  0  0  0  0  0
   -7.1338    1.7956    0.9759 O   0  0  0  0  0  0  0  0  0  0  0  0
   -1.0488    0.0012   -1.0207 C   0  0  0  0  0  0  0  0  0  0  0  0
    0.3722   -0.2884   -0.5488 C   0  0  0  0  0  0  0  0  0  0  0  0
    2.8042   -1.3727    0.3946 N   0  0  0  0  0  0  0  0  0  0  0  0
    3.9712   -1.7425    0.9759 C   0  0  0  0  0  0  0  0  0  0  0  0
    4.1813   -2.2116    2.2495 C   0  0  0  0  0  0  0  0  0  0  0  0
    5.5005   -2.4767    2.4515 N   0  0  0  0  0  0  0  0  0  0  0  0
    6.1423   -2.1783    1.3212 N   0  0  0  0  0  0  0  0  0  0  0  0
    5.2240   -1.7208    0.4339 N   0  0  0  0  0  0  0  0  0  0  0  0
    5.6115   -1.3227   -0.9029 C   0  0  0  0  0  0  0  0  0  0  0  0
    5.7664    0.1742   -1.0066 C   0  0  0  0  0  0  0  0  0  0  0  0
    6.9636    0.7980   -0.6187 C   0  0  0  0  0  0  0  0  0  0  0  0
    7.1002    2.1866   -0.6955 C   0  0  0  0  0  0  0  0  0  0  0  0
    6.0400    2.9660   -1.1541 C   0  0  0  0  0  0  0  0  0  0  0  0
    4.8514    2.3518   -1.5287 C   0  0  0  0  0  0  0  0  0  0  0  0
    3.8279    3.1014   -1.9583 F   0  0  0  0  0  0  0  0  0  0  0  0
    4.7043    0.9703   -1.4596 C   0  0  0  0  0  0  0  0  0  0  0  0
    1.0465   -2.0136    3.0918 H   0  0  0  0  0  0  0  0  0  0  0  0
   -0.0878   -0.5248    1.5419 H   0  0  0  0  0  0  0  0  0  0  0  0
    0.0490   -3.0571   -0.1722 H   0  0  0  0  0  0  0  0  0  0  0  0
   -0.5298   -2.9564    1.4848 H   0  0  0  0  0  0  0  0  0  0  0  0
   -2.4161   -1.5172    0.8040 H   0  0  0  0  0  0  0  0  0  0  0  0
   -2.3851   -3.0207   -0.1400 H   0  0  0  0  0  0  0  0  0  0  0  0
   -5.1888   -2.0640   -0.2918 H   0  0  0  0  0  0  0  0  0  0  0  0
   -6.8325   -0.7526    1.0237 H   0  0  0  0  0  0  0  0  0  0  0  0
   -3.7012    1.5973   -2.0519 H   0  0  0  0  0  0  0  0  0  0  0  0
   -5.4088    3.8480    1.1717 H   0  0  0  0  0  0  0  0  0  0  0  0
   -6.1836    4.8590   -0.0641 H   0  0  0  0  0  0  0  0  0  0  0  0
   -7.9393    3.0744   -0.4292 H   0  0  0  0  0  0  0  0  0  0  0  0
   -7.9297    3.6652    1.2442 H   0  0  0  0  0  0  0  0  0  0  0  0
   -1.5704    0.6255   -0.2870 H   0  0  0  0  0  0  0  0  0  0  0  0
   -0.9928    0.5519   -1.9647 H   0  0  0  0  0  0  0  0  0  0  0  0
    0.9061    0.6555   -0.3876 H   0  0  0  0  0  0  0  0  0  0  0  0
    0.9088   -0.8234   -1.3431 H   0  0  0  0  0  0  0  0  0  0  0  0
    4.8503   -1.6922   -1.5998 H   0  0  0  0  0  0  0  0  0  0  0  0
    6.5502   -1.8293   -1.1563 H   0  0  0  0  0  0  0  0  0  0  0  0
    7.7969    0.2041   -0.2443 H   0  0  0  0  0  0  0  0  0  0  0  0
    8.0317    2.6584   -0.3920 H   0  0  0  0  0  0  0  0  0  0  0  0
    6.1308    4.0455   -1.2160 H   0  0  0  0  0  0  0  0  0  0  0  0
    3.7552    0.5287   -1.7518 H   0  0  0  0  0  0  0  0  0  0  0  0
  1  2  2  0
  2  3  1  0
  3  4  1  0
  4  5  1  0
  5  6  1  0
  6  7  1  0
  7  8  1  0
  8  9  1  0
  9 10  2  0
  9 11  2  0
  9 12  1  0
 12 13  2  0
 13 14  1  0
 14 15  2  0
 15 16  1  0
 16 17  2  0
 16 18  1  0
 18 19  1  0
 19 20  1  0
 20 21  1  0
  8 22  1  0
 22 23  1  0
  4 24  2  0
 24 25  1  0
 25 26  2  0
 26 27  1  0
 27 28  2  0
 28 29  1  0
 29 30  1  0
 30 31  1  0
 31 32  2  0
 32 33  1  0
 33 34  2  0
 34 35  1  0
 35 36  1  0
 35 37  2  0
 26  2  1  0
 37 31  1  0
 23  5  1  0
 29 25  1  0
 17 12  1  0
 21 15  1  0
  3 38  1  0
  5 39  1  0
  6 40  1  0
  6 41  1  0
  7 42  1  0
  7 43  1  0
 13 44  1  0
 14 45  1  0
 17 46  1  0
 19 47  1  0
 19 48  1  0
 20 49  1  0
 20 50  1  0
 22 51  1  0
 22 52  1  0
 23 53  1  0
 23 54  1  0
 30 55  1  0
 30 56  1  0
 32 57  1  0
 33 58  1  0
 34 59  1  0
 37 60  1  0
M  END
$$$$
