
     RDKit          3D

 36 37  0  0  0  0  0  0  0  0999 V2000
    6.6020   -0.8511    0.3177 C   0  0  0  0  0  0  0  0  0  0  0  0
    5.1837   -0.8890    0.4805 O   0  0  0  0  0  0  0  0  0  0  0  0
    4.5815    0.3191    0.3420 C   0  0  0  0  0  0  0  0  0  0  0  0
    5.1474    1.3740    0.1009 O   0  0  0  0  0  0  0  0  0  0  0  0
    3.1093    0.1977    0.5250 C   0  0  0  0  0  0  0  0  0  0  0  0
    2.3312    1.3564    0.4169 C   0  0  0  0  0  0  0  0  0  0  0  0
    0.9433    1.2958    0.5796 C   0  0  0  0  0  0  0  0  0  0  0  0
    0.3028    0.0757    0.8456 C   0  0  0  0  0  0  0  0  0  0  0  0
   -1.2032   -0.0128    1.0514 C   0  0  0  0  0  0  0  0  0  0  0  0
   -1.7259   -1.1738    0.3884 O   0  0  0  0  0  0  0  0  0  0  0  0
   -2.1607   -0.8553   -0.9311 C   0  0  0  0  0  0  0  0  0  0  0  0
   -3.3761    0.0846   -0.8528 C   0  0  0  0  0  0  0  0  0  0  0  0
   -4.6812   -0.7206   -0.7587 C   0  0  0  0  0  0  0  0  0  0  0  0
   -3.4184    0.9532   -2.1196 C   0  0  0  0  0  0  0  0  0  0  0  0
   -3.2370    0.9618    0.4029 C   0  0  0  0  0  0  0  0  0  0  0  0
   -1.8565    1.1997    0.6569 O   0  0  0  0  0  0  0  0  0  0  0  0
    1.0947   -1.0798    0.9635 C   0  0  0  0  0  0  0  0  0  0  0  0
    2.4830   -1.0230    0.8012 C   0  0  0  0  0  0  0  0  0  0  0  0
    6.8636   -0.5087   -0.6885 H   0  0  0  0  0  0  0  0  0  0  0  0
    7.0584   -0.2092    1.0777 H   0  0  0  0  0  0  0  0  0  0  0  0
    6.9849   -1.8671    0.4477 H   0  0  0  0  0  0  0  0  0  0  0  0
    2.8010    2.3157    0.2064 H   0  0  0  0  0  0  0  0  0  0  0  0
    0.3645    2.2141    0.4945 H   0  0  0  0  0  0  0  0  0  0  0  0
   -1.3769   -0.1482    2.1259 H   0  0  0  0  0  0  0  0  0  0  0  0
   -2.4158   -1.7915   -1.4397 H   0  0  0  0  0  0  0  0  0  0  0  0
   -1.3257   -0.4121   -1.4887 H   0  0  0  0  0  0  0  0  0  0  0  0
   -4.6736   -1.3884    0.1101 H   0  0  0  0  0  0  0  0  0  0  0  0
   -5.5484   -0.0574   -0.6640 H   0  0  0  0  0  0  0  0  0  0  0  0
   -4.8301   -1.3395   -1.6507 H   0  0  0  0  0  0  0  0  0  0  0  0
   -4.2881    1.6199   -2.1141 H   0  0  0  0  0  0  0  0  0  0  0  0
   -2.5223    1.5786   -2.2020 H   0  0  0  0  0  0  0  0  0  0  0  0
   -3.4785    0.3334   -3.0214 H   0  0  0  0  0  0  0  0  0  0  0  0
   -3.7315    1.9300    0.2680 H   0  0  0  0  0  0  0  0  0  0  0  0
   -3.6861    0.4970    1.2903 H   0  0  0  0  0  0  0  0  0  0  0  0
    0.6253   -2.0391    1.1782 H   0  0  0  0  0  0  0  0  0  0  0  0
    3.0592   -1.9402    0.8938 H   0  0  0  0  0  0  0  0  0  0  0  0
  1  2  1  0
  2  3  1  0
  3  4  2  0
  3  5  1  0
  5  6  2  0
  6  7  1  0
  7  8  2  0
  8  9  1  0
  9 10  1  0
 10 11  1  0
 11 12  1  0
 12 13  1  0
 12 14  1  0
 12 15  1  0
 15 16  1  0
  8 17  1  0
 17 18  2  0
 18  5  1  0
 16  9  1  0
  1 19  1  0
  1 20  1  0
  1 21  1  0
  6 22  1  0
  7 23  1  0
  9 24  1  0
 11 25  1  0
 11 26  1  0
 13 27  1  0
 13 28  1  0
 13 29  1  0
 14 30  1  0
 14 31  1  0
 14 32  1  0
 15 33  1  0
 15 34  1  0
 17 35  1  0
 18 36  1  0
M  END
$$$$
