
     RDKit          3D

 37 38  0  0  0  0  0  0  0  0999 V2000
   -5.0434    2.5794   -0.9806 C   0  0  0  0  0  0  0  0  0  0  0  0
   -4.5687    1.5960   -0.0722 O   0  0  0  0  0  0  0  0  0  0  0  0
   -3.3818    0.9733   -0.3689 C   0  0  0  0  0  0  0  0  0  0  0  0
   -2.6100    1.2441   -1.5034 C   0  0  0  0  0  0  0  0  0  0  0  0
   -1.4117    0.5601   -1.7190 C   0  0  0  0  0  0  0  0  0  0  0  0
   -0.9690   -0.3917   -0.7968 C   0  0  0  0  0  0  0  0  0  0  0  0
    0.3184   -1.0880   -1.0651 C   0  0  0  0  0  0  0  0  0  0  0  0
    0.6969   -1.2558   -2.2185 O   0  0  0  0  0  0  0  0  0  0  0  0
    1.0424   -1.4760    0.0426 N   0  0  0  0  0  0  0  0  0  0  0  0
    2.3658   -2.0424   -0.0891 C   0  0  0  0  0  0  0  0  0  0  0  0
    3.4229   -0.9780    0.0645 C   0  0  0  0  0  0  0  0  0  0  0  0
    3.7925   -0.1858   -1.0312 C   0  0  0  0  0  0  0  0  0  0  0  0
    4.7530    0.8186   -0.8902 C   0  0  0  0  0  0  0  0  0  0  0  0
    5.3522    1.0486    0.3505 C   0  0  0  0  0  0  0  0  0  0  0  0
    6.5306    2.3076    0.4550 Cl  0  0  0  0  0  0  0  0  0  0  0  0
    4.9849    0.2703    1.4532 C   0  0  0  0  0  0  0  0  0  0  0  0
    5.6749    0.4996    3.0211 Cl  0  0  0  0  0  0  0  0  0  0  0  0
    4.0222   -0.7361    1.3094 C   0  0  0  0  0  0  0  0  0  0  0  0
   -1.7446   -0.6842    0.3325 C   0  0  0  0  0  0  0  0  0  0  0  0
   -2.9493   -0.0051    0.5520 C   0  0  0  0  0  0  0  0  0  0  0  0
   -3.7716   -0.2181    1.6314 O   0  0  0  0  0  0  0  0  0  0  0  0
   -3.4495   -1.2830    2.5138 C   0  0  0  0  0  0  0  0  0  0  0  0
   -5.9898    2.9660   -0.5904 H   0  0  0  0  0  0  0  0  0  0  0  0
   -5.2434    2.1440   -1.9652 H   0  0  0  0  0  0  0  0  0  0  0  0
   -4.3458    3.4202   -1.0528 H   0  0  0  0  0  0  0  0  0  0  0  0
   -2.9124    1.9798   -2.2413 H   0  0  0  0  0  0  0  0  0  0  0  0
   -0.8213    0.7760   -2.6078 H   0  0  0  0  0  0  0  0  0  0  0  0
    0.7937   -1.0937    0.9440 H   0  0  0  0  0  0  0  0  0  0  0  0
    2.4756   -2.5530   -1.0525 H   0  0  0  0  0  0  0  0  0  0  0  0
    2.4738   -2.8015    0.6935 H   0  0  0  0  0  0  0  0  0  0  0  0
    3.3250   -0.3466   -2.0031 H   0  0  0  0  0  0  0  0  0  0  0  0
    5.0254    1.4204   -1.7541 H   0  0  0  0  0  0  0  0  0  0  0  0
    3.7399   -1.3348    2.1730 H   0  0  0  0  0  0  0  0  0  0  0  0
   -1.4113   -1.4563    1.0153 H   0  0  0  0  0  0  0  0  0  0  0  0
   -2.5041   -1.0917    3.0317 H   0  0  0  0  0  0  0  0  0  0  0  0
   -3.4252   -2.2421    1.9861 H   0  0  0  0  0  0  0  0  0  0  0  0
   -4.2373   -1.3402    3.2712 H   0  0  0  0  0  0  0  0  0  0  0  0
  1  2  1  0
  2  3  1  0
  3  4  2  0
  4  5  1  0
  5  6  2  0
  6  7  1  0
  7  8  2  0
  7  9  1  0
  9 10  1  0
 10 11  1  0
 11 12  2  0
 12 13  1  0
 13 14  2  0
 14 15  1  0
 14 16  1  0
 16 17  1  0
 16 18  2  0
  6 19  1  0
 19 20  2  0
 20 21  1  0
 21 22  1  0
 20  3  1  0
 18 11  1  0
  1 23  1  0
  1 24  1  0
  1 25  1  0
  4 26  1  0
  5 27  1  0
  9 28  1  0
 10 29  1  0
 10 30  1  0
 12 31  1  0
 13 32  1  0
 18 33  1  0
 19 34  1  0
 22 35  1  0
 22 36  1  0
 22 37  1  0
M  END
$$$$
