
     RDKit          3D

 35 36  0  0  0  0  0  0  0  0999 V2000
    3.5559    1.1867   -1.5149 C   0  0  0  0  0  0  0  0  0  0  0  0
    2.2670    1.3116   -0.9112 O   0  0  0  0  0  0  0  0  0  0  0  0
    2.3293    0.9985    0.4210 C   0  0  0  0  0  0  0  0  0  0  0  0
    2.7914    1.9654    1.3183 C   0  0  0  0  0  0  0  0  0  0  0  0
    2.7943    1.7016    2.6889 C   0  0  0  0  0  0  0  0  0  0  0  0
    2.3199    0.4801    3.1676 C   0  0  0  0  0  0  0  0  0  0  0  0
    1.8378   -0.4801    2.2758 C   0  0  0  0  0  0  0  0  0  0  0  0
    1.8359   -0.2206    0.8973 C   0  0  0  0  0  0  0  0  0  0  0  0
    1.3407   -1.2482   -0.0423 C   0  0  0  0  0  0  0  0  0  0  0  0
    1.9038   -1.5844   -1.0699 O   0  0  0  0  0  0  0  0  0  0  0  0
    0.1611   -1.7266    0.4259 O   0  0  0  0  0  0  0  0  0  0  0  0
   -0.5051   -2.6767   -0.4234 C   0  0  0  0  0  0  0  0  0  0  0  0
   -1.2258   -1.9935   -1.5890 C   0  0  0  0  0  0  0  0  0  0  0  0
   -2.3875   -1.1422   -1.1314 C   0  0  0  0  0  0  0  0  0  0  0  0
   -3.6586   -1.7055   -0.9554 C   0  0  0  0  0  0  0  0  0  0  0  0
   -4.7253   -0.9190   -0.5171 C   0  0  0  0  0  0  0  0  0  0  0  0
   -4.5309    0.4345   -0.2475 C   0  0  0  0  0  0  0  0  0  0  0  0
   -3.2698    1.0033   -0.4152 C   0  0  0  0  0  0  0  0  0  0  0  0
   -2.2022    0.2193   -0.8541 C   0  0  0  0  0  0  0  0  0  0  0  0
    4.0257    0.2250   -1.2798 H   0  0  0  0  0  0  0  0  0  0  0  0
    4.2076    2.0114   -1.2079 H   0  0  0  0  0  0  0  0  0  0  0  0
    3.4244    1.2444   -2.5995 H   0  0  0  0  0  0  0  0  0  0  0  0
    3.1347    2.9294    0.9527 H   0  0  0  0  0  0  0  0  0  0  0  0
    3.1561    2.4545    3.3852 H   0  0  0  0  0  0  0  0  0  0  0  0
    2.3180    0.2785    4.2363 H   0  0  0  0  0  0  0  0  0  0  0  0
    1.4651   -1.4276    2.6577 H   0  0  0  0  0  0  0  0  0  0  0  0
    0.2177   -3.4129   -0.7956 H   0  0  0  0  0  0  0  0  0  0  0  0
   -1.2166   -3.2233    0.2056 H   0  0  0  0  0  0  0  0  0  0  0  0
   -1.5981   -2.7575   -2.2826 H   0  0  0  0  0  0  0  0  0  0  0  0
   -0.5330   -1.3684   -2.1645 H   0  0  0  0  0  0  0  0  0  0  0  0
   -3.8263   -2.7602   -1.1599 H   0  0  0  0  0  0  0  0  0  0  0  0
   -5.7085   -1.3628   -0.3853 H   0  0  0  0  0  0  0  0  0  0  0  0
   -5.3615    1.0461    0.0941 H   0  0  0  0  0  0  0  0  0  0  0  0
   -3.1152    2.0578   -0.2032 H   0  0  0  0  0  0  0  0  0  0  0  0
   -1.2220    0.6763   -0.9765 H   0  0  0  0  0  0  0  0  0  0  0  0
  1  2  1  0
  2  3  1  0
  3  4  2  0
  4  5  1  0
  5  6  2  0
  6  7  1  0
  7  8  2  0
  8  9  1  0
  9 10  2  0
  9 11  1  0
 11 12  1  0
 12 13  1  0
 13 14  1  0
 14 15  2  0
 15 16  1  0
 16 17  2  0
 17 18  1  0
 18 19  2  0
  8  3  1  0
 19 14  1  0
  1 20  1  0
  1 21  1  0
  1 22  1  0
  4 23  1  0
  5 24  1  0
  6 25  1  0
  7 26  1  0
 12 27  1  0
 12 28  1  0
 13 29  1  0
 13 30  1  0
 15 31  1  0
 16 32  1  0
 17 33  1  0
 18 34  1  0
 19 35  1  0
M  END
$$$$
