
     RDKit          3D

 39 40  0  0  0  0  0  0  0  0999 V2000
   -5.5964    0.6353    1.6287 C   0  0  0  0  0  0  0  0  0  0  0  0
   -4.8926    0.4417    0.2980 C   0  0  0  0  0  0  0  0  0  0  0  0
   -3.7337   -0.3704    0.5272 O   0  0  0  0  0  0  0  0  0  0  0  0
   -3.1551   -0.7161   -0.6664 C   0  0  0  0  0  0  0  0  0  0  0  0
   -3.3258   -2.0254   -1.1142 C   0  0  0  0  0  0  0  0  0  0  0  0
   -2.7494   -2.4264   -2.3203 C   0  0  0  0  0  0  0  0  0  0  0  0
   -1.9918   -1.5230   -3.0680 C   0  0  0  0  0  0  0  0  0  0  0  0
   -1.8022   -0.2190   -2.6081 C   0  0  0  0  0  0  0  0  0  0  0  0
   -2.3625    0.1766   -1.3947 C   0  0  0  0  0  0  0  0  0  0  0  0
   -2.1481    1.4649   -0.9822 O   0  0  0  0  0  0  0  0  0  0  0  0
   -1.2026    1.5129    0.0807 C   0  0  0  0  0  0  0  0  0  0  0  0
    0.2716    1.4993   -0.3574 C   0  0  0  0  0  0  0  0  0  0  0  0
    0.6181    1.7886   -1.4981 O   0  0  0  0  0  0  0  0  0  0  0  0
    1.1120    1.1546    0.6829 N   0  0  0  0  0  0  0  0  0  0  0  0
    2.4678    1.0781    0.5255 C   0  0  0  0  0  0  0  0  0  0  0  0
    3.2185    1.2733   -0.5289 N   0  0  0  0  0  0  0  0  0  0  0  0
    4.5593    1.0869   -0.2474 N   0  0  0  0  0  0  0  0  0  0  0  0
    4.7601    0.7616    1.0139 C   0  0  0  0  0  0  0  0  0  0  0  0
    6.0983    0.5032    1.6216 C   0  0  0  0  0  0  0  0  0  0  0  0
    6.1899   -0.8679    2.0256 O   0  0  0  0  0  0  0  0  0  0  0  0
    6.4984   -1.7368    0.9413 C   0  0  0  0  0  0  0  0  0  0  0  0
    3.3163    0.6645    1.9479 S   0  0  0  0  0  0  0  0  0  0  0  0
   -6.4952    1.2465    1.5078 H   0  0  0  0  0  0  0  0  0  0  0  0
   -5.8804   -0.3305    2.0585 H   0  0  0  0  0  0  0  0  0  0  0  0
   -4.9313    1.1218    2.3499 H   0  0  0  0  0  0  0  0  0  0  0  0
   -5.5761   -0.0512   -0.4042 H   0  0  0  0  0  0  0  0  0  0  0  0
   -4.6062    1.4211   -0.1008 H   0  0  0  0  0  0  0  0  0  0  0  0
   -3.9100   -2.7295   -0.5293 H   0  0  0  0  0  0  0  0  0  0  0  0
   -2.8887   -3.4427   -2.6786 H   0  0  0  0  0  0  0  0  0  0  0  0
   -1.5428   -1.8340   -4.0078 H   0  0  0  0  0  0  0  0  0  0  0  0
   -1.2031    0.4825   -3.1851 H   0  0  0  0  0  0  0  0  0  0  0  0
   -1.3762    0.7233    0.8225 H   0  0  0  0  0  0  0  0  0  0  0  0
   -1.3617    2.4665    0.5983 H   0  0  0  0  0  0  0  0  0  0  0  0
    0.7489    0.9383    1.5990 H   0  0  0  0  0  0  0  0  0  0  0  0
    6.2233    1.1217    2.5173 H   0  0  0  0  0  0  0  0  0  0  0  0
    6.9104    0.7582    0.9323 H   0  0  0  0  0  0  0  0  0  0  0  0
    7.4493   -1.4534    0.4796 H   0  0  0  0  0  0  0  0  0  0  0  0
    5.6974   -1.7304    0.1960 H   0  0  0  0  0  0  0  0  0  0  0  0
    6.5923   -2.7515    1.3370 H   0  0  0  0  0  0  0  0  0  0  0  0
  1  2  1  0
  2  3  1  0
  3  4  1  0
  4  5  2  0
  5  6  1  0
  6  7  2  0
  7  8  1  0
  8  9  2  0
  9 10  1  0
 10 11  1  0
 11 12  1  0
 12 13  2  0
 12 14  1  0
 14 15  1  0
 15 16  2  0
 16 17  1  0
 17 18  2  0
 18 19  1  0
 19 20  1  0
 20 21  1  0
 18 22  1  0
  9  4  1  0
 22 15  1  0
  1 23  1  0
  1 24  1  0
  1 25  1  0
  2 26  1  0
  2 27  1  0
  5 28  1  0
  6 29  1  0
  7 30  1  0
  8 31  1  0
 11 32  1  0
 11 33  1  0
 14 34  1  0
 19 35  1  0
 19 36  1  0
 21 37  1  0
 21 38  1  0
 21 39  1  0
M  END
$$$$
