
     RDKit          3D

 55 58  0  0  0  0  0  0  0  0999 V2000
    8.9195    0.9830    0.3165 C   0  0  0  0  0  0  0  0  0  0  0  0
    8.0227   -0.0675   -0.0135 O   0  0  0  0  0  0  0  0  0  0  0  0
    6.6774    0.1942    0.0633 C   0  0  0  0  0  0  0  0  0  0  0  0
    6.1329    1.4606    0.3038 C   0  0  0  0  0  0  0  0  0  0  0  0
    4.7472    1.6380    0.3584 C   0  0  0  0  0  0  0  0  0  0  0  0
    3.8944    0.5485    0.1629 C   0  0  0  0  0  0  0  0  0  0  0  0
    2.4118    0.6929    0.2216 C   0  0  0  0  0  0  0  0  0  0  0  0
    1.8317    1.9527   -0.3461 C   0  0  0  0  0  0  0  0  0  0  0  0
    0.4909    2.0761   -0.2850 C   0  0  0  0  0  0  0  0  0  0  0  0
   -0.2554    3.2426   -0.8081 C   0  0  0  0  0  0  0  0  0  0  0  0
   -0.9584    3.8935    0.1522 F   0  0  0  0  0  0  0  0  0  0  0  0
    0.5890    4.1716   -1.3414 F   0  0  0  0  0  0  0  0  0  0  0  0
   -1.1181    2.9149   -1.8012 F   0  0  0  0  0  0  0  0  0  0  0  0
   -0.2678    1.0606    0.2850 N   0  0  0  0  0  0  0  0  0  0  0  0
   -1.6107    1.0047    0.4443 N   0  0  0  0  0  0  0  0  0  0  0  0
   -1.8653   -0.1659    1.0545 C   0  0  0  0  0  0  0  0  0  0  0  0
   -3.2081   -0.6700    1.4390 C   0  0  0  0  0  0  0  0  0  0  0  0
   -3.2934   -1.7972    1.9361 O   0  0  0  0  0  0  0  0  0  0  0  0
   -4.3602    0.1088    1.2412 N   0  0  0  0  0  0  0  0  0  0  0  0
   -4.3741    1.4265    0.6203 C   0  0  0  0  0  0  0  0  0  0  0  0
   -5.6563   -0.5352    1.4362 C   0  0  0  0  0  0  0  0  0  0  0  0
   -6.2599   -1.0291    0.1405 C   0  0  0  0  0  0  0  0  0  0  0  0
   -5.7706   -2.1916   -0.4726 C   0  0  0  0  0  0  0  0  0  0  0  0
   -6.3202   -2.6478   -1.6721 C   0  0  0  0  0  0  0  0  0  0  0  0
   -7.3636   -1.9460   -2.2725 C   0  0  0  0  0  0  0  0  0  0  0  0
   -7.8578   -0.7881   -1.6748 C   0  0  0  0  0  0  0  0  0  0  0  0
   -7.3083   -0.3296   -0.4753 C   0  0  0  0  0  0  0  0  0  0  0  0
   -0.6566   -0.8797    1.2687 C   0  0  0  0  0  0  0  0  0  0  0  0
    0.3506   -0.0884    0.7780 C   0  0  0  0  0  0  0  0  0  0  0  0
    1.7016   -0.2729    0.7324 N   0  0  0  0  0  0  0  0  0  0  0  0
    4.4332   -0.7255   -0.0637 C   0  0  0  0  0  0  0  0  0  0  0  0
    5.8191   -0.9095   -0.1208 C   0  0  0  0  0  0  0  0  0  0  0  0
    6.4318   -2.1172   -0.3490 O   0  0  0  0  0  0  0  0  0  0  0  0
    5.6039   -3.2641   -0.4772 C   0  0  0  0  0  0  0  0  0  0  0  0
    8.8548    1.7975   -0.4117 H   0  0  0  0  0  0  0  0  0  0  0  0
    9.9356    0.5811    0.2753 H   0  0  0  0  0  0  0  0  0  0  0  0
    8.7473    1.3473    1.3341 H   0  0  0  0  0  0  0  0  0  0  0  0
    6.7631    2.3307    0.4568 H   0  0  0  0  0  0  0  0  0  0  0  0
    4.3597    2.6286    0.5804 H   0  0  0  0  0  0  0  0  0  0  0  0
    2.4697    2.6965   -0.8063 H   0  0  0  0  0  0  0  0  0  0  0  0
   -5.3635    1.8871    0.7251 H   0  0  0  0  0  0  0  0  0  0  0  0
   -4.1342    1.3284   -0.4441 H   0  0  0  0  0  0  0  0  0  0  0  0
   -3.6613    2.0853    1.1237 H   0  0  0  0  0  0  0  0  0  0  0  0
   -6.3238    0.1856    1.9255 H   0  0  0  0  0  0  0  0  0  0  0  0
   -5.5764   -1.3790    2.1323 H   0  0  0  0  0  0  0  0  0  0  0  0
   -4.9572   -2.7514   -0.0136 H   0  0  0  0  0  0  0  0  0  0  0  0
   -5.9326   -3.5511   -2.1361 H   0  0  0  0  0  0  0  0  0  0  0  0
   -7.7918   -2.3037   -3.2057 H   0  0  0  0  0  0  0  0  0  0  0  0
   -8.6721   -0.2413   -2.1432 H   0  0  0  0  0  0  0  0  0  0  0  0
   -7.7059    0.5763   -0.0238 H   0  0  0  0  0  0  0  0  0  0  0  0
   -0.5443   -1.8514    1.7302 H   0  0  0  0  0  0  0  0  0  0  0  0
    3.7494   -1.5584   -0.1969 H   0  0  0  0  0  0  0  0  0  0  0  0
    5.0228   -3.4370    0.4341 H   0  0  0  0  0  0  0  0  0  0  0  0
    4.9528   -3.1840   -1.3537 H   0  0  0  0  0  0  0  0  0  0  0  0
    6.2549   -4.1309   -0.6256 H   0  0  0  0  0  0  0  0  0  0  0  0
  1  2  1  0
  2  3  1  0
  3  4  2  0
  4  5  1  0
  5  6  2  0
  6  7  1  0
  7  8  1  0
  8  9  2  0
  9 10  1  0
 10 11  1  0
 10 12  1  0
 10 13  1  0
  9 14  1  0
 14 15  1  0
 15 16  2  0
 16 17  1  0
 17 18  2  0
 17 19  1  0
 19 20  1  0
 19 21  1  0
 21 22  1  0
 22 23  2  0
 23 24  1  0
 24 25  2  0
 25 26  1  0
 26 27  2  0
 16 28  1  0
 28 29  2  0
 29 30  1  0
  6 31  1  0
 31 32  2  0
 32 33  1  0
 33 34  1  0
 32  3  1  0
 30  7  2  0
 29 14  1  0
 27 22  1  0
  1 35  1  0
  1 36  1  0
  1 37  1  0
  4 38  1  0
  5 39  1  0
  8 40  1  0
 20 41  1  0
 20 42  1  0
 20 43  1  0
 21 44  1  0
 21 45  1  0
 23 46  1  0
 24 47  1  0
 25 48  1  0
 26 49  1  0
 27 50  1  0
 28 51  1  0
 31 52  1  0
 34 53  1  0
 34 54  1  0
 34 55  1  0
M  END
$$$$
