
     RDKit          3D

 54 59  0  0  0  0  0  0  0  0999 V2000
    7.0779   -2.3331    1.3546 C   0  0  0  0  0  0  0  0  0  0  0  0
    6.0158   -1.4962    0.7058 C   0  0  0  0  0  0  0  0  0  0  0  0
    6.2056   -0.1228    0.5251 C   0  0  0  0  0  0  0  0  0  0  0  0
    5.2296    0.6509   -0.1086 C   0  0  0  0  0  0  0  0  0  0  0  0
    4.0421    0.0667   -0.5734 C   0  0  0  0  0  0  0  0  0  0  0  0
    2.9955    0.9103   -1.2711 C   0  0  0  0  0  0  0  0  0  0  0  0
    1.6704    0.8242   -0.6555 N   0  0  0  0  0  0  0  0  0  0  0  0
    1.3225    1.5534    0.4877 C   0  0  0  0  0  0  0  0  0  0  0  0
    2.3568    2.4573    1.1198 C   0  0  0  0  0  0  0  0  0  0  0  0
    0.1545    1.5123    1.0654 N   0  0  0  0  0  0  0  0  0  0  0  0
   -0.7380    0.6970    0.4682 C   0  0  0  0  0  0  0  0  0  0  0  0
   -0.5349   -0.0771   -0.6503 C   0  0  0  0  0  0  0  0  0  0  0  0
    0.7513   -0.0351   -1.2921 C   0  0  0  0  0  0  0  0  0  0  0  0
    1.0121   -0.6904   -2.2967 O   0  0  0  0  0  0  0  0  0  0  0  0
   -1.7274   -0.7785   -0.9080 C   0  0  0  0  0  0  0  0  0  0  0  0
   -2.0582   -1.6715   -1.8725 N   0  0  0  0  0  0  0  0  0  0  0  0
   -3.3117   -2.1440   -1.7924 C   0  0  0  0  0  0  0  0  0  0  0  0
   -3.7284   -3.0640   -2.7458 C   0  0  0  0  0  0  0  0  0  0  0  0
   -5.0159   -3.6019   -2.7300 C   0  0  0  0  0  0  0  0  0  0  0  0
   -5.9070   -3.2128   -1.7401 C   0  0  0  0  0  0  0  0  0  0  0  0
   -5.5024   -2.2889   -0.7752 C   0  0  0  0  0  0  0  0  0  0  0  0
   -4.2244   -1.7445   -0.7781 C   0  0  0  0  0  0  0  0  0  0  0  0
   -3.9075   -0.8590    0.1832 N   0  0  0  0  0  0  0  0  0  0  0  0
   -2.6425   -0.4032    0.0732 C   0  0  0  0  0  0  0  0  0  0  0  0
   -2.0293    0.5124    0.8941 N   0  0  0  0  0  0  0  0  0  0  0  0
   -2.6503    1.1440    2.0460 C   0  0  0  0  0  0  0  0  0  0  0  0
   -3.3824    2.3739    1.6490 C   0  0  0  0  0  0  0  0  0  0  0  0
   -4.4843    2.6103    0.8505 C   0  0  0  0  0  0  0  0  0  0  0  0
   -4.7051    4.0078    0.8744 C   0  0  0  0  0  0  0  0  0  0  0  0
   -3.7325    4.5349    1.6903 C   0  0  0  0  0  0  0  0  0  0  0  0
   -2.9292    3.5517    2.1703 O   0  0  0  0  0  0  0  0  0  0  0  0
    3.8718   -1.3160   -0.4188 C   0  0  0  0  0  0  0  0  0  0  0  0
    4.8486   -2.0889    0.2144 C   0  0  0  0  0  0  0  0  0  0  0  0
    7.6320   -1.7523    2.0994 H   0  0  0  0  0  0  0  0  0  0  0  0
    7.7789   -2.7002    0.5988 H   0  0  0  0  0  0  0  0  0  0  0  0
    6.6365   -3.1900    1.8745 H   0  0  0  0  0  0  0  0  0  0  0  0
    7.1183    0.3545    0.8755 H   0  0  0  0  0  0  0  0  0  0  0  0
    5.4088    1.7166   -0.2343 H   0  0  0  0  0  0  0  0  0  0  0  0
    3.3048    1.9605   -1.2853 H   0  0  0  0  0  0  0  0  0  0  0  0
    2.9593    0.6040   -2.3235 H   0  0  0  0  0  0  0  0  0  0  0  0
    1.9075    3.0232    1.9425 H   0  0  0  0  0  0  0  0  0  0  0  0
    3.1734    1.8603    1.5303 H   0  0  0  0  0  0  0  0  0  0  0  0
    2.7427    3.1752    0.3930 H   0  0  0  0  0  0  0  0  0  0  0  0
   -3.0293   -3.3691   -3.5217 H   0  0  0  0  0  0  0  0  0  0  0  0
   -5.3149   -4.3205   -3.4889 H   0  0  0  0  0  0  0  0  0  0  0  0
   -6.9132   -3.6234   -1.7140 H   0  0  0  0  0  0  0  0  0  0  0  0
   -6.2023   -1.9859    0.0002 H   0  0  0  0  0  0  0  0  0  0  0  0
   -1.8682    1.3607    2.7816 H   0  0  0  0  0  0  0  0  0  0  0  0
   -3.3332    0.4196    2.5034 H   0  0  0  0  0  0  0  0  0  0  0  0
   -5.0513    1.8607    0.3144 H   0  0  0  0  0  0  0  0  0  0  0  0
   -5.4773    4.5629    0.3610 H   0  0  0  0  0  0  0  0  0  0  0  0
   -3.4885    5.5367    2.0151 H   0  0  0  0  0  0  0  0  0  0  0  0
    2.9816   -1.8121   -0.8013 H   0  0  0  0  0  0  0  0  0  0  0  0
    4.6914   -3.1607    0.3162 H   0  0  0  0  0  0  0  0  0  0  0  0
  1  2  1  0
  2  3  2  0
  3  4  1  0
  4  5  2  0
  5  6  1  0
  6  7  1  0
  7  8  1  0
  8  9  1  0
  8 10  2  0
 10 11  1  0
 11 12  2  0
 12 13  1  0
 13 14  2  0
 12 15  1  0
 15 16  2  0
 16 17  1  0
 17 18  2  0
 18 19  1  0
 19 20  2  0
 20 21  1  0
 21 22  2  0
 22 23  1  0
 23 24  2  0
 24 25  1  0
 25 26  1  0
 26 27  1  0
 27 28  2  0
 28 29  1  0
 29 30  2  0
 30 31  1  0
  5 32  1  0
 32 33  2  0
 33  2  1  0
 13  7  1  0
 24 15  1  0
 31 27  1  0
 25 11  1  0
 22 17  1  0
  1 34  1  0
  1 35  1  0
  1 36  1  0
  3 37  1  0
  4 38  1  0
  6 39  1  0
  6 40  1  0
  9 41  1  0
  9 42  1  0
  9 43  1  0
 18 44  1  0
 19 45  1  0
 20 46  1  0
 21 47  1  0
 26 48  1  0
 26 49  1  0
 28 50  1  0
 29 51  1  0
 30 52  1  0
 32 53  1  0
 33 54  1  0
M  END
$$$$
