
     RDKit          3D

 31 32  0  0  0  0  0  0  0  0999 V2000
   -4.2915    0.7791   -0.2050 C   0  0  0  0  0  0  0  0  0  0  0  0
   -2.9091    1.3732   -0.2643 C   0  0  0  0  0  0  0  0  0  0  0  0
   -2.7909    2.5745   -0.5140 O   0  0  0  0  0  0  0  0  0  0  0  0
   -1.7276    0.5215   -0.0292 C   0  0  0  0  0  0  0  0  0  0  0  0
   -1.6899   -0.7828    0.4583 C   0  0  0  0  0  0  0  0  0  0  0  0
   -2.7459   -1.7302    0.9066 C   0  0  0  0  0  0  0  0  0  0  0  0
   -0.3729   -1.1709    0.5087 N   0  0  0  0  0  0  0  0  0  0  0  0
    0.4532   -0.1681    0.0742 C   0  0  0  0  0  0  0  0  0  0  0  0
    1.9000   -0.3487    0.0178 C   0  0  0  0  0  0  0  0  0  0  0  0
    2.6331   -0.5625    1.1912 C   0  0  0  0  0  0  0  0  0  0  0  0
    4.0159   -0.7501    1.1345 C   0  0  0  0  0  0  0  0  0  0  0  0
    4.6735   -0.7271   -0.0944 C   0  0  0  0  0  0  0  0  0  0  0  0
    3.9506   -0.5138   -1.2676 C   0  0  0  0  0  0  0  0  0  0  0  0
    2.5682   -0.3248   -1.2116 C   0  0  0  0  0  0  0  0  0  0  0  0
   -0.3526    0.9092   -0.2617 C   0  0  0  0  0  0  0  0  0  0  0  0
    0.1060    2.2386   -0.7659 C   0  0  0  0  0  0  0  0  0  0  0  0
   -4.5374    0.4950    0.8201 H   0  0  0  0  0  0  0  0  0  0  0  0
   -5.0208    1.5260   -0.5341 H   0  0  0  0  0  0  0  0  0  0  0  0
   -4.3665   -0.0763   -0.8798 H   0  0  0  0  0  0  0  0  0  0  0  0
   -3.3340   -1.2957    1.7201 H   0  0  0  0  0  0  0  0  0  0  0  0
   -3.4129   -1.9873    0.0793 H   0  0  0  0  0  0  0  0  0  0  0  0
   -2.3141   -2.6658    1.2790 H   0  0  0  0  0  0  0  0  0  0  0  0
   -0.0438   -2.0761    0.8169 H   0  0  0  0  0  0  0  0  0  0  0  0
    2.1338   -0.5670    2.1572 H   0  0  0  0  0  0  0  0  0  0  0  0
    4.5800   -0.9080    2.0500 H   0  0  0  0  0  0  0  0  0  0  0  0
    5.7499   -0.8710   -0.1384 H   0  0  0  0  0  0  0  0  0  0  0  0
    4.4620   -0.4932   -2.2266 H   0  0  0  0  0  0  0  0  0  0  0  0
    2.0127   -0.1627   -2.1320 H   0  0  0  0  0  0  0  0  0  0  0  0
    1.1929    2.2840   -0.8789 H   0  0  0  0  0  0  0  0  0  0  0  0
   -0.1833    3.0300   -0.0669 H   0  0  0  0  0  0  0  0  0  0  0  0
   -0.3388    2.4509   -1.7434 H   0  0  0  0  0  0  0  0  0  0  0  0
  1  2  1  0
  2  3  2  0
  2  4  1  0
  4  5  2  0
  5  6  1  0
  5  7  1  0
  7  8  1  0
  8  9  1  0
  9 10  2  0
 10 11  1  0
 11 12  2  0
 12 13  1  0
 13 14  2  0
  8 15  2  0
 15 16  1  0
 15  4  1  0
 14  9  1  0
  1 17  1  0
  1 18  1  0
  1 19  1  0
  6 20  1  0
  6 21  1  0
  6 22  1  0
  7 23  1  0
 10 24  1  0
 11 25  1  0
 12 26  1  0
 13 27  1  0
 14 28  1  0
 16 29  1  0
 16 30  1  0
 16 31  1  0
M  END
$$$$
