
     RDKit          3D

 51 55  0  0  0  0  0  0  0  0999 V2000
   -4.0479    0.0875    1.3546 O   0  0  0  0  0  0  0  0  0  0  0  0
   -3.6088    0.7747    0.4250 C   0  0  0  0  0  0  0  0  0  0  0  0
   -4.3378    2.0736   -0.0473 C   0  0  0  0  0  0  0  0  0  0  0  0
   -5.3058    1.9388   -1.2557 C   0  0  0  0  0  0  0  0  0  0  0  0
   -6.4632    1.8153   -0.2498 C   0  0  0  0  0  0  0  0  0  0  0  0
   -5.5739    2.5471    0.7698 C   0  0  0  0  0  0  0  0  0  0  0  0
   -2.4441    0.4559   -0.2682 N   0  0  0  0  0  0  0  0  0  0  0  0
   -1.8509    1.2542   -1.3538 C   0  0  0  0  0  0  0  0  0  0  0  0
   -0.6134    0.5058   -1.8632 C   0  0  0  0  0  0  0  0  0  0  0  0
   -0.5417   -0.6539   -0.9244 C   0  0  0  0  0  0  0  0  0  0  0  0
    0.4263   -1.6468   -0.8968 C   0  0  0  0  0  0  0  0  0  0  0  0
    0.3019   -2.6533    0.0662 C   0  0  0  0  0  0  0  0  0  0  0  0
    1.5303   -3.9389    0.1571 S   0  0  0  0  0  6  0  0  0  0  0  0
    0.8800   -5.1283    0.6660 O   0  0  0  0  0  0  0  0  0  0  0  0
    2.2544   -3.9580   -1.0955 O   0  0  0  0  0  0  0  0  0  0  0  0
    2.5507   -3.3967    1.3917 N   0  0  0  0  0  0  0  0  0  0  0  0
    3.0988   -2.0855    1.3144 C   0  0  0  0  0  0  0  0  0  0  0  0
    2.6904   -1.1286    2.2473 C   0  0  0  0  0  0  0  0  0  0  0  0
    3.1831    0.1758    2.1709 C   0  0  0  0  0  0  0  0  0  0  0  0
    4.0854    0.5179    1.1664 C   0  0  0  0  0  0  0  0  0  0  0  0
    4.4747   -0.4352    0.2195 C   0  0  0  0  0  0  0  0  0  0  0  0
    3.9931   -1.7409    0.3011 C   0  0  0  0  0  0  0  0  0  0  0  0
    5.3331   -0.1582   -0.8138 O   0  0  0  0  0  0  0  0  0  0  0  0
    5.4981    1.2522   -0.9975 C   0  0  0  0  0  0  0  0  0  0  0  0
    5.7058    1.9477    0.3376 C   0  0  0  0  0  0  0  0  0  0  0  0
    4.5432    1.8103    1.1635 O   0  0  0  0  0  0  0  0  0  0  0  0
   -0.7889   -2.6812    0.9516 C   0  0  0  0  0  0  0  0  0  0  0  0
   -1.7564   -1.6717    0.9038 C   0  0  0  0  0  0  0  0  0  0  0  0
   -1.6181   -0.6594   -0.0336 C   0  0  0  0  0  0  0  0  0  0  0  0
   -3.6269    2.9019   -0.1653 H   0  0  0  0  0  0  0  0  0  0  0  0
   -5.1591    1.0690   -1.9018 H   0  0  0  0  0  0  0  0  0  0  0  0
   -5.3531    2.8383   -1.8804 H   0  0  0  0  0  0  0  0  0  0  0  0
   -7.3892    2.3258   -0.5257 H   0  0  0  0  0  0  0  0  0  0  0  0
   -6.6959    0.7815    0.0296 H   0  0  0  0  0  0  0  0  0  0  0  0
   -5.6491    2.1899    1.8002 H   0  0  0  0  0  0  0  0  0  0  0  0
   -5.7064    3.6357    0.7689 H   0  0  0  0  0  0  0  0  0  0  0  0
   -2.5875    1.4008   -2.1505 H   0  0  0  0  0  0  0  0  0  0  0  0
   -1.5764    2.2376   -0.9554 H   0  0  0  0  0  0  0  0  0  0  0  0
   -0.7571    0.1655   -2.8935 H   0  0  0  0  0  0  0  0  0  0  0  0
    0.2820    1.1319   -1.8032 H   0  0  0  0  0  0  0  0  0  0  0  0
    1.2574   -1.6351   -1.5967 H   0  0  0  0  0  0  0  0  0  0  0  0
    2.2486   -3.7345    2.3040 H   0  0  0  0  0  0  0  0  0  0  0  0
    1.9832   -1.3809    3.0327 H   0  0  0  0  0  0  0  0  0  0  0  0
    2.8704    0.9210    2.8974 H   0  0  0  0  0  0  0  0  0  0  0  0
    4.3168   -2.4778   -0.4292 H   0  0  0  0  0  0  0  0  0  0  0  0
    6.3691    1.4031   -1.6427 H   0  0  0  0  0  0  0  0  0  0  0  0
    4.6145    1.6407   -1.5189 H   0  0  0  0  0  0  0  0  0  0  0  0
    5.8789    3.0175    0.1844 H   0  0  0  0  0  0  0  0  0  0  0  0
    6.5679    1.5353    0.8765 H   0  0  0  0  0  0  0  0  0  0  0  0
   -0.8939   -3.4843    1.6781 H   0  0  0  0  0  0  0  0  0  0  0  0
   -2.5924   -1.7028    1.5948 H   0  0  0  0  0  0  0  0  0  0  0  0
  1  2  2  0
  2  3  1  0
  3  4  1  0
  4  5  1  0
  5  6  1  0
  2  7  1  0
  7  8  1  0
  8  9  1  0
  9 10  1  0
 10 11  2  0
 11 12  1  0
 12 13  1  0
 13 14  2  0
 13 15  2  0
 13 16  1  0
 16 17  1  0
 17 18  2  0
 18 19  1  0
 19 20  2  0
 20 21  1  0
 21 22  2  0
 21 23  1  0
 23 24  1  0
 24 25  1  0
 25 26  1  0
 12 27  2  0
 27 28  1  0
 28 29  2  0
  6  3  1  0
 29  7  1  0
 29 10  1  0
 22 17  1  0
 26 20  1  0
  3 30  1  0
  4 31  1  0
  4 32  1  0
  5 33  1  0
  5 34  1  0
  6 35  1  0
  6 36  1  0
  8 37  1  0
  8 38  1  0
  9 39  1  0
  9 40  1  0
 11 41  1  0
 16 42  1  0
 18 43  1  0
 19 44  1  0
 22 45  1  0
 24 46  1  0
 24 47  1  0
 25 48  1  0
 25 49  1  0
 27 50  1  0
 28 51  1  0
M  END
$$$$
