
     RDKit          3D

 50 53  0  0  0  0  0  0  0  0999 V2000
   -3.4051    2.8987    2.5127 C   0  0  0  0  0  0  0  0  0  0  0  0
   -2.4813    2.1893    1.6298 N   0  0  0  0  0  0  0  0  0  0  0  0
   -2.0035    0.9438    2.2665 C   0  0  0  0  0  0  0  0  0  0  0  0
   -1.0058    0.1849    1.3673 C   0  0  0  0  0  0  0  0  0  0  0  0
   -1.5699   -0.1175    0.0290 N   0  0  0  0  0  0  0  0  0  0  0  0
   -2.1616   -1.3931   -0.0664 C   0  0  0  0  0  0  0  0  0  0  0  0
   -3.5402   -1.6111    0.0404 C   0  0  0  0  0  0  0  0  0  0  0  0
   -4.0711   -2.9031   -0.0158 C   0  0  0  0  0  0  0  0  0  0  0  0
   -3.2310   -3.9998   -0.1842 C   0  0  0  0  0  0  0  0  0  0  0  0
   -1.8553   -3.8126   -0.3107 C   0  0  0  0  0  0  0  0  0  0  0  0
   -1.3209   -2.5239   -0.2635 C   0  0  0  0  0  0  0  0  0  0  0  0
    0.0466   -2.2434   -0.4424 N   0  0  0  0  0  0  0  0  0  0  0  0
    1.1092   -3.0953   -0.6346 C   0  0  0  0  0  0  0  0  0  0  0  0
    1.0470   -4.3198   -0.6692 O   0  0  0  0  0  0  0  0  0  0  0  0
    2.3637   -2.3789   -0.7878 C   0  0  0  0  0  0  0  0  0  0  0  0
    3.6526   -2.8247   -0.9987 C   0  0  0  0  0  0  0  0  0  0  0  0
    4.4764   -1.6730   -1.0621 C   0  0  0  0  0  0  0  0  0  0  0  0
    3.6499   -0.5798   -0.8876 C   0  0  0  0  0  0  0  0  0  0  0  0
    3.8524    0.8668   -0.8418 C   0  0  0  0  0  0  0  0  0  0  0  0
    2.7666    1.7500   -0.7309 C   0  0  0  0  0  0  0  0  0  0  0  0
    2.9643    3.1340   -0.6852 C   0  0  0  0  0  0  0  0  0  0  0  0
    4.2549    3.6598   -0.7512 C   0  0  0  0  0  0  0  0  0  0  0  0
    4.4302    5.3768   -0.6909 Cl  0  0  0  0  0  0  0  0  0  0  0  0
    5.3473    2.7948   -0.8626 C   0  0  0  0  0  0  0  0  0  0  0  0
    6.9757    3.3686   -0.9494 Cl  0  0  0  0  0  0  0  0  0  0  0  0
    5.1444    1.4089   -0.9078 C   0  0  0  0  0  0  0  0  0  0  0  0
    2.3642   -1.0097   -0.7204 O   0  0  0  0  0  0  0  0  0  0  0  0
   -2.2373    1.0357   -0.6106 C   0  0  0  0  0  0  0  0  0  0  0  0
   -3.1346    1.8574    0.3466 C   0  0  0  0  0  0  0  0  0  0  0  0
   -2.9059    3.1734    3.4484 H   0  0  0  0  0  0  0  0  0  0  0  0
   -3.7385    3.8331    2.0476 H   0  0  0  0  0  0  0  0  0  0  0  0
   -4.2901    2.3002    2.7574 H   0  0  0  0  0  0  0  0  0  0  0  0
   -1.4936    1.1876    3.2066 H   0  0  0  0  0  0  0  0  0  0  0  0
   -2.8486    0.2874    2.5129 H   0  0  0  0  0  0  0  0  0  0  0  0
   -0.6669   -0.7223    1.8831 H   0  0  0  0  0  0  0  0  0  0  0  0
   -0.1130    0.8064    1.2204 H   0  0  0  0  0  0  0  0  0  0  0  0
   -4.2287   -0.7894    0.1905 H   0  0  0  0  0  0  0  0  0  0  0  0
   -5.1438   -3.0525    0.0775 H   0  0  0  0  0  0  0  0  0  0  0  0
   -3.6452   -5.0038   -0.2263 H   0  0  0  0  0  0  0  0  0  0  0  0
   -1.2273   -4.6849   -0.4594 H   0  0  0  0  0  0  0  0  0  0  0  0
    0.2512   -1.2468   -0.4556 H   0  0  0  0  0  0  0  0  0  0  0  0
    3.9501   -3.8607   -1.0924 H   0  0  0  0  0  0  0  0  0  0  0  0
    5.5457   -1.6523   -1.2187 H   0  0  0  0  0  0  0  0  0  0  0  0
    1.7470    1.3700   -0.6813 H   0  0  0  0  0  0  0  0  0  0  0  0
    2.1033    3.7932   -0.5988 H   0  0  0  0  0  0  0  0  0  0  0  0
    6.0090    0.7546   -0.9931 H   0  0  0  0  0  0  0  0  0  0  0  0
   -1.4440    1.6964   -0.9840 H   0  0  0  0  0  0  0  0  0  0  0  0
   -2.8098    0.7235   -1.4926 H   0  0  0  0  0  0  0  0  0  0  0  0
   -4.0689    1.3167    0.5327 H   0  0  0  0  0  0  0  0  0  0  0  0
   -3.4094    2.7861   -0.1686 H   0  0  0  0  0  0  0  0  0  0  0  0
  1  2  1  0
  2  3  1  0
  3  4  1  0
  4  5  1  0
  5  6  1  0
  6  7  2  0
  7  8  1  0
  8  9  2  0
  9 10  1  0
 10 11  2  0
 11 12  1  0
 12 13  1  0
 13 14  2  0
 13 15  1  0
 15 16  2  0
 16 17  1  0
 17 18  2  0
 18 19  1  0
 19 20  2  0
 20 21  1  0
 21 22  2  0
 22 23  1  0
 22 24  1  0
 24 25  1  0
 24 26  2  0
 18 27  1  0
  5 28  1  0
 28 29  1  0
 29  2  1  0
 11  6  1  0
 27 15  1  0
 26 19  1  0
  1 30  1  0
  1 31  1  0
  1 32  1  0
  3 33  1  0
  3 34  1  0
  4 35  1  0
  4 36  1  0
  7 37  1  0
  8 38  1  0
  9 39  1  0
 10 40  1  0
 12 41  1  0
 16 42  1  0
 17 43  1  0
 20 44  1  0
 21 45  1  0
 26 46  1  0
 28 47  1  0
 28 48  1  0
 29 49  1  0
 29 50  1  0
M  END
$$$$
