
     RDKit          3D

 40 41  0  0  0  0  0  0  0  0999 V2000
   -6.1212    4.3044   -0.3016 C   0  0  0  0  0  0  0  0  0  0  0  0
   -5.5022    3.6919    0.8264 O   0  0  0  0  0  0  0  0  0  0  0  0
   -4.5269    2.7650    0.5747 C   0  0  0  0  0  0  0  0  0  0  0  0
   -4.1433    2.2953   -0.6830 C   0  0  0  0  0  0  0  0  0  0  0  0
   -3.1293    1.3332   -0.7959 C   0  0  0  0  0  0  0  0  0  0  0  0
   -2.4887    0.8373    0.3473 C   0  0  0  0  0  0  0  0  0  0  0  0
   -1.4238   -0.1854    0.1752 C   0  0  0  0  0  0  0  0  0  0  0  0
   -1.1699   -0.7393   -0.8841 O   0  0  0  0  0  0  0  0  0  0  0  0
   -0.7688   -0.3923    1.3437 O   0  0  0  0  0  0  0  0  0  0  0  0
    0.2647   -1.3744    1.2986 C   0  0  0  0  0  0  0  0  0  0  0  0
    1.5446   -0.8806    0.6175 C   0  0  0  0  0  0  0  0  0  0  0  0
    2.4829   -0.3975    1.2498 O   0  0  0  0  0  0  0  0  0  0  0  0
    1.5734   -1.0589   -0.7475 N   0  0  0  0  0  0  0  0  0  0  0  0
    2.6016   -0.4906   -1.6052 C   0  0  0  0  0  0  0  0  0  0  0  0
    4.0630   -0.7567   -1.2015 C   0  0  0  0  0  0  0  0  0  0  0  0
    4.3579   -2.1545   -0.9449 N   0  0  0  0  0  0  0  0  0  0  0  0
    4.6678   -2.6940    0.2811 C   0  0  0  0  0  0  0  0  0  0  0  0
    4.6383   -1.9540    1.4249 O   0  0  0  0  0  0  0  0  0  0  0  0
    4.9954   -3.9902    0.2508 C   0  0  0  0  0  0  0  0  0  0  0  0
    4.9180   -4.6328   -1.3586 S   0  0  0  0  0  0  0  0  0  0  0  0
    4.4392   -3.0526   -2.0036 C   0  0  0  0  0  0  0  0  0  0  0  0
    4.2368   -2.8368   -3.1878 O   0  0  0  0  0  0  0  0  0  0  0  0
   -2.8755    1.3081    1.6082 C   0  0  0  0  0  0  0  0  0  0  0  0
   -3.8907    2.2644    1.7153 C   0  0  0  0  0  0  0  0  0  0  0  0
   -6.6699    3.5703   -0.9006 H   0  0  0  0  0  0  0  0  0  0  0  0
   -6.8482    5.0338    0.0712 H   0  0  0  0  0  0  0  0  0  0  0  0
   -5.3863    4.8473   -0.9087 H   0  0  0  0  0  0  0  0  0  0  0  0
   -4.6148    2.6517   -1.5957 H   0  0  0  0  0  0  0  0  0  0  0  0
   -2.8463    0.9746   -1.7843 H   0  0  0  0  0  0  0  0  0  0  0  0
    0.5183   -1.6383    2.3286 H   0  0  0  0  0  0  0  0  0  0  0  0
   -0.0924   -2.2984    0.8243 H   0  0  0  0  0  0  0  0  0  0  0  0
    0.6596   -1.2025   -1.1835 H   0  0  0  0  0  0  0  0  0  0  0  0
    2.4305    0.5910   -1.6486 H   0  0  0  0  0  0  0  0  0  0  0  0
    2.4118   -0.8923   -2.6067 H   0  0  0  0  0  0  0  0  0  0  0  0
    4.3587   -0.1387   -0.3455 H   0  0  0  0  0  0  0  0  0  0  0  0
    4.7039   -0.4324   -2.0301 H   0  0  0  0  0  0  0  0  0  0  0  0
    3.9554   -1.2588    1.3247 H   0  0  0  0  0  0  0  0  0  0  0  0
    5.2709   -4.5802    1.1133 H   0  0  0  0  0  0  0  0  0  0  0  0
   -2.4053    0.9393    2.5165 H   0  0  0  0  0  0  0  0  0  0  0  0
   -4.1893    2.6244    2.6985 H   0  0  0  0  0  0  0  0  0  0  0  0
  1  2  1  0
  2  3  1  0
  3  4  2  0
  4  5  1  0
  5  6  2  0
  6  7  1  0
  7  8  2  0
  7  9  1  0
  9 10  1  0
 10 11  1  0
 11 12  2  0
 11 13  1  0
 13 14  1  0
 14 15  1  0
 15 16  1  0
 16 17  1  0
 17 18  1  0
 17 19  2  0
 19 20  1  0
 20 21  1  0
 21 22  2  0
  6 23  1  0
 23 24  2  0
 24  3  1  0
 21 16  1  0
  1 25  1  0
  1 26  1  0
  1 27  1  0
  4 28  1  0
  5 29  1  0
 10 30  1  0
 10 31  1  0
 13 32  1  0
 14 33  1  0
 14 34  1  0
 15 35  1  0
 15 36  1  0
 18 37  1  0
 19 38  1  0
 23 39  1  0
 24 40  1  0
M  END
$$$$
