
     RDKit          3D

 47 49  0  0  0  0  0  0  0  0999 V2000
    8.0188   -1.2054   -0.3786 C   0  0  0  0  0  0  0  0  0  0  0  0
    6.6813   -1.1520   -1.1010 C   0  0  0  0  0  0  0  0  0  0  0  0
    5.6107   -0.5054   -0.2587 C   0  0  0  0  0  0  0  0  0  0  0  0
    4.9095   -1.2532    0.6959 C   0  0  0  0  0  0  0  0  0  0  0  0
    3.9274   -0.6489    1.4840 C   0  0  0  0  0  0  0  0  0  0  0  0
    3.6247    0.7046    1.3223 C   0  0  0  0  0  0  0  0  0  0  0  0
    2.6194    1.3070    2.0896 N   0  0  0  0  0  0  0  0  0  0  0  0
    1.3964    1.2061    1.6966 C   0  0  0  0  0  0  0  0  0  0  0  0
    0.9330    0.5722    0.5888 N   0  0  0  0  0  0  0  0  0  0  0  0
   -0.4158    0.5535    0.3784 C   0  0  0  0  0  0  0  0  0  0  0  0
   -0.9452   -0.0132   -0.5636 O   0  0  0  0  0  0  0  0  0  0  0  0
   -1.1062    1.3055    1.4678 C   0  0  0  0  0  0  0  0  0  0  0  0
   -2.4221    1.5062    1.6203 C   0  0  0  0  0  0  0  0  0  0  0  0
   -3.4561    1.0067    0.7127 C   0  0  0  0  0  0  0  0  0  0  0  0
   -4.1412   -0.1771    1.0260 C   0  0  0  0  0  0  0  0  0  0  0  0
   -5.1226   -0.6673    0.1629 C   0  0  0  0  0  0  0  0  0  0  0  0
   -5.8696   -1.8045    0.3530 O   0  0  0  0  0  0  0  0  0  0  0  0
   -5.6250   -2.5392    1.5474 C   0  0  0  0  0  0  0  0  0  0  0  0
   -5.4099    0.0345   -1.0169 C   0  0  0  0  0  0  0  0  0  0  0  0
   -6.3983   -0.4394   -1.8429 O   0  0  0  0  0  0  0  0  0  0  0  0
   -4.7213    1.2039   -1.3394 C   0  0  0  0  0  0  0  0  0  0  0  0
   -4.9836    1.9462   -2.4605 O   0  0  0  0  0  0  0  0  0  0  0  0
   -4.5854    1.2498   -3.6413 C   0  0  0  0  0  0  0  0  0  0  0  0
   -3.7593    1.7023   -0.4625 C   0  0  0  0  0  0  0  0  0  0  0  0
    0.0727    1.9074    2.5888 S   0  0  0  0  0  0  0  0  0  0  0  0
    4.3435    1.4588    0.3944 C   0  0  0  0  0  0  0  0  0  0  0  0
    5.3293    0.8593   -0.3932 C   0  0  0  0  0  0  0  0  0  0  0  0
    7.9542   -1.8017    0.5381 H   0  0  0  0  0  0  0  0  0  0  0  0
    8.3598   -0.2020   -0.1031 H   0  0  0  0  0  0  0  0  0  0  0  0
    8.7798   -1.6568   -1.0241 H   0  0  0  0  0  0  0  0  0  0  0  0
    6.3657   -2.1642   -1.3781 H   0  0  0  0  0  0  0  0  0  0  0  0
    6.7954   -0.6019   -2.0430 H   0  0  0  0  0  0  0  0  0  0  0  0
    5.1316   -2.3086    0.8379 H   0  0  0  0  0  0  0  0  0  0  0  0
    3.3995   -1.2356    2.2309 H   0  0  0  0  0  0  0  0  0  0  0  0
    1.5451    0.1015   -0.0579 H   0  0  0  0  0  0  0  0  0  0  0  0
   -2.8014    2.0688    2.4707 H   0  0  0  0  0  0  0  0  0  0  0  0
   -3.8907   -0.6950    1.9459 H   0  0  0  0  0  0  0  0  0  0  0  0
   -6.2690   -3.4243    1.5332 H   0  0  0  0  0  0  0  0  0  0  0  0
   -5.8874   -1.9500    2.4318 H   0  0  0  0  0  0  0  0  0  0  0  0
   -4.5878   -2.8872    1.5943 H   0  0  0  0  0  0  0  0  0  0  0  0
   -6.7323   -1.2438   -1.4022 H   0  0  0  0  0  0  0  0  0  0  0  0
   -5.2402    0.3967   -3.8574 H   0  0  0  0  0  0  0  0  0  0  0  0
   -3.5388    0.9249   -3.5758 H   0  0  0  0  0  0  0  0  0  0  0  0
   -4.6680    1.9497   -4.4819 H   0  0  0  0  0  0  0  0  0  0  0  0
   -3.2412    2.6237   -0.7134 H   0  0  0  0  0  0  0  0  0  0  0  0
    4.1393    2.5206    0.2879 H   0  0  0  0  0  0  0  0  0  0  0  0
    5.8812    1.4668   -1.1063 H   0  0  0  0  0  0  0  0  0  0  0  0
  1  2  1  0
  2  3  1  0
  3  4  2  0
  4  5  1  0
  5  6  2  0
  6  7  1  0
  7  8  2  3
  8  9  1  0
  9 10  1  0
 10 11  2  0
 10 12  1  0
 12 13  2  3
 13 14  1  0
 14 15  2  0
 15 16  1  0
 16 17  1  0
 17 18  1  0
 16 19  2  0
 19 20  1  0
 19 21  1  0
 21 22  1  0
 22 23  1  0
 21 24  2  0
 12 25  1  0
  6 26  1  0
 26 27  2  0
 27  3  1  0
 25  8  1  0
 24 14  1  0
  1 28  1  0
  1 29  1  0
  1 30  1  0
  2 31  1  0
  2 32  1  0
  4 33  1  0
  5 34  1  0
  9 35  1  0
 13 36  1  0
 15 37  1  0
 18 38  1  0
 18 39  1  0
 18 40  1  0
 20 41  1  0
 23 42  1  0
 23 43  1  0
 23 44  1  0
 24 45  1  0
 26 46  1  0
 27 47  1  0
M  END
$$$$
