
     RDKit          3D

 51 55  0  0  0  0  0  0  0  0999 V2000
    2.3505   -2.6125    2.4289 O   0  0  0  0  0  0  0  0  0  0  0  0
    2.1775   -1.4031    2.3019 C   0  0  0  0  0  0  0  0  0  0  0  0
    1.2498   -0.6087    3.2276 C   0  0  0  0  0  0  0  0  0  0  0  0
    0.0382   -0.1816    2.5142 N   0  0  0  0  0  0  0  0  0  0  0  0
    0.1137    0.9915    1.7690 C   0  0  0  0  0  0  0  0  0  0  0  0
    1.1705    1.6144    1.6204 O   0  0  0  0  0  0  0  0  0  0  0  0
   -1.1582    1.5075    1.1471 C   0  0  0  0  0  0  0  0  0  0  0  0
   -1.3244    0.9258   -0.2456 C   0  0  0  0  0  0  0  0  0  0  0  0
   -2.5762    1.4072   -0.9060 C   0  0  0  0  0  0  0  0  0  0  0  0
   -2.8477    1.8659   -2.1803 C   0  0  0  0  0  0  0  0  0  0  0  0
   -4.2286    2.1732   -2.2108 C   0  0  0  0  0  0  0  0  0  0  0  0
   -4.7132    1.8836   -0.9579 C   0  0  0  0  0  0  0  0  0  0  0  0
   -3.7194    1.4192   -0.1583 O   0  0  0  0  0  0  0  0  0  0  0  0
   -1.2520   -0.9043   -0.3372 S   0  0  0  0  0  0  0  0  0  0  0  0
   -1.7930   -1.3744    1.3029 C   0  0  0  0  0  0  0  0  0  0  0  0
   -2.9062   -2.2277    1.3560 C   0  0  0  0  0  0  0  0  0  0  0  0
   -3.3327   -2.7716    2.5652 C   0  0  0  0  0  0  0  0  0  0  0  0
   -2.6394   -2.4830    3.7332 C   0  0  0  0  0  0  0  0  0  0  0  0
   -1.5247   -1.6417    3.6945 C   0  0  0  0  0  0  0  0  0  0  0  0
   -1.0884   -1.0662    2.4886 C   0  0  0  0  0  0  0  0  0  0  0  0
    2.8037   -0.6380    1.3438 N   0  0  0  0  0  0  0  0  0  0  0  0
    3.6293   -1.1961    0.3017 C   0  0  0  0  0  0  0  0  0  0  0  0
    3.1392   -0.7315   -1.0461 C   0  0  0  0  0  0  0  0  0  0  0  0
    2.1565   -1.4749   -1.7389 C   0  0  0  0  0  0  0  0  0  0  0  0
    1.6486   -1.0311   -2.9643 C   0  0  0  0  0  0  0  0  0  0  0  0
    2.1346    0.1558   -3.4680 C   0  0  0  0  0  0  0  0  0  0  0  0
    3.0884    0.8874   -2.8007 C   0  0  0  0  0  0  0  0  0  0  0  0
    3.6068    0.4761   -1.5915 C   0  0  0  0  0  0  0  0  0  0  0  0
    3.4255    2.0274   -3.4621 O   0  0  0  0  0  0  0  0  0  0  0  0
    2.5952    1.9143   -4.6362 C   0  0  0  0  0  0  0  0  0  0  0  0
    1.7487    0.7455   -4.6314 O   0  0  0  0  0  0  0  0  0  0  0  0
    1.7926    0.2734    3.5889 H   0  0  0  0  0  0  0  0  0  0  0  0
    1.0258   -1.2189    4.1068 H   0  0  0  0  0  0  0  0  0  0  0  0
   -2.0145    1.3227    1.8059 H   0  0  0  0  0  0  0  0  0  0  0  0
   -1.0809    2.6025    1.0925 H   0  0  0  0  0  0  0  0  0  0  0  0
   -0.4783    1.2658   -0.8570 H   0  0  0  0  0  0  0  0  0  0  0  0
   -2.1350    1.9577   -2.9881 H   0  0  0  0  0  0  0  0  0  0  0  0
   -4.8020    2.5537   -3.0443 H   0  0  0  0  0  0  0  0  0  0  0  0
   -5.6901    1.9464   -0.5001 H   0  0  0  0  0  0  0  0  0  0  0  0
   -3.4423   -2.4879    0.4470 H   0  0  0  0  0  0  0  0  0  0  0  0
   -4.1973   -3.4291    2.5899 H   0  0  0  0  0  0  0  0  0  0  0  0
   -2.9674   -2.9089    4.6795 H   0  0  0  0  0  0  0  0  0  0  0  0
   -1.0346   -1.4133    4.6362 H   0  0  0  0  0  0  0  0  0  0  0  0
    2.5370    0.3441    1.2678 H   0  0  0  0  0  0  0  0  0  0  0  0
    4.6527   -0.8466    0.4705 H   0  0  0  0  0  0  0  0  0  0  0  0
    3.6480   -2.2898    0.3502 H   0  0  0  0  0  0  0  0  0  0  0  0
    1.7723   -2.4002   -1.3078 H   0  0  0  0  0  0  0  0  0  0  0  0
    0.8876   -1.5958   -3.4935 H   0  0  0  0  0  0  0  0  0  0  0  0
    4.3481    1.0773   -1.0791 H   0  0  0  0  0  0  0  0  0  0  0  0
    3.2426    1.8758   -5.5217 H   0  0  0  0  0  0  0  0  0  0  0  0
    1.9630    2.8072   -4.7037 H   0  0  0  0  0  0  0  0  0  0  0  0
  1  2  2  0
  2  3  1  0
  3  4  1  0
  4  5  1  0
  5  6  2  0
  5  7  1  0
  7  8  1  0
  8  9  1  0
  9 10  2  0
 10 11  1  0
 11 12  2  0
 12 13  1  0
  8 14  1  0
 14 15  1  0
 15 16  2  0
 16 17  1  0
 17 18  2  0
 18 19  1  0
 19 20  2  0
  2 21  1  0
 21 22  1  0
 22 23  1  0
 23 24  2  0
 24 25  1  0
 25 26  2  0
 26 27  1  0
 27 28  2  0
 27 29  1  0
 29 30  1  0
 30 31  1  0
 20  4  1  0
 28 23  1  0
 13  9  1  0
 20 15  1  0
 31 26  1  0
  3 32  1  0
  3 33  1  0
  7 34  1  0
  7 35  1  0
  8 36  1  0
 10 37  1  0
 11 38  1  0
 12 39  1  0
 16 40  1  0
 17 41  1  0
 18 42  1  0
 19 43  1  0
 21 44  1  0
 22 45  1  0
 22 46  1  0
 24 47  1  0
 25 48  1  0
 28 49  1  0
 30 50  1  0
 30 51  1  0
M  END
$$$$
