
     RDKit          3D

 46 48  0  0  0  0  0  0  0  0999 V2000
    9.2535   -0.6691    1.0157 C   0  0  0  0  0  0  0  0  0  0  0  0
    7.8826   -1.2439    1.3142 C   0  0  0  0  0  0  0  0  0  0  0  0
    6.9331   -0.6086    0.4498 O   0  0  0  0  0  0  0  0  0  0  0  0
    5.6485   -0.9949    0.6585 C   0  0  0  0  0  0  0  0  0  0  0  0
    5.2768   -1.8093    1.4874 O   0  0  0  0  0  0  0  0  0  0  0  0
    4.7342   -0.2683   -0.2650 C   0  0  0  0  0  0  0  0  0  0  0  0
    5.2133    0.4343   -1.3782 C   0  0  0  0  0  0  0  0  0  0  0  0
    4.3205    1.0839   -2.2279 C   0  0  0  0  0  0  0  0  0  0  0  0
    2.9501    1.0381   -1.9656 C   0  0  0  0  0  0  0  0  0  0  0  0
    2.4551    0.3472   -0.8513 C   0  0  0  0  0  0  0  0  0  0  0  0
    1.0561    0.3556   -0.6645 N   0  0  0  0  0  0  0  0  0  0  0  0
    0.3529   -0.1475    0.4156 C   0  0  0  0  0  0  0  0  0  0  0  0
    0.8247   -0.6197    1.4421 O   0  0  0  0  0  0  0  0  0  0  0  0
   -1.1299   -0.0417    0.3060 C   0  0  0  0  0  0  0  0  0  0  0  0
   -1.8718    0.1797    1.4696 C   0  0  0  0  0  0  0  0  0  0  0  0
   -3.2651    0.2791    1.4066 C   0  0  0  0  0  0  0  0  0  0  0  0
   -3.9367    0.1488    0.1847 C   0  0  0  0  0  0  0  0  0  0  0  0
   -5.3384    0.2571    0.2117 N   0  0  0  0  0  0  0  0  0  0  0  0
   -6.2305    0.1642   -0.8427 C   0  0  0  0  0  0  0  0  0  0  0  0
   -5.9274   -0.0161   -2.0179 O   0  0  0  0  0  0  0  0  0  0  0  0
   -7.6118    0.3059   -0.4145 C   0  0  0  0  0  0  0  0  0  0  0  0
   -8.7946    0.2799   -1.1293 C   0  0  0  0  0  0  0  0  0  0  0  0
   -9.8415    0.4618   -0.1946 C   0  0  0  0  0  0  0  0  0  0  0  0
   -9.2390    0.5892    1.0345 C   0  0  0  0  0  0  0  0  0  0  0  0
   -7.8889    0.4982    0.9164 O   0  0  0  0  0  0  0  0  0  0  0  0
   -3.1926   -0.0907   -0.9727 C   0  0  0  0  0  0  0  0  0  0  0  0
   -1.7961   -0.1915   -0.9152 C   0  0  0  0  0  0  0  0  0  0  0  0
    3.3540   -0.3118   -0.0089 C   0  0  0  0  0  0  0  0  0  0  0  0
    9.2626    0.4127    1.1849 H   0  0  0  0  0  0  0  0  0  0  0  0
    9.5191   -0.8287   -0.0344 H   0  0  0  0  0  0  0  0  0  0  0  0
   10.0166   -1.1307    1.6489 H   0  0  0  0  0  0  0  0  0  0  0  0
    7.8845   -2.3235    1.1282 H   0  0  0  0  0  0  0  0  0  0  0  0
    7.6221   -1.0523    2.3613 H   0  0  0  0  0  0  0  0  0  0  0  0
    6.2771    0.4748   -1.5986 H   0  0  0  0  0  0  0  0  0  0  0  0
    4.6912    1.6258   -3.0946 H   0  0  0  0  0  0  0  0  0  0  0  0
    2.2763    1.5569   -2.6438 H   0  0  0  0  0  0  0  0  0  0  0  0
    0.5225    0.8562   -1.3629 H   0  0  0  0  0  0  0  0  0  0  0  0
   -1.3664    0.2743    2.4293 H   0  0  0  0  0  0  0  0  0  0  0  0
   -3.8136    0.4542    2.3291 H   0  0  0  0  0  0  0  0  0  0  0  0
   -5.7737    0.4130    1.1155 H   0  0  0  0  0  0  0  0  0  0  0  0
   -8.8764    0.1377   -2.1993 H   0  0  0  0  0  0  0  0  0  0  0  0
  -10.9039    0.4949   -0.3916 H   0  0  0  0  0  0  0  0  0  0  0  0
   -9.6125    0.7411    2.0384 H   0  0  0  0  0  0  0  0  0  0  0  0
   -3.6691   -0.2199   -1.9399 H   0  0  0  0  0  0  0  0  0  0  0  0
   -1.2544   -0.4205   -1.8290 H   0  0  0  0  0  0  0  0  0  0  0  0
    3.0071   -0.8758    0.8532 H   0  0  0  0  0  0  0  0  0  0  0  0
  1  2  1  0
  2  3  1  0
  3  4  1  0
  4  5  2  0
  4  6  1  0
  6  7  2  0
  7  8  1  0
  8  9  2  0
  9 10  1  0
 10 11  1  0
 11 12  1  0
 12 13  2  0
 12 14  1  0
 14 15  2  0
 15 16  1  0
 16 17  2  0
 17 18  1  0
 18 19  1  0
 19 20  2  0
 19 21  1  0
 21 22  2  0
 22 23  1  0
 23 24  2  0
 24 25  1  0
 17 26  1  0
 26 27  2  0
 10 28  2  0
 28  6  1  0
 27 14  1  0
 25 21  1  0
  1 29  1  0
  1 30  1  0
  1 31  1  0
  2 32  1  0
  2 33  1  0
  7 34  1  0
  8 35  1  0
  9 36  1  0
 11 37  1  0
 15 38  1  0
 16 39  1  0
 18 40  1  0
 22 41  1  0
 23 42  1  0
 24 43  1  0
 26 44  1  0
 27 45  1  0
 28 46  1  0
M  END
$$$$
