
     RDKit          3D

 42 44  0  0  0  0  0  0  0  0999 V2000
    0.4747   -2.5991    0.2801 C   0  0  0  0  0  0  0  0  0  0  0  0
   -0.2668   -1.3123    0.4711 C   0  0  0  0  0  0  0  0  0  0  0  0
    0.2631   -0.0967    0.6993 C   0  0  0  0  0  0  0  0  0  0  0  0
    1.5931    0.2163    0.7763 N   0  0  0  0  0  0  0  0  0  0  0  0
    2.1511    1.3568    1.3207 C   0  0  0  0  0  0  0  0  0  0  0  0
    1.5589    2.1546    2.0439 O   0  0  0  0  0  0  0  0  0  0  0  0
    3.6437    1.5130    1.1006 C   0  0  0  0  0  0  0  0  0  0  0  0
    4.0969    1.0253   -0.1922 N   0  0  0  0  0  0  0  0  0  0  0  0
    4.6036    1.7652   -1.2235 C   0  0  0  0  0  0  0  0  0  0  0  0
    4.9084    0.8732   -2.2272 C   0  0  0  0  0  0  0  0  0  0  0  0
    4.5484   -0.3884   -1.7061 C   0  0  0  0  0  0  0  0  0  0  0  0
    4.6373   -1.6903   -2.3431 N   0  0  0  0  0  4  0  0  0  0  0  0
    5.2058   -1.7241   -3.4446 O   0  0  0  0  0  0  0  0  0  0  0  0
    4.1358   -2.6641   -1.7612 O   0  0  0  0  0  1  0  0  0  0  0  0
    4.0624   -0.3036   -0.4523 N   0  0  0  0  0  0  0  0  0  0  0  0
   -0.9021    0.8517    0.7516 C   0  0  0  0  0  0  0  0  0  0  0  0
   -0.8128    2.0692    0.7464 O   0  0  0  0  0  0  0  0  0  0  0  0
   -2.0565    0.0530    0.6345 N   0  0  0  0  0  0  0  0  0  0  0  0
   -3.3149    0.5181    0.1627 C   0  0  0  0  0  0  0  0  0  0  0  0
   -3.7440    1.8238    0.4383 C   0  0  0  0  0  0  0  0  0  0  0  0
   -4.9848    2.2860   -0.0131 C   0  0  0  0  0  0  0  0  0  0  0  0
   -5.8164    1.4491   -0.7510 C   0  0  0  0  0  0  0  0  0  0  0  0
   -5.4067    0.1511   -1.0401 C   0  0  0  0  0  0  0  0  0  0  0  0
   -4.1662   -0.3093   -0.5865 C   0  0  0  0  0  0  0  0  0  0  0  0
   -1.6702   -1.3104    0.4719 N   0  0  0  0  0  0  0  0  0  0  0  0
   -2.3611   -2.2272    1.3967 C   0  0  0  0  0  0  0  0  0  0  0  0
    0.3306   -3.2588    1.1416 H   0  0  0  0  0  0  0  0  0  0  0  0
    0.1100   -3.1143   -0.6149 H   0  0  0  0  0  0  0  0  0  0  0  0
    1.5505   -2.4526    0.1524 H   0  0  0  0  0  0  0  0  0  0  0  0
    2.2525   -0.4936    0.4580 H   0  0  0  0  0  0  0  0  0  0  0  0
    3.9063    2.5741    1.1643 H   0  0  0  0  0  0  0  0  0  0  0  0
    4.1875    0.9598    1.8730 H   0  0  0  0  0  0  0  0  0  0  0  0
    4.6985    2.8420   -1.1636 H   0  0  0  0  0  0  0  0  0  0  0  0
    5.3235    1.0967   -3.2007 H   0  0  0  0  0  0  0  0  0  0  0  0
   -3.1287    2.5021    1.0248 H   0  0  0  0  0  0  0  0  0  0  0  0
   -5.2961    3.3023    0.2151 H   0  0  0  0  0  0  0  0  0  0  0  0
   -6.7784    1.8104   -1.1045 H   0  0  0  0  0  0  0  0  0  0  0  0
   -6.0460   -0.5032   -1.6268 H   0  0  0  0  0  0  0  0  0  0  0  0
   -3.8625   -1.3162   -0.8583 H   0  0  0  0  0  0  0  0  0  0  0  0
   -2.1584   -3.2668    1.1185 H   0  0  0  0  0  0  0  0  0  0  0  0
   -3.4465   -2.0949    1.3729 H   0  0  0  0  0  0  0  0  0  0  0  0
   -2.0235   -2.0680    2.4274 H   0  0  0  0  0  0  0  0  0  0  0  0
  1  2  1  0
  2  3  2  0
  3  4  1  0
  4  5  1  0
  5  6  2  0
  5  7  1  0
  7  8  1  0
  8  9  1  0
  9 10  2  0
 10 11  1  0
 11 12  1  0
 12 13  2  0
 12 14  1  0
 11 15  2  0
  3 16  1  0
 16 17  2  0
 16 18  1  0
 18 19  1  0
 19 20  2  0
 20 21  1  0
 21 22  2  0
 22 23  1  0
 23 24  2  0
 18 25  1  0
 25 26  1  0
 25  2  1  0
 15  8  1  0
 24 19  1  0
  1 27  1  0
  1 28  1  0
  1 29  1  0
  4 30  1  0
  7 31  1  0
  7 32  1  0
  9 33  1  0
 10 34  1  0
 20 35  1  0
 21 36  1  0
 22 37  1  0
 23 38  1  0
 24 39  1  0
 26 40  1  0
 26 41  1  0
 26 42  1  0
M  CHG  2  12   1  14  -1
M  END
$$$$
