
     RDKit          3D

 51 55  0  0  0  0  0  0  0  0999 V2000
   -4.8994    0.8645   -1.2612 O   0  0  0  0  0  0  0  0  0  0  0  0
   -3.6714    0.8879   -1.0736 C   0  0  0  0  0  0  0  0  0  0  0  0
   -3.0318    1.9472   -0.1474 C   0  0  0  0  0  0  0  0  0  0  0  0
   -4.0040    2.7552    0.7711 C   0  0  0  0  0  0  0  0  0  0  0  0
   -2.9020    2.7454    1.8431 C   0  0  0  0  0  0  0  0  0  0  0  0
   -2.3723    1.4622    1.1805 C   0  0  0  0  0  0  0  0  0  0  0  0
   -2.8780   -0.0900   -1.6635 N   0  0  0  0  0  0  0  0  0  0  0  0
   -3.5217   -1.2134   -2.3607 C   0  0  0  0  0  0  0  0  0  0  0  0
   -2.4381   -2.2551   -2.6376 C   0  0  0  0  0  0  0  0  0  0  0  0
   -1.1931   -1.4653   -2.3812 C   0  0  0  0  0  0  0  0  0  0  0  0
    0.1104   -1.8766   -2.6243 C   0  0  0  0  0  0  0  0  0  0  0  0
    1.1412   -0.9986   -2.2858 C   0  0  0  0  0  0  0  0  0  0  0  0
    2.8324   -1.4860   -2.5568 S   0  0  0  0  0  6  0  0  0  0  0  0
    2.8369   -2.4560   -3.6320 O   0  0  0  0  0  0  0  0  0  0  0  0
    3.6397   -0.2877   -2.6233 O   0  0  0  0  0  0  0  0  0  0  0  0
    3.2075   -2.3454   -1.1503 N   0  0  0  0  0  0  0  0  0  0  0  0
    2.9616   -1.7496    0.1185 C   0  0  0  0  0  0  0  0  0  0  0  0
    1.9869   -2.3127    0.9469 C   0  0  0  0  0  0  0  0  0  0  0  0
    1.6891   -1.7220    2.1766 C   0  0  0  0  0  0  0  0  0  0  0  0
    2.3691   -0.5740    2.5765 C   0  0  0  0  0  0  0  0  0  0  0  0
    3.3298   -0.0005    1.7372 C   0  0  0  0  0  0  0  0  0  0  0  0
    3.6386   -0.5966    0.5153 C   0  0  0  0  0  0  0  0  0  0  0  0
    4.0116    1.1469    2.0530 O   0  0  0  0  0  0  0  0  0  0  0  0
    3.3885    1.8469    3.1360 C   0  0  0  0  0  0  0  0  0  0  0  0
    3.0165    0.8860    4.2529 C   0  0  0  0  0  0  0  0  0  0  0  0
    2.0369   -0.0574    3.8020 O   0  0  0  0  0  0  0  0  0  0  0  0
    0.8621    0.2722   -1.7578 C   0  0  0  0  0  0  0  0  0  0  0  0
   -0.4606    0.6620   -1.5122 C   0  0  0  0  0  0  0  0  0  0  0  0
   -1.4858   -0.2213   -1.8041 C   0  0  0  0  0  0  0  0  0  0  0  0
   -2.4140    2.6540   -0.7174 H   0  0  0  0  0  0  0  0  0  0  0  0
   -4.9086    2.2130    1.0709 H   0  0  0  0  0  0  0  0  0  0  0  0
   -4.2909    3.7438    0.4026 H   0  0  0  0  0  0  0  0  0  0  0  0
   -3.2419    2.6430    2.8765 H   0  0  0  0  0  0  0  0  0  0  0  0
   -2.2121    3.5943    1.7750 H   0  0  0  0  0  0  0  0  0  0  0  0
   -1.2842    1.3648    1.1835 H   0  0  0  0  0  0  0  0  0  0  0  0
   -2.8082    0.5415    1.5865 H   0  0  0  0  0  0  0  0  0  0  0  0
   -3.9487   -0.8266   -3.2946 H   0  0  0  0  0  0  0  0  0  0  0  0
   -4.3397   -1.6242   -1.7584 H   0  0  0  0  0  0  0  0  0  0  0  0
   -2.4942   -2.6318   -3.6627 H   0  0  0  0  0  0  0  0  0  0  0  0
   -2.5055   -3.0887   -1.9309 H   0  0  0  0  0  0  0  0  0  0  0  0
    0.3155   -2.8494   -3.0617 H   0  0  0  0  0  0  0  0  0  0  0  0
    3.0262   -3.3421   -1.2551 H   0  0  0  0  0  0  0  0  0  0  0  0
    1.4449   -3.2043    0.6447 H   0  0  0  0  0  0  0  0  0  0  0  0
    0.9338   -2.1585    2.8245 H   0  0  0  0  0  0  0  0  0  0  0  0
    4.3999   -0.1513   -0.1199 H   0  0  0  0  0  0  0  0  0  0  0  0
    4.0996    2.5946    3.5006 H   0  0  0  0  0  0  0  0  0  0  0  0
    2.5069    2.3730    2.7489 H   0  0  0  0  0  0  0  0  0  0  0  0
    3.8918    0.3332    4.6160 H   0  0  0  0  0  0  0  0  0  0  0  0
    2.5850    1.4342    5.0962 H   0  0  0  0  0  0  0  0  0  0  0  0
    1.6720    0.9635   -1.5292 H   0  0  0  0  0  0  0  0  0  0  0  0
   -0.6282    1.6558   -1.1237 H   0  0  0  0  0  0  0  0  0  0  0  0
  1  2  2  0
  2  3  1  0
  3  4  1  0
  4  5  1  0
  5  6  1  0
  2  7  1  0
  7  8  1  0
  8  9  1  0
  9 10  1  0
 10 11  2  0
 11 12  1  0
 12 13  1  0
 13 14  2  0
 13 15  2  0
 13 16  1  0
 16 17  1  0
 17 18  2  0
 18 19  1  0
 19 20  2  0
 20 21  1  0
 21 22  2  0
 21 23  1  0
 23 24  1  0
 24 25  1  0
 25 26  1  0
 12 27  2  0
 27 28  1  0
 28 29  2  0
  6  3  1  0
 29  7  1  0
 29 10  1  0
 22 17  1  0
 26 20  1  0
  3 30  1  0
  4 31  1  0
  4 32  1  0
  5 33  1  0
  5 34  1  0
  6 35  1  0
  6 36  1  0
  8 37  1  0
  8 38  1  0
  9 39  1  0
  9 40  1  0
 11 41  1  0
 16 42  1  0
 18 43  1  0
 19 44  1  0
 22 45  1  0
 24 46  1  0
 24 47  1  0
 25 48  1  0
 25 49  1  0
 27 50  1  0
 28 51  1  0
M  END
$$$$
