
     RDKit          3D

 46 48  0  0  0  0  0  0  0  0999 V2000
    3.1650   -1.8612   -2.9889 C   0  0  0  0  0  0  0  0  0  0  0  0
    2.1145   -1.1355   -2.1625 C   0  0  0  0  0  0  0  0  0  0  0  0
    2.2559    0.4026   -2.1808 N   0  0  0  0  0  4  0  0  0  0  0  0
    3.5694    0.8489   -1.5447 C   0  0  0  0  0  0  0  0  0  0  0  0
    2.2119    0.9234   -3.6237 C   0  0  0  0  0  0  0  0  0  0  0  0
    1.0487    1.0489   -1.4391 C   0  0  0  0  0  0  0  0  0  0  0  0
    1.0203    0.7793    0.0719 C   0  0  0  0  0  0  0  0  0  0  0  0
   -0.2603    1.2697    0.7021 C   0  0  0  0  0  0  0  0  0  0  0  0
   -1.2682    0.5417    1.2384 C   0  0  0  0  0  0  0  0  0  0  0  0
   -2.2940    1.2677    2.0380 C   0  0  0  0  0  0  0  0  0  0  0  0
   -2.9451    2.4141    1.5567 C   0  0  0  0  0  0  0  0  0  0  0  0
   -3.9014    3.0641    2.3394 C   0  0  0  0  0  0  0  0  0  0  0  0
   -4.2210    2.5735    3.6035 C   0  0  0  0  0  0  0  0  0  0  0  0
   -3.5943    1.4241    4.0865 C   0  0  0  0  0  0  0  0  0  0  0  0
   -2.6401    0.7595    3.3073 C   0  0  0  0  0  0  0  0  0  0  0  0
   -1.8812   -0.7259    3.9726 S   0  0  0  0  0  0  0  0  0  0  0  0
   -1.5052   -1.6161    2.4643 C   0  0  0  0  0  0  0  0  0  0  0  0
   -1.4755   -3.0166    2.5033 C   0  0  0  0  0  0  0  0  0  0  0  0
   -1.2354   -3.7507    1.3394 C   0  0  0  0  0  0  0  0  0  0  0  0
   -1.0513   -3.0840    0.1325 C   0  0  0  0  0  0  0  0  0  0  0  0
   -0.7540   -3.9711   -1.3110 Cl  0  0  0  0  0  0  0  0  0  0  0  0
   -1.0861   -1.6915    0.0790 C   0  0  0  0  0  0  0  0  0  0  0  0
   -1.2613   -0.9437    1.2510 C   0  0  0  0  0  0  0  0  0  0  0  0
    3.0770   -1.6366   -4.0554 H   0  0  0  0  0  0  0  0  0  0  0  0
    3.0282   -2.9426   -2.8794 H   0  0  0  0  0  0  0  0  0  0  0  0
    4.1818   -1.6289   -2.6618 H   0  0  0  0  0  0  0  0  0  0  0  0
    1.1124   -1.3699   -2.5375 H   0  0  0  0  0  0  0  0  0  0  0  0
    2.1896   -1.4607   -1.1213 H   0  0  0  0  0  0  0  0  0  0  0  0
    4.3963    0.5642   -2.2005 H   0  0  0  0  0  0  0  0  0  0  0  0
    3.6743    0.3593   -0.5730 H   0  0  0  0  0  0  0  0  0  0  0  0
    3.5445    1.9368   -1.4319 H   0  0  0  0  0  0  0  0  0  0  0  0
    2.2061    2.0174   -3.5960 H   0  0  0  0  0  0  0  0  0  0  0  0
    1.3019    0.5453   -4.0983 H   0  0  0  0  0  0  0  0  0  0  0  0
    3.1024    0.5796   -4.1557 H   0  0  0  0  0  0  0  0  0  0  0  0
    1.1085    2.1297   -1.6195 H   0  0  0  0  0  0  0  0  0  0  0  0
    0.1447    0.6719   -1.9319 H   0  0  0  0  0  0  0  0  0  0  0  0
    1.1888   -0.2739    0.3011 H   0  0  0  0  0  0  0  0  0  0  0  0
    1.8440    1.3183    0.5558 H   0  0  0  0  0  0  0  0  0  0  0  0
   -0.2940    2.3558    0.8129 H   0  0  0  0  0  0  0  0  0  0  0  0
   -2.7259    2.8069    0.5678 H   0  0  0  0  0  0  0  0  0  0  0  0
   -4.4027    3.9529    1.9626 H   0  0  0  0  0  0  0  0  0  0  0  0
   -4.9659    3.0810    4.2126 H   0  0  0  0  0  0  0  0  0  0  0  0
   -3.8631    1.0487    5.0717 H   0  0  0  0  0  0  0  0  0  0  0  0
   -1.6515   -3.5458    3.4384 H   0  0  0  0  0  0  0  0  0  0  0  0
   -1.2151   -4.8372    1.3834 H   0  0  0  0  0  0  0  0  0  0  0  0
   -0.9937   -1.1934   -0.8793 H   0  0  0  0  0  0  0  0  0  0  0  0
  1  2  1  0
  2  3  1  0
  3  4  1  0
  3  5  1  0
  3  6  1  0
  6  7  1  0
  7  8  1  0
  8  9  2  3
  9 10  1  0
 10 11  2  0
 11 12  1  0
 12 13  2  0
 13 14  1  0
 14 15  2  0
 15 16  1  0
 16 17  1  0
 17 18  2  0
 18 19  1  0
 19 20  2  0
 20 21  1  0
 20 22  1  0
 22 23  2  0
 23  9  1  0
 15 10  1  0
 23 17  1  0
  1 24  1  0
  1 25  1  0
  1 26  1  0
  2 27  1  0
  2 28  1  0
  4 29  1  0
  4 30  1  0
  4 31  1  0
  5 32  1  0
  5 33  1  0
  5 34  1  0
  6 35  1  0
  6 36  1  0
  7 37  1  0
  7 38  1  0
  8 39  1  0
 11 40  1  0
 12 41  1  0
 13 42  1  0
 14 43  1  0
 18 44  1  0
 19 45  1  0
 22 46  1  0
M  CHG  1   3   1
M  END
$$$$
