
     RDKit          3D

 53 55  0  0  0  0  0  0  0  0999 V2000
    6.8690   -2.0991    3.1753 C   0  0  0  0  0  0  0  0  0  0  0  0
    5.6596   -2.3947    2.4882 O   0  0  0  0  0  0  0  0  0  0  0  0
    5.2254   -1.4778    1.5720 C   0  0  0  0  0  0  0  0  0  0  0  0
    5.8353   -0.2560    1.2807 C   0  0  0  0  0  0  0  0  0  0  0  0
    5.2816    0.5941    0.3175 C   0  0  0  0  0  0  0  0  0  0  0  0
    4.1047    0.2268   -0.3419 C   0  0  0  0  0  0  0  0  0  0  0  0
    3.4181    1.2996   -1.5883 S   0  0  0  0  0  6  0  0  0  0  0  0
    4.4988    2.1240   -2.0858 O   0  0  0  0  0  0  0  0  0  0  0  0
    2.6271    0.4800   -2.4794 O   0  0  0  0  0  0  0  0  0  0  0  0
    2.3694    2.2930   -0.7398 N   0  0  0  0  0  0  0  0  0  0  0  0
    2.8893    3.2418    0.2478 C   0  0  0  0  0  0  0  0  0  0  0  0
    2.1437    2.8631    1.5076 C   0  0  0  0  0  0  0  0  0  0  0  0
    0.8710    2.4168    1.0327 O   0  0  0  0  0  0  0  0  0  0  0  0
    1.1379    1.7064   -0.1981 C   0  0  0  0  0  0  0  0  0  0  0  0
   -0.0523    1.9071   -1.1502 C   0  0  0  0  0  0  0  0  0  0  0  0
   -1.3012    1.4420   -0.5686 N   0  0  0  0  0  0  0  0  0  0  0  0
   -2.4137    1.1976   -1.3386 C   0  0  0  0  0  0  0  0  0  0  0  0
   -2.4513    1.1443   -2.5592 O   0  0  0  0  0  0  0  0  0  0  0  0
   -3.7053    0.9940   -0.5137 C   0  0  0  0  0  0  0  0  0  0  0  0
   -3.6760    1.0897    0.7054 O   0  0  0  0  0  0  0  0  0  0  0  0
   -4.8080    0.7106   -1.2820 N   0  0  0  0  0  0  0  0  0  0  0  0
   -6.0789    0.3489   -0.7105 C   0  0  0  0  0  0  0  0  0  0  0  0
   -6.2131   -1.1462   -0.5787 C   0  0  0  0  0  0  0  0  0  0  0  0
   -5.8556   -1.7545    0.6383 C   0  0  0  0  0  0  0  0  0  0  0  0
   -5.9474   -3.1374    0.8034 C   0  0  0  0  0  0  0  0  0  0  0  0
   -6.3896   -3.9361   -0.2471 C   0  0  0  0  0  0  0  0  0  0  0  0
   -6.7337   -3.3520   -1.4652 C   0  0  0  0  0  0  0  0  0  0  0  0
   -6.6419   -1.9667   -1.6335 C   0  0  0  0  0  0  0  0  0  0  0  0
   -7.0615   -1.3189   -3.1795 Cl  0  0  0  0  0  0  0  0  0  0  0  0
    3.5077   -1.0078   -0.0813 C   0  0  0  0  0  0  0  0  0  0  0  0
    4.0650   -1.8481    0.8843 C   0  0  0  0  0  0  0  0  0  0  0  0
    6.7674   -1.1912    3.7798 H   0  0  0  0  0  0  0  0  0  0  0  0
    7.0793   -2.9301    3.8563 H   0  0  0  0  0  0  0  0  0  0  0  0
    7.7086   -2.0181    2.4774 H   0  0  0  0  0  0  0  0  0  0  0  0
    6.7476    0.0597    1.7768 H   0  0  0  0  0  0  0  0  0  0  0  0
    5.7823    1.5308    0.0815 H   0  0  0  0  0  0  0  0  0  0  0  0
    2.6117    4.2501   -0.0782 H   0  0  0  0  0  0  0  0  0  0  0  0
    3.9711    3.2157    0.3873 H   0  0  0  0  0  0  0  0  0  0  0  0
    2.6290    2.0344    2.0349 H   0  0  0  0  0  0  0  0  0  0  0  0
    2.0175    3.7021    2.1964 H   0  0  0  0  0  0  0  0  0  0  0  0
    1.2491    0.6513    0.0652 H   0  0  0  0  0  0  0  0  0  0  0  0
   -0.1926    2.9735   -1.3633 H   0  0  0  0  0  0  0  0  0  0  0  0
    0.1111    1.3972   -2.1051 H   0  0  0  0  0  0  0  0  0  0  0  0
   -1.4795    1.6406    0.4150 H   0  0  0  0  0  0  0  0  0  0  0  0
   -4.6479    0.5773   -2.2773 H   0  0  0  0  0  0  0  0  0  0  0  0
   -6.8679    0.7670   -1.3433 H   0  0  0  0  0  0  0  0  0  0  0  0
   -6.1895    0.8257    0.2706 H   0  0  0  0  0  0  0  0  0  0  0  0
   -5.4943   -1.1455    1.4666 H   0  0  0  0  0  0  0  0  0  0  0  0
   -5.6683   -3.5897    1.7520 H   0  0  0  0  0  0  0  0  0  0  0  0
   -6.4598   -5.0132   -0.1209 H   0  0  0  0  0  0  0  0  0  0  0  0
   -7.0692   -3.9832   -2.2843 H   0  0  0  0  0  0  0  0  0  0  0  0
    2.6208   -1.3299   -0.6228 H   0  0  0  0  0  0  0  0  0  0  0  0
    3.5993   -2.8086    1.0957 H   0  0  0  0  0  0  0  0  0  0  0  0
  1  2  1  0
  2  3  1  0
  3  4  2  0
  4  5  1  0
  5  6  2  0
  6  7  1  0
  7  8  2  0
  7  9  2  0
  7 10  1  0
 10 11  1  0
 11 12  1  0
 12 13  1  0
 13 14  1  0
 14 15  1  0
 15 16  1  0
 16 17  1  0
 17 18  2  0
 17 19  1  0
 19 20  2  0
 19 21  1  0
 21 22  1  0
 22 23  1  0
 23 24  2  0
 24 25  1  0
 25 26  2  0
 26 27  1  0
 27 28  2  0
 28 29  1  0
  6 30  1  0
 30 31  2  0
 31  3  1  0
 14 10  1  0
 28 23  1  0
  1 32  1  0
  1 33  1  0
  1 34  1  0
  4 35  1  0
  5 36  1  0
 11 37  1  0
 11 38  1  0
 12 39  1  0
 12 40  1  0
 14 41  1  0
 15 42  1  0
 15 43  1  0
 16 44  1  0
 21 45  1  0
 22 46  1  0
 22 47  1  0
 24 48  1  0
 25 49  1  0
 26 50  1  0
 27 51  1  0
 30 52  1  0
 31 53  1  0
M  END
$$$$
