
     RDKit          3D

 60 63  0  0  0  0  0  0  0  0999 V2000
   10.4433    0.4261    0.8700 C   0  0  0  0  0  0  0  0  0  0  0  0
   10.1247   -1.0359    1.1262 C   0  0  0  0  0  0  0  0  0  0  0  0
    8.9846   -1.1578    1.9749 O   0  0  0  0  0  0  0  0  0  0  0  0
    7.7520   -1.2961    1.4031 C   0  0  0  0  0  0  0  0  0  0  0  0
    7.4392   -1.1140    0.0574 C   0  0  0  0  0  0  0  0  0  0  0  0
    6.1251   -1.2908   -0.3914 C   0  0  0  0  0  0  0  0  0  0  0  0
    5.1060   -1.6485    0.5017 C   0  0  0  0  0  0  0  0  0  0  0  0
    3.6891   -1.8127    0.0246 C   0  0  0  0  0  0  0  0  0  0  0  0
    2.9603   -0.5738    0.1505 N   0  0  0  0  0  0  0  0  0  0  0  0
    1.6243   -0.5142   -0.1949 C   0  0  0  0  0  0  0  0  0  0  0  0
    0.9905   -1.5093   -0.5385 O   0  0  0  0  0  0  0  0  0  0  0  0
    1.0387    0.8960   -0.1051 C   0  0  0  0  0  0  0  0  0  0  0  0
   -0.3611    0.9126   -0.4935 N   0  0  0  0  0  0  0  0  0  0  0  0
   -0.6281    1.1274   -1.8524 N   0  0  0  0  0  0  0  0  0  0  0  0
   -1.8488    1.0720   -2.3094 C   0  0  0  0  0  0  0  0  0  0  0  0
   -2.0716    1.3073   -3.7766 C   0  0  0  0  0  0  0  0  0  0  0  0
   -2.9366    0.7969   -1.4014 C   0  0  0  0  0  0  0  0  0  0  0  0
   -4.3020    0.6199   -1.5548 C   0  0  0  0  0  0  0  0  0  0  0  0
   -5.1111    0.5045   -2.7946 C   0  0  0  0  0  0  0  0  0  0  0  0
   -4.8103    0.4991   -0.2547 N   0  0  0  0  0  0  0  0  0  0  0  0
   -6.1582    0.5170    0.2259 C   0  0  0  0  0  0  0  0  0  0  0  0
   -7.2216    1.0187   -0.5316 C   0  0  0  0  0  0  0  0  0  0  0  0
   -8.5230    1.0241   -0.0121 C   0  0  0  0  0  0  0  0  0  0  0  0
   -8.7850    0.5335    1.2699 C   0  0  0  0  0  0  0  0  0  0  0  0
  -10.1760    0.5697    1.8324 C   0  0  0  0  0  0  0  0  0  0  0  0
   -7.7188    0.0694    2.0437 C   0  0  0  0  0  0  0  0  0  0  0  0
   -6.4183    0.0625    1.5286 C   0  0  0  0  0  0  0  0  0  0  0  0
   -3.8009    0.3610    0.6484 N   0  0  0  0  0  0  0  0  0  0  0  0
   -2.6819    0.5953   -0.0411 C   0  0  0  0  0  0  0  0  0  0  0  0
   -1.3266    0.6291    0.4933 C   0  0  0  0  0  0  0  0  0  0  0  0
   -1.0508    0.4511    1.6782 O   0  0  0  0  0  0  0  0  0  0  0  0
    5.4198   -1.8028    1.8563 C   0  0  0  0  0  0  0  0  0  0  0  0
    6.7333   -1.6325    2.2973 C   0  0  0  0  0  0  0  0  0  0  0  0
   11.3495    0.5242    0.2645 H   0  0  0  0  0  0  0  0  0  0  0  0
    9.6209    0.9300    0.3531 H   0  0  0  0  0  0  0  0  0  0  0  0
   10.5943    0.9557    1.8165 H   0  0  0  0  0  0  0  0  0  0  0  0
   10.0264   -1.6102    0.1986 H   0  0  0  0  0  0  0  0  0  0  0  0
   10.9653   -1.4842    1.6684 H   0  0  0  0  0  0  0  0  0  0  0  0
    8.1889   -0.8243   -0.6703 H   0  0  0  0  0  0  0  0  0  0  0  0
    5.9026   -1.1463   -1.4469 H   0  0  0  0  0  0  0  0  0  0  0  0
    3.1731   -2.5928    0.5986 H   0  0  0  0  0  0  0  0  0  0  0  0
    3.6672   -2.1247   -1.0268 H   0  0  0  0  0  0  0  0  0  0  0  0
    3.4912    0.2838    0.2494 H   0  0  0  0  0  0  0  0  0  0  0  0
    1.5993    1.5632   -0.7673 H   0  0  0  0  0  0  0  0  0  0  0  0
    1.1451    1.2522    0.9244 H   0  0  0  0  0  0  0  0  0  0  0  0
   -2.8906    2.0157   -3.9270 H   0  0  0  0  0  0  0  0  0  0  0  0
   -1.1674    1.7187   -4.2366 H   0  0  0  0  0  0  0  0  0  0  0  0
   -2.3093    0.3595   -4.2674 H   0  0  0  0  0  0  0  0  0  0  0  0
   -4.5200    0.0732   -3.6072 H   0  0  0  0  0  0  0  0  0  0  0  0
   -5.9633   -0.1685   -2.6667 H   0  0  0  0  0  0  0  0  0  0  0  0
   -5.4632    1.4872   -3.1216 H   0  0  0  0  0  0  0  0  0  0  0  0
   -7.0819    1.4574   -1.5107 H   0  0  0  0  0  0  0  0  0  0  0  0
   -9.3328    1.4266   -0.6166 H   0  0  0  0  0  0  0  0  0  0  0  0
  -10.9228    0.4753    1.0359 H   0  0  0  0  0  0  0  0  0  0  0  0
  -10.3381   -0.2614    2.5266 H   0  0  0  0  0  0  0  0  0  0  0  0
  -10.3429    1.5127    2.3614 H   0  0  0  0  0  0  0  0  0  0  0  0
   -7.8877   -0.2912    3.0558 H   0  0  0  0  0  0  0  0  0  0  0  0
   -5.6140   -0.3124    2.1602 H   0  0  0  0  0  0  0  0  0  0  0  0
    4.6445   -2.0578    2.5776 H   0  0  0  0  0  0  0  0  0  0  0  0
    6.9657   -1.7664    3.3498 H   0  0  0  0  0  0  0  0  0  0  0  0
  1  2  1  0
  2  3  1  0
  3  4  1  0
  4  5  2  0
  5  6  1  0
  6  7  2  0
  7  8  1  0
  8  9  1  0
  9 10  1  0
 10 11  2  0
 10 12  1  0
 12 13  1  0
 13 14  1  0
 14 15  2  0
 15 16  1  0
 15 17  1  0
 17 18  2  0
 18 19  1  0
 18 20  1  0
 20 21  1  0
 21 22  2  0
 22 23  1  0
 23 24  2  0
 24 25  1  0
 24 26  1  0
 26 27  2  0
 20 28  1  0
 28 29  2  0
 29 30  1  0
 30 31  2  0
  7 32  1  0
 32 33  2  0
 33  4  1  0
 30 13  1  0
 29 17  1  0
 27 21  1  0
  1 34  1  0
  1 35  1  0
  1 36  1  0
  2 37  1  0
  2 38  1  0
  5 39  1  0
  6 40  1  0
  8 41  1  0
  8 42  1  0
  9 43  1  0
 12 44  1  0
 12 45  1  0
 16 46  1  0
 16 47  1  0
 16 48  1  0
 19 49  1  0
 19 50  1  0
 19 51  1  0
 22 52  1  0
 23 53  1  0
 25 54  1  0
 25 55  1  0
 25 56  1  0
 26 57  1  0
 27 58  1  0
 32 59  1  0
 33 60  1  0
M  END
$$$$
