
     RDKit          3D

 48 50  0  0  0  0  0  0  0  0999 V2000
    9.1748    1.3739    0.7434 C   0  0  0  0  0  0  0  0  0  0  0  0
    7.7056    1.5240    0.5945 C   0  0  0  0  0  0  0  0  0  0  0  0
    7.0065    2.7025    0.4184 C   0  0  0  0  0  0  0  0  0  0  0  0
    5.3307    2.3715    0.2936 S   0  0  0  0  0  0  0  0  0  0  0  0
    5.6530    0.7115    0.4770 C   0  0  0  0  0  0  0  0  0  0  0  0
    4.6788   -0.2524    0.4760 N   0  0  0  0  0  0  0  0  0  0  0  0
    3.3227   -0.0695    0.3230 C   0  0  0  0  0  0  0  0  0  0  0  0
    2.7287    0.9906    0.1658 O   0  0  0  0  0  0  0  0  0  0  0  0
    2.5779   -1.3890    0.3910 C   0  0  0  0  0  0  0  0  0  0  0  0
    1.0958   -1.1969    0.1032 C   0  0  0  0  0  0  0  0  0  0  0  0
    0.4153   -2.4907    0.1987 N   0  0  0  0  0  0  0  0  0  0  0  0
   -0.5970   -3.0122   -1.0261 S   0  0  0  0  0  6  0  0  0  0  0  0
   -1.2085   -4.2384   -0.5686 O   0  0  0  0  0  0  0  0  0  0  0  0
    0.1414   -2.9384   -2.2667 O   0  0  0  0  0  0  0  0  0  0  0  0
   -1.8543   -1.7606   -1.0481 C   0  0  0  0  0  0  0  0  0  0  0  0
   -1.9584   -0.8848   -2.1270 C   0  0  0  0  0  0  0  0  0  0  0  0
   -2.9600    0.0931   -2.1299 C   0  0  0  0  0  0  0  0  0  0  0  0
   -3.8674    0.2043   -1.0620 C   0  0  0  0  0  0  0  0  0  0  0  0
   -3.7453   -0.6882    0.0030 C   0  0  0  0  0  0  0  0  0  0  0  0
   -2.7491   -1.6760    0.0170 C   0  0  0  0  0  0  0  0  0  0  0  0
   -4.6743   -0.5862    1.1379 C   0  0  0  0  0  0  0  0  0  0  0  0
   -4.4991   -1.3102    2.1154 O   0  0  0  0  0  0  0  0  0  0  0  0
   -5.6902    0.3490    1.0298 N   0  0  0  0  0  0  0  0  0  0  0  0
   -6.6343    0.4523    2.1275 C   0  0  0  0  0  0  0  0  0  0  0  0
   -5.8034    1.2874    0.0106 C   0  0  0  0  0  0  0  0  0  0  0  0
   -6.6704    2.1642    0.0397 O   0  0  0  0  0  0  0  0  0  0  0  0
   -4.8879    1.1916   -1.0344 N   0  0  0  0  0  0  0  0  0  0  0  0
   -4.9942    2.1485   -2.1293 C   0  0  0  0  0  0  0  0  0  0  0  0
    6.9155    0.3850    0.6264 N   0  0  0  0  0  0  0  0  0  0  0  0
    9.5900    0.8499   -0.1230 H   0  0  0  0  0  0  0  0  0  0  0  0
    9.6699    2.3465    0.8261 H   0  0  0  0  0  0  0  0  0  0  0  0
    9.4083    0.7955    1.6428 H   0  0  0  0  0  0  0  0  0  0  0  0
    7.3865    3.7122    0.3586 H   0  0  0  0  0  0  0  0  0  0  0  0
    5.0545   -1.1838    0.5910 H   0  0  0  0  0  0  0  0  0  0  0  0
    2.7181   -1.8171    1.3908 H   0  0  0  0  0  0  0  0  0  0  0  0
    3.0140   -2.0820   -0.3389 H   0  0  0  0  0  0  0  0  0  0  0  0
    0.6421   -0.5120    0.8283 H   0  0  0  0  0  0  0  0  0  0  0  0
    0.9692   -0.7540   -0.8905 H   0  0  0  0  0  0  0  0  0  0  0  0
    0.2480   -2.9132    1.1108 H   0  0  0  0  0  0  0  0  0  0  0  0
   -1.2704   -0.9518   -2.9683 H   0  0  0  0  0  0  0  0  0  0  0  0
   -3.0055    0.7568   -2.9894 H   0  0  0  0  0  0  0  0  0  0  0  0
   -2.6788   -2.3721    0.8513 H   0  0  0  0  0  0  0  0  0  0  0  0
   -6.3385    1.2961    2.7593 H   0  0  0  0  0  0  0  0  0  0  0  0
   -6.6554   -0.4576    2.7336 H   0  0  0  0  0  0  0  0  0  0  0  0
   -7.6420    0.6391    1.7426 H   0  0  0  0  0  0  0  0  0  0  0  0
   -4.0625    2.7181   -2.2060 H   0  0  0  0  0  0  0  0  0  0  0  0
   -5.1914    1.6110   -3.0623 H   0  0  0  0  0  0  0  0  0  0  0  0
   -5.8087    2.8626   -1.9795 H   0  0  0  0  0  0  0  0  0  0  0  0
  1  2  1  0
  2  3  2  0
  3  4  1  0
  4  5  1  0
  5  6  1  0
  6  7  1  0
  7  8  2  0
  7  9  1  0
  9 10  1  0
 10 11  1  0
 11 12  1  0
 12 13  2  0
 12 14  2  0
 12 15  1  0
 15 16  2  0
 16 17  1  0
 17 18  2  0
 18 19  1  0
 19 20  2  0
 19 21  1  0
 21 22  2  0
 21 23  1  0
 23 24  1  0
 23 25  1  0
 25 26  2  0
 25 27  1  0
 27 28  1  0
  5 29  2  0
 29  2  1  0
 20 15  1  0
 27 18  1  0
  1 30  1  0
  1 31  1  0
  1 32  1  0
  3 33  1  0
  6 34  1  0
  9 35  1  0
  9 36  1  0
 10 37  1  0
 10 38  1  0
 11 39  1  0
 16 40  1  0
 17 41  1  0
 20 42  1  0
 24 43  1  0
 24 44  1  0
 24 45  1  0
 28 46  1  0
 28 47  1  0
 28 48  1  0
M  END
$$$$
