
     RDKit          3D

 57 61  0  0  0  0  0  0  0  0999 V2000
    6.4294    0.7280    1.1278 C   0  0  0  0  0  0  0  0  0  0  0  0
    4.9205    0.9589    0.9985 C   0  0  0  0  0  0  0  0  0  0  0  0
    4.6666    2.3529    0.4278 C   0  0  0  0  0  0  0  0  0  0  0  0
    4.2837   -0.1149    0.1092 C   0  0  0  0  0  0  0  0  0  0  0  0
    4.9876   -0.8451   -0.5937 O   0  0  0  0  0  0  0  0  0  0  0  0
    2.8955   -0.2282    0.0851 N   0  0  0  0  0  0  0  0  0  0  0  0
    1.9626    0.4749    0.9610 C   0  0  0  0  0  0  0  0  0  0  0  0
    0.8358   -0.4361    1.4430 C   0  0  0  0  0  0  0  0  0  0  0  0
    0.0562   -1.1402    0.2891 C   0  0  0  0  0  0  0  0  0  0  0  0
    0.8319   -1.0082   -1.0457 C   0  0  0  0  0  0  0  0  0  0  0  0
    2.3277   -1.2118   -0.8328 C   0  0  0  0  0  0  0  0  0  0  0  0
    0.0758   -2.5438    0.6806 O   0  0  0  0  0  0  0  0  0  0  0  0
   -0.8397   -3.3814    0.1150 C   0  0  0  0  0  0  0  0  0  0  0  0
   -0.6266   -4.7466    0.3135 C   0  0  0  0  0  0  0  0  0  0  0  0
   -1.4986   -5.6788   -0.2520 C   0  0  0  0  0  0  0  0  0  0  0  0
   -2.5790   -5.2387   -1.0105 C   0  0  0  0  0  0  0  0  0  0  0  0
   -3.4095   -6.1366   -1.5551 F   0  0  0  0  0  0  0  0  0  0  0  0
   -2.8105   -3.8841   -1.2085 C   0  0  0  0  0  0  0  0  0  0  0  0
   -1.9384   -2.9596   -0.6292 C   0  0  0  0  0  0  0  0  0  0  0  0
   -2.1584   -1.5175   -0.7965 C   0  0  0  0  0  0  0  0  0  0  0  0
   -2.9007   -1.1085   -1.6850 O   0  0  0  0  0  0  0  0  0  0  0  0
   -1.4046   -0.6178    0.1753 C   0  0  0  0  0  0  0  0  0  0  0  0
   -1.5428    0.8486   -0.2043 C   0  0  0  0  0  0  0  0  0  0  0  0
   -2.7200    1.1929    0.6445 C   0  0  0  0  0  0  0  0  0  0  0  0
   -3.4925    2.4437    0.4562 C   0  0  0  0  0  0  0  0  0  0  0  0
   -4.6232    2.6671    1.2543 C   0  0  0  0  0  0  0  0  0  0  0  0
   -5.3722    3.8378    1.1068 C   0  0  0  0  0  0  0  0  0  0  0  0
   -4.9912    4.7872    0.1619 C   0  0  0  0  0  0  0  0  0  0  0  0
   -5.9094    6.2297   -0.0213 Cl  0  0  0  0  0  0  0  0  0  0  0  0
   -3.8678    4.5755   -0.6362 C   0  0  0  0  0  0  0  0  0  0  0  0
   -3.1162    3.4043   -0.4902 C   0  0  0  0  0  0  0  0  0  0  0  0
   -2.9828    0.3338    1.5772 N   0  0  0  0  0  0  0  0  0  0  0  0
   -2.0629   -0.7297    1.4495 O   0  0  0  0  0  0  0  0  0  0  0  0
    6.9347    0.8148    0.1594 H   0  0  0  0  0  0  0  0  0  0  0  0
    6.8772    1.4584    1.8100 H   0  0  0  0  0  0  0  0  0  0  0  0
    6.6370   -0.2725    1.5230 H   0  0  0  0  0  0  0  0  0  0  0  0
    4.5060    0.8796    2.0080 H   0  0  0  0  0  0  0  0  0  0  0  0
    5.1475    3.1196    1.0445 H   0  0  0  0  0  0  0  0  0  0  0  0
    5.0621    2.4383   -0.5907 H   0  0  0  0  0  0  0  0  0  0  0  0
    3.6005    2.5898    0.3806 H   0  0  0  0  0  0  0  0  0  0  0  0
    1.5589    1.3171    0.3892 H   0  0  0  0  0  0  0  0  0  0  0  0
    2.4716    0.8934    1.8305 H   0  0  0  0  0  0  0  0  0  0  0  0
    0.1655    0.1547    2.0772 H   0  0  0  0  0  0  0  0  0  0  0  0
    1.2762   -1.1910    2.1093 H   0  0  0  0  0  0  0  0  0  0  0  0
    0.4895   -1.7485   -1.7774 H   0  0  0  0  0  0  0  0  0  0  0  0
    0.6704   -0.0192   -1.4910 H   0  0  0  0  0  0  0  0  0  0  0  0
    2.5338   -2.2077   -0.4226 H   0  0  0  0  0  0  0  0  0  0  0  0
    2.8473   -1.1424   -1.7958 H   0  0  0  0  0  0  0  0  0  0  0  0
    0.2225   -5.0859    0.9023 H   0  0  0  0  0  0  0  0  0  0  0  0
   -1.3413   -6.7435   -0.1079 H   0  0  0  0  0  0  0  0  0  0  0  0
   -3.6649   -3.5628   -1.7966 H   0  0  0  0  0  0  0  0  0  0  0  0
   -1.7171    1.0208   -1.2685 H   0  0  0  0  0  0  0  0  0  0  0  0
   -0.7044    1.4634    0.1314 H   0  0  0  0  0  0  0  0  0  0  0  0
   -4.9314    1.9304    1.9946 H   0  0  0  0  0  0  0  0  0  0  0  0
   -6.2482    3.9985    1.7301 H   0  0  0  0  0  0  0  0  0  0  0  0
   -3.5731    5.3175   -1.3744 H   0  0  0  0  0  0  0  0  0  0  0  0
   -2.2465    3.2694   -1.1259 H   0  0  0  0  0  0  0  0  0  0  0  0
  1  2  1  0
  2  3  1  0
  2  4  1  0
  4  5  2  0
  4  6  1  0
  6  7  1  0
  7  8  1  0
  8  9  1  0
  9 10  1  0
 10 11  1  0
  9 12  1  0
 12 13  1  0
 13 14  2  0
 14 15  1  0
 15 16  2  0
 16 17  1  0
 16 18  1  0
 18 19  2  0
 19 20  1  0
 20 21  2  0
 20 22  1  0
 22 23  1  0
 23 24  1  0
 24 25  1  0
 25 26  2  0
 26 27  1  0
 27 28  2  0
 28 29  1  0
 28 30  1  0
 30 31  2  0
 24 32  2  0
 32 33  1  0
 11  6  1  0
 19 13  1  0
 33 22  1  0
 22  9  1  0
 31 25  1  0
  1 34  1  0
  1 35  1  0
  1 36  1  0
  2 37  1  0
  3 38  1  0
  3 39  1  0
  3 40  1  0
  7 41  1  0
  7 42  1  0
  8 43  1  0
  8 44  1  0
 10 45  1  0
 10 46  1  0
 11 47  1  0
 11 48  1  0
 14 49  1  0
 15 50  1  0
 18 51  1  0
 23 52  1  0
 23 53  1  0
 26 54  1  0
 27 55  1  0
 30 56  1  0
 31 57  1  0
M  END
$$$$
