
     RDKit          3D

 37 39  0  0  0  0  0  0  0  0999 V2000
   -4.8311   -2.3650    0.7805 C   0  0  0  0  0  0  0  0  0  0  0  0
   -4.3566   -1.4783   -0.3574 C   0  0  0  0  0  0  0  0  0  0  0  0
   -4.0990   -0.1164    0.0789 N   0  0  0  0  0  0  0  0  0  0  0  0
   -5.1293    0.7613    0.0684 N   0  0  0  0  0  0  0  0  0  0  0  0
   -4.5776    1.9012    0.4812 C   0  0  0  0  0  0  0  0  0  0  0  0
   -3.2085    1.7555    0.7386 C   0  0  0  0  0  0  0  0  0  0  0  0
   -2.1346    3.1385    1.3998 Br  0  0  0  0  0  0  0  0  0  0  0  0
   -2.8914    0.4433    0.4541 C   0  0  0  0  0  0  0  0  0  0  0  0
   -1.6427   -0.2893    0.5275 C   0  0  0  0  0  0  0  0  0  0  0  0
   -1.6335   -1.4820    0.8096 O   0  0  0  0  0  0  0  0  0  0  0  0
   -0.5372    0.4685    0.1970 N   0  0  0  0  0  0  0  0  0  0  0  0
    0.7922    0.0669    0.1517 C   0  0  0  0  0  0  0  0  0  0  0  0
    1.2686   -1.4916    0.6804 S   0  0  0  0  0  0  0  0  0  0  0  0
    2.8646   -1.1502    0.3549 C   0  0  0  0  0  0  0  0  0  0  0  0
    3.0802    0.1048   -0.1429 C   0  0  0  0  0  0  0  0  0  0  0  0
    1.8676    0.8436   -0.2992 C   0  0  0  0  0  0  0  0  0  0  0  0
    1.6773    2.1937   -0.8236 C   0  0  0  0  0  0  0  0  0  0  0  0
    2.7497    2.7828   -1.4265 N   0  0  0  0  0  0  0  0  0  0  0  0
    0.6021    2.7862   -0.7771 O   0  0  0  0  0  0  0  0  0  0  0  0
    4.5347    0.3245   -0.3698 C   0  0  0  0  0  0  0  0  0  0  0  0
    5.1860   -0.8691    0.3947 C   0  0  0  0  0  0  0  0  0  0  0  0
    4.0888   -1.9647    0.5269 C   0  0  0  0  0  0  0  0  0  0  0  0
   -4.9820   -3.3883    0.4267 H   0  0  0  0  0  0  0  0  0  0  0  0
   -4.1071   -2.3914    1.5999 H   0  0  0  0  0  0  0  0  0  0  0  0
   -5.7810   -2.0055    1.1877 H   0  0  0  0  0  0  0  0  0  0  0  0
   -5.1187   -1.4335   -1.1449 H   0  0  0  0  0  0  0  0  0  0  0  0
   -3.4485   -1.8749   -0.8214 H   0  0  0  0  0  0  0  0  0  0  0  0
   -5.2011    2.7808    0.5822 H   0  0  0  0  0  0  0  0  0  0  0  0
   -0.6942    1.4359   -0.0865 H   0  0  0  0  0  0  0  0  0  0  0  0
    3.5465    2.2501   -1.7343 H   0  0  0  0  0  0  0  0  0  0  0  0
    2.5655    3.6612   -1.8948 H   0  0  0  0  0  0  0  0  0  0  0  0
    4.8873    1.2792    0.0298 H   0  0  0  0  0  0  0  0  0  0  0  0
    4.7692    0.2644   -1.4370 H   0  0  0  0  0  0  0  0  0  0  0  0
    5.4788   -0.5336    1.3989 H   0  0  0  0  0  0  0  0  0  0  0  0
    6.0881   -1.2389   -0.1024 H   0  0  0  0  0  0  0  0  0  0  0  0
    4.1817   -2.6998   -0.2795 H   0  0  0  0  0  0  0  0  0  0  0  0
    4.1453   -2.4699    1.4948 H   0  0  0  0  0  0  0  0  0  0  0  0
  1  2  1  0
  2  3  1  0
  3  4  1  0
  4  5  2  0
  5  6  1  0
  6  7  1  0
  6  8  2  0
  8  9  1  0
  9 10  2  0
  9 11  1  0
 11 12  1  0
 12 13  1  0
 13 14  1  0
 14 15  2  0
 15 16  1  0
 16 17  1  0
 17 18  1  0
 17 19  2  0
 15 20  1  0
 20 21  1  0
 21 22  1  0
  8  3  1  0
 16 12  2  0
 22 14  1  0
  1 23  1  0
  1 24  1  0
  1 25  1  0
  2 26  1  0
  2 27  1  0
  5 28  1  0
 11 29  1  0
 18 30  1  0
 18 31  1  0
 20 32  1  0
 20 33  1  0
 21 34  1  0
 21 35  1  0
 22 36  1  0
 22 37  1  0
M  END
$$$$
