
     RDKit          3D

 87 91  0  0  0  0  0  0  0  0999 V2000
    1.5535    7.0290   -4.2795 C   0  0  0  0  0  0  0  0  0  0  0  0
    2.1504    6.1624   -3.1840 C   0  0  0  0  0  0  0  0  0  0  0  0
    1.1276    5.7888   -2.1378 C   0  0  0  0  0  0  0  0  0  0  0  0
   -0.0006    6.2508   -2.0508 O   0  0  0  0  0  0  0  0  0  0  0  0
    1.6629    4.8572   -1.2987 O   0  0  0  0  0  0  0  0  0  0  0  0
    0.8195    4.4223   -0.2168 C   0  0  0  0  0  0  0  0  0  0  0  0
   -0.1399    3.3292   -0.6818 C   0  0  1  0  0  0  0  0  0  0  0  0
    0.5820    2.1060   -1.2968 C   0  0  0  0  0  0  0  0  0  0  0  0
   -0.3128    0.8528   -1.0240 C   0  0  2  0  0  0  0  0  0  0  0  0
    0.3471   -0.0233   -0.0951 O   0  0  0  0  0  0  0  0  0  0  0  0
    1.5575   -0.5382   -0.4290 C   0  0  0  0  0  0  0  0  0  0  0  0
    2.1985   -0.3036   -1.4389 O   0  0  0  0  0  0  0  0  0  0  0  0
    1.9603   -1.4888    0.6235 C   0  0  0  0  0  0  0  0  0  0  0  0
    2.9377   -2.3748    0.3822 C   0  0  0  0  0  0  0  0  0  0  0  0
    3.3841   -3.3888    1.3463 C   0  0  0  0  0  0  0  0  0  0  0  0
    2.5068   -4.0098    2.2461 C   0  0  0  0  0  0  0  0  0  0  0  0
    2.9671   -4.9967    3.1214 C   0  0  0  0  0  0  0  0  0  0  0  0
    4.3056   -5.3829    3.0975 C   0  0  0  0  0  0  0  0  0  0  0  0
    5.1841   -4.7854    2.1963 C   0  0  0  0  0  0  0  0  0  0  0  0
    4.7245   -3.7970    1.3228 C   0  0  0  0  0  0  0  0  0  0  0  0
   -0.8205    0.1978   -2.3455 C   0  0  0  0  0  0  0  0  0  0  0  0
   -1.5316    0.8176   -3.1431 O   0  0  0  0  0  0  0  0  0  0  0  0
   -0.3791   -1.1711   -2.7423 C   0  0  0  0  0  0  0  0  0  0  0  0
    0.4733   -1.1752   -3.9800 C   0  0  0  0  0  0  0  0  0  0  0  0
   -0.7183   -2.3062   -2.1033 C   0  0  0  0  0  0  0  0  0  0  0  0
   -1.5776   -2.5643   -0.9326 C   0  0  0  0  0  0  0  0  0  0  0  0
   -3.0860   -2.4212   -0.9889 C   0  0  2  0  0  0  0  0  0  0  0  0
   -4.0267   -2.0354    0.1288 C   0  0  0  0  0  0  0  0  0  0  0  0
   -3.4418   -1.5677    1.4620 C   0  0  0  0  0  0  0  0  0  0  0  0
   -2.4467   -0.4250    1.3995 C   0  0  2  0  0  0  0  0  0  0  0  0
   -1.2996   -0.5713    2.3536 C   0  0  0  0  0  0  0  0  0  0  0  0
   -3.0511    0.8831    1.5436 O   0  0  0  0  0  0  0  0  0  0  0  0
   -2.5614    0.5799    0.2442 C   0  0  1  0  0  0  0  0  0  0  0  0
   -1.5545    1.5024   -0.3467 C   0  0  1  0  0  0  0  0  0  0  0  0
   -1.0435    2.7292    0.4104 C   0  0  1  0  0  0  0  0  0  0  0  0
   -0.2776    2.3636    1.5631 O   0  0  0  0  0  0  0  0  0  0  0  0
   -0.3063    3.2396    2.6085 C   0  0  0  0  0  0  0  0  0  0  0  0
   -0.8481    4.3343    2.5948 O   0  0  0  0  0  0  0  0  0  0  0  0
    0.4673    2.6628    3.7696 C   0  0  0  0  0  0  0  0  0  0  0  0
    0.4857    3.5997    4.9654 C   0  0  0  0  0  0  0  0  0  0  0  0
   -2.4651   -3.8128   -1.0056 C   0  0  0  0  0  0  0  0  0  0  0  0
   -2.4694   -4.7078    0.2113 C   0  0  0  0  0  0  0  0  0  0  0  0
   -2.6600   -4.5919   -2.2906 C   0  0  0  0  0  0  0  0  0  0  0  0
    2.3140    7.2732   -5.0282 H   0  0  0  0  0  0  0  0  0  0  0  0
    1.1598    7.9670   -3.8725 H   0  0  0  0  0  0  0  0  0  0  0  0
    0.7306    6.5109   -4.7834 H   0  0  0  0  0  0  0  0  0  0  0  0
    2.5435    5.2423   -3.6308 H   0  0  0  0  0  0  0  0  0  0  0  0
    2.9690    6.6982   -2.6917 H   0  0  0  0  0  0  0  0  0  0  0  0
    0.2790    5.2742    0.2132 H   0  0  0  0  0  0  0  0  0  0  0  0
    1.4949    4.0463    0.5594 H   0  0  0  0  0  0  0  0  0  0  0  0
   -0.7796    3.7478   -1.4725 H   0  0  0  0  0  0  0  0  0  0  0  0
    0.7413    2.2702   -2.3683 H   0  0  0  0  0  0  0  0  0  0  0  0
    1.5689    2.0106   -0.8313 H   0  0  0  0  0  0  0  0  0  0  0  0
    1.4300   -1.4419    1.5635 H   0  0  0  0  0  0  0  0  0  0  0  0
    3.4568   -2.3695   -0.5753 H   0  0  0  0  0  0  0  0  0  0  0  0
    1.4522   -3.7473    2.2691 H   0  0  0  0  0  0  0  0  0  0  0  0
    2.2785   -5.4719    3.8157 H   0  0  0  0  0  0  0  0  0  0  0  0
    4.6619   -6.1552    3.7742 H   0  0  0  0  0  0  0  0  0  0  0  0
    6.2272   -5.0912    2.1678 H   0  0  0  0  0  0  0  0  0  0  0  0
    5.4280   -3.3446    0.6259 H   0  0  0  0  0  0  0  0  0  0  0  0
   -0.1264   -0.9034   -4.8546 H   0  0  0  0  0  0  0  0  0  0  0  0
    0.9184   -2.1576   -4.1711 H   0  0  0  0  0  0  0  0  0  0  0  0
    1.2927   -0.4553   -3.8929 H   0  0  0  0  0  0  0  0  0  0  0  0
   -0.2820   -3.2177   -2.5184 H   0  0  0  0  0  0  0  0  0  0  0  0
   -1.0750   -2.3873    0.0107 H   0  0  0  0  0  0  0  0  0  0  0  0
   -3.4996   -2.0591   -1.9307 H   0  0  0  0  0  0  0  0  0  0  0  0
   -4.6956   -2.8837    0.3252 H   0  0  0  0  0  0  0  0  0  0  0  0
   -4.6935   -1.2501   -0.2500 H   0  0  0  0  0  0  0  0  0  0  0  0
   -2.9750   -2.4239    1.9603 H   0  0  0  0  0  0  0  0  0  0  0  0
   -4.2705   -1.2723    2.1206 H   0  0  0  0  0  0  0  0  0  0  0  0
   -1.6569   -0.4759    3.3857 H   0  0  0  0  0  0  0  0  0  0  0  0
   -0.8412   -1.5606    2.2551 H   0  0  0  0  0  0  0  0  0  0  0  0
   -0.5146    0.1637    2.2080 H   0  0  0  0  0  0  0  0  0  0  0  0
   -3.3199    0.3882   -0.5098 H   0  0  0  0  0  0  0  0  0  0  0  0
   -2.1463    1.9670   -1.1554 H   0  0  0  0  0  0  0  0  0  0  0  0
   -1.8747    3.3957    0.6682 H   0  0  0  0  0  0  0  0  0  0  0  0
    0.0016    1.7171    4.0638 H   0  0  0  0  0  0  0  0  0  0  0  0
    1.4943    2.4721    3.4401 H   0  0  0  0  0  0  0  0  0  0  0  0
    1.0512    3.1530    5.7892 H   0  0  0  0  0  0  0  0  0  0  0  0
   -0.5309    3.8045    5.3195 H   0  0  0  0  0  0  0  0  0  0  0  0
    0.9516    4.5569    4.7104 H   0  0  0  0  0  0  0  0  0  0  0  0
   -3.4753   -5.0971    0.3964 H   0  0  0  0  0  0  0  0  0  0  0  0
   -2.1232   -4.2003    1.1140 H   0  0  0  0  0  0  0  0  0  0  0  0
   -1.8004   -5.5603    0.0557 H   0  0  0  0  0  0  0  0  0  0  0  0
   -1.8314   -5.2907   -2.4404 H   0  0  0  0  0  0  0  0  0  0  0  0
   -2.7197   -3.9445   -3.1710 H   0  0  0  0  0  0  0  0  0  0  0  0
   -3.5908   -5.1670   -2.2424 H   0  0  0  0  0  0  0  0  0  0  0  0
  1  2  1  0
  2  3  1  0
  3  4  2  0
  3  5  1  0
  5  6  1  0
  6  7  1  0
  7  8  1  0
  8  9  1  0
  9 10  1  1
 10 11  1  0
 11 12  2  0
 11 13  1  0
 13 14  2  0
 14 15  1  0
 15 16  2  0
 16 17  1  0
 17 18  2  0
 18 19  1  0
 19 20  2  0
  9 21  1  0
 21 22  2  0
 21 23  1  0
 23 24  1  0
 23 25  2  3
 25 26  1  0
 26 27  1  0
 27 28  1  0
 28 29  1  0
 29 30  1  0
 30 31  1  1
 30 32  1  0
 32 33  1  0
 33 34  1  0
 34 35  1  0
 35 36  1  0
 36 37  1  0
 37 38  2  0
 37 39  1  0
 39 40  1  0
 27 41  1  0
 41 42  1  0
 41 43  1  0
 35  7  1  0
 34  9  1  0
 20 15  1  0
 41 26  1  0
 33 30  1  0
  1 44  1  0
  1 45  1  0
  1 46  1  0
  2 47  1  0
  2 48  1  0
  6 49  1  0
  6 50  1  0
  7 51  1  6
  8 52  1  0
  8 53  1  0
 13 54  1  0
 14 55  1  0
 16 56  1  0
 17 57  1  0
 18 58  1  0
 19 59  1  0
 20 60  1  0
 24 61  1  0
 24 62  1  0
 24 63  1  0
 25 64  1  0
 26 65  1  0
 27 66  1  6
 28 67  1  0
 28 68  1  0
 29 69  1  0
 29 70  1  0
 31 71  1  0
 31 72  1  0
 31 73  1  0
 33 74  1  6
 34 75  1  6
 35 76  1  1
 39 77  1  0
 39 78  1  0
 40 79  1  0
 40 80  1  0
 40 81  1  0
 42 82  1  0
 42 83  1  0
 42 84  1  0
 43 85  1  0
 43 86  1  0
 43 87  1  0
M  END
$$$$
