
     RDKit          3D

 57 61  0  0  0  0  0  0  0  0999 V2000
   -7.3650    2.8108    0.0681 C   0  0  0  0  0  0  0  0  0  0  0  0
   -6.3217    2.2221    0.9722 C   0  0  0  0  0  0  0  0  0  0  0  0
   -6.6194    1.1321    1.7977 C   0  0  0  0  0  0  0  0  0  0  0  0
   -5.6371    0.5754    2.6214 C   0  0  0  0  0  0  0  0  0  0  0  0
   -4.3352    1.0970    2.6271 C   0  0  0  0  0  0  0  0  0  0  0  0
   -3.2663    0.4729    3.4897 C   0  0  0  0  0  0  0  0  0  0  0  0
   -2.6634   -0.6702    2.8359 N   0  0  0  0  0  0  0  0  0  0  0  0
   -3.0477   -1.9362    3.1493 N   0  0  0  0  0  0  0  0  0  0  0  0
   -2.3386   -2.7758    2.3901 N   0  0  0  0  0  0  0  0  0  0  0  0
   -1.5002   -2.0196    1.6253 C   0  0  0  0  0  0  0  0  0  0  0  0
   -0.5279   -2.3924    0.6323 C   0  0  0  0  0  0  0  0  0  0  0  0
   -0.2749   -3.5361    0.2667 O   0  0  0  0  0  0  0  0  0  0  0  0
    0.1302   -1.2855    0.0970 N   0  0  0  0  0  0  0  0  0  0  0  0
   -0.1220    0.0301    0.4715 C   0  0  0  0  0  0  0  0  0  0  0  0
    0.7204    1.1210   -0.1831 C   0  0  0  0  0  0  0  0  0  0  0  0
    2.1566    1.0936    0.3534 C   0  0  0  0  0  0  0  0  0  0  0  0
    3.0849    0.1503   -0.4038 C   0  0  0  0  0  0  0  0  0  0  0  0
    2.9408    0.2573   -1.8877 N   0  0  0  0  0  0  0  0  0  0  0  0
    4.4308    0.2625   -2.7605 S   0  0  0  0  0  6  0  0  0  0  0  0
    4.1278    0.2578   -4.1760 O   0  0  0  0  0  0  0  0  0  0  0  0
    5.2612    1.2969   -2.1726 O   0  0  0  0  0  0  0  0  0  0  0  0
    5.1143   -1.3263   -2.3591 C   0  0  0  0  0  0  0  0  0  0  0  0
    6.2794   -1.4182   -1.5924 C   0  0  0  0  0  0  0  0  0  0  0  0
    6.8294   -2.6796   -1.3342 C   0  0  0  0  0  0  0  0  0  0  0  0
    6.2142   -3.8340   -1.8341 C   0  0  0  0  0  0  0  0  0  0  0  0
    5.0407   -3.7347   -2.5822 C   0  0  0  0  0  0  0  0  0  0  0  0
    4.4910   -2.4780   -2.8570 C   0  0  0  0  0  0  0  0  0  0  0  0
    2.0143    1.3265   -2.3448 C   0  0  0  0  0  0  0  0  0  0  0  0
    0.6475    1.0938   -1.7144 C   0  0  0  0  0  0  0  0  0  0  0  0
   -1.0020    0.3773    1.3729 N   0  0  0  0  0  0  0  0  0  0  0  0
   -1.6634   -0.6820    1.9036 C   0  0  0  0  0  0  0  0  0  0  0  0
   -4.0359    2.1821    1.7910 C   0  0  0  0  0  0  0  0  0  0  0  0
   -5.0211    2.7401    0.9725 C   0  0  0  0  0  0  0  0  0  0  0  0
   -7.1438    2.5548   -0.9745 H   0  0  0  0  0  0  0  0  0  0  0  0
   -8.3651    2.4341    0.3126 H   0  0  0  0  0  0  0  0  0  0  0  0
   -7.3899    3.9028    0.1715 H   0  0  0  0  0  0  0  0  0  0  0  0
   -7.6185    0.7012    1.7988 H   0  0  0  0  0  0  0  0  0  0  0  0
   -5.8903   -0.2798    3.2491 H   0  0  0  0  0  0  0  0  0  0  0  0
   -3.6823    0.1403    4.4492 H   0  0  0  0  0  0  0  0  0  0  0  0
   -2.4729    1.1914    3.7227 H   0  0  0  0  0  0  0  0  0  0  0  0
    0.7935   -1.5087   -0.6343 H   0  0  0  0  0  0  0  0  0  0  0  0
    0.2819    2.0754    0.1491 H   0  0  0  0  0  0  0  0  0  0  0  0
    2.1707    0.8461    1.4210 H   0  0  0  0  0  0  0  0  0  0  0  0
    2.5681    2.1079    0.2775 H   0  0  0  0  0  0  0  0  0  0  0  0
    4.1129    0.3506   -0.0778 H   0  0  0  0  0  0  0  0  0  0  0  0
    2.8730   -0.8912   -0.1302 H   0  0  0  0  0  0  0  0  0  0  0  0
    6.7684   -0.5234   -1.2062 H   0  0  0  0  0  0  0  0  0  0  0  0
    7.7453   -2.7678   -0.7560 H   0  0  0  0  0  0  0  0  0  0  0  0
    6.6507   -4.8129   -1.6342 H   0  0  0  0  0  0  0  0  0  0  0  0
    4.5558   -4.6359   -2.9551 H   0  0  0  0  0  0  0  0  0  0  0  0
    3.5934   -2.4030   -3.4660 H   0  0  0  0  0  0  0  0  0  0  0  0
    2.4113    2.3116   -2.0834 H   0  0  0  0  0  0  0  0  0  0  0  0
    1.9005    1.2889   -3.4318 H   0  0  0  0  0  0  0  0  0  0  0  0
   -0.0447    1.8756   -2.0586 H   0  0  0  0  0  0  0  0  0  0  0  0
    0.2299    0.1463   -2.0848 H   0  0  0  0  0  0  0  0  0  0  0  0
   -3.0247    2.5886    1.7581 H   0  0  0  0  0  0  0  0  0  0  0  0
   -4.7653    3.5764    0.3260 H   0  0  0  0  0  0  0  0  0  0  0  0
  1  2  1  0
  2  3  2  0
  3  4  1  0
  4  5  2  0
  5  6  1  0
  6  7  1  0
  7  8  1  0
  8  9  2  0
  9 10  1  0
 10 11  1  0
 11 12  2  0
 11 13  1  0
 13 14  1  0
 14 15  1  0
 15 16  1  0
 16 17  1  0
 17 18  1  0
 18 19  1  0
 19 20  2  0
 19 21  2  0
 19 22  1  0
 22 23  2  0
 23 24  1  0
 24 25  2  0
 25 26  1  0
 26 27  2  0
 18 28  1  0
 28 29  1  0
 14 30  2  0
 30 31  1  0
  5 32  1  0
 32 33  2  0
 33  2  1  0
 31  7  1  0
 31 10  2  0
 29 15  1  0
 27 22  1  0
  1 34  1  0
  1 35  1  0
  1 36  1  0
  3 37  1  0
  4 38  1  0
  6 39  1  0
  6 40  1  0
 13 41  1  0
 15 42  1  0
 16 43  1  0
 16 44  1  0
 17 45  1  0
 17 46  1  0
 23 47  1  0
 24 48  1  0
 25 49  1  0
 26 50  1  0
 27 51  1  0
 28 52  1  0
 28 53  1  0
 29 54  1  0
 29 55  1  0
 32 56  1  0
 33 57  1  0
M  END
$$$$
