
     RDKit          3D

 74 80  0  0  0  0  0  0  0  0999 V2000
    1.6871    1.7605    1.1254 O   0  0  0  0  0  0  0  0  0  0  0  0
    2.0510    0.8327    0.0904 C   0  0  0  0  0  0  0  0  0  0  0  0
    2.7721   -0.3803    0.7037 C   0  0  0  0  0  0  0  0  0  0  0  0
    3.9512    0.0484    1.4613 N   0  0  0  0  0  0  0  0  0  0  0  0
    5.1568    0.3096    0.8424 C   0  0  0  0  0  0  0  0  0  0  0  0
    5.1999    0.4942   -0.4496 N   0  0  0  0  0  0  0  0  0  0  0  0
    6.4301    0.7462   -1.0913 C   0  0  0  0  0  0  0  0  0  0  0  0
    6.4303    0.9353   -2.4748 C   0  0  0  0  0  0  0  0  0  0  0  0
    7.6230    1.1786   -3.1607 C   0  0  0  0  0  0  0  0  0  0  0  0
    8.8322    1.2356   -2.4658 C   0  0  0  0  0  0  0  0  0  0  0  0
    8.8564    1.0518   -1.0827 C   0  0  0  0  0  0  0  0  0  0  0  0
    7.6555    0.8096   -0.4100 C   0  0  0  0  0  0  0  0  0  0  0  0
    7.5881    0.6174    0.9798 N   0  0  0  0  0  0  0  0  0  0  0  0
    8.5921    0.6270    1.9182 C   0  0  0  0  0  0  0  0  0  0  0  0
    8.0265    0.4081    3.1561 C   0  0  0  0  0  0  0  0  0  0  0  0
    6.6331    0.2547    2.9619 C   0  0  0  0  0  0  0  0  0  0  0  0
    6.3858    0.3799    1.6068 C   0  0  0  0  0  0  0  0  0  0  0  0
    0.8191    0.4287   -0.7543 C   0  0  0  0  0  0  0  0  0  0  0  0
   -0.0749   -0.5942   -0.1613 N   0  0  0  0  0  0  0  0  0  0  0  0
   -0.8489   -0.0766    0.9902 C   0  0  0  0  0  0  0  0  0  0  0  0
   -2.0243    0.8629    0.6237 C   0  0  0  0  0  0  0  0  0  0  0  0
   -2.9785    0.3001   -0.3646 N   0  0  0  0  0  0  0  0  0  0  0  0
   -3.8626   -0.7480    0.2274 C   0  0  0  0  0  0  0  0  0  0  0  0
   -4.6840   -0.2443    1.4213 C   0  0  0  0  0  0  0  0  0  0  0  0
   -4.5173   -0.8431    2.6847 C   0  0  0  0  0  0  0  0  0  0  0  0
   -5.2423   -0.3964    3.7896 C   0  0  0  0  0  0  0  0  0  0  0  0
   -6.1461    0.6518    3.6495 C   0  0  0  0  0  0  0  0  0  0  0  0
   -6.3300    1.2514    2.4043 C   0  0  0  0  0  0  0  0  0  0  0  0
   -5.6081    0.8107    1.2844 C   0  0  0  0  0  0  0  0  0  0  0  0
   -5.8339    1.4496   -0.0603 C   0  0  0  0  0  0  0  0  0  0  0  0
   -6.5107    0.5099   -1.0553 C   0  0  0  0  0  0  0  0  0  0  0  0
   -5.9171   -0.8457   -1.3899 C   0  0  0  0  0  0  0  0  0  0  0  0
   -6.6381   -1.5873   -2.3554 C   0  0  0  0  0  0  0  0  0  0  0  0
   -6.2618   -2.8753   -2.7300 C   0  0  0  0  0  0  0  0  0  0  0  0
   -5.1555   -3.4629   -2.1392 C   0  0  0  0  0  0  0  0  0  0  0  0
   -4.4271   -2.7536   -1.1859 C   0  0  0  0  0  0  0  0  0  0  0  0
   -4.7778   -1.4351   -0.8005 C   0  0  0  0  0  0  0  0  0  0  0  0
   -2.1918   -0.1666   -1.5261 C   0  0  0  0  0  0  0  0  0  0  0  0
   -1.0197   -1.1147   -1.1758 C   0  0  0  0  0  0  0  0  0  0  0  0
    2.5146    1.8996    1.6253 H   0  0  0  0  0  0  0  0  0  0  0  0
    2.7314    1.3808   -0.5712 H   0  0  0  0  0  0  0  0  0  0  0  0
    2.1089   -0.8831    1.4167 H   0  0  0  0  0  0  0  0  0  0  0  0
    3.0483   -1.1125   -0.0639 H   0  0  0  0  0  0  0  0  0  0  0  0
    4.0379   -0.4176    2.3578 H   0  0  0  0  0  0  0  0  0  0  0  0
    5.4907    0.8911   -3.0196 H   0  0  0  0  0  0  0  0  0  0  0  0
    7.6068    1.3239   -4.2380 H   0  0  0  0  0  0  0  0  0  0  0  0
    9.7572    1.4243   -3.0047 H   0  0  0  0  0  0  0  0  0  0  0  0
    9.8084    1.1013   -0.5644 H   0  0  0  0  0  0  0  0  0  0  0  0
    9.6246    0.7932    1.6462 H   0  0  0  0  0  0  0  0  0  0  0  0
    8.5615    0.3672    4.0961 H   0  0  0  0  0  0  0  0  0  0  0  0
    5.8952    0.0763    3.7325 H   0  0  0  0  0  0  0  0  0  0  0  0
    1.2226    0.0148   -1.6880 H   0  0  0  0  0  0  0  0  0  0  0  0
    0.2599    1.3322   -1.0230 H   0  0  0  0  0  0  0  0  0  0  0  0
   -1.2450   -0.9441    1.5333 H   0  0  0  0  0  0  0  0  0  0  0  0
   -0.1993    0.4172    1.7177 H   0  0  0  0  0  0  0  0  0  0  0  0
   -1.6201    1.7935    0.2050 H   0  0  0  0  0  0  0  0  0  0  0  0
   -2.5338    1.1802    1.5397 H   0  0  0  0  0  0  0  0  0  0  0  0
   -3.2100   -1.5343    0.6280 H   0  0  0  0  0  0  0  0  0  0  0  0
   -3.8160   -1.6640    2.8158 H   0  0  0  0  0  0  0  0  0  0  0  0
   -5.1021   -0.8675    4.7588 H   0  0  0  0  0  0  0  0  0  0  0  0
   -6.7125    1.0012    4.5088 H   0  0  0  0  0  0  0  0  0  0  0  0
   -7.0466    2.0642    2.3111 H   0  0  0  0  0  0  0  0  0  0  0  0
   -4.8992    1.8497   -0.4622 H   0  0  0  0  0  0  0  0  0  0  0  0
   -6.4772    2.3316    0.0599 H   0  0  0  0  0  0  0  0  0  0  0  0
   -7.5305    0.3232   -0.6873 H   0  0  0  0  0  0  0  0  0  0  0  0
   -6.6159    1.0644   -1.9987 H   0  0  0  0  0  0  0  0  0  0  0  0
   -7.5231   -1.1528   -2.8188 H   0  0  0  0  0  0  0  0  0  0  0  0
   -6.8398   -3.4172   -3.4734 H   0  0  0  0  0  0  0  0  0  0  0  0
   -4.8573   -4.4701   -2.4167 H   0  0  0  0  0  0  0  0  0  0  0  0
   -3.5637   -3.2420   -0.7378 H   0  0  0  0  0  0  0  0  0  0  0  0
   -1.7862    0.7212   -2.0298 H   0  0  0  0  0  0  0  0  0  0  0  0
   -2.8276   -0.6323   -2.2860 H   0  0  0  0  0  0  0  0  0  0  0  0
   -1.4212   -2.0628   -0.7992 H   0  0  0  0  0  0  0  0  0  0  0  0
   -0.4812   -1.3813   -2.0939 H   0  0  0  0  0  0  0  0  0  0  0  0
  1  2  1  0
  2  3  1  0
  3  4  1  0
  4  5  1  0
  5  6  2  0
  6  7  1  0
  7  8  2  0
  8  9  1  0
  9 10  2  0
 10 11  1  0
 11 12  2  0
 12 13  1  0
 13 14  1  0
 14 15  2  0
 15 16  1  0
 16 17  2  0
  2 18  1  0
 18 19  1  0
 19 20  1  0
 20 21  1  0
 21 22  1  0
 22 23  1  0
 23 24  1  0
 24 25  2  0
 25 26  1  0
 26 27  2  0
 27 28  1  0
 28 29  2  0
 29 30  1  0
 30 31  1  0
 31 32  1  0
 32 33  2  0
 33 34  1  0
 34 35  2  0
 35 36  1  0
 36 37  2  0
 22 38  1  0
 38 39  1  0
 17  5  1  0
 39 19  1  0
 12  7  1  0
 17 13  1  0
 37 23  1  0
 29 24  1  0
 37 32  1  0
  1 40  1  0
  2 41  1  0
  3 42  1  0
  3 43  1  0
  4 44  1  0
  8 45  1  0
  9 46  1  0
 10 47  1  0
 11 48  1  0
 14 49  1  0
 15 50  1  0
 16 51  1  0
 18 52  1  0
 18 53  1  0
 20 54  1  0
 20 55  1  0
 21 56  1  0
 21 57  1  0
 23 58  1  0
 25 59  1  0
 26 60  1  0
 27 61  1  0
 28 62  1  0
 30 63  1  0
 30 64  1  0
 31 65  1  0
 31 66  1  0
 33 67  1  0
 34 68  1  0
 35 69  1  0
 36 70  1  0
 38 71  1  0
 38 72  1  0
 39 73  1  0
 39 74  1  0
M  END
$$$$
