
     RDKit          3D

 34 35  0  0  0  0  0  0  0  0999 V2000
    2.1007    2.8134    0.5299 C   0  0  0  0  0  0  0  0  0  0  0  0
    2.5465    1.3658    0.4560 C   0  0  0  0  0  0  0  0  0  0  0  0
    1.7209    0.3708    0.2913 N   0  0  0  0  0  0  0  0  0  0  0  0
    0.3782    0.5904    0.2259 N   0  0  0  0  0  0  0  0  0  0  0  0
   -0.4810   -0.4838   -0.0061 C   0  0  0  0  0  0  0  0  0  0  0  0
   -0.1129   -1.6346   -0.2087 O   0  0  0  0  0  0  0  0  0  0  0  0
   -1.9290   -0.0459    0.0614 C   0  0  0  0  0  0  0  0  0  0  0  0
   -2.9638   -1.0930   -0.3459 C   0  0  0  0  0  0  0  0  0  0  0  0
   -2.9355   -2.3719    0.4879 C   0  0  0  0  0  0  0  0  0  0  0  0
   -4.2614   -0.4742   -0.1364 O   0  0  0  0  0  0  0  0  0  0  0  0
   -5.0050   -0.7782   -1.3163 C   0  0  0  0  0  0  0  0  0  0  0  0
   -3.9495   -0.8049   -2.3842 C   0  0  0  0  0  0  0  0  0  0  0  0
   -2.8377   -1.4205   -1.7391 O   0  0  0  0  0  0  0  0  0  0  0  0
    3.9597    1.0226    0.6006 C   0  0  0  0  0  0  0  0  0  0  0  0
    4.5435   -0.2144    0.3770 C   0  0  0  0  0  0  0  0  0  0  0  0
    5.9462   -0.2206    0.6235 C   0  0  0  0  0  0  0  0  0  0  0  0
    6.3965    1.0103    1.0399 C   0  0  0  0  0  0  0  0  0  0  0  0
    5.1318    2.1543    1.1344 S   0  0  0  0  0  0  0  0  0  0  0  0
    1.2778    3.0006   -0.1655 H   0  0  0  0  0  0  0  0  0  0  0  0
    2.8973    3.5076    0.2547 H   0  0  0  0  0  0  0  0  0  0  0  0
    1.7669    3.0329    1.5481 H   0  0  0  0  0  0  0  0  0  0  0  0
   -0.0005    1.5002    0.4565 H   0  0  0  0  0  0  0  0  0  0  0  0
   -2.0392    0.8322   -0.5894 H   0  0  0  0  0  0  0  0  0  0  0  0
   -2.1308    0.2934    1.0857 H   0  0  0  0  0  0  0  0  0  0  0  0
   -2.0582   -2.9894    0.2804 H   0  0  0  0  0  0  0  0  0  0  0  0
   -3.8087   -2.9953    0.2619 H   0  0  0  0  0  0  0  0  0  0  0  0
   -2.9758   -2.1462    1.5586 H   0  0  0  0  0  0  0  0  0  0  0  0
   -5.7792   -0.0268   -1.4897 H   0  0  0  0  0  0  0  0  0  0  0  0
   -5.4749   -1.7587   -1.1847 H   0  0  0  0  0  0  0  0  0  0  0  0
   -4.2440   -1.3690   -3.2725 H   0  0  0  0  0  0  0  0  0  0  0  0
   -3.6519    0.2067   -2.6806 H   0  0  0  0  0  0  0  0  0  0  0  0
    3.9777   -1.0801    0.0473 H   0  0  0  0  0  0  0  0  0  0  0  0
    6.5872   -1.0857    0.5045 H   0  0  0  0  0  0  0  0  0  0  0  0
    7.4081    1.2920    1.2988 H   0  0  0  0  0  0  0  0  0  0  0  0
  1  2  1  0
  2  3  2  3
  3  4  1  0
  4  5  1  0
  5  6  2  0
  5  7  1  0
  7  8  1  0
  8  9  1  0
  8 10  1  0
 10 11  1  0
 11 12  1  0
 12 13  1  0
  2 14  1  0
 14 15  2  0
 15 16  1  0
 16 17  2  0
 17 18  1  0
 13  8  1  0
 18 14  1  0
  1 19  1  0
  1 20  1  0
  1 21  1  0
  4 22  1  0
  7 23  1  0
  7 24  1  0
  9 25  1  0
  9 26  1  0
  9 27  1  0
 11 28  1  0
 11 29  1  0
 12 30  1  0
 12 31  1  0
 15 32  1  0
 16 33  1  0
 17 34  1  0
M  END
$$$$
