
     RDKit          3D

 34 36  0  0  0  0  0  0  0  0999 V2000
    5.2145    0.5199   -1.8678 C   0  0  0  0  0  0  0  0  0  0  0  0
    4.6234    0.6510   -0.5575 N   0  0  0  0  0  0  0  0  0  0  0  0
    5.2618    0.9774    0.5984 C   0  0  0  0  0  0  0  0  0  0  0  0
    4.2873    0.9815    1.5632 C   0  0  0  0  0  0  0  0  0  0  0  0
    4.5488    1.3656    3.3759 Br  0  0  0  0  0  0  0  0  0  0  0  0
    3.0757    0.6454    0.9125 C   0  0  0  0  0  0  0  0  0  0  0  0
    1.7135    0.5082    1.4703 C   0  0  0  0  0  0  0  0  0  0  0  0
    1.4849    0.6695    2.6629 O   0  0  0  0  0  0  0  0  0  0  0  0
    0.7991    0.1825    0.4840 N   0  0  0  0  0  0  0  0  0  0  0  0
   -0.5660   -0.0143    0.6018 C   0  0  0  0  0  0  0  0  0  0  0  0
   -1.3518    0.1583    2.1158 S   0  0  0  0  0  0  0  0  0  0  0  0
   -2.8277   -0.1784    1.4253 C   0  0  0  0  0  0  0  0  0  0  0  0
   -2.7729   -0.4358    0.0838 C   0  0  0  0  0  0  0  0  0  0  0  0
   -1.4430   -0.3624   -0.4330 C   0  0  0  0  0  0  0  0  0  0  0  0
   -0.9888   -0.5782   -1.8047 C   0  0  0  0  0  0  0  0  0  0  0  0
   -1.8616   -1.2073   -2.6459 N   0  0  0  0  0  0  0  0  0  0  0  0
    0.1269   -0.2626   -2.2084 O   0  0  0  0  0  0  0  0  0  0  0  0
   -4.1385   -0.6966   -0.4465 C   0  0  0  0  0  0  0  0  0  0  0  0
   -5.0559   -0.2058    0.7161 C   0  0  0  0  0  0  0  0  0  0  0  0
   -4.1879   -0.2288    2.0080 C   0  0  0  0  0  0  0  0  0  0  0  0
    3.3037    0.4386   -0.4070 N   0  0  0  0  0  0  0  0  0  0  0  0
    6.2858    0.7264   -1.8060 H   0  0  0  0  0  0  0  0  0  0  0  0
    5.0506   -0.5021   -2.2186 H   0  0  0  0  0  0  0  0  0  0  0  0
    4.7334    1.2386   -2.5359 H   0  0  0  0  0  0  0  0  0  0  0  0
    6.3233    1.1758    0.6394 H   0  0  0  0  0  0  0  0  0  0  0  0
    1.1977    0.0970   -0.4556 H   0  0  0  0  0  0  0  0  0  0  0  0
   -1.4799   -1.4826   -3.5407 H   0  0  0  0  0  0  0  0  0  0  0  0
   -2.6341   -1.7432   -2.2835 H   0  0  0  0  0  0  0  0  0  0  0  0
   -4.2849   -1.7685   -0.6163 H   0  0  0  0  0  0  0  0  0  0  0  0
   -4.3491   -0.1478   -1.3685 H   0  0  0  0  0  0  0  0  0  0  0  0
   -5.3662    0.8278    0.5125 H   0  0  0  0  0  0  0  0  0  0  0  0
   -5.9642   -0.8086    0.8127 H   0  0  0  0  0  0  0  0  0  0  0  0
   -4.3412   -1.1627    2.5583 H   0  0  0  0  0  0  0  0  0  0  0  0
   -4.4167    0.6222    2.6551 H   0  0  0  0  0  0  0  0  0  0  0  0
  1  2  1  0
  2  3  1  0
  3  4  2  0
  4  5  1  0
  4  6  1  0
  6  7  1  0
  7  8  2  0
  7  9  1  0
  9 10  1  0
 10 11  1  0
 11 12  1  0
 12 13  2  0
 13 14  1  0
 14 15  1  0
 15 16  1  0
 15 17  2  0
 13 18  1  0
 18 19  1  0
 19 20  1  0
  6 21  2  0
 21  2  1  0
 14 10  2  0
 20 12  1  0
  1 22  1  0
  1 23  1  0
  1 24  1  0
  3 25  1  0
  9 26  1  0
 16 27  1  0
 16 28  1  0
 18 29  1  0
 18 30  1  0
 19 31  1  0
 19 32  1  0
 20 33  1  0
 20 34  1  0
M  END
$$$$
