
     RDKit          3D

 32 33  0  0  0  0  0  0  0  0999 V2000
    4.2418    0.4615    1.6574 C   0  0  0  0  0  0  0  0  0  0  0  0
    4.4047    0.6038   -0.1035 S   0  0  0  0  0  6  0  0  0  0  0  0
    4.1867    1.9846   -0.4845 O   0  0  0  0  0  0  0  0  0  0  0  0
    5.6216   -0.0914   -0.4811 O   0  0  0  0  0  0  0  0  0  0  0  0
    3.0393   -0.3314   -0.7554 C   0  0  0  0  0  0  0  0  0  0  0  0
    3.2800   -1.3860   -1.6384 C   0  0  0  0  0  0  0  0  0  0  0  0
    2.2020   -2.1044   -2.1519 C   0  0  0  0  0  0  0  0  0  0  0  0
    0.8982   -1.7675   -1.7758 C   0  0  0  0  0  0  0  0  0  0  0  0
   -0.4053   -2.7001   -2.4333 Cl  0  0  0  0  0  0  0  0  0  0  0  0
    0.6486   -0.7077   -0.8799 C   0  0  0  0  0  0  0  0  0  0  0  0
   -0.6950   -0.4286   -0.5287 N   0  0  0  0  0  0  0  0  0  0  0  0
   -1.1562    0.5060    0.3773 C   0  0  0  0  0  0  0  0  0  0  0  0
   -0.4722    1.2795    1.0363 O   0  0  0  0  0  0  0  0  0  0  0  0
   -2.6367    0.5605    0.5347 C   0  0  0  0  0  0  0  0  0  0  0  0
   -3.4322   -0.5927    0.4700 C   0  0  0  0  0  0  0  0  0  0  0  0
   -4.8167   -0.4947    0.6271 C   0  0  0  0  0  0  0  0  0  0  0  0
   -5.4078    0.7482    0.8571 C   0  0  0  0  0  0  0  0  0  0  0  0
   -4.6118    1.8903    0.9389 C   0  0  0  0  0  0  0  0  0  0  0  0
   -5.4166    3.5698    1.2635 Br  0  0  0  0  0  0  0  0  0  0  0  0
   -3.2298    1.8043    0.7843 C   0  0  0  0  0  0  0  0  0  0  0  0
    1.7349    0.0168   -0.3820 C   0  0  0  0  0  0  0  0  0  0  0  0
    5.0948    0.9672    2.1157 H   0  0  0  0  0  0  0  0  0  0  0  0
    3.3167    0.9413    1.9800 H   0  0  0  0  0  0  0  0  0  0  0  0
    4.2493   -0.5954    1.9306 H   0  0  0  0  0  0  0  0  0  0  0  0
    4.2936   -1.6460   -1.9383 H   0  0  0  0  0  0  0  0  0  0  0  0
    2.3834   -2.9230   -2.8445 H   0  0  0  0  0  0  0  0  0  0  0  0
   -1.3807   -0.9805   -1.0338 H   0  0  0  0  0  0  0  0  0  0  0  0
   -2.9917   -1.5761    0.3289 H   0  0  0  0  0  0  0  0  0  0  0  0
   -5.4357   -1.3881    0.5808 H   0  0  0  0  0  0  0  0  0  0  0  0
   -6.4862    0.8152    0.9806 H   0  0  0  0  0  0  0  0  0  0  0  0
   -2.6105    2.6963    0.8541 H   0  0  0  0  0  0  0  0  0  0  0  0
    1.5895    0.8683    0.2752 H   0  0  0  0  0  0  0  0  0  0  0  0
  1  2  1  0
  2  3  2  0
  2  4  2  0
  2  5  1  0
  5  6  2  0
  6  7  1  0
  7  8  2  0
  8  9  1  0
  8 10  1  0
 10 11  1  0
 11 12  1  0
 12 13  2  0
 12 14  1  0
 14 15  2  0
 15 16  1  0
 16 17  2  0
 17 18  1  0
 18 19  1  0
 18 20  2  0
 10 21  2  0
 21  5  1  0
 20 14  1  0
  1 22  1  0
  1 23  1  0
  1 24  1  0
  6 25  1  0
  7 26  1  0
 11 27  1  0
 15 28  1  0
 16 29  1  0
 17 30  1  0
 20 31  1  0
 21 32  1  0
M  END
$$$$
