
     RDKit          3D

 32 34  0  0  0  0  0  0  0  0999 V2000
    6.2511    0.6403    1.1664 O   0  0  0  0  0  0  0  0  0  0  0  0
    5.7050   -0.3257    0.6159 N   0  0  0  0  0  4  0  0  0  0  0  0
    6.2847   -1.3726    0.2949 O   0  0  0  0  0  1  0  0  0  0  0  0
    4.2825   -0.2272    0.3287 C   0  0  0  0  0  0  0  0  0  0  0  0
    3.5996   -1.2636   -0.2997 C   0  0  0  0  0  0  0  0  0  0  0  0
    2.2348   -1.1067   -0.5486 C   0  0  0  0  0  0  0  0  0  0  0  0
    1.5779    0.0678   -0.1643 C   0  0  0  0  0  0  0  0  0  0  0  0
    0.2037    0.2088   -0.4375 N   0  0  0  0  0  0  0  0  0  0  0  0
   -0.2737    1.5935   -0.2993 C   0  0  0  0  0  0  0  0  0  0  0  0
   -1.6686    1.7087   -0.9193 C   0  0  0  0  0  0  0  0  0  0  0  0
   -2.6079    0.6528   -0.3941 C   0  0  0  0  0  0  0  0  0  0  0  0
   -3.9937    0.8254   -0.5156 C   0  0  0  0  0  0  0  0  0  0  0  0
   -4.8696   -0.1593   -0.0608 C   0  0  0  0  0  0  0  0  0  0  0  0
   -4.3692   -1.3259    0.5113 C   0  0  0  0  0  0  0  0  0  0  0  0
   -2.9911   -1.5120    0.6246 C   0  0  0  0  0  0  0  0  0  0  0  0
   -2.0957   -0.5330    0.1636 C   0  0  0  0  0  0  0  0  0  0  0  0
   -0.6035   -0.7592    0.3277 C   0  0  0  0  0  0  0  0  0  0  0  0
    2.2560    1.0727    0.4376 N   0  0  0  0  0  0  0  0  0  0  0  0
    3.5832    0.9137    0.6760 C   0  0  0  0  0  0  0  0  0  0  0  0
    4.1011   -2.1775   -0.6072 H   0  0  0  0  0  0  0  0  0  0  0  0
    1.6915   -1.8906   -1.0681 H   0  0  0  0  0  0  0  0  0  0  0  0
   -0.3061    1.8885    0.7588 H   0  0  0  0  0  0  0  0  0  0  0  0
    0.3844    2.2947   -0.8287 H   0  0  0  0  0  0  0  0  0  0  0  0
   -2.0687    2.7080   -0.7118 H   0  0  0  0  0  0  0  0  0  0  0  0
   -1.5996    1.5912   -2.0080 H   0  0  0  0  0  0  0  0  0  0  0  0
   -4.3965    1.7293   -0.9669 H   0  0  0  0  0  0  0  0  0  0  0  0
   -5.9429   -0.0166   -0.1550 H   0  0  0  0  0  0  0  0  0  0  0  0
   -5.0527   -2.0922    0.8674 H   0  0  0  0  0  0  0  0  0  0  0  0
   -2.6172   -2.4291    1.0745 H   0  0  0  0  0  0  0  0  0  0  0  0
   -0.3835   -1.7787   -0.0120 H   0  0  0  0  0  0  0  0  0  0  0  0
   -0.3692   -0.6886    1.3989 H   0  0  0  0  0  0  0  0  0  0  0  0
    4.0541    1.7631    1.1644 H   0  0  0  0  0  0  0  0  0  0  0  0
  1  2  2  0
  2  3  1  0
  2  4  1  0
  4  5  2  0
  5  6  1  0
  6  7  2  0
  7  8  1  0
  8  9  1  0
  9 10  1  0
 10 11  1  0
 11 12  2  0
 12 13  1  0
 13 14  2  0
 14 15  1  0
 15 16  2  0
 16 17  1  0
  7 18  1  0
 18 19  2  0
 19  4  1  0
 17  8  1  0
 16 11  1  0
  5 20  1  0
  6 21  1  0
  9 22  1  0
  9 23  1  0
 10 24  1  0
 10 25  1  0
 12 26  1  0
 13 27  1  0
 14 28  1  0
 15 29  1  0
 17 30  1  0
 17 31  1  0
 19 32  1  0
M  CHG  2   2   1   3  -1
M  END
$$$$
