
     RDKit          3D

 39 42  0  0  0  0  0  0  0  0999 V2000
   -8.7007    1.6592   -0.3796 O   0  0  0  0  0  0  0  0  0  0  0  0
   -7.7782    1.2426    0.3017 C   0  0  0  0  0  0  0  0  0  0  0  0
   -7.9287    1.0965    1.6287 O   0  0  0  0  0  0  0  0  0  0  0  0
   -6.4004    0.9270   -0.2025 C   0  0  0  0  0  0  0  0  0  0  0  0
   -5.7262   -0.1803    0.6010 C   0  0  0  0  0  0  0  0  0  0  0  0
   -4.4522   -0.5903    0.0005 N   0  0  0  0  0  0  0  0  0  0  0  0
   -3.3164    0.1463    0.2907 C   0  0  0  0  0  0  0  0  0  0  0  0
   -3.2743    1.1358    1.0090 O   0  0  0  0  0  0  0  0  0  0  0  0
   -2.1330   -0.4141   -0.4192 C   0  0  0  0  0  0  0  0  0  0  0  0
   -0.9212    0.1225   -0.2291 C   0  0  0  0  0  0  0  0  0  0  0  0
    0.3071   -0.2960   -0.8135 C   0  0  0  0  0  0  0  0  0  0  0  0
    0.6155   -0.9734   -1.9846 C   0  0  0  0  0  0  0  0  0  0  0  0
    2.0247   -1.0999   -2.0609 C   0  0  0  0  0  0  0  0  0  0  0  0
    2.5517   -0.4830   -0.9416 C   0  0  0  0  0  0  0  0  0  0  0  0
    3.9227   -0.3197   -0.5287 C   0  0  0  0  0  0  0  0  0  0  0  0
    4.2446    0.3109    0.5807 N   0  0  0  0  0  0  0  0  0  0  0  0
    5.6190    0.3256    0.7400 C   0  0  0  0  0  0  0  0  0  0  0  0
    6.3206    0.9129    1.8122 C   0  0  0  0  0  0  0  0  0  0  0  0
    7.7177    0.8528    1.8460 C   0  0  0  0  0  0  0  0  0  0  0  0
    8.4201    0.2166    0.8273 C   0  0  0  0  0  0  0  0  0  0  0  0
    7.7476   -0.3738   -0.2473 C   0  0  0  0  0  0  0  0  0  0  0  0
    6.3444   -0.3071   -0.2705 C   0  0  0  0  0  0  0  0  0  0  0  0
    5.2455   -0.9283   -1.4395 S   0  0  0  0  0  0  0  0  0  0  0  0
    1.5044    0.0066   -0.2048 O   0  0  0  0  0  0  0  0  0  0  0  0
   -2.6146   -1.7536   -1.3760 S   0  0  0  0  0  0  0  0  0  0  0  0
   -4.3007   -1.6263   -0.8957 C   0  0  0  0  0  0  0  0  0  0  0  0
   -5.4729   -2.6492   -1.4958 S   0  0  0  0  0  0  0  0  0  0  0  0
   -8.8492    1.3918    1.8005 H   0  0  0  0  0  0  0  0  0  0  0  0
   -5.8058    1.8463   -0.1758 H   0  0  0  0  0  0  0  0  0  0  0  0
   -6.4941    0.6190   -1.2502 H   0  0  0  0  0  0  0  0  0  0  0  0
   -6.3895   -1.0465    0.6948 H   0  0  0  0  0  0  0  0  0  0  0  0
   -5.5246    0.1697    1.6211 H   0  0  0  0  0  0  0  0  0  0  0  0
   -0.8257    0.9509    0.4726 H   0  0  0  0  0  0  0  0  0  0  0  0
   -0.0875   -1.3332   -2.7224 H   0  0  0  0  0  0  0  0  0  0  0  0
    2.5841   -1.5810   -2.8514 H   0  0  0  0  0  0  0  0  0  0  0  0
    5.7675    1.4080    2.6043 H   0  0  0  0  0  0  0  0  0  0  0  0
    8.2546    1.3074    2.6753 H   0  0  0  0  0  0  0  0  0  0  0  0
    9.5069    0.1771    0.8660 H   0  0  0  0  0  0  0  0  0  0  0  0
    8.2973   -0.8699   -1.0413 H   0  0  0  0  0  0  0  0  0  0  0  0
  1  2  2  0
  2  3  1  0
  2  4  1  0
  4  5  1  0
  5  6  1  0
  6  7  1  0
  7  8  2  0
  7  9  1  0
  9 10  2  3
 10 11  1  0
 11 12  2  0
 12 13  1  0
 13 14  2  0
 14 15  1  0
 15 16  2  0
 16 17  1  0
 17 18  2  0
 18 19  1  0
 19 20  2  0
 20 21  1  0
 21 22  2  0
 22 23  1  0
 14 24  1  0
  9 25  1  0
 25 26  1  0
 26 27  2  0
 26  6  1  0
 24 11  1  0
 23 15  1  0
 22 17  1  0
  3 28  1  0
  4 29  1  0
  4 30  1  0
  5 31  1  0
  5 32  1  0
 10 33  1  0
 12 34  1  0
 13 35  1  0
 18 36  1  0
 19 37  1  0
 20 38  1  0
 21 39  1  0
M  END
$$$$
