
     RDKit          3D

 37 39  0  0  0  0  0  0  0  0999 V2000
   -7.2515    2.1737    2.0023 C   0  0  0  0  0  0  0  0  0  0  0  0
   -7.0141    2.3385    0.6102 O   0  0  0  0  0  0  0  0  0  0  0  0
   -5.7636    2.0232    0.1573 C   0  0  0  0  0  0  0  0  0  0  0  0
   -5.5853    2.1671   -1.2194 C   0  0  0  0  0  0  0  0  0  0  0  0
   -4.3552    1.8726   -1.8218 C   0  0  0  0  0  0  0  0  0  0  0  0
   -3.2736    1.4199   -1.0556 C   0  0  0  0  0  0  0  0  0  0  0  0
   -1.9579    1.0837   -1.6201 C   0  0  0  0  0  0  0  0  0  0  0  0
   -0.8881    0.7665   -0.9168 N   0  0  0  0  0  0  0  0  0  0  0  0
    0.1613    0.4875   -1.7630 C   0  0  0  0  0  0  0  0  0  0  0  0
    1.3961    0.1213   -1.2944 N   0  0  0  0  0  0  0  0  0  0  0  0
    1.7220   -0.0570    0.0317 C   0  0  0  0  0  0  0  0  0  0  0  0
    0.9749    0.0757    0.9978 O   0  0  0  0  0  0  0  0  0  0  0  0
    3.1692   -0.4717    0.2251 C   0  0  0  0  0  0  0  0  0  0  0  0
    3.2924   -2.2772    0.0652 S   0  0  0  0  0  0  0  0  0  0  0  0
    5.0074   -2.4854    0.3164 C   0  0  0  0  0  0  0  0  0  0  0  0
    5.8673   -1.4977    0.1888 N   0  0  0  0  0  0  0  0  0  0  0  0
    7.1653   -1.9073    0.4159 N   0  0  0  0  0  0  0  0  0  0  0  0
    7.2372   -3.1922    0.6969 C   0  0  0  0  0  0  0  0  0  0  0  0
    8.4921   -3.9286    0.9874 C   0  0  0  0  0  0  0  0  0  0  0  0
    5.7174   -3.9945    0.7107 S   0  0  0  0  0  0  0  0  0  0  0  0
   -0.0268    0.5813   -3.0795 N   0  0  0  0  0  0  0  0  0  0  0  0
   -1.6159    1.0337   -3.3046 S   0  0  0  0  0  0  0  0  0  0  0  0
   -3.4660    1.2862    0.3307 C   0  0  0  0  0  0  0  0  0  0  0  0
   -4.6958    1.5836    0.9330 C   0  0  0  0  0  0  0  0  0  0  0  0
   -7.1197    1.1287    2.3029 H   0  0  0  0  0  0  0  0  0  0  0  0
   -8.2926    2.4480    2.1978 H   0  0  0  0  0  0  0  0  0  0  0  0
   -6.6140    2.8402    2.5925 H   0  0  0  0  0  0  0  0  0  0  0  0
   -6.4137    2.5111   -1.8326 H   0  0  0  0  0  0  0  0  0  0  0  0
   -4.2757    2.0084   -2.8968 H   0  0  0  0  0  0  0  0  0  0  0  0
    2.0677   -0.0630   -2.0256 H   0  0  0  0  0  0  0  0  0  0  0  0
    3.4945   -0.1533    1.2211 H   0  0  0  0  0  0  0  0  0  0  0  0
    3.8003    0.0272   -0.5204 H   0  0  0  0  0  0  0  0  0  0  0  0
    8.5953   -4.0983    2.0620 H   0  0  0  0  0  0  0  0  0  0  0  0
    8.5138   -4.8955    0.4765 H   0  0  0  0  0  0  0  0  0  0  0  0
    9.3600   -3.3544    0.6465 H   0  0  0  0  0  0  0  0  0  0  0  0
   -2.6466    0.9411    0.9616 H   0  0  0  0  0  0  0  0  0  0  0  0
   -4.7779    1.4568    2.0088 H   0  0  0  0  0  0  0  0  0  0  0  0
  1  2  1  0
  2  3  1  0
  3  4  2  0
  4  5  1  0
  5  6  2  0
  6  7  1  0
  7  8  2  0
  8  9  1  0
  9 10  1  0
 10 11  1  0
 11 12  2  0
 11 13  1  0
 13 14  1  0
 14 15  1  0
 15 16  2  0
 16 17  1  0
 17 18  2  0
 18 19  1  0
 18 20  1  0
  9 21  2  0
 21 22  1  0
  6 23  1  0
 23 24  2  0
 24  3  1  0
 22  7  1  0
 20 15  1  0
  1 25  1  0
  1 26  1  0
  1 27  1  0
  4 28  1  0
  5 29  1  0
 10 30  1  0
 13 31  1  0
 13 32  1  0
 19 33  1  0
 19 34  1  0
 19 35  1  0
 23 36  1  0
 24 37  1  0
M  END
$$$$
