
     RDKit          3D

 39 40  0  0  0  0  0  0  0  0999 V2000
    6.8678   -0.6960    1.3654 C   0  0  0  0  0  0  0  0  0  0  0  0
    5.3753   -0.5908    1.4760 C   0  0  0  0  0  0  0  0  0  0  0  0
    4.5963   -1.7429    1.6428 C   0  0  0  0  0  0  0  0  0  0  0  0
    3.2028   -1.6542    1.7111 C   0  0  0  0  0  0  0  0  0  0  0  0
    2.5708   -0.4088    1.6047 C   0  0  0  0  0  0  0  0  0  0  0  0
    1.0932   -0.2555    1.6695 C   0  0  0  0  0  0  0  0  0  0  0  0
    0.5150    0.8188    1.5816 O   0  0  0  0  0  0  0  0  0  0  0  0
    0.4878   -1.4572    1.8282 O   0  0  0  0  0  0  0  0  0  0  0  0
   -0.9389   -1.4168    1.9022 C   0  0  0  0  0  0  0  0  0  0  0  0
   -1.6097   -1.2257    0.5392 C   0  0  0  0  0  0  0  0  0  0  0  0
   -2.0070   -2.1713   -0.1346 O   0  0  0  0  0  0  0  0  0  0  0  0
   -1.7334    0.0933    0.1527 N   0  0  0  0  0  0  0  0  0  0  0  0
   -2.1720    0.4647   -1.1820 C   0  0  0  0  0  0  0  0  0  0  0  0
   -3.5973    0.0133   -1.5274 C   0  0  0  0  0  0  0  0  0  0  0  0
   -4.1348    0.7312   -2.6724 N   0  0  0  0  0  0  0  0  0  0  0  0
   -5.0013    1.7919   -2.5721 C   0  0  0  0  0  0  0  0  0  0  0  0
   -5.4022    2.2083   -1.3383 O   0  0  0  0  0  0  0  0  0  0  0  0
   -5.3650    2.3253   -3.7440 C   0  0  0  0  0  0  0  0  0  0  0  0
   -4.6043    1.5045   -5.0730 S   0  0  0  0  0  0  0  0  0  0  0  0
   -3.7529    0.4089   -3.9650 C   0  0  0  0  0  0  0  0  0  0  0  0
   -2.9648   -0.4453   -4.3344 O   0  0  0  0  0  0  0  0  0  0  0  0
    3.3475    0.7427    1.4266 C   0  0  0  0  0  0  0  0  0  0  0  0
    4.7404    0.6512    1.3576 C   0  0  0  0  0  0  0  0  0  0  0  0
    7.3520    0.2432    1.6545 H   0  0  0  0  0  0  0  0  0  0  0  0
    7.1476   -0.9357    0.3345 H   0  0  0  0  0  0  0  0  0  0  0  0
    7.2519   -1.4781    2.0295 H   0  0  0  0  0  0  0  0  0  0  0  0
    5.0702   -2.7198    1.7181 H   0  0  0  0  0  0  0  0  0  0  0  0
    2.6259   -2.5678    1.8426 H   0  0  0  0  0  0  0  0  0  0  0  0
   -1.2738   -0.6433    2.6052 H   0  0  0  0  0  0  0  0  0  0  0  0
   -1.2782   -2.3746    2.3112 H   0  0  0  0  0  0  0  0  0  0  0  0
   -1.1011    0.7435    0.6223 H   0  0  0  0  0  0  0  0  0  0  0  0
   -2.0986    1.5565   -1.2316 H   0  0  0  0  0  0  0  0  0  0  0  0
   -1.4556    0.0515   -1.9025 H   0  0  0  0  0  0  0  0  0  0  0  0
   -3.5966   -1.0541   -1.7766 H   0  0  0  0  0  0  0  0  0  0  0  0
   -4.2648    0.1346   -0.6657 H   0  0  0  0  0  0  0  0  0  0  0  0
   -6.0583    2.9172   -1.4511 H   0  0  0  0  0  0  0  0  0  0  0  0
   -6.0328    3.1615   -3.8869 H   0  0  0  0  0  0  0  0  0  0  0  0
    2.8735    1.7186    1.3362 H   0  0  0  0  0  0  0  0  0  0  0  0
    5.3255    1.5574    1.2102 H   0  0  0  0  0  0  0  0  0  0  0  0
  1  2  1  0
  2  3  2  0
  3  4  1  0
  4  5  2  0
  5  6  1  0
  6  7  2  0
  6  8  1  0
  8  9  1  0
  9 10  1  0
 10 11  2  0
 10 12  1  0
 12 13  1  0
 13 14  1  0
 14 15  1  0
 15 16  1  0
 16 17  1  0
 16 18  2  0
 18 19  1  0
 19 20  1  0
 20 21  2  0
  5 22  1  0
 22 23  2  0
 23  2  1  0
 20 15  1  0
  1 24  1  0
  1 25  1  0
  1 26  1  0
  3 27  1  0
  4 28  1  0
  9 29  1  0
  9 30  1  0
 12 31  1  0
 13 32  1  0
 13 33  1  0
 14 34  1  0
 14 35  1  0
 17 36  1  0
 18 37  1  0
 22 38  1  0
 23 39  1  0
M  END
$$$$
