
     RDKit          3D

 42 44  0  0  0  0  0  0  0  0999 V2000
   -5.0942    1.5337    0.4466 C   0  0  0  0  0  0  0  0  0  0  0  0
   -4.0821    1.1688   -0.5996 C   0  0  0  0  0  0  0  0  0  0  0  0
   -4.4668    1.0372   -1.9344 C   0  0  0  0  0  0  0  0  0  0  0  0
   -3.5499    0.6652   -2.9230 C   0  0  0  0  0  0  0  0  0  0  0  0
   -2.2216    0.4142   -2.5413 C   0  0  0  0  0  0  0  0  0  0  0  0
   -1.8031    0.5318   -1.2156 C   0  0  0  0  0  0  0  0  0  0  0  0
   -2.7528    0.9021   -0.2352 C   0  0  0  0  0  0  0  0  0  0  0  0
   -0.4114    0.2118   -1.1825 C   0  0  0  0  0  0  0  0  0  0  0  0
    0.4007    0.2149   -0.0047 C   0  0  0  0  0  0  0  0  0  0  0  0
    1.3394   -0.7000    0.2912 C   0  0  0  0  0  0  0  0  0  0  0  0
    2.1403   -0.6872    1.5194 C   0  0  0  0  0  0  0  0  0  0  0  0
    1.5881   -0.3912    2.7648 C   0  0  0  0  0  0  0  0  0  0  0  0
    2.3898   -0.4230    3.9002 C   0  0  0  0  0  0  0  0  0  0  0  0
    3.7001   -0.7415    3.8092 N   0  0  0  0  0  4  0  0  0  0  0  0
    4.5271   -0.7767    5.0273 C   0  0  0  0  0  0  0  0  0  0  0  0
    4.2524   -1.0551    2.6162 C   0  0  0  0  0  0  0  0  0  0  0  0
    3.4874   -1.0382    1.4553 C   0  0  0  0  0  0  0  0  0  0  0  0
    0.0045   -0.0450   -2.4796 C   0  0  0  0  0  0  0  0  0  0  0  0
    1.3578   -0.3339   -3.0362 C   0  0  0  0  0  0  0  0  0  0  0  0
   -1.1205    0.0280   -3.2814 N   0  0  0  0  0  0  0  0  0  0  0  0
   -1.1503   -0.2378   -4.7064 C   0  0  0  0  0  0  0  0  0  0  0  0
   -5.8688    2.1864    0.0304 H   0  0  0  0  0  0  0  0  0  0  0  0
   -5.5672    0.6291    0.8409 H   0  0  0  0  0  0  0  0  0  0  0  0
   -4.6234    2.0761    1.2733 H   0  0  0  0  0  0  0  0  0  0  0  0
   -5.4992    1.2255   -2.2247 H   0  0  0  0  0  0  0  0  0  0  0  0
   -3.8736    0.5761   -3.9551 H   0  0  0  0  0  0  0  0  0  0  0  0
   -2.4496    0.9832    0.8040 H   0  0  0  0  0  0  0  0  0  0  0  0
    0.1891    1.0175    0.6982 H   0  0  0  0  0  0  0  0  0  0  0  0
    1.5394   -1.5124   -0.4050 H   0  0  0  0  0  0  0  0  0  0  0  0
    0.5319   -0.1479    2.8646 H   0  0  0  0  0  0  0  0  0  0  0  0
    1.9903   -0.2014    4.8860 H   0  0  0  0  0  0  0  0  0  0  0  0
    4.1467   -0.0401    5.7398 H   0  0  0  0  0  0  0  0  0  0  0  0
    4.4612   -1.7871    5.4384 H   0  0  0  0  0  0  0  0  0  0  0  0
    5.5592   -0.5281    4.7672 H   0  0  0  0  0  0  0  0  0  0  0  0
    5.3057   -1.3210    2.6007 H   0  0  0  0  0  0  0  0  0  0  0  0
    3.9508   -1.2919    0.5034 H   0  0  0  0  0  0  0  0  0  0  0  0
    2.1485    0.0478   -2.3833 H   0  0  0  0  0  0  0  0  0  0  0  0
    1.4973   -1.4132   -3.1525 H   0  0  0  0  0  0  0  0  0  0  0  0
    1.4994    0.1437   -4.0111 H   0  0  0  0  0  0  0  0  0  0  0  0
   -0.4239   -1.0185   -4.9452 H   0  0  0  0  0  0  0  0  0  0  0  0
   -2.1422   -0.5919   -4.9955 H   0  0  0  0  0  0  0  0  0  0  0  0
   -0.9061    0.6903   -5.2287 H   0  0  0  0  0  0  0  0  0  0  0  0
  1  2  1  0
  2  3  2  0
  3  4  1  0
  4  5  2  0
  5  6  1  0
  6  7  2  0
  6  8  1  0
  8  9  1  0
  9 10  2  3
 10 11  1  0
 11 12  2  0
 12 13  1  0
 13 14  2  0
 14 15  1  0
 14 16  1  0
 16 17  2  0
  8 18  2  0
 18 19  1  0
 18 20  1  0
 20 21  1  0
  7  2  1  0
 17 11  1  0
 20  5  1  0
  1 22  1  0
  1 23  1  0
  1 24  1  0
  3 25  1  0
  4 26  1  0
  7 27  1  0
  9 28  1  0
 10 29  1  0
 12 30  1  0
 13 31  1  0
 15 32  1  0
 15 33  1  0
 15 34  1  0
 16 35  1  0
 17 36  1  0
 19 37  1  0
 19 38  1  0
 19 39  1  0
 21 40  1  0
 21 41  1  0
 21 42  1  0
M  CHG  1  14   1
M  END
$$$$
