
     RDKit          3D

 57 61  0  0  0  0  0  0  0  0999 V2000
    0.4857    3.2751   -1.0784 O   0  0  0  0  0  0  0  0  0  0  0  0
    0.3405    2.2766   -0.0503 C   0  0  0  0  0  0  0  0  0  0  0  0
    1.2051    2.6939    1.1547 C   0  0  0  0  0  0  0  0  0  0  0  0
    2.6158    2.7920    0.7541 N   0  0  0  0  0  0  0  0  0  0  0  0
    3.3217    1.6488    0.4508 C   0  0  0  0  0  0  0  0  0  0  0  0
    3.7634    1.5576   -0.7772 N   0  0  0  0  0  0  0  0  0  0  0  0
    4.4615    0.4029   -1.1888 C   0  0  0  0  0  0  0  0  0  0  0  0
    4.9052    0.3327   -2.5105 C   0  0  0  0  0  0  0  0  0  0  0  0
    5.5842   -0.7962   -2.9758 C   0  0  0  0  0  0  0  0  0  0  0  0
    5.8287   -1.8694   -2.1185 C   0  0  0  0  0  0  0  0  0  0  0  0
    5.3979   -1.8200   -0.7922 C   0  0  0  0  0  0  0  0  0  0  0  0
    4.7181   -0.6858   -0.3410 C   0  0  0  0  0  0  0  0  0  0  0  0
    4.2540   -0.5530    0.9788 N   0  0  0  0  0  0  0  0  0  0  0  0
    4.3585   -1.4211    2.0387 C   0  0  0  0  0  0  0  0  0  0  0  0
    3.7853   -0.8252    3.1419 C   0  0  0  0  0  0  0  0  0  0  0  0
    3.3072    0.4411    2.7338 C   0  0  0  0  0  0  0  0  0  0  0  0
    3.5826    0.5774    1.3859 C   0  0  0  0  0  0  0  0  0  0  0  0
   -1.1541    2.1566    0.3149 C   0  0  0  0  0  0  0  0  0  0  0  0
   -1.4598    1.2122    1.4019 N   0  0  0  0  0  0  0  0  0  0  0  0
   -1.2000   -0.2025    1.0418 C   0  0  0  0  0  0  0  0  0  0  0  0
   -2.1734   -0.8218    0.0080 C   0  0  0  0  0  0  0  0  0  0  0  0
   -3.5824   -0.6322    0.4247 N   0  0  0  0  0  0  0  0  0  0  0  0
   -4.5152   -1.3420   -0.3505 C   0  0  0  0  0  0  0  0  0  0  0  0
   -4.4076   -2.7392   -0.4677 C   0  0  0  0  0  0  0  0  0  0  0  0
   -5.3161   -3.4908   -1.2215 C   0  0  0  0  0  0  0  0  0  0  0  0
   -6.3694   -2.8593   -1.8721 C   0  0  0  0  0  0  0  0  0  0  0  0
   -6.5143   -1.4816   -1.7602 C   0  0  0  0  0  0  0  0  0  0  0  0
   -5.6013   -0.7361   -1.0028 C   0  0  0  0  0  0  0  0  0  0  0  0
   -3.9073    0.7590    0.7990 C   0  0  0  0  0  0  0  0  0  0  0  0
   -2.8813    1.3146    1.8162 C   0  0  0  0  0  0  0  0  0  0  0  0
    0.3396    2.8265   -1.9298 H   0  0  0  0  0  0  0  0  0  0  0  0
    0.7081    1.3337   -0.4699 H   0  0  0  0  0  0  0  0  0  0  0  0
    1.0858    2.0008    1.9909 H   0  0  0  0  0  0  0  0  0  0  0  0
    0.8982    3.6873    1.5022 H   0  0  0  0  0  0  0  0  0  0  0  0
    2.6609    3.4057   -0.0610 H   0  0  0  0  0  0  0  0  0  0  0  0
    4.7169    1.1674   -3.1805 H   0  0  0  0  0  0  0  0  0  0  0  0
    5.9246   -0.8359   -4.0074 H   0  0  0  0  0  0  0  0  0  0  0  0
    6.3578   -2.7455   -2.4860 H   0  0  0  0  0  0  0  0  0  0  0  0
    5.6046   -2.6637   -0.1432 H   0  0  0  0  0  0  0  0  0  0  0  0
    4.8399   -2.3822    1.9423 H   0  0  0  0  0  0  0  0  0  0  0  0
    3.7289   -1.2527    4.1349 H   0  0  0  0  0  0  0  0  0  0  0  0
    2.8187    1.1781    3.3573 H   0  0  0  0  0  0  0  0  0  0  0  0
   -1.4927    3.1599    0.6094 H   0  0  0  0  0  0  0  0  0  0  0  0
   -1.7170    1.9255   -0.5981 H   0  0  0  0  0  0  0  0  0  0  0  0
   -1.2641   -0.7925    1.9661 H   0  0  0  0  0  0  0  0  0  0  0  0
   -0.1687   -0.3309    0.6972 H   0  0  0  0  0  0  0  0  0  0  0  0
   -2.0158   -0.3647   -0.9766 H   0  0  0  0  0  0  0  0  0  0  0  0
   -1.9167   -1.8833   -0.0788 H   0  0  0  0  0  0  0  0  0  0  0  0
   -3.6201   -3.2695    0.0617 H   0  0  0  0  0  0  0  0  0  0  0  0
   -5.2025   -4.5693   -1.2878 H   0  0  0  0  0  0  0  0  0  0  0  0
   -7.0787   -3.4384   -2.4571 H   0  0  0  0  0  0  0  0  0  0  0  0
   -7.3397   -0.9800   -2.2586 H   0  0  0  0  0  0  0  0  0  0  0  0
   -5.7590    0.3361   -0.9529 H   0  0  0  0  0  0  0  0  0  0  0  0
   -3.9223    1.4015   -0.0899 H   0  0  0  0  0  0  0  0  0  0  0  0
   -4.8981    0.8004    1.2680 H   0  0  0  0  0  0  0  0  0  0  0  0
   -3.1279    2.3569    2.0530 H   0  0  0  0  0  0  0  0  0  0  0  0
   -2.9940    0.7647    2.7602 H   0  0  0  0  0  0  0  0  0  0  0  0
  1  2  1  0
  2  3  1  0
  3  4  1  0
  4  5  1  0
  5  6  2  0
  6  7  1  0
  7  8  2  0
  8  9  1  0
  9 10  2  0
 10 11  1  0
 11 12  2  0
 12 13  1  0
 13 14  1  0
 14 15  2  0
 15 16  1  0
 16 17  2  0
  2 18  1  0
 18 19  1  0
 19 20  1  0
 20 21  1  0
 21 22  1  0
 22 23  1  0
 23 24  2  0
 24 25  1  0
 25 26  2  0
 26 27  1  0
 27 28  2  0
 22 29  1  0
 29 30  1  0
 17  5  1  0
 30 19  1  0
 12  7  1  0
 17 13  1  0
 28 23  1  0
  1 31  1  0
  2 32  1  0
  3 33  1  0
  3 34  1  0
  4 35  1  0
  8 36  1  0
  9 37  1  0
 10 38  1  0
 11 39  1  0
 14 40  1  0
 15 41  1  0
 16 42  1  0
 18 43  1  0
 18 44  1  0
 20 45  1  0
 20 46  1  0
 21 47  1  0
 21 48  1  0
 24 49  1  0
 25 50  1  0
 26 51  1  0
 27 52  1  0
 28 53  1  0
 29 54  1  0
 29 55  1  0
 30 56  1  0
 30 57  1  0
M  END
$$$$
