
     RDKit          3D

 51 55  0  0  0  0  0  0  0  0999 V2000
    6.9292    1.9647    0.1700 C   0  0  0  0  0  0  0  0  0  0  0  0
    7.2342    0.8733   -0.6409 C   0  0  0  0  0  0  0  0  0  0  0  0
    6.3637   -0.2164   -0.7044 C   0  0  0  0  0  0  0  0  0  0  0  0
    5.1800   -0.2258    0.0465 C   0  0  0  0  0  0  0  0  0  0  0  0
    4.2343   -1.4024   -0.0252 C   0  0  0  0  0  0  0  0  0  0  0  0
    3.0398   -1.1778   -0.9736 C   0  0  0  0  0  0  0  0  0  0  0  0
    2.0144   -0.2633   -0.4442 N   0  0  0  0  0  0  0  0  0  0  0  0
    1.1751   -0.8628    0.6137 C   0  0  0  0  0  0  0  0  0  0  0  0
   -0.2142   -1.3684    0.1601 C   0  0  0  0  0  0  0  0  0  0  0  0
   -0.9925   -0.3233   -0.5198 N   0  0  0  0  0  0  0  0  0  0  0  0
   -2.3436   -0.1221   -0.2529 C   0  0  0  0  0  0  0  0  0  0  0  0
   -2.7854    1.1120   -0.2190 N   0  0  0  0  0  0  0  0  0  0  0  0
   -4.1300    1.3929    0.0857 C   0  0  0  0  0  0  0  0  0  0  0  0
   -4.5359    2.7284    0.1250 C   0  0  0  0  0  0  0  0  0  0  0  0
   -5.8564    3.0645    0.4346 C   0  0  0  0  0  0  0  0  0  0  0  0
   -6.7873    2.0623    0.7097 C   0  0  0  0  0  0  0  0  0  0  0  0
   -6.4036    0.7211    0.6757 C   0  0  0  0  0  0  0  0  0  0  0  0
   -5.0783    0.4009    0.3649 C   0  0  0  0  0  0  0  0  0  0  0  0
   -4.6103   -0.9209    0.2938 N   0  0  0  0  0  0  0  0  0  0  0  0
   -5.2952   -2.0980    0.4830 C   0  0  0  0  0  0  0  0  0  0  0  0
   -4.4348   -3.1425    0.2283 C   0  0  0  0  0  0  0  0  0  0  0  0
   -3.1828   -2.5787   -0.1103 C   0  0  0  0  0  0  0  0  0  0  0  0
   -3.2972   -1.2013   -0.0234 C   0  0  0  0  0  0  0  0  0  0  0  0
   -0.1942    0.7881   -1.0690 C   0  0  0  0  0  0  0  0  0  0  0  0
    1.1829    0.2818   -1.5399 C   0  0  0  0  0  0  0  0  0  0  0  0
    4.8825    0.8791    0.8551 C   0  0  0  0  0  0  0  0  0  0  0  0
    5.7529    1.9683    0.9167 C   0  0  0  0  0  0  0  0  0  0  0  0
    7.6057    2.8136    0.2176 H   0  0  0  0  0  0  0  0  0  0  0  0
    8.1501    0.8711   -1.2258 H   0  0  0  0  0  0  0  0  0  0  0  0
    6.6167   -1.0581   -1.3446 H   0  0  0  0  0  0  0  0  0  0  0  0
    4.7917   -2.2796   -0.3798 H   0  0  0  0  0  0  0  0  0  0  0  0
    3.9064   -1.6640    0.9875 H   0  0  0  0  0  0  0  0  0  0  0  0
    2.5810   -2.1467   -1.2103 H   0  0  0  0  0  0  0  0  0  0  0  0
    3.4354   -0.7812   -1.9186 H   0  0  0  0  0  0  0  0  0  0  0  0
    1.6946   -1.6754    1.1335 H   0  0  0  0  0  0  0  0  0  0  0  0
    1.0189   -0.0840    1.3720 H   0  0  0  0  0  0  0  0  0  0  0  0
   -0.0875   -2.2170   -0.5218 H   0  0  0  0  0  0  0  0  0  0  0  0
   -0.7401   -1.7263    1.0525 H   0  0  0  0  0  0  0  0  0  0  0  0
   -3.8118    3.5108   -0.0863 H   0  0  0  0  0  0  0  0  0  0  0  0
   -6.1557    4.1091    0.4612 H   0  0  0  0  0  0  0  0  0  0  0  0
   -7.8139    2.3282    0.9497 H   0  0  0  0  0  0  0  0  0  0  0  0
   -7.1459   -0.0402    0.8902 H   0  0  0  0  0  0  0  0  0  0  0  0
   -6.3387   -2.1119    0.7616 H   0  0  0  0  0  0  0  0  0  0  0  0
   -4.6867   -4.1944    0.2695 H   0  0  0  0  0  0  0  0  0  0  0  0
   -2.2959   -3.1286   -0.3909 H   0  0  0  0  0  0  0  0  0  0  0  0
   -0.0701    1.5744   -0.3139 H   0  0  0  0  0  0  0  0  0  0  0  0
   -0.7146    1.2252   -1.9297 H   0  0  0  0  0  0  0  0  0  0  0  0
    1.7269    1.1065   -2.0145 H   0  0  0  0  0  0  0  0  0  0  0  0
    1.0151   -0.4853   -2.3086 H   0  0  0  0  0  0  0  0  0  0  0  0
    3.9619    0.8995    1.4344 H   0  0  0  0  0  0  0  0  0  0  0  0
    5.5090    2.8208    1.5448 H   0  0  0  0  0  0  0  0  0  0  0  0
  1  2  2  0
  2  3  1  0
  3  4  2  0
  4  5  1  0
  5  6  1  0
  6  7  1  0
  7  8  1  0
  8  9  1  0
  9 10  1  0
 10 11  1  0
 11 12  2  0
 12 13  1  0
 13 14  2  0
 14 15  1  0
 15 16  2  0
 16 17  1  0
 17 18  2  0
 18 19  1  0
 19 20  1  0
 20 21  2  0
 21 22  1  0
 22 23  2  0
 10 24  1  0
 24 25  1  0
  4 26  1  0
 26 27  2  0
 27  1  1  0
 25  7  1  0
 23 11  1  0
 18 13  1  0
 23 19  1  0
  1 28  1  0
  2 29  1  0
  3 30  1  0
  5 31  1  0
  5 32  1  0
  6 33  1  0
  6 34  1  0
  8 35  1  0
  8 36  1  0
  9 37  1  0
  9 38  1  0
 14 39  1  0
 15 40  1  0
 16 41  1  0
 17 42  1  0
 20 43  1  0
 21 44  1  0
 22 45  1  0
 24 46  1  0
 24 47  1  0
 25 48  1  0
 25 49  1  0
 26 50  1  0
 27 51  1  0
M  END
$$$$
