
     RDKit          3D

 84 89  0  0  0  0  0  0  0  0999 V2000
   11.5964   -0.5938   -0.0963 C   0  0  0  0  0  0  0  0  0  0  0  0
   10.4983   -0.1421   -0.8906 O   0  0  0  0  0  0  0  0  0  0  0  0
    9.4569   -1.0209   -0.9495 C   0  0  0  0  0  0  0  0  0  0  0  0
    9.4263   -2.1119   -0.3988 O   0  0  0  0  0  0  0  0  0  0  0  0
    8.3542   -0.4329   -1.7998 C   0  0  0  0  0  0  0  0  0  0  0  0
    7.1455   -1.3638   -1.8936 C   0  0  0  0  0  0  0  0  0  0  0  0
    6.0647   -0.8640   -2.8573 C   0  0  0  0  0  0  0  0  0  0  0  0
    5.4821    0.5176   -2.5444 C   0  0  0  0  0  0  0  0  0  0  0  0
    4.7852    0.5913   -1.1835 C   0  0  0  0  0  0  0  0  0  0  0  0
    4.1955    1.9838   -0.9447 C   0  0  0  0  0  0  0  0  0  0  0  0
    3.5344    2.1332    0.4278 C   0  0  0  0  0  0  0  0  0  0  0  0
    2.2363    1.3341    0.5625 C   0  0  0  0  0  0  0  0  0  0  0  0
    1.5386    1.5949    1.8919 C   0  0  0  0  0  0  0  0  0  0  0  0
    2.0492    2.3041    2.7587 O   0  0  0  0  0  0  0  0  0  0  0  0
    0.3021    0.9905    2.0677 N   0  0  0  0  0  0  0  0  0  0  0  0
   -0.4076    1.1730    3.3458 C   0  0  0  0  0  0  0  0  0  0  0  0
   -1.9492    1.3162    3.1960 C   0  0  0  0  0  0  0  0  0  0  0  0
   -2.4576    0.6543    2.0088 N   0  0  0  0  0  0  0  0  0  0  0  0
   -1.6401   -0.5132    1.5838 C   0  0  2  0  0  0  0  0  0  0  0  0
   -0.2747    0.0052    1.1213 C   0  0  0  0  0  0  0  0  0  0  0  0
   -2.5347   -1.0937    0.5635 C   0  0  0  0  0  0  0  0  0  0  0  0
   -3.8468   -0.6208    0.7210 C   0  0  0  0  0  0  0  0  0  0  0  0
   -4.6412   -1.2330   -0.2166 C   0  0  0  0  0  0  0  0  0  0  0  0
   -5.9368   -1.0746   -0.4775 O   0  0  0  0  0  0  0  0  0  0  0  0
   -3.8054   -2.0668   -0.9915 N   0  0  0  0  0  0  0  0  0  0  0  0
   -4.1896   -2.8048   -2.1570 C   0  0  0  0  0  0  0  0  0  0  0  0
   -5.4874   -3.3147   -2.2865 C   0  0  0  0  0  0  0  0  0  0  0  0
   -5.8496   -4.0386   -3.4260 C   0  0  0  0  0  0  0  0  0  0  0  0
   -4.9246   -4.2504   -4.4461 C   0  0  0  0  0  0  0  0  0  0  0  0
   -3.6362   -3.7332   -4.3336 C   0  0  0  0  0  0  0  0  0  0  0  0
   -3.2681   -3.0105   -3.1960 C   0  0  0  0  0  0  0  0  0  0  0  0
   -2.5093   -2.0238   -0.4339 C   0  0  0  0  0  0  0  0  0  0  0  0
   -1.4942   -2.8077   -0.7936 O   0  0  0  0  0  0  0  0  0  0  0  0
   -3.8922    0.3576    1.8415 C   0  0  1  0  0  0  0  0  0  0  0  0
   -4.5993   -0.1979    3.1022 C   0  0  0  0  0  0  0  0  0  0  0  0
   -4.2645   -1.1277    3.8194 O   0  0  0  0  0  0  0  0  0  0  0  0
   -5.7334    0.5947    3.3014 N   0  0  0  0  0  0  0  0  0  0  0  0
   -5.8339    1.6089    2.3493 C   0  0  0  0  0  0  0  0  0  0  0  0
   -4.7582    1.5190    1.4521 C   0  0  0  0  0  0  0  0  0  0  0  0
   -4.6168    2.4322    0.4206 C   0  0  0  0  0  0  0  0  0  0  0  0
   -5.5807    3.4325    0.2960 C   0  0  0  0  0  0  0  0  0  0  0  0
   -6.6617    3.5110    1.1970 C   0  0  0  0  0  0  0  0  0  0  0  0
   -7.7970    4.7950    0.9583 Cl  0  0  0  0  0  0  0  0  0  0  0  0
   -6.8139    2.5892    2.2514 C   0  0  0  0  0  0  0  0  0  0  0  0
   -7.9553    2.6858    3.2193 C   0  0  0  0  0  0  0  0  0  0  0  0
   11.2811   -0.7489    0.9405 H   0  0  0  0  0  0  0  0  0  0  0  0
   12.0217   -1.5112   -0.5154 H   0  0  0  0  0  0  0  0  0  0  0  0
   12.3658    0.1834   -0.1107 H   0  0  0  0  0  0  0  0  0  0  0  0
    8.0602    0.5203   -1.3489 H   0  0  0  0  0  0  0  0  0  0  0  0
    8.7590   -0.2485   -2.8011 H   0  0  0  0  0  0  0  0  0  0  0  0
    7.4755   -2.3526   -2.2377 H   0  0  0  0  0  0  0  0  0  0  0  0
    6.7185   -1.5227   -0.8963 H   0  0  0  0  0  0  0  0  0  0  0  0
    5.2499   -1.5985   -2.8774 H   0  0  0  0  0  0  0  0  0  0  0  0
    6.4815   -0.8404   -3.8720 H   0  0  0  0  0  0  0  0  0  0  0  0
    4.7566    0.7662   -3.3294 H   0  0  0  0  0  0  0  0  0  0  0  0
    6.2681    1.2785   -2.6050 H   0  0  0  0  0  0  0  0  0  0  0  0
    5.4967    0.3654   -0.3816 H   0  0  0  0  0  0  0  0  0  0  0  0
    3.9951   -0.1664   -1.1451 H   0  0  0  0  0  0  0  0  0  0  0  0
    3.4720    2.2254   -1.7326 H   0  0  0  0  0  0  0  0  0  0  0  0
    5.0002    2.7258   -1.0187 H   0  0  0  0  0  0  0  0  0  0  0  0
    3.3171    3.1971    0.5883 H   0  0  0  0  0  0  0  0  0  0  0  0
    4.2396    1.8395    1.2153 H   0  0  0  0  0  0  0  0  0  0  0  0
    1.5587    1.6167   -0.2499 H   0  0  0  0  0  0  0  0  0  0  0  0
    2.4496    0.2631    0.4941 H   0  0  0  0  0  0  0  0  0  0  0  0
   -0.1825    0.2805    3.9441 H   0  0  0  0  0  0  0  0  0  0  0  0
   -0.0146    2.0353    3.8950 H   0  0  0  0  0  0  0  0  0  0  0  0
   -2.1935    2.3822    3.1243 H   0  0  0  0  0  0  0  0  0  0  0  0
   -2.4106    0.9430    4.1168 H   0  0  0  0  0  0  0  0  0  0  0  0
   -1.5280   -1.2211    2.4164 H   0  0  0  0  0  0  0  0  0  0  0  0
   -0.3525    0.4936    0.1427 H   0  0  0  0  0  0  0  0  0  0  0  0
    0.4309   -0.8271    1.0188 H   0  0  0  0  0  0  0  0  0  0  0  0
   -6.2800   -0.3672    0.0965 H   0  0  0  0  0  0  0  0  0  0  0  0
   -6.2280   -3.1918   -1.5010 H   0  0  0  0  0  0  0  0  0  0  0  0
   -6.8571   -4.4385   -3.5144 H   0  0  0  0  0  0  0  0  0  0  0  0
   -5.2110   -4.8102   -5.3329 H   0  0  0  0  0  0  0  0  0  0  0  0
   -2.9216   -3.8789   -5.1396 H   0  0  0  0  0  0  0  0  0  0  0  0
   -2.2732   -2.5715   -3.1694 H   0  0  0  0  0  0  0  0  0  0  0  0
   -1.8589   -3.6093   -1.2111 H   0  0  0  0  0  0  0  0  0  0  0  0
   -6.3593    0.4395    4.0778 H   0  0  0  0  0  0  0  0  0  0  0  0
   -3.7782    2.3736   -0.2681 H   0  0  0  0  0  0  0  0  0  0  0  0
   -5.4871    4.1620   -0.5063 H   0  0  0  0  0  0  0  0  0  0  0  0
   -7.9829    1.8456    3.9190 H   0  0  0  0  0  0  0  0  0  0  0  0
   -8.9117    2.6815    2.6859 H   0  0  0  0  0  0  0  0  0  0  0  0
   -7.8728    3.6034    3.8112 H   0  0  0  0  0  0  0  0  0  0  0  0
  1  2  1  0
  2  3  1  0
  3  4  2  0
  3  5  1  0
  5  6  1  0
  6  7  1  0
  7  8  1  0
  8  9  1  0
  9 10  1  0
 10 11  1  0
 11 12  1  0
 12 13  1  0
 13 14  2  0
 13 15  1  0
 15 16  1  0
 16 17  1  0
 17 18  1  0
 18 19  1  0
 19 20  1  0
 19 21  1  0
 21 22  1  0
 22 23  2  0
 23 24  1  0
 23 25  1  0
 25 26  1  0
 26 27  2  0
 27 28  1  0
 28 29  2  0
 29 30  1  0
 30 31  2  0
 25 32  1  0
 32 33  1  0
 22 34  1  0
 34 35  1  0
 35 36  2  0
 35 37  1  0
 37 38  1  0
 38 39  2  0
 39 40  1  0
 40 41  2  0
 41 42  1  0
 42 43  1  0
 42 44  2  0
 44 45  1  0
 20 15  1  0
 32 21  2  0
 39 34  1  0
 34 18  1  1
 44 38  1  0
 31 26  1  0
  1 46  1  0
  1 47  1  0
  1 48  1  0
  5 49  1  0
  5 50  1  0
  6 51  1  0
  6 52  1  0
  7 53  1  0
  7 54  1  0
  8 55  1  0
  8 56  1  0
  9 57  1  0
  9 58  1  0
 10 59  1  0
 10 60  1  0
 11 61  1  0
 11 62  1  0
 12 63  1  0
 12 64  1  0
 16 65  1  0
 16 66  1  0
 17 67  1  0
 17 68  1  0
 19 69  1  1
 20 70  1  0
 20 71  1  0
 24 72  1  0
 27 73  1  0
 28 74  1  0
 29 75  1  0
 30 76  1  0
 31 77  1  0
 33 78  1  0
 37 79  1  0
 40 80  1  0
 41 81  1  0
 45 82  1  0
 45 83  1  0
 45 84  1  0
M  END
$$$$
