
     RDKit          3D

 59 62  0  0  0  0  0  0  0  0999 V2000
   -7.4100    3.3814   -1.7657 C   0  0  0  0  0  0  0  0  0  0  0  0
   -7.2345    2.0097   -2.1233 O   0  0  0  0  0  0  0  0  0  0  0  0
   -6.0422    1.4313   -1.7768 C   0  0  0  0  0  0  0  0  0  0  0  0
   -5.9584    0.0616   -2.0534 C   0  0  0  0  0  0  0  0  0  0  0  0
   -4.7971   -0.6586   -1.7546 C   0  0  0  0  0  0  0  0  0  0  0  0
   -3.7006   -0.0069   -1.1761 C   0  0  0  0  0  0  0  0  0  0  0  0
   -2.4768   -0.7308   -0.8703 C   0  0  0  0  0  0  0  0  0  0  0  0
   -1.2434   -0.6678   -1.4906 C   0  0  0  0  0  0  0  0  0  0  0  0
   -0.3193   -1.4397   -0.8477 N   0  0  0  0  0  0  0  0  0  0  0  0
   -0.9716   -1.9741    0.1533 C   0  0  0  0  0  0  0  0  0  0  0  0
   -0.1925   -2.9557    1.3421 S   0  0  0  0  0  0  0  0  0  0  0  0
    0.7582   -1.6644    2.1988 C   0  0  0  0  0  0  0  0  0  0  0  0
    2.1492   -1.4160    1.6321 C   0  0  0  0  0  0  0  0  0  0  0  0
    3.0615   -1.1331    2.4071 O   0  0  0  0  0  0  0  0  0  0  0  0
    2.2373   -1.4269    0.2642 N   0  0  0  0  0  0  0  0  0  0  0  0
    3.3639   -1.0564   -0.4115 C   0  0  0  0  0  0  0  0  0  0  0  0
    4.5233   -0.6707    0.0479 N   0  0  0  0  0  0  0  0  0  0  0  0
    5.3679   -0.3224   -1.0005 C   0  0  0  0  0  0  0  0  0  0  0  0
    6.7472    0.2364   -0.6888 C   0  0  0  0  0  0  0  0  0  0  0  0
    6.7405    1.7611   -0.9053 C   0  0  0  0  0  0  0  0  0  0  0  0
    7.1509   -0.0351    0.7755 C   0  0  0  0  0  0  0  0  0  0  0  0
    7.8193   -0.3978   -1.5995 C   0  0  0  0  0  0  0  0  0  0  0  0
    4.8008   -0.4845   -2.2551 C   0  0  0  0  0  0  0  0  0  0  0  0
    3.1921   -1.0635   -2.1127 S   0  0  0  0  0  0  0  0  0  0  0  0
   -2.2849   -1.5871    0.1947 N   0  0  0  0  0  0  0  0  0  0  0  0
   -3.2800   -1.9573    1.1877 C   0  0  0  0  0  0  0  0  0  0  0  0
   -3.3222   -0.9705    2.2910 C   0  0  0  0  0  0  0  0  0  0  0  0
   -4.1201    0.1241    2.5563 C   0  0  0  0  0  0  0  0  0  0  0  0
   -3.6652    0.6580    3.7841 C   0  0  0  0  0  0  0  0  0  0  0  0
   -2.6309   -0.1487    4.1957 C   0  0  0  0  0  0  0  0  0  0  0  0
   -2.4164   -1.1404    3.2971 O   0  0  0  0  0  0  0  0  0  0  0  0
   -3.7797    1.3681   -0.9103 C   0  0  0  0  0  0  0  0  0  0  0  0
   -4.9463    2.0869   -1.2048 C   0  0  0  0  0  0  0  0  0  0  0  0
   -6.6946    4.0221   -2.2915 H   0  0  0  0  0  0  0  0  0  0  0  0
   -7.3421    3.5123   -0.6777 H   0  0  0  0  0  0  0  0  0  0  0  0
   -8.4154    3.6791   -2.0836 H   0  0  0  0  0  0  0  0  0  0  0  0
   -6.8059   -0.4478   -2.5125 H   0  0  0  0  0  0  0  0  0  0  0  0
   -4.7529   -1.7215   -1.9918 H   0  0  0  0  0  0  0  0  0  0  0  0
   -0.9772   -0.0839   -2.3643 H   0  0  0  0  0  0  0  0  0  0  0  0
    0.2128   -0.7127    2.2127 H   0  0  0  0  0  0  0  0  0  0  0  0
    0.8787   -1.9955    3.2395 H   0  0  0  0  0  0  0  0  0  0  0  0
    1.4096   -1.5904   -0.3039 H   0  0  0  0  0  0  0  0  0  0  0  0
    7.7299    2.1899   -0.7122 H   0  0  0  0  0  0  0  0  0  0  0  0
    6.0275    2.2529   -0.2326 H   0  0  0  0  0  0  0  0  0  0  0  0
    6.4560    2.0223   -1.9330 H   0  0  0  0  0  0  0  0  0  0  0  0
    8.1251    0.4148    1.0029 H   0  0  0  0  0  0  0  0  0  0  0  0
    6.4257    0.3856    1.4797 H   0  0  0  0  0  0  0  0  0  0  0  0
    7.2246   -1.1084    0.9732 H   0  0  0  0  0  0  0  0  0  0  0  0
    7.6377   -0.1722   -2.6562 H   0  0  0  0  0  0  0  0  0  0  0  0
    7.8368   -1.4893   -1.4913 H   0  0  0  0  0  0  0  0  0  0  0  0
    8.8199   -0.0234   -1.3528 H   0  0  0  0  0  0  0  0  0  0  0  0
    5.2312   -0.2702   -3.2182 H   0  0  0  0  0  0  0  0  0  0  0  0
   -4.2520   -2.0252    0.6936 H   0  0  0  0  0  0  0  0  0  0  0  0
   -3.0522   -2.9584    1.5561 H   0  0  0  0  0  0  0  0  0  0  0  0
   -4.9292    0.4941    1.9408 H   0  0  0  0  0  0  0  0  0  0  0  0
   -4.0448    1.5207    4.3101 H   0  0  0  0  0  0  0  0  0  0  0  0
   -1.9801   -0.1533    5.0579 H   0  0  0  0  0  0  0  0  0  0  0  0
   -2.9310    1.8932   -0.4676 H   0  0  0  0  0  0  0  0  0  0  0  0
   -4.9583    3.1545   -0.9872 H   0  0  0  0  0  0  0  0  0  0  0  0
  1  2  1  0
  2  3  1  0
  3  4  2  0
  4  5  1  0
  5  6  2  0
  6  7  1  0
  7  8  2  0
  8  9  1  0
  9 10  2  0
 10 11  1  0
 11 12  1  0
 12 13  1  0
 13 14  2  0
 13 15  1  0
 15 16  1  0
 16 17  2  0
 17 18  1  0
 18 19  1  0
 19 20  1  0
 19 21  1  0
 19 22  1  0
 18 23  2  0
 23 24  1  0
 10 25  1  0
 25 26  1  0
 26 27  1  0
 27 28  2  0
 28 29  1  0
 29 30  2  0
 30 31  1  0
  6 32  1  0
 32 33  2  0
 33  3  1  0
 25  7  1  0
 31 27  1  0
 24 16  1  0
  1 34  1  0
  1 35  1  0
  1 36  1  0
  4 37  1  0
  5 38  1  0
  8 39  1  0
 12 40  1  0
 12 41  1  0
 15 42  1  0
 20 43  1  0
 20 44  1  0
 20 45  1  0
 21 46  1  0
 21 47  1  0
 21 48  1  0
 22 49  1  0
 22 50  1  0
 22 51  1  0
 23 52  1  0
 26 53  1  0
 26 54  1  0
 28 55  1  0
 29 56  1  0
 30 57  1  0
 32 58  1  0
 33 59  1  0
M  END
$$$$
