
     RDKit          3D

 24 26  0  0  0  0  0  0  0  0999 V2000
    3.1124   -1.3766   -0.1982 N   0  0  0  0  0  0  0  0  0  0  0  0
    1.7240   -1.1624   -0.3036 C   0  0  0  0  0  0  0  0  0  0  0  0
    0.8859   -2.2662   -0.5841 C   0  0  0  0  0  0  0  0  0  0  0  0
   -0.5134   -2.1476   -0.6075 C   0  0  0  0  0  0  0  0  0  0  0  0
   -1.0792   -0.9231   -0.3056 C   0  0  0  0  0  0  0  0  0  0  0  0
   -0.2654    0.1292    0.0239 C   0  0  0  0  0  0  0  0  0  0  0  0
   -1.0216    1.2345    0.3251 C   0  0  0  0  0  0  0  0  0  0  0  0
   -0.3936    2.4062    0.7102 C   0  0  0  0  0  0  0  0  0  0  0  0
    1.0056    2.4226    0.7873 C   0  0  0  0  0  0  0  0  0  0  0  0
    1.7639    1.2762    0.4733 C   0  0  0  0  0  0  0  0  0  0  0  0
    1.1323    0.0764    0.0670 C   0  0  0  0  0  0  0  0  0  0  0  0
   -2.4878    0.9516    0.1806 C   0  0  0  0  0  0  0  0  0  0  0  0
   -2.5277   -0.5385   -0.2441 C   0  0  0  0  0  0  0  0  0  0  0  0
    3.4431   -2.1485   -0.7680 H   0  0  0  0  0  0  0  0  0  0  0  0
    3.6558   -0.5337   -0.3494 H   0  0  0  0  0  0  0  0  0  0  0  0
    1.3277   -3.2380   -0.7918 H   0  0  0  0  0  0  0  0  0  0  0  0
   -1.1322   -3.0076   -0.8428 H   0  0  0  0  0  0  0  0  0  0  0  0
   -0.9681    3.2936    0.9565 H   0  0  0  0  0  0  0  0  0  0  0  0
    1.5158    3.3316    1.0978 H   0  0  0  0  0  0  0  0  0  0  0  0
    2.8454    1.3249    0.5557 H   0  0  0  0  0  0  0  0  0  0  0  0
   -3.0142    1.1003    1.1290 H   0  0  0  0  0  0  0  0  0  0  0  0
   -2.9369    1.5881   -0.5887 H   0  0  0  0  0  0  0  0  0  0  0  0
   -3.0088   -0.6534   -1.2208 H   0  0  0  0  0  0  0  0  0  0  0  0
   -3.0630   -1.1396    0.4982 H   0  0  0  0  0  0  0  0  0  0  0  0
  1  2  1  0
  2  3  2  0
  3  4  1  0
  4  5  2  0
  5  6  1  0
  6  7  2  0
  7  8  1  0
  8  9  2  0
  9 10  1  0
 10 11  2  0
  7 12  1  0
 12 13  1  0
 11  2  1  0
 13  5  1  0
 11  6  1  0
  1 14  1  0
  1 15  1  0
  3 16  1  0
  4 17  1  0
  8 18  1  0
  9 19  1  0
 10 20  1  0
 12 21  1  0
 12 22  1  0
 13 23  1  0
 13 24  1  0
M  END
$$$$
