
     RDKit          3D

 33 34  0  0  0  0  0  0  0  0999 V2000
   -1.5512    1.6414    2.2631 C   0  0  0  0  0  0  0  0  0  0  0  0
   -1.9221    0.4749    1.3560 C   0  0  0  0  0  0  0  0  0  0  0  0
   -1.4164    0.6722   -0.0123 N   0  0  0  0  0  0  0  0  0  0  0  0
   -2.2804    1.4823   -0.8853 C   0  0  0  0  0  0  0  0  0  0  0  0
   -3.3249    0.6221   -1.5849 C   0  0  0  0  0  0  0  0  0  0  0  0
   -0.1929    0.1224   -0.4525 C   0  0  0  0  0  0  0  0  0  0  0  0
    0.0626    0.0864   -1.8459 C   0  0  0  0  0  0  0  0  0  0  0  0
    1.2255   -0.4454   -2.3837 C   0  0  0  0  0  0  0  0  0  0  0  0
    2.1763   -0.9640   -1.5177 C   0  0  0  0  0  0  0  0  0  0  0  0
    3.3679   -1.5216   -2.1297 N   0  0  0  0  0  4  0  0  0  0  0  0
    3.5590   -2.7378   -1.9985 O   0  0  0  0  0  0  0  0  0  0  0  0
    4.0946   -0.7403   -2.7577 O   0  0  0  0  0  1  0  0  0  0  0  0
    2.0152   -0.9559   -0.1163 C   0  0  0  0  0  0  0  0  0  0  0  0
    2.9986   -1.4529    0.7792 C   0  0  0  0  0  0  0  0  0  0  0  0
    2.8063   -1.4151    2.1491 C   0  0  0  0  0  0  0  0  0  0  0  0
    1.6313   -0.8746    2.5972 C   0  0  0  0  0  0  0  0  0  0  0  0
    0.6770   -0.3896    1.7763 N   0  0  0  0  0  0  0  0  0  0  0  0
    0.8191   -0.4094    0.4269 C   0  0  0  0  0  0  0  0  0  0  0  0
   -0.4756    1.8366    2.2760 H   0  0  0  0  0  0  0  0  0  0  0  0
   -1.8767    1.4389    3.2883 H   0  0  0  0  0  0  0  0  0  0  0  0
   -2.0416    2.5639    1.9349 H   0  0  0  0  0  0  0  0  0  0  0  0
   -3.0183    0.4176    1.3264 H   0  0  0  0  0  0  0  0  0  0  0  0
   -1.6288   -0.4910    1.7775 H   0  0  0  0  0  0  0  0  0  0  0  0
   -1.6993    2.0643   -1.6096 H   0  0  0  0  0  0  0  0  0  0  0  0
   -2.8067    2.2361   -0.2864 H   0  0  0  0  0  0  0  0  0  0  0  0
   -3.9795    0.1279   -0.8597 H   0  0  0  0  0  0  0  0  0  0  0  0
   -2.8689   -0.1587   -2.2004 H   0  0  0  0  0  0  0  0  0  0  0  0
   -3.9506    1.2435   -2.2334 H   0  0  0  0  0  0  0  0  0  0  0  0
   -0.6639    0.4612   -2.5602 H   0  0  0  0  0  0  0  0  0  0  0  0
    1.3716   -0.4551   -3.4613 H   0  0  0  0  0  0  0  0  0  0  0  0
    3.9339   -1.8782    0.4192 H   0  0  0  0  0  0  0  0  0  0  0  0
    3.5515   -1.7945    2.8382 H   0  0  0  0  0  0  0  0  0  0  0  0
    1.4072   -0.8075    3.6576 H   0  0  0  0  0  0  0  0  0  0  0  0
  1  2  1  0
  2  3  1  0
  3  4  1  0
  4  5  1  0
  3  6  1  0
  6  7  2  0
  7  8  1  0
  8  9  2  0
  9 10  1  0
 10 11  2  0
 10 12  1  0
  9 13  1  0
 13 14  2  0
 14 15  1  0
 15 16  2  0
 16 17  1  0
 17 18  2  0
 18  6  1  0
 18 13  1  0
  1 19  1  0
  1 20  1  0
  1 21  1  0
  2 22  1  0
  2 23  1  0
  4 24  1  0
  4 25  1  0
  5 26  1  0
  5 27  1  0
  5 28  1  0
  7 29  1  0
  8 30  1  0
 14 31  1  0
 15 32  1  0
 16 33  1  0
M  CHG  2  10   1  12  -1
M  END
$$$$
