
     RDKit          3D

 60 65  0  0  0  0  0  0  0  0999 V2000
    4.5967    4.8412   -1.8624 O   0  0  0  0  0  0  0  0  0  0  0  0
    4.0604    3.9154   -1.2634 C   0  0  0  0  0  0  0  0  0  0  0  0
    2.6972    3.6598   -1.3697 N   0  0  0  0  0  0  0  0  0  0  0  0
    2.0326    2.6413   -0.6877 C   0  0  0  0  0  0  0  0  0  0  0  0
    0.5425    2.5394   -0.9943 C   0  0  0  0  0  0  0  0  0  0  0  0
   -0.2587    1.9386    0.1701 C   0  0  0  0  0  0  0  0  0  0  0  0
   -1.5136    1.2378   -0.3310 C   0  0  0  0  0  0  0  0  0  0  0  0
   -1.1510    0.0776   -1.1907 N   0  0  0  0  0  0  0  0  0  0  0  0
   -2.4538   -0.6305   -2.0490 S   0  0  0  0  0  6  0  0  0  0  0  0
   -1.9710   -1.8312   -2.6963 O   0  0  0  0  0  0  0  0  0  0  0  0
   -3.0903    0.4278   -2.8055 O   0  0  0  0  0  0  0  0  0  0  0  0
   -3.5443   -1.1385   -0.7446 C   0  0  0  0  0  0  0  0  0  0  0  0
   -3.1807   -2.2287    0.0555 C   0  0  0  0  0  0  0  0  0  0  0  0
   -4.0279   -2.6370    1.0859 C   0  0  0  0  0  0  0  0  0  0  0  0
   -5.2297   -1.9628    1.3033 C   0  0  0  0  0  0  0  0  0  0  0  0
   -5.5798   -0.8646    0.5064 C   0  0  0  0  0  0  0  0  0  0  0  0
   -4.7476   -0.4595   -0.5343 C   0  0  0  0  0  0  0  0  0  0  0  0
   -6.7321   -0.1428    0.6872 O   0  0  0  0  0  0  0  0  0  0  0  0
   -7.3388   -0.4267    1.9540 C   0  0  0  0  0  0  0  0  0  0  0  0
   -7.3540   -1.9222    2.2226 C   0  0  0  0  0  0  0  0  0  0  0  0
   -6.0183   -2.4301    2.3231 O   0  0  0  0  0  0  0  0  0  0  0  0
    0.0860    0.2646   -2.0031 C   0  0  0  0  0  0  0  0  0  0  0  0
    0.3482    1.7383   -2.2925 C   0  0  0  0  0  0  0  0  0  0  0  0
    2.6238    1.7898    0.1043 N   0  0  0  0  0  0  0  0  0  0  0  0
    3.9571    2.0073    0.2127 C   0  0  0  0  0  0  0  0  0  0  0  0
    4.7168    2.9818   -0.3887 C   0  0  0  0  0  0  0  0  0  0  0  0
    6.0219    2.8664   -0.0206 N   0  0  0  0  0  0  0  0  0  0  0  0
    6.1104    1.8221    0.8047 N   0  0  0  0  0  0  0  0  0  0  0  0
    4.8695    1.2889    0.9303 N   0  0  0  0  0  0  0  0  0  0  0  0
    4.6368    0.1274    1.7620 C   0  0  0  0  0  0  0  0  0  0  0  0
    4.5949   -1.1379    0.9380 C   0  0  0  0  0  0  0  0  0  0  0  0
    5.7877   -1.7651    0.5403 C   0  0  0  0  0  0  0  0  0  0  0  0
    5.7501   -2.9253   -0.2352 C   0  0  0  0  0  0  0  0  0  0  0  0
    4.5236   -3.4549   -0.6192 C   0  0  0  0  0  0  0  0  0  0  0  0
    4.4897   -4.5688   -1.3637 F   0  0  0  0  0  0  0  0  0  0  0  0
    3.3313   -2.8440   -0.2460 C   0  0  0  0  0  0  0  0  0  0  0  0
    3.3648   -1.6846    0.5310 C   0  0  0  0  0  0  0  0  0  0  0  0
    2.1971    4.2950   -1.9747 H   0  0  0  0  0  0  0  0  0  0  0  0
    0.1783    3.5595   -1.1795 H   0  0  0  0  0  0  0  0  0  0  0  0
   -0.5319    2.7379    0.8692 H   0  0  0  0  0  0  0  0  0  0  0  0
    0.3336    1.2200    0.7487 H   0  0  0  0  0  0  0  0  0  0  0  0
   -2.1434    1.9485   -0.8770 H   0  0  0  0  0  0  0  0  0  0  0  0
   -2.0763    0.8759    0.5355 H   0  0  0  0  0  0  0  0  0  0  0  0
   -2.2476   -2.7604   -0.1247 H   0  0  0  0  0  0  0  0  0  0  0  0
   -3.7624   -3.4873    1.7088 H   0  0  0  0  0  0  0  0  0  0  0  0
   -5.0345    0.3815   -1.1598 H   0  0  0  0  0  0  0  0  0  0  0  0
   -8.3615   -0.0379    1.9266 H   0  0  0  0  0  0  0  0  0  0  0  0
   -6.7872    0.1157    2.7319 H   0  0  0  0  0  0  0  0  0  0  0  0
   -7.8607   -2.1317    3.1701 H   0  0  0  0  0  0  0  0  0  0  0  0
   -7.8765   -2.4687    1.4277 H   0  0  0  0  0  0  0  0  0  0  0  0
    0.9227   -0.1778   -1.4503 H   0  0  0  0  0  0  0  0  0  0  0  0
    0.0256   -0.2802   -2.9508 H   0  0  0  0  0  0  0  0  0  0  0  0
   -0.5066    2.1518   -2.8444 H   0  0  0  0  0  0  0  0  0  0  0  0
    1.2190    1.8304   -2.9522 H   0  0  0  0  0  0  0  0  0  0  0  0
    5.4332    0.0745    2.5141 H   0  0  0  0  0  0  0  0  0  0  0  0
    3.6951    0.2818    2.3023 H   0  0  0  0  0  0  0  0  0  0  0  0
    6.7530   -1.3468    0.8247 H   0  0  0  0  0  0  0  0  0  0  0  0
    6.6684   -3.4144   -0.5458 H   0  0  0  0  0  0  0  0  0  0  0  0
    2.3858   -3.2725   -0.5658 H   0  0  0  0  0  0  0  0  0  0  0  0
    2.4265   -1.2054    0.8088 H   0  0  0  0  0  0  0  0  0  0  0  0
  1  2  2  0
  2  3  1  0
  3  4  1  0
  4  5  1  0
  5  6  1  0
  6  7  1  0
  7  8  1  0
  8  9  1  0
  9 10  2  0
  9 11  2  0
  9 12  1  0
 12 13  2  0
 13 14  1  0
 14 15  2  0
 15 16  1  0
 16 17  2  0
 16 18  1  0
 18 19  1  0
 19 20  1  0
 20 21  1  0
  8 22  1  0
 22 23  1  0
  4 24  2  0
 24 25  1  0
 25 26  2  0
 26 27  1  0
 27 28  2  0
 28 29  1  0
 29 30  1  0
 30 31  1  0
 31 32  2  0
 32 33  1  0
 33 34  2  0
 34 35  1  0
 34 36  1  0
 36 37  2  0
 26  2  1  0
 37 31  1  0
 23  5  1  0
 29 25  1  0
 17 12  1  0
 21 15  1  0
  3 38  1  0
  5 39  1  0
  6 40  1  0
  6 41  1  0
  7 42  1  0
  7 43  1  0
 13 44  1  0
 14 45  1  0
 17 46  1  0
 19 47  1  0
 19 48  1  0
 20 49  1  0
 20 50  1  0
 22 51  1  0
 22 52  1  0
 23 53  1  0
 23 54  1  0
 30 55  1  0
 30 56  1  0
 32 57  1  0
 33 58  1  0
 36 59  1  0
 37 60  1  0
M  END
$$$$
