
     RDKit          3D

 46 49  0  0  0  0  0  0  0  0999 V2000
    4.7940   -1.5519    0.5449 O   0  0  0  0  0  0  0  0  0  0  0  0
    3.7467   -0.9131    0.6598 C   0  0  0  0  0  0  0  0  0  0  0  0
    2.5766   -1.4872    1.4449 C   0  0  0  0  0  0  0  0  0  0  0  0
    1.3070   -2.1842    0.3440 S   0  0  0  0  0  0  0  0  0  0  0  0
    0.2700   -0.8036    0.1707 C   0  0  0  0  0  0  0  0  0  0  0  0
    0.7022    0.4311    0.0708 N   0  0  0  0  0  0  0  0  0  0  0  0
   -0.3966    1.2515    0.0664 N   0  0  0  0  0  0  0  0  0  0  0  0
   -1.4806    0.5018    0.1872 C   0  0  0  0  0  0  0  0  0  0  0  0
   -2.8757    1.0248    0.3150 C   0  0  0  0  0  0  0  0  0  0  0  0
   -3.5301    0.7906    1.6577 C   0  0  0  0  0  0  0  0  0  0  0  0
   -4.8729    0.5568    1.9038 C   0  0  0  0  0  0  0  0  0  0  0  0
   -5.1511    0.3979    3.2934 C   0  0  0  0  0  0  0  0  0  0  0  0
   -4.0201    0.5107    4.0694 C   0  0  0  0  0  0  0  0  0  0  0  0
   -2.6353    0.8608    3.1273 S   0  0  0  0  0  0  0  0  0  0  0  0
   -1.0982   -0.8296    0.2086 N   0  0  0  0  0  0  0  0  0  0  0  0
   -1.9598   -1.9863    0.3793 C   0  0  0  0  0  0  0  0  0  0  0  0
   -2.8829   -2.1762   -0.7667 C   0  0  0  0  0  0  0  0  0  0  0  0
   -4.2474   -2.3378   -0.8476 C   0  0  0  0  0  0  0  0  0  0  0  0
   -4.5506   -2.4797   -2.2209 C   0  0  0  0  0  0  0  0  0  0  0  0
   -3.3547   -2.4086   -2.8887 C   0  0  0  0  0  0  0  0  0  0  0  0
   -2.3355   -2.2295   -2.0133 O   0  0  0  0  0  0  0  0  0  0  0  0
    3.5075    0.3407    0.1366 N   0  0  0  0  0  0  0  0  0  0  0  0
    4.4292    1.1957   -0.5015 C   0  0  0  0  0  0  0  0  0  0  0  0
    3.9201    2.3267   -1.1551 C   0  0  0  0  0  0  0  0  0  0  0  0
    4.7815    3.2344   -1.7839 C   0  0  0  0  0  0  0  0  0  0  0  0
    6.1572    3.0233   -1.7414 C   0  0  0  0  0  0  0  0  0  0  0  0
    7.3282    4.2589   -2.5663 Br  0  0  0  0  0  0  0  0  0  0  0  0
    6.6749    1.9067   -1.0923 C   0  0  0  0  0  0  0  0  0  0  0  0
    5.8100    0.9911   -0.4801 C   0  0  0  0  0  0  0  0  0  0  0  0
    2.1567   -0.7324    2.1315 H   0  0  0  0  0  0  0  0  0  0  0  0
    2.9577   -2.2960    2.0750 H   0  0  0  0  0  0  0  0  0  0  0  0
   -2.8626    2.1075    0.1313 H   0  0  0  0  0  0  0  0  0  0  0  0
   -3.5037    0.5937   -0.4775 H   0  0  0  0  0  0  0  0  0  0  0  0
   -5.6273    0.5163    1.1209 H   0  0  0  0  0  0  0  0  0  0  0  0
   -6.1365    0.2133    3.7034 H   0  0  0  0  0  0  0  0  0  0  0  0
   -3.9385    0.4355    5.1469 H   0  0  0  0  0  0  0  0  0  0  0  0
   -1.3584   -2.8864    0.5099 H   0  0  0  0  0  0  0  0  0  0  0  0
   -2.5185   -1.8444    1.3081 H   0  0  0  0  0  0  0  0  0  0  0  0
   -4.9372   -2.3513   -0.0173 H   0  0  0  0  0  0  0  0  0  0  0  0
   -5.5197   -2.6262   -2.6729 H   0  0  0  0  0  0  0  0  0  0  0  0
   -3.0750   -2.4688   -3.9296 H   0  0  0  0  0  0  0  0  0  0  0  0
    2.5327    0.6452    0.1258 H   0  0  0  0  0  0  0  0  0  0  0  0
    2.8437    2.5062   -1.2018 H   0  0  0  0  0  0  0  0  0  0  0  0
    4.3713    4.1005   -2.2998 H   0  0  0  0  0  0  0  0  0  0  0  0
    7.7481    1.7345   -1.0493 H   0  0  0  0  0  0  0  0  0  0  0  0
    6.2534    0.1371    0.0249 H   0  0  0  0  0  0  0  0  0  0  0  0
  1  2  2  0
  2  3  1  0
  3  4  1  0
  4  5  1  0
  5  6  2  0
  6  7  1  0
  7  8  2  0
  8  9  1  0
  9 10  1  0
 10 11  2  0
 11 12  1  0
 12 13  2  0
 13 14  1  0
  8 15  1  0
 15 16  1  0
 16 17  1  0
 17 18  2  0
 18 19  1  0
 19 20  2  0
 20 21  1  0
  2 22  1  0
 22 23  1  0
 23 24  2  0
 24 25  1  0
 25 26  2  0
 26 27  1  0
 26 28  1  0
 28 29  2  0
 15  5  1  0
 21 17  1  0
 29 23  1  0
 14 10  1  0
  3 30  1  0
  3 31  1  0
  9 32  1  0
  9 33  1  0
 11 34  1  0
 12 35  1  0
 13 36  1  0
 16 37  1  0
 16 38  1  0
 18 39  1  0
 19 40  1  0
 20 41  1  0
 22 42  1  0
 24 43  1  0
 25 44  1  0
 28 45  1  0
 29 46  1  0
M  END
$$$$
