
     RDKit          3D

 42 44  0  0  0  0  0  0  0  0999 V2000
    2.7280    1.2985   -1.5638 O   0  0  0  0  0  0  0  0  0  0  0  0
    2.0550    1.1783   -0.5454 C   0  0  0  0  0  0  0  0  0  0  0  0
    2.1495    0.1528    0.3723 N   0  0  0  0  0  0  0  0  0  0  0  0
    2.9993   -0.9797    0.3371 C   0  0  0  0  0  0  0  0  0  0  0  0
    3.9327   -1.2084   -0.6773 C   0  0  0  0  0  0  0  0  0  0  0  0
    4.7429   -2.3497   -0.6570 C   0  0  0  0  0  0  0  0  0  0  0  0
    4.6308   -3.2768    0.3763 C   0  0  0  0  0  0  0  0  0  0  0  0
    3.7061   -3.0658    1.3956 C   0  0  0  0  0  0  0  0  0  0  0  0
    2.8980   -1.9257    1.3760 C   0  0  0  0  0  0  0  0  0  0  0  0
    1.7589   -1.7179    2.6637 Cl  0  0  0  0  0  0  0  0  0  0  0  0
    1.0388    2.2351   -0.2510 C   0  0  0  0  0  0  0  0  0  0  0  0
    1.2666    3.5132   -0.7870 C   0  0  0  0  0  0  0  0  0  0  0  0
    0.3611    4.5528   -0.5644 C   0  0  0  0  0  0  0  0  0  0  0  0
   -0.7842    4.3283    0.1955 C   0  0  0  0  0  0  0  0  0  0  0  0
   -1.0326    3.0620    0.7233 C   0  0  0  0  0  0  0  0  0  0  0  0
   -0.1366    2.0115    0.4818 C   0  0  0  0  0  0  0  0  0  0  0  0
   -0.4011    0.7757    1.0311 O   0  0  0  0  0  0  0  0  0  0  0  0
   -1.4685    0.0974    0.4878 C   0  0  0  0  0  0  0  0  0  0  0  0
   -1.4674   -0.2666   -0.8624 C   0  0  0  0  0  0  0  0  0  0  0  0
   -2.5469   -0.9765   -1.4024 C   0  0  0  0  0  0  0  0  0  0  0  0
   -3.6398   -1.3494   -0.6019 C   0  0  0  0  0  0  0  0  0  0  0  0
   -4.8154   -2.1007   -1.1857 C   0  0  0  0  0  0  0  0  0  0  0  0
   -4.5830   -2.5835   -2.4375 F   0  0  0  0  0  0  0  0  0  0  0  0
   -5.1708   -3.1751   -0.4281 F   0  0  0  0  0  0  0  0  0  0  0  0
   -5.9264   -1.3203   -1.2803 F   0  0  0  0  0  0  0  0  0  0  0  0
   -3.6326   -1.0002    0.7583 C   0  0  0  0  0  0  0  0  0  0  0  0
   -2.5415   -0.2969    1.2898 C   0  0  0  0  0  0  0  0  0  0  0  0
   -2.5683    0.0526    2.6982 N   0  0  0  0  0  4  0  0  0  0  0  0
   -3.5910    0.6164    3.1114 O   0  0  0  0  0  0  0  0  0  0  0  0
   -1.5857   -0.2482    3.3865 O   0  0  0  0  0  1  0  0  0  0  0  0
    1.5330    0.1882    1.1809 H   0  0  0  0  0  0  0  0  0  0  0  0
    4.0606   -0.5155   -1.5031 H   0  0  0  0  0  0  0  0  0  0  0  0
    5.4644   -2.5091   -1.4553 H   0  0  0  0  0  0  0  0  0  0  0  0
    5.2623   -4.1613    0.3857 H   0  0  0  0  0  0  0  0  0  0  0  0
    3.6176   -3.7907    2.2002 H   0  0  0  0  0  0  0  0  0  0  0  0
    2.1603    3.7060   -1.3789 H   0  0  0  0  0  0  0  0  0  0  0  0
    0.5552    5.5390   -0.9799 H   0  0  0  0  0  0  0  0  0  0  0  0
   -1.4818    5.1418    0.3805 H   0  0  0  0  0  0  0  0  0  0  0  0
   -1.9216    2.9063    1.3285 H   0  0  0  0  0  0  0  0  0  0  0  0
   -0.6286   -0.0130   -1.5069 H   0  0  0  0  0  0  0  0  0  0  0  0
   -2.5257   -1.2439   -2.4598 H   0  0  0  0  0  0  0  0  0  0  0  0
   -4.4715   -1.2809    1.3960 H   0  0  0  0  0  0  0  0  0  0  0  0
  1  2  2  0
  2  3  1  0
  3  4  1  0
  4  5  2  0
  5  6  1  0
  6  7  2  0
  7  8  1  0
  8  9  2  0
  9 10  1  0
  2 11  1  0
 11 12  2  0
 12 13  1  0
 13 14  2  0
 14 15  1  0
 15 16  2  0
 16 17  1  0
 17 18  1  0
 18 19  2  0
 19 20  1  0
 20 21  2  0
 21 22  1  0
 22 23  1  0
 22 24  1  0
 22 25  1  0
 21 26  1  0
 26 27  2  0
 27 28  1  0
 28 29  2  0
 28 30  1  0
  9  4  1  0
 16 11  1  0
 27 18  1  0
  3 31  1  0
  5 32  1  0
  6 33  1  0
  7 34  1  0
  8 35  1  0
 12 36  1  0
 13 37  1  0
 14 38  1  0
 15 39  1  0
 19 40  1  0
 20 41  1  0
 26 42  1  0
M  CHG  2  28   1  30  -1
M  END
$$$$
