
     RDKit          3D

 32 33  0  0  0  0  0  0  0  0999 V2000
   -5.7977   -0.8077   -0.5867 C   0  0  0  0  0  0  0  0  0  0  0  0
   -4.3568   -0.3984   -0.4942 C   0  0  0  0  0  0  0  0  0  0  0  0
   -3.3663   -1.1251   -1.1666 C   0  0  0  0  0  0  0  0  0  0  0  0
   -2.0213   -0.7590   -1.0571 C   0  0  0  0  0  0  0  0  0  0  0  0
   -0.8537   -1.6657   -1.9528 Cl  0  0  0  0  0  0  0  0  0  0  0  0
   -1.6454    0.3201   -0.2472 C   0  0  0  0  0  0  0  0  0  0  0  0
   -0.3279    0.6980   -0.1654 O   0  0  0  0  0  0  0  0  0  0  0  0
    0.3406   -0.0068    0.8890 C   0  0  0  0  0  0  0  0  0  0  0  0
    1.8217    0.3515    0.8438 C   0  0  0  0  0  0  0  0  0  0  0  0
    2.4615   -0.0654   -0.4793 C   0  0  0  0  0  0  0  0  0  0  0  0
    3.8827    0.2181   -0.5030 N   0  0  0  0  0  0  0  0  0  0  0  0
    4.8833   -0.6243   -0.1084 C   0  0  0  0  0  0  0  0  0  0  0  0
    6.0435    0.0830   -0.3222 C   0  0  0  0  0  0  0  0  0  0  0  0
    5.7696    1.3240   -0.8370 N   0  0  0  0  0  0  0  0  0  0  0  0
    4.4603    1.3747   -0.9408 C   0  0  0  0  0  0  0  0  0  0  0  0
   -2.6348    1.0599    0.4099 C   0  0  0  0  0  0  0  0  0  0  0  0
   -2.2111    2.5879    1.4546 Br  0  0  0  0  0  0  0  0  0  0  0  0
   -3.9803    0.6925    0.2999 C   0  0  0  0  0  0  0  0  0  0  0  0
   -6.0028   -1.3091   -1.5384 H   0  0  0  0  0  0  0  0  0  0  0  0
   -6.0458   -1.4899    0.2321 H   0  0  0  0  0  0  0  0  0  0  0  0
   -6.4549    0.0666   -0.5325 H   0  0  0  0  0  0  0  0  0  0  0  0
   -3.6445   -1.9745   -1.7877 H   0  0  0  0  0  0  0  0  0  0  0  0
    0.2194   -1.0916    0.7815 H   0  0  0  0  0  0  0  0  0  0  0  0
   -0.0708    0.2929    1.8601 H   0  0  0  0  0  0  0  0  0  0  0  0
    1.9386    1.4350    0.9729 H   0  0  0  0  0  0  0  0  0  0  0  0
    2.3366   -0.1318    1.6828 H   0  0  0  0  0  0  0  0  0  0  0  0
    2.3398   -1.1412   -0.6513 H   0  0  0  0  0  0  0  0  0  0  0  0
    2.0098    0.4608   -1.3279 H   0  0  0  0  0  0  0  0  0  0  0  0
    4.7000   -1.6171    0.2769 H   0  0  0  0  0  0  0  0  0  0  0  0
    7.0607   -0.2351   -0.1346 H   0  0  0  0  0  0  0  0  0  0  0  0
    3.8895    2.2135   -1.3178 H   0  0  0  0  0  0  0  0  0  0  0  0
   -4.7432    1.2643    0.8255 H   0  0  0  0  0  0  0  0  0  0  0  0
  1  2  1  0
  2  3  2  0
  3  4  1  0
  4  5  1  0
  4  6  2  0
  6  7  1  0
  7  8  1  0
  8  9  1  0
  9 10  1  0
 10 11  1  0
 11 12  1  0
 12 13  2  0
 13 14  1  0
 14 15  2  0
  6 16  1  0
 16 17  1  0
 16 18  2  0
 18  2  1  0
 15 11  1  0
  1 19  1  0
  1 20  1  0
  1 21  1  0
  3 22  1  0
  8 23  1  0
  8 24  1  0
  9 25  1  0
  9 26  1  0
 10 27  1  0
 10 28  1  0
 12 29  1  0
 13 30  1  0
 15 31  1  0
 18 32  1  0
M  END
$$$$
