
     RDKit          3D

 67 72  0  0  0  0  0  0  0  0999 V2000
    2.7473   -3.1706    1.4630 O   0  0  0  0  0  0  0  0  0  0  0  0
    2.7720   -2.1426    0.7771 C   0  0  0  0  0  0  0  0  0  0  0  0
    4.0412   -1.2796    0.7493 C   0  0  0  0  0  0  0  0  0  0  0  0
    4.2313   -0.4636    2.0386 C   0  0  0  0  0  0  0  0  0  0  0  0
    3.0938    0.4411    2.4572 C   0  0  0  0  0  0  0  0  0  0  0  0
    3.0266    1.7646    2.0044 C   0  0  0  0  0  0  0  0  0  0  0  0
    1.9828    2.5995    2.4089 C   0  0  0  0  0  0  0  0  0  0  0  0
    0.9999    2.1229    3.2744 C   0  0  0  0  0  0  0  0  0  0  0  0
    1.0551    0.8082    3.7312 C   0  0  0  0  0  0  0  0  0  0  0  0
    2.0938   -0.0309    3.3213 C   0  0  0  0  0  0  0  0  0  0  0  0
    4.1663   -0.4843   -0.4681 N   0  0  0  0  0  0  0  0  0  0  0  0
    3.0070    0.0978   -0.9528 C   0  0  0  0  0  0  0  0  0  0  0  0
    3.2146    1.1893   -1.7037 N   0  0  0  0  0  0  0  0  0  0  0  0
    2.1279    1.7354   -2.2431 C   0  0  0  0  0  0  0  0  0  0  0  0
    0.8684    1.3344   -2.0508 N   0  0  0  0  0  0  0  0  0  0  0  0
    0.6717    0.2632   -1.2511 C   0  0  0  0  0  0  0  0  0  0  0  0
   -0.6679   -0.0144   -0.8921 N   0  0  0  0  0  0  0  0  0  0  0  0
   -1.6725    0.4379   -1.8883 C   0  0  0  0  0  0  0  0  0  0  0  0
   -2.3234    1.7940   -1.5344 C   0  0  0  0  0  0  0  0  0  0  0  0
   -2.9633    1.7505   -0.2010 N   0  0  0  0  0  0  0  0  0  0  0  0
   -4.1005    2.4893    0.0805 C   0  0  0  0  0  0  0  0  0  0  0  0
   -4.4250    3.6490   -0.6446 C   0  0  0  0  0  0  0  0  0  0  0  0
   -5.5702    4.4058   -0.3640 C   0  0  0  0  0  0  0  0  0  0  0  0
   -6.4254    4.0220    0.6623 C   0  0  0  0  0  0  0  0  0  0  0  0
   -6.1323    2.8834    1.4020 C   0  0  0  0  0  0  0  0  0  0  0  0
   -4.9861    2.1317    1.1113 C   0  0  0  0  0  0  0  0  0  0  0  0
   -2.4197    0.7630    0.7471 C   0  0  0  0  0  0  0  0  0  0  0  0
   -0.9186    0.5096    0.4823 C   0  0  0  0  0  0  0  0  0  0  0  0
    1.7479   -0.4622   -0.7106 C   0  0  0  0  0  0  0  0  0  0  0  0
    1.6639   -1.6833    0.0560 N   0  0  0  0  0  0  0  0  0  0  0  0
    0.5542   -2.6196   -0.1001 C   0  0  0  0  0  0  0  0  0  0  0  0
    0.7855   -3.6028   -1.2321 C   0  0  0  0  0  0  0  0  0  0  0  0
    0.5720   -3.2252   -2.5674 C   0  0  0  0  0  0  0  0  0  0  0  0
    0.8049   -4.1286   -3.6081 C   0  0  0  0  0  0  0  0  0  0  0  0
    1.2452   -5.4193   -3.3172 C   0  0  0  0  0  0  0  0  0  0  0  0
    1.5643   -6.6413   -4.7221 Br  0  0  0  0  0  0  0  0  0  0  0  0
    1.4591   -5.8143   -1.9970 C   0  0  0  0  0  0  0  0  0  0  0  0
    1.2345   -4.9068   -0.9586 C   0  0  0  0  0  0  0  0  0  0  0  0
    4.8724   -1.9970    0.7020 H   0  0  0  0  0  0  0  0  0  0  0  0
    4.4248   -1.1590    2.8676 H   0  0  0  0  0  0  0  0  0  0  0  0
    5.1446    0.1410    1.9554 H   0  0  0  0  0  0  0  0  0  0  0  0
    3.7867    2.1571    1.3309 H   0  0  0  0  0  0  0  0  0  0  0  0
    1.9374    3.6236    2.0488 H   0  0  0  0  0  0  0  0  0  0  0  0
    0.1956    2.7809    3.5960 H   0  0  0  0  0  0  0  0  0  0  0  0
    0.2936    0.4352    4.4118 H   0  0  0  0  0  0  0  0  0  0  0  0
    2.1233   -1.0543    3.6917 H   0  0  0  0  0  0  0  0  0  0  0  0
    4.9610    0.1359   -0.5692 H   0  0  0  0  0  0  0  0  0  0  0  0
    2.2780    2.5901   -2.8917 H   0  0  0  0  0  0  0  0  0  0  0  0
   -1.2663    0.4584   -2.9074 H   0  0  0  0  0  0  0  0  0  0  0  0
   -2.4620   -0.3266   -1.9061 H   0  0  0  0  0  0  0  0  0  0  0  0
   -3.0619    2.0076   -2.3163 H   0  0  0  0  0  0  0  0  0  0  0  0
   -1.5748    2.5945   -1.5436 H   0  0  0  0  0  0  0  0  0  0  0  0
   -3.7704    4.0047   -1.4371 H   0  0  0  0  0  0  0  0  0  0  0  0
   -5.7839    5.2977   -0.9478 H   0  0  0  0  0  0  0  0  0  0  0  0
   -7.3122    4.6078    0.8856 H   0  0  0  0  0  0  0  0  0  0  0  0
   -6.7949    2.5693    2.2045 H   0  0  0  0  0  0  0  0  0  0  0  0
   -4.8162    1.2360    1.7028 H   0  0  0  0  0  0  0  0  0  0  0  0
   -2.9787   -0.1759    0.6557 H   0  0  0  0  0  0  0  0  0  0  0  0
   -2.5134    1.1226    1.7791 H   0  0  0  0  0  0  0  0  0  0  0  0
   -0.3843    1.4573    0.6383 H   0  0  0  0  0  0  0  0  0  0  0  0
   -0.5497   -0.2113    1.2202 H   0  0  0  0  0  0  0  0  0  0  0  0
   -0.4148   -2.1438   -0.2311 H   0  0  0  0  0  0  0  0  0  0  0  0
    0.4392   -3.1831    0.8378 H   0  0  0  0  0  0  0  0  0  0  0  0
    0.2296   -2.2200   -2.8073 H   0  0  0  0  0  0  0  0  0  0  0  0
    0.6430   -3.8128   -4.6363 H   0  0  0  0  0  0  0  0  0  0  0  0
    1.8079   -6.8191   -1.7637 H   0  0  0  0  0  0  0  0  0  0  0  0
    1.4203   -5.2201    0.0694 H   0  0  0  0  0  0  0  0  0  0  0  0
  1  2  2  0
  2  3  1  0
  3  4  1  0
  4  5  1  0
  5  6  2  0
  6  7  1  0
  7  8  2  0
  8  9  1  0
  9 10  2  0
  3 11  1  0
 11 12  1  0
 12 13  2  0
 13 14  1  0
 14 15  2  0
 15 16  1  0
 16 17  1  0
 17 18  1  0
 18 19  1  0
 19 20  1  0
 20 21  1  0
 21 22  2  0
 22 23  1  0
 23 24  2  0
 24 25  1  0
 25 26  2  0
 20 27  1  0
 27 28  1  0
 16 29  2  0
 29 30  1  0
 30 31  1  0
 31 32  1  0
 32 33  2  0
 33 34  1  0
 34 35  2  0
 35 36  1  0
 35 37  1  0
 37 38  2  0
 30  2  1  0
 38 32  1  0
 10  5  1  0
 29 12  1  0
 28 17  1  0
 26 21  1  0
  3 39  1  0
  4 40  1  0
  4 41  1  0
  6 42  1  0
  7 43  1  0
  8 44  1  0
  9 45  1  0
 10 46  1  0
 11 47  1  0
 14 48  1  0
 18 49  1  0
 18 50  1  0
 19 51  1  0
 19 52  1  0
 22 53  1  0
 23 54  1  0
 24 55  1  0
 25 56  1  0
 26 57  1  0
 27 58  1  0
 27 59  1  0
 28 60  1  0
 28 61  1  0
 31 62  1  0
 31 63  1  0
 33 64  1  0
 34 65  1  0
 37 66  1  0
 38 67  1  0
M  END
$$$$
