
     RDKit          3D

 39 41  0  0  0  0  0  0  0  0999 V2000
   -1.8782   -0.4391   -3.3313 O   0  0  0  0  0  0  0  0  0  0  0  0
   -2.5160   -1.0253   -2.1745 S   0  0  0  0  0  6  0  0  0  0  0  0
   -3.6355   -1.9319   -2.2932 O   0  0  0  0  0  0  0  0  0  0  0  0
   -1.3486   -1.8210   -1.2786 N   0  0  0  0  0  0  0  0  0  0  0  0
   -0.1496   -1.0997   -0.8303 C   0  0  0  0  0  0  0  0  0  0  0  0
    1.0355   -2.0617   -0.7571 C   0  0  0  0  0  0  0  0  0  0  0  0
    2.2767   -1.3812   -0.3000 C   0  0  0  0  0  0  0  0  0  0  0  0
    3.5033   -1.3000   -0.9265 C   0  0  0  0  0  0  0  0  0  0  0  0
    4.3033   -0.5690   -0.0860 N   0  0  0  0  0  0  0  0  0  0  0  0
    5.6354   -0.1904   -0.2322 C   0  0  0  0  0  0  0  0  0  0  0  0
    6.2182    0.5365    0.7366 C   0  0  0  0  0  0  0  0  0  0  0  0
    5.4363    0.9038    1.9087 C   0  0  0  0  0  0  0  0  0  0  0  0
    4.1473    0.5327    2.0414 C   0  0  0  0  0  0  0  0  0  0  0  0
    3.5247   -0.2366    1.0176 C   0  0  0  0  0  0  0  0  0  0  0  0
    2.3031   -0.7158    0.9051 N   0  0  0  0  0  0  0  0  0  0  0  0
   -3.0097    0.2928   -1.0847 C   0  0  0  0  0  0  0  0  0  0  0  0
   -2.5244    1.5873   -1.2928 C   0  0  0  0  0  0  0  0  0  0  0  0
   -2.9340    2.6149   -0.4439 C   0  0  0  0  0  0  0  0  0  0  0  0
   -3.8264    2.3445    0.5925 C   0  0  0  0  0  0  0  0  0  0  0  0
   -4.2056    3.3496    1.3922 F   0  0  0  0  0  0  0  0  0  0  0  0
   -4.3286    1.0607    0.8044 C   0  0  0  0  0  0  0  0  0  0  0  0
   -5.2943    0.8310    1.9287 C   0  0  0  0  0  0  0  0  0  0  0  0
   -4.7878    1.1800    3.1427 F   0  0  0  0  0  0  0  0  0  0  0  0
   -6.4552    1.5248    1.7818 F   0  0  0  0  0  0  0  0  0  0  0  0
   -5.6614   -0.4772    2.0512 F   0  0  0  0  0  0  0  0  0  0  0  0
   -3.9174    0.0253   -0.0511 C   0  0  0  0  0  0  0  0  0  0  0  0
   -1.6995   -2.5914   -0.7118 H   0  0  0  0  0  0  0  0  0  0  0  0
    0.0899   -0.2799   -1.5166 H   0  0  0  0  0  0  0  0  0  0  0  0
   -0.3523   -0.6665    0.1558 H   0  0  0  0  0  0  0  0  0  0  0  0
    0.8067   -2.8833   -0.0668 H   0  0  0  0  0  0  0  0  0  0  0  0
    1.1998   -2.5191   -1.7409 H   0  0  0  0  0  0  0  0  0  0  0  0
    3.8644   -1.6891   -1.8675 H   0  0  0  0  0  0  0  0  0  0  0  0
    6.1493   -0.5027   -1.1321 H   0  0  0  0  0  0  0  0  0  0  0  0
    7.2526    0.8569    0.6723 H   0  0  0  0  0  0  0  0  0  0  0  0
    5.9256    1.4899    2.6810 H   0  0  0  0  0  0  0  0  0  0  0  0
    3.5634    0.8037    2.9134 H   0  0  0  0  0  0  0  0  0  0  0  0
   -1.8351    1.8020   -2.1074 H   0  0  0  0  0  0  0  0  0  0  0  0
   -2.5679    3.6282   -0.5850 H   0  0  0  0  0  0  0  0  0  0  0  0
   -4.3076   -0.9834    0.0849 H   0  0  0  0  0  0  0  0  0  0  0  0
  1  2  2  0
  2  3  2  0
  2  4  1  0
  4  5  1  0
  5  6  1  0
  6  7  1  0
  7  8  2  0
  8  9  1  0
  9 10  1  0
 10 11  2  0
 11 12  1  0
 12 13  2  0
 13 14  1  0
 14 15  2  0
  2 16  1  0
 16 17  2  0
 17 18  1  0
 18 19  2  0
 19 20  1  0
 19 21  1  0
 21 22  1  0
 22 23  1  0
 22 24  1  0
 22 25  1  0
 21 26  2  0
 15  7  1  0
 26 16  1  0
 14  9  1  0
  4 27  1  0
  5 28  1  0
  5 29  1  0
  6 30  1  0
  6 31  1  0
  8 32  1  0
 10 33  1  0
 11 34  1  0
 12 35  1  0
 13 36  1  0
 17 37  1  0
 18 38  1  0
 26 39  1  0
M  END
$$$$
