
     RDKit          3D

 61 66  0  0  0  0  0  0  0  0999 V2000
    9.1307    0.5016    1.6349 F   0  0  0  0  0  0  0  0  0  0  0  0
    8.1788    1.1705    0.9241 C   0  0  0  0  0  0  0  0  0  0  0  0
    8.8565    1.9252    0.0149 F   0  0  0  0  0  0  0  0  0  0  0  0
    7.6182    2.0525    1.7982 F   0  0  0  0  0  0  0  0  0  0  0  0
    7.1709    0.2568    0.2731 C   0  0  0  0  0  0  0  0  0  0  0  0
    7.5010   -1.0700   -0.0390 C   0  0  0  0  0  0  0  0  0  0  0  0
    6.5702   -1.9040   -0.6588 C   0  0  0  0  0  0  0  0  0  0  0  0
    5.3012   -1.4212   -0.9795 C   0  0  0  0  0  0  0  0  0  0  0  0
    4.9478   -0.0981   -0.6832 C   0  0  0  0  0  0  0  0  0  0  0  0
    3.5754    0.4333   -1.0452 C   0  0  0  0  0  0  0  0  0  0  0  0
    2.8532    1.0027    0.1048 N   0  0  0  0  0  0  0  0  0  0  0  0
    1.6277    1.7094   -0.3321 C   0  0  0  0  0  0  0  0  0  0  0  0
    0.4760    0.7981   -0.8105 C   0  0  0  0  0  0  0  0  0  0  0  0
    0.1447   -0.2196    0.2063 N   0  0  0  0  0  0  0  0  0  0  0  0
   -1.0385   -0.9352    0.0285 C   0  0  0  0  0  0  0  0  0  0  0  0
   -0.9786   -2.2233   -0.1985 N   0  0  0  0  0  0  0  0  0  0  0  0
   -2.1567   -2.9665   -0.4140 C   0  0  0  0  0  0  0  0  0  0  0  0
   -2.0403   -4.3352   -0.6637 C   0  0  0  0  0  0  0  0  0  0  0  0
   -3.1750   -5.1176   -0.8944 C   0  0  0  0  0  0  0  0  0  0  0  0
   -4.4428   -4.5349   -0.8776 C   0  0  0  0  0  0  0  0  0  0  0  0
   -4.5836   -3.1690   -0.6298 C   0  0  0  0  0  0  0  0  0  0  0  0
   -3.4394   -2.3989   -0.4014 C   0  0  0  0  0  0  0  0  0  0  0  0
   -3.4906   -1.0213   -0.1326 N   0  0  0  0  0  0  0  0  0  0  0  0
   -4.5792   -0.1876   -0.0315 C   0  0  0  0  0  0  0  0  0  0  0  0
   -4.1351    1.0772    0.3101 C   0  0  0  0  0  0  0  0  0  0  0  0
   -5.0127    2.2158    0.5415 C   0  0  0  0  0  0  0  0  0  0  0  0
   -4.6851    3.1684    1.5160 C   0  0  0  0  0  0  0  0  0  0  0  0
   -5.5158    4.2692    1.7427 C   0  0  0  0  0  0  0  0  0  0  0  0
   -6.6803    4.4306    0.9952 C   0  0  0  0  0  0  0  0  0  0  0  0
   -7.0155    3.4926    0.0210 C   0  0  0  0  0  0  0  0  0  0  0  0
   -6.1859    2.3908   -0.2054 C   0  0  0  0  0  0  0  0  0  0  0  0
   -2.7198    0.9917    0.4137 C   0  0  0  0  0  0  0  0  0  0  0  0
   -2.3427   -0.2999    0.0949 C   0  0  0  0  0  0  0  0  0  0  0  0
    1.3328   -0.9779    0.6512 C   0  0  0  0  0  0  0  0  0  0  0  0
    2.4615   -0.0251    1.0994 C   0  0  0  0  0  0  0  0  0  0  0  0
    5.8940    0.7345   -0.0635 C   0  0  0  0  0  0  0  0  0  0  0  0
    8.4885   -1.4606    0.2027 H   0  0  0  0  0  0  0  0  0  0  0  0
    6.8348   -2.9322   -0.8940 H   0  0  0  0  0  0  0  0  0  0  0  0
    4.5898   -2.0870   -1.4636 H   0  0  0  0  0  0  0  0  0  0  0  0
    2.9918   -0.3473   -1.5469 H   0  0  0  0  0  0  0  0  0  0  0  0
    3.7412    1.2168   -1.7972 H   0  0  0  0  0  0  0  0  0  0  0  0
    1.2673    2.3062    0.5166 H   0  0  0  0  0  0  0  0  0  0  0  0
    1.8721    2.4353   -1.1173 H   0  0  0  0  0  0  0  0  0  0  0  0
    0.7486    0.2994   -1.7487 H   0  0  0  0  0  0  0  0  0  0  0  0
   -0.3888    1.4317   -1.0302 H   0  0  0  0  0  0  0  0  0  0  0  0
   -1.0544   -4.7921   -0.6783 H   0  0  0  0  0  0  0  0  0  0  0  0
   -3.0672   -6.1821   -1.0865 H   0  0  0  0  0  0  0  0  0  0  0  0
   -5.3228   -5.1483   -1.0561 H   0  0  0  0  0  0  0  0  0  0  0  0
   -5.5798   -2.7398   -0.6179 H   0  0  0  0  0  0  0  0  0  0  0  0
   -5.5834   -0.5568   -0.1805 H   0  0  0  0  0  0  0  0  0  0  0  0
   -3.7872    3.0567    2.1189 H   0  0  0  0  0  0  0  0  0  0  0  0
   -5.2534    4.9980    2.5052 H   0  0  0  0  0  0  0  0  0  0  0  0
   -7.3260    5.2869    1.1716 H   0  0  0  0  0  0  0  0  0  0  0  0
   -7.9213    3.6186   -0.5662 H   0  0  0  0  0  0  0  0  0  0  0  0
   -6.4604    1.6799   -0.9804 H   0  0  0  0  0  0  0  0  0  0  0  0
   -2.0424    1.7909    0.6842 H   0  0  0  0  0  0  0  0  0  0  0  0
    1.0645   -1.6125    1.5047 H   0  0  0  0  0  0  0  0  0  0  0  0
    1.6850   -1.6350   -0.1531 H   0  0  0  0  0  0  0  0  0  0  0  0
    2.1267    0.5041    2.0020 H   0  0  0  0  0  0  0  0  0  0  0  0
    3.3302   -0.6119    1.4188 H   0  0  0  0  0  0  0  0  0  0  0  0
    5.6238    1.7652    0.1693 H   0  0  0  0  0  0  0  0  0  0  0  0
  1  2  1  0
  2  3  1  0
  2  4  1  0
  2  5  1  0
  5  6  2  0
  6  7  1  0
  7  8  2  0
  8  9  1  0
  9 10  1  0
 10 11  1  0
 11 12  1  0
 12 13  1  0
 13 14  1  0
 14 15  1  0
 15 16  2  0
 16 17  1  0
 17 18  2  0
 18 19  1  0
 19 20  2  0
 20 21  1  0
 21 22  2  0
 22 23  1  0
 23 24  1  0
 24 25  2  0
 25 26  1  0
 26 27  2  0
 27 28  1  0
 28 29  2  0
 29 30  1  0
 30 31  2  0
 25 32  1  0
 32 33  2  0
 14 34  1  0
 34 35  1  0
  9 36  2  0
 36  5  1  0
 35 11  1  0
 33 15  1  0
 22 17  1  0
 33 23  1  0
 31 26  1  0
  6 37  1  0
  7 38  1  0
  8 39  1  0
 10 40  1  0
 10 41  1  0
 12 42  1  0
 12 43  1  0
 13 44  1  0
 13 45  1  0
 18 46  1  0
 19 47  1  0
 20 48  1  0
 21 49  1  0
 24 50  1  0
 27 51  1  0
 28 52  1  0
 29 53  1  0
 30 54  1  0
 31 55  1  0
 32 56  1  0
 34 57  1  0
 34 58  1  0
 35 59  1  0
 35 60  1  0
 36 61  1  0
M  END
$$$$
