
     RDKit          3D

 46 48  0  0  0  0  0  0  0  0999 V2000
    8.3069   -1.3649    1.8429 C   0  0  0  0  0  0  0  0  0  0  0  0
    8.0648   -1.5173    0.3520 C   0  0  0  0  0  0  0  0  0  0  0  0
    7.0541   -0.5957   -0.0831 O   0  0  0  0  0  0  0  0  0  0  0  0
    5.7726   -1.0308    0.0313 C   0  0  0  0  0  0  0  0  0  0  0  0
    5.4242   -2.1147    0.4704 O   0  0  0  0  0  0  0  0  0  0  0  0
    4.8263    0.0140   -0.4509 C   0  0  0  0  0  0  0  0  0  0  0  0
    5.2702    1.1774   -1.0938 C   0  0  0  0  0  0  0  0  0  0  0  0
    4.3481    2.1216   -1.5406 C   0  0  0  0  0  0  0  0  0  0  0  0
    2.9823    1.9084   -1.3454 C   0  0  0  0  0  0  0  0  0  0  0  0
    2.5209    0.7544   -0.6974 C   0  0  0  0  0  0  0  0  0  0  0  0
    1.1242    0.6247   -0.5436 N   0  0  0  0  0  0  0  0  0  0  0  0
    0.4440   -0.3550    0.1574 C   0  0  0  0  0  0  0  0  0  0  0  0
    0.9348   -1.2506    0.8328 O   0  0  0  0  0  0  0  0  0  0  0  0
   -1.0414   -0.2441    0.1067 C   0  0  0  0  0  0  0  0  0  0  0  0
   -1.7129    0.1856   -1.0424 C   0  0  0  0  0  0  0  0  0  0  0  0
   -3.1105    0.2846   -1.0452 C   0  0  0  0  0  0  0  0  0  0  0  0
   -3.8500   -0.0510    0.0916 C   0  0  0  0  0  0  0  0  0  0  0  0
   -5.2517    0.0278    0.1700 N   0  0  0  0  0  0  0  0  0  0  0  0
   -6.1465    0.4561   -0.7954 C   0  0  0  0  0  0  0  0  0  0  0  0
   -5.8472    0.8535   -1.9168 O   0  0  0  0  0  0  0  0  0  0  0  0
   -7.5254    0.3932   -0.3421 C   0  0  0  0  0  0  0  0  0  0  0  0
   -8.7084    0.7237   -0.9759 C   0  0  0  0  0  0  0  0  0  0  0  0
   -9.7525    0.4573   -0.0578 C   0  0  0  0  0  0  0  0  0  0  0  0
   -9.1483   -0.0184    1.0814 C   0  0  0  0  0  0  0  0  0  0  0  0
   -7.7997   -0.0630    0.9239 O   0  0  0  0  0  0  0  0  0  0  0  0
   -3.1727   -0.5024    1.2314 C   0  0  0  0  0  0  0  0  0  0  0  0
   -1.7780   -0.6038    1.2390 C   0  0  0  0  0  0  0  0  0  0  0  0
    3.4498   -0.1925   -0.2578 C   0  0  0  0  0  0  0  0  0  0  0  0
    9.1179   -2.0203    2.1728 H   0  0  0  0  0  0  0  0  0  0  0  0
    8.5682   -0.3291    2.0862 H   0  0  0  0  0  0  0  0  0  0  0  0
    7.4060   -1.6096    2.4150 H   0  0  0  0  0  0  0  0  0  0  0  0
    7.8034   -2.5497    0.0902 H   0  0  0  0  0  0  0  0  0  0  0  0
    8.9800   -1.2690   -0.1963 H   0  0  0  0  0  0  0  0  0  0  0  0
    6.3296    1.3577   -1.2580 H   0  0  0  0  0  0  0  0  0  0  0  0
    4.6929    3.0237   -2.0412 H   0  0  0  0  0  0  0  0  0  0  0  0
    2.2853    2.6622   -1.7033 H   0  0  0  0  0  0  0  0  0  0  0  0
    0.5698    1.3831   -0.9204 H   0  0  0  0  0  0  0  0  0  0  0  0
   -1.1731    0.4157   -1.9575 H   0  0  0  0  0  0  0  0  0  0  0  0
   -3.5917    0.6154   -1.9612 H   0  0  0  0  0  0  0  0  0  0  0  0
   -5.6836   -0.2588    1.0429 H   0  0  0  0  0  0  0  0  0  0  0  0
   -8.7927    1.1091   -1.9830 H   0  0  0  0  0  0  0  0  0  0  0  0
  -10.8145    0.5948   -0.2080 H   0  0  0  0  0  0  0  0  0  0  0  0
   -9.5198   -0.3524    2.0408 H   0  0  0  0  0  0  0  0  0  0  0  0
   -3.7174   -0.7842    2.1295 H   0  0  0  0  0  0  0  0  0  0  0  0
   -1.2673   -0.9603    2.1322 H   0  0  0  0  0  0  0  0  0  0  0  0
    3.1291   -1.1064    0.2355 H   0  0  0  0  0  0  0  0  0  0  0  0
  1  2  1  0
  2  3  1  0
  3  4  1  0
  4  5  2  0
  4  6  1  0
  6  7  2  0
  7  8  1  0
  8  9  2  0
  9 10  1  0
 10 11  1  0
 11 12  1  0
 12 13  2  0
 12 14  1  0
 14 15  2  0
 15 16  1  0
 16 17  2  0
 17 18  1  0
 18 19  1  0
 19 20  2  0
 19 21  1  0
 21 22  2  0
 22 23  1  0
 23 24  2  0
 24 25  1  0
 17 26  1  0
 26 27  2  0
 10 28  2  0
 28  6  1  0
 27 14  1  0
 25 21  1  0
  1 29  1  0
  1 30  1  0
  1 31  1  0
  2 32  1  0
  2 33  1  0
  7 34  1  0
  8 35  1  0
  9 36  1  0
 11 37  1  0
 15 38  1  0
 16 39  1  0
 18 40  1  0
 22 41  1  0
 23 42  1  0
 24 43  1  0
 26 44  1  0
 27 45  1  0
 28 46  1  0
M  END
$$$$
