
     RDKit          3D

 60 64  0  0  0  0  0  0  0  0999 V2000
   -1.4179    0.0317   -3.8585 C   0  0  0  0  0  0  0  0  0  0  0  0
   -2.0598    0.0465   -2.5469 N   0  0  0  0  0  0  0  0  0  0  0  0
   -3.4406    0.2516   -2.5250 C   0  0  0  0  0  0  0  0  0  0  0  0
   -4.0883    0.4530   -3.5569 O   0  0  0  0  0  0  0  0  0  0  0  0
   -4.1683    0.1713   -1.2155 C   0  0  0  0  0  0  0  0  0  0  0  0
   -5.4587   -0.2127   -1.2602 C   0  0  0  0  0  0  0  0  0  0  0  0
   -6.3840   -0.3304   -0.1270 C   0  0  0  0  0  0  0  0  0  0  0  0
   -6.2064   -1.3108    0.8546 C   0  0  0  0  0  0  0  0  0  0  0  0
   -7.1101   -1.4192    1.9147 C   0  0  0  0  0  0  0  0  0  0  0  0
   -8.2064   -0.5487    2.0098 C   0  0  0  0  0  0  0  0  0  0  0  0
   -9.1946   -0.6790    3.1417 C   0  0  0  0  0  0  0  0  0  0  0  0
  -10.2362   -1.4950    2.8279 F   0  0  0  0  0  0  0  0  0  0  0  0
   -9.7488    0.5103    3.5082 F   0  0  0  0  0  0  0  0  0  0  0  0
   -8.6443   -1.1955    4.2751 F   0  0  0  0  0  0  0  0  0  0  0  0
   -8.3888    0.4207    1.0121 C   0  0  0  0  0  0  0  0  0  0  0  0
   -7.4844    0.5287   -0.0477 C   0  0  0  0  0  0  0  0  0  0  0  0
   -3.3663    0.6824    0.2139 S   0  0  0  0  0  0  0  0  0  0  0  0
   -1.7704   -0.0272   -0.0897 C   0  0  0  0  0  0  0  0  0  0  0  0
   -0.9845   -0.3206    1.0410 C   0  0  0  0  0  0  0  0  0  0  0  0
    0.3054   -0.8228    0.9005 C   0  0  0  0  0  0  0  0  0  0  0  0
    0.8149   -1.0089   -0.3802 C   0  0  0  0  0  0  0  0  0  0  0  0
    2.1726   -1.5511   -0.5550 C   0  0  0  0  0  0  0  0  0  0  0  0
    2.2728   -2.7524   -0.7836 O   0  0  0  0  0  0  0  0  0  0  0  0
    3.2437   -0.6751   -0.4701 N   0  0  0  0  0  0  0  0  0  0  0  0
    3.1440    0.7825   -0.2908 C   0  0  0  0  0  0  0  0  0  0  0  0
    4.4027    1.3800    0.3649 C   0  0  0  0  0  0  0  0  0  0  0  0
    5.6369    1.0588   -0.3902 N   0  0  0  0  0  0  0  0  0  0  0  0
    6.7607    1.0578    0.4633 C   0  0  0  0  0  0  0  0  0  0  0  0
    7.1560    2.2543    1.0660 C   0  0  0  0  0  0  0  0  0  0  0  0
    8.2592    2.2727    1.9180 C   0  0  0  0  0  0  0  0  0  0  0  0
    8.9499    1.0945    2.1536 C   0  0  0  0  0  0  0  0  0  0  0  0
    8.5057   -0.0497    1.5184 C   0  0  0  0  0  0  0  0  0  0  0  0
    7.4380   -0.0882    0.6889 N   0  0  0  0  0  0  0  0  0  0  0  0
    5.5481   -0.1387   -1.2583 C   0  0  0  0  0  0  0  0  0  0  0  0
    4.5996   -1.2032   -0.6874 C   0  0  0  0  0  0  0  0  0  0  0  0
    0.0407   -0.7352   -1.5136 C   0  0  0  0  0  0  0  0  0  0  0  0
   -1.2697   -0.2408   -1.3861 C   0  0  0  0  0  0  0  0  0  0  0  0
   -1.1836   -1.0028   -4.1309 H   0  0  0  0  0  0  0  0  0  0  0  0
   -0.5072    0.6402   -3.8345 H   0  0  0  0  0  0  0  0  0  0  0  0
   -2.0623    0.4477   -4.6390 H   0  0  0  0  0  0  0  0  0  0  0  0
   -5.9143   -0.4632   -2.2177 H   0  0  0  0  0  0  0  0  0  0  0  0
   -5.3658   -1.9996    0.8008 H   0  0  0  0  0  0  0  0  0  0  0  0
   -6.9539   -2.1892    2.6690 H   0  0  0  0  0  0  0  0  0  0  0  0
   -9.2391    1.0998    1.0563 H   0  0  0  0  0  0  0  0  0  0  0  0
   -7.6440    1.2903   -0.8086 H   0  0  0  0  0  0  0  0  0  0  0  0
   -1.3787   -0.1572    2.0433 H   0  0  0  0  0  0  0  0  0  0  0  0
    0.9036   -1.0634    1.7758 H   0  0  0  0  0  0  0  0  0  0  0  0
    2.2676    1.0367    0.3095 H   0  0  0  0  0  0  0  0  0  0  0  0
    2.9968    1.2141   -1.2882 H   0  0  0  0  0  0  0  0  0  0  0  0
    4.4613    0.9873    1.3899 H   0  0  0  0  0  0  0  0  0  0  0  0
    4.2882    2.4689    0.4271 H   0  0  0  0  0  0  0  0  0  0  0  0
    6.6232    3.1747    0.8546 H   0  0  0  0  0  0  0  0  0  0  0  0
    8.5784    3.2014    2.3787 H   0  0  0  0  0  0  0  0  0  0  0  0
    9.8156    1.0679    2.8057 H   0  0  0  0  0  0  0  0  0  0  0  0
    9.0133   -1.0001    1.6585 H   0  0  0  0  0  0  0  0  0  0  0  0
    5.1497    0.1986   -2.2241 H   0  0  0  0  0  0  0  0  0  0  0  0
    6.5283   -0.5730   -1.4904 H   0  0  0  0  0  0  0  0  0  0  0  0
    4.9588   -1.5639    0.2834 H   0  0  0  0  0  0  0  0  0  0  0  0
    4.5575   -2.0615   -1.3666 H   0  0  0  0  0  0  0  0  0  0  0  0
    0.4841   -0.9453   -2.4830 H   0  0  0  0  0  0  0  0  0  0  0  0
  1  2  1  0
  2  3  1  0
  3  4  2  0
  3  5  1  0
  5  6  2  3
  6  7  1  0
  7  8  2  0
  8  9  1  0
  9 10  2  0
 10 11  1  0
 11 12  1  0
 11 13  1  0
 11 14  1  0
 10 15  1  0
 15 16  2  0
  5 17  1  0
 17 18  1  0
 18 19  2  0
 19 20  1  0
 20 21  2  0
 21 22  1  0
 22 23  2  0
 22 24  1  0
 24 25  1  0
 25 26  1  0
 26 27  1  0
 27 28  1  0
 28 29  2  0
 29 30  1  0
 30 31  2  0
 31 32  1  0
 32 33  2  0
 27 34  1  0
 34 35  1  0
 21 36  1  0
 36 37  2  0
 37  2  1  0
 16  7  1  0
 37 18  1  0
 35 24  1  0
 33 28  1  0
  1 38  1  0
  1 39  1  0
  1 40  1  0
  6 41  1  0
  8 42  1  0
  9 43  1  0
 15 44  1  0
 16 45  1  0
 19 46  1  0
 20 47  1  0
 25 48  1  0
 25 49  1  0
 26 50  1  0
 26 51  1  0
 29 52  1  0
 30 53  1  0
 31 54  1  0
 32 55  1  0
 34 56  1  0
 34 57  1  0
 35 58  1  0
 35 59  1  0
 36 60  1  0
M  END
$$$$
