
     RDKit          3D

 67 72  0  0  0  0  0  0  0  0999 V2000
   -5.6039    3.9922    0.5603 C   0  0  0  0  0  0  0  0  0  0  0  0
   -4.4815    3.3782   -0.2218 C   0  0  0  0  0  0  0  0  0  0  0  0
   -4.2913    3.6675   -1.5871 C   0  0  0  0  0  0  0  0  0  0  0  0
   -5.3515    4.7439   -2.4306 Cl  0  0  0  0  0  0  0  0  0  0  0  0
   -3.2330    3.0981   -2.3234 C   0  0  0  0  0  0  0  0  0  0  0  0
   -2.3310    2.2223   -1.7194 C   0  0  0  0  0  0  0  0  0  0  0  0
   -2.5119    1.9265   -0.3788 C   0  0  0  0  0  0  0  0  0  0  0  0
   -3.5647    2.5039    0.3487 C   0  0  0  0  0  0  0  0  0  0  0  0
   -3.5140    2.0640    1.6711 N   0  0  0  0  0  0  0  0  0  0  0  0
   -2.4382    1.2010    1.8939 C   0  0  0  0  0  0  0  0  0  0  0  0
   -2.1527    0.7061    2.9734 O   0  0  0  0  0  0  0  0  0  0  0  0
   -1.7175    1.0384    0.5327 C   0  0  1  0  0  0  0  0  0  0  0  0
   -1.7463   -0.3577    0.0149 C   0  0  0  0  0  0  0  0  0  0  0  0
   -0.4889   -0.9570    0.1984 C   0  0  0  0  0  0  0  0  0  0  0  0
   -0.5359   -2.2411   -0.2710 C   0  0  0  0  0  0  0  0  0  0  0  0
    0.4217   -3.1627   -0.3248 O   0  0  0  0  0  0  0  0  0  0  0  0
   -1.8385   -2.4578   -0.7778 N   0  0  0  0  0  0  0  0  0  0  0  0
   -2.3237   -3.6681   -1.3850 C   0  0  0  0  0  0  0  0  0  0  0  0
   -1.7346   -4.9073   -1.0936 C   0  0  0  0  0  0  0  0  0  0  0  0
   -2.2161   -6.0726   -1.6903 C   0  0  0  0  0  0  0  0  0  0  0  0
   -1.6468   -7.2472   -1.3885 F   0  0  0  0  0  0  0  0  0  0  0  0
   -3.2759   -6.0419   -2.5814 C   0  0  0  0  0  0  0  0  0  0  0  0
   -3.8574   -4.8190   -2.8717 C   0  0  0  0  0  0  0  0  0  0  0  0
   -4.8766   -4.7667   -3.7397 F   0  0  0  0  0  0  0  0  0  0  0  0
   -3.3980   -3.6391   -2.2865 C   0  0  0  0  0  0  0  0  0  0  0  0
   -2.5802   -1.2702   -0.5783 C   0  0  0  0  0  0  0  0  0  0  0  0
   -3.8683   -1.1646   -0.8962 O   0  0  0  0  0  0  0  0  0  0  0  0
    0.4278   -0.0066    0.8668 C   0  0  1  0  0  0  0  0  0  0  0  0
    1.8758    0.0891    0.3970 C   0  0  0  0  0  0  0  0  0  0  0  0
    2.5479    1.2470    1.0195 N   0  0  0  0  0  0  0  0  0  0  0  0
    3.9280    1.3158    1.1202 C   0  0  0  0  0  0  0  0  0  0  0  0
    4.5331    2.3392    1.4110 O   0  0  0  0  0  0  0  0  0  0  0  0
    4.5177    0.1205    0.8617 O   0  0  0  0  0  0  0  0  0  0  0  0
    5.9596   -0.0308    0.9158 C   0  0  0  0  0  0  0  0  0  0  0  0
    6.2066   -1.5061    0.5641 C   0  0  0  0  0  0  0  0  0  0  0  0
    6.4955    0.2310    2.3274 C   0  0  0  0  0  0  0  0  0  0  0  0
    6.6529    0.8440   -0.1343 C   0  0  0  0  0  0  0  0  0  0  0  0
    1.7990    2.5149    1.0404 C   0  0  0  0  0  0  0  0  0  0  0  0
    0.2923    2.3583    1.3682 C   0  0  0  0  0  0  0  0  0  0  0  0
   -0.2608    1.2858    0.5564 N   0  0  0  0  0  0  0  0  0  0  0  0
   -5.4925    5.0810    0.5929 H   0  0  0  0  0  0  0  0  0  0  0  0
   -6.5678    3.7380    0.1073 H   0  0  0  0  0  0  0  0  0  0  0  0
   -5.6359    3.6388    1.5944 H   0  0  0  0  0  0  0  0  0  0  0  0
   -3.1107    3.3428   -3.3769 H   0  0  0  0  0  0  0  0  0  0  0  0
   -1.5118    1.7861   -2.2845 H   0  0  0  0  0  0  0  0  0  0  0  0
   -4.1383    2.3368    2.4161 H   0  0  0  0  0  0  0  0  0  0  0  0
    1.2205   -2.8075    0.1002 H   0  0  0  0  0  0  0  0  0  0  0  0
   -0.9247   -5.0155   -0.3807 H   0  0  0  0  0  0  0  0  0  0  0  0
   -3.6411   -6.9523   -3.0401 H   0  0  0  0  0  0  0  0  0  0  0  0
   -3.8816   -2.7164   -2.5882 H   0  0  0  0  0  0  0  0  0  0  0  0
   -4.1667   -0.2627   -0.6845 H   0  0  0  0  0  0  0  0  0  0  0  0
    0.4013   -0.1992    1.9491 H   0  0  0  0  0  0  0  0  0  0  0  0
    2.4071   -0.8356    0.6455 H   0  0  0  0  0  0  0  0  0  0  0  0
    1.9421    0.2182   -0.6909 H   0  0  0  0  0  0  0  0  0  0  0  0
    5.8027   -1.7433   -0.4271 H   0  0  0  0  0  0  0  0  0  0  0  0
    7.2733   -1.7537    0.5712 H   0  0  0  0  0  0  0  0  0  0  0  0
    5.6931   -2.1668    1.2725 H   0  0  0  0  0  0  0  0  0  0  0  0
    7.5521   -0.0458    2.4097 H   0  0  0  0  0  0  0  0  0  0  0  0
    6.4114    1.2849    2.6091 H   0  0  0  0  0  0  0  0  0  0  0  0
    5.9267   -0.3389    3.0708 H   0  0  0  0  0  0  0  0  0  0  0  0
    6.1928    0.7069   -1.1192 H   0  0  0  0  0  0  0  0  0  0  0  0
    7.7189    0.6043   -0.2110 H   0  0  0  0  0  0  0  0  0  0  0  0
    6.5746    1.9091    0.1029 H   0  0  0  0  0  0  0  0  0  0  0  0
    1.9136    2.9606    0.0439 H   0  0  0  0  0  0  0  0  0  0  0  0
    2.2584    3.2026    1.7593 H   0  0  0  0  0  0  0  0  0  0  0  0
    0.1745    2.1478    2.4379 H   0  0  0  0  0  0  0  0  0  0  0  0
   -0.2111    3.3086    1.1584 H   0  0  0  0  0  0  0  0  0  0  0  0
  1  2  1  0
  2  3  2  0
  3  4  1  0
  3  5  1  0
  5  6  2  0
  6  7  1  0
  7  8  2  0
  8  9  1  0
  9 10  1  0
 10 11  2  0
 10 12  1  0
 12 13  1  0
 13 14  1  0
 14 15  2  0
 15 16  1  0
 15 17  1  0
 17 18  1  0
 18 19  2  0
 19 20  1  0
 20 21  1  0
 20 22  2  0
 22 23  1  0
 23 24  1  0
 23 25  2  0
 17 26  1  0
 26 27  1  0
 14 28  1  0
 28 29  1  0
 29 30  1  0
 30 31  1  0
 31 32  2  0
 31 33  1  0
 33 34  1  0
 34 35  1  0
 34 36  1  0
 34 37  1  0
 30 38  1  0
 38 39  1  0
 39 40  1  0
  8  2  1  0
 12 40  1  1
 12  7  1  0
 26 13  2  0
 40 28  1  0
 25 18  1  0
  1 41  1  0
  1 42  1  0
  1 43  1  0
  5 44  1  0
  6 45  1  0
  9 46  1  0
 16 47  1  0
 19 48  1  0
 22 49  1  0
 25 50  1  0
 27 51  1  0
 28 52  1  1
 29 53  1  0
 29 54  1  0
 35 55  1  0
 35 56  1  0
 35 57  1  0
 36 58  1  0
 36 59  1  0
 36 60  1  0
 37 61  1  0
 37 62  1  0
 37 63  1  0
 38 64  1  0
 38 65  1  0
 39 66  1  0
 39 67  1  0
M  END
$$$$
