
     RDKit          3D

 46 49  0  0  0  0  0  0  0  0999 V2000
   -4.2818   -3.4838   -1.7870 C   0  0  0  0  0  0  0  0  0  0  0  0
   -3.0363   -2.8126   -1.6421 O   0  0  0  0  0  0  0  0  0  0  0  0
   -3.0619   -1.5741   -1.0654 C   0  0  0  0  0  0  0  0  0  0  0  0
   -4.1911   -0.9017   -0.6149 C   0  0  0  0  0  0  0  0  0  0  0  0
   -4.0699    0.3668   -0.0364 C   0  0  0  0  0  0  0  0  0  0  0  0
   -2.8175    0.9832    0.0965 C   0  0  0  0  0  0  0  0  0  0  0  0
   -2.6346    2.2083    0.6885 O   0  0  0  0  0  0  0  0  0  0  0  0
   -3.7757    2.8778    1.2085 C   0  0  0  0  0  0  0  0  0  0  0  0
   -1.6596    0.3221   -0.3699 C   0  0  0  0  0  0  0  0  0  0  0  0
   -0.3109    0.9065   -0.2813 C   0  0  0  0  0  0  0  0  0  0  0  0
   -0.1590    2.2111   -0.5973 N   0  0  0  0  0  0  0  0  0  0  0  0
    1.0989    2.7086   -0.5251 C   0  0  0  0  0  0  0  0  0  0  0  0
    1.2681    4.1511   -0.8516 C   0  0  0  0  0  0  0  0  0  0  0  0
    0.1160    4.8209   -1.1635 N   0  0  0  0  0  0  0  0  0  0  0  0
    2.3601    4.7052   -0.8396 O   0  0  0  0  0  0  0  0  0  0  0  0
    2.1623    1.9334   -0.1735 C   0  0  0  0  0  0  0  0  0  0  0  0
    3.5160    2.1975   -0.0470 N   0  0  0  0  0  0  0  0  0  0  0  0
    4.1688    1.0169    0.3304 C   0  0  0  0  0  0  0  0  0  0  0  0
    5.3726    0.9532    0.5178 O   0  0  0  0  0  0  0  0  0  0  0  0
    3.1597    0.0094    0.4387 N   0  0  0  0  0  0  0  0  0  0  0  0
    3.3467   -1.3561    0.7911 C   0  0  0  0  0  0  0  0  0  0  0  0
    2.2775   -2.2420    1.0164 C   0  0  0  0  0  0  0  0  0  0  0  0
    2.4921   -3.5838    1.3611 C   0  0  0  0  0  0  0  0  0  0  0  0
    3.7846   -4.0624    1.4892 C   0  0  0  0  0  0  0  0  0  0  0  0
    3.9903   -5.3436    1.8188 F   0  0  0  0  0  0  0  0  0  0  0  0
    4.8646   -3.2229    1.2805 C   0  0  0  0  0  0  0  0  0  0  0  0
    4.6445   -1.8827    0.9360 C   0  0  0  0  0  0  0  0  0  0  0  0
    1.9160    0.6135    0.1168 C   0  0  0  0  0  0  0  0  0  0  0  0
    0.6964    0.0701    0.0602 N   0  0  0  0  0  0  0  0  0  0  0  0
   -1.8136   -0.9617   -0.9388 C   0  0  0  0  0  0  0  0  0  0  0  0
   -4.0868   -4.4529   -2.2561 H   0  0  0  0  0  0  0  0  0  0  0  0
   -4.9566   -2.9252   -2.4440 H   0  0  0  0  0  0  0  0  0  0  0  0
   -4.7443   -3.6722   -0.8125 H   0  0  0  0  0  0  0  0  0  0  0  0
   -5.1833   -1.3342   -0.6922 H   0  0  0  0  0  0  0  0  0  0  0  0
   -4.9812    0.8458    0.3074 H   0  0  0  0  0  0  0  0  0  0  0  0
   -4.2494    2.2925    2.0033 H   0  0  0  0  0  0  0  0  0  0  0  0
   -4.4878    3.1190    0.4127 H   0  0  0  0  0  0  0  0  0  0  0  0
   -3.4372    3.8212    1.6476 H   0  0  0  0  0  0  0  0  0  0  0  0
   -0.7746    4.3341   -1.1389 H   0  0  0  0  0  0  0  0  0  0  0  0
    0.1513    5.8067   -1.3798 H   0  0  0  0  0  0  0  0  0  0  0  0
    3.9644    3.0921   -0.2070 H   0  0  0  0  0  0  0  0  0  0  0  0
    1.2422   -1.9276    0.9521 H   0  0  0  0  0  0  0  0  0  0  0  0
    1.6519   -4.2494    1.5322 H   0  0  0  0  0  0  0  0  0  0  0  0
    5.8748   -3.6063    1.3832 H   0  0  0  0  0  0  0  0  0  0  0  0
    5.5294   -1.2736    0.7749 H   0  0  0  0  0  0  0  0  0  0  0  0
   -0.9361   -1.4982   -1.3001 H   0  0  0  0  0  0  0  0  0  0  0  0
  1  2  1  0
  2  3  1  0
  3  4  2  0
  4  5  1  0
  5  6  2  0
  6  7  1  0
  7  8  1  0
  6  9  1  0
  9 10  1  0
 10 11  2  0
 11 12  1  0
 12 13  1  0
 13 14  1  0
 13 15  2  0
 12 16  2  0
 16 17  1  0
 17 18  1  0
 18 19  2  0
 18 20  1  0
 20 21  1  0
 21 22  2  0
 22 23  1  0
 23 24  2  0
 24 25  1  0
 24 26  1  0
 26 27  2  0
 20 28  1  0
 28 29  2  0
  9 30  2  0
 30  3  1  0
 29 10  1  0
 28 16  1  0
 27 21  1  0
  1 31  1  0
  1 32  1  0
  1 33  1  0
  4 34  1  0
  5 35  1  0
  8 36  1  0
  8 37  1  0
  8 38  1  0
 14 39  1  0
 14 40  1  0
 17 41  1  0
 22 42  1  0
 23 43  1  0
 26 44  1  0
 27 45  1  0
 30 46  1  0
M  END
$$$$
