
     RDKit          3D

 44 44  0  0  0  0  0  0  0  0999 V2000
   -5.3039   -1.8011   -0.6751 C   0  0  0  0  0  0  0  0  0  0  0  0
   -4.8839   -0.4039   -1.1093 C   0  0  0  0  0  0  0  0  0  0  0  0
   -3.8704    0.1505   -0.2031 N   0  0  0  0  0  0  0  0  0  0  0  0
   -4.3850    0.9205    0.9375 C   0  0  0  0  0  0  0  0  0  0  0  0
   -4.4573    2.4040    0.6049 C   0  0  0  0  0  0  0  0  0  0  0  0
   -2.5087   -0.0769   -0.3830 C   0  0  0  0  0  0  0  0  0  0  0  0
   -2.0159   -0.9425   -1.3743 C   0  0  0  0  0  0  0  0  0  0  0  0
   -0.6466   -1.1813   -1.5515 C   0  0  0  0  0  0  0  0  0  0  0  0
    0.2881   -0.5453   -0.7431 C   0  0  0  0  0  0  0  0  0  0  0  0
   -0.1509    0.3366    0.2348 C   0  0  0  0  0  0  0  0  0  0  0  0
    0.6544    1.0270    1.1003 O   0  0  0  0  0  0  0  0  0  0  0  0
    1.9795    1.3039    0.6692 C   0  0  0  0  0  0  0  0  0  0  0  0
    3.0366    0.2556    1.0564 C   0  0  0  0  0  0  0  0  0  0  0  0
    2.7416   -0.7735    1.6670 O   0  0  0  0  0  0  0  0  0  0  0  0
    4.3583    0.5047    0.6757 N   0  0  0  0  0  0  0  0  0  0  0  0
    4.7700    1.5809   -0.2162 C   0  0  0  0  0  0  0  0  0  0  0  0
    5.3597   -0.5237    0.9833 C   0  0  0  0  0  0  0  0  0  0  0  0
    5.3203   -1.7009    0.0093 C   0  0  0  0  0  0  0  0  0  0  0  0
    6.4070   -2.6412    0.3003 C   0  0  0  0  0  0  0  0  0  0  0  0
    7.2831   -3.3698    0.5192 N   0  0  0  0  0  0  0  0  0  0  0  0
   -1.5283    0.5454    0.4128 C   0  0  0  0  0  0  0  0  0  0  0  0
   -6.0734   -2.1903   -1.3491 H   0  0  0  0  0  0  0  0  0  0  0  0
   -4.4617   -2.4995   -0.6832 H   0  0  0  0  0  0  0  0  0  0  0  0
   -5.7158   -1.7910    0.3394 H   0  0  0  0  0  0  0  0  0  0  0  0
   -5.7721    0.2410   -1.1056 H   0  0  0  0  0  0  0  0  0  0  0  0
   -4.5434   -0.4026   -2.1508 H   0  0  0  0  0  0  0  0  0  0  0  0
   -5.3957    0.5750    1.1904 H   0  0  0  0  0  0  0  0  0  0  0  0
   -3.7972    0.7490    1.8461 H   0  0  0  0  0  0  0  0  0  0  0  0
   -5.1080    2.5818   -0.2578 H   0  0  0  0  0  0  0  0  0  0  0  0
   -4.8615    2.9623    1.4551 H   0  0  0  0  0  0  0  0  0  0  0  0
   -3.4720    2.8156    0.3665 H   0  0  0  0  0  0  0  0  0  0  0  0
   -2.6902   -1.4819   -2.0317 H   0  0  0  0  0  0  0  0  0  0  0  0
   -0.3184   -1.8799   -2.3167 H   0  0  0  0  0  0  0  0  0  0  0  0
    1.3369   -0.7781   -0.8816 H   0  0  0  0  0  0  0  0  0  0  0  0
    2.2649    2.2360    1.1706 H   0  0  0  0  0  0  0  0  0  0  0  0
    2.0102    1.4936   -0.4105 H   0  0  0  0  0  0  0  0  0  0  0  0
    5.7364    1.9724    0.1144 H   0  0  0  0  0  0  0  0  0  0  0  0
    4.0553    2.4046   -0.2278 H   0  0  0  0  0  0  0  0  0  0  0  0
    4.8639    1.1768   -1.2280 H   0  0  0  0  0  0  0  0  0  0  0  0
    5.1818   -0.8860    2.0043 H   0  0  0  0  0  0  0  0  0  0  0  0
    6.3497   -0.0511    0.9927 H   0  0  0  0  0  0  0  0  0  0  0  0
    5.4180   -1.3365   -1.0199 H   0  0  0  0  0  0  0  0  0  0  0  0
    4.3556   -2.2166    0.0679 H   0  0  0  0  0  0  0  0  0  0  0  0
   -1.8111    1.2367    1.2003 H   0  0  0  0  0  0  0  0  0  0  0  0
  1  2  1  0
  2  3  1  0
  3  4  1  0
  4  5  1  0
  3  6  1  0
  6  7  2  0
  7  8  1  0
  8  9  2  0
  9 10  1  0
 10 11  1  0
 11 12  1  0
 12 13  1  0
 13 14  2  0
 13 15  1  0
 15 16  1  0
 15 17  1  0
 17 18  1  0
 18 19  1  0
 19 20  3  0
 10 21  2  0
 21  6  1  0
  1 22  1  0
  1 23  1  0
  1 24  1  0
  2 25  1  0
  2 26  1  0
  4 27  1  0
  4 28  1  0
  5 29  1  0
  5 30  1  0
  5 31  1  0
  7 32  1  0
  8 33  1  0
  9 34  1  0
 12 35  1  0
 12 36  1  0
 16 37  1  0
 16 38  1  0
 16 39  1  0
 17 40  1  0
 17 41  1  0
 18 42  1  0
 18 43  1  0
 21 44  1  0
M  END
$$$$
