
     RDKit          3D

 56 58  0  0  0  0  0  0  0  0999 V2000
    7.7903   -1.7203    0.9558 C   0  0  0  0  0  0  0  0  0  0  0  0
    7.4681   -0.3427    1.0982 O   0  0  0  0  0  0  0  0  0  0  0  0
    6.5328    0.1639    0.2383 C   0  0  0  0  0  0  0  0  0  0  0  0
    5.8672   -0.5442   -0.7616 C   0  0  0  0  0  0  0  0  0  0  0  0
    4.9285    0.1012   -1.5744 C   0  0  0  0  0  0  0  0  0  0  0  0
    4.6466    1.4635   -1.4031 C   0  0  0  0  0  0  0  0  0  0  0  0
    3.6155    2.1427   -2.2656 C   0  0  0  0  0  0  0  0  0  0  0  0
    2.2936    1.9594   -1.7265 N   0  0  0  0  0  0  0  0  0  0  0  0
    1.4655    0.9440   -2.1401 C   0  0  0  0  0  0  0  0  0  0  0  0
    1.6579    0.1828   -3.0785 O   0  0  0  0  0  0  0  0  0  0  0  0
    0.1915    0.7978   -1.2773 C   0  0  0  0  0  0  0  0  0  0  0  0
    0.0121    1.5355   -0.3183 O   0  0  0  0  0  0  0  0  0  0  0  0
   -0.6494   -0.2055   -1.7077 N   0  0  0  0  0  0  0  0  0  0  0  0
   -1.7523   -0.6770   -0.8875 C   0  0  0  0  0  0  0  0  0  0  0  0
   -1.3674   -1.8423    0.0473 C   0  0  0  0  0  0  0  0  0  0  0  0
   -0.2107   -1.4549    0.8269 O   0  0  0  0  0  0  0  0  0  0  0  0
   -0.4517   -1.8543    2.1805 C   0  0  0  0  0  0  0  0  0  0  0  0
   -1.9544   -1.7836    2.3353 C   0  0  0  0  0  0  0  0  0  0  0  0
   -2.3868   -2.2299    1.0222 N   0  0  0  0  0  0  0  0  0  0  0  0
   -3.9733   -2.5185    0.6435 S   0  0  0  0  0  6  0  0  0  0  0  0
   -4.0054   -3.0264   -0.7120 O   0  0  0  0  0  0  0  0  0  0  0  0
   -4.5588   -3.2653    1.7366 O   0  0  0  0  0  0  0  0  0  0  0  0
   -4.7560   -0.9208    0.6464 C   0  0  0  0  0  0  0  0  0  0  0  0
   -5.1514   -0.3294   -0.5562 C   0  0  0  0  0  0  0  0  0  0  0  0
   -5.7890    0.9125   -0.5387 C   0  0  0  0  0  0  0  0  0  0  0  0
   -6.0665    1.5521    0.6766 C   0  0  0  0  0  0  0  0  0  0  0  0
   -6.7240    2.9013    0.6886 C   0  0  0  0  0  0  0  0  0  0  0  0
   -5.6872    0.9380    1.8773 C   0  0  0  0  0  0  0  0  0  0  0  0
   -5.0486   -0.3032    1.8658 C   0  0  0  0  0  0  0  0  0  0  0  0
    5.3103    2.1664   -0.3910 C   0  0  0  0  0  0  0  0  0  0  0  0
    6.2479    1.5194    0.4180 C   0  0  0  0  0  0  0  0  0  0  0  0
    8.5466   -1.9661    1.7075 H   0  0  0  0  0  0  0  0  0  0  0  0
    8.2218   -1.9254   -0.0296 H   0  0  0  0  0  0  0  0  0  0  0  0
    6.9159   -2.3518    1.1448 H   0  0  0  0  0  0  0  0  0  0  0  0
    6.0494   -1.5992   -0.9354 H   0  0  0  0  0  0  0  0  0  0  0  0
    4.4105   -0.4693   -2.3443 H   0  0  0  0  0  0  0  0  0  0  0  0
    3.8057    3.2206   -2.3115 H   0  0  0  0  0  0  0  0  0  0  0  0
    3.6661    1.7593   -3.2911 H   0  0  0  0  0  0  0  0  0  0  0  0
    2.0455    2.4045   -0.8474 H   0  0  0  0  0  0  0  0  0  0  0  0
   -0.2930   -0.7841   -2.4649 H   0  0  0  0  0  0  0  0  0  0  0  0
   -2.1198    0.1689   -0.2964 H   0  0  0  0  0  0  0  0  0  0  0  0
   -2.5357   -0.9853   -1.5832 H   0  0  0  0  0  0  0  0  0  0  0  0
   -1.0700   -2.7176   -0.5411 H   0  0  0  0  0  0  0  0  0  0  0  0
   -0.0800   -2.8775    2.3057 H   0  0  0  0  0  0  0  0  0  0  0  0
    0.0809   -1.1935    2.8694 H   0  0  0  0  0  0  0  0  0  0  0  0
   -2.2649   -0.7485    2.5051 H   0  0  0  0  0  0  0  0  0  0  0  0
   -2.3062   -2.4218    3.1484 H   0  0  0  0  0  0  0  0  0  0  0  0
   -4.9746   -0.8230   -1.5092 H   0  0  0  0  0  0  0  0  0  0  0  0
   -6.0789    1.3754   -1.4803 H   0  0  0  0  0  0  0  0  0  0  0  0
   -7.4186    3.0041   -0.1517 H   0  0  0  0  0  0  0  0  0  0  0  0
   -7.3023    3.0469    1.6071 H   0  0  0  0  0  0  0  0  0  0  0  0
   -5.9654    3.6871    0.6203 H   0  0  0  0  0  0  0  0  0  0  0  0
   -5.8988    1.4198    2.8299 H   0  0  0  0  0  0  0  0  0  0  0  0
   -4.7940   -0.7827    2.8078 H   0  0  0  0  0  0  0  0  0  0  0  0
    5.1048    3.2209   -0.2226 H   0  0  0  0  0  0  0  0  0  0  0  0
    6.7602    2.0761    1.1991 H   0  0  0  0  0  0  0  0  0  0  0  0
  1  2  1  0
  2  3  1  0
  3  4  2  0
  4  5  1  0
  5  6  2  0
  6  7  1  0
  7  8  1  0
  8  9  1  0
  9 10  2  0
  9 11  1  0
 11 12  2  0
 11 13  1  0
 13 14  1  0
 14 15  1  0
 15 16  1  0
 16 17  1  0
 17 18  1  0
 18 19  1  0
 19 20  1  0
 20 21  2  0
 20 22  2  0
 20 23  1  0
 23 24  2  0
 24 25  1  0
 25 26  2  0
 26 27  1  0
 26 28  1  0
 28 29  2  0
  6 30  1  0
 30 31  2  0
 31  3  1  0
 19 15  1  0
 29 23  1  0
  1 32  1  0
  1 33  1  0
  1 34  1  0
  4 35  1  0
  5 36  1  0
  7 37  1  0
  7 38  1  0
  8 39  1  0
 13 40  1  0
 14 41  1  0
 14 42  1  0
 15 43  1  0
 17 44  1  0
 17 45  1  0
 18 46  1  0
 18 47  1  0
 24 48  1  0
 25 49  1  0
 27 50  1  0
 27 51  1  0
 27 52  1  0
 28 53  1  0
 29 54  1  0
 30 55  1  0
 31 56  1  0
M  END
$$$$
