
     RDKit          3D

 38 38  0  0  0  0  0  0  0  0999 V2000
    3.5403    3.6725    2.9403 C   0  0  0  0  0  0  0  0  0  0  0  0
    4.4772    2.7909    2.3316 O   0  0  0  0  0  0  0  0  0  0  0  0
    3.8726    1.9393    1.3562 C   0  0  0  0  0  0  0  0  0  0  0  0
    3.2873    0.6793    2.0021 C   0  0  0  0  0  0  0  0  0  0  0  0
    2.7512   -0.2579    1.0300 N   0  0  0  0  0  0  0  0  0  0  0  0
    1.5253   -0.0446    0.4377 C   0  0  0  0  0  0  0  0  0  0  0  0
    0.8397    0.9379    0.7137 O   0  0  0  0  0  0  0  0  0  0  0  0
    1.0765   -1.0745   -0.5641 C   0  0  0  0  0  0  0  0  0  0  0  0
    1.9748   -2.1102   -0.9268 C   0  0  0  0  0  0  0  0  0  0  0  0
    2.7523   -2.9344   -1.1803 N   0  0  0  0  0  0  0  0  0  0  0  0
   -0.1838   -0.9599   -1.0357 C   0  0  0  0  0  0  0  0  0  0  0  0
   -0.9240   -1.7712   -2.0104 C   0  0  0  0  0  0  0  0  0  0  0  0
   -0.1707   -2.6319   -2.9949 C   0  0  0  0  0  0  0  0  0  0  0  0
   -2.2712   -1.7266   -2.1093 C   0  0  0  0  0  0  0  0  0  0  0  0
   -3.1971   -0.9683   -1.2586 C   0  0  0  0  0  0  0  0  0  0  0  0
   -3.9214    0.0973   -1.8032 C   0  0  0  0  0  0  0  0  0  0  0  0
   -4.8121    0.8206   -1.0072 C   0  0  0  0  0  0  0  0  0  0  0  0
   -4.9857    0.4801    0.3340 C   0  0  0  0  0  0  0  0  0  0  0  0
   -4.2733   -0.5865    0.8805 C   0  0  0  0  0  0  0  0  0  0  0  0
   -3.3838   -1.3121    0.0859 C   0  0  0  0  0  0  0  0  0  0  0  0
    3.0950    4.3328    2.1888 H   0  0  0  0  0  0  0  0  0  0  0  0
    4.0741    4.2891    3.6691 H   0  0  0  0  0  0  0  0  0  0  0  0
    2.7587    3.1152    3.4649 H   0  0  0  0  0  0  0  0  0  0  0  0
    3.1263    2.4875    0.7691 H   0  0  0  0  0  0  0  0  0  0  0  0
    4.6647    1.6440    0.6578 H   0  0  0  0  0  0  0  0  0  0  0  0
    4.0658    0.1571    2.5686 H   0  0  0  0  0  0  0  0  0  0  0  0
    2.4967    0.9386    2.7145 H   0  0  0  0  0  0  0  0  0  0  0  0
    3.3344   -1.0500    0.7849 H   0  0  0  0  0  0  0  0  0  0  0  0
   -0.7747   -0.1328   -0.6358 H   0  0  0  0  0  0  0  0  0  0  0  0
    0.2238   -3.5281   -2.5066 H   0  0  0  0  0  0  0  0  0  0  0  0
   -0.8128   -2.9737   -3.8152 H   0  0  0  0  0  0  0  0  0  0  0  0
    0.6500   -2.0738   -3.4574 H   0  0  0  0  0  0  0  0  0  0  0  0
   -2.7795   -2.3081   -2.8778 H   0  0  0  0  0  0  0  0  0  0  0  0
   -3.7958    0.3718   -2.8477 H   0  0  0  0  0  0  0  0  0  0  0  0
   -5.3700    1.6498   -1.4337 H   0  0  0  0  0  0  0  0  0  0  0  0
   -5.6794    1.0438    0.9535 H   0  0  0  0  0  0  0  0  0  0  0  0
   -4.4123   -0.8556    1.9245 H   0  0  0  0  0  0  0  0  0  0  0  0
   -2.8393   -2.1473    0.5206 H   0  0  0  0  0  0  0  0  0  0  0  0
  1  2  1  0
  2  3  1  0
  3  4  1  0
  4  5  1  0
  5  6  1  0
  6  7  2  0
  6  8  1  0
  8  9  1  0
  9 10  3  0
  8 11  2  3
 11 12  1  0
 12 13  1  0
 12 14  2  3
 14 15  1  0
 15 16  2  0
 16 17  1  0
 17 18  2  0
 18 19  1  0
 19 20  2  0
 20 15  1  0
  1 21  1  0
  1 22  1  0
  1 23  1  0
  3 24  1  0
  3 25  1  0
  4 26  1  0
  4 27  1  0
  5 28  1  0
 11 29  1  0
 13 30  1  0
 13 31  1  0
 13 32  1  0
 14 33  1  0
 16 34  1  0
 17 35  1  0
 18 36  1  0
 19 37  1  0
 20 38  1  0
M  END
$$$$
