
     RDKit          3D

 49 52  0  0  0  0  0  0  0  0999 V2000
    2.3129   -0.6974    2.4104 C   0  0  0  0  0  0  0  0  0  0  0  0
    3.3664    0.3051    2.0207 C   0  0  0  0  0  0  0  0  0  0  0  0
    3.9541    1.0727    3.0453 C   0  0  0  0  0  0  0  0  0  0  0  0
    4.9199    2.0299    2.7501 C   0  0  0  0  0  0  0  0  0  0  0  0
    5.6277    2.9543    4.0161 Cl  0  0  0  0  0  0  0  0  0  0  0  0
    5.3129    2.2389    1.4362 C   0  0  0  0  0  0  0  0  0  0  0  0
    4.7319    1.4886    0.4087 C   0  0  0  0  0  0  0  0  0  0  0  0
    3.7519    0.5232    0.6785 C   0  0  0  0  0  0  0  0  0  0  0  0
    3.1527   -0.2509   -0.3449 N   0  0  0  0  0  0  0  0  0  0  0  0
    3.3078   -0.1106   -1.7157 C   0  0  0  0  0  0  0  0  0  0  0  0
    3.9394    0.7741   -2.2897 O   0  0  0  0  0  0  0  0  0  0  0  0
    2.6007   -1.1891   -2.5231 C   0  0  0  0  0  0  0  0  0  0  0  0
    0.8889   -0.6972   -2.8842 S   0  0  0  0  0  0  0  0  0  0  0  0
    0.1169   -1.0985   -1.3932 C   0  0  0  0  0  0  0  0  0  0  0  0
    0.6586   -1.8040   -0.4294 N   0  0  0  0  0  0  0  0  0  0  0  0
   -0.2656   -1.9180    0.5719 N   0  0  0  0  0  0  0  0  0  0  0  0
   -1.3559   -1.2653    0.2106 C   0  0  0  0  0  0  0  0  0  0  0  0
   -2.6088   -1.1690    1.0217 C   0  0  0  0  0  0  0  0  0  0  0  0
   -2.8924    0.2074    1.5568 C   0  0  0  0  0  0  0  0  0  0  0  0
   -4.0018    0.9984    1.3219 C   0  0  0  0  0  0  0  0  0  0  0  0
   -3.9332    2.2478    2.0025 C   0  0  0  0  0  0  0  0  0  0  0  0
   -2.7824    2.3654    2.7479 C   0  0  0  0  0  0  0  0  0  0  0  0
   -1.7970    0.9742    2.6319 S   0  0  0  0  0  0  0  0  0  0  0  0
   -1.1524   -0.7253   -1.0441 N   0  0  0  0  0  0  0  0  0  0  0  0
   -2.0731    0.0928   -1.8083 C   0  0  0  0  0  0  0  0  0  0  0  0
   -3.0818   -0.7504   -2.4939 C   0  0  0  0  0  0  0  0  0  0  0  0
   -3.0381   -1.5866   -3.5911 C   0  0  0  0  0  0  0  0  0  0  0  0
   -4.3452   -2.1063   -3.7490 C   0  0  0  0  0  0  0  0  0  0  0  0
   -5.1029   -1.5526   -2.7446 C   0  0  0  0  0  0  0  0  0  0  0  0
   -4.3453   -0.7269   -1.9781 O   0  0  0  0  0  0  0  0  0  0  0  0
    2.2476   -0.8127    3.4976 H   0  0  0  0  0  0  0  0  0  0  0  0
    2.5447   -1.6850    2.0000 H   0  0  0  0  0  0  0  0  0  0  0  0
    1.3361   -0.3606    2.0546 H   0  0  0  0  0  0  0  0  0  0  0  0
    3.6532    0.9218    4.0797 H   0  0  0  0  0  0  0  0  0  0  0  0
    6.0689    2.9811    1.1951 H   0  0  0  0  0  0  0  0  0  0  0  0
    5.0786    1.6840   -0.6011 H   0  0  0  0  0  0  0  0  0  0  0  0
    2.4601   -0.9368   -0.0468 H   0  0  0  0  0  0  0  0  0  0  0  0
    2.6545   -2.1583   -2.0170 H   0  0  0  0  0  0  0  0  0  0  0  0
    3.1355   -1.3023   -3.4725 H   0  0  0  0  0  0  0  0  0  0  0  0
   -3.4570   -1.5212    0.4241 H   0  0  0  0  0  0  0  0  0  0  0  0
   -2.5367   -1.8645    1.8684 H   0  0  0  0  0  0  0  0  0  0  0  0
   -4.8258    0.6968    0.6851 H   0  0  0  0  0  0  0  0  0  0  0  0
   -4.6918    3.0195    1.9529 H   0  0  0  0  0  0  0  0  0  0  0  0
   -2.4734    3.1992    3.3637 H   0  0  0  0  0  0  0  0  0  0  0  0
   -1.5150    0.6888   -2.5360 H   0  0  0  0  0  0  0  0  0  0  0  0
   -2.5405    0.8088   -1.1287 H   0  0  0  0  0  0  0  0  0  0  0  0
   -2.1704   -1.7978   -4.2021 H   0  0  0  0  0  0  0  0  0  0  0  0
   -4.6939   -2.7983   -4.5031 H   0  0  0  0  0  0  0  0  0  0  0  0
   -6.1414   -1.6396   -2.4558 H   0  0  0  0  0  0  0  0  0  0  0  0
  1  2  1  0
  2  3  2  0
  3  4  1  0
  4  5  1  0
  4  6  2  0
  6  7  1  0
  7  8  2  0
  8  9  1  0
  9 10  1  0
 10 11  2  0
 10 12  1  0
 12 13  1  0
 13 14  1  0
 14 15  2  0
 15 16  1  0
 16 17  2  0
 17 18  1  0
 18 19  1  0
 19 20  2  0
 20 21  1  0
 21 22  2  0
 22 23  1  0
 17 24  1  0
 24 25  1  0
 25 26  1  0
 26 27  2  0
 27 28  1  0
 28 29  2  0
 29 30  1  0
  8  2  1  0
 24 14  1  0
 30 26  1  0
 23 19  1  0
  1 31  1  0
  1 32  1  0
  1 33  1  0
  3 34  1  0
  6 35  1  0
  7 36  1  0
  9 37  1  0
 12 38  1  0
 12 39  1  0
 18 40  1  0
 18 41  1  0
 20 42  1  0
 21 43  1  0
 22 44  1  0
 25 45  1  0
 25 46  1  0
 27 47  1  0
 28 48  1  0
 29 49  1  0
M  END
$$$$
