
     RDKit          3D

 35 36  0  0  0  0  0  0  0  0999 V2000
   -5.3792   -0.3889   -1.9527 C   0  0  0  0  0  0  0  0  0  0  0  0
   -4.6398    0.7941   -1.3851 C   0  0  0  0  0  0  0  0  0  0  0  0
   -4.9302    1.9438   -1.7088 O   0  0  0  0  0  0  0  0  0  0  0  0
   -3.5295    0.5582   -0.4149 C   0  0  0  0  0  0  0  0  0  0  0  0
   -3.0992   -0.7268   -0.0673 C   0  0  0  0  0  0  0  0  0  0  0  0
   -2.0513   -0.8936    0.8455 C   0  0  0  0  0  0  0  0  0  0  0  0
   -1.4258    0.2166    1.4115 C   0  0  0  0  0  0  0  0  0  0  0  0
   -0.3503    0.0730    2.3300 N   0  0  0  0  0  0  0  0  0  0  0  0
    1.0748   -0.7022    1.8523 S   0  0  0  0  0  6  0  0  0  0  0  0
    1.9811   -0.5127    2.9671 O   0  0  0  0  0  0  0  0  0  0  0  0
    0.7441   -2.0246    1.3650 O   0  0  0  0  0  0  0  0  0  0  0  0
    1.6242    0.3299    0.4802 C   0  0  0  0  0  0  0  0  0  0  0  0
    2.9566   -0.1723   -0.0160 C   0  0  0  0  0  0  0  0  0  0  0  0
    4.1527    0.3334    0.5154 C   0  0  0  0  0  0  0  0  0  0  0  0
    5.3859   -0.1361    0.0568 C   0  0  0  0  0  0  0  0  0  0  0  0
    5.4306   -1.1150   -0.9328 C   0  0  0  0  0  0  0  0  0  0  0  0
    6.9498   -1.6913   -1.4981 Cl  0  0  0  0  0  0  0  0  0  0  0  0
    4.2522   -1.6315   -1.4657 C   0  0  0  0  0  0  0  0  0  0  0  0
    3.0184   -1.1629   -1.0081 C   0  0  0  0  0  0  0  0  0  0  0  0
   -1.8565    1.5001    1.0776 C   0  0  0  0  0  0  0  0  0  0  0  0
   -2.9016    1.6699    0.1646 C   0  0  0  0  0  0  0  0  0  0  0  0
   -5.8191   -0.9842   -1.1484 H   0  0  0  0  0  0  0  0  0  0  0  0
   -4.7074   -0.9953   -2.5655 H   0  0  0  0  0  0  0  0  0  0  0  0
   -6.1939   -0.0309   -2.5900 H   0  0  0  0  0  0  0  0  0  0  0  0
   -3.5593   -1.6175   -0.4860 H   0  0  0  0  0  0  0  0  0  0  0  0
   -1.7440   -1.9013    1.1187 H   0  0  0  0  0  0  0  0  0  0  0  0
   -0.1756    0.8358    2.9843 H   0  0  0  0  0  0  0  0  0  0  0  0
    1.7025    1.3607    0.8395 H   0  0  0  0  0  0  0  0  0  0  0  0
    0.8756    0.2821   -0.3159 H   0  0  0  0  0  0  0  0  0  0  0  0
    4.1366    1.0883    1.2998 H   0  0  0  0  0  0  0  0  0  0  0  0
    6.3051    0.2603    0.4800 H   0  0  0  0  0  0  0  0  0  0  0  0
    4.2860   -2.4022   -2.2313 H   0  0  0  0  0  0  0  0  0  0  0  0
    2.1066   -1.5875   -1.4254 H   0  0  0  0  0  0  0  0  0  0  0  0
   -1.3919    2.3796    1.5148 H   0  0  0  0  0  0  0  0  0  0  0  0
   -3.2283    2.6773   -0.0910 H   0  0  0  0  0  0  0  0  0  0  0  0
  1  2  1  0
  2  3  2  0
  2  4  1  0
  4  5  2  0
  5  6  1  0
  6  7  2  0
  7  8  1  0
  8  9  1  0
  9 10  2  0
  9 11  2  0
  9 12  1  0
 12 13  1  0
 13 14  2  0
 14 15  1  0
 15 16  2  0
 16 17  1  0
 16 18  1  0
 18 19  2  0
  7 20  1  0
 20 21  2  0
 21  4  1  0
 19 13  1  0
  1 22  1  0
  1 23  1  0
  1 24  1  0
  5 25  1  0
  6 26  1  0
  8 27  1  0
 12 28  1  0
 12 29  1  0
 14 30  1  0
 15 31  1  0
 18 32  1  0
 19 33  1  0
 20 34  1  0
 21 35  1  0
M  END
$$$$
