
     RDKit          3D

 30 31  0  0  0  0  0  0  0  0999 V2000
   -2.8327   -1.0055   -1.1481 C   0  0  0  0  0  0  0  0  0  0  0  0
   -3.3029   -0.3968    0.1764 C   0  0  0  0  0  0  0  0  0  0  0  0
   -4.8317   -0.3462    0.1913 C   0  0  0  0  0  0  0  0  0  0  0  0
   -2.8600    0.9630    0.2972 O   0  0  0  0  0  0  0  0  0  0  0  0
   -1.6100    1.1986    0.7190 C   0  0  0  0  0  0  0  0  0  0  0  0
   -1.0986    2.3036    0.7948 O   0  0  0  0  0  0  0  0  0  0  0  0
   -0.8688   -0.0480    1.1158 C   0  0  0  0  0  0  0  0  0  0  0  0
    0.3888   -0.2731    0.8587 N   0  0  0  0  0  0  0  0  0  0  0  0
    1.0799    0.7142    0.2187 N   0  0  0  0  0  0  0  0  0  0  0  0
    2.4688    0.5344    0.0257 C   0  0  0  0  0  0  0  0  0  0  0  0
    3.0926   -0.7117    0.1688 C   0  0  0  0  0  0  0  0  0  0  0  0
    4.4565   -0.8679   -0.0950 C   0  0  0  0  0  0  0  0  0  0  0  0
    5.2118    0.2185   -0.5293 C   0  0  0  0  0  0  0  0  0  0  0  0
    4.6017    1.4575   -0.7077 C   0  0  0  0  0  0  0  0  0  0  0  0
    3.2377    1.6101   -0.4421 C   0  0  0  0  0  0  0  0  0  0  0  0
   -1.6820   -1.1229    1.7829 C   0  0  0  0  0  0  0  0  0  0  0  0
   -1.2540   -1.7936    2.7039 O   0  0  0  0  0  0  0  0  0  0  0  0
   -2.9228   -1.2287    1.2817 O   0  0  0  0  0  0  0  0  0  0  0  0
   -3.2088   -2.0272   -1.2675 H   0  0  0  0  0  0  0  0  0  0  0  0
   -1.7412   -1.0627   -1.2042 H   0  0  0  0  0  0  0  0  0  0  0  0
   -3.1611   -0.3989   -1.9989 H   0  0  0  0  0  0  0  0  0  0  0  0
   -5.2668   -1.3483    0.1121 H   0  0  0  0  0  0  0  0  0  0  0  0
   -5.2200    0.2797   -0.6195 H   0  0  0  0  0  0  0  0  0  0  0  0
   -5.1893    0.0873    1.1329 H   0  0  0  0  0  0  0  0  0  0  0  0
    0.8385    1.6945    0.4140 H   0  0  0  0  0  0  0  0  0  0  0  0
    2.5173   -1.5739    0.4962 H   0  0  0  0  0  0  0  0  0  0  0  0
    4.9234   -1.8402    0.0361 H   0  0  0  0  0  0  0  0  0  0  0  0
    6.2717    0.0971   -0.7356 H   0  0  0  0  0  0  0  0  0  0  0  0
    5.1841    2.3050   -1.0590 H   0  0  0  0  0  0  0  0  0  0  0  0
    2.7780    2.5816   -0.6040 H   0  0  0  0  0  0  0  0  0  0  0  0
  1  2  1  0
  2  3  1  0
  2  4  1  0
  4  5  1  0
  5  6  2  0
  5  7  1  0
  7  8  2  3
  8  9  1  0
  9 10  1  0
 10 11  2  0
 11 12  1  0
 12 13  2  0
 13 14  1  0
 14 15  2  0
  7 16  1  0
 16 17  2  0
 16 18  1  0
 18  2  1  0
 15 10  1  0
  1 19  1  0
  1 20  1  0
  1 21  1  0
  3 22  1  0
  3 23  1  0
  3 24  1  0
  9 25  1  0
 11 26  1  0
 12 27  1  0
 13 28  1  0
 14 29  1  0
 15 30  1  0
M  END
$$$$
