
     RDKit          3D

 40 41  0  0  0  0  0  0  0  0999 V2000
    5.6133    1.4128   -1.5370 C   0  0  0  0  0  0  0  0  0  0  0  0
    6.5917    0.4499   -0.3589 S   0  0  0  0  0  0  0  0  0  0  0  0
    5.7642    0.9326    1.1887 C   0  0  0  0  0  0  0  0  0  0  0  0
    4.3394    0.4463    1.2870 C   0  0  0  0  0  0  0  0  0  0  0  0
    3.2696    1.3516    1.2227 C   0  0  0  0  0  0  0  0  0  0  0  0
    1.9487    0.9020    1.3185 C   0  0  0  0  0  0  0  0  0  0  0  0
    1.6824   -0.4634    1.4749 C   0  0  0  0  0  0  0  0  0  0  0  0
    0.2941   -0.9888    1.5843 C   0  0  0  0  0  0  0  0  0  0  0  0
    0.0690   -2.0186    2.2087 O   0  0  0  0  0  0  0  0  0  0  0  0
   -0.6836   -0.2796    0.9175 N   0  0  0  0  0  0  0  0  0  0  0  0
   -2.0673   -0.7272    0.9056 C   0  0  0  0  0  0  0  0  0  0  0  0
   -2.2867   -1.9182   -0.0304 C   0  0  0  0  0  0  0  0  0  0  0  0
   -4.0527   -2.3836   -0.1437 S   0  0  0  0  0  0  0  0  0  0  0  0
   -4.6906   -1.0161   -1.0924 C   0  0  0  0  0  0  0  0  0  0  0  0
   -4.2455   -0.7627   -2.3941 C   0  0  0  0  0  0  0  0  0  0  0  0
   -4.7637    0.3130   -3.1204 C   0  0  0  0  0  0  0  0  0  0  0  0
   -5.7352    1.1305   -2.5460 C   0  0  0  0  0  0  0  0  0  0  0  0
   -6.4352    2.5867   -3.5264 Br  0  0  0  0  0  0  0  0  0  0  0  0
   -6.1977    0.8783   -1.2562 C   0  0  0  0  0  0  0  0  0  0  0  0
   -5.6782   -0.1986   -0.5328 C   0  0  0  0  0  0  0  0  0  0  0  0
    2.7448   -1.3692    1.5589 C   0  0  0  0  0  0  0  0  0  0  0  0
    4.0630   -0.9181    1.4606 C   0  0  0  0  0  0  0  0  0  0  0  0
    5.5990    2.4683   -1.2531 H   0  0  0  0  0  0  0  0  0  0  0  0
    6.0675    1.3290   -2.5281 H   0  0  0  0  0  0  0  0  0  0  0  0
    4.5916    1.0301   -1.5980 H   0  0  0  0  0  0  0  0  0  0  0  0
    6.3371    0.5175    2.0259 H   0  0  0  0  0  0  0  0  0  0  0  0
    5.8175    2.0220    1.2935 H   0  0  0  0  0  0  0  0  0  0  0  0
    3.4582    2.4173    1.1076 H   0  0  0  0  0  0  0  0  0  0  0  0
    1.1444    1.6317    1.3009 H   0  0  0  0  0  0  0  0  0  0  0  0
   -0.4137    0.4426    0.2638 H   0  0  0  0  0  0  0  0  0  0  0  0
   -2.6604    0.1397    0.5977 H   0  0  0  0  0  0  0  0  0  0  0  0
   -2.3507   -0.9904    1.9315 H   0  0  0  0  0  0  0  0  0  0  0  0
   -1.8881   -1.7081   -1.0285 H   0  0  0  0  0  0  0  0  0  0  0  0
   -1.7438   -2.7929    0.3429 H   0  0  0  0  0  0  0  0  0  0  0  0
   -3.5037   -1.4065   -2.8607 H   0  0  0  0  0  0  0  0  0  0  0  0
   -4.4103    0.4973   -4.1315 H   0  0  0  0  0  0  0  0  0  0  0  0
   -6.9624    1.5063   -0.8067 H   0  0  0  0  0  0  0  0  0  0  0  0
   -6.0509   -0.3931    0.4708 H   0  0  0  0  0  0  0  0  0  0  0  0
    2.5487   -2.4308    1.6988 H   0  0  0  0  0  0  0  0  0  0  0  0
    4.8763   -1.6397    1.5207 H   0  0  0  0  0  0  0  0  0  0  0  0
  1  2  1  0
  2  3  1  0
  3  4  1  0
  4  5  2  0
  5  6  1  0
  6  7  2  0
  7  8  1  0
  8  9  2  0
  8 10  1  0
 10 11  1  0
 11 12  1  0
 12 13  1  0
 13 14  1  0
 14 15  2  0
 15 16  1  0
 16 17  2  0
 17 18  1  0
 17 19  1  0
 19 20  2  0
  7 21  1  0
 21 22  2  0
 22  4  1  0
 20 14  1  0
  1 23  1  0
  1 24  1  0
  1 25  1  0
  3 26  1  0
  3 27  1  0
  5 28  1  0
  6 29  1  0
 10 30  1  0
 11 31  1  0
 11 32  1  0
 12 33  1  0
 12 34  1  0
 15 35  1  0
 16 36  1  0
 19 37  1  0
 20 38  1  0
 21 39  1  0
 22 40  1  0
M  END
$$$$
