
     RDKit          3D

 54 58  0  0  0  0  0  0  0  0999 V2000
    0.7822   -0.4760    0.4693 O   0  0  0  0  0  0  0  0  0  0  0  0
    1.7514   -0.4954   -0.2850 C   0  0  0  0  0  0  0  0  0  0  0  0
    1.6981   -0.1691   -1.7729 C   0  0  0  0  0  0  0  0  0  0  0  0
    0.0364   -0.3896   -2.4728 S   0  0  0  0  0  0  0  0  0  0  0  0
   -0.8220    0.8476   -1.5569 C   0  0  0  0  0  0  0  0  0  0  0  0
   -0.2240    1.9984   -1.4709 N   0  0  0  0  0  0  0  0  0  0  0  0
   -0.9072    2.9618   -0.7226 C   0  0  0  0  0  0  0  0  0  0  0  0
   -2.0948    2.6977   -0.1138 C   0  0  0  0  0  0  0  0  0  0  0  0
   -2.6905    4.0279    0.7417 S   0  0  0  0  0  0  0  0  0  0  0  0
   -1.3356    5.0046    0.2866 C   0  0  0  0  0  0  0  0  0  0  0  0
   -1.1016    6.3479    0.6401 C   0  0  0  0  0  0  0  0  0  0  0  0
    0.0554    6.9778    0.1735 C   0  0  0  0  0  0  0  0  0  0  0  0
    0.9617    6.2924   -0.6246 C   0  0  0  0  0  0  0  0  0  0  0  0
    0.7277    4.9587   -0.9721 C   0  0  0  0  0  0  0  0  0  0  0  0
   -0.4357    4.2918   -0.5171 C   0  0  0  0  0  0  0  0  0  0  0  0
   -2.7516    1.4289   -0.2085 C   0  0  0  0  0  0  0  0  0  0  0  0
   -3.8108    1.1596    0.3559 O   0  0  0  0  0  0  0  0  0  0  0  0
   -2.0667    0.5140   -1.0203 N   0  0  0  0  0  0  0  0  0  0  0  0
   -2.7132   -0.7948   -1.1830 C   0  0  0  0  0  0  0  0  0  0  0  0
   -2.3503   -1.7692   -0.0559 C   0  0  0  0  0  0  0  0  0  0  0  0
   -3.1199   -3.0608   -0.1754 C   0  0  0  0  0  0  0  0  0  0  0  0
   -2.5989   -4.1344   -0.9087 C   0  0  0  0  0  0  0  0  0  0  0  0
   -3.3254   -5.3189   -1.0364 C   0  0  0  0  0  0  0  0  0  0  0  0
   -4.5782   -5.4390   -0.4380 C   0  0  0  0  0  0  0  0  0  0  0  0
   -5.1067   -4.3742    0.2891 C   0  0  0  0  0  0  0  0  0  0  0  0
   -4.3822   -3.1888    0.4190 C   0  0  0  0  0  0  0  0  0  0  0  0
    3.0197   -0.7999    0.1629 N   0  0  0  0  0  0  0  0  0  0  0  0
    3.2237   -1.2558    1.5186 C   0  0  0  0  0  0  0  0  0  0  0  0
    4.6797   -1.3512    1.7782 C   0  0  0  0  0  0  0  0  0  0  0  0
    5.5039   -0.8304    2.7539 C   0  0  0  0  0  0  0  0  0  0  0  0
    6.8095   -1.2975    2.4650 C   0  0  0  0  0  0  0  0  0  0  0  0
    6.7022   -2.0623    1.3291 C   0  0  0  0  0  0  0  0  0  0  0  0
    5.4131   -2.1051    0.9037 O   0  0  0  0  0  0  0  0  0  0  0  0
    2.3657   -0.8505   -2.3101 H   0  0  0  0  0  0  0  0  0  0  0  0
    2.0610    0.8507   -1.9313 H   0  0  0  0  0  0  0  0  0  0  0  0
   -1.8091    6.8876    1.2636 H   0  0  0  0  0  0  0  0  0  0  0  0
    0.2457    8.0155    0.4382 H   0  0  0  0  0  0  0  0  0  0  0  0
    1.8577    6.7939   -0.9838 H   0  0  0  0  0  0  0  0  0  0  0  0
    1.4394    4.4267   -1.5989 H   0  0  0  0  0  0  0  0  0  0  0  0
   -2.4684   -1.2248   -2.1598 H   0  0  0  0  0  0  0  0  0  0  0  0
   -3.8008   -0.6455   -1.2043 H   0  0  0  0  0  0  0  0  0  0  0  0
   -1.2772   -1.9877   -0.0665 H   0  0  0  0  0  0  0  0  0  0  0  0
   -2.5479   -1.3176    0.9240 H   0  0  0  0  0  0  0  0  0  0  0  0
   -1.6234   -4.0547   -1.3827 H   0  0  0  0  0  0  0  0  0  0  0  0
   -2.9135   -6.1491   -1.6037 H   0  0  0  0  0  0  0  0  0  0  0  0
   -5.1429   -6.3620   -0.5379 H   0  0  0  0  0  0  0  0  0  0  0  0
   -6.0839   -4.4659    0.7555 H   0  0  0  0  0  0  0  0  0  0  0  0
   -4.8079   -2.3636    0.9873 H   0  0  0  0  0  0  0  0  0  0  0  0
    3.7457   -1.0356   -0.5046 H   0  0  0  0  0  0  0  0  0  0  0  0
    2.7475   -2.2361    1.6275 H   0  0  0  0  0  0  0  0  0  0  0  0
    2.7384   -0.5583    2.2096 H   0  0  0  0  0  0  0  0  0  0  0  0
    5.1969   -0.2003    3.5760 H   0  0  0  0  0  0  0  0  0  0  0  0
    7.7174   -1.0991    3.0172 H   0  0  0  0  0  0  0  0  0  0  0  0
    7.4103   -2.6205    0.7328 H   0  0  0  0  0  0  0  0  0  0  0  0
  1  2  2  0
  2  3  1  0
  3  4  1  0
  4  5  1  0
  5  6  2  0
  6  7  1  0
  7  8  2  0
  8  9  1  0
  9 10  1  0
 10 11  2  0
 11 12  1  0
 12 13  2  0
 13 14  1  0
 14 15  2  0
  8 16  1  0
 16 17  2  0
 16 18  1  0
 18 19  1  0
 19 20  1  0
 20 21  1  0
 21 22  2  0
 22 23  1  0
 23 24  2  0
 24 25  1  0
 25 26  2  0
  2 27  1  0
 27 28  1  0
 28 29  1  0
 29 30  2  0
 30 31  1  0
 31 32  2  0
 32 33  1  0
 18  5  1  0
 26 21  1  0
 33 29  1  0
 15  7  1  0
 15 10  1  0
  3 34  1  0
  3 35  1  0
 11 36  1  0
 12 37  1  0
 13 38  1  0
 14 39  1  0
 19 40  1  0
 19 41  1  0
 20 42  1  0
 20 43  1  0
 22 44  1  0
 23 45  1  0
 24 46  1  0
 25 47  1  0
 26 48  1  0
 27 49  1  0
 28 50  1  0
 28 51  1  0
 30 52  1  0
 31 53  1  0
 32 54  1  0
M  END
$$$$
