
     RDKit          3D

 46 48  0  0  0  0  0  0  0  0999 V2000
   -6.8003   -2.8832    1.6969 C   0  0  0  0  0  0  0  0  0  0  0  0
   -6.5508   -1.4830    1.6948 O   0  0  0  0  0  0  0  0  0  0  0  0
   -5.5992   -1.0243    0.8244 C   0  0  0  0  0  0  0  0  0  0  0  0
   -4.8520   -1.8052   -0.0545 C   0  0  0  0  0  0  0  0  0  0  0  0
   -3.9086   -1.2045   -0.8917 C   0  0  0  0  0  0  0  0  0  0  0  0
   -3.6999    0.1810   -0.8541 C   0  0  0  0  0  0  0  0  0  0  0  0
   -2.7070    0.7852   -1.7548 C   0  0  0  0  0  0  0  0  0  0  0  0
   -1.3768    0.6686   -1.6458 C   0  0  0  0  0  0  0  0  0  0  0  0
   -0.4870   -0.2068   -0.4394 S   0  0  0  0  0  0  0  0  0  0  0  0
    1.0198    0.2973   -1.1346 C   0  0  0  0  0  0  0  0  0  0  0  0
    2.2074   -0.0539   -0.6294 C   0  0  0  0  0  0  0  0  0  0  0  0
    3.4875    0.3903   -1.2435 C   0  0  0  0  0  0  0  0  0  0  0  0
    3.5195    0.9592   -2.3311 O   0  0  0  0  0  0  0  0  0  0  0  0
    4.7517    0.0948   -0.5187 C   0  0  0  0  0  0  0  0  0  0  0  0
    4.8215    0.0344    0.8780 C   0  0  0  0  0  0  0  0  0  0  0  0
    6.0398   -0.2412    1.5068 C   0  0  0  0  0  0  0  0  0  0  0  0
    7.1983   -0.4598    0.7515 C   0  0  0  0  0  0  0  0  0  0  0  0
    8.5109   -0.7195    1.4311 C   0  0  0  0  0  0  0  0  0  0  0  0
    7.1304   -0.3662   -0.6431 C   0  0  0  0  0  0  0  0  0  0  0  0
    5.9154   -0.0904   -1.2747 C   0  0  0  0  0  0  0  0  0  0  0  0
    0.8295    1.0796   -2.2328 N   0  0  0  0  0  0  0  0  0  0  0  0
   -0.4613    1.3450   -2.6084 C   0  0  0  0  0  0  0  0  0  0  0  0
   -0.7996    2.0141   -3.5705 O   0  0  0  0  0  0  0  0  0  0  0  0
   -4.4576    0.9753    0.0255 C   0  0  0  0  0  0  0  0  0  0  0  0
   -4.2032    2.3236   -0.0048 O   0  0  0  0  0  0  0  0  0  0  0  0
   -4.9568    3.1521    0.8702 C   0  0  0  0  0  0  0  0  0  0  0  0
   -5.3991    0.3612    0.8591 C   0  0  0  0  0  0  0  0  0  0  0  0
   -7.1728   -3.2193    0.7236 H   0  0  0  0  0  0  0  0  0  0  0  0
   -5.9072   -3.4427    1.9942 H   0  0  0  0  0  0  0  0  0  0  0  0
   -7.5799   -3.0826    2.4384 H   0  0  0  0  0  0  0  0  0  0  0  0
   -4.9769   -2.8808   -0.1168 H   0  0  0  0  0  0  0  0  0  0  0  0
   -3.3366   -1.8269   -1.5766 H   0  0  0  0  0  0  0  0  0  0  0  0
   -3.1319    1.4046   -2.5427 H   0  0  0  0  0  0  0  0  0  0  0  0
    2.2600   -0.6951    0.2419 H   0  0  0  0  0  0  0  0  0  0  0  0
    3.9516    0.2253    1.5000 H   0  0  0  0  0  0  0  0  0  0  0  0
    6.0820   -0.2758    2.5940 H   0  0  0  0  0  0  0  0  0  0  0  0
    8.3622   -1.2519    2.3764 H   0  0  0  0  0  0  0  0  0  0  0  0
    9.0208    0.2272    1.6340 H   0  0  0  0  0  0  0  0  0  0  0  0
    9.1576   -1.3437    0.8055 H   0  0  0  0  0  0  0  0  0  0  0  0
    8.0241   -0.5036   -1.2486 H   0  0  0  0  0  0  0  0  0  0  0  0
    5.8815   -0.0192   -2.3605 H   0  0  0  0  0  0  0  0  0  0  0  0
    1.6164    1.4390   -2.7688 H   0  0  0  0  0  0  0  0  0  0  0  0
   -6.0259    3.1020    0.6389 H   0  0  0  0  0  0  0  0  0  0  0  0
   -4.6317    4.1853    0.7142 H   0  0  0  0  0  0  0  0  0  0  0  0
   -4.7644    2.8982    1.9178 H   0  0  0  0  0  0  0  0  0  0  0  0
   -6.0014    0.9364    1.5546 H   0  0  0  0  0  0  0  0  0  0  0  0
  1  2  1  0
  2  3  1  0
  3  4  2  0
  4  5  1  0
  5  6  2  0
  6  7  1  0
  7  8  2  3
  8  9  1  0
  9 10  1  0
 10 11  2  3
 11 12  1  0
 12 13  2  0
 12 14  1  0
 14 15  2  0
 15 16  1  0
 16 17  2  0
 17 18  1  0
 17 19  1  0
 19 20  2  0
 10 21  1  0
 21 22  1  0
 22 23  2  0
  6 24  1  0
 24 25  1  0
 25 26  1  0
 24 27  2  0
 27  3  1  0
 22  8  1  0
 20 14  1  0
  1 28  1  0
  1 29  1  0
  1 30  1  0
  4 31  1  0
  5 32  1  0
  7 33  1  0
 11 34  1  0
 15 35  1  0
 16 36  1  0
 18 37  1  0
 18 38  1  0
 18 39  1  0
 19 40  1  0
 20 41  1  0
 21 42  1  0
 26 43  1  0
 26 44  1  0
 26 45  1  0
 27 46  1  0
M  END
$$$$
