
     RDKit          3D

 39 40  0  0  0  0  0  0  0  0999 V2000
   -1.1763   -0.6872    2.5592 O   0  0  0  0  0  0  0  0  0  0  0  0
   -1.1029   -0.2170    1.4305 C   0  0  0  0  0  0  0  0  0  0  0  0
    0.2320    0.0993    0.7723 C   0  0  0  0  0  0  0  0  0  0  0  0
    1.4198   -0.3356    1.6313 C   0  0  0  0  0  0  0  0  0  0  0  0
    2.7551    0.0630    1.0086 C   0  0  0  0  0  0  0  0  0  0  0  0
    2.8693   -0.5585   -0.2706 O   0  0  0  0  0  0  0  0  0  0  0  0
    4.0022   -0.2982   -0.9910 C   0  0  0  0  0  0  0  0  0  0  0  0
    5.0717    0.4994   -0.5819 C   0  0  0  0  0  0  0  0  0  0  0  0
    6.1735    0.6823   -1.4239 C   0  0  0  0  0  0  0  0  0  0  0  0
    6.2113    0.0694   -2.6752 C   0  0  0  0  0  0  0  0  0  0  0  0
    5.1474   -0.7290   -3.0874 C   0  0  0  0  0  0  0  0  0  0  0  0
    4.0484   -0.9108   -2.2463 C   0  0  0  0  0  0  0  0  0  0  0  0
   -2.1631    0.1114    0.5973 N   0  0  0  0  0  0  0  0  0  0  0  0
   -3.5515   -0.0276    0.8448 C   0  0  0  0  0  0  0  0  0  0  0  0
   -4.0392   -0.5549    2.0487 C   0  0  0  0  0  0  0  0  0  0  0  0
   -5.4114   -0.6887    2.2826 C   0  0  0  0  0  0  0  0  0  0  0  0
   -6.3260   -0.2971    1.3158 C   0  0  0  0  0  0  0  0  0  0  0  0
   -5.8647    0.2289    0.1134 C   0  0  0  0  0  0  0  0  0  0  0  0
   -4.4819    0.3708   -0.1397 C   0  0  0  0  0  0  0  0  0  0  0  0
   -4.0938    0.9547   -1.4745 C   0  0  0  0  0  0  0  0  0  0  0  0
   -2.7457    1.0569   -1.6713 F   0  0  0  0  0  0  0  0  0  0  0  0
   -4.5834    2.2132   -1.6565 F   0  0  0  0  0  0  0  0  0  0  0  0
   -4.5595    0.2198   -2.5229 F   0  0  0  0  0  0  0  0  0  0  0  0
    0.2753    1.1811    0.5981 H   0  0  0  0  0  0  0  0  0  0  0  0
    0.2637   -0.4079   -0.1991 H   0  0  0  0  0  0  0  0  0  0  0  0
    1.3454    0.1059    2.6321 H   0  0  0  0  0  0  0  0  0  0  0  0
    1.3861   -1.4255    1.7534 H   0  0  0  0  0  0  0  0  0  0  0  0
    3.5646   -0.2783    1.6647 H   0  0  0  0  0  0  0  0  0  0  0  0
    2.7962    1.1543    0.9066 H   0  0  0  0  0  0  0  0  0  0  0  0
    5.0833    0.9914    0.3846 H   0  0  0  0  0  0  0  0  0  0  0  0
    7.0047    1.3039   -1.1005 H   0  0  0  0  0  0  0  0  0  0  0  0
    7.0692    0.2127   -3.3268 H   0  0  0  0  0  0  0  0  0  0  0  0
    5.1715   -1.2113   -4.0608 H   0  0  0  0  0  0  0  0  0  0  0  0
    3.2207   -1.5365   -2.5709 H   0  0  0  0  0  0  0  0  0  0  0  0
   -1.8985    0.4946   -0.3071 H   0  0  0  0  0  0  0  0  0  0  0  0
   -3.3732   -0.8798    2.8425 H   0  0  0  0  0  0  0  0  0  0  0  0
   -5.7577   -1.1020    3.2271 H   0  0  0  0  0  0  0  0  0  0  0  0
   -7.3926   -0.4012    1.4976 H   0  0  0  0  0  0  0  0  0  0  0  0
   -6.5901    0.5343   -0.6409 H   0  0  0  0  0  0  0  0  0  0  0  0
  1  2  2  0
  2  3  1  0
  3  4  1  0
  4  5  1  0
  5  6  1  0
  6  7  1  0
  7  8  2  0
  8  9  1  0
  9 10  2  0
 10 11  1  0
 11 12  2  0
  2 13  1  0
 13 14  1  0
 14 15  2  0
 15 16  1  0
 16 17  2  0
 17 18  1  0
 18 19  2  0
 19 20  1  0
 20 21  1  0
 20 22  1  0
 20 23  1  0
 12  7  1  0
 19 14  1  0
  3 24  1  0
  3 25  1  0
  4 26  1  0
  4 27  1  0
  5 28  1  0
  5 29  1  0
  8 30  1  0
  9 31  1  0
 10 32  1  0
 11 33  1  0
 12 34  1  0
 13 35  1  0
 15 36  1  0
 16 37  1  0
 17 38  1  0
 18 39  1  0
M  END
$$$$
