
     RDKit          3D

 31 32  0  0  0  0  0  0  0  0999 V2000
    4.2595   -2.5371    2.0571 C   0  0  0  0  0  0  0  0  0  0  0  0
    3.1558   -3.2026    0.7821 S   0  0  0  0  0  0  0  0  0  0  0  0
    2.4625   -1.6920    0.1293 C   0  0  0  0  0  0  0  0  0  0  0  0
    2.4539   -1.5065   -1.2582 C   0  0  0  0  0  0  0  0  0  0  0  0
    1.9016   -0.3520   -1.8156 C   0  0  0  0  0  0  0  0  0  0  0  0
    1.3482    0.6224   -0.9876 C   0  0  0  0  0  0  0  0  0  0  0  0
    1.3513    0.4429    0.3940 C   0  0  0  0  0  0  0  0  0  0  0  0
    0.7353    1.4293    1.2232 N   0  0  0  0  0  0  0  0  0  0  0  0
   -0.9052    1.1679    1.5938 S   0  0  0  0  0  6  0  0  0  0  0  0
   -1.3240    2.2649    2.4420 O   0  0  0  0  0  0  0  0  0  0  0  0
   -1.0685   -0.2051    2.0291 O   0  0  0  0  0  0  0  0  0  0  0  0
   -1.8950    1.3134    0.1658 C   0  0  0  0  0  0  0  0  0  0  0  0
   -3.0685    0.6252   -0.0787 C   0  0  0  0  0  0  0  0  0  0  0  0
   -3.4870    1.0644   -1.3009 N   0  0  0  0  0  0  0  0  0  0  0  0
   -4.6754    0.6337   -1.9923 C   0  0  0  0  0  0  0  0  0  0  0  0
   -2.5851    1.9843   -1.7527 C   0  0  0  0  0  0  0  0  0  0  0  0
   -1.6050    2.1613   -0.8946 N   0  0  0  0  0  0  0  0  0  0  0  0
    1.8927   -0.7164    0.9542 C   0  0  0  0  0  0  0  0  0  0  0  0
    4.8745   -3.3496    2.4532 H   0  0  0  0  0  0  0  0  0  0  0  0
    3.6868   -2.1086    2.8834 H   0  0  0  0  0  0  0  0  0  0  0  0
    4.9215   -1.7756    1.6359 H   0  0  0  0  0  0  0  0  0  0  0  0
    2.8764   -2.2624   -1.9169 H   0  0  0  0  0  0  0  0  0  0  0  0
    1.8987   -0.2144   -2.8936 H   0  0  0  0  0  0  0  0  0  0  0  0
    0.9179    1.5209   -1.4240 H   0  0  0  0  0  0  0  0  0  0  0  0
    1.2248    1.6002    2.1001 H   0  0  0  0  0  0  0  0  0  0  0  0
   -3.6035   -0.1116    0.5052 H   0  0  0  0  0  0  0  0  0  0  0  0
   -5.4828    0.5117   -1.2656 H   0  0  0  0  0  0  0  0  0  0  0  0
   -4.9580    1.3870   -2.7320 H   0  0  0  0  0  0  0  0  0  0  0  0
   -4.4573   -0.3171   -2.4843 H   0  0  0  0  0  0  0  0  0  0  0  0
   -2.6867    2.4913   -2.7041 H   0  0  0  0  0  0  0  0  0  0  0  0
    1.8407   -0.8699    2.0278 H   0  0  0  0  0  0  0  0  0  0  0  0
  1  2  1  0
  2  3  1  0
  3  4  2  0
  4  5  1  0
  5  6  2  0
  6  7  1  0
  7  8  1  0
  8  9  1  0
  9 10  2  0
  9 11  2  0
  9 12  1  0
 12 13  2  0
 13 14  1  0
 14 15  1  0
 14 16  1  0
 16 17  2  0
  7 18  2  0
 18  3  1  0
 17 12  1  0
  1 19  1  0
  1 20  1  0
  1 21  1  0
  4 22  1  0
  5 23  1  0
  6 24  1  0
  8 25  1  0
 13 26  1  0
 15 27  1  0
 15 28  1  0
 15 29  1  0
 16 30  1  0
 18 31  1  0
M  END
$$$$
