
     RDKit          3D

 37 38  0  0  0  0  0  0  0  0999 V2000
   -5.0940    2.5512   -0.4037 C   0  0  0  0  0  0  0  0  0  0  0  0
   -4.6306    1.3984    0.2840 O   0  0  0  0  0  0  0  0  0  0  0  0
   -3.4248    0.8656   -0.0984 C   0  0  0  0  0  0  0  0  0  0  0  0
   -2.6230    1.3807   -1.1232 C   0  0  0  0  0  0  0  0  0  0  0  0
   -1.4055    0.7728   -1.4432 C   0  0  0  0  0  0  0  0  0  0  0  0
   -0.9773   -0.3523   -0.7328 C   0  0  0  0  0  0  0  0  0  0  0  0
    0.3121   -1.0323   -1.0370 C   0  0  0  0  0  0  0  0  0  0  0  0
    0.4461   -2.2277   -0.8015 O   0  0  0  0  0  0  0  0  0  0  0  0
    1.3173   -0.2374   -1.5462 N   0  0  0  0  0  0  0  0  0  0  0  0
    2.6484   -0.7582   -1.7612 C   0  0  0  0  0  0  0  0  0  0  0  0
    3.5389   -0.4572   -0.5820 C   0  0  0  0  0  0  0  0  0  0  0  0
    3.5279   -1.2929    0.5433 C   0  0  0  0  0  0  0  0  0  0  0  0
    4.3315   -1.0063    1.6492 C   0  0  0  0  0  0  0  0  0  0  0  0
    5.1525    0.1239    1.6473 C   0  0  0  0  0  0  0  0  0  0  0  0
    6.1191    0.4200    3.0482 Cl  0  0  0  0  0  0  0  0  0  0  0  0
    5.1652    0.9701    0.5335 C   0  0  0  0  0  0  0  0  0  0  0  0
    6.1471    2.3905    0.4592 Cl  0  0  0  0  0  0  0  0  0  0  0  0
    4.3591    0.6806   -0.5740 C   0  0  0  0  0  0  0  0  0  0  0  0
   -1.7836   -0.8841    0.2819 C   0  0  0  0  0  0  0  0  0  0  0  0
   -3.0037   -0.2814    0.6064 C   0  0  0  0  0  0  0  0  0  0  0  0
   -3.8498   -0.7277    1.5917 O   0  0  0  0  0  0  0  0  0  0  0  0
   -3.5040   -1.9318    2.2621 C   0  0  0  0  0  0  0  0  0  0  0  0
   -5.2592    2.3381   -1.4649 H   0  0  0  0  0  0  0  0  0  0  0  0
   -4.4073    3.3935   -0.2705 H   0  0  0  0  0  0  0  0  0  0  0  0
   -6.0568    2.8359    0.0314 H   0  0  0  0  0  0  0  0  0  0  0  0
   -2.9230    2.2505   -1.6985 H   0  0  0  0  0  0  0  0  0  0  0  0
   -0.8210    1.1749   -2.2659 H   0  0  0  0  0  0  0  0  0  0  0  0
    1.2197    0.7664   -1.4935 H   0  0  0  0  0  0  0  0  0  0  0  0
    2.6180   -1.8372   -1.9506 H   0  0  0  0  0  0  0  0  0  0  0  0
    3.0416   -0.2820   -2.6662 H   0  0  0  0  0  0  0  0  0  0  0  0
    2.8838   -2.1725    0.5633 H   0  0  0  0  0  0  0  0  0  0  0  0
    4.3081   -1.6691    2.5112 H   0  0  0  0  0  0  0  0  0  0  0  0
    4.3726    1.3457   -1.4351 H   0  0  0  0  0  0  0  0  0  0  0  0
   -1.4312   -1.7668    0.8070 H   0  0  0  0  0  0  0  0  0  0  0  0
   -4.3028   -2.1587    2.9748 H   0  0  0  0  0  0  0  0  0  0  0  0
   -3.4359   -2.7706    1.5614 H   0  0  0  0  0  0  0  0  0  0  0  0
   -2.5759   -1.8130    2.8308 H   0  0  0  0  0  0  0  0  0  0  0  0
  1  2  1  0
  2  3  1  0
  3  4  2  0
  4  5  1  0
  5  6  2  0
  6  7  1  0
  7  8  2  0
  7  9  1  0
  9 10  1  0
 10 11  1  0
 11 12  2  0
 12 13  1  0
 13 14  2  0
 14 15  1  0
 14 16  1  0
 16 17  1  0
 16 18  2  0
  6 19  1  0
 19 20  2  0
 20 21  1  0
 21 22  1  0
 20  3  1  0
 18 11  1  0
  1 23  1  0
  1 24  1  0
  1 25  1  0
  4 26  1  0
  5 27  1  0
  9 28  1  0
 10 29  1  0
 10 30  1  0
 12 31  1  0
 13 32  1  0
 18 33  1  0
 19 34  1  0
 22 35  1  0
 22 36  1  0
 22 37  1  0
M  END
$$$$
