
     RDKit          3D

 36 37  0  0  0  0  0  0  0  0999 V2000
    4.6550   -1.3825    0.5428 C   0  0  0  0  0  0  0  0  0  0  0  0
    4.5067   -0.3113   -0.4569 N   0  0  0  0  0  0  0  0  0  0  0  0
    4.0244   -0.7957   -1.7610 C   0  0  0  0  0  0  0  0  0  0  0  0
    3.8967    1.1788    0.0890 S   0  0  0  0  0  6  0  0  0  0  0  0
    4.5415    1.5074    1.3426 O   0  0  0  0  0  0  0  0  0  0  0  0
    3.9035    2.1087   -1.0207 O   0  0  0  0  0  0  0  0  0  0  0  0
    2.1900    0.8086    0.4543 C   0  0  0  0  0  0  0  0  0  0  0  0
    1.8344    0.3794    1.7360 C   0  0  0  0  0  0  0  0  0  0  0  0
    0.4936    0.1146    2.0256 C   0  0  0  0  0  0  0  0  0  0  0  0
   -0.4949    0.2964    1.0460 C   0  0  0  0  0  0  0  0  0  0  0  0
   -1.9056   -0.0081    1.4108 C   0  0  0  0  0  0  0  0  0  0  0  0
   -2.2330   -0.4883    2.4828 O   0  0  0  0  0  0  0  0  0  0  0  0
   -2.7457    0.3365    0.4039 O   0  0  0  0  0  0  0  0  0  0  0  0
   -4.1118   -0.0249    0.6142 C   0  0  0  0  0  0  0  0  0  0  0  0
   -5.0044    0.9117   -0.1695 C   0  0  0  0  0  0  0  0  0  0  0  0
   -5.0803    0.2400   -1.5158 C   0  0  0  0  0  0  0  0  0  0  0  0
   -5.0378   -1.1587   -1.2432 O   0  0  0  0  0  0  0  0  0  0  0  0
   -4.4086   -1.3586   -0.0434 C   0  0  0  0  0  0  0  0  0  0  0  0
   -4.1042   -2.4608    0.3830 O   0  0  0  0  0  0  0  0  0  0  0  0
   -0.1284    0.7503   -0.2303 C   0  0  0  0  0  0  0  0  0  0  0  0
    1.2126    1.0135   -0.5250 C   0  0  0  0  0  0  0  0  0  0  0  0
    3.6915   -1.8495    0.7651 H   0  0  0  0  0  0  0  0  0  0  0  0
    5.0996   -1.0045    1.4673 H   0  0  0  0  0  0  0  0  0  0  0  0
    5.3321   -2.1524    0.1580 H   0  0  0  0  0  0  0  0  0  0  0  0
    4.0244    0.0043   -2.5062 H   0  0  0  0  0  0  0  0  0  0  0  0
    3.0184   -1.2163   -1.6768 H   0  0  0  0  0  0  0  0  0  0  0  0
    4.6956   -1.5761   -2.1345 H   0  0  0  0  0  0  0  0  0  0  0  0
    2.5880    0.2529    2.5109 H   0  0  0  0  0  0  0  0  0  0  0  0
    0.2202   -0.2285    3.0230 H   0  0  0  0  0  0  0  0  0  0  0  0
   -4.4088   -0.0232    1.6682 H   0  0  0  0  0  0  0  0  0  0  0  0
   -6.0040    0.9297    0.2816 H   0  0  0  0  0  0  0  0  0  0  0  0
   -4.6309    1.9371   -0.2388 H   0  0  0  0  0  0  0  0  0  0  0  0
   -4.2323    0.4983   -2.1594 H   0  0  0  0  0  0  0  0  0  0  0  0
   -6.0084    0.4847   -2.0405 H   0  0  0  0  0  0  0  0  0  0  0  0
   -0.8747    0.9067   -1.0055 H   0  0  0  0  0  0  0  0  0  0  0  0
    1.4853    1.3800   -1.5130 H   0  0  0  0  0  0  0  0  0  0  0  0
  1  2  1  0
  2  3  1  0
  2  4  1  0
  4  5  2  0
  4  6  2  0
  4  7  1  0
  7  8  2  0
  8  9  1  0
  9 10  2  0
 10 11  1  0
 11 12  2  0
 11 13  1  0
 13 14  1  0
 14 15  1  0
 15 16  1  0
 16 17  1  0
 17 18  1  0
 18 19  2  0
 10 20  1  0
 20 21  2  0
 21  7  1  0
 18 14  1  0
  1 22  1  0
  1 23  1  0
  1 24  1  0
  3 25  1  0
  3 26  1  0
  3 27  1  0
  8 28  1  0
  9 29  1  0
 14 30  1  0
 15 31  1  0
 15 32  1  0
 16 33  1  0
 16 34  1  0
 20 35  1  0
 21 36  1  0
M  END
$$$$
