
     RDKit          3D

 41 42  0  0  0  0  0  0  0  0999 V2000
   -4.8019    2.0820   -0.6557 C   0  0  0  0  0  0  0  0  0  0  0  0
   -4.5489    0.6216   -1.0018 C   0  0  0  0  0  0  0  0  0  0  0  0
   -3.6725   -0.0125   -0.0076 N   0  0  0  0  0  0  0  0  0  0  0  0
   -4.3545   -0.6774    1.1107 C   0  0  0  0  0  0  0  0  0  0  0  0
   -4.6029   -2.1472    0.8033 C   0  0  0  0  0  0  0  0  0  0  0  0
   -2.2865    0.0183   -0.1168 C   0  0  0  0  0  0  0  0  0  0  0  0
   -1.6251    0.7611   -1.1094 C   0  0  0  0  0  0  0  0  0  0  0  0
   -0.2251    0.7994   -1.2239 C   0  0  0  0  0  0  0  0  0  0  0  0
    0.5815    0.0947   -0.3332 C   0  0  0  0  0  0  0  0  0  0  0  0
    2.0476    0.0782   -0.4256 C   0  0  0  0  0  0  0  0  0  0  0  0
    2.7822    1.1402   -0.7908 C   0  0  0  0  0  0  0  0  0  0  0  0
    4.2627    1.1260   -0.9181 C   0  0  0  0  0  0  0  0  0  0  0  0
    4.7996    1.8327   -1.7658 O   0  0  0  0  0  0  0  0  0  0  0  0
    5.0907    0.2844   -0.0323 C   0  0  0  0  0  0  0  0  0  0  0  0
    4.7855    0.0555    1.3112 C   0  0  0  0  0  0  0  0  0  0  0  0
    5.6373   -0.7380    2.0777 C   0  0  0  0  0  0  0  0  0  0  0  0
    6.7692   -1.2648    1.4747 C   0  0  0  0  0  0  0  0  0  0  0  0
    7.1013   -1.0470    0.1837 N   0  0  0  0  0  0  0  0  0  0  0  0
    6.2610   -0.2651   -0.5392 C   0  0  0  0  0  0  0  0  0  0  0  0
   -0.0457   -0.6674    0.6502 C   0  0  0  0  0  0  0  0  0  0  0  0
   -1.4465   -0.6954    0.7545 C   0  0  0  0  0  0  0  0  0  0  0  0
   -3.8747    2.6626   -0.6408 H   0  0  0  0  0  0  0  0  0  0  0  0
   -5.2682    2.1773    0.3305 H   0  0  0  0  0  0  0  0  0  0  0  0
   -5.4730    2.5339   -1.3928 H   0  0  0  0  0  0  0  0  0  0  0  0
   -5.5147    0.1007   -1.0273 H   0  0  0  0  0  0  0  0  0  0  0  0
   -4.1524    0.5217   -2.0183 H   0  0  0  0  0  0  0  0  0  0  0  0
   -3.8050   -0.5605    2.0514 H   0  0  0  0  0  0  0  0  0  0  0  0
   -5.3231   -0.1939    1.2918 H   0  0  0  0  0  0  0  0  0  0  0  0
   -3.6681   -2.6912    0.6377 H   0  0  0  0  0  0  0  0  0  0  0  0
   -5.2169   -2.2626   -0.0960 H   0  0  0  0  0  0  0  0  0  0  0  0
   -5.1293   -2.6234    1.6363 H   0  0  0  0  0  0  0  0  0  0  0  0
   -2.1825    1.3474   -1.8333 H   0  0  0  0  0  0  0  0  0  0  0  0
    0.2099    1.3836   -2.0312 H   0  0  0  0  0  0  0  0  0  0  0  0
    2.5139   -0.8715   -0.1753 H   0  0  0  0  0  0  0  0  0  0  0  0
    2.3287    2.0801   -1.0900 H   0  0  0  0  0  0  0  0  0  0  0  0
    3.9083    0.4986    1.7740 H   0  0  0  0  0  0  0  0  0  0  0  0
    5.4289   -0.9342    3.1240 H   0  0  0  0  0  0  0  0  0  0  0  0
    7.4631   -1.8884    2.0321 H   0  0  0  0  0  0  0  0  0  0  0  0
    6.5655   -0.0940   -1.5692 H   0  0  0  0  0  0  0  0  0  0  0  0
    0.5392   -1.2504    1.3577 H   0  0  0  0  0  0  0  0  0  0  0  0
   -1.8587   -1.3152    1.5446 H   0  0  0  0  0  0  0  0  0  0  0  0
  1  2  1  0
  2  3  1  0
  3  4  1  0
  4  5  1  0
  3  6  1  0
  6  7  2  0
  7  8  1  0
  8  9  2  0
  9 10  1  0
 10 11  2  3
 11 12  1  0
 12 13  2  0
 12 14  1  0
 14 15  2  0
 15 16  1  0
 16 17  2  0
 17 18  1  0
 18 19  2  0
  9 20  1  0
 20 21  2  0
 21  6  1  0
 19 14  1  0
  1 22  1  0
  1 23  1  0
  1 24  1  0
  2 25  1  0
  2 26  1  0
  4 27  1  0
  4 28  1  0
  5 29  1  0
  5 30  1  0
  5 31  1  0
  7 32  1  0
  8 33  1  0
 10 34  1  0
 11 35  1  0
 15 36  1  0
 16 37  1  0
 17 38  1  0
 19 39  1  0
 20 40  1  0
 21 41  1  0
M  END
$$$$
