
     RDKit          3D

 47 50  0  0  0  0  0  0  0  0999 V2000
   -3.9831   -0.8443   -4.0401 C   0  0  0  0  0  0  0  0  0  0  0  0
   -4.3063   -0.3573   -2.7369 O   0  0  0  0  0  0  0  0  0  0  0  0
   -3.4988   -0.8278   -1.7545 C   0  0  0  0  0  0  0  0  0  0  0  0
   -2.5673   -1.6025   -1.9065 O   0  0  0  0  0  0  0  0  0  0  0  0
   -3.9079   -0.2795   -0.4298 C   0  0  0  0  0  0  0  0  0  0  0  0
   -4.9194    0.6774   -0.2990 C   0  0  0  0  0  0  0  0  0  0  0  0
   -5.2511    1.1681    0.9613 C   0  0  0  0  0  0  0  0  0  0  0  0
   -4.5806    0.7009    2.0941 C   0  0  0  0  0  0  0  0  0  0  0  0
   -3.5667   -0.2696    1.9880 C   0  0  0  0  0  0  0  0  0  0  0  0
   -2.9096   -0.7038    3.1795 N   0  0  0  0  0  0  0  0  0  0  0  0
   -3.1693   -0.0676    4.3605 N   0  0  0  0  0  0  0  0  0  0  0  0
   -2.3928   -0.6232    5.2750 N   0  0  0  0  0  0  0  0  0  0  0  0
   -1.6603   -1.6420    4.7440 N   0  0  0  0  0  0  0  0  0  0  0  0
   -1.9941   -1.7096    3.4734 C   0  0  0  0  0  0  0  0  0  0  0  0
   -1.4017   -2.9560    2.4270 S   0  0  0  0  0  0  0  0  0  0  0  0
    0.3797   -2.6052    2.5160 C   0  0  0  0  0  0  0  0  0  0  0  0
    0.7460   -1.3457    1.7326 C   0  0  0  0  0  0  0  0  0  0  0  0
   -0.0160   -0.3857    1.6561 O   0  0  0  0  0  0  0  0  0  0  0  0
    2.0074   -1.4338    1.1809 N   0  0  0  0  0  0  0  0  0  0  0  0
    2.6358   -0.5052    0.3920 C   0  0  0  0  0  0  0  0  0  0  0  0
    3.8591   -0.7197   -0.0407 N   0  0  0  0  0  0  0  0  0  0  0  0
    4.2586    0.3495   -0.8136 C   0  0  0  0  0  0  0  0  0  0  0  0
    3.3203    1.3494   -0.9624 C   0  0  0  0  0  0  0  0  0  0  0  0
    1.9084    0.9570   -0.1022 S   0  0  0  0  0  0  0  0  0  0  0  0
    3.5148    2.6089   -1.7336 C   0  0  0  0  0  0  0  0  0  0  0  0
    4.7375    2.4741   -2.6612 C   0  0  0  0  0  0  0  0  0  0  0  0
    5.9334    1.8123   -1.9531 C   0  0  0  0  0  0  0  0  0  0  0  0
    5.5993    0.3912   -1.4639 C   0  0  0  0  0  0  0  0  0  0  0  0
   -3.2327   -0.7440    0.7137 C   0  0  0  0  0  0  0  0  0  0  0  0
   -3.9323   -1.9377   -4.0513 H   0  0  0  0  0  0  0  0  0  0  0  0
   -3.0380   -0.4096   -4.3786 H   0  0  0  0  0  0  0  0  0  0  0  0
   -4.7765   -0.5321   -4.7249 H   0  0  0  0  0  0  0  0  0  0  0  0
   -5.4486    1.0575   -1.1685 H   0  0  0  0  0  0  0  0  0  0  0  0
   -6.0308    1.9200    1.0650 H   0  0  0  0  0  0  0  0  0  0  0  0
   -4.8711    1.1119    3.0607 H   0  0  0  0  0  0  0  0  0  0  0  0
    0.8982   -3.4697    2.0891 H   0  0  0  0  0  0  0  0  0  0  0  0
    0.7102   -2.4893    3.5526 H   0  0  0  0  0  0  0  0  0  0  0  0
    2.5860   -2.2452    1.3462 H   0  0  0  0  0  0  0  0  0  0  0  0
    2.6275    2.8504   -2.3295 H   0  0  0  0  0  0  0  0  0  0  0  0
    3.6816    3.4361   -1.0324 H   0  0  0  0  0  0  0  0  0  0  0  0
    4.4667    1.8704   -3.5369 H   0  0  0  0  0  0  0  0  0  0  0  0
    5.0245    3.4645   -3.0323 H   0  0  0  0  0  0  0  0  0  0  0  0
    6.7939    1.7726   -2.6300 H   0  0  0  0  0  0  0  0  0  0  0  0
    6.2273    2.4336   -1.0973 H   0  0  0  0  0  0  0  0  0  0  0  0
    5.5950   -0.2969   -2.3176 H   0  0  0  0  0  0  0  0  0  0  0  0
    6.3715    0.0474   -0.7673 H   0  0  0  0  0  0  0  0  0  0  0  0
   -2.4280   -1.4504    0.5520 H   0  0  0  0  0  0  0  0  0  0  0  0
  1  2  1  0
  2  3  1  0
  3  4  2  0
  3  5  1  0
  5  6  2  0
  6  7  1  0
  7  8  2  0
  8  9  1  0
  9 10  1  0
 10 11  1  0
 11 12  2  0
 12 13  1  0
 13 14  2  0
 14 15  1  0
 15 16  1  0
 16 17  1  0
 17 18  2  0
 17 19  1  0
 19 20  1  0
 20 21  2  0
 21 22  1  0
 22 23  2  0
 23 24  1  0
 23 25  1  0
 25 26  1  0
 26 27  1  0
 27 28  1  0
  9 29  2  0
 29  5  1  0
 14 10  1  0
 24 20  1  0
 28 22  1  0
  1 30  1  0
  1 31  1  0
  1 32  1  0
  6 33  1  0
  7 34  1  0
  8 35  1  0
 16 36  1  0
 16 37  1  0
 19 38  1  0
 25 39  1  0
 25 40  1  0
 26 41  1  0
 26 42  1  0
 27 43  1  0
 27 44  1  0
 28 45  1  0
 28 46  1  0
 29 47  1  0
M  END
$$$$
