
     RDKit          3D

 44 46  0  0  0  0  0  0  0  0999 V2000
   -1.9885    0.0399   -4.1108 C   0  0  0  0  0  0  0  0  0  0  0  0
   -2.3860   -0.0212   -2.6622 C   0  0  0  0  0  0  0  0  0  0  0  0
   -3.3560   -0.9434   -2.2487 C   0  0  0  0  0  0  0  0  0  0  0  0
   -3.7414   -1.0177   -0.9104 C   0  0  0  0  0  0  0  0  0  0  0  0
   -3.1694   -0.1688    0.0435 C   0  0  0  0  0  0  0  0  0  0  0  0
   -3.5951   -0.2744    1.4983 C   0  0  0  0  0  0  0  0  0  0  0  0
   -2.4242   -0.6796    2.3976 C   0  0  0  0  0  0  0  0  0  0  0  0
   -4.2413    1.0216    1.9930 C   0  0  0  0  0  0  0  0  0  0  0  0
   -2.2035    0.7626   -0.3755 C   0  0  0  0  0  0  0  0  0  0  0  0
   -1.8082    0.8423   -1.7162 C   0  0  0  0  0  0  0  0  0  0  0  0
   -0.8577    1.7006   -2.2092 O   0  0  0  0  0  0  0  0  0  0  0  0
   -0.2327    2.6097   -1.3131 C   0  0  0  0  0  0  0  0  0  0  0  0
    0.8425    1.9874   -0.4137 C   0  0  0  0  0  0  0  0  0  0  0  0
    1.1429    2.5166    0.6522 O   0  0  0  0  0  0  0  0  0  0  0  0
    1.3996    0.8581   -0.9690 N   0  0  0  0  0  0  0  0  0  0  0  0
    2.3850    0.0681   -0.4385 C   0  0  0  0  0  0  0  0  0  0  0  0
    2.8274   -1.0068   -1.0540 N   0  0  0  0  0  0  0  0  0  0  0  0
    3.8208   -1.6456   -0.3364 N   0  0  0  0  0  0  0  0  0  0  0  0
    4.0828   -1.0135    0.7850 C   0  0  0  0  0  0  0  0  0  0  0  0
    5.1538   -1.5239    1.7967 C   0  0  0  0  0  0  0  0  0  0  0  0
    6.4331   -0.7468    1.9776 C   0  0  0  0  0  0  0  0  0  0  0  0
    6.4567   -2.0702    1.2698 C   0  0  0  0  0  0  0  0  0  0  0  0
    3.1434    0.3867    1.0546 S   0  0  0  0  0  0  0  0  0  0  0  0
   -2.2774    1.0045   -4.5402 H   0  0  0  0  0  0  0  0  0  0  0  0
   -2.4763   -0.7475   -4.6958 H   0  0  0  0  0  0  0  0  0  0  0  0
   -0.9075   -0.0961   -4.2154 H   0  0  0  0  0  0  0  0  0  0  0  0
   -3.8183   -1.6156   -2.9681 H   0  0  0  0  0  0  0  0  0  0  0  0
   -4.4932   -1.7482   -0.6198 H   0  0  0  0  0  0  0  0  0  0  0  0
   -4.3541   -1.0638    1.5837 H   0  0  0  0  0  0  0  0  0  0  0  0
   -2.7629   -0.8233    3.4294 H   0  0  0  0  0  0  0  0  0  0  0  0
   -1.6333    0.0784    2.4094 H   0  0  0  0  0  0  0  0  0  0  0  0
   -1.9777   -1.6210    2.0572 H   0  0  0  0  0  0  0  0  0  0  0  0
   -5.0865    1.3056    1.3564 H   0  0  0  0  0  0  0  0  0  0  0  0
   -4.6183    0.8974    3.0139 H   0  0  0  0  0  0  0  0  0  0  0  0
   -3.5335    1.8573    1.9994 H   0  0  0  0  0  0  0  0  0  0  0  0
   -1.7719    1.4128    0.3781 H   0  0  0  0  0  0  0  0  0  0  0  0
    0.2779    3.3598   -1.9285 H   0  0  0  0  0  0  0  0  0  0  0  0
   -0.9714    3.1514   -0.7103 H   0  0  0  0  0  0  0  0  0  0  0  0
    1.0198    0.5188   -1.8451 H   0  0  0  0  0  0  0  0  0  0  0  0
    4.7353   -2.0137    2.6694 H   0  0  0  0  0  0  0  0  0  0  0  0
    6.5942    0.1449    1.3815 H   0  0  0  0  0  0  0  0  0  0  0  0
    6.8550   -0.6950    2.9748 H   0  0  0  0  0  0  0  0  0  0  0  0
    6.8933   -2.9182    1.7846 H   0  0  0  0  0  0  0  0  0  0  0  0
    6.6229   -2.0703    0.1979 H   0  0  0  0  0  0  0  0  0  0  0  0
  1  2  1  0
  2  3  2  0
  3  4  1  0
  4  5  2  0
  5  6  1  0
  6  7  1  0
  6  8  1  0
  5  9  1  0
  9 10  2  0
 10 11  1  0
 11 12  1  0
 12 13  1  0
 13 14  2  0
 13 15  1  0
 15 16  1  0
 16 17  2  0
 17 18  1  0
 18 19  2  0
 19 20  1  0
 20 21  1  0
 21 22  1  0
 19 23  1  0
 10  2  1  0
 23 16  1  0
 22 20  1  0
  1 24  1  0
  1 25  1  0
  1 26  1  0
  3 27  1  0
  4 28  1  0
  6 29  1  0
  7 30  1  0
  7 31  1  0
  7 32  1  0
  8 33  1  0
  8 34  1  0
  8 35  1  0
  9 36  1  0
 12 37  1  0
 12 38  1  0
 15 39  1  0
 20 40  1  0
 21 41  1  0
 21 42  1  0
 22 43  1  0
 22 44  1  0
M  END
$$$$
