
     RDKit          3D

 56 58  0  0  0  0  0  0  0  0999 V2000
    0.1237    2.5950    3.2879 C   0  0  0  0  0  0  0  0  0  0  0  0
    1.2038    1.8605    2.7316 O   0  0  0  0  0  0  0  0  0  0  0  0
    0.9327    1.0187    1.6797 C   0  0  0  0  0  0  0  0  0  0  0  0
   -0.3495    0.7861    1.1641 C   0  0  0  0  0  0  0  0  0  0  0  0
   -0.5412   -0.0801    0.0792 C   0  0  0  0  0  0  0  0  0  0  0  0
   -1.9067   -0.3116   -0.4138 C   0  0  0  0  0  0  0  0  0  0  0  0
   -2.2074   -0.4166   -1.7173 C   0  0  0  0  0  0  0  0  0  0  0  0
   -3.5685   -0.6493   -2.2688 C   0  0  0  0  0  0  0  0  0  0  0  0
   -3.7284   -0.8543   -3.4675 O   0  0  0  0  0  0  0  0  0  0  0  0
   -4.7333   -0.6578   -1.3715 C   0  0  0  0  0  0  0  0  0  0  0  0
   -5.2775    0.5523   -0.8987 C   0  0  0  0  0  0  0  0  0  0  0  0
   -4.6328    1.7014   -1.2728 O   0  0  0  0  0  0  0  0  0  0  0  0
   -5.2948    2.9366   -1.0301 C   0  0  0  0  0  0  0  0  0  0  0  0
   -6.4116    0.5153   -0.0707 C   0  0  0  0  0  0  0  0  0  0  0  0
   -7.0060   -0.7039    0.2711 C   0  0  0  0  0  0  0  0  0  0  0  0
   -6.4532   -1.8776   -0.2181 C   0  0  0  0  0  0  0  0  0  0  0  0
   -7.0205   -3.1071    0.1074 O   0  0  0  0  0  0  0  0  0  0  0  0
   -6.2546   -4.0942   -0.5065 C   0  0  0  0  0  0  0  0  0  0  0  0
   -6.5084   -5.2860   -0.3955 O   0  0  0  0  0  0  0  0  0  0  0  0
   -4.8778   -3.5156   -1.4480 S   0  0  0  0  0  0  0  0  0  0  0  0
   -5.3278   -1.8686   -1.0334 C   0  0  0  0  0  0  0  0  0  0  0  0
    0.5654   -0.7373   -0.4653 C   0  0  0  0  0  0  0  0  0  0  0  0
    1.8487   -0.5142    0.0440 C   0  0  0  0  0  0  0  0  0  0  0  0
    2.0447    0.3649    1.1113 C   0  0  0  0  0  0  0  0  0  0  0  0
    3.2596    0.6524    1.6775 O   0  0  0  0  0  0  0  0  0  0  0  0
    4.4601    0.1380    1.0982 C   0  0  0  0  0  0  0  0  0  0  0  0
    4.9043    0.9997   -0.0782 C   0  0  0  0  0  0  0  0  0  0  0  0
    6.3505    0.7694   -0.5360 C   0  0  0  0  0  0  0  0  0  0  0  0
    6.7319   -0.5158   -1.1274 N   0  0  0  0  0  0  0  0  0  0  0  0
    7.0862   -1.5449   -0.1609 C   0  0  0  0  0  0  0  0  0  0  0  0
    5.8084   -1.0056   -2.1407 C   0  0  0  0  0  0  0  0  0  0  0  0
    0.5266    3.2352    4.0785 H   0  0  0  0  0  0  0  0  0  0  0  0
   -0.3414    3.2456    2.5397 H   0  0  0  0  0  0  0  0  0  0  0  0
   -0.6131    1.9265    3.7453 H   0  0  0  0  0  0  0  0  0  0  0  0
   -1.2167    1.2801    1.5897 H   0  0  0  0  0  0  0  0  0  0  0  0
   -2.6702   -0.3711    0.3560 H   0  0  0  0  0  0  0  0  0  0  0  0
   -1.4446   -0.3397   -2.4868 H   0  0  0  0  0  0  0  0  0  0  0  0
   -5.3431    3.1490    0.0428 H   0  0  0  0  0  0  0  0  0  0  0  0
   -4.7051    3.7292   -1.5002 H   0  0  0  0  0  0  0  0  0  0  0  0
   -6.2924    2.9498   -1.4815 H   0  0  0  0  0  0  0  0  0  0  0  0
   -6.8562    1.4233    0.3270 H   0  0  0  0  0  0  0  0  0  0  0  0
   -7.8853   -0.7297    0.9092 H   0  0  0  0  0  0  0  0  0  0  0  0
    0.4458   -1.4405   -1.2868 H   0  0  0  0  0  0  0  0  0  0  0  0
    2.6701   -1.0489   -0.4187 H   0  0  0  0  0  0  0  0  0  0  0  0
    5.2200    0.1930    1.8863 H   0  0  0  0  0  0  0  0  0  0  0  0
    4.3581   -0.9213    0.8490 H   0  0  0  0  0  0  0  0  0  0  0  0
    4.2136    0.8812   -0.9204 H   0  0  0  0  0  0  0  0  0  0  0  0
    4.8067    2.0550    0.2117 H   0  0  0  0  0  0  0  0  0  0  0  0
    6.5624    1.5338   -1.2959 H   0  0  0  0  0  0  0  0  0  0  0  0
    7.0318    1.0125    0.2900 H   0  0  0  0  0  0  0  0  0  0  0  0
    7.5652   -2.3902   -0.6683 H   0  0  0  0  0  0  0  0  0  0  0  0
    6.2244   -1.9339    0.3869 H   0  0  0  0  0  0  0  0  0  0  0  0
    7.8159   -1.1680    0.5642 H   0  0  0  0  0  0  0  0  0  0  0  0
    4.8568   -1.3369   -1.7126 H   0  0  0  0  0  0  0  0  0  0  0  0
    5.6033   -0.2315   -2.8885 H   0  0  0  0  0  0  0  0  0  0  0  0
    6.2473   -1.8521   -2.6808 H   0  0  0  0  0  0  0  0  0  0  0  0
  1  2  1  0
  2  3  1  0
  3  4  2  0
  4  5  1  0
  5  6  1  0
  6  7  2  0
  7  8  1  0
  8  9  2  0
  8 10  1  0
 10 11  2  0
 11 12  1  0
 12 13  1  0
 11 14  1  0
 14 15  2  0
 15 16  1  0
 16 17  1  0
 17 18  1  0
 18 19  2  0
 18 20  1  0
 20 21  1  0
  5 22  2  0
 22 23  1  0
 23 24  2  0
 24 25  1  0
 25 26  1  0
 26 27  1  0
 27 28  1  0
 28 29  1  0
 29 30  1  0
 29 31  1  0
 24  3  1  0
 21 10  1  0
 21 16  2  0
  1 32  1  0
  1 33  1  0
  1 34  1  0
  4 35  1  0
  6 36  1  0
  7 37  1  0
 13 38  1  0
 13 39  1  0
 13 40  1  0
 14 41  1  0
 15 42  1  0
 22 43  1  0
 23 44  1  0
 26 45  1  0
 26 46  1  0
 27 47  1  0
 27 48  1  0
 28 49  1  0
 28 50  1  0
 30 51  1  0
 30 52  1  0
 30 53  1  0
 31 54  1  0
 31 55  1  0
 31 56  1  0
M  END
$$$$
