
     RDKit          3D

 38 40  0  0  0  0  0  0  0  0999 V2000
   -5.8699    2.4359   -1.1711 C   0  0  0  0  0  0  0  0  0  0  0  0
   -4.5411    2.0250   -0.5619 C   0  0  0  0  0  0  0  0  0  0  0  0
   -4.7156    0.9607    0.3730 O   0  0  0  0  0  0  0  0  0  0  0  0
   -4.7584   -0.3401   -0.2229 C   0  0  0  0  0  0  0  0  0  0  0  0
   -3.3650   -0.8262   -0.4504 C   0  0  0  0  0  0  0  0  0  0  0  0
   -2.7774   -0.9010   -1.6284 N   0  0  0  0  0  0  0  0  0  0  0  0
   -1.4875   -1.3819   -1.5301 N   0  0  0  0  0  0  0  0  0  0  0  0
   -1.1520   -1.6563   -0.2888 C   0  0  0  0  0  0  0  0  0  0  0  0
    0.0859   -2.1419    0.0401 N   0  0  0  0  0  0  0  0  0  0  0  0
    0.5591   -2.4461    1.2960 C   0  0  0  0  0  0  0  0  0  0  0  0
   -0.0554   -2.3834    2.3562 O   0  0  0  0  0  0  0  0  0  0  0  0
    2.0067   -2.9524    1.2674 C   0  0  0  0  0  0  0  0  0  0  0  0
    2.7517   -2.5561    0.1219 O   0  0  0  0  0  0  0  0  0  0  0  0
    3.2953   -1.2986    0.1125 C   0  0  0  0  0  0  0  0  0  0  0  0
    4.1002   -1.0287   -1.0136 C   0  0  0  0  0  0  0  0  0  0  0  0
    4.7147    0.2160   -1.1829 C   0  0  0  0  0  0  0  0  0  0  0  0
    4.5024    1.1662   -0.2111 C   0  0  0  0  0  0  0  0  0  0  0  0
    3.7170    0.9092    0.8871 C   0  0  0  0  0  0  0  0  0  0  0  0
    3.0975   -0.3104    1.0806 C   0  0  0  0  0  0  0  0  0  0  0  0
    3.6337    1.9783    1.7247 O   0  0  0  0  0  0  0  0  0  0  0  0
    4.4510    2.9388    1.0233 C   0  0  0  0  0  0  0  0  0  0  0  0
    5.0118    2.4260   -0.2031 O   0  0  0  0  0  0  0  0  0  0  0  0
   -2.3799   -1.3603    0.8523 S   0  0  0  0  0  0  0  0  0  0  0  0
   -6.5951    2.6744   -0.3863 H   0  0  0  0  0  0  0  0  0  0  0  0
   -6.3011    1.6284   -1.7698 H   0  0  0  0  0  0  0  0  0  0  0  0
   -5.7448    3.3115   -1.8144 H   0  0  0  0  0  0  0  0  0  0  0  0
   -3.8118    1.7643   -1.3364 H   0  0  0  0  0  0  0  0  0  0  0  0
   -4.1330    2.8737   -0.0029 H   0  0  0  0  0  0  0  0  0  0  0  0
   -5.3330   -0.3334   -1.1547 H   0  0  0  0  0  0  0  0  0  0  0  0
   -5.2783   -1.0050    0.4751 H   0  0  0  0  0  0  0  0  0  0  0  0
    0.7218   -2.2265   -0.7448 H   0  0  0  0  0  0  0  0  0  0  0  0
    1.9498   -4.0470    1.2443 H   0  0  0  0  0  0  0  0  0  0  0  0
    2.5225   -2.6852    2.1969 H   0  0  0  0  0  0  0  0  0  0  0  0
    4.2488   -1.8012   -1.7654 H   0  0  0  0  0  0  0  0  0  0  0  0
    5.3343    0.4264   -2.0470 H   0  0  0  0  0  0  0  0  0  0  0  0
    2.4867   -0.4473    1.9638 H   0  0  0  0  0  0  0  0  0  0  0  0
    5.2707    3.2477    1.6819 H   0  0  0  0  0  0  0  0  0  0  0  0
    3.8375    3.8163    0.7888 H   0  0  0  0  0  0  0  0  0  0  0  0
  1  2  1  0
  2  3  1  0
  3  4  1  0
  4  5  1  0
  5  6  2  0
  6  7  1  0
  7  8  2  0
  8  9  1  0
  9 10  1  0
 10 11  2  0
 10 12  1  0
 12 13  1  0
 13 14  1  0
 14 15  2  0
 15 16  1  0
 16 17  2  0
 17 18  1  0
 18 19  2  0
 18 20  1  0
 20 21  1  0
 21 22  1  0
  8 23  1  0
 23  5  1  0
 19 14  1  0
 22 17  1  0
  1 24  1  0
  1 25  1  0
  1 26  1  0
  2 27  1  0
  2 28  1  0
  4 29  1  0
  4 30  1  0
  9 31  1  0
 12 32  1  0
 12 33  1  0
 15 34  1  0
 16 35  1  0
 19 36  1  0
 21 37  1  0
 21 38  1  0
M  END
$$$$
