
     RDKit          3D

 33 34  0  0  0  0  0  0  0  0999 V2000
   -1.8803    3.9143    1.5852 C   0  0  0  0  0  0  0  0  0  0  0  0
   -1.1328    2.7164    1.3750 O   0  0  0  0  0  0  0  0  0  0  0  0
   -0.3191    2.7729    0.2944 C   0  0  0  0  0  0  0  0  0  0  0  0
   -0.0800    3.7288   -0.4216 O   0  0  0  0  0  0  0  0  0  0  0  0
    0.3801    1.4885    0.1927 C   0  0  0  0  0  0  0  0  0  0  0  0
    1.7319    1.4977    0.5297 C   0  0  0  0  0  0  0  0  0  0  0  0
    2.4051    0.3004    0.4786 C   0  0  0  0  0  0  0  0  0  0  0  0
    3.7375    0.3275    0.8276 O   0  0  0  0  0  0  0  0  0  0  0  0
    4.3783   -0.9390    0.7068 C   0  0  0  0  0  0  0  0  0  0  0  0
    1.8214   -0.8613    0.1218 N   0  0  0  0  0  0  0  0  0  0  0  0
    0.5064   -0.8498   -0.2203 C   0  0  0  0  0  0  0  0  0  0  0  0
   -0.2496    0.3077   -0.2124 C   0  0  0  0  0  0  0  0  0  0  0  0
   -1.6478    0.2381   -0.6591 C   0  0  0  0  0  0  0  0  0  0  0  0
   -2.3166    1.2626   -0.7380 O   0  0  0  0  0  0  0  0  0  0  0  0
   -2.1391   -1.0163   -0.9924 N   0  0  0  0  0  0  0  0  0  0  0  0
   -3.5298   -1.1235   -1.4014 C   0  0  0  0  0  0  0  0  0  0  0  0
   -1.4083   -2.1955   -0.9407 C   0  0  0  0  0  0  0  0  0  0  0  0
   -1.9216   -3.2842   -1.2066 O   0  0  0  0  0  0  0  0  0  0  0  0
   -0.0812   -2.0792   -0.5808 N   0  0  0  0  0  0  0  0  0  0  0  0
    0.7623   -3.2653   -0.5307 C   0  0  0  0  0  0  0  0  0  0  0  0
   -1.2078    4.7522    1.7954 H   0  0  0  0  0  0  0  0  0  0  0  0
   -2.5276    3.7620    2.4536 H   0  0  0  0  0  0  0  0  0  0  0  0
   -2.5114    4.1314    0.7172 H   0  0  0  0  0  0  0  0  0  0  0  0
    2.2389    2.4095    0.8266 H   0  0  0  0  0  0  0  0  0  0  0  0
    3.9143   -1.6855    1.3626 H   0  0  0  0  0  0  0  0  0  0  0  0
    4.3827   -1.2796   -0.3353 H   0  0  0  0  0  0  0  0  0  0  0  0
    5.4194   -0.8171    1.0243 H   0  0  0  0  0  0  0  0  0  0  0  0
   -3.9594   -0.1532   -1.6646 H   0  0  0  0  0  0  0  0  0  0  0  0
   -4.0995   -1.5533   -0.5704 H   0  0  0  0  0  0  0  0  0  0  0  0
   -3.6150   -1.7892   -2.2678 H   0  0  0  0  0  0  0  0  0  0  0  0
    1.6143   -3.1366   -1.2060 H   0  0  0  0  0  0  0  0  0  0  0  0
    0.2205   -4.1637   -0.8394 H   0  0  0  0  0  0  0  0  0  0  0  0
    1.1137   -3.4178    0.4959 H   0  0  0  0  0  0  0  0  0  0  0  0
  1  2  1  0
  2  3  1  0
  3  4  2  0
  3  5  1  0
  5  6  2  0
  6  7  1  0
  7  8  1  0
  8  9  1  0
  7 10  2  0
 10 11  1  0
 11 12  2  0
 12 13  1  0
 13 14  2  0
 13 15  1  0
 15 16  1  0
 15 17  1  0
 17 18  2  0
 17 19  1  0
 19 20  1  0
 12  5  1  0
 19 11  1  0
  1 21  1  0
  1 22  1  0
  1 23  1  0
  6 24  1  0
  9 25  1  0
  9 26  1  0
  9 27  1  0
 16 28  1  0
 16 29  1  0
 16 30  1  0
 20 31  1  0
 20 32  1  0
 20 33  1  0
M  END
$$$$
