
     RDKit          3D

 46 49  0  0  0  0  0  0  0  0999 V2000
   -2.3621   -0.8666   -4.0643 C   0  0  0  0  0  0  0  0  0  0  0  0
   -1.6648   -0.1650   -3.0420 O   0  0  0  0  0  0  0  0  0  0  0  0
   -1.8459   -0.6023   -1.7591 C   0  0  0  0  0  0  0  0  0  0  0  0
   -2.5673   -1.7302   -1.3693 C   0  0  0  0  0  0  0  0  0  0  0  0
   -2.6552   -2.0745   -0.0171 C   0  0  0  0  0  0  0  0  0  0  0  0
   -2.0199   -1.2964    0.9507 C   0  0  0  0  0  0  0  0  0  0  0  0
   -1.2962   -0.1625    0.5694 C   0  0  0  0  0  0  0  0  0  0  0  0
   -0.5895    0.6349    1.5633 C   0  0  0  0  0  0  0  0  0  0  0  0
    0.7685    0.7011    1.8654 C   0  0  0  0  0  0  0  0  0  0  0  0
    1.9069   -0.0346    1.3078 C   0  0  0  0  0  0  0  0  0  0  0  0
    3.0550    0.3933    1.4094 O   0  0  0  0  0  0  0  0  0  0  0  0
    1.5928   -1.2592    0.7029 N   0  0  0  0  0  0  0  0  0  0  0  0
    2.5921   -2.1645    0.4210 N   0  0  0  0  0  0  0  0  0  0  0  0
    3.4717   -1.8739   -0.5001 C   0  0  0  0  0  0  0  0  0  0  0  0
    4.6668   -2.7982   -0.6091 C   0  0  0  0  0  0  0  0  0  0  0  0
    3.3696   -0.7806   -1.4577 C   0  0  0  0  0  0  0  0  0  0  0  0
    2.2563   -0.3628   -2.1684 C   0  0  0  0  0  0  0  0  0  0  0  0
    2.5309    0.7555   -3.0100 C   0  0  0  0  0  0  0  0  0  0  0  0
    3.8459    1.1270   -2.9159 C   0  0  0  0  0  0  0  0  0  0  0  0
    4.6087    2.4136   -3.7590 Cl  0  0  0  0  0  0  0  0  0  0  0  0
    4.7459    0.1653   -1.8558 S   0  0  0  0  0  0  0  0  0  0  0  0
    0.9606    1.6468    2.8382 N   0  0  0  0  0  0  0  0  0  0  0  0
   -0.2098    2.1590    3.1681 N   0  0  0  0  0  0  0  0  0  0  0  0
   -1.1776    1.5995    2.3918 N   0  0  0  0  0  0  0  0  0  0  0  0
   -2.5288    2.0222    2.4824 C   0  0  0  0  0  0  0  0  0  0  0  0
   -3.4694    1.5174    1.6835 N   0  0  0  0  0  0  0  0  0  0  0  0
   -4.6314    2.1887    2.0593 O   0  0  0  0  0  0  0  0  0  0  0  0
   -4.3823    3.0937    3.0852 N   0  0  0  0  0  0  0  0  0  0  0  0
   -3.0810    2.9846    3.3492 C   0  0  0  0  0  0  0  0  0  0  0  0
   -2.4364    3.6917    4.2972 N   0  0  0  0  0  0  0  0  0  0  0  0
   -1.2144    0.1777   -0.7860 C   0  0  0  0  0  0  0  0  0  0  0  0
   -2.0094   -1.9000   -4.1425 H   0  0  0  0  0  0  0  0  0  0  0  0
   -2.1496   -0.3695   -5.0158 H   0  0  0  0  0  0  0  0  0  0  0  0
   -3.4446   -0.8285   -3.9026 H   0  0  0  0  0  0  0  0  0  0  0  0
   -3.0731   -2.3641   -2.0907 H   0  0  0  0  0  0  0  0  0  0  0  0
   -3.2239   -2.9526    0.2813 H   0  0  0  0  0  0  0  0  0  0  0  0
   -2.1036   -1.5813    1.9976 H   0  0  0  0  0  0  0  0  0  0  0  0
    0.7476   -1.7037    1.0462 H   0  0  0  0  0  0  0  0  0  0  0  0
    4.4614   -3.7450   -0.0998 H   0  0  0  0  0  0  0  0  0  0  0  0
    4.8931   -3.0103   -1.6581 H   0  0  0  0  0  0  0  0  0  0  0  0
    5.5350   -2.3309   -0.1352 H   0  0  0  0  0  0  0  0  0  0  0  0
    1.2887   -0.8437   -2.0913 H   0  0  0  0  0  0  0  0  0  0  0  0
    1.8041    1.2459   -3.6456 H   0  0  0  0  0  0  0  0  0  0  0  0
   -1.4177    3.7258    4.3282 H   0  0  0  0  0  0  0  0  0  0  0  0
   -2.8936    4.5012    4.7034 H   0  0  0  0  0  0  0  0  0  0  0  0
   -0.6541    1.0564   -1.1009 H   0  0  0  0  0  0  0  0  0  0  0  0
  1  2  1  0
  2  3  1  0
  3  4  2  0
  4  5  1  0
  5  6  2  0
  6  7  1  0
  7  8  1  0
  8  9  2  0
  9 10  1  0
 10 11  2  0
 10 12  1  0
 12 13  1  0
 13 14  2  3
 14 15  1  0
 14 16  1  0
 16 17  2  0
 17 18  1  0
 18 19  2  0
 19 20  1  0
 19 21  1  0
  9 22  1  0
 22 23  2  0
 23 24  1  0
 24 25  1  0
 25 26  2  0
 26 27  1  0
 27 28  1  0
 28 29  2  0
 29 30  1  0
  7 31  2  0
 31  3  1  0
 24  8  1  0
 29 25  1  0
 21 16  1  0
  1 32  1  0
  1 33  1  0
  1 34  1  0
  4 35  1  0
  5 36  1  0
  6 37  1  0
 12 38  1  0
 15 39  1  0
 15 40  1  0
 15 41  1  0
 17 42  1  0
 18 43  1  0
 30 44  1  0
 30 45  1  0
 31 46  1  0
M  END
$$$$
