
     RDKit          3D

 42 45  0  0  0  0  0  0  0  0999 V2000
    3.0983    2.6519    0.2828 O   0  0  0  0  0  0  0  0  0  0  0  0
    3.0051    1.4337    0.1547 C   0  0  0  0  0  0  0  0  0  0  0  0
    4.2444    0.6746   -0.1231 C   0  0  0  0  0  0  0  0  0  0  0  0
    5.3548    0.8712    0.7082 C   0  0  0  0  0  0  0  0  0  0  0  0
    6.5444    0.1848    0.4560 C   0  0  0  0  0  0  0  0  0  0  0  0
    6.6248   -0.6829   -0.6332 C   0  0  0  0  0  0  0  0  0  0  0  0
    5.5217   -0.8490   -1.4662 C   0  0  0  0  0  0  0  0  0  0  0  0
    5.6108   -1.6726   -2.5186 F   0  0  0  0  0  0  0  0  0  0  0  0
    4.3312   -0.1737   -1.2289 C   0  0  0  0  0  0  0  0  0  0  0  0
    1.8004    0.7455    0.2601 N   0  0  0  0  0  0  0  0  0  0  0  0
    1.6863   -0.7064    0.4603 C   0  0  0  0  0  0  0  0  0  0  0  0
    0.4302   -1.1032    1.2484 C   0  0  0  0  0  0  0  0  0  0  0  0
   -0.7926   -0.5622    0.6538 N   0  0  0  0  0  0  0  0  0  0  0  0
   -1.9822   -1.2831    0.8105 C   0  0  0  0  0  0  0  0  0  0  0  0
   -2.0128   -2.2841    1.5303 O   0  0  0  0  0  0  0  0  0  0  0  0
   -3.2141   -0.8550    0.1068 C   0  0  0  0  0  0  0  0  0  0  0  0
   -4.5150   -1.3502    0.3898 C   0  0  0  0  0  0  0  0  0  0  0  0
   -5.3615   -0.7334   -0.4967 C   0  0  0  0  0  0  0  0  0  0  0  0
   -6.7139   -0.8208   -0.6799 N   0  0  0  0  0  0  0  0  0  0  0  0
   -7.1999   -0.0877   -1.6395 C   0  0  0  0  0  0  0  0  0  0  0  0
   -6.4204    0.8209   -2.5354 C   0  0  0  0  0  0  0  0  0  0  0  0
   -7.2945    1.7850   -3.8469 Br  0  0  0  0  0  0  0  0  0  0  0  0
   -5.1029    0.8585   -2.2994 C   0  0  0  0  0  0  0  0  0  0  0  0
   -4.5535    0.0874   -1.2827 N   0  0  0  0  0  0  0  0  0  0  0  0
   -3.2517    0.0139   -0.9210 N   0  0  0  0  0  0  0  0  0  0  0  0
   -0.6894    0.7699    0.0428 C   0  0  0  0  0  0  0  0  0  0  0  0
    0.5795    1.5290    0.4557 C   0  0  0  0  0  0  0  0  0  0  0  0
    5.2917    1.5622    1.5466 H   0  0  0  0  0  0  0  0  0  0  0  0
    7.4067    0.3333    1.1013 H   0  0  0  0  0  0  0  0  0  0  0  0
    7.5435   -1.2213   -0.8461 H   0  0  0  0  0  0  0  0  0  0  0  0
    3.4978   -0.3008   -1.9112 H   0  0  0  0  0  0  0  0  0  0  0  0
    2.5764   -1.0841    0.9730 H   0  0  0  0  0  0  0  0  0  0  0  0
    1.6436   -1.1584   -0.5372 H   0  0  0  0  0  0  0  0  0  0  0  0
    0.4866   -0.7112    2.2712 H   0  0  0  0  0  0  0  0  0  0  0  0
    0.3715   -2.1948    1.3154 H   0  0  0  0  0  0  0  0  0  0  0  0
   -4.7902   -2.0701    1.1480 H   0  0  0  0  0  0  0  0  0  0  0  0
   -8.2868   -0.1262   -1.8248 H   0  0  0  0  0  0  0  0  0  0  0  0
   -4.4066    1.4654   -2.8616 H   0  0  0  0  0  0  0  0  0  0  0  0
   -0.6827    0.6220   -1.0432 H   0  0  0  0  0  0  0  0  0  0  0  0
   -1.5615    1.3700    0.3194 H   0  0  0  0  0  0  0  0  0  0  0  0
    0.6488    2.4703   -0.1009 H   0  0  0  0  0  0  0  0  0  0  0  0
    0.5337    1.7813    1.5225 H   0  0  0  0  0  0  0  0  0  0  0  0
  1  2  2  0
  2  3  1  0
  3  4  2  0
  4  5  1  0
  5  6  2  0
  6  7  1  0
  7  8  1  0
  7  9  2  0
  2 10  1  0
 10 11  1  0
 11 12  1  0
 12 13  1  0
 13 14  1  0
 14 15  2  0
 14 16  1  0
 16 17  1  0
 17 18  2  0
 18 19  1  0
 19 20  2  0
 20 21  1  0
 21 22  1  0
 21 23  2  0
 23 24  1  0
 24 25  1  0
 13 26  1  0
 26 27  1  0
  9  3  1  0
 27 10  1  0
 25 16  2  0
 24 18  1  0
  4 28  1  0
  5 29  1  0
  6 30  1  0
  9 31  1  0
 11 32  1  0
 11 33  1  0
 12 34  1  0
 12 35  1  0
 17 36  1  0
 20 37  1  0
 23 38  1  0
 26 39  1  0
 26 40  1  0
 27 41  1  0
 27 42  1  0
M  END
$$$$
