
     RDKit          3D

 61 64  0  0  0  0  0  0  0  0999 V2000
   -8.3018   -1.9987    1.5044 C   0  0  0  0  0  0  0  0  0  0  0  0
   -8.3512   -1.6305    0.1299 O   0  0  0  0  0  0  0  0  0  0  0  0
   -7.2549   -0.9927   -0.3828 C   0  0  0  0  0  0  0  0  0  0  0  0
   -7.3524   -0.6542   -1.7362 C   0  0  0  0  0  0  0  0  0  0  0  0
   -6.3161    0.0159   -2.3969 C   0  0  0  0  0  0  0  0  0  0  0  0
   -6.5653    0.3003   -3.7124 O   0  0  0  0  0  0  0  0  0  0  0  0
   -5.5503    0.9884   -4.4343 C   0  0  0  0  0  0  0  0  0  0  0  0
   -5.1568    0.3405   -1.6954 C   0  0  0  0  0  0  0  0  0  0  0  0
   -5.0430   -0.0131   -0.3423 C   0  0  0  0  0  0  0  0  0  0  0  0
   -3.8297    0.3331    0.4469 C   0  0  0  0  0  0  0  0  0  0  0  0
   -3.9833    0.7178    1.6016 O   0  0  0  0  0  0  0  0  0  0  0  0
   -2.6275    0.1659   -0.2303 N   0  0  0  0  0  0  0  0  0  0  0  0
   -1.3792    0.5488    0.1842 N   0  0  0  0  0  0  0  0  0  0  0  0
   -1.1418    0.7022    1.4471 C   0  0  0  0  0  0  0  0  0  0  0  0
    0.1723    1.1732    1.9360 C   0  0  0  0  0  0  0  0  0  0  0  0
    0.3468    1.3611    3.3073 C   0  0  0  0  0  0  0  0  0  0  0  0
    1.5702    1.8259    3.7983 C   0  0  0  0  0  0  0  0  0  0  0  0
    2.6270    2.1043    2.9242 C   0  0  0  0  0  0  0  0  0  0  0  0
    3.8524    2.5761    3.3158 O   0  0  0  0  0  0  0  0  0  0  0  0
    4.0446    2.8437    4.7009 C   0  0  0  0  0  0  0  0  0  0  0  0
    2.4624    1.8969    1.5387 C   0  0  0  0  0  0  0  0  0  0  0  0
    3.5810    2.2293    0.5711 C   0  0  0  0  0  0  0  0  0  0  0  0
    3.5512    1.4403   -0.6264 O   0  0  0  0  0  0  0  0  0  0  0  0
    4.2860    0.2831   -0.6322 C   0  0  0  0  0  0  0  0  0  0  0  0
    4.6587   -0.4463    0.4932 C   0  0  0  0  0  0  0  0  0  0  0  0
    5.3993   -1.6261    0.3506 C   0  0  0  0  0  0  0  0  0  0  0  0
    5.7756   -2.0959   -0.9187 C   0  0  0  0  0  0  0  0  0  0  0  0
    6.5255   -3.2750   -1.0773 C   0  0  0  0  0  0  0  0  0  0  0  0
    6.8936   -3.7252   -2.3481 C   0  0  0  0  0  0  0  0  0  0  0  0
    6.5145   -3.0033   -3.4754 C   0  0  0  0  0  0  0  0  0  0  0  0
    5.7654   -1.8315   -3.3343 C   0  0  0  0  0  0  0  0  0  0  0  0
    5.3891   -1.3653   -2.0625 C   0  0  0  0  0  0  0  0  0  0  0  0
    4.6397   -0.1859   -1.9020 C   0  0  0  0  0  0  0  0  0  0  0  0
    1.2213    1.4429    1.0540 C   0  0  0  0  0  0  0  0  0  0  0  0
   -6.0965   -0.6648    0.3167 C   0  0  0  0  0  0  0  0  0  0  0  0
   -9.2419   -2.5009    1.7525 H   0  0  0  0  0  0  0  0  0  0  0  0
   -8.2180   -1.1148    2.1465 H   0  0  0  0  0  0  0  0  0  0  0  0
   -7.4869   -2.7062    1.6939 H   0  0  0  0  0  0  0  0  0  0  0  0
   -8.2586   -0.9075   -2.2842 H   0  0  0  0  0  0  0  0  0  0  0  0
   -4.6287    0.3973   -4.4806 H   0  0  0  0  0  0  0  0  0  0  0  0
   -5.3624    1.9790   -4.0060 H   0  0  0  0  0  0  0  0  0  0  0  0
   -5.9079    1.1295   -5.4573 H   0  0  0  0  0  0  0  0  0  0  0  0
   -4.3548    0.8929   -2.1717 H   0  0  0  0  0  0  0  0  0  0  0  0
   -2.6410   -0.1303   -1.2004 H   0  0  0  0  0  0  0  0  0  0  0  0
   -1.8754    0.4737    2.2350 H   0  0  0  0  0  0  0  0  0  0  0  0
   -0.4647    1.1604    4.0031 H   0  0  0  0  0  0  0  0  0  0  0  0
    1.6615    1.9663    4.8707 H   0  0  0  0  0  0  0  0  0  0  0  0
    3.9654    1.9259    5.2942 H   0  0  0  0  0  0  0  0  0  0  0  0
    5.0592    3.2340    4.8275 H   0  0  0  0  0  0  0  0  0  0  0  0
    3.3473    3.6100    5.0572 H   0  0  0  0  0  0  0  0  0  0  0  0
    3.4358    3.2706    0.2570 H   0  0  0  0  0  0  0  0  0  0  0  0
    4.5748    2.1871    1.0320 H   0  0  0  0  0  0  0  0  0  0  0  0
    4.3770   -0.1352    1.4951 H   0  0  0  0  0  0  0  0  0  0  0  0
    5.6767   -2.1811    1.2440 H   0  0  0  0  0  0  0  0  0  0  0  0
    6.8317   -3.8495   -0.2086 H   0  0  0  0  0  0  0  0  0  0  0  0
    7.4776   -4.6370   -2.4555 H   0  0  0  0  0  0  0  0  0  0  0  0
    6.8010   -3.3501   -4.4660 H   0  0  0  0  0  0  0  0  0  0  0  0
    5.4789   -1.2791   -4.2263 H   0  0  0  0  0  0  0  0  0  0  0  0
    4.3315    0.3846   -2.7725 H   0  0  0  0  0  0  0  0  0  0  0  0
    1.0762    1.2995   -0.0166 H   0  0  0  0  0  0  0  0  0  0  0  0
   -5.9813   -0.9004    1.3712 H   0  0  0  0  0  0  0  0  0  0  0  0
  1  2  1  0
  2  3  1  0
  3  4  2  0
  4  5  1  0
  5  6  1  0
  6  7  1  0
  5  8  2  0
  8  9  1  0
  9 10  1  0
 10 11  2  0
 10 12  1  0
 12 13  1  0
 13 14  2  3
 14 15  1  0
 15 16  2  0
 16 17  1  0
 17 18  2  0
 18 19  1  0
 19 20  1  0
 18 21  1  0
 21 22  1  0
 22 23  1  0
 23 24  1  0
 24 25  2  0
 25 26  1  0
 26 27  2  0
 27 28  1  0
 28 29  2  0
 29 30  1  0
 30 31  2  0
 31 32  1  0
 32 33  2  0
 21 34  2  0
  9 35  2  0
 35  3  1  0
 34 15  1  0
 33 24  1  0
 32 27  1  0
  1 36  1  0
  1 37  1  0
  1 38  1  0
  4 39  1  0
  7 40  1  0
  7 41  1  0
  7 42  1  0
  8 43  1  0
 12 44  1  0
 14 45  1  0
 16 46  1  0
 17 47  1  0
 20 48  1  0
 20 49  1  0
 20 50  1  0
 22 51  1  0
 22 52  1  0
 25 53  1  0
 26 54  1  0
 28 55  1  0
 29 56  1  0
 30 57  1  0
 31 58  1  0
 33 59  1  0
 34 60  1  0
 35 61  1  0
M  END
$$$$
