
     RDKit          3D

 58 61  0  0  0  0  0  0  0  0999 V2000
   -4.2818    5.1021    2.8206 C   0  0  0  0  0  0  0  0  0  0  0  0
   -3.9702    3.7169    2.8952 O   0  0  0  0  0  0  0  0  0  0  0  0
   -3.7689    3.0634    1.7101 C   0  0  0  0  0  0  0  0  0  0  0  0
   -3.8085    3.6388    0.4399 C   0  0  0  0  0  0  0  0  0  0  0  0
   -3.5783    2.8537   -0.6925 C   0  0  0  0  0  0  0  0  0  0  0  0
   -3.3087    1.4913   -0.5601 C   0  0  0  0  0  0  0  0  0  0  0  0
   -3.2670    0.8984    0.7070 C   0  0  0  0  0  0  0  0  0  0  0  0
   -2.9659   -0.5322    0.8465 C   0  0  0  0  0  0  0  0  0  0  0  0
   -4.1707   -1.5558    1.5024 S   0  0  0  0  0  0  0  0  0  0  0  0
   -3.1968   -2.9597    1.3414 C   0  0  0  0  0  0  0  0  0  0  0  0
   -3.5453   -4.2752    1.7031 C   0  0  0  0  0  0  0  0  0  0  0  0
   -2.6210   -5.3076    1.5067 C   0  0  0  0  0  0  0  0  0  0  0  0
   -1.3712   -5.0435    0.9639 C   0  0  0  0  0  0  0  0  0  0  0  0
   -0.3855   -5.9626    0.7277 O   0  0  0  0  0  0  0  0  0  0  0  0
   -0.6636   -7.3118    1.0798 C   0  0  0  0  0  0  0  0  0  0  0  0
   -1.0382   -3.7310    0.6078 C   0  0  0  0  0  0  0  0  0  0  0  0
   -1.9526   -2.6594    0.7871 C   0  0  0  0  0  0  0  0  0  0  0  0
   -1.8289   -1.2463    0.4972 C   0  0  0  0  0  0  0  0  0  0  0  0
   -0.6604   -0.5970   -0.0903 C   0  0  0  0  0  0  0  0  0  0  0  0
   -0.2878   -0.8857   -1.4062 C   0  0  0  0  0  0  0  0  0  0  0  0
    0.8308   -0.2650   -1.9672 C   0  0  0  0  0  0  0  0  0  0  0  0
    1.5906    0.6430   -1.2253 C   0  0  0  0  0  0  0  0  0  0  0  0
    2.6533    1.1781   -1.8979 O   0  0  0  0  0  0  0  0  0  0  0  0
    3.5279    2.0347   -1.1618 C   0  0  0  0  0  0  0  0  0  0  0  0
    4.6835    2.4993   -2.0710 C   0  0  0  0  0  0  0  0  0  0  0  0
    5.5822    1.4325   -2.5612 N   0  0  0  0  0  0  0  0  0  0  0  0
    6.3122    0.7767   -1.4774 C   0  0  0  0  0  0  0  0  0  0  0  0
    6.5224    1.9778   -3.5420 C   0  0  0  0  0  0  0  0  0  0  0  0
    1.2204    0.9299    0.0889 C   0  0  0  0  0  0  0  0  0  0  0  0
    0.1007    0.3098    0.6556 C   0  0  0  0  0  0  0  0  0  0  0  0
   -3.4973    1.6972    1.8363 C   0  0  0  0  0  0  0  0  0  0  0  0
   -5.2142    5.2688    2.2711 H   0  0  0  0  0  0  0  0  0  0  0  0
   -4.4278    5.4673    3.8417 H   0  0  0  0  0  0  0  0  0  0  0  0
   -3.4554    5.6689    2.3794 H   0  0  0  0  0  0  0  0  0  0  0  0
   -4.0130    4.6941    0.2949 H   0  0  0  0  0  0  0  0  0  0  0  0
   -3.6068    3.3046   -1.6813 H   0  0  0  0  0  0  0  0  0  0  0  0
   -3.1307    0.8949   -1.4523 H   0  0  0  0  0  0  0  0  0  0  0  0
   -4.5209   -4.4885    2.1317 H   0  0  0  0  0  0  0  0  0  0  0  0
   -2.9185   -6.3104    1.7953 H   0  0  0  0  0  0  0  0  0  0  0  0
   -0.8428   -7.4103    2.1556 H   0  0  0  0  0  0  0  0  0  0  0  0
   -1.5051   -7.7056    0.5002 H   0  0  0  0  0  0  0  0  0  0  0  0
    0.2189   -7.9102    0.8335 H   0  0  0  0  0  0  0  0  0  0  0  0
   -0.0542   -3.5320    0.1881 H   0  0  0  0  0  0  0  0  0  0  0  0
   -0.8631   -1.5889   -2.0035 H   0  0  0  0  0  0  0  0  0  0  0  0
    1.1167   -0.4927   -2.9914 H   0  0  0  0  0  0  0  0  0  0  0  0
    2.9739    2.9270   -0.8438 H   0  0  0  0  0  0  0  0  0  0  0  0
    3.9172    1.5252   -0.2735 H   0  0  0  0  0  0  0  0  0  0  0  0
    4.2252    2.9838   -2.9432 H   0  0  0  0  0  0  0  0  0  0  0  0
    5.2636    3.2647   -1.5395 H   0  0  0  0  0  0  0  0  0  0  0  0
    5.6323    0.2406   -0.8083 H   0  0  0  0  0  0  0  0  0  0  0  0
    6.9971    0.0198   -1.8768 H   0  0  0  0  0  0  0  0  0  0  0  0
    6.8980    1.4884   -0.8847 H   0  0  0  0  0  0  0  0  0  0  0  0
    5.9854    2.4157   -4.3907 H   0  0  0  0  0  0  0  0  0  0  0  0
    7.1562    1.1836   -3.9526 H   0  0  0  0  0  0  0  0  0  0  0  0
    7.1709    2.7476   -3.1084 H   0  0  0  0  0  0  0  0  0  0  0  0
    1.7757    1.6317    0.7012 H   0  0  0  0  0  0  0  0  0  0  0  0
   -0.1731    0.5428    1.6823 H   0  0  0  0  0  0  0  0  0  0  0  0
   -3.4608    1.2583    2.8311 H   0  0  0  0  0  0  0  0  0  0  0  0
  1  2  1  0
  2  3  1  0
  3  4  2  0
  4  5  1  0
  5  6  2  0
  6  7  1  0
  7  8  1  0
  8  9  1  0
  9 10  1  0
 10 11  2  0
 11 12  1  0
 12 13  2  0
 13 14  1  0
 14 15  1  0
 13 16  1  0
 16 17  2  0
 17 18  1  0
 18 19  1  0
 19 20  2  0
 20 21  1  0
 21 22  2  0
 22 23  1  0
 23 24  1  0
 24 25  1  0
 25 26  1  0
 26 27  1  0
 26 28  1  0
 22 29  1  0
 29 30  2  0
  7 31  2  0
 31  3  1  0
 18  8  2  0
 30 19  1  0
 17 10  1  0
  1 32  1  0
  1 33  1  0
  1 34  1  0
  4 35  1  0
  5 36  1  0
  6 37  1  0
 11 38  1  0
 12 39  1  0
 15 40  1  0
 15 41  1  0
 15 42  1  0
 16 43  1  0
 20 44  1  0
 21 45  1  0
 24 46  1  0
 24 47  1  0
 25 48  1  0
 25 49  1  0
 27 50  1  0
 27 51  1  0
 27 52  1  0
 28 53  1  0
 28 54  1  0
 28 55  1  0
 29 56  1  0
 30 57  1  0
 31 58  1  0
M  END
$$$$
