
     RDKit          3D

 57 60  0  0  0  0  0  0  0  0999 V2000
   -5.0335   -3.6460    0.8079 C   0  0  0  0  0  0  0  0  0  0  0  0
   -4.5974   -2.1796    0.7308 C   0  0  0  0  0  0  0  0  0  0  0  0
   -5.8169   -1.2999    0.4613 C   0  0  0  0  0  0  0  0  0  0  0  0
   -3.5356   -1.9886   -0.3574 C   0  0  0  0  0  0  0  0  0  0  0  0
   -3.3267   -2.8705   -1.1942 O   0  0  0  0  0  0  0  0  0  0  0  0
   -2.8311   -0.7944   -0.3963 N   0  0  0  0  0  0  0  0  0  0  0  0
   -2.8846    0.2872    0.5987 C   0  0  0  0  0  0  0  0  0  0  0  0
   -1.5064    0.9264    0.8588 C   0  0  0  0  0  0  0  0  0  0  0  0
   -0.8172    1.3477   -0.3860 N   0  0  0  0  0  0  0  0  0  0  0  0
   -0.5281    2.7361   -0.4108 C   0  0  0  0  0  0  0  0  0  0  0  0
   -1.5179    3.7101   -0.6021 C   0  0  0  0  0  0  0  0  0  0  0  0
   -1.1847    5.0656   -0.6016 C   0  0  0  0  0  0  0  0  0  0  0  0
    0.1378    5.4608   -0.4062 C   0  0  0  0  0  0  0  0  0  0  0  0
    1.1366    4.5054   -0.2076 C   0  0  0  0  0  0  0  0  0  0  0  0
    0.8115    3.1499   -0.2054 C   0  0  0  0  0  0  0  0  0  0  0  0
    1.7449    2.1098   -0.0178 N   0  0  0  0  0  0  0  0  0  0  0  0
    3.0906    2.2006    0.2534 C   0  0  0  0  0  0  0  0  0  0  0  0
    3.7327    3.2287    0.4335 O   0  0  0  0  0  0  0  0  0  0  0  0
    3.7966    0.8915    0.3716 C   0  0  0  0  0  0  0  0  0  0  0  0
    4.8910    0.8005    1.2436 C   0  0  0  0  0  0  0  0  0  0  0  0
    5.5792   -0.4064    1.3882 C   0  0  0  0  0  0  0  0  0  0  0  0
    5.1836   -1.5206    0.6527 C   0  0  0  0  0  0  0  0  0  0  0  0
    4.0874   -1.4368   -0.2124 C   0  0  0  0  0  0  0  0  0  0  0  0
    3.4054   -0.2307   -0.3704 C   0  0  0  0  0  0  0  0  0  0  0  0
    3.6308   -2.4988   -0.9512 O   0  0  0  0  0  0  0  0  0  0  0  0
    4.1684   -3.7383   -0.4745 C   0  0  0  0  0  0  0  0  0  0  0  0
    5.6608   -3.6135   -0.2157 C   0  0  0  0  0  0  0  0  0  0  0  0
    5.9149   -2.6670    0.8286 O   0  0  0  0  0  0  0  0  0  0  0  0
   -1.4088    0.8459   -1.6470 C   0  0  0  0  0  0  0  0  0  0  0  0
   -1.8575   -0.6148   -1.4832 C   0  0  0  0  0  0  0  0  0  0  0  0
   -5.7361   -3.7990    1.6338 H   0  0  0  0  0  0  0  0  0  0  0  0
   -4.1711   -4.3016    0.9731 H   0  0  0  0  0  0  0  0  0  0  0  0
   -5.5242   -3.9686   -0.1173 H   0  0  0  0  0  0  0  0  0  0  0  0
   -4.1575   -1.9328    1.7022 H   0  0  0  0  0  0  0  0  0  0  0  0
   -6.2567   -1.5281   -0.5164 H   0  0  0  0  0  0  0  0  0  0  0  0
   -5.5655   -0.2366    0.4612 H   0  0  0  0  0  0  0  0  0  0  0  0
   -6.5857   -1.4566    1.2253 H   0  0  0  0  0  0  0  0  0  0  0  0
   -3.2967   -0.0668    1.5452 H   0  0  0  0  0  0  0  0  0  0  0  0
   -3.5699    1.0441    0.1999 H   0  0  0  0  0  0  0  0  0  0  0  0
   -0.8626    0.1812    1.3423 H   0  0  0  0  0  0  0  0  0  0  0  0
   -1.6181    1.7517    1.5733 H   0  0  0  0  0  0  0  0  0  0  0  0
   -2.5557    3.4256   -0.7457 H   0  0  0  0  0  0  0  0  0  0  0  0
   -1.9570    5.8157   -0.7522 H   0  0  0  0  0  0  0  0  0  0  0  0
    0.3973    6.5167   -0.4066 H   0  0  0  0  0  0  0  0  0  0  0  0
    2.1571    4.8444   -0.0599 H   0  0  0  0  0  0  0  0  0  0  0  0
    1.2951    1.1993   -0.0459 H   0  0  0  0  0  0  0  0  0  0  0  0
    5.2104    1.6728    1.8110 H   0  0  0  0  0  0  0  0  0  0  0  0
    6.4295   -0.4713    2.0617 H   0  0  0  0  0  0  0  0  0  0  0  0
    2.5882   -0.1814   -1.0832 H   0  0  0  0  0  0  0  0  0  0  0  0
    3.6257   -4.0264    0.4343 H   0  0  0  0  0  0  0  0  0  0  0  0
    3.9795   -4.4975   -1.2401 H   0  0  0  0  0  0  0  0  0  0  0  0
    6.0719   -4.5766    0.1023 H   0  0  0  0  0  0  0  0  0  0  0  0
    6.1991   -3.2925   -1.1161 H   0  0  0  0  0  0  0  0  0  0  0  0
   -2.2761    1.4458   -1.9495 H   0  0  0  0  0  0  0  0  0  0  0  0
   -0.6622    0.9068   -2.4478 H   0  0  0  0  0  0  0  0  0  0  0  0
   -2.2905   -0.9790   -2.4218 H   0  0  0  0  0  0  0  0  0  0  0  0
   -0.9940   -1.2490   -1.2458 H   0  0  0  0  0  0  0  0  0  0  0  0
  1  2  1  0
  2  3  1  0
  2  4  1  0
  4  5  2  0
  4  6  1  0
  6  7  1  0
  7  8  1  0
  8  9  1  0
  9 10  1  0
 10 11  2  0
 11 12  1  0
 12 13  2  0
 13 14  1  0
 14 15  2  0
 15 16  1  0
 16 17  1  0
 17 18  2  0
 17 19  1  0
 19 20  2  0
 20 21  1  0
 21 22  2  0
 22 23  1  0
 23 24  2  0
 23 25  1  0
 25 26  1  0
 26 27  1  0
 27 28  1  0
  9 29  1  0
 29 30  1  0
 30  6  1  0
 15 10  1  0
 24 19  1  0
 28 22  1  0
  1 31  1  0
  1 32  1  0
  1 33  1  0
  2 34  1  0
  3 35  1  0
  3 36  1  0
  3 37  1  0
  7 38  1  0
  7 39  1  0
  8 40  1  0
  8 41  1  0
 11 42  1  0
 12 43  1  0
 13 44  1  0
 14 45  1  0
 16 46  1  0
 20 47  1  0
 21 48  1  0
 24 49  1  0
 26 50  1  0
 26 51  1  0
 27 52  1  0
 27 53  1  0
 29 54  1  0
 29 55  1  0
 30 56  1  0
 30 57  1  0
M  END
$$$$
