
     RDKit          3D

 46 49  0  0  0  0  0  0  0  0999 V2000
    2.7017   -0.3608    2.9427 O   0  0  0  0  0  0  0  0  0  0  0  0
    2.9046   -0.7192    1.7843 C   0  0  0  0  0  0  0  0  0  0  0  0
    3.2321   -2.1710    1.4604 C   0  0  0  0  0  0  0  0  0  0  0  0
    1.7081   -3.1229    1.1648 S   0  0  0  0  0  0  0  0  0  0  0  0
    1.1931   -2.4324   -0.3320 C   0  0  0  0  0  0  0  0  0  0  0  0
    1.9785   -1.8286   -1.1921 N   0  0  0  0  0  0  0  0  0  0  0  0
    1.1905   -1.3010   -2.1776 N   0  0  0  0  0  0  0  0  0  0  0  0
   -0.0679   -1.6131   -1.9159 C   0  0  0  0  0  0  0  0  0  0  0  0
   -1.2462   -1.2338   -2.7515 C   0  0  0  0  0  0  0  0  0  0  0  0
   -2.0654   -0.1249   -2.1568 C   0  0  0  0  0  0  0  0  0  0  0  0
   -1.6447    1.0221   -1.5106 C   0  0  0  0  0  0  0  0  0  0  0  0
   -2.7299    1.8438   -1.0882 C   0  0  0  0  0  0  0  0  0  0  0  0
   -3.9439    1.3031   -1.4345 C   0  0  0  0  0  0  0  0  0  0  0  0
   -3.7749   -0.1805   -2.2669 S   0  0  0  0  0  0  0  0  0  0  0  0
   -0.1049   -2.3506   -0.7485 N   0  0  0  0  0  0  0  0  0  0  0  0
   -1.2718   -2.9404   -0.1212 C   0  0  0  0  0  0  0  0  0  0  0  0
   -1.9392   -2.0125    0.8260 C   0  0  0  0  0  0  0  0  0  0  0  0
   -1.5264   -0.9829    1.6511 C   0  0  0  0  0  0  0  0  0  0  0  0
   -2.6899   -0.4964    2.2973 C   0  0  0  0  0  0  0  0  0  0  0  0
   -3.7334   -1.2667    1.8435 C   0  0  0  0  0  0  0  0  0  0  0  0
   -3.2868   -2.1929    0.9585 O   0  0  0  0  0  0  0  0  0  0  0  0
    2.8287    0.0926    0.6644 N   0  0  0  0  0  0  0  0  0  0  0  0
    2.5332    1.4713    0.6239 C   0  0  0  0  0  0  0  0  0  0  0  0
    2.5167    2.2991    1.7477 C   0  0  0  0  0  0  0  0  0  0  0  0
    2.2032    3.6531    1.6147 C   0  0  0  0  0  0  0  0  0  0  0  0
    2.2018    4.6696    3.0083 Cl  0  0  0  0  0  0  0  0  0  0  0  0
    1.8975    4.1938    0.3676 C   0  0  0  0  0  0  0  0  0  0  0  0
    1.9217    3.3696   -0.7538 C   0  0  0  0  0  0  0  0  0  0  0  0
    1.5301    4.0210   -2.2967 Cl  0  0  0  0  0  0  0  0  0  0  0  0
    2.2479    2.0202   -0.6348 C   0  0  0  0  0  0  0  0  0  0  0  0
    3.7526   -2.6020    2.3207 H   0  0  0  0  0  0  0  0  0  0  0  0
    3.9128   -2.2371    0.6049 H   0  0  0  0  0  0  0  0  0  0  0  0
   -1.8580   -2.1254   -2.9352 H   0  0  0  0  0  0  0  0  0  0  0  0
   -0.8887   -0.9018   -3.7355 H   0  0  0  0  0  0  0  0  0  0  0  0
   -0.6038    1.2630   -1.3465 H   0  0  0  0  0  0  0  0  0  0  0  0
   -2.6231    2.7819   -0.5616 H   0  0  0  0  0  0  0  0  0  0  0  0
   -4.9266    1.7091   -1.2459 H   0  0  0  0  0  0  0  0  0  0  0  0
   -1.9619   -3.2395   -0.9171 H   0  0  0  0  0  0  0  0  0  0  0  0
   -0.9713   -3.8613    0.3905 H   0  0  0  0  0  0  0  0  0  0  0  0
   -0.5153   -0.6115    1.7747 H   0  0  0  0  0  0  0  0  0  0  0  0
   -2.7607    0.3139    3.0096 H   0  0  0  0  0  0  0  0  0  0  0  0
   -4.7967   -1.2826    2.0400 H   0  0  0  0  0  0  0  0  0  0  0  0
    2.8156   -0.3916   -0.2371 H   0  0  0  0  0  0  0  0  0  0  0  0
    2.7567    1.9176    2.7350 H   0  0  0  0  0  0  0  0  0  0  0  0
    1.6487    5.2434    0.2729 H   0  0  0  0  0  0  0  0  0  0  0  0
    2.2557    1.3951   -1.5250 H   0  0  0  0  0  0  0  0  0  0  0  0
  1  2  2  0
  2  3  1  0
  3  4  1  0
  4  5  1  0
  5  6  2  0
  6  7  1  0
  7  8  2  0
  8  9  1  0
  9 10  1  0
 10 11  2  0
 11 12  1  0
 12 13  2  0
 13 14  1  0
  8 15  1  0
 15 16  1  0
 16 17  1  0
 17 18  2  0
 18 19  1  0
 19 20  2  0
 20 21  1  0
  2 22  1  0
 22 23  1  0
 23 24  2  0
 24 25  1  0
 25 26  1  0
 25 27  2  0
 27 28  1  0
 28 29  1  0
 28 30  2  0
 15  5  1  0
 21 17  1  0
 30 23  1  0
 14 10  1  0
  3 31  1  0
  3 32  1  0
  9 33  1  0
  9 34  1  0
 11 35  1  0
 12 36  1  0
 13 37  1  0
 16 38  1  0
 16 39  1  0
 18 40  1  0
 19 41  1  0
 20 42  1  0
 22 43  1  0
 24 44  1  0
 27 45  1  0
 30 46  1  0
M  END
$$$$
