
     RDKit          3D

 60 63  0  0  0  0  0  0  0  0999 V2000
    9.0849   -1.6234    0.4237 C   0  0  0  0  0  0  0  0  0  0  0  0
    8.0553   -0.8681    1.2469 C   0  0  0  0  0  0  0  0  0  0  0  0
    6.8375   -1.6056    1.3396 O   0  0  0  0  0  0  0  0  0  0  0  0
    5.8932   -1.4477    0.3652 C   0  0  0  0  0  0  0  0  0  0  0  0
    4.7126   -2.1621    0.5849 C   0  0  0  0  0  0  0  0  0  0  0  0
    3.6570   -2.1009   -0.3282 C   0  0  0  0  0  0  0  0  0  0  0  0
    3.7716   -1.3249   -1.4866 C   0  0  0  0  0  0  0  0  0  0  0  0
    2.6303   -1.2234   -2.4646 C   0  0  0  0  0  0  0  0  0  0  0  0
    1.8072   -0.0782   -2.1645 N   0  0  0  0  0  0  0  0  0  0  0  0
    1.9368    1.1218   -2.8284 C   0  0  0  0  0  0  0  0  0  0  0  0
    2.7023    1.2850   -3.7768 O   0  0  0  0  0  0  0  0  0  0  0  0
    1.1409    2.2812   -2.2246 C   0  0  0  0  0  0  0  0  0  0  0  0
    0.0814    1.8301   -1.3224 N   0  0  0  0  0  0  0  0  0  0  0  0
    0.4623    1.5781    0.0039 N   0  0  0  0  0  0  0  0  0  0  0  0
   -0.4067    1.1733    0.8890 C   0  0  0  0  0  0  0  0  0  0  0  0
    0.0631    0.9471    2.2979 C   0  0  0  0  0  0  0  0  0  0  0  0
   -1.7716    0.9438    0.4847 C   0  0  0  0  0  0  0  0  0  0  0  0
   -2.9002    0.4619    1.1273 C   0  0  0  0  0  0  0  0  0  0  0  0
   -3.0484   -0.1256    2.4840 C   0  0  0  0  0  0  0  0  0  0  0  0
   -3.9369    0.5761    0.1915 N   0  0  0  0  0  0  0  0  0  0  0  0
   -5.3512    0.4421    0.3467 C   0  0  0  0  0  0  0  0  0  0  0  0
   -6.1438    0.2626   -0.7994 C   0  0  0  0  0  0  0  0  0  0  0  0
   -7.5321    0.1372   -0.6962 C   0  0  0  0  0  0  0  0  0  0  0  0
   -8.1591    0.2162    0.5500 C   0  0  0  0  0  0  0  0  0  0  0  0
   -9.6453    0.0565    0.6661 C   0  0  0  0  0  0  0  0  0  0  0  0
   -7.3734    0.4041    1.6913 C   0  0  0  0  0  0  0  0  0  0  0  0
   -5.9819    0.5276    1.5923 C   0  0  0  0  0  0  0  0  0  0  0  0
   -3.4430    0.8705   -1.0418 N   0  0  0  0  0  0  0  0  0  0  0  0
   -2.1578    1.1655   -0.8418 C   0  0  0  0  0  0  0  0  0  0  0  0
   -1.2104    1.6267   -1.8484 C   0  0  0  0  0  0  0  0  0  0  0  0
   -1.5018    1.8150   -3.0264 O   0  0  0  0  0  0  0  0  0  0  0  0
    4.9537   -0.6043   -1.7010 C   0  0  0  0  0  0  0  0  0  0  0  0
    6.0093   -0.6689   -0.7844 C   0  0  0  0  0  0  0  0  0  0  0  0
    9.2397   -2.6277    0.8323 H   0  0  0  0  0  0  0  0  0  0  0  0
   10.0419   -1.0934    0.4213 H   0  0  0  0  0  0  0  0  0  0  0  0
    8.7555   -1.7506   -0.6119 H   0  0  0  0  0  0  0  0  0  0  0  0
    7.9010    0.1560    0.8896 H   0  0  0  0  0  0  0  0  0  0  0  0
    8.4360   -0.7723    2.2704 H   0  0  0  0  0  0  0  0  0  0  0  0
    4.6153   -2.7732    1.4788 H   0  0  0  0  0  0  0  0  0  0  0  0
    2.7496   -2.6651   -0.1277 H   0  0  0  0  0  0  0  0  0  0  0  0
    1.9917   -2.1108   -2.3959 H   0  0  0  0  0  0  0  0  0  0  0  0
    3.0079   -1.1732   -3.4918 H   0  0  0  0  0  0  0  0  0  0  0  0
    1.3688   -0.0286   -1.2502 H   0  0  0  0  0  0  0  0  0  0  0  0
    1.8305    2.9197   -1.6624 H   0  0  0  0  0  0  0  0  0  0  0  0
    0.7083    2.8630   -3.0446 H   0  0  0  0  0  0  0  0  0  0  0  0
    0.1217   -0.1268    2.4942 H   0  0  0  0  0  0  0  0  0  0  0  0
    1.0580    1.3799    2.4399 H   0  0  0  0  0  0  0  0  0  0  0  0
   -0.6240    1.4163    3.0069 H   0  0  0  0  0  0  0  0  0  0  0  0
   -3.8243   -0.8963    2.5149 H   0  0  0  0  0  0  0  0  0  0  0  0
   -3.2723    0.6510    3.2210 H   0  0  0  0  0  0  0  0  0  0  0  0
   -2.1279   -0.6273    2.7948 H   0  0  0  0  0  0  0  0  0  0  0  0
   -5.6917    0.2048   -1.7892 H   0  0  0  0  0  0  0  0  0  0  0  0
   -8.1173   -0.0180   -1.6003 H   0  0  0  0  0  0  0  0  0  0  0  0
   -9.8977   -0.9968    0.8200 H   0  0  0  0  0  0  0  0  0  0  0  0
  -10.1496    0.4129   -0.2388 H   0  0  0  0  0  0  0  0  0  0  0  0
  -10.0349    0.6411    1.5055 H   0  0  0  0  0  0  0  0  0  0  0  0
   -7.8434    0.4720    2.6707 H   0  0  0  0  0  0  0  0  0  0  0  0
   -5.4396    0.7356    2.5061 H   0  0  0  0  0  0  0  0  0  0  0  0
    5.0562    0.0181   -2.5893 H   0  0  0  0  0  0  0  0  0  0  0  0
    6.9046   -0.0998   -1.0079 H   0  0  0  0  0  0  0  0  0  0  0  0
  1  2  1  0
  2  3  1  0
  3  4  1  0
  4  5  2  0
  5  6  1  0
  6  7  2  0
  7  8  1  0
  8  9  1  0
  9 10  1  0
 10 11  2  0
 10 12  1  0
 12 13  1  0
 13 14  1  0
 14 15  2  0
 15 16  1  0
 15 17  1  0
 17 18  2  0
 18 19  1  0
 18 20  1  0
 20 21  1  0
 21 22  2  0
 22 23  1  0
 23 24  2  0
 24 25  1  0
 24 26  1  0
 26 27  2  0
 20 28  1  0
 28 29  2  0
 29 30  1  0
 30 31  2  0
  7 32  1  0
 32 33  2  0
 33  4  1  0
 30 13  1  0
 29 17  1  0
 27 21  1  0
  1 34  1  0
  1 35  1  0
  1 36  1  0
  2 37  1  0
  2 38  1  0
  5 39  1  0
  6 40  1  0
  8 41  1  0
  8 42  1  0
  9 43  1  0
 12 44  1  0
 12 45  1  0
 16 46  1  0
 16 47  1  0
 16 48  1  0
 19 49  1  0
 19 50  1  0
 19 51  1  0
 22 52  1  0
 23 53  1  0
 25 54  1  0
 25 55  1  0
 25 56  1  0
 26 57  1  0
 27 58  1  0
 32 59  1  0
 33 60  1  0
M  END
$$$$
