
     RDKit          3D

 37 39  0  0  0  0  0  0  0  0999 V2000
    4.5336    0.2571    1.9795 C   0  0  0  0  0  0  0  0  0  0  0  0
    3.9784   -1.0517    1.9329 O   0  0  0  0  0  0  0  0  0  0  0  0
    2.6126   -1.1422    1.9065 C   0  0  0  0  0  0  0  0  0  0  0  0
    2.1121   -2.4243    2.1384 C   0  0  0  0  0  0  0  0  0  0  0  0
    0.7384   -2.6873    2.1469 C   0  0  0  0  0  0  0  0  0  0  0  0
   -0.1220   -1.6152    1.8949 C   0  0  0  0  0  0  0  0  0  0  0  0
   -1.4984   -1.5736    1.8569 N   0  0  0  0  0  0  0  0  0  0  0  0
   -1.9255   -0.3104    1.5381 C   0  0  0  0  0  0  0  0  0  0  0  0
   -0.8095    0.4838    1.4037 C   0  0  0  0  0  0  0  0  0  0  0  0
   -0.8404    1.8736    1.0945 C   0  0  0  0  0  0  0  0  0  0  0  0
   -1.0476    2.4166   -0.1179 C   0  0  0  0  0  0  0  0  0  0  0  0
   -1.2492    1.6642   -1.3598 C   0  0  0  0  0  0  0  0  0  0  0  0
   -2.4147    1.8479   -2.0978 C   0  0  0  0  0  0  0  0  0  0  0  0
   -2.6051    1.1225   -3.2684 C   0  0  0  0  0  0  0  0  0  0  0  0
   -1.6652    0.2526   -3.7019 N   0  0  0  0  0  4  0  0  0  0  0  0
   -1.8957   -0.5195   -4.9340 C   0  0  0  0  0  0  0  0  0  0  0  0
   -0.5239    0.0644   -3.0028 C   0  0  0  0  0  0  0  0  0  0  0  0
   -0.2891    0.7707   -1.8312 C   0  0  0  0  0  0  0  0  0  0  0  0
    0.3403   -0.3227    1.6429 C   0  0  0  0  0  0  0  0  0  0  0  0
    1.7334   -0.0831    1.6542 C   0  0  0  0  0  0  0  0  0  0  0  0
    4.1351    0.8301    2.8236 H   0  0  0  0  0  0  0  0  0  0  0  0
    5.6136    0.1572    2.1241 H   0  0  0  0  0  0  0  0  0  0  0  0
    4.3715    0.7833    1.0333 H   0  0  0  0  0  0  0  0  0  0  0  0
    2.8081   -3.2384    2.3346 H   0  0  0  0  0  0  0  0  0  0  0  0
    0.3668   -3.6865    2.3505 H   0  0  0  0  0  0  0  0  0  0  0  0
   -2.0993   -2.3642    2.0488 H   0  0  0  0  0  0  0  0  0  0  0  0
   -2.9816   -0.0883    1.4622 H   0  0  0  0  0  0  0  0  0  0  0  0
   -0.6805    2.5477    1.9352 H   0  0  0  0  0  0  0  0  0  0  0  0
   -1.0756    3.5010   -0.2085 H   0  0  0  0  0  0  0  0  0  0  0  0
   -3.1840    2.5388   -1.7585 H   0  0  0  0  0  0  0  0  0  0  0  0
   -3.5085    1.2277   -3.8624 H   0  0  0  0  0  0  0  0  0  0  0  0
   -0.9374   -0.6937   -5.4302 H   0  0  0  0  0  0  0  0  0  0  0  0
   -2.3634   -1.4641   -4.6455 H   0  0  0  0  0  0  0  0  0  0  0  0
   -2.5487    0.0505   -5.5997 H   0  0  0  0  0  0  0  0  0  0  0  0
    0.1944   -0.6543   -3.3872 H   0  0  0  0  0  0  0  0  0  0  0  0
    0.6378    0.6083   -1.2846 H   0  0  0  0  0  0  0  0  0  0  0  0
    2.0891    0.9217    1.4616 H   0  0  0  0  0  0  0  0  0  0  0  0
  1  2  1  0
  2  3  1  0
  3  4  2  0
  4  5  1  0
  5  6  2  0
  6  7  1  0
  7  8  1  0
  8  9  2  0
  9 10  1  0
 10 11  2  3
 11 12  1  0
 12 13  2  0
 13 14  1  0
 14 15  2  0
 15 16  1  0
 15 17  1  0
 17 18  2  0
  9 19  1  0
 19 20  2  0
 20  3  1  0
 19  6  1  0
 18 12  1  0
  1 21  1  0
  1 22  1  0
  1 23  1  0
  4 24  1  0
  5 25  1  0
  7 26  1  0
  8 27  1  0
 10 28  1  0
 11 29  1  0
 13 30  1  0
 14 31  1  0
 16 32  1  0
 16 33  1  0
 16 34  1  0
 17 35  1  0
 18 36  1  0
 20 37  1  0
M  CHG  1  15   1
M  END
$$$$
