
     RDKit          3D

 57 60  0  0  0  0  0  0  0  0999 V2000
    1.9638    2.2176   -1.4958 C   0  0  0  0  0  0  0  0  0  0  0  0
    2.0765    1.3992   -0.2513 C   0  0  0  0  0  0  0  0  0  0  0  0
    1.2578    1.4654    0.8590 C   0  0  0  0  0  0  0  0  0  0  0  0
    1.7893    0.6091    1.8415 C   0  0  0  0  0  0  0  0  0  0  0  0
    1.2763    0.3562    3.1494 C   0  0  0  0  0  0  0  0  0  0  0  0
   -0.0054    0.1351    3.4915 C   0  0  0  0  0  0  0  0  0  0  0  0
   -1.1510    0.1220    2.5711 C   0  0  0  0  0  0  0  0  0  0  0  0
   -2.1125    1.1189    2.7410 C   0  0  0  0  0  0  0  0  0  0  0  0
   -3.1695    1.2195    1.8546 C   0  0  0  0  0  0  0  0  0  0  0  0
   -3.2514    0.3382    0.7811 C   0  0  0  0  0  0  0  0  0  0  0  0
   -4.3023    0.4550   -0.1519 C   0  0  0  0  0  0  0  0  0  0  0  0
   -4.4320   -0.3873   -1.2684 C   0  0  0  0  0  0  0  0  0  0  0  0
   -5.4911   -0.2728   -2.1644 N   0  0  0  0  0  0  0  0  0  0  0  0
   -6.3228    0.9328   -2.1691 C   0  0  0  0  0  0  0  0  0  0  0  0
   -5.4914   -1.0411   -3.4110 C   0  0  0  0  0  0  0  0  0  0  0  0
   -3.4463   -1.3736   -1.3997 C   0  0  0  0  0  0  0  0  0  0  0  0
   -2.3914   -1.5141   -0.4828 C   0  0  0  0  0  0  0  0  0  0  0  0
   -2.2744   -0.6721    0.6314 C   0  0  0  0  0  0  0  0  0  0  0  0
   -1.2697   -0.7871    1.5603 N   0  0  0  0  0  4  0  0  0  0  0  0
   -0.3308   -1.9306    1.4715 C   0  0  0  0  0  0  0  0  0  0  0  0
    2.9334    0.0262    1.3231 C   0  0  0  0  0  0  0  0  0  0  0  0
    3.8103   -1.0165    1.9447 C   0  0  0  0  0  0  0  0  0  0  0  0
    3.1273    0.5274    0.0304 N   0  0  0  0  0  0  0  0  0  0  0  0
    4.2035    0.2013   -0.8456 C   0  0  0  0  0  0  0  0  0  0  0  0
    3.9531   -0.0923   -2.1919 C   0  0  0  0  0  0  0  0  0  0  0  0
    5.0113   -0.4130   -3.0452 C   0  0  0  0  0  0  0  0  0  0  0  0
    6.3181   -0.4374   -2.5614 C   0  0  0  0  0  0  0  0  0  0  0  0
    6.5718   -0.1409   -1.2235 C   0  0  0  0  0  0  0  0  0  0  0  0
    5.5185    0.1779   -0.3640 C   0  0  0  0  0  0  0  0  0  0  0  0
    1.4960    1.6396   -2.2980 H   0  0  0  0  0  0  0  0  0  0  0  0
    2.9380    2.5857   -1.8311 H   0  0  0  0  0  0  0  0  0  0  0  0
    1.3344    3.0966   -1.3172 H   0  0  0  0  0  0  0  0  0  0  0  0
    0.3950    2.1149    0.9428 H   0  0  0  0  0  0  0  0  0  0  0  0
    2.0165    0.3241    3.9508 H   0  0  0  0  0  0  0  0  0  0  0  0
   -0.2515   -0.0119    4.5419 H   0  0  0  0  0  0  0  0  0  0  0  0
   -2.0281    1.8401    3.5528 H   0  0  0  0  0  0  0  0  0  0  0  0
   -3.9098    2.0069    1.9941 H   0  0  0  0  0  0  0  0  0  0  0  0
   -5.0419    1.2359    0.0149 H   0  0  0  0  0  0  0  0  0  0  0  0
   -6.8516    1.0491   -1.2171 H   0  0  0  0  0  0  0  0  0  0  0  0
   -5.7169    1.8243   -2.3647 H   0  0  0  0  0  0  0  0  0  0  0  0
   -7.0978    0.8859   -2.9421 H   0  0  0  0  0  0  0  0  0  0  0  0
   -6.4097   -0.8749   -3.9853 H   0  0  0  0  0  0  0  0  0  0  0  0
   -4.6465   -0.7537   -4.0462 H   0  0  0  0  0  0  0  0  0  0  0  0
   -5.4522   -2.1174   -3.2113 H   0  0  0  0  0  0  0  0  0  0  0  0
   -3.4701   -2.0726   -2.2331 H   0  0  0  0  0  0  0  0  0  0  0  0
   -1.6741   -2.3017   -0.6939 H   0  0  0  0  0  0  0  0  0  0  0  0
   -0.9134   -2.8440    1.3189 H   0  0  0  0  0  0  0  0  0  0  0  0
    0.2241   -2.0745    2.3985 H   0  0  0  0  0  0  0  0  0  0  0  0
    0.3474   -1.7503    0.6342 H   0  0  0  0  0  0  0  0  0  0  0  0
    3.2567   -1.5963    2.6911 H   0  0  0  0  0  0  0  0  0  0  0  0
    4.6602   -0.5512    2.4525 H   0  0  0  0  0  0  0  0  0  0  0  0
    4.1763   -1.7362    1.2064 H   0  0  0  0  0  0  0  0  0  0  0  0
    2.9440   -0.1150   -2.5914 H   0  0  0  0  0  0  0  0  0  0  0  0
    4.8180   -0.6476   -4.0894 H   0  0  0  0  0  0  0  0  0  0  0  0
    7.1411   -0.6825   -3.2289 H   0  0  0  0  0  0  0  0  0  0  0  0
    7.5944   -0.1458   -0.8527 H   0  0  0  0  0  0  0  0  0  0  0  0
    5.7526    0.4500    0.6615 H   0  0  0  0  0  0  0  0  0  0  0  0
  1  2  1  0
  2  3  2  0
  3  4  1  0
  4  5  1  0
  5  6  2  3
  6  7  1  0
  7  8  2  0
  8  9  1  0
  9 10  2  0
 10 11  1  0
 11 12  2  0
 12 13  1  0
 13 14  1  0
 13 15  1  0
 12 16  1  0
 16 17  2  0
 17 18  1  0
 18 19  2  0
 19 20  1  0
  4 21  2  0
 21 22  1  0
 21 23  1  0
 23 24  1  0
 24 25  2  0
 25 26  1  0
 26 27  2  0
 27 28  1  0
 28 29  2  0
 23  2  1  0
 29 24  1  0
 19  7  1  0
 18 10  1  0
  1 30  1  0
  1 31  1  0
  1 32  1  0
  3 33  1  0
  5 34  1  0
  6 35  1  0
  8 36  1  0
  9 37  1  0
 11 38  1  0
 14 39  1  0
 14 40  1  0
 14 41  1  0
 15 42  1  0
 15 43  1  0
 15 44  1  0
 16 45  1  0
 17 46  1  0
 20 47  1  0
 20 48  1  0
 20 49  1  0
 22 50  1  0
 22 51  1  0
 22 52  1  0
 25 53  1  0
 26 54  1  0
 27 55  1  0
 28 56  1  0
 29 57  1  0
M  CHG  1  19   1
M  END
$$$$
