
     RDKit          3D

 60 63  0  0  0  0  0  0  0  0999 V2000
   -4.1891    4.2278    3.4463 C   0  0  0  0  0  0  0  0  0  0  0  0
   -3.3037    3.1214    3.5786 O   0  0  0  0  0  0  0  0  0  0  0  0
   -2.9118    2.5061    2.4256 C   0  0  0  0  0  0  0  0  0  0  0  0
   -3.3454    2.8239    1.1374 C   0  0  0  0  0  0  0  0  0  0  0  0
   -2.8663    2.1040    0.0356 C   0  0  0  0  0  0  0  0  0  0  0  0
   -1.9415    1.0650    0.2175 C   0  0  0  0  0  0  0  0  0  0  0  0
   -1.4572    0.3470   -0.9108 N   0  0  0  0  0  0  0  0  0  0  0  0
   -2.1977   -0.1514   -1.9807 C   0  0  0  0  0  0  0  0  0  0  0  0
   -3.6905   -0.2599   -2.0432 C   0  0  0  0  0  0  0  0  0  0  0  0
   -4.3036   -0.9929   -0.8815 C   0  0  0  0  0  0  0  0  0  0  0  0
   -3.8292   -2.0884   -0.1717 C   0  0  0  0  0  0  0  0  0  0  0  0
   -4.7665   -2.3909    0.8409 C   0  0  0  0  0  0  0  0  0  0  0  0
   -5.8045   -1.4994    0.7165 C   0  0  0  0  0  0  0  0  0  0  0  0
   -5.5231   -0.6570   -0.3287 N   0  0  0  0  0  0  0  0  0  0  0  0
   -6.4136    0.3865   -0.7892 C   0  0  0  0  0  0  0  0  0  0  0  0
   -1.3779   -0.6146   -2.9068 N   0  0  0  0  0  0  0  0  0  0  0  0
   -0.0984   -0.5070   -2.4400 N   0  0  0  0  0  0  0  0  0  0  0  0
   -0.1494    0.0278   -1.2425 C   0  0  0  0  0  0  0  0  0  0  0  0
    1.2572    0.4302   -0.3126 S   0  0  0  0  0  0  0  0  0  0  0  0
    2.3546    0.9958   -1.6570 C   0  0  0  0  0  0  0  0  0  0  0  0
    3.7113    1.3555   -1.0795 C   0  0  0  0  0  0  0  0  0  0  0  0
    3.8770    2.2988   -0.3113 O   0  0  0  0  0  0  0  0  0  0  0  0
    4.7451    0.5336   -1.4924 N   0  0  0  0  0  0  0  0  0  0  0  0
    6.0679    0.6455   -0.9071 C   0  0  0  0  0  0  0  0  0  0  0  0
    6.1852   -0.1038    0.4284 C   0  0  0  0  0  0  0  0  0  0  0  0
    6.0203   -1.5992    0.2553 C   0  0  0  0  0  0  0  0  0  0  0  0
    7.0595   -2.3694   -0.2905 C   0  0  0  0  0  0  0  0  0  0  0  0
    6.8922   -3.7392   -0.4985 C   0  0  0  0  0  0  0  0  0  0  0  0
    5.6871   -4.3533   -0.1587 C   0  0  0  0  0  0  0  0  0  0  0  0
    4.6509   -3.6001    0.3923 C   0  0  0  0  0  0  0  0  0  0  0  0
    4.8148   -2.2285    0.6000 C   0  0  0  0  0  0  0  0  0  0  0  0
   -1.4980    0.7486    1.5056 C   0  0  0  0  0  0  0  0  0  0  0  0
   -1.9864    1.4676    2.5998 C   0  0  0  0  0  0  0  0  0  0  0  0
   -5.1342    3.9289    2.9764 H   0  0  0  0  0  0  0  0  0  0  0  0
   -4.4222    4.5867    4.4508 H   0  0  0  0  0  0  0  0  0  0  0  0
   -3.7135    5.0462    2.8979 H   0  0  0  0  0  0  0  0  0  0  0  0
   -4.0467    3.6314    0.9535 H   0  0  0  0  0  0  0  0  0  0  0  0
   -3.1900    2.4078   -0.9566 H   0  0  0  0  0  0  0  0  0  0  0  0
   -3.9593   -0.8095   -2.9552 H   0  0  0  0  0  0  0  0  0  0  0  0
   -4.1184    0.7406   -2.1629 H   0  0  0  0  0  0  0  0  0  0  0  0
   -2.9005   -2.6131   -0.3651 H   0  0  0  0  0  0  0  0  0  0  0  0
   -4.6989   -3.1859    1.5722 H   0  0  0  0  0  0  0  0  0  0  0  0
   -6.7197   -1.4024    1.2858 H   0  0  0  0  0  0  0  0  0  0  0  0
   -5.9262    1.3495   -0.6256 H   0  0  0  0  0  0  0  0  0  0  0  0
   -6.6163    0.2235   -1.8493 H   0  0  0  0  0  0  0  0  0  0  0  0
   -7.3504    0.3463   -0.2266 H   0  0  0  0  0  0  0  0  0  0  0  0
    2.4626    0.2107   -2.4181 H   0  0  0  0  0  0  0  0  0  0  0  0
    1.9410    1.8942   -2.1386 H   0  0  0  0  0  0  0  0  0  0  0  0
    4.5110   -0.3575   -1.9155 H   0  0  0  0  0  0  0  0  0  0  0  0
    6.2986    1.7077   -0.7562 H   0  0  0  0  0  0  0  0  0  0  0  0
    6.7763    0.2491   -1.6473 H   0  0  0  0  0  0  0  0  0  0  0  0
    5.4462    0.2727    1.1457 H   0  0  0  0  0  0  0  0  0  0  0  0
    7.1684    0.0928    0.8709 H   0  0  0  0  0  0  0  0  0  0  0  0
    8.0051   -1.9053   -0.5624 H   0  0  0  0  0  0  0  0  0  0  0  0
    7.7018   -4.3263   -0.9261 H   0  0  0  0  0  0  0  0  0  0  0  0
    5.5584   -5.4188   -0.3217 H   0  0  0  0  0  0  0  0  0  0  0  0
    3.7144   -4.0810    0.6624 H   0  0  0  0  0  0  0  0  0  0  0  0
    3.9941   -1.6549    1.0296 H   0  0  0  0  0  0  0  0  0  0  0  0
   -0.8062   -0.0738    1.6934 H   0  0  0  0  0  0  0  0  0  0  0  0
   -1.6447    1.2103    3.6015 H   0  0  0  0  0  0  0  0  0  0  0  0
  1  2  1  0
  2  3  1  0
  3  4  2  0
  4  5  1  0
  5  6  2  0
  6  7  1  0
  7  8  1  0
  8  9  1  0
  9 10  1  0
 10 11  2  0
 11 12  1  0
 12 13  2  0
 13 14  1  0
 14 15  1  0
  8 16  2  0
 16 17  1  0
 17 18  2  0
 18 19  1  0
 19 20  1  0
 20 21  1  0
 21 22  2  0
 21 23  1  0
 23 24  1  0
 24 25  1  0
 25 26  1  0
 26 27  2  0
 27 28  1  0
 28 29  2  0
 29 30  1  0
 30 31  2  0
  6 32  1  0
 32 33  2  0
 33  3  1  0
 18  7  1  0
 31 26  1  0
 14 10  1  0
  1 34  1  0
  1 35  1  0
  1 36  1  0
  4 37  1  0
  5 38  1  0
  9 39  1  0
  9 40  1  0
 11 41  1  0
 12 42  1  0
 13 43  1  0
 15 44  1  0
 15 45  1  0
 15 46  1  0
 20 47  1  0
 20 48  1  0
 23 49  1  0
 24 50  1  0
 24 51  1  0
 25 52  1  0
 25 53  1  0
 27 54  1  0
 28 55  1  0
 29 56  1  0
 30 57  1  0
 31 58  1  0
 32 59  1  0
 33 60  1  0
M  END
$$$$
