
     RDKit          3D

 52 53  0  0  0  0  0  0  0  0999 V2000
    7.3757   -1.1716   -2.4361 C   0  0  0  0  0  0  0  0  0  0  0  0
    7.1296   -1.1108   -0.9358 C   0  0  0  0  0  0  0  0  0  0  0  0
    5.6718   -1.3591   -0.5367 C   0  0  0  0  0  0  0  0  0  0  0  0
    4.7953   -0.2848   -1.0141 N   0  0  0  0  0  0  0  0  0  0  0  0
    3.3855   -0.4967   -0.6159 C   0  0  0  0  0  0  0  0  0  0  0  0
    3.1495   -0.1104    0.8583 C   0  0  0  0  0  0  0  0  0  0  0  0
    3.6742    1.2113    1.0704 O   0  0  0  0  0  0  0  0  0  0  0  0
    1.6710   -0.1702    1.2639 C   0  0  0  0  0  0  0  0  0  0  0  0
    0.8499    0.5413    0.3201 O   0  0  0  0  0  0  0  0  0  0  0  0
    0.0662    1.4685    0.9505 C   0  0  0  0  0  0  0  0  0  0  0  0
    0.5945    2.7411    1.1748 C   0  0  0  0  0  0  0  0  0  0  0  0
   -0.1989    3.7336    1.7530 C   0  0  0  0  0  0  0  0  0  0  0  0
   -1.5231    3.4598    2.0980 C   0  0  0  0  0  0  0  0  0  0  0  0
   -2.0597    2.1926    1.8608 C   0  0  0  0  0  0  0  0  0  0  0  0
   -1.2646    1.1978    1.2774 C   0  0  0  0  0  0  0  0  0  0  0  0
   -1.8465   -0.1389    1.0336 C   0  0  0  0  0  0  0  0  0  0  0  0
   -1.3451   -1.1301    1.5579 O   0  0  0  0  0  0  0  0  0  0  0  0
   -3.0694   -0.2141    0.1453 C   0  0  0  0  0  0  0  0  0  0  0  0
   -4.2132   -0.9010    0.8855 C   0  0  0  0  0  0  0  0  0  0  0  0
   -5.4822   -0.8929    0.0705 C   0  0  0  0  0  0  0  0  0  0  0  0
   -5.7186   -1.8927   -0.8820 C   0  0  0  0  0  0  0  0  0  0  0  0
   -6.8805   -1.8724   -1.6545 C   0  0  0  0  0  0  0  0  0  0  0  0
   -7.8151   -0.8530   -1.4833 C   0  0  0  0  0  0  0  0  0  0  0  0
   -7.5879    0.1479   -0.5415 C   0  0  0  0  0  0  0  0  0  0  0  0
   -6.4258    0.1304    0.2315 C   0  0  0  0  0  0  0  0  0  0  0  0
    8.4453   -1.0706   -2.6437 H   0  0  0  0  0  0  0  0  0  0  0  0
    7.0394   -2.1269   -2.8503 H   0  0  0  0  0  0  0  0  0  0  0  0
    6.8596   -0.3642   -2.9638 H   0  0  0  0  0  0  0  0  0  0  0  0
    7.7540   -1.8705   -0.4510 H   0  0  0  0  0  0  0  0  0  0  0  0
    7.4627   -0.1395   -0.5514 H   0  0  0  0  0  0  0  0  0  0  0  0
    5.3436   -2.3255   -0.9368 H   0  0  0  0  0  0  0  0  0  0  0  0
    5.6336   -1.4209    0.5559 H   0  0  0  0  0  0  0  0  0  0  0  0
    4.8323   -0.2661   -2.0343 H   0  0  0  0  0  0  0  0  0  0  0  0
    3.0601   -1.5233   -0.8190 H   0  0  0  0  0  0  0  0  0  0  0  0
    2.7921    0.1653   -1.2571 H   0  0  0  0  0  0  0  0  0  0  0  0
    3.7098   -0.7773    1.5227 H   0  0  0  0  0  0  0  0  0  0  0  0
    4.4680    1.2440    0.4957 H   0  0  0  0  0  0  0  0  0  0  0  0
    1.5550    0.2109    2.2877 H   0  0  0  0  0  0  0  0  0  0  0  0
    1.3400   -1.2144    1.2528 H   0  0  0  0  0  0  0  0  0  0  0  0
    1.6250    2.9578    0.9014 H   0  0  0  0  0  0  0  0  0  0  0  0
    0.2198    4.7208    1.9336 H   0  0  0  0  0  0  0  0  0  0  0  0
   -2.1356    4.2355    2.5516 H   0  0  0  0  0  0  0  0  0  0  0  0
   -3.0886    1.9882    2.1437 H   0  0  0  0  0  0  0  0  0  0  0  0
   -2.7923   -0.7697   -0.7596 H   0  0  0  0  0  0  0  0  0  0  0  0
   -3.3669    0.7884   -0.1824 H   0  0  0  0  0  0  0  0  0  0  0  0
   -3.9441   -1.9363    1.1322 H   0  0  0  0  0  0  0  0  0  0  0  0
   -4.3929   -0.4095    1.8504 H   0  0  0  0  0  0  0  0  0  0  0  0
   -4.9971   -2.6936   -1.0275 H   0  0  0  0  0  0  0  0  0  0  0  0
   -7.0560   -2.6524   -2.3901 H   0  0  0  0  0  0  0  0  0  0  0  0
   -8.7195   -0.8384   -2.0850 H   0  0  0  0  0  0  0  0  0  0  0  0
   -8.3166    0.9429   -0.4088 H   0  0  0  0  0  0  0  0  0  0  0  0
   -6.2633    0.9198    0.9617 H   0  0  0  0  0  0  0  0  0  0  0  0
  1  2  1  0
  2  3  1  0
  3  4  1  0
  4  5  1  0
  5  6  1  0
  6  7  1  0
  6  8  1  0
  8  9  1  0
  9 10  1  0
 10 11  2  0
 11 12  1  0
 12 13  2  0
 13 14  1  0
 14 15  2  0
 15 16  1  0
 16 17  2  0
 16 18  1  0
 18 19  1  0
 19 20  1  0
 20 21  2  0
 21 22  1  0
 22 23  2  0
 23 24  1  0
 24 25  2  0
 15 10  1  0
 25 20  1  0
  1 26  1  0
  1 27  1  0
  1 28  1  0
  2 29  1  0
  2 30  1  0
  3 31  1  0
  3 32  1  0
  4 33  1  0
  5 34  1  0
  5 35  1  0
  6 36  1  0
  7 37  1  0
  8 38  1  0
  8 39  1  0
 11 40  1  0
 12 41  1  0
 13 42  1  0
 14 43  1  0
 18 44  1  0
 18 45  1  0
 19 46  1  0
 19 47  1  0
 21 48  1  0
 22 49  1  0
 23 50  1  0
 24 51  1  0
 25 52  1  0
M  END
$$$$
