
     RDKit          3D

 72 74  0  0  0  0  0  0  0  0999 V2000
   -3.7316   -5.0937   -1.3224 C   0  0  0  0  0  0  0  0  0  0  0  0
   -3.0986   -4.6042   -0.1478 O   0  0  0  0  0  0  0  0  0  0  0  0
   -2.8568   -3.2597   -0.0923 C   0  0  0  0  0  0  0  0  0  0  0  0
   -3.1907   -2.3229   -1.0666 C   0  0  0  0  0  0  0  0  0  0  0  0
   -2.8782   -0.9699   -0.8797 C   0  0  0  0  0  0  0  0  0  0  0  0
   -2.2241   -0.5203    0.2816 C   0  0  0  0  0  0  0  0  0  0  0  0
   -1.9002    0.9633    0.4353 C   0  0  0  0  0  0  0  0  0  0  0  0
   -1.4132    1.4232    1.8460 C   0  0  0  0  0  0  0  0  0  0  0  0
   -2.0426    1.1688    2.8709 O   0  0  0  0  0  0  0  0  0  0  0  0
   -0.2252    2.1330    1.8531 N   0  0  0  0  0  0  0  0  0  0  0  0
    0.4167    2.7086    3.0433 C   0  0  0  0  0  0  0  0  0  0  0  0
   -0.4529    3.8250    3.6384 C   0  0  0  0  0  0  0  0  0  0  0  0
    0.6998    1.6323    4.1035 C   0  0  0  0  0  0  0  0  0  0  0  0
    1.7642    3.3119    2.6044 C   0  0  0  0  0  0  0  0  0  0  0  0
   -1.0756    1.5393   -0.6682 N   0  0  0  0  0  0  0  0  0  0  0  0
   -1.5808    2.7871   -1.2732 C   0  0  0  0  0  0  0  0  0  0  0  0
   -2.7486    2.5756   -2.2597 C   0  0  0  0  0  0  0  0  0  0  0  0
   -3.1339    3.8612   -2.9783 C   0  0  0  0  0  0  0  0  0  0  0  0
   -2.2558    3.8294   -4.2052 C   0  0  0  0  0  0  0  0  0  0  0  0
   -2.2143    2.3529   -4.5288 C   0  0  0  0  0  0  0  0  0  0  0  0
   -2.3693    1.6456   -3.2911 O   0  0  0  0  0  0  0  0  0  0  0  0
    0.1555    1.0602   -1.1138 C   0  0  0  0  0  0  0  0  0  0  0  0
    0.8160    1.6745   -1.9554 O   0  0  0  0  0  0  0  0  0  0  0  0
    0.7112   -0.2166   -0.5102 C   0  0  0  0  0  0  0  0  0  0  0  0
    2.1802   -0.4125   -0.8818 C   0  0  0  0  0  0  0  0  0  0  0  0
    2.7818   -1.6193   -0.1897 C   0  0  0  0  0  0  0  0  0  0  0  0
    2.1358   -2.3354    0.5685 O   0  0  0  0  0  0  0  0  0  0  0  0
    4.1098   -1.7821   -0.5133 N   0  0  0  0  0  0  0  0  0  0  0  0
    4.9219   -2.7918   -0.0463 C   0  0  0  0  0  0  0  0  0  0  0  0
    4.6064   -3.8824    0.7936 C   0  0  0  0  0  0  0  0  0  0  0  0
    5.7895   -4.5642    0.9332 C   0  0  0  0  0  0  0  0  0  0  0  0
    6.1975   -5.7772    1.6621 C   0  0  0  0  0  0  0  0  0  0  0  0
    6.7561   -3.9274    0.2204 O   0  0  0  0  0  0  0  0  0  0  0  0
    6.2119   -2.8182   -0.4013 N   0  0  0  0  0  0  0  0  0  0  0  0
   -1.9019   -1.4768    1.2557 C   0  0  0  0  0  0  0  0  0  0  0  0
   -2.2131   -2.8276    1.0664 C   0  0  0  0  0  0  0  0  0  0  0  0
   -3.8382   -6.1777   -1.2167 H   0  0  0  0  0  0  0  0  0  0  0  0
   -4.7349   -4.6695   -1.4360 H   0  0  0  0  0  0  0  0  0  0  0  0
   -3.1180   -4.9067   -2.2103 H   0  0  0  0  0  0  0  0  0  0  0  0
   -3.6896   -2.6065   -1.9874 H   0  0  0  0  0  0  0  0  0  0  0  0
   -3.1427   -0.2685   -1.6679 H   0  0  0  0  0  0  0  0  0  0  0  0
   -2.8814    1.4560    0.3610 H   0  0  0  0  0  0  0  0  0  0  0  0
    0.0847    2.4736    0.9503 H   0  0  0  0  0  0  0  0  0  0  0  0
    0.0405    4.3014    4.4929 H   0  0  0  0  0  0  0  0  0  0  0  0
   -1.4202    3.4473    3.9851 H   0  0  0  0  0  0  0  0  0  0  0  0
   -0.6561    4.6018    2.8924 H   0  0  0  0  0  0  0  0  0  0  0  0
    1.2886    2.0413    4.9324 H   0  0  0  0  0  0  0  0  0  0  0  0
   -0.2192    1.2235    4.5348 H   0  0  0  0  0  0  0  0  0  0  0  0
    1.2605    0.7953    3.6730 H   0  0  0  0  0  0  0  0  0  0  0  0
    1.6223    4.0849    1.8406 H   0  0  0  0  0  0  0  0  0  0  0  0
    2.4156    2.5445    2.1724 H   0  0  0  0  0  0  0  0  0  0  0  0
    2.2950    3.7674    3.4481 H   0  0  0  0  0  0  0  0  0  0  0  0
   -0.7601    3.2991   -1.7863 H   0  0  0  0  0  0  0  0  0  0  0  0
   -1.8923    3.4528   -0.4593 H   0  0  0  0  0  0  0  0  0  0  0  0
   -3.6119    2.1616   -1.7288 H   0  0  0  0  0  0  0  0  0  0  0  0
   -4.1854    3.8076   -3.2859 H   0  0  0  0  0  0  0  0  0  0  0  0
   -3.0057    4.7630   -2.3732 H   0  0  0  0  0  0  0  0  0  0  0  0
   -2.6357    4.4350   -5.0324 H   0  0  0  0  0  0  0  0  0  0  0  0
   -1.2501    4.1878   -3.9588 H   0  0  0  0  0  0  0  0  0  0  0  0
   -1.2796    2.0529   -5.0105 H   0  0  0  0  0  0  0  0  0  0  0  0
   -3.0481    2.0692   -5.1796 H   0  0  0  0  0  0  0  0  0  0  0  0
    0.6246   -0.1795    0.5790 H   0  0  0  0  0  0  0  0  0  0  0  0
    0.1387   -1.0653   -0.8958 H   0  0  0  0  0  0  0  0  0  0  0  0
    2.2811   -0.5454   -1.9658 H   0  0  0  0  0  0  0  0  0  0  0  0
    2.7614    0.4714   -0.5917 H   0  0  0  0  0  0  0  0  0  0  0  0
    4.5758   -1.1306   -1.1298 H   0  0  0  0  0  0  0  0  0  0  0  0
    3.6550   -4.1412    1.2358 H   0  0  0  0  0  0  0  0  0  0  0  0
    5.3241   -6.3647    1.9629 H   0  0  0  0  0  0  0  0  0  0  0  0
    6.7579   -5.5102    2.5639 H   0  0  0  0  0  0  0  0  0  0  0  0
    6.8332   -6.4108    1.0352 H   0  0  0  0  0  0  0  0  0  0  0  0
   -1.3939   -1.2007    2.1778 H   0  0  0  0  0  0  0  0  0  0  0  0
   -1.9425   -3.5500    1.8335 H   0  0  0  0  0  0  0  0  0  0  0  0
  1  2  1  0
  2  3  1  0
  3  4  2  0
  4  5  1  0
  5  6  2  0
  6  7  1  0
  7  8  1  0
  8  9  2  0
  8 10  1  0
 10 11  1  0
 11 12  1  0
 11 13  1  0
 11 14  1  0
  7 15  1  0
 15 16  1  0
 16 17  1  0
 17 18  1  0
 18 19  1  0
 19 20  1  0
 20 21  1  0
 15 22  1  0
 22 23  2  0
 22 24  1  0
 24 25  1  0
 25 26  1  0
 26 27  2  0
 26 28  1  0
 28 29  1  0
 29 30  1  0
 30 31  2  0
 31 32  1  0
 31 33  1  0
 33 34  1  0
  6 35  1  0
 35 36  2  0
 36  3  1  0
 21 17  1  0
 34 29  2  0
  1 37  1  0
  1 38  1  0
  1 39  1  0
  4 40  1  0
  5 41  1  0
  7 42  1  0
 10 43  1  0
 12 44  1  0
 12 45  1  0
 12 46  1  0
 13 47  1  0
 13 48  1  0
 13 49  1  0
 14 50  1  0
 14 51  1  0
 14 52  1  0
 16 53  1  0
 16 54  1  0
 17 55  1  0
 18 56  1  0
 18 57  1  0
 19 58  1  0
 19 59  1  0
 20 60  1  0
 20 61  1  0
 24 62  1  0
 24 63  1  0
 25 64  1  0
 25 65  1  0
 28 66  1  0
 30 67  1  0
 32 68  1  0
 32 69  1  0
 32 70  1  0
 35 71  1  0
 36 72  1  0
M  END
$$$$
