
     RDKit          3D

 61 65  0  0  0  0  0  0  0  0999 V2000
   -8.0759    0.1055    2.8255 C   0  0  0  0  0  0  0  0  0  0  0  0
   -7.3133   -0.4953    1.7843 O   0  0  0  0  0  0  0  0  0  0  0  0
   -6.1022    0.0772    1.4832 C   0  0  0  0  0  0  0  0  0  0  0  0
   -5.4303    0.9745    2.3179 C   0  0  0  0  0  0  0  0  0  0  0  0
   -4.1940    1.5043    1.9326 C   0  0  0  0  0  0  0  0  0  0  0  0
   -3.6095    1.1485    0.7108 C   0  0  0  0  0  0  0  0  0  0  0  0
   -2.3307    1.7036    0.2771 C   0  0  0  0  0  0  0  0  0  0  0  0
   -1.7298    1.6003   -0.8950 N   0  0  0  0  0  0  0  0  0  0  0  0
   -0.5600    2.3211   -0.7518 C   0  0  0  0  0  0  0  0  0  0  0  0
    0.3467    2.4909   -1.9183 C   0  0  0  0  0  0  0  0  0  0  0  0
    1.7395    2.2089   -1.6091 N   0  0  0  0  0  0  0  0  0  0  0  0
    2.3467    0.9795   -1.5509 C   0  0  0  0  0  0  0  0  0  0  0  0
    1.4806   -0.5095   -1.7323 S   0  0  0  0  0  0  0  0  0  0  0  0
    2.7966   -1.6506   -2.2469 C   0  0  0  0  0  0  0  0  0  0  0  0
    3.3657   -2.4644   -1.1072 C   0  0  0  0  0  0  0  0  0  0  0  0
    4.5211   -2.0444   -0.4390 C   0  0  0  0  0  0  0  0  0  0  0  0
    5.0608   -2.8102    0.5978 C   0  0  0  0  0  0  0  0  0  0  0  0
    4.4505   -4.0065    0.9913 C   0  0  0  0  0  0  0  0  0  0  0  0
    5.0584   -4.8526    2.0698 C   0  0  0  0  0  0  0  0  0  0  0  0
    3.2946   -4.4291    0.3283 C   0  0  0  0  0  0  0  0  0  0  0  0
    2.7519   -3.6595   -0.7015 C   0  0  0  0  0  0  0  0  0  0  0  0
    3.6402    1.0824   -1.3437 N   0  0  0  0  0  0  0  0  0  0  0  0
    3.8909    2.4258   -1.2489 C   0  0  0  0  0  0  0  0  0  0  0  0
    5.0967    3.0865   -1.0168 C   0  0  0  0  0  0  0  0  0  0  0  0
    5.0248    4.4678   -0.9809 C   0  0  0  0  0  0  0  0  0  0  0  0
    3.8951    5.1882   -1.1658 N   0  0  0  0  0  0  0  0  0  0  0  0
    2.7293    4.5458   -1.4058 C   0  0  0  0  0  0  0  0  0  0  0  0
    2.7248    3.1597   -1.4297 C   0  0  0  0  0  0  0  0  0  0  0  0
   -0.5093    2.8454    0.5284 C   0  0  0  0  0  0  0  0  0  0  0  0
    0.4200    3.7104    1.2823 C   0  0  0  0  0  0  0  0  0  0  0  0
   -1.6344    2.4439    1.1910 O   0  0  0  0  0  0  0  0  0  0  0  0
   -4.2863    0.2431   -0.1202 C   0  0  0  0  0  0  0  0  0  0  0  0
   -5.5192   -0.3035    0.2587 C   0  0  0  0  0  0  0  0  0  0  0  0
   -6.2356   -1.1980   -0.4965 O   0  0  0  0  0  0  0  0  0  0  0  0
   -5.6438   -1.6639   -1.7000 C   0  0  0  0  0  0  0  0  0  0  0  0
   -9.0659   -0.3634    2.8307 H   0  0  0  0  0  0  0  0  0  0  0  0
   -8.2181    1.1780    2.6495 H   0  0  0  0  0  0  0  0  0  0  0  0
   -7.6182   -0.0796    3.8045 H   0  0  0  0  0  0  0  0  0  0  0  0
   -5.8390    1.2790    3.2787 H   0  0  0  0  0  0  0  0  0  0  0  0
   -3.6958    2.2073    2.5984 H   0  0  0  0  0  0  0  0  0  0  0  0
    0.2758    3.5189   -2.2933 H   0  0  0  0  0  0  0  0  0  0  0  0
    0.0519    1.8390   -2.7486 H   0  0  0  0  0  0  0  0  0  0  0  0
    3.5927   -1.1271   -2.7921 H   0  0  0  0  0  0  0  0  0  0  0  0
    2.3529   -2.3394   -2.9784 H   0  0  0  0  0  0  0  0  0  0  0  0
    5.0119   -1.1152   -0.7238 H   0  0  0  0  0  0  0  0  0  0  0  0
    5.9648   -2.4630    1.0955 H   0  0  0  0  0  0  0  0  0  0  0  0
    5.6964   -4.2532    2.7309 H   0  0  0  0  0  0  0  0  0  0  0  0
    5.6682   -5.6465    1.6229 H   0  0  0  0  0  0  0  0  0  0  0  0
    4.2813   -5.3069    2.6938 H   0  0  0  0  0  0  0  0  0  0  0  0
    2.8115   -5.3615    0.6090 H   0  0  0  0  0  0  0  0  0  0  0  0
    1.8475   -4.0022   -1.1925 H   0  0  0  0  0  0  0  0  0  0  0  0
    6.0250    2.5521   -0.8709 H   0  0  0  0  0  0  0  0  0  0  0  0
    5.9178    5.0587   -0.7955 H   0  0  0  0  0  0  0  0  0  0  0  0
    1.8527    5.1621   -1.5535 H   0  0  0  0  0  0  0  0  0  0  0  0
   -0.0178    4.0253    2.2371 H   0  0  0  0  0  0  0  0  0  0  0  0
    0.6474    4.6191    0.7129 H   0  0  0  0  0  0  0  0  0  0  0  0
    1.3527    3.1803    1.4990 H   0  0  0  0  0  0  0  0  0  0  0  0
   -3.8249   -0.0192   -1.0664 H   0  0  0  0  0  0  0  0  0  0  0  0
   -4.6759   -2.1363   -1.5118 H   0  0  0  0  0  0  0  0  0  0  0  0
   -5.5508   -0.8534   -2.4306 H   0  0  0  0  0  0  0  0  0  0  0  0
   -6.3047   -2.4244   -2.1242 H   0  0  0  0  0  0  0  0  0  0  0  0
  1  2  1  0
  2  3  1  0
  3  4  2  0
  4  5  1  0
  5  6  2  0
  6  7  1  0
  7  8  2  0
  8  9  1  0
  9 10  1  0
 10 11  1  0
 11 12  1  0
 12 13  1  0
 13 14  1  0
 14 15  1  0
 15 16  2  0
 16 17  1  0
 17 18  2  0
 18 19  1  0
 18 20  1  0
 20 21  2  0
 12 22  2  0
 22 23  1  0
 23 24  2  0
 24 25  1  0
 25 26  2  0
 26 27  1  0
 27 28  2  0
  9 29  2  0
 29 30  1  0
 29 31  1  0
  6 32  1  0
 32 33  2  0
 33 34  1  0
 34 35  1  0
 33  3  1  0
 31  7  1  0
 28 11  1  0
 21 15  1  0
 28 23  1  0
  1 36  1  0
  1 37  1  0
  1 38  1  0
  4 39  1  0
  5 40  1  0
 10 41  1  0
 10 42  1  0
 14 43  1  0
 14 44  1  0
 16 45  1  0
 17 46  1  0
 19 47  1  0
 19 48  1  0
 19 49  1  0
 20 50  1  0
 21 51  1  0
 24 52  1  0
 25 53  1  0
 27 54  1  0
 30 55  1  0
 30 56  1  0
 30 57  1  0
 32 58  1  0
 35 59  1  0
 35 60  1  0
 35 61  1  0
M  END
$$$$
