
     RDKit          3D

 35 37  0  0  0  0  0  0  0  0999 V2000
   -1.3863   -2.5635    1.8706 C   0  0  0  0  0  0  0  0  0  0  0  0
   -1.6761   -1.2406    1.1601 C   0  0  0  0  0  0  0  0  0  0  0  0
   -2.8370   -1.4601    0.3669 O   0  0  0  0  0  0  0  0  0  0  0  0
   -3.5743   -0.3804   -0.0298 C   0  0  0  0  0  0  0  0  0  0  0  0
   -4.7959   -0.7052   -0.6287 C   0  0  0  0  0  0  0  0  0  0  0  0
   -5.6578    0.2949   -1.0842 C   0  0  0  0  0  0  0  0  0  0  0  0
   -5.2919    1.6299   -0.9446 C   0  0  0  0  0  0  0  0  0  0  0  0
   -6.4493    2.9919   -1.5582 Br  0  0  0  0  0  0  0  0  0  0  0  0
   -4.0738    1.9675   -0.3583 C   0  0  0  0  0  0  0  0  0  0  0  0
   -3.2135    0.9618    0.0977 C   0  0  0  0  0  0  0  0  0  0  0  0
   -0.4198   -0.8222    0.3572 C   0  0  0  0  0  0  0  0  0  0  0  0
   -0.3844   -0.8787   -0.8674 O   0  0  0  0  0  0  0  0  0  0  0  0
    0.5996   -0.3806    1.1789 N   0  0  0  0  0  0  0  0  0  0  0  0
    1.8380    0.0669    0.7907 C   0  0  0  0  0  0  0  0  0  0  0  0
    2.7309    0.4713    1.6684 N   0  0  0  0  0  0  0  0  0  0  0  0
    3.9046    0.8807    1.0646 N   0  0  0  0  0  0  0  0  0  0  0  0
    3.8396    0.7561   -0.2422 C   0  0  0  0  0  0  0  0  0  0  0  0
    5.0228    1.1522   -1.1773 C   0  0  0  0  0  0  0  0  0  0  0  0
    5.7961    0.0706   -1.8882 C   0  0  0  0  0  0  0  0  0  0  0  0
    6.4334    0.8244   -0.7579 C   0  0  0  0  0  0  0  0  0  0  0  0
    2.3538    0.1538   -0.8303 S   0  0  0  0  0  0  0  0  0  0  0  0
   -2.2651   -2.8970    2.4333 H   0  0  0  0  0  0  0  0  0  0  0  0
   -0.5423   -2.4823    2.5622 H   0  0  0  0  0  0  0  0  0  0  0  0
   -1.1556   -3.3512    1.1441 H   0  0  0  0  0  0  0  0  0  0  0  0
   -1.8816   -0.4894    1.9340 H   0  0  0  0  0  0  0  0  0  0  0  0
   -5.0780   -1.7494   -0.7430 H   0  0  0  0  0  0  0  0  0  0  0  0
   -6.6019    0.0200   -1.5460 H   0  0  0  0  0  0  0  0  0  0  0  0
   -3.7795    3.0091   -0.2583 H   0  0  0  0  0  0  0  0  0  0  0  0
   -2.2673    1.2684    0.5283 H   0  0  0  0  0  0  0  0  0  0  0  0
    0.4738   -0.3633    2.1820 H   0  0  0  0  0  0  0  0  0  0  0  0
    4.8729    2.0893   -1.7028 H   0  0  0  0  0  0  0  0  0  0  0  0
    6.1412    0.2750   -2.8952 H   0  0  0  0  0  0  0  0  0  0  0  0
    5.5284   -0.9658   -1.7148 H   0  0  0  0  0  0  0  0  0  0  0  0
    7.2099    1.5423   -0.9949 H   0  0  0  0  0  0  0  0  0  0  0  0
    6.5862    0.3034    0.1811 H   0  0  0  0  0  0  0  0  0  0  0  0
  1  2  1  0
  2  3  1  0
  3  4  1  0
  4  5  2  0
  5  6  1  0
  6  7  2  0
  7  8  1  0
  7  9  1  0
  9 10  2  0
  2 11  1  0
 11 12  2  0
 11 13  1  0
 13 14  1  0
 14 15  2  0
 15 16  1  0
 16 17  2  0
 17 18  1  0
 18 19  1  0
 19 20  1  0
 17 21  1  0
 10  4  1  0
 21 14  1  0
 20 18  1  0
  1 22  1  0
  1 23  1  0
  1 24  1  0
  2 25  1  0
  5 26  1  0
  6 27  1  0
  9 28  1  0
 10 29  1  0
 13 30  1  0
 18 31  1  0
 19 32  1  0
 19 33  1  0
 20 34  1  0
 20 35  1  0
M  END
$$$$
