
     RDKit          3D

 55 60  0  0  0  0  0  0  0  0999 V2000
   -4.8923    1.6950   -1.1954 O   0  0  0  0  0  0  0  0  0  0  0  0
   -4.2187    1.2959   -0.2468 C   0  0  0  0  0  0  0  0  0  0  0  0
   -4.7837    1.2810    1.0955 C   0  0  0  0  0  0  0  0  0  0  0  0
   -4.1904    1.4986    2.3747 C   0  0  0  0  0  0  0  0  0  0  0  0
   -5.2019    1.4021    3.3016 C   0  0  0  0  0  0  0  0  0  0  0  0
   -6.3852    1.1613    2.6852 O   0  0  0  0  0  0  0  0  0  0  0  0
   -6.1309    1.1111    1.3535 C   0  0  0  0  0  0  0  0  0  0  0  0
   -2.8987    0.8637   -0.4237 N   0  0  0  0  0  0  0  0  0  0  0  0
   -2.1977   -0.0321    0.4922 C   0  0  0  0  0  0  0  0  0  0  0  0
   -1.3461   -1.0639   -0.2441 C   0  0  0  0  0  0  0  0  0  0  0  0
   -0.3324   -0.4415   -1.2449 C   0  0  0  0  0  0  0  0  0  0  0  0
   -0.7828    0.9792   -1.6772 C   0  0  0  0  0  0  0  0  0  0  0  0
   -2.3019    1.0734   -1.7398 C   0  0  0  0  0  0  0  0  0  0  0  0
   -0.4367   -1.2020   -2.4847 O   0  0  0  0  0  0  0  0  0  0  0  0
    0.2678   -2.3633   -2.5876 C   0  0  0  0  0  0  0  0  0  0  0  0
   -0.0596   -3.1844   -3.6684 C   0  0  0  0  0  0  0  0  0  0  0  0
    0.5947   -4.4053   -3.8423 C   0  0  0  0  0  0  0  0  0  0  0  0
    1.5744   -4.7951   -2.9349 C   0  0  0  0  0  0  0  0  0  0  0  0
    2.1959   -5.9691   -3.1016 F   0  0  0  0  0  0  0  0  0  0  0  0
    1.9188   -3.9844   -1.8618 C   0  0  0  0  0  0  0  0  0  0  0  0
    1.2651   -2.7597   -1.7029 C   0  0  0  0  0  0  0  0  0  0  0  0
    1.6146   -1.8667   -0.5925 C   0  0  0  0  0  0  0  0  0  0  0  0
    2.2423   -2.3070    0.3672 O   0  0  0  0  0  0  0  0  0  0  0  0
    1.1295   -0.4252   -0.7139 C   0  0  0  0  0  0  0  0  0  0  0  0
    1.3453    0.3300    0.5905 C   0  0  0  0  0  0  0  0  0  0  0  0
    2.6665    0.9492    0.2794 C   0  0  0  0  0  0  0  0  0  0  0  0
    3.5050    1.5854    1.3229 C   0  0  0  0  0  0  0  0  0  0  0  0
    3.0709    1.6932    2.6491 C   0  0  0  0  0  0  0  0  0  0  0  0
    3.8873    2.3041    3.6052 C   0  0  0  0  0  0  0  0  0  0  0  0
    5.1349    2.8094    3.2420 C   0  0  0  0  0  0  0  0  0  0  0  0
    5.5712    2.7062    1.9227 C   0  0  0  0  0  0  0  0  0  0  0  0
    4.7590    2.0965    0.9647 C   0  0  0  0  0  0  0  0  0  0  0  0
    2.9966    0.9183   -0.9727 N   0  0  0  0  0  0  0  0  0  0  0  0
    1.9772    0.2341   -1.6685 O   0  0  0  0  0  0  0  0  0  0  0  0
   -3.1572    1.7214    2.5965 H   0  0  0  0  0  0  0  0  0  0  0  0
   -5.2460    1.4914    4.3784 H   0  0  0  0  0  0  0  0  0  0  0  0
   -6.9910    0.9486    0.7175 H   0  0  0  0  0  0  0  0  0  0  0  0
   -2.9152   -0.5640    1.1244 H   0  0  0  0  0  0  0  0  0  0  0  0
   -1.5710    0.5882    1.1400 H   0  0  0  0  0  0  0  0  0  0  0  0
   -0.8359   -1.6912    0.4961 H   0  0  0  0  0  0  0  0  0  0  0  0
   -2.0261   -1.7388   -0.7824 H   0  0  0  0  0  0  0  0  0  0  0  0
   -0.3756    1.2228   -2.6667 H   0  0  0  0  0  0  0  0  0  0  0  0
   -0.4214    1.7470   -0.9856 H   0  0  0  0  0  0  0  0  0  0  0  0
   -2.5976    2.0607   -2.1133 H   0  0  0  0  0  0  0  0  0  0  0  0
   -2.7201    0.3257   -2.4243 H   0  0  0  0  0  0  0  0  0  0  0  0
   -0.8287   -2.8768   -4.3731 H   0  0  0  0  0  0  0  0  0  0  0  0
    0.3463   -5.0538   -4.6771 H   0  0  0  0  0  0  0  0  0  0  0  0
    2.6938   -4.3043   -1.1714 H   0  0  0  0  0  0  0  0  0  0  0  0
    0.6332    1.1413    0.7558 H   0  0  0  0  0  0  0  0  0  0  0  0
    1.3709   -0.3070    1.4774 H   0  0  0  0  0  0  0  0  0  0  0  0
    2.1056    1.3122    2.9660 H   0  0  0  0  0  0  0  0  0  0  0  0
    3.5510    2.3854    4.6362 H   0  0  0  0  0  0  0  0  0  0  0  0
    5.7689    3.2830    3.9877 H   0  0  0  0  0  0  0  0  0  0  0  0
    6.5443    3.0985    1.6373 H   0  0  0  0  0  0  0  0  0  0  0  0
    5.1135    2.0215   -0.0617 H   0  0  0  0  0  0  0  0  0  0  0  0
  1  2  2  0
  2  3  1  0
  3  4  1  0
  4  5  2  0
  5  6  1  0
  6  7  1  0
  2  8  1  0
  8  9  1  0
  9 10  1  0
 10 11  1  0
 11 12  1  0
 12 13  1  0
 11 14  1  0
 14 15  1  0
 15 16  2  0
 16 17  1  0
 17 18  2  0
 18 19  1  0
 18 20  1  0
 20 21  2  0
 21 22  1  0
 22 23  2  0
 22 24  1  0
 24 25  1  0
 25 26  1  0
 26 27  1  0
 27 28  2  0
 28 29  1  0
 29 30  2  0
 30 31  1  0
 31 32  2  0
 26 33  2  0
 33 34  1  0
  7  3  2  0
 13  8  1  0
 21 15  1  0
 34 24  1  0
 24 11  1  0
 32 27  1  0
  4 35  1  0
  5 36  1  0
  7 37  1  0
  9 38  1  0
  9 39  1  0
 10 40  1  0
 10 41  1  0
 12 42  1  0
 12 43  1  0
 13 44  1  0
 13 45  1  0
 16 46  1  0
 17 47  1  0
 20 48  1  0
 25 49  1  0
 25 50  1  0
 28 51  1  0
 29 52  1  0
 30 53  1  0
 31 54  1  0
 32 55  1  0
M  END
$$$$
