
     RDKit          3D

 53 52  0  0  0  0  0  0  0  0999 V2000
   -6.8509    1.3229    0.5938 C   0  0  0  0  0  0  0  0  0  0  0  0
   -5.9133    0.6621    1.6034 C   0  0  0  0  0  0  0  0  0  0  0  0
   -5.6957    1.5792    2.8067 C   0  0  0  0  0  0  0  0  0  0  0  0
   -4.5872    0.2103    0.9647 C   0  0  0  0  0  0  0  0  0  0  0  0
   -3.7382    1.3309    0.3629 C   0  0  0  0  0  0  0  0  0  0  0  0
   -2.4891    0.8196   -0.1650 N   0  0  0  0  0  0  0  0  0  0  0  0
   -2.3953    0.2684   -1.4255 C   0  0  0  0  0  0  0  0  0  0  0  0
   -3.3366    0.1985   -2.2071 O   0  0  0  0  0  0  0  0  0  0  0  0
   -1.0024   -0.2334   -1.7392 C   0  0  0  0  0  0  0  0  0  0  0  0
   -0.9364   -0.8448   -3.1322 C   0  0  0  0  0  0  0  0  0  0  0  0
    0.7259   -1.5185   -3.4849 S   0  0  0  0  0  0  0  0  0  0  0  0
    1.6144    0.0358   -3.8613 C   0  0  0  0  0  0  0  0  0  0  0  0
    3.0591   -0.0372   -3.3830 C   0  0  0  0  0  0  0  0  0  0  0  0
    3.1885    0.1537   -1.8835 C   0  0  0  0  0  0  0  0  0  0  0  0
    2.3346    0.6999   -1.1929 O   0  0  0  0  0  0  0  0  0  0  0  0
    4.3958   -0.2905   -1.3842 N   0  0  0  0  0  0  0  0  0  0  0  0
    4.6963   -0.2471    0.0336 C   0  0  0  0  0  0  0  0  0  0  0  0
    4.0985   -1.4498    0.7651 C   0  0  0  0  0  0  0  0  0  0  0  0
    4.3604   -1.4921    2.2816 C   0  0  0  0  0  0  0  0  0  0  0  0
    3.7166   -0.3151    3.0138 C   0  0  0  0  0  0  0  0  0  0  0  0
    5.8495   -1.5781    2.6128 C   0  0  0  0  0  0  0  0  0  0  0  0
   -6.4649    2.2875    0.2507 H   0  0  0  0  0  0  0  0  0  0  0  0
   -6.9984    0.6826   -0.2810 H   0  0  0  0  0  0  0  0  0  0  0  0
   -7.8334    1.5028    1.0438 H   0  0  0  0  0  0  0  0  0  0  0  0
   -6.4132   -0.2437    1.9702 H   0  0  0  0  0  0  0  0  0  0  0  0
   -5.2819    2.5488    2.5112 H   0  0  0  0  0  0  0  0  0  0  0  0
   -6.6446    1.7693    3.3193 H   0  0  0  0  0  0  0  0  0  0  0  0
   -5.0127    1.1206    3.5297 H   0  0  0  0  0  0  0  0  0  0  0  0
   -3.9934   -0.3201    1.7210 H   0  0  0  0  0  0  0  0  0  0  0  0
   -4.8072   -0.5325    0.1869 H   0  0  0  0  0  0  0  0  0  0  0  0
   -3.4746    2.0760    1.1196 H   0  0  0  0  0  0  0  0  0  0  0  0
   -4.2750    1.8360   -0.4468 H   0  0  0  0  0  0  0  0  0  0  0  0
   -1.6777    0.7983    0.4413 H   0  0  0  0  0  0  0  0  0  0  0  0
   -0.3199    0.6179   -1.6503 H   0  0  0  0  0  0  0  0  0  0  0  0
   -0.7326   -0.9786   -0.9813 H   0  0  0  0  0  0  0  0  0  0  0  0
   -1.6467   -1.6752   -3.2099 H   0  0  0  0  0  0  0  0  0  0  0  0
   -1.2072   -0.1190   -3.9067 H   0  0  0  0  0  0  0  0  0  0  0  0
    1.1004    0.8979   -3.4271 H   0  0  0  0  0  0  0  0  0  0  0  0
    1.5984    0.1568   -4.9491 H   0  0  0  0  0  0  0  0  0  0  0  0
    3.5309   -0.9776   -3.6909 H   0  0  0  0  0  0  0  0  0  0  0  0
    3.6267    0.7786   -3.8476 H   0  0  0  0  0  0  0  0  0  0  0  0
    5.0005   -0.8375   -1.9831 H   0  0  0  0  0  0  0  0  0  0  0  0
    5.7868   -0.2373    0.1207 H   0  0  0  0  0  0  0  0  0  0  0  0
    4.3092    0.6921    0.4408 H   0  0  0  0  0  0  0  0  0  0  0  0
    4.4912   -2.3703    0.3126 H   0  0  0  0  0  0  0  0  0  0  0  0
    3.0142   -1.4759    0.5947 H   0  0  0  0  0  0  0  0  0  0  0  0
    3.8888   -2.4087    2.6593 H   0  0  0  0  0  0  0  0  0  0  0  0
    2.6516   -0.2404    2.7715 H   0  0  0  0  0  0  0  0  0  0  0  0
    4.1933    0.6357    2.7566 H   0  0  0  0  0  0  0  0  0  0  0  0
    3.8030   -0.4453    4.0980 H   0  0  0  0  0  0  0  0  0  0  0  0
    5.9948   -1.7473    3.6849 H   0  0  0  0  0  0  0  0  0  0  0  0
    6.3205   -2.4092    2.0792 H   0  0  0  0  0  0  0  0  0  0  0  0
    6.3787   -0.6569    2.3496 H   0  0  0  0  0  0  0  0  0  0  0  0
  1  2  1  0
  2  3  1  0
  2  4  1  0
  4  5  1  0
  5  6  1  0
  6  7  1  0
  7  8  2  0
  7  9  1  0
  9 10  1  0
 10 11  1  0
 11 12  1  0
 12 13  1  0
 13 14  1  0
 14 15  2  0
 14 16  1  0
 16 17  1  0
 17 18  1  0
 18 19  1  0
 19 20  1  0
 19 21  1  0
  1 22  1  0
  1 23  1  0
  1 24  1  0
  2 25  1  0
  3 26  1  0
  3 27  1  0
  3 28  1  0
  4 29  1  0
  4 30  1  0
  5 31  1  0
  5 32  1  0
  6 33  1  0
  9 34  1  0
  9 35  1  0
 10 36  1  0
 10 37  1  0
 12 38  1  0
 12 39  1  0
 13 40  1  0
 13 41  1  0
 16 42  1  0
 17 43  1  0
 17 44  1  0
 18 45  1  0
 18 46  1  0
 19 47  1  0
 20 48  1  0
 20 49  1  0
 20 50  1  0
 21 51  1  0
 21 52  1  0
 21 53  1  0
M  END
$$$$
