
     RDKit          3D

 61 65  0  0  0  0  0  0  0  0999 V2000
   -8.7871    2.4421   -3.1581 C   0  0  0  0  0  0  0  0  0  0  0  0
   -7.7001    1.6668   -2.4734 C   0  0  0  0  0  0  0  0  0  0  0  0
   -8.0144    0.6138   -1.6113 C   0  0  0  0  0  0  0  0  0  0  0  0
   -6.9987   -0.1242   -0.9928 C   0  0  0  0  0  0  0  0  0  0  0  0
   -5.6370    0.1516   -1.2192 C   0  0  0  0  0  0  0  0  0  0  0  0
   -4.5833   -0.6405   -0.5423 C   0  0  0  0  0  0  0  0  0  0  0  0
   -3.2882   -0.7551   -1.0164 C   0  0  0  0  0  0  0  0  0  0  0  0
   -2.3684   -1.5106   -0.2839 C   0  0  0  0  0  0  0  0  0  0  0  0
   -0.9857   -1.5475   -0.8136 C   0  0  0  0  0  0  0  0  0  0  0  0
   -0.8209   -1.9227   -1.9676 O   0  0  0  0  0  0  0  0  0  0  0  0
   -0.0281   -1.0853    0.0698 N   0  0  0  0  0  0  0  0  0  0  0  0
    1.3672   -1.0514   -0.1263 C   0  0  0  0  0  0  0  0  0  0  0  0
    2.1458   -0.5152    0.9087 C   0  0  0  0  0  0  0  0  0  0  0  0
    3.5396   -0.4696    0.8055 C   0  0  0  0  0  0  0  0  0  0  0  0
    4.1591   -0.9494   -0.3496 C   0  0  0  0  0  0  0  0  0  0  0  0
    5.9359   -0.9293   -0.4741 S   0  0  0  0  0  6  0  0  0  0  0  0
    6.4824   -1.0138    0.8648 O   0  0  0  0  0  0  0  0  0  0  0  0
    6.3009   -1.8951   -1.4882 O   0  0  0  0  0  0  0  0  0  0  0  0
    6.2230    0.6135   -1.1336 N   0  0  0  0  0  0  0  0  0  0  0  0
    6.2170    1.6620   -0.1221 C   0  0  0  0  0  0  0  0  0  0  0  0
    5.1467    2.4555    0.1332 O   0  0  0  0  0  0  0  0  0  0  0  0
    5.4508    3.3225    1.1675 N   0  0  0  0  0  0  0  0  0  0  0  0
    6.7235    3.0673    1.4900 C   0  0  0  0  0  0  0  0  0  0  0  0
    7.3878    3.8312    2.5739 C   0  0  0  0  0  0  0  0  0  0  0  0
    7.2698    2.0303    0.6835 C   0  0  0  0  0  0  0  0  0  0  0  0
    8.6392    1.4734    0.7302 C   0  0  0  0  0  0  0  0  0  0  0  0
    3.3979   -1.4933   -1.3855 C   0  0  0  0  0  0  0  0  0  0  0  0
    2.0040   -1.5397   -1.2705 C   0  0  0  0  0  0  0  0  0  0  0  0
   -2.7506   -2.1980    0.8865 C   0  0  0  0  0  0  0  0  0  0  0  0
   -1.9102   -3.0504    1.6508 C   0  0  0  0  0  0  0  0  0  0  0  0
   -2.3815   -3.6825    2.7986 C   0  0  0  0  0  0  0  0  0  0  0  0
   -3.6972   -3.4885    3.1922 C   0  0  0  0  0  0  0  0  0  0  0  0
   -4.5323   -2.6660    2.4318 C   0  0  0  0  0  0  0  0  0  0  0  0
   -4.0869   -2.0232    1.2850 C   0  0  0  0  0  0  0  0  0  0  0  0
   -4.9613   -1.2652    0.6012 N   0  0  0  0  0  0  0  0  0  0  0  0
   -5.3428    1.2101   -2.0992 C   0  0  0  0  0  0  0  0  0  0  0  0
   -6.3558    1.9516   -2.7219 C   0  0  0  0  0  0  0  0  0  0  0  0
   -8.4392    3.4448   -3.4343 H   0  0  0  0  0  0  0  0  0  0  0  0
   -9.6512    2.5654   -2.4983 H   0  0  0  0  0  0  0  0  0  0  0  0
   -9.1042    1.9187   -4.0652 H   0  0  0  0  0  0  0  0  0  0  0  0
   -9.0515    0.3572   -1.4077 H   0  0  0  0  0  0  0  0  0  0  0  0
   -7.2824   -0.9318   -0.3173 H   0  0  0  0  0  0  0  0  0  0  0  0
   -2.9767   -0.2826   -1.9407 H   0  0  0  0  0  0  0  0  0  0  0  0
   -0.3616   -0.7281    0.9575 H   0  0  0  0  0  0  0  0  0  0  0  0
    1.6816   -0.1304    1.8144 H   0  0  0  0  0  0  0  0  0  0  0  0
    4.1265   -0.0618    1.6272 H   0  0  0  0  0  0  0  0  0  0  0  0
    5.5453    0.8123   -1.8699 H   0  0  0  0  0  0  0  0  0  0  0  0
    6.6808    4.4846    3.0971 H   0  0  0  0  0  0  0  0  0  0  0  0
    8.1888    4.4540    2.1658 H   0  0  0  0  0  0  0  0  0  0  0  0
    7.8209    3.1458    3.3110 H   0  0  0  0  0  0  0  0  0  0  0  0
    8.7555    0.8182    1.5982 H   0  0  0  0  0  0  0  0  0  0  0  0
    8.8718    0.8982   -0.1729 H   0  0  0  0  0  0  0  0  0  0  0  0
    9.3791    2.2740    0.8077 H   0  0  0  0  0  0  0  0  0  0  0  0
    3.8700   -1.8981   -2.2781 H   0  0  0  0  0  0  0  0  0  0  0  0
    1.4441   -1.9793   -2.0901 H   0  0  0  0  0  0  0  0  0  0  0  0
   -0.8837   -3.2473    1.3456 H   0  0  0  0  0  0  0  0  0  0  0  0
   -1.7256   -4.3290    3.3756 H   0  0  0  0  0  0  0  0  0  0  0  0
   -4.0850   -3.9861    4.0779 H   0  0  0  0  0  0  0  0  0  0  0  0
   -5.5675   -2.5294    2.7393 H   0  0  0  0  0  0  0  0  0  0  0  0
   -4.3145    1.4944   -2.3082 H   0  0  0  0  0  0  0  0  0  0  0  0
   -6.0813    2.7611   -3.3952 H   0  0  0  0  0  0  0  0  0  0  0  0
  1  2  1  0
  2  3  2  0
  3  4  1  0
  4  5  2  0
  5  6  1  0
  6  7  2  0
  7  8  1  0
  8  9  1  0
  9 10  2  0
  9 11  1  0
 11 12  1  0
 12 13  2  0
 13 14  1  0
 14 15  2  0
 15 16  1  0
 16 17  2  0
 16 18  2  0
 16 19  1  0
 19 20  1  0
 20 21  1  0
 21 22  1  0
 22 23  2  0
 23 24  1  0
 23 25  1  0
 25 26  1  0
 15 27  1  0
 27 28  2  0
  8 29  2  0
 29 30  1  0
 30 31  2  0
 31 32  1  0
 32 33  2  0
 33 34  1  0
 34 35  2  0
  5 36  1  0
 36 37  2  0
 37  2  1  0
 35  6  1  0
 28 12  1  0
 34 29  1  0
 25 20  2  0
  1 38  1  0
  1 39  1  0
  1 40  1  0
  3 41  1  0
  4 42  1  0
  7 43  1  0
 11 44  1  0
 13 45  1  0
 14 46  1  0
 19 47  1  0
 24 48  1  0
 24 49  1  0
 24 50  1  0
 26 51  1  0
 26 52  1  0
 26 53  1  0
 27 54  1  0
 28 55  1  0
 30 56  1  0
 31 57  1  0
 32 58  1  0
 33 59  1  0
 36 60  1  0
 37 61  1  0
M  END
$$$$
