
     RDKit          3D

 41 42  0  0  0  0  0  0  0  0999 V2000
   -3.4568   -0.5298    2.3338 C   0  0  0  0  0  0  0  0  0  0  0  0
   -3.8134    0.2046    1.0478 C   0  0  0  0  0  0  0  0  0  0  0  0
   -2.9856   -0.2526   -0.0769 N   0  0  0  0  0  0  0  0  0  0  0  0
   -3.4947   -1.4130   -0.8183 C   0  0  0  0  0  0  0  0  0  0  0  0
   -4.3365   -0.9708   -2.0088 C   0  0  0  0  0  0  0  0  0  0  0  0
   -1.7487    0.3159   -0.3650 C   0  0  0  0  0  0  0  0  0  0  0  0
   -1.1431    1.2705    0.4713 C   0  0  0  0  0  0  0  0  0  0  0  0
    0.1022    1.8520    0.1796 C   0  0  0  0  0  0  0  0  0  0  0  0
    0.8044    1.4915   -0.9687 C   0  0  0  0  0  0  0  0  0  0  0  0
    2.0911    2.1059   -1.3211 C   0  0  0  0  0  0  0  0  0  0  0  0
    3.1885    2.1591   -0.5478 C   0  0  0  0  0  0  0  0  0  0  0  0
    3.2576    1.5874    0.8171 C   0  0  0  0  0  0  0  0  0  0  0  0
    2.9537    2.2740    1.7909 O   0  0  0  0  0  0  0  0  0  0  0  0
    3.7853    0.2085    0.9701 C   0  0  0  0  0  0  0  0  0  0  0  0
    4.1233   -0.6240   -0.1008 C   0  0  0  0  0  0  0  0  0  0  0  0
    4.6974   -1.8734    0.1548 C   0  0  0  0  0  0  0  0  0  0  0  0
    4.9015   -2.2516    1.4732 C   0  0  0  0  0  0  0  0  0  0  0  0
    4.5634   -1.4826    2.5309 N   0  0  0  0  0  0  0  0  0  0  0  0
    4.0071   -0.2713    2.2556 C   0  0  0  0  0  0  0  0  0  0  0  0
    0.2256    0.5610   -1.8280 C   0  0  0  0  0  0  0  0  0  0  0  0
   -1.0225   -0.0120   -1.5250 C   0  0  0  0  0  0  0  0  0  0  0  0
   -3.6009   -1.6109    2.2214 H   0  0  0  0  0  0  0  0  0  0  0  0
   -4.0990   -0.1887    3.1514 H   0  0  0  0  0  0  0  0  0  0  0  0
   -2.4140   -0.3617    2.6250 H   0  0  0  0  0  0  0  0  0  0  0  0
   -4.8707    0.0144    0.8218 H   0  0  0  0  0  0  0  0  0  0  0  0
   -3.7494    1.2918    1.1868 H   0  0  0  0  0  0  0  0  0  0  0  0
   -4.1228   -2.0287   -0.1628 H   0  0  0  0  0  0  0  0  0  0  0  0
   -2.6882   -2.0827   -1.1376 H   0  0  0  0  0  0  0  0  0  0  0  0
   -5.2115   -0.4009   -1.6818 H   0  0  0  0  0  0  0  0  0  0  0  0
   -4.6891   -1.8461   -2.5635 H   0  0  0  0  0  0  0  0  0  0  0  0
   -3.7659   -0.3411   -2.6993 H   0  0  0  0  0  0  0  0  0  0  0  0
   -1.6192    1.5923    1.3935 H   0  0  0  0  0  0  0  0  0  0  0  0
    0.5055    2.5938    0.8681 H   0  0  0  0  0  0  0  0  0  0  0  0
    2.1294    2.5415   -2.3182 H   0  0  0  0  0  0  0  0  0  0  0  0
    4.0914    2.6547   -0.8876 H   0  0  0  0  0  0  0  0  0  0  0  0
    3.9686   -0.3191   -1.1305 H   0  0  0  0  0  0  0  0  0  0  0  0
    4.9923   -2.5327   -0.6561 H   0  0  0  0  0  0  0  0  0  0  0  0
    5.3731   -3.2046    1.7232 H   0  0  0  0  0  0  0  0  0  0  0  0
    3.7700    0.3276    3.1317 H   0  0  0  0  0  0  0  0  0  0  0  0
    0.7256    0.2679   -2.7483 H   0  0  0  0  0  0  0  0  0  0  0  0
   -1.4250   -0.7160   -2.2505 H   0  0  0  0  0  0  0  0  0  0  0  0
  1  2  1  0
  2  3  1  0
  3  4  1  0
  4  5  1  0
  3  6  1  0
  6  7  2  0
  7  8  1  0
  8  9  2  0
  9 10  1  0
 10 11  2  3
 11 12  1  0
 12 13  2  0
 12 14  1  0
 14 15  2  0
 15 16  1  0
 16 17  2  0
 17 18  1  0
 18 19  2  0
  9 20  1  0
 20 21  2  0
 21  6  1  0
 19 14  1  0
  1 22  1  0
  1 23  1  0
  1 24  1  0
  2 25  1  0
  2 26  1  0
  4 27  1  0
  4 28  1  0
  5 29  1  0
  5 30  1  0
  5 31  1  0
  7 32  1  0
  8 33  1  0
 10 34  1  0
 11 35  1  0
 15 36  1  0
 16 37  1  0
 17 38  1  0
 19 39  1  0
 20 40  1  0
 21 41  1  0
M  END
$$$$
