
     RDKit          3D

 48 49  0  0  0  0  0  0  0  0999 V2000
   -7.5317   -1.8675    1.2264 C   0  0  0  0  0  0  0  0  0  0  0  0
   -6.8279   -0.7131    0.5753 C   0  0  0  0  0  0  0  0  0  0  0  0
   -7.5548    0.3522    0.0457 C   0  0  0  0  0  0  0  0  0  0  0  0
   -6.8909    1.4347   -0.5284 C   0  0  0  0  0  0  0  0  0  0  0  0
   -5.4867    1.4796   -0.5756 C   0  0  0  0  0  0  0  0  0  0  0  0
   -4.8370    2.6796   -1.2120 C   0  0  0  0  0  0  0  0  0  0  0  0
   -4.7404    0.4126   -0.0282 C   0  0  0  0  0  0  0  0  0  0  0  0
   -3.3269    0.4754   -0.0775 N   0  0  0  0  0  0  0  0  0  0  0  0
   -2.4114   -0.4531    0.3897 C   0  0  0  0  0  0  0  0  0  0  0  0
   -2.6536   -1.5195    0.9427 O   0  0  0  0  0  0  0  0  0  0  0  0
   -0.9864    0.0022    0.1360 C   0  0  0  0  0  0  0  0  0  0  0  0
    0.0273   -1.0152    0.6457 C   0  0  0  0  0  0  0  0  0  0  0  0
    1.4494   -0.5603    0.3945 C   0  0  0  0  0  0  0  0  0  0  0  0
    1.7174    0.5085   -0.1465 O   0  0  0  0  0  0  0  0  0  0  0  0
    2.3752   -1.4998    0.8502 N   0  0  0  0  0  0  0  0  0  0  0  0
    3.7311   -1.2931    0.8962 N   0  0  0  0  0  0  0  0  0  0  0  0
    4.2753   -0.6728   -0.1058 C   0  0  0  0  0  0  0  0  0  0  0  0
    5.7203   -0.3567   -0.1149 C   0  0  0  0  0  0  0  0  0  0  0  0
    6.2383    0.3074   -1.2321 C   0  0  0  0  0  0  0  0  0  0  0  0
    7.6056    0.6202   -1.2707 C   0  0  0  0  0  0  0  0  0  0  0  0
    8.1572    1.3151   -2.4412 N   0  0  0  0  0  4  0  0  0  0  0  0
    9.3676    1.5784   -2.4389 O   0  0  0  0  0  0  0  0  0  0  0  0
    7.3774    1.5936   -3.3630 O   0  0  0  0  0  1  0  0  0  0  0  0
    8.4516    0.2765   -0.2070 C   0  0  0  0  0  0  0  0  0  0  0  0
    7.9245   -0.3848    0.9036 C   0  0  0  0  0  0  0  0  0  0  0  0
    6.5668   -0.6979    0.9487 C   0  0  0  0  0  0  0  0  0  0  0  0
    6.1310   -1.3437    2.0727 O   0  0  0  0  0  0  0  0  0  0  0  0
   -5.4253   -0.6672    0.5450 C   0  0  0  0  0  0  0  0  0  0  0  0
   -8.5212   -2.0228    0.7837 H   0  0  0  0  0  0  0  0  0  0  0  0
   -6.9670   -2.7959    1.0908 H   0  0  0  0  0  0  0  0  0  0  0  0
   -7.6500   -1.6769    2.2977 H   0  0  0  0  0  0  0  0  0  0  0  0
   -8.6419    0.3469    0.0755 H   0  0  0  0  0  0  0  0  0  0  0  0
   -7.4825    2.2503   -0.9396 H   0  0  0  0  0  0  0  0  0  0  0  0
   -5.5802    3.3990   -1.5730 H   0  0  0  0  0  0  0  0  0  0  0  0
   -4.2344    2.3730   -2.0731 H   0  0  0  0  0  0  0  0  0  0  0  0
   -4.2054    3.2005   -0.4852 H   0  0  0  0  0  0  0  0  0  0  0  0
   -2.9352    1.3008   -0.5103 H   0  0  0  0  0  0  0  0  0  0  0  0
   -0.8358    0.9668    0.6359 H   0  0  0  0  0  0  0  0  0  0  0  0
   -0.8569    0.1545   -0.9423 H   0  0  0  0  0  0  0  0  0  0  0  0
   -0.1026   -1.1682    1.7239 H   0  0  0  0  0  0  0  0  0  0  0  0
   -0.1212   -1.9796    0.1449 H   0  0  0  0  0  0  0  0  0  0  0  0
    2.0432   -2.1805    1.5300 H   0  0  0  0  0  0  0  0  0  0  0  0
    3.7061   -0.3772   -1.0042 H   0  0  0  0  0  0  0  0  0  0  0  0
    5.5828    0.5782   -2.0575 H   0  0  0  0  0  0  0  0  0  0  0  0
    9.5137    0.5140   -0.2257 H   0  0  0  0  0  0  0  0  0  0  0  0
    8.5697   -0.6564    1.7366 H   0  0  0  0  0  0  0  0  0  0  0  0
    5.1630   -1.4828    1.9773 H   0  0  0  0  0  0  0  0  0  0  0  0
   -4.8869   -1.5015    0.9842 H   0  0  0  0  0  0  0  0  0  0  0  0
  1  2  1  0
  2  3  2  0
  3  4  1  0
  4  5  2  0
  5  6  1  0
  5  7  1  0
  7  8  1  0
  8  9  1  0
  9 10  2  0
  9 11  1  0
 11 12  1  0
 12 13  1  0
 13 14  2  0
 13 15  1  0
 15 16  1  0
 16 17  2  3
 17 18  1  0
 18 19  2  0
 19 20  1  0
 20 21  1  0
 21 22  2  0
 21 23  1  0
 20 24  2  0
 24 25  1  0
 25 26  2  0
 26 27  1  0
  7 28  2  0
 28  2  1  0
 26 18  1  0
  1 29  1  0
  1 30  1  0
  1 31  1  0
  3 32  1  0
  4 33  1  0
  6 34  1  0
  6 35  1  0
  6 36  1  0
  8 37  1  0
 11 38  1  0
 11 39  1  0
 12 40  1  0
 12 41  1  0
 15 42  1  0
 17 43  1  0
 19 44  1  0
 24 45  1  0
 25 46  1  0
 27 47  1  0
 28 48  1  0
M  CHG  2  21   1  23  -1
M  END
$$$$
