
     RDKit          3D

 45 49  0  0  0  0  0  0  0  0999 V2000
    0.8950    0.6779   -1.9008 O   0  0  0  0  0  0  0  0  0  0  0  0
    1.4489    0.1104   -0.9708 C   0  0  0  0  0  0  0  0  0  0  0  0
    0.8594   -0.5913    0.0428 O   0  0  0  0  0  0  0  0  0  0  0  0
   -0.5385   -0.4497    0.0641 C   0  0  0  0  0  0  0  0  0  0  0  0
   -1.1623    0.5844    0.6814 C   0  0  0  0  0  0  0  0  0  0  0  0
   -0.3665    1.6302    1.3485 C   0  0  0  0  0  0  0  0  0  0  0  0
   -0.0935    2.8352    0.6894 C   0  0  0  0  0  0  0  0  0  0  0  0
    0.6970    3.8086    1.3023 C   0  0  0  0  0  0  0  0  0  0  0  0
    1.2179    3.5847    2.5760 C   0  0  0  0  0  0  0  0  0  0  0  0
    0.9487    2.3885    3.2401 C   0  0  0  0  0  0  0  0  0  0  0  0
    0.1597    1.4125    2.6288 C   0  0  0  0  0  0  0  0  0  0  0  0
   -2.6759    0.6804    0.6893 C   0  0  0  0  0  0  0  0  0  0  0  0
   -3.2626    1.6170    1.2254 O   0  0  0  0  0  0  0  0  0  0  0  0
   -3.3331   -0.3513    0.0716 N   0  0  0  0  0  0  0  0  0  0  0  0
   -2.6771   -1.4133   -0.5228 C   0  0  0  0  0  0  0  0  0  0  0  0
   -3.5698   -2.3254   -1.0612 C   0  0  0  0  0  0  0  0  0  0  0  0
   -3.0808   -3.4533   -1.6887 C   0  0  0  0  0  0  0  0  0  0  0  0
   -1.6881   -3.6241   -1.7514 C   0  0  0  0  0  0  0  0  0  0  0  0
   -0.8040   -2.6740   -1.1925 C   0  0  0  0  0  0  0  0  0  0  0  0
   -1.3041   -1.5355   -0.5610 C   0  0  0  0  0  0  0  0  0  0  0  0
   -4.9776   -1.8652   -0.8341 C   0  0  0  0  0  0  0  0  0  0  0  0
   -4.7763   -0.5320   -0.0701 C   0  0  0  0  0  0  0  0  0  0  0  0
    2.9287    0.0704   -0.8141 C   0  0  0  0  0  0  0  0  0  0  0  0
    3.7189    0.5035   -1.8892 C   0  0  0  0  0  0  0  0  0  0  0  0
    5.1131    0.4935   -1.7900 C   0  0  0  0  0  0  0  0  0  0  0  0
    5.7200    0.0555   -0.6146 C   0  0  0  0  0  0  0  0  0  0  0  0
    7.4353    0.0434   -0.4912 Cl  0  0  0  0  0  0  0  0  0  0  0  0
    4.9454   -0.3704    0.4637 C   0  0  0  0  0  0  0  0  0  0  0  0
    3.5501   -0.3621    0.3670 C   0  0  0  0  0  0  0  0  0  0  0  0
   -0.4913    3.0186   -0.3070 H   0  0  0  0  0  0  0  0  0  0  0  0
    0.9022    4.7427    0.7857 H   0  0  0  0  0  0  0  0  0  0  0  0
    1.8283    4.3467    3.0539 H   0  0  0  0  0  0  0  0  0  0  0  0
    1.3482    2.2187    4.2364 H   0  0  0  0  0  0  0  0  0  0  0  0
   -0.0464    0.4852    3.1579 H   0  0  0  0  0  0  0  0  0  0  0  0
   -3.7477   -4.1905   -2.1244 H   0  0  0  0  0  0  0  0  0  0  0  0
   -1.2797   -4.5050   -2.2435 H   0  0  0  0  0  0  0  0  0  0  0  0
    0.2669   -2.8427   -1.2662 H   0  0  0  0  0  0  0  0  0  0  0  0
   -5.4983   -1.6976   -1.7817 H   0  0  0  0  0  0  0  0  0  0  0  0
   -5.5364   -2.5831   -0.2261 H   0  0  0  0  0  0  0  0  0  0  0  0
   -5.2340   -0.5567    0.9249 H   0  0  0  0  0  0  0  0  0  0  0  0
   -5.1915    0.3209   -0.6180 H   0  0  0  0  0  0  0  0  0  0  0  0
    3.2512    0.8526   -2.8087 H   0  0  0  0  0  0  0  0  0  0  0  0
    5.7155    0.8307   -2.6298 H   0  0  0  0  0  0  0  0  0  0  0  0
    5.4200   -0.7048    1.3830 H   0  0  0  0  0  0  0  0  0  0  0  0
    2.9653   -0.6842    1.2256 H   0  0  0  0  0  0  0  0  0  0  0  0
  1  2  2  0
  2  3  1  0
  3  4  1  0
  4  5  2  0
  5  6  1  0
  6  7  2  0
  7  8  1  0
  8  9  2  0
  9 10  1  0
 10 11  2  0
  5 12  1  0
 12 13  2  0
 12 14  1  0
 14 15  1  0
 15 16  2  0
 16 17  1  0
 17 18  2  0
 18 19  1  0
 19 20  2  0
 16 21  1  0
 21 22  1  0
  2 23  1  0
 23 24  2  0
 24 25  1  0
 25 26  2  0
 26 27  1  0
 26 28  1  0
 28 29  2  0
 20  4  1  0
 29 23  1  0
 11  6  1  0
 22 14  1  0
 20 15  1  0
  7 30  1  0
  8 31  1  0
  9 32  1  0
 10 33  1  0
 11 34  1  0
 17 35  1  0
 18 36  1  0
 19 37  1  0
 21 38  1  0
 21 39  1  0
 22 40  1  0
 22 41  1  0
 24 42  1  0
 25 43  1  0
 28 44  1  0
 29 45  1  0
M  END
$$$$
