
     RDKit          3D

 40 42  0  0  0  0  0  0  0  0999 V2000
    5.2724   -0.5175   -0.1554 N   0  0  0  0  0  0  0  0  0  0  0  0
    3.9527    0.0986   -0.1384 C   0  0  0  0  0  0  0  0  0  0  0  0
    2.9896   -0.7488    0.6925 C   0  0  0  0  0  0  0  0  0  0  0  0
    1.6060   -0.1103    0.8510 C   0  0  0  0  0  0  0  0  0  0  0  0
    0.8390    0.0020   -0.4761 C   0  0  0  0  0  0  0  0  0  0  0  0
   -0.5549    0.4574   -0.2652 N   0  0  0  0  0  0  0  0  0  0  0  0
   -0.8013    1.8593   -0.3579 C   0  0  0  0  0  0  0  0  0  0  0  0
    0.2369    2.8152   -0.2690 C   0  0  0  0  0  0  0  0  0  0  0  0
    0.0039    4.1942   -0.3450 C   0  0  0  0  0  0  0  0  0  0  0  0
   -1.2851    4.6699   -0.5103 C   0  0  0  0  0  0  0  0  0  0  0  0
   -2.3339    3.7625   -0.5959 C   0  0  0  0  0  0  0  0  0  0  0  0
   -2.1042    2.3739   -0.5172 C   0  0  0  0  0  0  0  0  0  0  0  0
   -3.5508    1.3548   -0.6742 S   0  0  0  0  0  0  0  0  0  0  0  0
   -2.9262   -0.2548   -0.2586 C   0  0  0  0  0  0  0  0  0  0  0  0
   -3.9032   -1.2569   -0.0992 C   0  0  0  0  0  0  0  0  0  0  0  0
   -3.5489   -2.5667    0.2062 C   0  0  0  0  0  0  0  0  0  0  0  0
   -2.2048   -2.8988    0.3535 C   0  0  0  0  0  0  0  0  0  0  0  0
   -1.7895   -4.3033    0.7150 C   0  0  0  0  0  0  0  0  0  0  0  0
   -1.6283   -4.4666    2.0565 F   0  0  0  0  0  0  0  0  0  0  0  0
   -0.6040   -4.6667    0.1492 F   0  0  0  0  0  0  0  0  0  0  0  0
   -2.6902   -5.2483    0.3266 F   0  0  0  0  0  0  0  0  0  0  0  0
   -1.2340   -1.8883    0.1990 C   0  0  0  0  0  0  0  0  0  0  0  0
   -1.5553   -0.5479   -0.1203 C   0  0  0  0  0  0  0  0  0  0  0  0
    5.9007    0.0321   -0.7406 H   0  0  0  0  0  0  0  0  0  0  0  0
    5.2228   -1.4430   -0.5799 H   0  0  0  0  0  0  0  0  0  0  0  0
    3.5956    0.1971   -1.1681 H   0  0  0  0  0  0  0  0  0  0  0  0
    4.0326    1.1044    0.2873 H   0  0  0  0  0  0  0  0  0  0  0  0
    3.4112   -0.8977    1.6951 H   0  0  0  0  0  0  0  0  0  0  0  0
    2.8827   -1.7454    0.2455 H   0  0  0  0  0  0  0  0  0  0  0  0
    1.0344   -0.7132    1.5660 H   0  0  0  0  0  0  0  0  0  0  0  0
    1.7131    0.8730    1.3218 H   0  0  0  0  0  0  0  0  0  0  0  0
    0.8609   -0.9569   -1.0101 H   0  0  0  0  0  0  0  0  0  0  0  0
    1.3625    0.6679   -1.1726 H   0  0  0  0  0  0  0  0  0  0  0  0
    1.2700    2.5215   -0.1188 H   0  0  0  0  0  0  0  0  0  0  0  0
    0.8358    4.8898   -0.2680 H   0  0  0  0  0  0  0  0  0  0  0  0
   -1.4770    5.7375   -0.5700 H   0  0  0  0  0  0  0  0  0  0  0  0
   -3.3448    4.1441   -0.7266 H   0  0  0  0  0  0  0  0  0  0  0  0
   -4.9588   -1.0149   -0.2142 H   0  0  0  0  0  0  0  0  0  0  0  0
   -4.3258   -3.3194    0.3285 H   0  0  0  0  0  0  0  0  0  0  0  0
   -0.2017   -2.1901    0.3574 H   0  0  0  0  0  0  0  0  0  0  0  0
  1  2  1  0
  2  3  1  0
  3  4  1  0
  4  5  1  0
  5  6  1  0
  6  7  1  0
  7  8  2  0
  8  9  1  0
  9 10  2  0
 10 11  1  0
 11 12  2  0
 12 13  1  0
 13 14  1  0
 14 15  2  0
 15 16  1  0
 16 17  2  0
 17 18  1  0
 18 19  1  0
 18 20  1  0
 18 21  1  0
 17 22  1  0
 22 23  2  0
 23  6  1  0
 12  7  1  0
 23 14  1  0
  1 24  1  0
  1 25  1  0
  2 26  1  0
  2 27  1  0
  3 28  1  0
  3 29  1  0
  4 30  1  0
  4 31  1  0
  5 32  1  0
  5 33  1  0
  8 34  1  0
  9 35  1  0
 10 36  1  0
 11 37  1  0
 15 38  1  0
 16 39  1  0
 22 40  1  0
M  END
$$$$
