
     RDKit          3D

 61 66  0  0  0  0  0  0  0  0999 V2000
   -9.0325   -2.0141   -1.9794 F   0  0  0  0  0  0  0  0  0  0  0  0
   -7.9730   -1.8616   -1.1745 C   0  0  0  0  0  0  0  0  0  0  0  0
   -7.5467   -2.9305   -0.3963 C   0  0  0  0  0  0  0  0  0  0  0  0
   -6.4474   -2.7689    0.4437 C   0  0  0  0  0  0  0  0  0  0  0  0
   -5.7865   -1.5381    0.4983 C   0  0  0  0  0  0  0  0  0  0  0  0
   -6.2141   -0.4572   -0.2879 C   0  0  0  0  0  0  0  0  0  0  0  0
   -5.5010    0.8746   -0.2260 C   0  0  0  0  0  0  0  0  0  0  0  0
   -4.1251    0.8815   -0.9235 C   0  0  0  0  0  0  0  0  0  0  0  0
   -3.0581    0.2184   -0.1550 N   0  0  0  0  0  0  0  0  0  0  0  0
   -2.6015    1.0085    1.0132 C   0  0  0  0  0  0  0  0  0  0  0  0
   -1.2200    1.6819    0.8480 C   0  0  0  0  0  0  0  0  0  0  0  0
   -0.1698    0.6793    0.5739 N   0  0  0  0  0  0  0  0  0  0  0  0
    1.1124    1.1210    0.3640 C   0  0  0  0  0  0  0  0  0  0  0  0
    1.5469    2.3230   -0.1671 C   0  0  0  0  0  0  0  0  0  0  0  0
    2.9401    2.2330   -0.3776 C   0  0  0  0  0  0  0  0  0  0  0  0
    3.3448    0.9849    0.0547 C   0  0  0  0  0  0  0  0  0  0  0  0
    4.6320    0.3243    0.0460 C   0  0  0  0  0  0  0  0  0  0  0  0
    5.7753    0.8959   -0.7122 C   0  0  0  0  0  0  0  0  0  0  0  0
    5.6232    1.3308   -2.0340 C   0  0  0  0  0  0  0  0  0  0  0  0
    6.7206    1.8461   -2.7268 C   0  0  0  0  0  0  0  0  0  0  0  0
    7.9682    1.9178   -2.1059 C   0  0  0  0  0  0  0  0  0  0  0  0
    8.1258    1.4668   -0.7950 C   0  0  0  0  0  0  0  0  0  0  0  0
    7.0322    0.9492   -0.0993 C   0  0  0  0  0  0  0  0  0  0  0  0
    4.8150   -0.7836    0.7022 N   0  0  0  0  0  0  0  0  0  0  0  0
    3.7416   -1.3393    1.4267 C   0  0  0  0  0  0  0  0  0  0  0  0
    3.9937   -2.4890    2.1806 C   0  0  0  0  0  0  0  0  0  0  0  0
    2.9877   -3.0725    2.9524 C   0  0  0  0  0  0  0  0  0  0  0  0
    1.7191   -2.4985    2.9879 C   0  0  0  0  0  0  0  0  0  0  0  0
    1.4473   -1.3517    2.2393 C   0  0  0  0  0  0  0  0  0  0  0  0
    2.4470   -0.7916    1.4388 C   0  0  0  0  0  0  0  0  0  0  0  0
    2.2567    0.3751    0.6579 N   0  0  0  0  0  0  0  0  0  0  0  0
   -0.6262   -0.4662   -0.2621 C   0  0  0  0  0  0  0  0  0  0  0  0
   -1.9194   -0.1285   -1.0366 C   0  0  0  0  0  0  0  0  0  0  0  0
   -7.3204   -0.6328   -1.1297 C   0  0  0  0  0  0  0  0  0  0  0  0
   -8.0715   -3.8787   -0.4492 H   0  0  0  0  0  0  0  0  0  0  0  0
   -6.1019   -3.5976    1.0563 H   0  0  0  0  0  0  0  0  0  0  0  0
   -4.9261   -1.4270    1.1559 H   0  0  0  0  0  0  0  0  0  0  0  0
   -6.1279    1.6337   -0.7127 H   0  0  0  0  0  0  0  0  0  0  0  0
   -5.4295    1.1913    0.8211 H   0  0  0  0  0  0  0  0  0  0  0  0
   -4.2405    0.3870   -1.8975 H   0  0  0  0  0  0  0  0  0  0  0  0
   -3.8339    1.9191   -1.1327 H   0  0  0  0  0  0  0  0  0  0  0  0
   -3.3316    1.7743    1.2982 H   0  0  0  0  0  0  0  0  0  0  0  0
   -2.5453    0.3153    1.8625 H   0  0  0  0  0  0  0  0  0  0  0  0
   -1.2791    2.4189    0.0375 H   0  0  0  0  0  0  0  0  0  0  0  0
   -0.9740    2.2180    1.7721 H   0  0  0  0  0  0  0  0  0  0  0  0
    0.9165    3.1533   -0.4544 H   0  0  0  0  0  0  0  0  0  0  0  0
    3.5692    2.9937   -0.8222 H   0  0  0  0  0  0  0  0  0  0  0  0
    4.6630    1.2533   -2.5373 H   0  0  0  0  0  0  0  0  0  0  0  0
    6.6058    2.1822   -3.7543 H   0  0  0  0  0  0  0  0  0  0  0  0
    8.8227    2.3156   -2.6484 H   0  0  0  0  0  0  0  0  0  0  0  0
    9.1007    1.5113   -0.3166 H   0  0  0  0  0  0  0  0  0  0  0  0
    7.1595    0.5889    0.9188 H   0  0  0  0  0  0  0  0  0  0  0  0
    4.9892   -2.9249    2.1690 H   0  0  0  0  0  0  0  0  0  0  0  0
    3.2008   -3.9633    3.5364 H   0  0  0  0  0  0  0  0  0  0  0  0
    0.9412   -2.9368    3.6085 H   0  0  0  0  0  0  0  0  0  0  0  0
    0.4641   -0.9023    2.3243 H   0  0  0  0  0  0  0  0  0  0  0  0
    0.1462   -0.7682   -0.9808 H   0  0  0  0  0  0  0  0  0  0  0  0
   -0.8159   -1.3269    0.3895 H   0  0  0  0  0  0  0  0  0  0  0  0
   -1.7022    0.7000   -1.7246 H   0  0  0  0  0  0  0  0  0  0  0  0
   -2.2000   -0.9942   -1.6479 H   0  0  0  0  0  0  0  0  0  0  0  0
   -7.6876    0.1759   -1.7534 H   0  0  0  0  0  0  0  0  0  0  0  0
  1  2  1  0
  2  3  2  0
  3  4  1  0
  4  5  2  0
  5  6  1  0
  6  7  1  0
  7  8  1  0
  8  9  1  0
  9 10  1  0
 10 11  1  0
 11 12  1  0
 12 13  1  0
 13 14  2  0
 14 15  1  0
 15 16  2  0
 16 17  1  0
 17 18  1  0
 18 19  2  0
 19 20  1  0
 20 21  2  0
 21 22  1  0
 22 23  2  0
 17 24  2  0
 24 25  1  0
 25 26  2  0
 26 27  1  0
 27 28  2  0
 28 29  1  0
 29 30  2  0
 30 31  1  0
 12 32  1  0
 32 33  1  0
  6 34  2  0
 34  2  1  0
 33  9  1  0
 31 13  1  0
 31 16  1  0
 23 18  1  0
 30 25  1  0
  3 35  1  0
  4 36  1  0
  5 37  1  0
  7 38  1  0
  7 39  1  0
  8 40  1  0
  8 41  1  0
 10 42  1  0
 10 43  1  0
 11 44  1  0
 11 45  1  0
 14 46  1  0
 15 47  1  0
 19 48  1  0
 20 49  1  0
 21 50  1  0
 22 51  1  0
 23 52  1  0
 26 53  1  0
 27 54  1  0
 28 55  1  0
 29 56  1  0
 32 57  1  0
 32 58  1  0
 33 59  1  0
 33 60  1  0
 34 61  1  0
M  END
$$$$
