
     RDKit          3D

 61 67  0  0  0  0  0  0  0  0999 V2000
    3.9769   -1.1544    2.2217 O   0  0  0  0  0  0  0  0  0  0  0  0
    3.5174   -0.5410    1.2616 C   0  0  0  0  0  0  0  0  0  0  0  0
    4.4244    0.3806    0.5417 C   0  0  0  0  0  0  0  0  0  0  0  0
    4.0646    1.7337    0.3578 C   0  0  0  0  0  0  0  0  0  0  0  0
    4.9348    2.6102   -0.2965 C   0  0  0  0  0  0  0  0  0  0  0  0
    6.1430    2.1055   -0.7305 C   0  0  0  0  0  0  0  0  0  0  0  0
    6.4991    0.7906   -0.5300 C   0  0  0  0  0  0  0  0  0  0  0  0
    5.6663   -0.1000    0.1112 C   0  0  0  0  0  0  0  0  0  0  0  0
    7.7326    0.5070   -1.0275 O   0  0  0  0  0  0  0  0  0  0  0  0
    8.1184    1.7942   -1.5529 C   0  0  0  0  0  0  0  0  0  0  0  0
    7.1084    2.8102   -1.3790 O   0  0  0  0  0  0  0  0  0  0  0  0
    2.1835   -0.6439    0.8421 N   0  0  0  0  0  0  0  0  0  0  0  0
    1.3395   -1.5528    1.6090 C   0  0  0  0  0  0  0  0  0  0  0  0
   -0.1354   -1.1755    1.5028 C   0  0  0  0  0  0  0  0  0  0  0  0
   -0.6074   -1.0625    0.0337 C   0  0  0  0  0  0  0  0  0  0  0  0
    0.3471   -0.0971   -0.7174 C   0  0  0  0  0  0  0  0  0  0  0  0
    1.8117   -0.5015   -0.5663 C   0  0  0  0  0  0  0  0  0  0  0  0
   -0.4021   -2.3393   -0.6266 O   0  0  0  0  0  0  0  0  0  0  0  0
   -1.3601   -3.2961   -0.4791 C   0  0  0  0  0  0  0  0  0  0  0  0
   -1.0103   -4.5812   -0.8942 C   0  0  0  0  0  0  0  0  0  0  0  0
   -1.9207   -5.6330   -0.7633 C   0  0  0  0  0  0  0  0  0  0  0  0
   -3.1825   -5.3951   -0.2189 C   0  0  0  0  0  0  0  0  0  0  0  0
   -4.2982   -6.6932   -0.0538 Cl  0  0  0  0  0  0  0  0  0  0  0  0
   -3.5445   -4.1142    0.1884 C   0  0  0  0  0  0  0  0  0  0  0  0
   -2.6281   -3.0673    0.0434 C   0  0  0  0  0  0  0  0  0  0  0  0
   -2.9871   -1.7015    0.4471 C   0  0  0  0  0  0  0  0  0  0  0  0
   -3.9600   -1.5199    1.1745 O   0  0  0  0  0  0  0  0  0  0  0  0
   -2.0850   -0.5898   -0.0772 C   0  0  0  0  0  0  0  0  0  0  0  0
   -2.4029    0.7362    0.6003 C   0  0  0  0  0  0  0  0  0  0  0  0
   -3.3186    1.3095   -0.4270 C   0  0  0  0  0  0  0  0  0  0  0  0
   -4.1452    2.5109   -0.1615 C   0  0  0  0  0  0  0  0  0  0  0  0
   -5.0275    2.9586   -1.1530 C   0  0  0  0  0  0  0  0  0  0  0  0
   -5.8164    4.0897   -0.9355 C   0  0  0  0  0  0  0  0  0  0  0  0
   -5.7273    4.7794    0.2720 C   0  0  0  0  0  0  0  0  0  0  0  0
   -4.8501    4.3400    1.2626 C   0  0  0  0  0  0  0  0  0  0  0  0
   -4.0585    3.2082    1.0489 C   0  0  0  0  0  0  0  0  0  0  0  0
   -3.3034    0.6994   -1.5693 N   0  0  0  0  0  0  0  0  0  0  0  0
   -2.4198   -0.3951   -1.4618 O   0  0  0  0  0  0  0  0  0  0  0  0
    3.1123    2.0999    0.7338 H   0  0  0  0  0  0  0  0  0  0  0  0
    4.6773    3.6521   -0.4505 H   0  0  0  0  0  0  0  0  0  0  0  0
    5.9643   -1.1290    0.2791 H   0  0  0  0  0  0  0  0  0  0  0  0
    9.0344    2.1197   -1.0468 H   0  0  0  0  0  0  0  0  0  0  0  0
    8.3267    1.6874   -2.6236 H   0  0  0  0  0  0  0  0  0  0  0  0
    1.6340   -1.5338    2.6647 H   0  0  0  0  0  0  0  0  0  0  0  0
    1.5180   -2.5710    1.2426 H   0  0  0  0  0  0  0  0  0  0  0  0
   -0.7158   -1.9298    2.0460 H   0  0  0  0  0  0  0  0  0  0  0  0
   -0.2868   -0.2193    2.0183 H   0  0  0  0  0  0  0  0  0  0  0  0
    0.1124   -0.0851   -1.7887 H   0  0  0  0  0  0  0  0  0  0  0  0
    0.2377    0.9272   -0.3464 H   0  0  0  0  0  0  0  0  0  0  0  0
    2.4389    0.2332   -1.0754 H   0  0  0  0  0  0  0  0  0  0  0  0
    2.0102   -1.4630   -1.0557 H   0  0  0  0  0  0  0  0  0  0  0  0
   -0.0252   -4.7686   -1.3153 H   0  0  0  0  0  0  0  0  0  0  0  0
   -1.6394   -6.6325   -1.0860 H   0  0  0  0  0  0  0  0  0  0  0  0
   -4.5317   -3.9266    0.6047 H   0  0  0  0  0  0  0  0  0  0  0  0
   -1.5429    1.4037    0.6921 H   0  0  0  0  0  0  0  0  0  0  0  0
   -2.8771    0.6349    1.5792 H   0  0  0  0  0  0  0  0  0  0  0  0
   -5.1092    2.4284   -2.0999 H   0  0  0  0  0  0  0  0  0  0  0  0
   -6.5011    4.4295   -1.7087 H   0  0  0  0  0  0  0  0  0  0  0  0
   -6.3436    5.6590    0.4416 H   0  0  0  0  0  0  0  0  0  0  0  0
   -4.7844    4.8796    2.2045 H   0  0  0  0  0  0  0  0  0  0  0  0
   -3.3859    2.8944    1.8409 H   0  0  0  0  0  0  0  0  0  0  0  0
  1  2  2  0
  2  3  1  0
  3  4  2  0
  4  5  1  0
  5  6  2  0
  6  7  1  0
  7  8  2  0
  7  9  1  0
  9 10  1  0
 10 11  1  0
  2 12  1  0
 12 13  1  0
 13 14  1  0
 14 15  1  0
 15 16  1  0
 16 17  1  0
 15 18  1  0
 18 19  1  0
 19 20  2  0
 20 21  1  0
 21 22  2  0
 22 23  1  0
 22 24  1  0
 24 25  2  0
 25 26  1  0
 26 27  2  0
 26 28  1  0
 28 29  1  0
 29 30  1  0
 30 31  1  0
 31 32  2  0
 32 33  1  0
 33 34  2  0
 34 35  1  0
 35 36  2  0
 30 37  2  0
 37 38  1  0
  8  3  1  0
 17 12  1  0
 25 19  1  0
 38 28  1  0
 11  6  1  0
 28 15  1  0
 36 31  1  0
  4 39  1  0
  5 40  1  0
  8 41  1  0
 10 42  1  0
 10 43  1  0
 13 44  1  0
 13 45  1  0
 14 46  1  0
 14 47  1  0
 16 48  1  0
 16 49  1  0
 17 50  1  0
 17 51  1  0
 20 52  1  0
 21 53  1  0
 24 54  1  0
 29 55  1  0
 29 56  1  0
 32 57  1  0
 33 58  1  0
 34 59  1  0
 35 60  1  0
 36 61  1  0
M  END
$$$$
