
     RDKit          3D

 43 45  0  0  0  0  0  0  0  0999 V2000
    7.8283   -0.4519    1.9358 C   0  0  0  0  0  0  0  0  0  0  0  0
    6.4628   -0.1514    1.6439 O   0  0  0  0  0  0  0  0  0  0  0  0
    6.0745   -0.5128    0.3956 C   0  0  0  0  0  0  0  0  0  0  0  0
    6.7782   -1.0519   -0.4440 O   0  0  0  0  0  0  0  0  0  0  0  0
    4.6457   -0.1639    0.1667 C   0  0  0  0  0  0  0  0  0  0  0  0
    3.8489    0.4341    1.1489 C   0  0  0  0  0  0  0  0  0  0  0  0
    2.5116    0.7372    0.8748 C   0  0  0  0  0  0  0  0  0  0  0  0
    1.9533    0.4492   -0.3737 C   0  0  0  0  0  0  0  0  0  0  0  0
    0.6375    0.7952   -0.5005 O   0  0  0  0  0  0  0  0  0  0  0  0
   -0.0024    0.4786   -1.7299 C   0  0  0  0  0  0  0  0  0  0  0  0
   -1.4732    0.9181   -1.6941 C   0  0  0  0  0  0  0  0  0  0  0  0
   -1.8173    1.8111   -2.4742 O   0  0  0  0  0  0  0  0  0  0  0  0
   -2.3350    0.2340   -0.8058 N   0  0  0  0  0  0  0  0  0  0  0  0
   -1.8980   -1.0337   -0.2026 C   0  0  0  0  0  0  0  0  0  0  0  0
   -2.7562   -1.5280    0.9466 C   0  0  0  0  0  0  0  0  0  0  0  0
   -4.1909   -1.6316    0.4820 C   0  0  0  0  0  0  0  0  0  0  0  0
   -4.6377   -0.2954   -0.0407 C   0  0  0  0  0  0  0  0  0  0  0  0
   -6.0022    0.0331    0.0711 C   0  0  0  0  0  0  0  0  0  0  0  0
   -6.4758    1.2594   -0.3790 C   0  0  0  0  0  0  0  0  0  0  0  0
   -5.5889    2.1662   -0.9400 C   0  0  0  0  0  0  0  0  0  0  0  0
   -4.2339    1.8385   -1.0705 C   0  0  0  0  0  0  0  0  0  0  0  0
   -3.7295    0.5962   -0.6545 C   0  0  0  0  0  0  0  0  0  0  0  0
    2.7464   -0.1437   -1.3558 C   0  0  0  0  0  0  0  0  0  0  0  0
    4.0861   -0.4497   -1.0858 C   0  0  0  0  0  0  0  0  0  0  0  0
    8.0040   -1.5307    1.8789 H   0  0  0  0  0  0  0  0  0  0  0  0
    8.4939    0.0867    1.2539 H   0  0  0  0  0  0  0  0  0  0  0  0
    8.0371   -0.1205    2.9567 H   0  0  0  0  0  0  0  0  0  0  0  0
    4.2508    0.6727    2.1303 H   0  0  0  0  0  0  0  0  0  0  0  0
    1.8995    1.2054    1.6430 H   0  0  0  0  0  0  0  0  0  0  0  0
    0.4798    1.0287   -2.5481 H   0  0  0  0  0  0  0  0  0  0  0  0
    0.0445   -0.5934   -1.9535 H   0  0  0  0  0  0  0  0  0  0  0  0
   -0.8785   -0.9347    0.1759 H   0  0  0  0  0  0  0  0  0  0  0  0
   -1.8707   -1.7796   -1.0074 H   0  0  0  0  0  0  0  0  0  0  0  0
   -2.6788   -0.8343    1.7939 H   0  0  0  0  0  0  0  0  0  0  0  0
   -2.3983   -2.5044    1.2913 H   0  0  0  0  0  0  0  0  0  0  0  0
   -4.8158   -1.9461    1.3261 H   0  0  0  0  0  0  0  0  0  0  0  0
   -4.2943   -2.3819   -0.3109 H   0  0  0  0  0  0  0  0  0  0  0  0
   -6.7006   -0.6692    0.5213 H   0  0  0  0  0  0  0  0  0  0  0  0
   -7.5284    1.5105   -0.2831 H   0  0  0  0  0  0  0  0  0  0  0  0
   -5.9415    3.1365   -1.2805 H   0  0  0  0  0  0  0  0  0  0  0  0
   -3.5924    2.6061   -1.4908 H   0  0  0  0  0  0  0  0  0  0  0  0
    2.3632   -0.3775   -2.3439 H   0  0  0  0  0  0  0  0  0  0  0  0
    4.6941   -0.9110   -1.8628 H   0  0  0  0  0  0  0  0  0  0  0  0
  1  2  1  0
  2  3  1  0
  3  4  2  0
  3  5  1  0
  5  6  2  0
  6  7  1  0
  7  8  2  0
  8  9  1  0
  9 10  1  0
 10 11  1  0
 11 12  2  0
 11 13  1  0
 13 14  1  0
 14 15  1  0
 15 16  1  0
 16 17  1  0
 17 18  2  0
 18 19  1  0
 19 20  2  0
 20 21  1  0
 21 22  2  0
  8 23  1  0
 23 24  2  0
 24  5  1  0
 22 13  1  0
 22 17  1  0
  1 25  1  0
  1 26  1  0
  1 27  1  0
  6 28  1  0
  7 29  1  0
 10 30  1  0
 10 31  1  0
 14 32  1  0
 14 33  1  0
 15 34  1  0
 15 35  1  0
 16 36  1  0
 16 37  1  0
 18 38  1  0
 19 39  1  0
 20 40  1  0
 21 41  1  0
 23 42  1  0
 24 43  1  0
M  END
$$$$
