
     RDKit          3D

 44 47  0  0  0  0  0  0  0  0999 V2000
   -1.9651   -1.2864   -1.6145 O   0  0  0  0  0  0  0  0  0  0  0  0
   -2.0507   -0.5887   -0.6151 C   0  0  0  0  0  0  0  0  0  0  0  0
   -2.1181   -1.0050    0.7020 O   0  0  0  0  0  0  0  0  0  0  0  0
   -2.0371   -2.3957    0.8523 C   0  0  0  0  0  0  0  0  0  0  0  0
   -3.2226   -3.0780    1.1325 C   0  0  0  0  0  0  0  0  0  0  0  0
   -3.1879   -4.4569    1.3287 C   0  0  0  0  0  0  0  0  0  0  0  0
   -1.9733   -5.1406    1.2588 C   0  0  0  0  0  0  0  0  0  0  0  0
   -0.7871   -4.4478    0.9947 C   0  0  0  0  0  0  0  0  0  0  0  0
   -0.8033   -3.0621    0.7887 C   0  0  0  0  0  0  0  0  0  0  0  0
    0.4428   -2.3275    0.5369 C   0  0  0  0  0  0  0  0  0  0  0  0
    1.2319   -2.6183   -0.5076 C   0  0  0  0  0  0  0  0  0  0  0  0
    2.4970   -1.9159   -0.8721 C   0  0  0  0  0  0  0  0  0  0  0  0
    3.3343   -2.5809   -1.4871 O   0  0  0  0  0  0  0  0  0  0  0  0
    2.7199   -0.5229   -0.5376 C   0  0  0  0  0  0  0  0  0  0  0  0
    3.8619    0.2474   -0.6802 C   0  0  0  0  0  0  0  0  0  0  0  0
    3.5449    1.5547   -0.2334 C   0  0  0  0  0  0  0  0  0  0  0  0
    4.2352    2.7735   -0.1148 C   0  0  0  0  0  0  0  0  0  0  0  0
    3.5496    3.8879    0.3903 C   0  0  0  0  0  0  0  0  0  0  0  0
    2.2080    3.7967    0.7706 C   0  0  0  0  0  0  0  0  0  0  0  0
    1.5059    2.5922    0.6596 C   0  0  0  0  0  0  0  0  0  0  0  0
    2.2121    1.5051    0.1520 C   0  0  0  0  0  0  0  0  0  0  0  0
    1.7093    0.2554   -0.0390 O   0  0  0  0  0  0  0  0  0  0  0  0
   -2.0667    0.8970   -0.6585 C   0  0  0  0  0  0  0  0  0  0  0  0
   -1.5721    1.5293   -1.8067 C   0  0  0  0  0  0  0  0  0  0  0  0
   -1.5724    2.9223   -1.8965 C   0  0  0  0  0  0  0  0  0  0  0  0
   -2.0742    3.6889   -0.8452 C   0  0  0  0  0  0  0  0  0  0  0  0
   -2.5755    3.0661    0.2978 C   0  0  0  0  0  0  0  0  0  0  0  0
   -2.5722    1.6724    0.3946 C   0  0  0  0  0  0  0  0  0  0  0  0
   -4.1649   -2.5419    1.1900 H   0  0  0  0  0  0  0  0  0  0  0  0
   -4.1061   -5.0001    1.5370 H   0  0  0  0  0  0  0  0  0  0  0  0
   -1.9473   -6.2166    1.4138 H   0  0  0  0  0  0  0  0  0  0  0  0
    0.1491   -5.0006    0.9587 H   0  0  0  0  0  0  0  0  0  0  0  0
    0.6554   -1.5170    1.2267 H   0  0  0  0  0  0  0  0  0  0  0  0
    0.9993   -3.4475   -1.1703 H   0  0  0  0  0  0  0  0  0  0  0  0
    4.8079   -0.1065   -1.0671 H   0  0  0  0  0  0  0  0  0  0  0  0
    5.2777    2.8548   -0.4074 H   0  0  0  0  0  0  0  0  0  0  0  0
    4.0721    4.8375    0.4869 H   0  0  0  0  0  0  0  0  0  0  0  0
    1.6991    4.6762    1.1593 H   0  0  0  0  0  0  0  0  0  0  0  0
    0.4669    2.5051    0.9495 H   0  0  0  0  0  0  0  0  0  0  0  0
   -1.1797    0.9384   -2.6325 H   0  0  0  0  0  0  0  0  0  0  0  0
   -1.1816    3.4079   -2.7875 H   0  0  0  0  0  0  0  0  0  0  0  0
   -2.0766    4.7739   -0.9192 H   0  0  0  0  0  0  0  0  0  0  0  0
   -2.9713    3.6668    1.1134 H   0  0  0  0  0  0  0  0  0  0  0  0
   -2.9745    1.2072    1.2909 H   0  0  0  0  0  0  0  0  0  0  0  0
  1  2  2  0
  2  3  1  0
  3  4  1  0
  4  5  2  0
  5  6  1  0
  6  7  2  0
  7  8  1  0
  8  9  2  0
  9 10  1  0
 10 11  2  3
 11 12  1  0
 12 13  2  0
 12 14  1  0
 14 15  2  0
 15 16  1  0
 16 17  2  0
 17 18  1  0
 18 19  2  0
 19 20  1  0
 20 21  2  0
 21 22  1  0
  2 23  1  0
 23 24  2  0
 24 25  1  0
 25 26  2  0
 26 27  1  0
 27 28  2  0
  9  4  1  0
 22 14  1  0
 28 23  1  0
 21 16  1  0
  5 29  1  0
  6 30  1  0
  7 31  1  0
  8 32  1  0
 10 33  1  0
 11 34  1  0
 15 35  1  0
 17 36  1  0
 18 37  1  0
 19 38  1  0
 20 39  1  0
 24 40  1  0
 25 41  1  0
 26 42  1  0
 27 43  1  0
 28 44  1  0
M  END
$$$$
