
     RDKit          3D

 48 51  0  0  0  0  0  0  0  0999 V2000
    3.2798    1.6167   -2.2593 C   0  0  0  0  0  0  0  0  0  0  0  0
    3.5518    1.5636   -0.7635 C   0  0  0  0  0  0  0  0  0  0  0  0
    2.9852    0.3531   -0.1755 N   0  0  0  0  0  0  0  0  0  0  0  0
    1.7060    0.1833    0.3644 C   0  0  0  0  0  0  0  0  0  0  0  0
    0.7286    1.1102    0.3989 C   0  0  0  0  0  0  0  0  0  0  0  0
   -0.6196    0.9424    0.9680 C   0  0  0  0  0  0  0  0  0  0  0  0
   -0.7193    0.9616    2.3549 C   0  0  0  0  0  0  0  0  0  0  0  0
   -1.9464    0.8142    2.9555 C   0  0  0  0  0  0  0  0  0  0  0  0
   -3.0821    0.7281    2.1672 C   0  0  0  0  0  0  0  0  0  0  0  0
   -4.3027    0.5940    2.8360 C   0  0  0  0  0  0  0  0  0  0  0  0
   -5.4899    0.5381    2.1306 C   0  0  0  0  0  0  0  0  0  0  0  0
   -5.4643    0.6611    0.7511 C   0  0  0  0  0  0  0  0  0  0  0  0
   -4.2524    0.8164    0.0328 C   0  0  0  0  0  0  0  0  0  0  0  0
   -4.4614    1.0824   -1.4373 C   0  0  0  0  0  0  0  0  0  0  0  0
   -3.0054    0.7867    0.7298 C   0  0  0  0  0  0  0  0  0  0  0  0
   -1.7305    0.8110    0.1697 N   0  0  0  0  0  4  0  0  0  0  0  0
   -1.4989    0.5435   -1.2823 C   0  0  0  0  0  0  0  0  0  0  0  0
   -1.6620   -0.9375   -1.5754 C   0  0  0  0  0  0  0  0  0  0  0  0
    1.4109   -1.4572    1.0079 S   0  0  0  0  0  0  0  0  0  0  0  0
    3.0540   -1.9192    0.4801 C   0  0  0  0  0  0  0  0  0  0  0  0
    3.6259   -3.1758    0.6234 C   0  0  0  0  0  0  0  0  0  0  0  0
    4.9197   -3.3721    0.1457 C   0  0  0  0  0  0  0  0  0  0  0  0
    5.6134   -2.3200   -0.4638 C   0  0  0  0  0  0  0  0  0  0  0  0
    5.0253   -1.0557   -0.6023 C   0  0  0  0  0  0  0  0  0  0  0  0
    3.7357   -0.8410   -0.1271 C   0  0  0  0  0  0  0  0  0  0  0  0
    3.6925    2.5359   -2.6866 H   0  0  0  0  0  0  0  0  0  0  0  0
    3.7343    0.7670   -2.7786 H   0  0  0  0  0  0  0  0  0  0  0  0
    2.2048    1.5983   -2.4666 H   0  0  0  0  0  0  0  0  0  0  0  0
    4.6276    1.6420   -0.5705 H   0  0  0  0  0  0  0  0  0  0  0  0
    3.1189    2.4523   -0.2893 H   0  0  0  0  0  0  0  0  0  0  0  0
    0.9061    2.0997   -0.0121 H   0  0  0  0  0  0  0  0  0  0  0  0
    0.1695    1.0605    2.9776 H   0  0  0  0  0  0  0  0  0  0  0  0
   -2.0025    0.7897    4.0438 H   0  0  0  0  0  0  0  0  0  0  0  0
   -4.3484    0.5309    3.9237 H   0  0  0  0  0  0  0  0  0  0  0  0
   -6.4375    0.4292    2.6554 H   0  0  0  0  0  0  0  0  0  0  0  0
   -6.4234    0.6586    0.2292 H   0  0  0  0  0  0  0  0  0  0  0  0
   -4.1101    0.2521   -2.0522 H   0  0  0  0  0  0  0  0  0  0  0  0
   -5.5231    1.2075   -1.6827 H   0  0  0  0  0  0  0  0  0  0  0  0
   -3.9885    2.0269   -1.7225 H   0  0  0  0  0  0  0  0  0  0  0  0
   -0.4950    0.8536   -1.5794 H   0  0  0  0  0  0  0  0  0  0  0  0
   -2.1374    1.1862   -1.8782 H   0  0  0  0  0  0  0  0  0  0  0  0
   -0.9091   -1.5269   -1.0459 H   0  0  0  0  0  0  0  0  0  0  0  0
   -2.6400   -1.3188   -1.2705 H   0  0  0  0  0  0  0  0  0  0  0  0
   -1.5417   -1.1246   -2.6469 H   0  0  0  0  0  0  0  0  0  0  0  0
    3.0851   -3.9896    1.0956 H   0  0  0  0  0  0  0  0  0  0  0  0
    5.3943   -4.3461    0.2457 H   0  0  0  0  0  0  0  0  0  0  0  0
    6.6235   -2.4875   -0.8337 H   0  0  0  0  0  0  0  0  0  0  0  0
    5.5986   -0.2717   -1.0846 H   0  0  0  0  0  0  0  0  0  0  0  0
  1  2  1  0
  2  3  1  0
  3  4  1  0
  4  5  2  3
  5  6  1  0
  6  7  2  0
  7  8  1  0
  8  9  2  0
  9 10  1  0
 10 11  2  0
 11 12  1  0
 12 13  2  0
 13 14  1  0
 13 15  1  0
 15 16  2  0
 16 17  1  0
 17 18  1  0
  4 19  1  0
 19 20  1  0
 20 21  2  0
 21 22  1  0
 22 23  2  0
 23 24  1  0
 24 25  2  0
 25  3  1  0
 16  6  1  0
 25 20  1  0
 15  9  1  0
  1 26  1  0
  1 27  1  0
  1 28  1  0
  2 29  1  0
  2 30  1  0
  5 31  1  0
  7 32  1  0
  8 33  1  0
 10 34  1  0
 11 35  1  0
 12 36  1  0
 14 37  1  0
 14 38  1  0
 14 39  1  0
 17 40  1  0
 17 41  1  0
 18 42  1  0
 18 43  1  0
 18 44  1  0
 21 45  1  0
 22 46  1  0
 23 47  1  0
 24 48  1  0
M  CHG  1  16   1
M  END
$$$$
