
     RDKit          3D

 39 40  0  0  0  0  0  0  0  0999 V2000
    6.5968    2.0045   -1.9311 C   0  0  0  0  0  0  0  0  0  0  0  0
    5.0933    1.7686   -1.9169 C   0  0  0  0  0  0  0  0  0  0  0  0
    4.6159    0.9232   -0.7227 C   0  0  0  0  0  0  0  0  0  0  0  0
    5.1374   -0.5136   -0.7919 C   0  0  0  0  0  0  0  0  0  0  0  0
    3.0821    0.9116   -0.6486 C   0  0  0  0  0  0  0  0  0  0  0  0
    2.3906    1.2676   -1.5962 O   0  0  0  0  0  0  0  0  0  0  0  0
    2.6262    0.4539    0.5689 N   0  0  0  0  0  0  0  0  0  0  0  0
    1.3195    0.3058    0.9607 C   0  0  0  0  0  0  0  0  0  0  0  0
    0.9996   -0.1340    2.1580 N   0  0  0  0  0  0  0  0  0  0  0  0
   -0.3667   -0.2073    2.3402 N   0  0  0  0  0  0  0  0  0  0  0  0
   -1.0259    0.1809    1.2681 C   0  0  0  0  0  0  0  0  0  0  0  0
   -2.5133    0.2107    1.1490 C   0  0  0  0  0  0  0  0  0  0  0  0
   -3.0615   -1.1719    0.7928 C   0  0  0  0  0  0  0  0  0  0  0  0
   -4.5650   -1.1569    0.6709 C   0  0  0  0  0  0  0  0  0  0  0  0
   -5.3701   -1.3817    1.7956 C   0  0  0  0  0  0  0  0  0  0  0  0
   -6.7610   -1.3461    1.6871 C   0  0  0  0  0  0  0  0  0  0  0  0
   -7.3589   -1.0820    0.4562 C   0  0  0  0  0  0  0  0  0  0  0  0
   -6.5668   -0.8523   -0.6672 C   0  0  0  0  0  0  0  0  0  0  0  0
   -5.1756   -0.8873   -0.5612 C   0  0  0  0  0  0  0  0  0  0  0  0
   -0.0154    0.6601   -0.0346 S   0  0  0  0  0  0  0  0  0  0  0  0
    7.1487    1.0741   -2.0926 H   0  0  0  0  0  0  0  0  0  0  0  0
    6.9340    2.4501   -0.9901 H   0  0  0  0  0  0  0  0  0  0  0  0
    6.8608    2.6896   -2.7433 H   0  0  0  0  0  0  0  0  0  0  0  0
    4.5952    2.7463   -1.8885 H   0  0  0  0  0  0  0  0  0  0  0  0
    4.7938    1.2963   -2.8608 H   0  0  0  0  0  0  0  0  0  0  0  0
    4.9830    1.3922    0.2000 H   0  0  0  0  0  0  0  0  0  0  0  0
    6.2301   -0.5445   -0.7484 H   0  0  0  0  0  0  0  0  0  0  0  0
    4.7642   -1.1186    0.0411 H   0  0  0  0  0  0  0  0  0  0  0  0
    4.8164   -1.0028   -1.7182 H   0  0  0  0  0  0  0  0  0  0  0  0
    3.2874    0.2005    1.2899 H   0  0  0  0  0  0  0  0  0  0  0  0
   -2.8263    0.9508    0.4016 H   0  0  0  0  0  0  0  0  0  0  0  0
   -2.9346    0.5464    2.1053 H   0  0  0  0  0  0  0  0  0  0  0  0
   -2.7653   -1.9095    1.5505 H   0  0  0  0  0  0  0  0  0  0  0  0
   -2.6246   -1.5282   -0.1495 H   0  0  0  0  0  0  0  0  0  0  0  0
   -4.9184   -1.5872    2.7638 H   0  0  0  0  0  0  0  0  0  0  0  0
   -7.3784   -1.5245    2.5636 H   0  0  0  0  0  0  0  0  0  0  0  0
   -8.4421   -1.0550    0.3727 H   0  0  0  0  0  0  0  0  0  0  0  0
   -7.0331   -0.6455   -1.6270 H   0  0  0  0  0  0  0  0  0  0  0  0
   -4.5720   -0.7041   -1.4475 H   0  0  0  0  0  0  0  0  0  0  0  0
  1  2  1  0
  2  3  1  0
  3  4  1  0
  3  5  1  0
  5  6  2  0
  5  7  1  0
  7  8  1  0
  8  9  2  0
  9 10  1  0
 10 11  2  0
 11 12  1  0
 12 13  1  0
 13 14  1  0
 14 15  2  0
 15 16  1  0
 16 17  2  0
 17 18  1  0
 18 19  2  0
 11 20  1  0
 20  8  1  0
 19 14  1  0
  1 21  1  0
  1 22  1  0
  1 23  1  0
  2 24  1  0
  2 25  1  0
  3 26  1  0
  4 27  1  0
  4 28  1  0
  4 29  1  0
  7 30  1  0
 12 31  1  0
 12 32  1  0
 13 33  1  0
 13 34  1  0
 15 35  1  0
 16 36  1  0
 17 37  1  0
 18 38  1  0
 19 39  1  0
M  END
$$$$
