
     RDKit          3D

 45 47  0  0  0  0  0  0  0  0999 V2000
   -5.3041    1.0383   -1.0082 C   0  0  0  0  0  0  0  0  0  0  0  0
   -5.2527    0.2102    0.1461 O   0  0  0  0  0  0  0  0  0  0  0  0
   -4.1355    0.3118    0.9288 C   0  0  0  0  0  0  0  0  0  0  0  0
   -4.1199   -0.5345    2.0390 C   0  0  0  0  0  0  0  0  0  0  0  0
   -3.0380   -0.5349    2.9229 C   0  0  0  0  0  0  0  0  0  0  0  0
   -1.9495    0.3164    2.7072 C   0  0  0  0  0  0  0  0  0  0  0  0
   -0.7657    0.3103    3.6447 C   0  0  0  0  0  0  0  0  0  0  0  0
    0.0815   -0.9669    3.5776 C   0  0  0  0  0  0  0  0  0  0  0  0
    0.6144   -1.2052    2.2519 N   0  0  0  0  0  0  0  0  0  0  0  0
    0.1097   -2.1823    1.4170 C   0  0  0  0  0  0  0  0  0  0  0  0
   -0.6569   -3.0604    1.8019 O   0  0  0  0  0  0  0  0  0  0  0  0
    0.5694   -2.0692    0.0486 C   0  0  0  0  0  0  0  0  0  0  0  0
    0.2779   -2.8171   -1.0749 C   0  0  0  0  0  0  0  0  0  0  0  0
    0.9940   -2.2351   -2.1490 C   0  0  0  0  0  0  0  0  0  0  0  0
    1.6746   -1.1536   -1.6271 C   0  0  0  0  0  0  0  0  0  0  0  0
    2.5926   -0.1686   -2.1864 C   0  0  0  0  0  0  0  0  0  0  0  0
    3.5948   -0.6201   -3.0660 C   0  0  0  0  0  0  0  0  0  0  0  0
    4.5147    0.2676   -3.6324 C   0  0  0  0  0  0  0  0  0  0  0  0
    4.4355    1.6290   -3.3238 C   0  0  0  0  0  0  0  0  0  0  0  0
    5.3978    2.5672   -3.9147 N   0  0  0  0  0  4  0  0  0  0  0  0
    5.3044    3.7612   -3.5991 O   0  0  0  0  0  0  0  0  0  0  0  0
    6.2444    2.1078   -4.6935 O   0  0  0  0  0  1  0  0  0  0  0  0
    3.4435    2.1052   -2.4600 C   0  0  0  0  0  0  0  0  0  0  0  0
    2.5256    1.2090   -1.8970 C   0  0  0  0  0  0  0  0  0  0  0  0
    1.2997    1.8944   -0.8818 Cl  0  0  0  0  0  0  0  0  0  0  0  0
    1.4398   -1.0645   -0.2872 O   0  0  0  0  0  0  0  0  0  0  0  0
   -1.9688    1.1656    1.5930 C   0  0  0  0  0  0  0  0  0  0  0  0
   -3.0537    1.1633    0.7090 C   0  0  0  0  0  0  0  0  0  0  0  0
   -5.2984    2.0985   -0.7342 H   0  0  0  0  0  0  0  0  0  0  0  0
   -6.2470    0.8336   -1.5246 H   0  0  0  0  0  0  0  0  0  0  0  0
   -4.4883    0.8035   -1.6999 H   0  0  0  0  0  0  0  0  0  0  0  0
   -4.9558   -1.2071    2.2145 H   0  0  0  0  0  0  0  0  0  0  0  0
   -3.0498   -1.2156    3.7709 H   0  0  0  0  0  0  0  0  0  0  0  0
   -0.1252    1.1753    3.4287 H   0  0  0  0  0  0  0  0  0  0  0  0
   -1.1291    0.4529    4.6701 H   0  0  0  0  0  0  0  0  0  0  0  0
   -0.4991   -1.8335    3.9110 H   0  0  0  0  0  0  0  0  0  0  0  0
    0.9410   -0.8642    4.2485 H   0  0  0  0  0  0  0  0  0  0  0  0
    1.1888   -0.4943    1.8131 H   0  0  0  0  0  0  0  0  0  0  0  0
   -0.3827   -3.6736   -1.1009 H   0  0  0  0  0  0  0  0  0  0  0  0
    0.9994   -2.5586   -3.1805 H   0  0  0  0  0  0  0  0  0  0  0  0
    3.6764   -1.6800   -3.3065 H   0  0  0  0  0  0  0  0  0  0  0  0
    5.2807   -0.1190   -4.3028 H   0  0  0  0  0  0  0  0  0  0  0  0
    3.3716    3.1656   -2.2245 H   0  0  0  0  0  0  0  0  0  0  0  0
   -1.1340    1.8347    1.3965 H   0  0  0  0  0  0  0  0  0  0  0  0
   -3.0181    1.8369   -0.1402 H   0  0  0  0  0  0  0  0  0  0  0  0
  1  2  1  0
  2  3  1  0
  3  4  2  0
  4  5  1  0
  5  6  2  0
  6  7  1  0
  7  8  1  0
  8  9  1  0
  9 10  1  0
 10 11  2  0
 10 12  1  0
 12 13  2  0
 13 14  1  0
 14 15  2  0
 15 16  1  0
 16 17  2  0
 17 18  1  0
 18 19  2  0
 19 20  1  0
 20 21  2  0
 20 22  1  0
 19 23  1  0
 23 24  2  0
 24 25  1  0
 15 26  1  0
  6 27  1  0
 27 28  2  0
 28  3  1  0
 26 12  1  0
 24 16  1  0
  1 29  1  0
  1 30  1  0
  1 31  1  0
  4 32  1  0
  5 33  1  0
  7 34  1  0
  7 35  1  0
  8 36  1  0
  8 37  1  0
  9 38  1  0
 13 39  1  0
 14 40  1  0
 17 41  1  0
 18 42  1  0
 23 43  1  0
 27 44  1  0
 28 45  1  0
M  CHG  2  20   1  22  -1
M  END
$$$$
