
     RDKit          3D

 46 48  0  0  0  0  0  0  0  0999 V2000
   -5.0142   -3.0920   -1.5546 C   0  0  0  0  0  0  0  0  0  0  0  0
   -5.7444   -2.4468   -0.5160 O   0  0  0  0  0  0  0  0  0  0  0  0
   -5.2906   -1.2138   -0.1203 C   0  0  0  0  0  0  0  0  0  0  0  0
   -4.1634   -0.5533   -0.6108 C   0  0  0  0  0  0  0  0  0  0  0  0
   -3.8166    0.7135   -0.1114 C   0  0  0  0  0  0  0  0  0  0  0  0
   -2.6322    1.4098   -0.6134 C   0  0  0  0  0  0  0  0  0  0  0  0
   -1.3812    1.0477   -0.2959 C   0  0  0  0  0  0  0  0  0  0  0  0
   -0.8936   -0.0510    0.5987 C   0  0  0  0  0  0  0  0  0  0  0  0
    0.5243    0.3594    0.9957 C   0  0  0  0  0  0  0  0  0  0  0  0
    0.9816    1.2875   -0.0888 C   0  0  0  0  0  0  0  0  0  0  0  0
    2.2199    1.6418   -0.4601 C   0  0  0  0  0  0  0  0  0  0  0  0
    3.4407    1.1631    0.1946 C   0  0  0  0  0  0  0  0  0  0  0  0
    3.6845    1.4242    1.5500 C   0  0  0  0  0  0  0  0  0  0  0  0
    4.8536    0.9645    2.1536 C   0  0  0  0  0  0  0  0  0  0  0  0
    5.7743    0.2541    1.3949 C   0  0  0  0  0  0  0  0  0  0  0  0
    6.9134   -0.1881    2.0111 O   0  0  0  0  0  0  0  0  0  0  0  0
    5.5620   -0.0073    0.0362 C   0  0  0  0  0  0  0  0  0  0  0  0
    6.5624   -0.7153   -0.5800 O   0  0  0  0  0  0  0  0  0  0  0  0
    6.3982   -0.9705   -1.9714 C   0  0  0  0  0  0  0  0  0  0  0  0
    4.3890    0.4558   -0.5626 C   0  0  0  0  0  0  0  0  0  0  0  0
   -0.2091    1.7929   -0.8176 C   0  0  0  0  0  0  0  0  0  0  0  0
   -0.2209    2.6460   -1.6852 O   0  0  0  0  0  0  0  0  0  0  0  0
   -4.6044    1.3192    0.8757 C   0  0  0  0  0  0  0  0  0  0  0  0
   -5.7288    0.6622    1.3722 C   0  0  0  0  0  0  0  0  0  0  0  0
   -6.0579   -0.5922    0.8726 C   0  0  0  0  0  0  0  0  0  0  0  0
   -7.1673   -1.2160    1.3763 O   0  0  0  0  0  0  0  0  0  0  0  0
   -5.0277   -2.4976   -2.4750 H   0  0  0  0  0  0  0  0  0  0  0  0
   -3.9889   -3.3108   -1.2375 H   0  0  0  0  0  0  0  0  0  0  0  0
   -5.5067   -4.0459   -1.7670 H   0  0  0  0  0  0  0  0  0  0  0  0
   -3.5417   -0.9945   -1.3832 H   0  0  0  0  0  0  0  0  0  0  0  0
   -2.8199    2.2640   -1.2635 H   0  0  0  0  0  0  0  0  0  0  0  0
   -1.5190   -0.1880    1.4870 H   0  0  0  0  0  0  0  0  0  0  0  0
   -0.8692   -0.9961    0.0417 H   0  0  0  0  0  0  0  0  0  0  0  0
    0.5048    0.8928    1.9545 H   0  0  0  0  0  0  0  0  0  0  0  0
    1.1661   -0.5220    1.1010 H   0  0  0  0  0  0  0  0  0  0  0  0
    2.3688    2.3109   -1.3074 H   0  0  0  0  0  0  0  0  0  0  0  0
    2.9722    1.9935    2.1423 H   0  0  0  0  0  0  0  0  0  0  0  0
    5.0489    1.1630    3.2029 H   0  0  0  0  0  0  0  0  0  0  0  0
    7.4181   -0.6448    1.3097 H   0  0  0  0  0  0  0  0  0  0  0  0
    7.2755   -1.5274   -2.3146 H   0  0  0  0  0  0  0  0  0  0  0  0
    6.3528   -0.0362   -2.5413 H   0  0  0  0  0  0  0  0  0  0  0  0
    5.5162   -1.5929   -2.1569 H   0  0  0  0  0  0  0  0  0  0  0  0
    4.1831    0.2756   -1.6137 H   0  0  0  0  0  0  0  0  0  0  0  0
   -4.3456    2.3014    1.2663 H   0  0  0  0  0  0  0  0  0  0  0  0
   -6.3437    1.1219    2.1397 H   0  0  0  0  0  0  0  0  0  0  0  0
   -7.2233   -2.0622    0.8895 H   0  0  0  0  0  0  0  0  0  0  0  0
  1  2  1  0
  2  3  1  0
  3  4  2  0
  4  5  1  0
  5  6  1  0
  6  7  2  3
  7  8  1  0
  8  9  1  0
  9 10  1  0
 10 11  2  3
 11 12  1  0
 12 13  2  0
 13 14  1  0
 14 15  2  0
 15 16  1  0
 15 17  1  0
 17 18  1  0
 18 19  1  0
 17 20  2  0
 10 21  1  0
 21 22  2  0
  5 23  2  0
 23 24  1  0
 24 25  2  0
 25 26  1  0
 25  3  1  0
 21  7  1  0
 20 12  1  0
  1 27  1  0
  1 28  1  0
  1 29  1  0
  4 30  1  0
  6 31  1  0
  8 32  1  0
  8 33  1  0
  9 34  1  0
  9 35  1  0
 11 36  1  0
 13 37  1  0
 14 38  1  0
 16 39  1  0
 19 40  1  0
 19 41  1  0
 19 42  1  0
 20 43  1  0
 23 44  1  0
 24 45  1  0
 26 46  1  0
M  END
$$$$
