
     RDKit          3D

100102  0  0  0  0  0  0  0  0999 V2000
    2.8044    1.2820    1.6969 C   0  0  0  0  0  0  0  0  0  0  0  0
    1.9486    0.9510    0.7112 C   0  0  0  0  0  0  0  0  0  0  0  0
    2.0364   -0.3425   -0.1076 C   0  0  1  0  0  0  0  0  0  0  0  0
    2.5013    0.0596   -1.4114 O   0  0  0  0  0  0  0  0  0  0  0  0
    1.9601   -0.5908   -2.4744 C   0  0  0  0  0  0  0  0  0  0  0  0
    1.1242   -1.4773   -2.4106 O   0  0  0  0  0  0  0  0  0  0  0  0
    2.5026   -0.0091   -3.7580 C   0  0  0  0  0  0  0  0  0  0  0  0
    2.9234   -1.0904   -4.7602 C   0  0  0  0  0  0  0  0  0  0  0  0
    4.1872   -1.8182   -4.3067 C   0  0  0  0  0  0  0  0  0  0  0  0
    3.1655   -0.4478   -6.1317 C   0  0  0  0  0  0  0  0  0  0  0  0
    2.9223   -1.4662    0.4859 C   0  0  0  0  0  0  0  0  0  0  0  0
    4.2906   -1.2792    0.0714 O   0  0  0  0  0  0  0  0  0  0  0  0
    5.1978   -2.0343    0.7467 C   0  0  0  0  0  0  0  0  0  0  0  0
    6.5550   -1.8938    0.1268 C   0  0  0  0  0  0  0  0  0  0  0  0
    4.9470   -2.7365    1.7165 O   0  0  0  0  0  0  0  0  0  0  0  0
    2.4057   -2.8491    0.0524 C   0  0  0  0  0  0  0  0  0  0  0  0
    2.9629   -3.4581   -0.8708 O   0  0  0  0  0  0  0  0  0  0  0  0
    1.2664   -3.5207    0.8799 C   0  0  0  0  0  0  0  0  0  0  0  0
    0.4340   -4.3782   -0.0937 C   0  0  0  0  0  0  0  0  0  0  0  0
    1.9474   -4.4704    1.8871 C   0  0  0  0  0  0  0  0  0  0  0  0
    0.4098   -2.5315    1.6767 C   0  0  0  0  0  0  0  0  0  0  0  0
   -0.8561   -2.1453    1.4319 C   0  0  0  0  0  0  0  0  0  0  0  0
   -1.6199   -1.1603    2.2982 C   0  0  2  0  0  0  0  0  0  0  0  0
   -2.5681   -1.9554    3.2063 C   0  0  0  0  0  0  0  0  0  0  0  0
   -2.4052   -0.0536    1.5166 C   0  0  2  0  0  0  0  0  0  0  0  0
   -3.4710   -0.7004    0.7626 O   0  0  0  0  0  0  0  0  0  0  0  0
   -4.7373   -0.3327    1.0691 C   0  0  0  0  0  0  0  0  0  0  0  0
   -5.0540    0.5208    1.8857 O   0  0  0  0  0  0  0  0  0  0  0  0
   -5.7228   -1.1006    0.2637 C   0  0  0  0  0  0  0  0  0  0  0  0
   -5.3545   -2.1617   -0.5723 C   0  0  0  0  0  0  0  0  0  0  0  0
   -6.3343   -2.8422   -1.3022 C   0  0  0  0  0  0  0  0  0  0  0  0
   -7.6737   -2.4753   -1.1932 C   0  0  0  0  0  0  0  0  0  0  0  0
   -8.0463   -1.4222   -0.3601 C   0  0  0  0  0  0  0  0  0  0  0  0
   -7.0728   -0.7349    0.3683 C   0  0  0  0  0  0  0  0  0  0  0  0
   -1.5684    0.8183    0.5233 C   0  0  1  0  0  0  0  0  0  0  0  0
   -1.0728   -0.0160   -0.5168 O   0  0  0  0  0  0  0  0  0  0  0  0
   -2.3974    1.9157   -0.1731 C   0  0  0  0  0  0  0  0  0  0  0  0
   -2.4684    3.0778    0.8103 C   0  0  2  0  0  0  0  0  0  0  0  0
   -2.5539    4.4323    0.1159 C   0  0  0  0  0  0  0  0  0  0  0  0
   -1.2629    2.8758    1.7578 C   0  0  2  0  0  0  0  0  0  0  0  0
   -0.5342    4.0851    1.9482 O   0  0  0  0  0  0  0  0  0  0  0  0
   -0.1934    4.4134    3.2271 C   0  0  0  0  0  0  0  0  0  0  0  0
    0.4757    5.7524    3.2612 C   0  0  0  0  0  0  0  0  0  0  0  0
   -0.3948    3.7273    4.2188 O   0  0  0  0  0  0  0  0  0  0  0  0
   -0.4534    1.6625    1.2197 C   0  0  2  0  0  0  0  0  0  0  0  0
    0.7934    1.8960    0.3082 C   0  0  1  0  0  0  0  0  0  0  0  0
    1.3294    3.2313    0.4020 O   0  0  0  0  0  0  0  0  0  0  0  0
    1.1570    4.0359   -0.6773 C   0  0  0  0  0  0  0  0  0  0  0  0
    1.9104    5.3155   -0.4865 C   0  0  0  0  0  0  0  0  0  0  0  0
    0.5232    3.7621   -1.6865 O   0  0  0  0  0  0  0  0  0  0  0  0
    2.7050    2.2129    2.2451 H   0  0  0  0  0  0  0  0  0  0  0  0
    3.6432    0.6618    1.9868 H   0  0  0  0  0  0  0  0  0  0  0  0
    1.0245   -0.7245   -0.1842 H   0  0  0  0  0  0  0  0  0  0  0  0
    3.3561    0.6456   -3.5361 H   0  0  0  0  0  0  0  0  0  0  0  0
    1.7084    0.6272   -4.1712 H   0  0  0  0  0  0  0  0  0  0  0  0
    2.1182   -1.8356   -4.8678 H   0  0  0  0  0  0  0  0  0  0  0  0
    4.4822   -2.5751   -5.0401 H   0  0  0  0  0  0  0  0  0  0  0  0
    5.0257   -1.1270   -4.1826 H   0  0  0  0  0  0  0  0  0  0  0  0
    4.0245   -2.3295   -3.3560 H   0  0  0  0  0  0  0  0  0  0  0  0
    3.4800   -1.1999   -6.8656 H   0  0  0  0  0  0  0  0  0  0  0  0
    2.2472    0.0228   -6.5108 H   0  0  0  0  0  0  0  0  0  0  0  0
    3.9468    0.3246   -6.0823 H   0  0  0  0  0  0  0  0  0  0  0  0
    2.8822   -1.4408    1.5793 H   0  0  0  0  0  0  0  0  0  0  0  0
    6.5592   -2.3370   -0.8713 H   0  0  0  0  0  0  0  0  0  0  0  0
    6.8359   -0.8373    0.0778 H   0  0  0  0  0  0  0  0  0  0  0  0
    7.2923   -2.4169    0.7396 H   0  0  0  0  0  0  0  0  0  0  0  0
    0.0257   -3.7697   -0.9093 H   0  0  0  0  0  0  0  0  0  0  0  0
    1.0453   -5.1669   -0.5532 H   0  0  0  0  0  0  0  0  0  0  0  0
   -0.3994   -4.8696    0.4197 H   0  0  0  0  0  0  0  0  0  0  0  0
    2.6079   -5.1875    1.3830 H   0  0  0  0  0  0  0  0  0  0  0  0
    1.2063   -5.0445    2.4546 H   0  0  0  0  0  0  0  0  0  0  0  0
    2.5652   -3.9217    2.6107 H   0  0  0  0  0  0  0  0  0  0  0  0
    0.8866   -2.1186    2.5660 H   0  0  0  0  0  0  0  0  0  0  0  0
   -1.3929   -2.5357    0.5721 H   0  0  0  0  0  0  0  0  0  0  0  0
   -0.9082   -0.6516    2.9593 H   0  0  0  0  0  0  0  0  0  0  0  0
   -2.0014   -2.6298    3.8591 H   0  0  0  0  0  0  0  0  0  0  0  0
   -3.2705   -2.5677    2.6321 H   0  0  0  0  0  0  0  0  0  0  0  0
   -3.1462   -1.2797    3.8486 H   0  0  0  0  0  0  0  0  0  0  0  0
   -2.8270    0.6140    2.2792 H   0  0  0  0  0  0  0  0  0  0  0  0
   -4.3186   -2.4723   -0.6658 H   0  0  0  0  0  0  0  0  0  0  0  0
   -6.0475   -3.6736   -1.9433 H   0  0  0  0  0  0  0  0  0  0  0  0
   -8.4297   -3.0063   -1.7646 H   0  0  0  0  0  0  0  0  0  0  0  0
   -9.0899   -1.1310   -0.2740 H   0  0  0  0  0  0  0  0  0  0  0  0
   -7.3771    0.0816    1.0208 H   0  0  0  0  0  0  0  0  0  0  0  0
   -1.8340   -0.3277   -1.0422 H   0  0  0  0  0  0  0  0  0  0  0  0
   -3.3945    1.5817   -0.4717 H   0  0  0  0  0  0  0  0  0  0  0  0
   -1.9006    2.2257   -1.1041 H   0  0  0  0  0  0  0  0  0  0  0  0
   -3.3856    2.9640    1.4057 H   0  0  0  0  0  0  0  0  0  0  0  0
   -3.4242    4.4703   -0.5442 H   0  0  0  0  0  0  0  0  0  0  0  0
   -2.6572    5.2434    0.8440 H   0  0  0  0  0  0  0  0  0  0  0  0
   -1.6650    4.6357   -0.4823 H   0  0  0  0  0  0  0  0  0  0  0  0
   -1.7005    2.5558    2.7172 H   0  0  0  0  0  0  0  0  0  0  0  0
    0.3914    6.2538    2.2916 H   0  0  0  0  0  0  0  0  0  0  0  0
   -0.0197    6.3816    4.0096 H   0  0  0  0  0  0  0  0  0  0  0  0
    1.5353    5.6273    3.5064 H   0  0  0  0  0  0  0  0  0  0  0  0
   -0.0917    1.1273    2.1037 H   0  0  0  0  0  0  0  0  0  0  0  0
    0.5446    1.6895   -0.7355 H   0  0  0  0  0  0  0  0  0  0  0  0
    2.0317    5.5357    0.5774 H   0  0  0  0  0  0  0  0  0  0  0  0
    2.8963    5.2347   -0.9526 H   0  0  0  0  0  0  0  0  0  0  0  0
    1.3475    6.1407   -0.9323 H   0  0  0  0  0  0  0  0  0  0  0  0
  1  2  2  0
  2  3  1  0
  3  4  1  0
  4  5  1  0
  5  6  2  0
  5  7  1  0
  7  8  1  0
  8  9  1  0
  8 10  1  0
  3 11  1  0
 11 12  1  0
 12 13  1  0
 13 14  1  0
 13 15  2  0
 11 16  1  0
 16 17  2  0
 16 18  1  0
 18 19  1  0
 18 20  1  0
 18 21  1  0
 21 22  2  0
 22 23  1  0
 23 24  1  0
 23 25  1  0
 25 26  1  0
 26 27  1  0
 27 28  2  0
 27 29  1  0
 29 30  2  0
 30 31  1  0
 31 32  2  0
 32 33  1  0
 33 34  2  0
 25 35  1  0
 35 36  1  6
 35 37  1  0
 37 38  1  0
 38 39  1  0
 38 40  1  0
 40 41  1  0
 41 42  1  0
 42 43  1  0
 42 44  2  0
 40 45  1  0
 45 46  1  0
 46 47  1  0
 47 48  1  0
 48 49  1  0
 48 50  2  0
 46  2  1  0
 34 29  1  0
 45 35  1  0
  1 51  1  0
  1 52  1  0
  3 53  1  6
  7 54  1  0
  7 55  1  0
  8 56  1  0
  9 57  1  0
  9 58  1  0
  9 59  1  0
 10 60  1  0
 10 61  1  0
 10 62  1  0
 11 63  1  0
 14 64  1  0
 14 65  1  0
 14 66  1  0
 19 67  1  0
 19 68  1  0
 19 69  1  0
 20 70  1  0
 20 71  1  0
 20 72  1  0
 21 73  1  0
 22 74  1  0
 23 75  1  1
 24 76  1  0
 24 77  1  0
 24 78  1  0
 25 79  1  1
 30 80  1  0
 31 81  1  0
 32 82  1  0
 33 83  1  0
 34 84  1  0
 36 85  1  0
 37 86  1  0
 37 87  1  0
 38 88  1  1
 39 89  1  0
 39 90  1  0
 39 91  1  0
 40 92  1  1
 43 93  1  0
 43 94  1  0
 43 95  1  0
 45 96  1  1
 46 97  1  6
 49 98  1  0
 49 99  1  0
 49100  1  0
M  END
$$$$
