
     RDKit          3D

 31 32  0  0  0  0  0  0  0  0999 V2000
    1.4948   -3.4336    2.9347 C   0  0  0  0  0  0  0  0  0  0  0  0
    0.9509   -3.1987    1.2204 S   0  0  0  0  0  0  0  0  0  0  0  0
    1.6690   -1.6250    0.7612 C   0  0  0  0  0  0  0  0  0  0  0  0
    2.5133   -0.8623    1.5749 C   0  0  0  0  0  0  0  0  0  0  0  0
    3.0193    0.3614    1.1251 C   0  0  0  0  0  0  0  0  0  0  0  0
    2.6884    0.8329   -0.1439 C   0  0  0  0  0  0  0  0  0  0  0  0
    1.8527    0.0824   -0.9658 C   0  0  0  0  0  0  0  0  0  0  0  0
    1.4889    0.5722   -2.2613 N   0  0  0  0  0  0  0  0  0  0  0  0
    0.3798    1.8677   -2.2930 S   0  0  0  0  0  6  0  0  0  0  0  0
    0.0957    2.1468   -3.6848 O   0  0  0  0  0  0  0  0  0  0  0  0
    0.7836    2.9070   -1.3695 O   0  0  0  0  0  0  0  0  0  0  0  0
   -1.1441    1.2791   -1.6758 C   0  0  0  0  0  0  0  0  0  0  0  0
   -2.1309    2.0276   -1.0685 C   0  0  0  0  0  0  0  0  0  0  0  0
   -3.1087    1.1274   -0.7554 N   0  0  0  0  0  0  0  0  0  0  0  0
   -4.3594    1.4324   -0.1037 C   0  0  0  0  0  0  0  0  0  0  0  0
   -2.6955   -0.1092   -1.1643 C   0  0  0  0  0  0  0  0  0  0  0  0
   -1.5141   -0.0588   -1.7385 N   0  0  0  0  0  0  0  0  0  0  0  0
    1.3459   -1.1400   -0.5158 C   0  0  0  0  0  0  0  0  0  0  0  0
    2.5847   -3.4949    2.9949 H   0  0  0  0  0  0  0  0  0  0  0  0
    1.1291   -2.6258    3.5750 H   0  0  0  0  0  0  0  0  0  0  0  0
    1.0795   -4.3768    3.3030 H   0  0  0  0  0  0  0  0  0  0  0  0
    2.7993   -1.1919    2.5670 H   0  0  0  0  0  0  0  0  0  0  0  0
    3.6678    0.9548    1.7654 H   0  0  0  0  0  0  0  0  0  0  0  0
    3.0861    1.7873   -0.4812 H   0  0  0  0  0  0  0  0  0  0  0  0
    1.1181   -0.1508   -2.8800 H   0  0  0  0  0  0  0  0  0  0  0  0
   -2.1943    3.0825   -0.8336 H   0  0  0  0  0  0  0  0  0  0  0  0
   -4.9213    2.1242   -0.7385 H   0  0  0  0  0  0  0  0  0  0  0  0
   -4.1410    1.8912    0.8645 H   0  0  0  0  0  0  0  0  0  0  0  0
   -4.9314    0.5120    0.0422 H   0  0  0  0  0  0  0  0  0  0  0  0
   -3.2881   -1.0051   -1.0224 H   0  0  0  0  0  0  0  0  0  0  0  0
    0.6819   -1.7159   -1.1572 H   0  0  0  0  0  0  0  0  0  0  0  0
  1  2  1  0
  2  3  1  0
  3  4  2  0
  4  5  1  0
  5  6  2  0
  6  7  1  0
  7  8  1  0
  8  9  1  0
  9 10  2  0
  9 11  2  0
  9 12  1  0
 12 13  2  0
 13 14  1  0
 14 15  1  0
 14 16  1  0
 16 17  2  0
  7 18  2  0
 18  3  1  0
 17 12  1  0
  1 19  1  0
  1 20  1  0
  1 21  1  0
  4 22  1  0
  5 23  1  0
  6 24  1  0
  8 25  1  0
 13 26  1  0
 15 27  1  0
 15 28  1  0
 15 29  1  0
 16 30  1  0
 18 31  1  0
M  END
$$$$
