
     RDKit          3D

 56 58  0  0  0  0  0  0  0  0999 V2000
    8.1049    3.9120    0.6292 C   0  0  0  0  0  0  0  0  0  0  0  0
    8.0887    2.6634    1.4936 C   0  0  0  0  0  0  0  0  0  0  0  0
    7.9506    1.4912    0.6911 O   0  0  0  0  0  0  0  0  0  0  0  0
    6.6963    1.0421    0.3921 C   0  0  0  0  0  0  0  0  0  0  0  0
    6.6639   -0.1665   -0.3041 C   0  0  0  0  0  0  0  0  0  0  0  0
    5.4465   -0.7449   -0.6780 C   0  0  0  0  0  0  0  0  0  0  0  0
    4.2358   -0.1198   -0.3624 C   0  0  0  0  0  0  0  0  0  0  0  0
    3.0499   -0.7680   -0.7681 N   0  0  0  0  0  0  0  0  0  0  0  0
    1.7499   -0.3370   -0.5756 C   0  0  0  0  0  0  0  0  0  0  0  0
    1.3909    0.6895   -0.0081 O   0  0  0  0  0  0  0  0  0  0  0  0
    0.7197   -1.3125   -1.1013 C   0  0  0  0  0  0  0  0  0  0  0  0
    0.2350   -2.1848    0.0449 C   0  0  0  0  0  0  0  0  0  0  0  0
   -0.7858   -3.1142   -0.4514 N   0  0  0  0  0  0  0  0  0  0  0  0
   -1.9264   -3.7114    0.6267 S   0  0  0  0  0  6  0  0  0  0  0  0
   -2.5742   -4.8214   -0.0327 O   0  0  0  0  0  0  0  0  0  0  0  0
   -1.2877   -3.8489    1.9158 O   0  0  0  0  0  0  0  0  0  0  0  0
   -3.0942   -2.3807    0.6988 C   0  0  0  0  0  0  0  0  0  0  0  0
   -3.3364   -1.7210    1.9019 C   0  0  0  0  0  0  0  0  0  0  0  0
   -4.2538   -0.6639    1.9376 C   0  0  0  0  0  0  0  0  0  0  0  0
   -4.9370   -0.2574    0.7779 C   0  0  0  0  0  0  0  0  0  0  0  0
   -4.6769   -0.9355   -0.4133 C   0  0  0  0  0  0  0  0  0  0  0  0
   -3.7629   -1.9984   -0.4626 C   0  0  0  0  0  0  0  0  0  0  0  0
   -5.3680   -0.5219   -1.6433 C   0  0  0  0  0  0  0  0  0  0  0  0
   -5.0689   -1.0638   -2.7050 O   0  0  0  0  0  0  0  0  0  0  0  0
   -6.3173    0.4792   -1.5182 N   0  0  0  0  0  0  0  0  0  0  0  0
   -7.0287    0.8910   -2.7147 C   0  0  0  0  0  0  0  0  0  0  0  0
   -6.5595    1.2073   -0.3592 C   0  0  0  0  0  0  0  0  0  0  0  0
   -7.3473    2.1564   -0.3517 O   0  0  0  0  0  0  0  0  0  0  0  0
   -5.8671    0.8159    0.7837 N   0  0  0  0  0  0  0  0  0  0  0  0
   -6.1135    1.5491    2.0193 C   0  0  0  0  0  0  0  0  0  0  0  0
    4.2704    1.0914    0.3285 C   0  0  0  0  0  0  0  0  0  0  0  0
    5.4928    1.6703    0.7020 C   0  0  0  0  0  0  0  0  0  0  0  0
    7.1663    4.0332    0.0803 H   0  0  0  0  0  0  0  0  0  0  0  0
    8.2679    4.8037    1.2416 H   0  0  0  0  0  0  0  0  0  0  0  0
    8.9037    3.8488   -0.1179 H   0  0  0  0  0  0  0  0  0  0  0  0
    7.3409    2.7169    2.2924 H   0  0  0  0  0  0  0  0  0  0  0  0
    9.0582    2.5801    1.9981 H   0  0  0  0  0  0  0  0  0  0  0  0
    7.5968   -0.6650   -0.5572 H   0  0  0  0  0  0  0  0  0  0  0  0
    5.4684   -1.6877   -1.2173 H   0  0  0  0  0  0  0  0  0  0  0  0
    3.1816   -1.6382   -1.2683 H   0  0  0  0  0  0  0  0  0  0  0  0
    1.1379   -1.9217   -1.9108 H   0  0  0  0  0  0  0  0  0  0  0  0
   -0.1071   -0.7396   -1.5379 H   0  0  0  0  0  0  0  0  0  0  0  0
    1.0675   -2.7614    0.4629 H   0  0  0  0  0  0  0  0  0  0  0  0
   -0.1716   -1.5526    0.8416 H   0  0  0  0  0  0  0  0  0  0  0  0
   -0.5475   -3.7839   -1.1822 H   0  0  0  0  0  0  0  0  0  0  0  0
   -2.8198   -2.0160    2.8138 H   0  0  0  0  0  0  0  0  0  0  0  0
   -4.4122   -0.1743    2.8950 H   0  0  0  0  0  0  0  0  0  0  0  0
   -3.5746   -2.5193   -1.3999 H   0  0  0  0  0  0  0  0  0  0  0  0
   -6.9967    0.1236   -3.4930 H   0  0  0  0  0  0  0  0  0  0  0  0
   -6.5628    1.8055   -3.0955 H   0  0  0  0  0  0  0  0  0  0  0  0
   -8.0759    1.1038   -2.4765 H   0  0  0  0  0  0  0  0  0  0  0  0
   -6.5076    0.8630    2.7760 H   0  0  0  0  0  0  0  0  0  0  0  0
   -6.8444    2.3514    1.8874 H   0  0  0  0  0  0  0  0  0  0  0  0
   -5.1790    2.0029    2.3648 H   0  0  0  0  0  0  0  0  0  0  0  0
    3.3626    1.6230    0.5961 H   0  0  0  0  0  0  0  0  0  0  0  0
    5.4575    2.6170    1.2296 H   0  0  0  0  0  0  0  0  0  0  0  0
  1  2  1  0
  2  3  1  0
  3  4  1  0
  4  5  2  0
  5  6  1  0
  6  7  2  0
  7  8  1  0
  8  9  1  0
  9 10  2  0
  9 11  1  0
 11 12  1  0
 12 13  1  0
 13 14  1  0
 14 15  2  0
 14 16  2  0
 14 17  1  0
 17 18  2  0
 18 19  1  0
 19 20  2  0
 20 21  1  0
 21 22  2  0
 21 23  1  0
 23 24  2  0
 23 25  1  0
 25 26  1  0
 25 27  1  0
 27 28  2  0
 27 29  1  0
 29 30  1  0
  7 31  1  0
 31 32  2  0
 32  4  1  0
 22 17  1  0
 29 20  1  0
  1 33  1  0
  1 34  1  0
  1 35  1  0
  2 36  1  0
  2 37  1  0
  5 38  1  0
  6 39  1  0
  8 40  1  0
 11 41  1  0
 11 42  1  0
 12 43  1  0
 12 44  1  0
 13 45  1  0
 18 46  1  0
 19 47  1  0
 22 48  1  0
 26 49  1  0
 26 50  1  0
 26 51  1  0
 30 52  1  0
 30 53  1  0
 30 54  1  0
 31 55  1  0
 32 56  1  0
M  END
$$$$
