
     RDKit          3D

 32 34  0  0  0  0  0  0  0  0999 V2000
   -3.3553   -3.1242    1.4956 O   0  0  0  0  0  0  0  0  0  0  0  0
   -4.0091   -2.1460    1.1723 C   0  0  0  0  0  0  0  0  0  0  0  0
   -5.3535   -2.0122    1.3739 N   0  0  0  0  0  0  0  0  0  0  0  0
   -5.9505   -0.8620    0.9622 C   0  0  0  0  0  0  0  0  0  0  0  0
   -7.5661   -0.5505    1.1372 S   0  0  0  0  0  0  0  0  0  0  0  0
   -4.7583    0.1944    0.2434 S   0  0  0  0  0  0  0  0  0  0  0  0
   -3.4728   -0.9243    0.5072 C   0  0  0  0  0  0  0  0  0  0  0  0
   -2.1751   -0.8509    0.1889 C   0  0  0  0  0  0  0  0  0  0  0  0
   -1.5047    0.2261   -0.4555 C   0  0  0  0  0  0  0  0  0  0  0  0
   -1.7801    1.5837   -0.5657 C   0  0  0  0  0  0  0  0  0  0  0  0
   -0.7408    2.1844   -1.3173 C   0  0  0  0  0  0  0  0  0  0  0  0
    0.1491    1.1830   -1.6240 C   0  0  0  0  0  0  0  0  0  0  0  0
    1.6271    1.3119   -2.5356 S   0  0  0  0  0  0  0  0  0  0  0  0
    2.5652   -0.1130   -1.9137 C   0  0  0  0  0  0  0  0  0  0  0  0
    3.1686    0.1270   -0.5511 C   0  0  0  0  0  0  0  0  0  0  0  0
    2.5879   -0.4327    0.5960 C   0  0  0  0  0  0  0  0  0  0  0  0
    3.1440   -0.2060    1.8561 C   0  0  0  0  0  0  0  0  0  0  0  0
    4.2853    0.5831    1.9839 C   0  0  0  0  0  0  0  0  0  0  0  0
    4.8708    1.1477    0.8526 C   0  0  0  0  0  0  0  0  0  0  0  0
    4.3159    0.9223   -0.4083 C   0  0  0  0  0  0  0  0  0  0  0  0
   -0.3087    0.0097   -1.1086 O   0  0  0  0  0  0  0  0  0  0  0  0
   -5.8757   -2.7535    1.8160 H   0  0  0  0  0  0  0  0  0  0  0  0
   -1.5426   -1.7105    0.4077 H   0  0  0  0  0  0  0  0  0  0  0  0
   -2.6281    2.1040   -0.1444 H   0  0  0  0  0  0  0  0  0  0  0  0
   -0.6454    3.2260   -1.5900 H   0  0  0  0  0  0  0  0  0  0  0  0
    1.9414   -1.0140   -1.9155 H   0  0  0  0  0  0  0  0  0  0  0  0
    3.3763   -0.3147   -2.6235 H   0  0  0  0  0  0  0  0  0  0  0  0
    1.6936   -1.0468    0.5150 H   0  0  0  0  0  0  0  0  0  0  0  0
    2.6844   -0.6437    2.7383 H   0  0  0  0  0  0  0  0  0  0  0  0
    4.7168    0.7603    2.9654 H   0  0  0  0  0  0  0  0  0  0  0  0
    5.7587    1.7666    0.9518 H   0  0  0  0  0  0  0  0  0  0  0  0
    4.7815    1.3749   -1.2813 H   0  0  0  0  0  0  0  0  0  0  0  0
  1  2  2  0
  2  3  1  0
  3  4  1  0
  4  5  2  0
  4  6  1  0
  6  7  1  0
  7  8  2  3
  8  9  1  0
  9 10  2  0
 10 11  1  0
 11 12  2  0
 12 13  1  0
 13 14  1  0
 14 15  1  0
 15 16  2  0
 16 17  1  0
 17 18  2  0
 18 19  1  0
 19 20  2  0
 12 21  1  0
  7  2  1  0
 21  9  1  0
 20 15  1  0
  3 22  1  0
  8 23  1  0
 10 24  1  0
 11 25  1  0
 14 26  1  0
 14 27  1  0
 16 28  1  0
 17 29  1  0
 18 30  1  0
 19 31  1  0
 20 32  1  0
M  END
$$$$
