
     RDKit          3D

 42 44  0  0  0  0  0  0  0  0999 V2000
   -0.7775   -3.2001   -0.6648 C   0  0  0  0  0  0  0  0  0  0  0  0
   -0.8942   -1.7475   -0.3319 C   0  0  0  0  0  0  0  0  0  0  0  0
    0.0777   -0.8877    0.0172 C   0  0  0  0  0  0  0  0  0  0  0  0
    1.4417   -0.9595    0.1222 N   0  0  0  0  0  0  0  0  0  0  0  0
    2.2985   -1.8687   -0.4631 C   0  0  0  0  0  0  0  0  0  0  0  0
    1.9716   -2.7607   -1.2421 O   0  0  0  0  0  0  0  0  0  0  0  0
    3.7458   -1.6908   -0.0656 C   0  0  0  0  0  0  0  0  0  0  0  0
    4.2714   -0.4355   -0.5628 N   0  0  0  0  0  0  0  0  0  0  0  0
    4.9690   -0.2316   -1.7195 C   0  0  0  0  0  0  0  0  0  0  0  0
    5.2567    1.1141   -1.7618 C   0  0  0  0  0  0  0  0  0  0  0  0
    4.6914    1.6392   -0.5779 C   0  0  0  0  0  0  0  0  0  0  0  0
    4.7082    3.0128   -0.1047 N   0  0  0  0  0  4  0  0  0  0  0  0
    5.2214    3.8449   -0.8690 O   0  0  0  0  0  0  0  0  0  0  0  0
    4.2334    3.2617    1.0121 O   0  0  0  0  0  1  0  0  0  0  0  0
    4.0763    0.6910    0.1545 N   0  0  0  0  0  0  0  0  0  0  0  0
   -0.6221    0.3869    0.3805 C   0  0  0  0  0  0  0  0  0  0  0  0
   -0.0152    1.3607    0.8016 O   0  0  0  0  0  0  0  0  0  0  0  0
   -1.9873    0.1627    0.1924 N   0  0  0  0  0  0  0  0  0  0  0  0
   -3.0376    0.8769    0.8253 C   0  0  0  0  0  0  0  0  0  0  0  0
   -4.2739    0.2683    1.0931 C   0  0  0  0  0  0  0  0  0  0  0  0
   -5.3083    0.9750    1.7151 C   0  0  0  0  0  0  0  0  0  0  0  0
   -5.1218    2.3041    2.0820 C   0  0  0  0  0  0  0  0  0  0  0  0
   -3.9008    2.9229    1.8318 C   0  0  0  0  0  0  0  0  0  0  0  0
   -2.8669    2.2135    1.2111 C   0  0  0  0  0  0  0  0  0  0  0  0
   -2.1755   -1.1598   -0.3057 N   0  0  0  0  0  0  0  0  0  0  0  0
   -2.9582   -1.2049   -1.5562 C   0  0  0  0  0  0  0  0  0  0  0  0
   -1.6954   -3.7322   -0.3898 H   0  0  0  0  0  0  0  0  0  0  0  0
    0.0271   -3.6817   -0.1022 H   0  0  0  0  0  0  0  0  0  0  0  0
   -0.6151   -3.3409   -1.7374 H   0  0  0  0  0  0  0  0  0  0  0  0
    1.8663   -0.1162    0.5228 H   0  0  0  0  0  0  0  0  0  0  0  0
    4.3496   -2.5041   -0.4810 H   0  0  0  0  0  0  0  0  0  0  0  0
    3.8467   -1.7068    1.0246 H   0  0  0  0  0  0  0  0  0  0  0  0
    5.1942   -1.0401   -2.4033 H   0  0  0  0  0  0  0  0  0  0  0  0
    5.7994    1.6466   -2.5311 H   0  0  0  0  0  0  0  0  0  0  0  0
   -4.4408   -0.7778    0.8524 H   0  0  0  0  0  0  0  0  0  0  0  0
   -6.2546    0.4816    1.9206 H   0  0  0  0  0  0  0  0  0  0  0  0
   -5.9227    2.8549    2.5679 H   0  0  0  0  0  0  0  0  0  0  0  0
   -3.7459    3.9602    2.1188 H   0  0  0  0  0  0  0  0  0  0  0  0
   -1.9334    2.7379    1.0228 H   0  0  0  0  0  0  0  0  0  0  0  0
   -2.4082   -0.7297   -2.3769 H   0  0  0  0  0  0  0  0  0  0  0  0
   -3.9212   -0.6967   -1.4549 H   0  0  0  0  0  0  0  0  0  0  0  0
   -3.1699   -2.2428   -1.8342 H   0  0  0  0  0  0  0  0  0  0  0  0
  1  2  1  0
  2  3  2  0
  3  4  1  0
  4  5  1  0
  5  6  2  0
  5  7  1  0
  7  8  1  0
  8  9  1  0
  9 10  2  0
 10 11  1  0
 11 12  1  0
 12 13  2  0
 12 14  1  0
 11 15  2  0
  3 16  1  0
 16 17  2  0
 16 18  1  0
 18 19  1  0
 19 20  2  0
 20 21  1  0
 21 22  2  0
 22 23  1  0
 23 24  2  0
 18 25  1  0
 25 26  1  0
 25  2  1  0
 15  8  1  0
 24 19  1  0
  1 27  1  0
  1 28  1  0
  1 29  1  0
  4 30  1  0
  7 31  1  0
  7 32  1  0
  9 33  1  0
 10 34  1  0
 20 35  1  0
 21 36  1  0
 22 37  1  0
 23 38  1  0
 24 39  1  0
 26 40  1  0
 26 41  1  0
 26 42  1  0
M  CHG  2  12   1  14  -1
M  END
$$$$
