
     RDKit          3D

 54 57  0  0  0  0  0  0  0  0999 V2000
   -6.3863    3.5749    0.6929 C   0  0  0  0  0  0  0  0  0  0  0  0
   -5.2090    3.9420   -0.0224 O   0  0  0  0  0  0  0  0  0  0  0  0
   -4.1755    3.0440   -0.0296 C   0  0  0  0  0  0  0  0  0  0  0  0
   -4.1577    1.8087    0.6183 C   0  0  0  0  0  0  0  0  0  0  0  0
   -3.0326    0.9790    0.5245 C   0  0  0  0  0  0  0  0  0  0  0  0
   -1.9182    1.3846   -0.2180 C   0  0  0  0  0  0  0  0  0  0  0  0
   -0.7830    0.5423   -0.3059 N   0  0  0  0  0  0  0  0  0  0  0  0
   -0.7493   -0.8158   -0.6163 C   0  0  0  0  0  0  0  0  0  0  0  0
   -1.9045   -1.6448   -1.0895 C   0  0  0  0  0  0  0  0  0  0  0  0
   -2.4899   -2.5484   -0.0411 C   0  0  0  0  0  0  0  0  0  0  0  0
   -3.7771   -2.5529    0.4739 C   0  0  0  0  0  0  0  0  0  0  0  0
   -3.8639   -3.5837    1.4323 C   0  0  0  0  0  0  0  0  0  0  0  0
   -2.6441   -4.2189    1.4524 C   0  0  0  0  0  0  0  0  0  0  0  0
   -1.8251   -3.6057    0.5435 N   0  0  0  0  0  0  0  0  0  0  0  0
   -0.4764   -4.0572    0.2587 C   0  0  0  0  0  0  0  0  0  0  0  0
    0.5072   -1.2319   -0.6017 N   0  0  0  0  0  0  0  0  0  0  0  0
    1.3095   -0.1821   -0.2755 N   0  0  0  0  0  0  0  0  0  0  0  0
    0.5459    0.8721   -0.1071 C   0  0  0  0  0  0  0  0  0  0  0  0
    1.1307    2.3982    0.4689 S   0  0  0  0  0  0  0  0  0  0  0  0
    2.4426    1.8491    1.6040 C   0  0  0  0  0  0  0  0  0  0  0  0
    3.7986    1.8002    0.9127 C   0  0  0  0  0  0  0  0  0  0  0  0
    4.6400    2.6744    1.1230 O   0  0  0  0  0  0  0  0  0  0  0  0
    3.9614    0.6942    0.0971 N   0  0  0  0  0  0  0  0  0  0  0  0
    5.1254    0.2782   -0.5732 C   0  0  0  0  0  0  0  0  0  0  0  0
    6.3755    0.8761   -0.4044 C   0  0  0  0  0  0  0  0  0  0  0  0
    7.4956    0.3750   -1.0773 C   0  0  0  0  0  0  0  0  0  0  0  0
    7.3758   -0.7372   -1.9077 C   0  0  0  0  0  0  0  0  0  0  0  0
    6.1325   -1.3228   -2.0793 C   0  0  0  0  0  0  0  0  0  0  0  0
    6.0107   -2.3847   -2.8883 F   0  0  0  0  0  0  0  0  0  0  0  0
    5.0077   -0.8194   -1.4316 C   0  0  0  0  0  0  0  0  0  0  0  0
   -1.9233    2.6289   -0.8568 C   0  0  0  0  0  0  0  0  0  0  0  0
   -3.0536    3.4468   -0.7629 C   0  0  0  0  0  0  0  0  0  0  0  0
   -6.1780    3.4692    1.7665 H   0  0  0  0  0  0  0  0  0  0  0  0
   -6.8367    2.6602    0.2900 H   0  0  0  0  0  0  0  0  0  0  0  0
   -7.1108    4.3841    0.5668 H   0  0  0  0  0  0  0  0  0  0  0  0
   -4.9983    1.4672    1.2191 H   0  0  0  0  0  0  0  0  0  0  0  0
   -3.0287    0.0488    1.0869 H   0  0  0  0  0  0  0  0  0  0  0  0
   -2.6922   -1.0064   -1.5061 H   0  0  0  0  0  0  0  0  0  0  0  0
   -1.5646   -2.2627   -1.9323 H   0  0  0  0  0  0  0  0  0  0  0  0
   -4.5741   -1.8741    0.1862 H   0  0  0  0  0  0  0  0  0  0  0  0
   -4.7307   -3.8501    2.0228 H   0  0  0  0  0  0  0  0  0  0  0  0
   -2.2996   -5.0645    2.0280 H   0  0  0  0  0  0  0  0  0  0  0  0
   -0.3920   -5.1137    0.5279 H   0  0  0  0  0  0  0  0  0  0  0  0
    0.2170   -3.4638    0.8628 H   0  0  0  0  0  0  0  0  0  0  0  0
   -0.2749   -3.9459   -0.8099 H   0  0  0  0  0  0  0  0  0  0  0  0
    2.5067    2.5702    2.4219 H   0  0  0  0  0  0  0  0  0  0  0  0
    2.2144    0.8796    2.0595 H   0  0  0  0  0  0  0  0  0  0  0  0
    3.1272    0.1329   -0.0710 H   0  0  0  0  0  0  0  0  0  0  0  0
    6.5151    1.7303    0.2522 H   0  0  0  0  0  0  0  0  0  0  0  0
    8.4608    0.8486   -0.9361 H   0  0  0  0  0  0  0  0  0  0  0  0
    8.2392   -1.1509   -2.4167 H   0  0  0  0  0  0  0  0  0  0  0  0
    4.0543   -1.3059   -1.6038 H   0  0  0  0  0  0  0  0  0  0  0  0
   -1.0806    2.9744   -1.4580 H   0  0  0  0  0  0  0  0  0  0  0  0
   -3.0627    4.4092   -1.2702 H   0  0  0  0  0  0  0  0  0  0  0  0
  1  2  1  0
  2  3  1  0
  3  4  2  0
  4  5  1  0
  5  6  2  0
  6  7  1  0
  7  8  1  0
  8  9  1  0
  9 10  1  0
 10 11  2  0
 11 12  1  0
 12 13  2  0
 13 14  1  0
 14 15  1  0
  8 16  2  0
 16 17  1  0
 17 18  2  0
 18 19  1  0
 19 20  1  0
 20 21  1  0
 21 22  2  0
 21 23  1  0
 23 24  1  0
 24 25  2  0
 25 26  1  0
 26 27  2  0
 27 28  1  0
 28 29  1  0
 28 30  2  0
  6 31  1  0
 31 32  2  0
 32  3  1  0
 18  7  1  0
 30 24  1  0
 14 10  1  0
  1 33  1  0
  1 34  1  0
  1 35  1  0
  4 36  1  0
  5 37  1  0
  9 38  1  0
  9 39  1  0
 11 40  1  0
 12 41  1  0
 13 42  1  0
 15 43  1  0
 15 44  1  0
 15 45  1  0
 20 46  1  0
 20 47  1  0
 23 48  1  0
 25 49  1  0
 26 50  1  0
 27 51  1  0
 30 52  1  0
 31 53  1  0
 32 54  1  0
M  END
$$$$
