
     RDKit          3D

 40 41  0  0  0  0  0  0  0  0999 V2000
    3.8491    0.5784   -6.0035 C   0  0  0  0  0  0  0  0  0  0  0  0
    4.9230    0.5384   -4.9251 C   0  0  0  0  0  0  0  0  0  0  0  0
    4.5383   -0.3555   -3.7477 C   0  0  0  0  0  0  0  0  0  0  0  0
    3.4781    0.2492   -2.8356 C   0  0  0  0  0  0  0  0  0  0  0  0
    3.0844    1.4022   -2.9614 O   0  0  0  0  0  0  0  0  0  0  0  0
    3.0661   -0.6597   -1.8723 N   0  0  0  0  0  0  0  0  0  0  0  0
    2.1075   -0.4620   -0.8578 C   0  0  0  0  0  0  0  0  0  0  0  0
    1.4025    0.7282   -0.6680 C   0  0  0  0  0  0  0  0  0  0  0  0
    0.4621    0.8473    0.3648 C   0  0  0  0  0  0  0  0  0  0  0  0
    0.2118   -0.2322    1.2178 C   0  0  0  0  0  0  0  0  0  0  0  0
   -0.7730   -0.1591    2.3318 C   0  0  0  0  0  0  0  0  0  0  0  0
   -0.7222   -0.9473    3.2741 O   0  0  0  0  0  0  0  0  0  0  0  0
   -1.7562    0.8084    2.2329 N   0  0  0  0  0  0  0  0  0  0  0  0
   -2.8237    0.7136    3.1521 N   0  0  0  0  0  0  0  0  0  0  0  0
   -4.1087    0.9003    2.6585 C   0  0  0  0  0  0  0  0  0  0  0  0
   -4.2699    1.3413    1.5178 O   0  0  0  0  0  0  0  0  0  0  0  0
   -5.1827    0.5276    3.5698 C   0  0  0  0  0  0  0  0  0  0  0  0
   -5.1400    0.1720    4.9080 C   0  0  0  0  0  0  0  0  0  0  0  0
   -6.4302   -0.1266    5.4394 C   0  0  0  0  0  0  0  0  0  0  0  0
   -7.4207    0.0139    4.4956 C   0  0  0  0  0  0  0  0  0  0  0  0
   -6.7982    0.5060    2.9833 S   0  0  0  0  0  0  0  0  0  0  0  0
    0.9254   -1.4219    1.0395 C   0  0  0  0  0  0  0  0  0  0  0  0
    1.8624   -1.5358    0.0070 C   0  0  0  0  0  0  0  0  0  0  0  0
    4.1796    1.2018   -6.8404 H   0  0  0  0  0  0  0  0  0  0  0  0
    2.9119    0.9956   -5.6236 H   0  0  0  0  0  0  0  0  0  0  0  0
    3.6455   -0.4253   -6.3903 H   0  0  0  0  0  0  0  0  0  0  0  0
    5.8463    0.1517   -5.3725 H   0  0  0  0  0  0  0  0  0  0  0  0
    5.1360    1.5576   -4.5830 H   0  0  0  0  0  0  0  0  0  0  0  0
    5.4299   -0.5276   -3.1323 H   0  0  0  0  0  0  0  0  0  0  0  0
    4.1883   -1.3283   -4.1124 H   0  0  0  0  0  0  0  0  0  0  0  0
    3.5041   -1.5722   -1.8963 H   0  0  0  0  0  0  0  0  0  0  0  0
    1.5641    1.5935   -1.3044 H   0  0  0  0  0  0  0  0  0  0  0  0
   -0.0408    1.8023    0.4912 H   0  0  0  0  0  0  0  0  0  0  0  0
   -2.0078    1.2141    1.3308 H   0  0  0  0  0  0  0  0  0  0  0  0
   -2.6537    0.0808    3.9314 H   0  0  0  0  0  0  0  0  0  0  0  0
   -4.2335    0.1309    5.4995 H   0  0  0  0  0  0  0  0  0  0  0  0
   -6.6209   -0.4253    6.4633 H   0  0  0  0  0  0  0  0  0  0  0  0
   -8.4834   -0.1444    4.6200 H   0  0  0  0  0  0  0  0  0  0  0  0
    0.7537   -2.2680    1.7026 H   0  0  0  0  0  0  0  0  0  0  0  0
    2.3957   -2.4766   -0.1048 H   0  0  0  0  0  0  0  0  0  0  0  0
  1  2  1  0
  2  3  1  0
  3  4  1  0
  4  5  2  0
  4  6  1  0
  6  7  1  0
  7  8  2  0
  8  9  1  0
  9 10  2  0
 10 11  1  0
 11 12  2  0
 11 13  1  0
 13 14  1  0
 14 15  1  0
 15 16  2  0
 15 17  1  0
 17 18  2  0
 18 19  1  0
 19 20  2  0
 20 21  1  0
 10 22  1  0
 22 23  2  0
 23  7  1  0
 21 17  1  0
  1 24  1  0
  1 25  1  0
  1 26  1  0
  2 27  1  0
  2 28  1  0
  3 29  1  0
  3 30  1  0
  6 31  1  0
  8 32  1  0
  9 33  1  0
 13 34  1  0
 14 35  1  0
 18 36  1  0
 19 37  1  0
 20 38  1  0
 22 39  1  0
 23 40  1  0
M  END
$$$$
