
     RDKit          3D

 44 44  0  0  0  0  0  0  0  0999 V2000
   -2.5707    0.1234    2.9353 C   0  0  0  0  0  0  0  0  0  0  0  0
   -3.1012   -0.3309    1.5579 C   0  0  0  0  0  0  0  0  0  0  0  0
   -4.5646    0.1480    1.4989 C   0  0  0  0  0  0  0  0  0  0  0  0
   -2.2166    0.1592    0.3495 C   0  0  0  0  0  0  0  0  0  0  0  0
   -2.5884    1.4987    0.0167 O   0  0  0  0  0  0  0  0  0  0  0  0
   -0.7842    0.2034    0.7456 C   0  0  0  0  0  0  0  0  0  0  0  0
    0.3806    0.2405    1.0432 C   0  0  0  0  0  0  0  0  0  0  0  0
    1.8052    0.2928    1.4046 C   0  0  0  0  0  0  0  0  0  0  0  0
    2.6701   -0.0717    0.2705 N   0  0  0  0  0  0  0  0  0  0  0  0
    2.6578    0.9743   -0.7672 C   0  0  0  0  0  0  0  0  0  0  0  0
    3.5236    0.5753   -1.9641 C   0  0  0  0  0  0  0  0  0  0  0  0
    4.9517    0.2607   -1.5364 C   0  0  0  0  0  0  0  0  0  0  0  0
    4.9540   -0.7571   -0.4028 C   0  0  0  0  0  0  0  0  0  0  0  0
    4.0414   -0.3164    0.7427 C   0  0  0  0  0  0  0  0  0  0  0  0
   -2.3063   -0.7608   -0.9284 C   0  0  0  0  0  0  0  0  0  0  0  0
   -3.7210   -1.1319   -1.3815 C   0  0  0  0  0  0  0  0  0  0  0  0
   -1.5780   -0.1472   -2.1411 C   0  0  0  0  0  0  0  0  0  0  0  0
   -3.2631   -0.1650    3.7346 H   0  0  0  0  0  0  0  0  0  0  0  0
   -2.4458    1.2110    2.9762 H   0  0  0  0  0  0  0  0  0  0  0  0
   -1.6126   -0.3489    3.1736 H   0  0  0  0  0  0  0  0  0  0  0  0
   -3.0931   -1.4289    1.5677 H   0  0  0  0  0  0  0  0  0  0  0  0
   -4.6346    1.2331    1.6345 H   0  0  0  0  0  0  0  0  0  0  0  0
   -5.1491   -0.3185    2.3004 H   0  0  0  0  0  0  0  0  0  0  0  0
   -5.0628   -0.0995    0.5625 H   0  0  0  0  0  0  0  0  0  0  0  0
   -3.4256    1.4629   -0.4711 H   0  0  0  0  0  0  0  0  0  0  0  0
    1.9555   -0.4210    2.2248 H   0  0  0  0  0  0  0  0  0  0  0  0
    2.0636    1.2842    1.7972 H   0  0  0  0  0  0  0  0  0  0  0  0
    3.0136    1.9302   -0.3602 H   0  0  0  0  0  0  0  0  0  0  0  0
    1.6402    1.1398   -1.1381 H   0  0  0  0  0  0  0  0  0  0  0  0
    3.5296    1.3853   -2.7023 H   0  0  0  0  0  0  0  0  0  0  0  0
    3.0867   -0.3028   -2.4565 H   0  0  0  0  0  0  0  0  0  0  0  0
    5.5246   -0.1222   -2.3880 H   0  0  0  0  0  0  0  0  0  0  0  0
    5.4455    1.1817   -1.2028 H   0  0  0  0  0  0  0  0  0  0  0  0
    4.6202   -1.7305   -0.7844 H   0  0  0  0  0  0  0  0  0  0  0  0
    5.9756   -0.8934   -0.0306 H   0  0  0  0  0  0  0  0  0  0  0  0
    4.4558    0.5814    1.2203 H   0  0  0  0  0  0  0  0  0  0  0  0
    4.0392   -1.1138    1.4959 H   0  0  0  0  0  0  0  0  0  0  0  0
   -1.8010   -1.7092   -0.6943 H   0  0  0  0  0  0  0  0  0  0  0  0
   -4.2305   -1.7421   -0.6306 H   0  0  0  0  0  0  0  0  0  0  0  0
   -4.3242   -0.2455   -1.5993 H   0  0  0  0  0  0  0  0  0  0  0  0
   -3.6875   -1.7363   -2.2955 H   0  0  0  0  0  0  0  0  0  0  0  0
   -1.5973   -0.8379   -2.9917 H   0  0  0  0  0  0  0  0  0  0  0  0
   -0.5262    0.0585   -1.9237 H   0  0  0  0  0  0  0  0  0  0  0  0
   -2.0502    0.7873   -2.4620 H   0  0  0  0  0  0  0  0  0  0  0  0
  1  2  1  0
  2  3  1  0
  2  4  1  0
  4  5  1  0
  4  6  1  0
  6  7  3  0
  7  8  1  0
  8  9  1  0
  9 10  1  0
 10 11  1  0
 11 12  1  0
 12 13  1  0
 13 14  1  0
  4 15  1  0
 15 16  1  0
 15 17  1  0
 14  9  1  0
  1 18  1  0
  1 19  1  0
  1 20  1  0
  2 21  1  0
  3 22  1  0
  3 23  1  0
  3 24  1  0
  5 25  1  0
  8 26  1  0
  8 27  1  0
 10 28  1  0
 10 29  1  0
 11 30  1  0
 11 31  1  0
 12 32  1  0
 12 33  1  0
 13 34  1  0
 13 35  1  0
 14 36  1  0
 14 37  1  0
 15 38  1  0
 16 39  1  0
 16 40  1  0
 16 41  1  0
 17 42  1  0
 17 43  1  0
 17 44  1  0
M  END
$$$$
