
     RDKit          3D

 51 55  0  0  0  0  0  0  0  0999 V2000
    0.6062    1.3801   -0.7848 O   0  0  0  0  0  0  0  0  0  0  0  0
    1.3540    1.0333    0.1267 C   0  0  0  0  0  0  0  0  0  0  0  0
    0.9246    0.1035    1.2694 C   0  0  0  0  0  0  0  0  0  0  0  0
   -0.5267    0.0628    1.4381 N   0  0  0  0  0  0  0  0  0  0  0  0
   -1.1037    1.1375    2.1088 C   0  0  0  0  0  0  0  0  0  0  0  0
   -0.4351    1.9836    2.7072 O   0  0  0  0  0  0  0  0  0  0  0  0
   -2.6029    1.2761    2.0272 C   0  0  0  0  0  0  0  0  0  0  0  0
   -3.2888    0.5012    3.1375 C   0  0  0  0  0  0  0  0  0  0  0  0
   -4.7763    0.5621    2.9830 C   0  0  0  0  0  0  0  0  0  0  0  0
   -5.6660    0.0944    2.0339 C   0  0  0  0  0  0  0  0  0  0  0  0
   -6.9550    0.4963    2.4580 C   0  0  0  0  0  0  0  0  0  0  0  0
   -6.7737    1.1871    3.6320 C   0  0  0  0  0  0  0  0  0  0  0  0
   -5.4571    1.2361    3.9567 O   0  0  0  0  0  0  0  0  0  0  0  0
   -2.7489   -1.2444    3.3169 S   0  0  0  0  0  0  0  0  0  0  0  0
   -2.3209   -1.6547    1.6271 C   0  0  0  0  0  0  0  0  0  0  0  0
   -3.0000   -2.7504    1.0696 C   0  0  0  0  0  0  0  0  0  0  0  0
   -2.6499   -3.2438   -0.1856 C   0  0  0  0  0  0  0  0  0  0  0  0
   -1.6013   -2.6612   -0.8861 C   0  0  0  0  0  0  0  0  0  0  0  0
   -0.9066   -1.5813   -0.3360 C   0  0  0  0  0  0  0  0  0  0  0  0
   -1.2606   -1.0488    0.9157 C   0  0  0  0  0  0  0  0  0  0  0  0
    2.6863    1.3910    0.1798 N   0  0  0  0  0  0  0  0  0  0  0  0
    3.3149    2.1535   -0.8739 C   0  0  0  0  0  0  0  0  0  0  0  0
    4.0837    1.2406   -1.7955 C   0  0  0  0  0  0  0  0  0  0  0  0
    5.4722    1.0418   -1.6157 C   0  0  0  0  0  0  0  0  0  0  0  0
    6.1880    0.1755   -2.4488 C   0  0  0  0  0  0  0  0  0  0  0  0
    5.4934   -0.4795   -3.4421 C   0  0  0  0  0  0  0  0  0  0  0  0
    4.1425   -0.2993   -3.6209 C   0  0  0  0  0  0  0  0  0  0  0  0
    3.4105    0.5484   -2.8172 C   0  0  0  0  0  0  0  0  0  0  0  0
    3.6515   -1.0419   -4.6487 O   0  0  0  0  0  0  0  0  0  0  0  0
    4.8517   -1.6982   -5.1063 C   0  0  0  0  0  0  0  0  0  0  0  0
    6.0233   -1.3559   -4.3366 O   0  0  0  0  0  0  0  0  0  0  0  0
    1.3812    0.4582    2.2012 H   0  0  0  0  0  0  0  0  0  0  0  0
    1.3194   -0.9007    1.0778 H   0  0  0  0  0  0  0  0  0  0  0  0
   -2.9557    0.9987    1.0261 H   0  0  0  0  0  0  0  0  0  0  0  0
   -2.8422    2.3448    2.1156 H   0  0  0  0  0  0  0  0  0  0  0  0
   -3.0234    0.9690    4.0942 H   0  0  0  0  0  0  0  0  0  0  0  0
   -5.4134   -0.4682    1.1457 H   0  0  0  0  0  0  0  0  0  0  0  0
   -7.9000    0.3080    1.9685 H   0  0  0  0  0  0  0  0  0  0  0  0
   -7.4433    1.6816    4.3217 H   0  0  0  0  0  0  0  0  0  0  0  0
   -3.7993   -3.2418    1.6217 H   0  0  0  0  0  0  0  0  0  0  0  0
   -3.1851   -4.0910   -0.6073 H   0  0  0  0  0  0  0  0  0  0  0  0
   -1.3211   -3.0421   -1.8656 H   0  0  0  0  0  0  0  0  0  0  0  0
   -0.1128   -1.1373   -0.9317 H   0  0  0  0  0  0  0  0  0  0  0  0
    3.2809    1.0010    0.8982 H   0  0  0  0  0  0  0  0  0  0  0  0
    2.5724    2.7276   -1.4393 H   0  0  0  0  0  0  0  0  0  0  0  0
    3.9889    2.8744   -0.3984 H   0  0  0  0  0  0  0  0  0  0  0  0
    6.0015    1.5665   -0.8226 H   0  0  0  0  0  0  0  0  0  0  0  0
    7.2533    0.0216   -2.3193 H   0  0  0  0  0  0  0  0  0  0  0  0
    2.3423    0.6718   -2.9725 H   0  0  0  0  0  0  0  0  0  0  0  0
    5.0261   -1.4209   -6.1524 H   0  0  0  0  0  0  0  0  0  0  0  0
    4.7009   -2.7824   -5.0508 H   0  0  0  0  0  0  0  0  0  0  0  0
  1  2  2  0
  2  3  1  0
  3  4  1  0
  4  5  1  0
  5  6  2  0
  5  7  1  0
  7  8  1  0
  8  9  1  0
  9 10  2  0
 10 11  1  0
 11 12  2  0
 12 13  1  0
  8 14  1  0
 14 15  1  0
 15 16  2  0
 16 17  1  0
 17 18  2  0
 18 19  1  0
 19 20  2  0
  2 21  1  0
 21 22  1  0
 22 23  1  0
 23 24  2  0
 24 25  1  0
 25 26  2  0
 26 27  1  0
 27 28  2  0
 27 29  1  0
 29 30  1  0
 30 31  1  0
 20  4  1  0
 28 23  1  0
 13  9  1  0
 20 15  1  0
 31 26  1  0
  3 32  1  0
  3 33  1  0
  7 34  1  0
  7 35  1  0
  8 36  1  0
 10 37  1  0
 11 38  1  0
 12 39  1  0
 16 40  1  0
 17 41  1  0
 18 42  1  0
 19 43  1  0
 21 44  1  0
 22 45  1  0
 22 46  1  0
 24 47  1  0
 25 48  1  0
 28 49  1  0
 30 50  1  0
 30 51  1  0
M  END
$$$$
