
     RDKit          3D

 36 38  0  0  0  0  0  0  0  0999 V2000
   -2.7251   -0.8250   -2.1869 C   0  0  0  0  0  0  0  0  0  0  0  0
   -2.2201   -0.5763   -0.8539 N   0  0  0  0  0  0  0  0  0  0  0  0
   -1.2128   -1.2871   -0.2538 C   0  0  0  0  0  0  0  0  0  0  0  0
   -1.0618   -0.8002    1.0253 C   0  0  0  0  0  0  0  0  0  0  0  0
   -0.1495   -1.3118    1.9932 C   0  0  0  0  0  0  0  0  0  0  0  0
    1.1927   -1.3273    1.9205 C   0  0  0  0  0  0  0  0  0  0  0  0
    2.0097   -0.7600    0.8431 C   0  0  0  0  0  0  0  0  0  0  0  0
    3.0025   -1.5346    0.2497 C   0  0  0  0  0  0  0  0  0  0  0  0
    3.7890   -0.9872   -0.7576 C   0  0  0  0  0  0  0  0  0  0  0  0
    3.6025    0.2894   -1.1617 N   0  0  0  0  0  4  0  0  0  0  0  0
    4.4541    0.8516   -2.2229 C   0  0  0  0  0  0  0  0  0  0  0  0
    2.6593    1.0656   -0.5832 C   0  0  0  0  0  0  0  0  0  0  0  0
    1.8528    0.5615    0.4281 C   0  0  0  0  0  0  0  0  0  0  0  0
   -1.9978    0.2574    1.2073 C   0  0  0  0  0  0  0  0  0  0  0  0
   -2.3090    1.1205    2.2773 C   0  0  0  0  0  0  0  0  0  0  0  0
   -3.3041    2.0801    2.1019 C   0  0  0  0  0  0  0  0  0  0  0  0
   -3.5954    2.9076    3.1145 F   0  0  0  0  0  0  0  0  0  0  0  0
   -3.9957    2.2030    0.9055 C   0  0  0  0  0  0  0  0  0  0  0  0
   -3.7094    1.3568   -0.1689 C   0  0  0  0  0  0  0  0  0  0  0  0
   -2.7029    0.3914    0.0047 C   0  0  0  0  0  0  0  0  0  0  0  0
   -3.7864   -1.0755   -2.1137 H   0  0  0  0  0  0  0  0  0  0  0  0
   -2.1782   -1.6583   -2.6356 H   0  0  0  0  0  0  0  0  0  0  0  0
   -2.5790    0.0781   -2.7848 H   0  0  0  0  0  0  0  0  0  0  0  0
   -0.7170   -2.1000   -0.7682 H   0  0  0  0  0  0  0  0  0  0  0  0
   -0.6075   -1.7280    2.8906 H   0  0  0  0  0  0  0  0  0  0  0  0
    1.7468   -1.7859    2.7385 H   0  0  0  0  0  0  0  0  0  0  0  0
    3.1628   -2.5654    0.5598 H   0  0  0  0  0  0  0  0  0  0  0  0
    4.5716   -1.5622   -1.2446 H   0  0  0  0  0  0  0  0  0  0  0  0
    4.7699    0.0485   -2.8938 H   0  0  0  0  0  0  0  0  0  0  0  0
    3.8796    1.5896   -2.7886 H   0  0  0  0  0  0  0  0  0  0  0  0
    5.3166    1.3161   -1.7387 H   0  0  0  0  0  0  0  0  0  0  0  0
    2.5606    2.0896   -0.9322 H   0  0  0  0  0  0  0  0  0  0  0  0
    1.1027    1.2042    0.8861 H   0  0  0  0  0  0  0  0  0  0  0  0
   -1.7929    1.0515    3.2288 H   0  0  0  0  0  0  0  0  0  0  0  0
   -4.7688    2.9610    0.8148 H   0  0  0  0  0  0  0  0  0  0  0  0
   -4.2599    1.4467   -1.1004 H   0  0  0  0  0  0  0  0  0  0  0  0
  1  2  1  0
  2  3  1  0
  3  4  2  0
  4  5  1  0
  5  6  2  3
  6  7  1  0
  7  8  2  0
  8  9  1  0
  9 10  2  0
 10 11  1  0
 10 12  1  0
 12 13  2  0
  4 14  1  0
 14 15  2  0
 15 16  1  0
 16 17  1  0
 16 18  2  0
 18 19  1  0
 19 20  2  0
 20  2  1  0
 13  7  1  0
 20 14  1  0
  1 21  1  0
  1 22  1  0
  1 23  1  0
  3 24  1  0
  5 25  1  0
  6 26  1  0
  8 27  1  0
  9 28  1  0
 11 29  1  0
 11 30  1  0
 11 31  1  0
 12 32  1  0
 13 33  1  0
 15 34  1  0
 18 35  1  0
 19 36  1  0
M  CHG  1  10   1
M  END
$$$$
