
     RDKit          3D

 53 56  0  0  0  0  0  0  0  0999 V2000
    6.2890    3.4724    0.4571 C   0  0  0  0  0  0  0  0  0  0  0  0
    5.0745    2.7427    0.2868 O   0  0  0  0  0  0  0  0  0  0  0  0
    5.1998    1.3807    0.2047 C   0  0  0  0  0  0  0  0  0  0  0  0
    6.2996    0.6408    0.6336 C   0  0  0  0  0  0  0  0  0  0  0  0
    6.2971   -0.7484    0.4970 C   0  0  0  0  0  0  0  0  0  0  0  0
    5.1943   -1.4049   -0.0609 C   0  0  0  0  0  0  0  0  0  0  0  0
    4.0839   -0.6763   -0.4856 C   0  0  0  0  0  0  0  0  0  0  0  0
    2.9487   -1.2515   -1.0901 N   0  0  0  0  0  0  0  0  0  0  0  0
    2.6406   -2.5937   -1.2059 C   0  0  0  0  0  0  0  0  0  0  0  0
    3.2642   -3.5230   -0.6957 O   0  0  0  0  0  0  0  0  0  0  0  0
    1.4167   -2.8630   -2.0699 C   0  0  0  0  0  0  0  0  0  0  0  0
   -0.1186   -2.6827   -1.1215 S   0  0  0  0  0  0  0  0  0  0  0  0
   -0.4019   -0.9752   -1.2353 C   0  0  0  0  0  0  0  0  0  0  0  0
    0.4848   -0.1253   -1.6942 N   0  0  0  0  0  0  0  0  0  0  0  0
   -0.0975    1.1030   -1.7536 N   0  0  0  0  0  0  0  0  0  0  0  0
   -1.3438    0.9949   -1.3340 C   0  0  0  0  0  0  0  0  0  0  0  0
   -2.2583    2.1627   -1.1329 C   0  0  0  0  0  0  0  0  0  0  0  0
   -2.6085    2.4067    0.3089 C   0  0  0  0  0  0  0  0  0  0  0  0
   -1.7593    2.6047    1.3825 C   0  0  0  0  0  0  0  0  0  0  0  0
   -2.4656    2.8046    2.6048 C   0  0  0  0  0  0  0  0  0  0  0  0
   -3.8281    2.7700    2.4218 C   0  0  0  0  0  0  0  0  0  0  0  0
   -4.2520    2.5024    0.7881 S   0  0  0  0  0  0  0  0  0  0  0  0
   -1.6120   -0.3353   -1.0123 N   0  0  0  0  0  0  0  0  0  0  0  0
   -2.8450   -0.8966   -0.5950 C   0  0  0  0  0  0  0  0  0  0  0  0
   -4.0299   -0.5572   -1.2604 C   0  0  0  0  0  0  0  0  0  0  0  0
   -5.2461   -1.1141   -0.8548 C   0  0  0  0  0  0  0  0  0  0  0  0
   -5.2975   -2.0084    0.2201 C   0  0  0  0  0  0  0  0  0  0  0  0
   -6.5998   -2.6379    0.6199 C   0  0  0  0  0  0  0  0  0  0  0  0
   -4.1057   -2.3580    0.8694 C   0  0  0  0  0  0  0  0  0  0  0  0
   -2.8852   -1.8040    0.4691 C   0  0  0  0  0  0  0  0  0  0  0  0
    4.0951    0.7170   -0.3441 C   0  0  0  0  0  0  0  0  0  0  0  0
    6.6916    3.3440    1.4726 H   0  0  0  0  0  0  0  0  0  0  0  0
    6.0589    4.5331    0.3247 H   0  0  0  0  0  0  0  0  0  0  0  0
    7.0332    3.1961   -0.3027 H   0  0  0  0  0  0  0  0  0  0  0  0
    7.1687    1.1122    1.0861 H   0  0  0  0  0  0  0  0  0  0  0  0
    7.1573   -1.3258    0.8261 H   0  0  0  0  0  0  0  0  0  0  0  0
    5.2410   -2.4844   -0.1721 H   0  0  0  0  0  0  0  0  0  0  0  0
    2.2344   -0.5933   -1.4013 H   0  0  0  0  0  0  0  0  0  0  0  0
    1.4800   -3.8995   -2.4215 H   0  0  0  0  0  0  0  0  0  0  0  0
    1.4298   -2.2302   -2.9633 H   0  0  0  0  0  0  0  0  0  0  0  0
   -3.1485    2.0636   -1.7611 H   0  0  0  0  0  0  0  0  0  0  0  0
   -1.7480    3.0637   -1.5045 H   0  0  0  0  0  0  0  0  0  0  0  0
   -0.6780    2.6027    1.2984 H   0  0  0  0  0  0  0  0  0  0  0  0
   -1.9975    2.9688    3.5682 H   0  0  0  0  0  0  0  0  0  0  0  0
   -4.6001    2.8911    3.1694 H   0  0  0  0  0  0  0  0  0  0  0  0
   -4.0330    0.0931   -2.1334 H   0  0  0  0  0  0  0  0  0  0  0  0
   -6.1543   -0.8548   -1.3938 H   0  0  0  0  0  0  0  0  0  0  0  0
   -6.7717   -3.5478    0.0328 H   0  0  0  0  0  0  0  0  0  0  0  0
   -7.4292   -1.9437    0.4544 H   0  0  0  0  0  0  0  0  0  0  0  0
   -6.5974   -2.9002    1.6856 H   0  0  0  0  0  0  0  0  0  0  0  0
   -4.1231   -3.0689    1.6937 H   0  0  0  0  0  0  0  0  0  0  0  0
   -1.9890   -2.0748    1.0252 H   0  0  0  0  0  0  0  0  0  0  0  0
    3.2416    1.3080   -0.6698 H   0  0  0  0  0  0  0  0  0  0  0  0
  1  2  1  0
  2  3  1  0
  3  4  2  0
  4  5  1  0
  5  6  2  0
  6  7  1  0
  7  8  1  0
  8  9  1  0
  9 10  2  0
  9 11  1  0
 11 12  1  0
 12 13  1  0
 13 14  2  0
 14 15  1  0
 15 16  2  0
 16 17  1  0
 17 18  1  0
 18 19  2  0
 19 20  1  0
 20 21  2  0
 21 22  1  0
 16 23  1  0
 23 24  1  0
 24 25  2  0
 25 26  1  0
 26 27  2  0
 27 28  1  0
 27 29  1  0
 29 30  2  0
  7 31  2  0
 31  3  1  0
 23 13  1  0
 30 24  1  0
 22 18  1  0
  1 32  1  0
  1 33  1  0
  1 34  1  0
  4 35  1  0
  5 36  1  0
  6 37  1  0
  8 38  1  0
 11 39  1  0
 11 40  1  0
 17 41  1  0
 17 42  1  0
 19 43  1  0
 20 44  1  0
 21 45  1  0
 25 46  1  0
 26 47  1  0
 28 48  1  0
 28 49  1  0
 28 50  1  0
 29 51  1  0
 30 52  1  0
 31 53  1  0
M  END
$$$$
