
     RDKit          3D

 52 55  0  0  0  0  0  0  0  0999 V2000
    6.6361   -2.5060    4.9108 C   0  0  0  0  0  0  0  0  0  0  0  0
    5.8205   -1.3429    5.0132 O   0  0  0  0  0  0  0  0  0  0  0  0
    4.9768   -1.0937    3.9677 C   0  0  0  0  0  0  0  0  0  0  0  0
    4.0429   -0.0832    4.1958 C   0  0  0  0  0  0  0  0  0  0  0  0
    3.1150    0.2642    3.2104 C   0  0  0  0  0  0  0  0  0  0  0  0
    3.1135   -0.3897    1.9736 C   0  0  0  0  0  0  0  0  0  0  0  0
    2.1404    0.0097    1.0370 N   0  0  0  0  0  0  0  0  0  0  0  0
    1.9130   -0.5089   -0.2305 C   0  0  0  0  0  0  0  0  0  0  0  0
    2.5448   -1.4083   -0.7795 O   0  0  0  0  0  0  0  0  0  0  0  0
    0.7865    0.2039   -0.9611 C   0  0  0  0  0  0  0  0  0  0  0  0
   -0.7830   -0.0313   -0.0786 S   0  0  0  0  0  0  0  0  0  0  0  0
   -1.7239    1.1549   -0.9723 C   0  0  0  0  0  0  0  0  0  0  0  0
   -1.6283    2.3699   -0.5205 N   0  0  0  0  0  0  0  0  0  0  0  0
   -2.2719    3.3317   -1.2400 C   0  0  0  0  0  0  0  0  0  0  0  0
   -2.9161    3.1282   -2.3878 C   0  0  0  0  0  0  0  0  0  0  0  0
   -3.0005    1.7609   -2.9432 C   0  0  0  0  0  0  0  0  0  0  0  0
   -3.5486    1.5537   -4.0242 O   0  0  0  0  0  0  0  0  0  0  0  0
   -2.4144    0.7841   -2.1290 N   0  0  0  0  0  0  0  0  0  0  0  0
   -2.5630   -0.5809   -2.5336 C   0  0  0  0  0  0  0  0  0  0  0  0
   -2.0309   -0.9882   -3.7673 C   0  0  0  0  0  0  0  0  0  0  0  0
   -2.1258   -2.3191   -4.1712 C   0  0  0  0  0  0  0  0  0  0  0  0
   -2.7684   -3.2460   -3.3547 C   0  0  0  0  0  0  0  0  0  0  0  0
   -3.3336   -2.8453   -2.1391 C   0  0  0  0  0  0  0  0  0  0  0  0
   -3.2444   -1.5130   -1.7208 C   0  0  0  0  0  0  0  0  0  0  0  0
   -3.8300   -1.0152   -0.5835 O   0  0  0  0  0  0  0  0  0  0  0  0
   -4.3723   -1.9566    0.3354 C   0  0  0  0  0  0  0  0  0  0  0  0
   -3.6093    4.5240   -3.1054 S   0  0  0  0  0  0  0  0  0  0  0  0
   -2.7284    5.6279   -1.9422 C   0  0  0  0  0  0  0  0  0  0  0  0
   -2.2810    4.7548   -0.7655 C   0  0  0  0  0  0  0  0  0  0  0  0
    4.0611   -1.3863    1.7413 C   0  0  0  0  0  0  0  0  0  0  0  0
    4.9884   -1.7380    2.7337 C   0  0  0  0  0  0  0  0  0  0  0  0
    7.3830   -2.3943    4.1178 H   0  0  0  0  0  0  0  0  0  0  0  0
    6.0281   -3.4062    4.7608 H   0  0  0  0  0  0  0  0  0  0  0  0
    7.1713   -2.6208    5.8580 H   0  0  0  0  0  0  0  0  0  0  0  0
    4.0280    0.4313    5.1536 H   0  0  0  0  0  0  0  0  0  0  0  0
    2.3990    1.0517    3.4280 H   0  0  0  0  0  0  0  0  0  0  0  0
    1.4690    0.6997    1.3595 H   0  0  0  0  0  0  0  0  0  0  0  0
    0.7040   -0.2023   -1.9738 H   0  0  0  0  0  0  0  0  0  0  0  0
    1.0384    1.2683   -1.0361 H   0  0  0  0  0  0  0  0  0  0  0  0
   -1.5306   -0.2740   -4.4187 H   0  0  0  0  0  0  0  0  0  0  0  0
   -1.7020   -2.6310   -5.1241 H   0  0  0  0  0  0  0  0  0  0  0  0
   -2.8459   -4.2836   -3.6728 H   0  0  0  0  0  0  0  0  0  0  0  0
   -3.8512   -3.5969   -1.5517 H   0  0  0  0  0  0  0  0  0  0  0  0
   -3.6152   -2.6804    0.6565 H   0  0  0  0  0  0  0  0  0  0  0  0
   -5.2479   -2.4597   -0.0885 H   0  0  0  0  0  0  0  0  0  0  0  0
   -4.7027   -1.4058    1.2217 H   0  0  0  0  0  0  0  0  0  0  0  0
   -1.8593    6.0488   -2.4596 H   0  0  0  0  0  0  0  0  0  0  0  0
   -3.3723    6.4493   -1.6176 H   0  0  0  0  0  0  0  0  0  0  0  0
   -1.2925    5.0720   -0.4149 H   0  0  0  0  0  0  0  0  0  0  0  0
   -2.9793    4.8567    0.0744 H   0  0  0  0  0  0  0  0  0  0  0  0
    4.1102   -1.9167    0.7958 H   0  0  0  0  0  0  0  0  0  0  0  0
    5.7025   -2.5213    2.5032 H   0  0  0  0  0  0  0  0  0  0  0  0
  1  2  1  0
  2  3  1  0
  3  4  2  0
  4  5  1  0
  5  6  2  0
  6  7  1  0
  7  8  1  0
  8  9  2  0
  8 10  1  0
 10 11  1  0
 11 12  1  0
 12 13  2  0
 13 14  1  0
 14 15  2  0
 15 16  1  0
 16 17  2  0
 16 18  1  0
 18 19  1  0
 19 20  2  0
 20 21  1  0
 21 22  2  0
 22 23  1  0
 23 24  2  0
 24 25  1  0
 25 26  1  0
 15 27  1  0
 27 28  1  0
 28 29  1  0
  6 30  1  0
 30 31  2  0
 31  3  1  0
 18 12  1  0
 24 19  1  0
 29 14  1  0
  1 32  1  0
  1 33  1  0
  1 34  1  0
  4 35  1  0
  5 36  1  0
  7 37  1  0
 10 38  1  0
 10 39  1  0
 20 40  1  0
 21 41  1  0
 22 42  1  0
 23 43  1  0
 26 44  1  0
 26 45  1  0
 26 46  1  0
 28 47  1  0
 28 48  1  0
 29 49  1  0
 29 50  1  0
 30 51  1  0
 31 52  1  0
M  END
$$$$
