
     RDKit          3D

 44 44  0  0  0  0  0  0  0  0999 V2000
   -4.3781    2.4766    0.5709 C   0  0  0  0  0  0  0  0  0  0  0  0
   -4.3856    0.9936    0.9128 C   0  0  0  0  0  0  0  0  0  0  0  0
   -3.8764    0.1929   -0.2089 N   0  0  0  0  0  0  0  0  0  0  0  0
   -4.8902   -0.3251   -1.1362 C   0  0  0  0  0  0  0  0  0  0  0  0
   -5.3818   -1.6986   -0.7016 C   0  0  0  0  0  0  0  0  0  0  0  0
   -2.5223   -0.0984   -0.3502 C   0  0  0  0  0  0  0  0  0  0  0  0
   -2.0434   -0.9926   -1.3232 C   0  0  0  0  0  0  0  0  0  0  0  0
   -0.6822   -1.2963   -1.4621 C   0  0  0  0  0  0  0  0  0  0  0  0
    0.2585   -0.6980   -0.6327 C   0  0  0  0  0  0  0  0  0  0  0  0
   -0.1665    0.2117    0.3257 C   0  0  0  0  0  0  0  0  0  0  0  0
    0.6542    0.8629    1.2071 O   0  0  0  0  0  0  0  0  0  0  0  0
    1.9531    1.1934    0.7329 C   0  0  0  0  0  0  0  0  0  0  0  0
    3.0577    0.1781    1.0715 C   0  0  0  0  0  0  0  0  0  0  0  0
    2.8162   -0.8736    1.6672 O   0  0  0  0  0  0  0  0  0  0  0  0
    4.3589    0.4836    0.6630 N   0  0  0  0  0  0  0  0  0  0  0  0
    4.7092    1.5918   -0.2159 C   0  0  0  0  0  0  0  0  0  0  0  0
    5.4064   -0.5099    0.9290 C   0  0  0  0  0  0  0  0  0  0  0  0
    5.3874   -1.6727   -0.0628 C   0  0  0  0  0  0  0  0  0  0  0  0
    6.5144   -2.5764    0.1878 C   0  0  0  0  0  0  0  0  0  0  0  0
    7.4212   -3.2759    0.3751 N   0  0  0  0  0  0  0  0  0  0  0  0
   -1.5363    0.4838    0.4687 C   0  0  0  0  0  0  0  0  0  0  0  0
   -3.3679    2.8400    0.3597 H   0  0  0  0  0  0  0  0  0  0  0  0
   -4.7800    3.0586    1.4061 H   0  0  0  0  0  0  0  0  0  0  0  0
   -4.9941    2.6796   -0.3113 H   0  0  0  0  0  0  0  0  0  0  0  0
   -5.4182    0.6981    1.1391 H   0  0  0  0  0  0  0  0  0  0  0  0
   -3.8321    0.8000    1.8384 H   0  0  0  0  0  0  0  0  0  0  0  0
   -5.7489    0.3582   -1.1605 H   0  0  0  0  0  0  0  0  0  0  0  0
   -4.5242   -0.3479   -2.1687 H   0  0  0  0  0  0  0  0  0  0  0  0
   -5.8204   -1.6604    0.3011 H   0  0  0  0  0  0  0  0  0  0  0  0
   -4.5709   -2.4327   -0.6798 H   0  0  0  0  0  0  0  0  0  0  0  0
   -6.1491   -2.0613   -1.3927 H   0  0  0  0  0  0  0  0  0  0  0  0
   -2.7241   -1.5051   -1.9954 H   0  0  0  0  0  0  0  0  0  0  0  0
   -0.3663   -2.0161   -2.2126 H   0  0  0  0  0  0  0  0  0  0  0  0
    1.2995   -0.9805   -0.7351 H   0  0  0  0  0  0  0  0  0  0  0  0
    1.9422    1.3926   -0.3458 H   0  0  0  0  0  0  0  0  0  0  0  0
    2.2219    2.1300    1.2351 H   0  0  0  0  0  0  0  0  0  0  0  0
    3.9558    2.3803   -0.2097 H   0  0  0  0  0  0  0  0  0  0  0  0
    4.8136    1.2077   -1.2348 H   0  0  0  0  0  0  0  0  0  0  0  0
    5.6589    2.0243    0.1128 H   0  0  0  0  0  0  0  0  0  0  0  0
    5.2684   -0.8942    1.9481 H   0  0  0  0  0  0  0  0  0  0  0  0
    6.3774    0.0004    0.9209 H   0  0  0  0  0  0  0  0  0  0  0  0
    4.4441   -2.2250    0.0097 H   0  0  0  0  0  0  0  0  0  0  0  0
    5.4472   -1.2891   -1.0880 H   0  0  0  0  0  0  0  0  0  0  0  0
   -1.8072    1.1916    1.2454 H   0  0  0  0  0  0  0  0  0  0  0  0
  1  2  1  0
  2  3  1  0
  3  4  1  0
  4  5  1  0
  3  6  1  0
  6  7  2  0
  7  8  1  0
  8  9  2  0
  9 10  1  0
 10 11  1  0
 11 12  1  0
 12 13  1  0
 13 14  2  0
 13 15  1  0
 15 16  1  0
 15 17  1  0
 17 18  1  0
 18 19  1  0
 19 20  3  0
 10 21  2  0
 21  6  1  0
  1 22  1  0
  1 23  1  0
  1 24  1  0
  2 25  1  0
  2 26  1  0
  4 27  1  0
  4 28  1  0
  5 29  1  0
  5 30  1  0
  5 31  1  0
  7 32  1  0
  8 33  1  0
  9 34  1  0
 12 35  1  0
 12 36  1  0
 16 37  1  0
 16 38  1  0
 16 39  1  0
 17 40  1  0
 17 41  1  0
 18 42  1  0
 18 43  1  0
 21 44  1  0
M  END
$$$$
