
     RDKit          3D

 40 41  0  0  0  0  0  0  0  0999 V2000
   -6.9036   -0.6832   -0.0588 C   0  0  0  0  0  0  0  0  0  0  0  0
   -5.4208   -0.4578   -0.0032 C   0  0  0  0  0  0  0  0  0  0  0  0
   -4.7327   -0.5654    1.2004 C   0  0  0  0  0  0  0  0  0  0  0  0
   -3.3660   -0.3189    1.2314 C   0  0  0  0  0  0  0  0  0  0  0  0
   -2.6900    0.0406    0.0597 C   0  0  0  0  0  0  0  0  0  0  0  0
   -1.2541    0.3321    0.0966 C   0  0  0  0  0  0  0  0  0  0  0  0
   -0.3438   -0.5822    0.4681 C   0  0  0  0  0  0  0  0  0  0  0  0
    1.1000   -0.3150    0.4899 C   0  0  0  0  0  0  0  0  0  0  0  0
    1.9833   -1.3187    0.0966 C   0  0  0  0  0  0  0  0  0  0  0  0
    3.3707   -1.1053    0.1279 C   0  0  0  0  0  0  0  0  0  0  0  0
    3.9375    0.1078    0.5534 C   0  0  0  0  0  0  0  0  0  0  0  0
    5.3182    0.3073    0.6025 N   0  0  0  0  0  0  0  0  0  0  0  0
    6.2118   -0.6400   -0.0627 C   0  0  0  0  0  0  0  0  0  0  0  0
    5.8487    1.6571    0.7882 C   0  0  0  0  0  0  0  0  0  0  0  0
    3.0245    1.0899    0.9731 C   0  0  0  0  0  0  0  0  0  0  0  0
    1.6348    0.8891    0.9457 C   0  0  0  0  0  0  0  0  0  0  0  0
   -3.3818    0.1543   -1.1071 N   0  0  0  0  0  4  0  0  0  0  0  0
   -2.6889    0.5104   -2.3626 C   0  0  0  0  0  0  0  0  0  0  0  0
   -4.7158   -0.0810   -1.1451 C   0  0  0  0  0  0  0  0  0  0  0  0
   -7.4321    0.2536    0.1431 H   0  0  0  0  0  0  0  0  0  0  0  0
   -7.2124   -1.4311    0.6791 H   0  0  0  0  0  0  0  0  0  0  0  0
   -7.2051   -1.0547   -1.0438 H   0  0  0  0  0  0  0  0  0  0  0  0
   -5.2529   -0.8373    2.1188 H   0  0  0  0  0  0  0  0  0  0  0  0
   -2.8309   -0.3978    2.1769 H   0  0  0  0  0  0  0  0  0  0  0  0
   -0.9562    1.3314   -0.2102 H   0  0  0  0  0  0  0  0  0  0  0  0
   -0.6321   -1.5940    0.7503 H   0  0  0  0  0  0  0  0  0  0  0  0
    1.6178   -2.2859   -0.2408 H   0  0  0  0  0  0  0  0  0  0  0  0
    4.0002   -1.9328   -0.1871 H   0  0  0  0  0  0  0  0  0  0  0  0
    6.0132   -0.6760   -1.1395 H   0  0  0  0  0  0  0  0  0  0  0  0
    7.2629   -0.3600    0.0700 H   0  0  0  0  0  0  0  0  0  0  0  0
    6.1123   -1.6439    0.3638 H   0  0  0  0  0  0  0  0  0  0  0  0
    5.5269    2.3197   -0.0228 H   0  0  0  0  0  0  0  0  0  0  0  0
    6.9445    1.6593    0.8004 H   0  0  0  0  0  0  0  0  0  0  0  0
    5.5364    2.0755    1.7510 H   0  0  0  0  0  0  0  0  0  0  0  0
    3.3740    2.0460    1.3525 H   0  0  0  0  0  0  0  0  0  0  0  0
    0.9952    1.6885    1.3103 H   0  0  0  0  0  0  0  0  0  0  0  0
   -2.3133    1.5322   -2.2644 H   0  0  0  0  0  0  0  0  0  0  0  0
   -1.8793   -0.2056   -2.5266 H   0  0  0  0  0  0  0  0  0  0  0  0
   -3.3856    0.4587   -3.2031 H   0  0  0  0  0  0  0  0  0  0  0  0
   -5.2156    0.0328   -2.1038 H   0  0  0  0  0  0  0  0  0  0  0  0
  1  2  1  0
  2  3  2  0
  3  4  1  0
  4  5  2  0
  5  6  1  0
  6  7  2  3
  7  8  1  0
  8  9  2  0
  9 10  1  0
 10 11  2  0
 11 12  1  0
 12 13  1  0
 12 14  1  0
 11 15  1  0
 15 16  2  0
  5 17  1  0
 17 18  1  0
 17 19  2  0
 19  2  1  0
 16  8  1  0
  1 20  1  0
  1 21  1  0
  1 22  1  0
  3 23  1  0
  4 24  1  0
  6 25  1  0
  7 26  1  0
  9 27  1  0
 10 28  1  0
 13 29  1  0
 13 30  1  0
 13 31  1  0
 14 32  1  0
 14 33  1  0
 14 34  1  0
 15 35  1  0
 16 36  1  0
 18 37  1  0
 18 38  1  0
 18 39  1  0
 19 40  1  0
M  CHG  1  17   1
M  END
$$$$
