
     RDKit          3D

 23 24  0  0  0  0  0  0  0  0999 V2000
    2.6559    2.7277   -0.9064 O   0  0  0  0  0  0  0  0  0  0  0  0
    2.6280    1.5359   -0.6651 C   0  0  0  0  0  0  0  0  0  0  0  0
    3.7128    0.7190   -0.5588 O   0  0  0  0  0  0  0  0  0  0  0  0
    3.3023   -0.5587   -0.0659 C   0  0  0  0  0  0  0  0  0  0  0  0
    1.8460   -0.7117   -0.4299 C   0  0  0  0  0  0  0  0  0  0  0  0
    1.4213    0.7070   -0.4515 C   0  0  0  0  0  0  0  0  0  0  0  0
    0.2138    1.2592   -0.2705 C   0  0  0  0  0  0  0  0  0  0  0  0
   -1.0102    0.4929   -0.0274 C   0  0  0  0  0  0  0  0  0  0  0  0
   -1.4833   -0.4411   -0.9570 C   0  0  0  0  0  0  0  0  0  0  0  0
   -2.6597   -1.1509   -0.7071 C   0  0  0  0  0  0  0  0  0  0  0  0
   -3.3737   -0.9266    0.4688 C   0  0  0  0  0  0  0  0  0  0  0  0
   -2.9158    0.0108    1.3932 C   0  0  0  0  0  0  0  0  0  0  0  0
   -1.7399    0.7218    1.1443 C   0  0  0  0  0  0  0  0  0  0  0  0
    3.9167   -1.3401   -0.5237 H   0  0  0  0  0  0  0  0  0  0  0  0
    3.4644   -0.5815    1.0181 H   0  0  0  0  0  0  0  0  0  0  0  0
    1.3134   -1.3397    0.2887 H   0  0  0  0  0  0  0  0  0  0  0  0
    1.7448   -1.1439   -1.4315 H   0  0  0  0  0  0  0  0  0  0  0  0
    0.0976    2.3422   -0.2793 H   0  0  0  0  0  0  0  0  0  0  0  0
   -0.9480   -0.6151   -1.8873 H   0  0  0  0  0  0  0  0  0  0  0  0
   -3.0226   -1.8736   -1.4335 H   0  0  0  0  0  0  0  0  0  0  0  0
   -4.2910   -1.4771    0.6617 H   0  0  0  0  0  0  0  0  0  0  0  0
   -3.4758    0.1914    2.3072 H   0  0  0  0  0  0  0  0  0  0  0  0
   -1.3969    1.4521    1.8738 H   0  0  0  0  0  0  0  0  0  0  0  0
  1  2  2  0
  2  3  1  0
  3  4  1  0
  4  5  1  0
  5  6  1  0
  6  7  2  3
  7  8  1  0
  8  9  2  0
  9 10  1  0
 10 11  2  0
 11 12  1  0
 12 13  2  0
  6  2  1  0
 13  8  1  0
  4 14  1  0
  4 15  1  0
  5 16  1  0
  5 17  1  0
  7 18  1  0
  9 19  1  0
 10 20  1  0
 11 21  1  0
 12 22  1  0
 13 23  1  0
M  END
$$$$
