
     RDKit          3D

 53 58  0  0  0  0  0  0  0  0999 V2000
    0.8381   -1.5487   -0.7935 O   0  0  0  0  0  0  0  0  0  0  0  0
    1.2113   -1.0570    0.2761 C   0  0  0  0  0  0  0  0  0  0  0  0
    0.1372   -0.4641    1.2151 C   0  0  0  0  0  0  0  0  0  0  0  0
   -1.0364    0.0015    0.4475 N   0  0  0  0  0  4  0  0  0  0  0  0
   -2.3478   -0.4563    0.5617 C   0  0  0  0  0  0  0  0  0  0  0  0
   -3.1403    0.2036   -0.3708 C   0  0  0  0  0  0  0  0  0  0  0  0
   -4.6901    0.0250   -0.5717 C   0  0  0  0  0  0  0  0  0  0  0  0
   -5.3863    0.8164   -1.4907 C   0  0  0  0  0  0  0  0  0  0  0  0
   -6.7645    0.6496   -1.6580 C   0  0  0  0  0  0  0  0  0  0  0  0
   -7.4402   -0.3032   -0.9071 C   0  0  0  0  0  0  0  0  0  0  0  0
   -8.7591   -0.4594   -1.0695 F   0  0  0  0  0  0  0  0  0  0  0  0
   -6.7637   -1.0936    0.0122 C   0  0  0  0  0  0  0  0  0  0  0  0
   -5.3862   -0.9305    0.1839 C   0  0  0  0  0  0  0  0  0  0  0  0
   -2.2395    1.0167   -1.0349 N   0  0  0  0  0  0  0  0  0  0  0  0
   -1.0082    0.8813   -0.5496 C   0  0  0  0  0  0  0  0  0  0  0  0
   -0.0116    1.7344   -1.2389 C   0  0  0  0  0  0  0  0  0  0  0  0
   -0.7861    2.1856   -2.4923 C   0  0  0  0  0  0  0  0  0  0  0  0
   -2.2827    1.9518   -2.1503 C   0  0  0  0  0  0  0  0  0  0  0  0
    2.5490   -0.8253    0.6468 N   0  0  0  0  0  0  0  0  0  0  0  0
    2.9499   -0.6390    2.0156 C   0  0  0  0  0  0  0  0  0  0  0  0
    2.3609   -1.4275    3.0229 C   0  0  0  0  0  0  0  0  0  0  0  0
    2.7120   -1.2676    4.3656 C   0  0  0  0  0  0  0  0  0  0  0  0
    3.6700   -0.3276    4.7245 C   0  0  0  0  0  0  0  0  0  0  0  0
    4.2944    0.4329    3.7385 C   0  0  0  0  0  0  0  0  0  0  0  0
    3.9538    0.2686    2.3886 C   0  0  0  0  0  0  0  0  0  0  0  0
    4.7945    1.2633    1.1874 S   0  0  0  0  0  0  0  0  0  0  0  0
    4.6778    0.1514   -0.1966 C   0  0  0  0  0  0  0  0  0  0  0  0
    5.6742    0.2419   -1.1809 C   0  0  0  0  0  0  0  0  0  0  0  0
    5.6140   -0.5512   -2.3226 C   0  0  0  0  0  0  0  0  0  0  0  0
    4.5557   -1.4344   -2.4870 C   0  0  0  0  0  0  0  0  0  0  0  0
    3.5565   -1.5231   -1.5119 C   0  0  0  0  0  0  0  0  0  0  0  0
    3.5928   -0.7352   -0.3478 C   0  0  0  0  0  0  0  0  0  0  0  0
    0.5127    0.4089    1.7570 H   0  0  0  0  0  0  0  0  0  0  0  0
   -0.1967   -1.2339    1.9159 H   0  0  0  0  0  0  0  0  0  0  0  0
   -2.5575   -1.2000    1.3113 H   0  0  0  0  0  0  0  0  0  0  0  0
   -4.8975    1.5793   -2.0827 H   0  0  0  0  0  0  0  0  0  0  0  0
   -7.3186    1.2585   -2.3672 H   0  0  0  0  0  0  0  0  0  0  0  0
   -7.3155   -1.8320    0.5875 H   0  0  0  0  0  0  0  0  0  0  0  0
   -4.8894   -1.5692    0.9082 H   0  0  0  0  0  0  0  0  0  0  0  0
    0.2103    2.5619   -0.5617 H   0  0  0  0  0  0  0  0  0  0  0  0
    0.8776    1.1504   -1.4733 H   0  0  0  0  0  0  0  0  0  0  0  0
   -0.5096    1.5417   -3.3356 H   0  0  0  0  0  0  0  0  0  0  0  0
   -0.5726    3.2197   -2.7759 H   0  0  0  0  0  0  0  0  0  0  0  0
   -2.8159    1.5226   -3.0016 H   0  0  0  0  0  0  0  0  0  0  0  0
   -2.7603    2.8771   -1.8155 H   0  0  0  0  0  0  0  0  0  0  0  0
    1.6697   -2.2313    2.7799 H   0  0  0  0  0  0  0  0  0  0  0  0
    2.2592   -1.8955    5.1308 H   0  0  0  0  0  0  0  0  0  0  0  0
    3.9542   -0.2044    5.7677 H   0  0  0  0  0  0  0  0  0  0  0  0
    5.0624    1.1474    4.0316 H   0  0  0  0  0  0  0  0  0  0  0  0
    6.5060    0.9346   -1.0651 H   0  0  0  0  0  0  0  0  0  0  0  0
    6.3935   -0.4826   -3.0780 H   0  0  0  0  0  0  0  0  0  0  0  0
    4.5093   -2.0684   -3.3703 H   0  0  0  0  0  0  0  0  0  0  0  0
    2.7792   -2.2649   -1.6752 H   0  0  0  0  0  0  0  0  0  0  0  0
  1  2  2  0
  2  3  1  0
  3  4  1  0
  4  5  1  0
  5  6  2  0
  6  7  1  0
  7  8  2  0
  8  9  1  0
  9 10  2  0
 10 11  1  0
 10 12  1  0
 12 13  2  0
  6 14  1  0
 14 15  1  0
 15 16  1  0
 16 17  1  0
 17 18  1  0
  2 19  1  0
 19 20  1  0
 20 21  2  0
 21 22  1  0
 22 23  2  0
 23 24  1  0
 24 25  2  0
 25 26  1  0
 26 27  1  0
 27 28  2  0
 28 29  1  0
 29 30  2  0
 30 31  1  0
 31 32  2  0
 15  4  2  0
 32 19  1  0
 13  7  1  0
 18 14  1  0
 25 20  1  0
 32 27  1  0
  3 33  1  0
  3 34  1  0
  5 35  1  0
  8 36  1  0
  9 37  1  0
 12 38  1  0
 13 39  1  0
 16 40  1  0
 16 41  1  0
 17 42  1  0
 17 43  1  0
 18 44  1  0
 18 45  1  0
 21 46  1  0
 22 47  1  0
 23 48  1  0
 24 49  1  0
 28 50  1  0
 29 51  1  0
 30 52  1  0
 31 53  1  0
M  CHG  1   4   1
M  END
$$$$
