
     RDKit          3D

 44 46  0  0  0  0  0  0  0  0999 V2000
   -6.4469    3.3449   -0.3762 C   0  0  0  0  0  0  0  0  0  0  0  0
   -6.1104    2.0252   -0.7788 O   0  0  0  0  0  0  0  0  0  0  0  0
   -4.7923    1.6505   -0.6981 C   0  0  0  0  0  0  0  0  0  0  0  0
   -3.7512    2.5009   -0.3130 C   0  0  0  0  0  0  0  0  0  0  0  0
   -2.4357    2.0317   -0.2611 C   0  0  0  0  0  0  0  0  0  0  0  0
   -2.1470    0.7038   -0.5839 C   0  0  0  0  0  0  0  0  0  0  0  0
   -0.7722    0.1868   -0.5502 C   0  0  0  0  0  0  0  0  0  0  0  0
    0.0196    0.1155    0.5392 C   0  0  0  0  0  0  0  0  0  0  0  0
   -0.4012    0.5500    1.8248 C   0  0  0  0  0  0  0  0  0  0  0  0
   -0.6786    0.8765    2.9031 N   0  0  0  0  0  0  0  0  0  0  0  0
    1.3980   -0.4658    0.3537 C   0  0  0  0  0  0  0  0  0  0  0  0
    1.7500   -0.8624   -0.7539 O   0  0  0  0  0  0  0  0  0  0  0  0
    2.1586   -0.5579    1.5082 N   0  0  0  0  0  0  0  0  0  0  0  0
    3.4782   -1.0791    1.6029 C   0  0  0  0  0  0  0  0  0  0  0  0
    3.7292   -1.8226    2.7661 C   0  0  0  0  0  0  0  0  0  0  0  0
    4.9568   -2.4420    2.9563 C   0  0  0  0  0  0  0  0  0  0  0  0
    5.9511   -2.3021    1.9931 C   0  0  0  0  0  0  0  0  0  0  0  0
    5.7696   -1.5264    0.8599 C   0  0  0  0  0  0  0  0  0  0  0  0
    6.8182   -1.4151    0.0259 N   0  0  0  0  0  0  0  0  0  0  0  0
    6.6972   -0.6125   -1.0495 C   0  0  0  0  0  0  0  0  0  0  0  0
    5.5648    0.1178   -1.3280 C   0  0  0  0  0  0  0  0  0  0  0  0
    4.4832   -0.0069   -0.4618 C   0  0  0  0  0  0  0  0  0  0  0  0
    4.5283   -0.8737    0.6554 C   0  0  0  0  0  0  0  0  0  0  0  0
   -3.1843   -0.1478   -0.9854 C   0  0  0  0  0  0  0  0  0  0  0  0
   -4.5055    0.3142   -1.0427 C   0  0  0  0  0  0  0  0  0  0  0  0
   -5.5802   -0.4540   -1.4184 O   0  0  0  0  0  0  0  0  0  0  0  0
   -5.3348   -1.8032   -1.7871 C   0  0  0  0  0  0  0  0  0  0  0  0
   -5.9777    4.0878   -1.0295 H   0  0  0  0  0  0  0  0  0  0  0  0
   -6.1858    3.5181    0.6731 H   0  0  0  0  0  0  0  0  0  0  0  0
   -7.5312    3.4574   -0.4713 H   0  0  0  0  0  0  0  0  0  0  0  0
   -3.9289    3.5385   -0.0505 H   0  0  0  0  0  0  0  0  0  0  0  0
   -1.6463    2.7218    0.0289 H   0  0  0  0  0  0  0  0  0  0  0  0
   -0.4173   -0.1820   -1.5129 H   0  0  0  0  0  0  0  0  0  0  0  0
    1.6619   -0.5257    2.3923 H   0  0  0  0  0  0  0  0  0  0  0  0
    2.9579   -1.9662    3.5194 H   0  0  0  0  0  0  0  0  0  0  0  0
    5.1406   -3.0414    3.8439 H   0  0  0  0  0  0  0  0  0  0  0  0
    6.9103   -2.7941    2.1419 H   0  0  0  0  0  0  0  0  0  0  0  0
    7.5707   -0.5631   -1.6925 H   0  0  0  0  0  0  0  0  0  0  0  0
    5.5176    0.7688   -2.1929 H   0  0  0  0  0  0  0  0  0  0  0  0
    3.6054    0.5966   -0.6662 H   0  0  0  0  0  0  0  0  0  0  0  0
   -2.9412   -1.1730   -1.2466 H   0  0  0  0  0  0  0  0  0  0  0  0
   -4.6795   -1.8609   -2.6623 H   0  0  0  0  0  0  0  0  0  0  0  0
   -6.2933   -2.2551   -2.0599 H   0  0  0  0  0  0  0  0  0  0  0  0
   -4.9259   -2.3740   -0.9469 H   0  0  0  0  0  0  0  0  0  0  0  0
  1  2  1  0
  2  3  1  0
  3  4  2  0
  4  5  1  0
  5  6  2  0
  6  7  1  0
  7  8  2  3
  8  9  1  0
  9 10  3  0
  8 11  1  0
 11 12  2  0
 11 13  1  0
 13 14  1  0
 14 15  2  0
 15 16  1  0
 16 17  2  0
 17 18  1  0
 18 19  2  0
 19 20  1  0
 20 21  2  0
 21 22  1  0
 22 23  2  0
  6 24  1  0
 24 25  2  0
 25 26  1  0
 26 27  1  0
 25  3  1  0
 23 14  1  0
 23 18  1  0
  1 28  1  0
  1 29  1  0
  1 30  1  0
  4 31  1  0
  5 32  1  0
  7 33  1  0
 13 34  1  0
 15 35  1  0
 16 36  1  0
 17 37  1  0
 20 38  1  0
 21 39  1  0
 22 40  1  0
 24 41  1  0
 27 42  1  0
 27 43  1  0
 27 44  1  0
M  END
$$$$
