
     RDKit          3D

 36 38  0  0  0  0  0  0  0  0999 V2000
   -5.7373    0.5161    0.1832 C   0  0  0  0  0  0  0  0  0  0  0  0
   -4.2628    0.7440    0.0042 C   0  0  0  0  0  0  0  0  0  0  0  0
   -3.7790    2.0384   -0.2565 C   0  0  0  0  0  0  0  0  0  0  0  0
   -2.4116    2.2733   -0.3975 C   0  0  0  0  0  0  0  0  0  0  0  0
   -1.5413    1.2025   -0.2618 C   0  0  0  0  0  0  0  0  0  0  0  0
   -1.9931   -0.1051    0.0154 C   0  0  0  0  0  0  0  0  0  0  0  0
   -3.3609   -0.3255    0.1515 C   0  0  0  0  0  0  0  0  0  0  0  0
   -0.9550   -1.0574    0.1301 N   0  0  0  0  0  0  0  0  0  0  0  0
   -1.3050   -2.4654    0.2126 C   0  0  0  0  0  0  0  0  0  0  0  0
    0.2956   -0.4914   -0.1262 C   0  0  0  0  0  0  0  0  0  0  0  0
    1.4779   -1.1357   -0.1476 C   0  0  0  0  0  0  0  0  0  0  0  0
    2.7783   -0.5161   -0.4189 C   0  0  0  0  0  0  0  0  0  0  0  0
    3.2706   -0.5005   -1.7295 C   0  0  0  0  0  0  0  0  0  0  0  0
    4.4924    0.0981   -2.0060 C   0  0  0  0  0  0  0  0  0  0  0  0
    5.2083    0.6787   -0.9715 C   0  0  0  0  0  0  0  0  0  0  0  0
    4.6929    0.6454    0.3181 C   0  0  0  0  0  0  0  0  0  0  0  0
    3.5062    0.0485    0.5842 N   0  0  0  0  0  4  0  0  0  0  0  0
    3.0106    0.0499    1.9760 C   0  0  0  0  0  0  0  0  0  0  0  0
    0.2368    1.2736   -0.4218 S   0  0  0  0  0  0  0  0  0  0  0  0
   -6.0184   -0.4914   -0.1411 H   0  0  0  0  0  0  0  0  0  0  0  0
   -6.3179    1.2239   -0.4177 H   0  0  0  0  0  0  0  0  0  0  0  0
   -6.0088    0.6388    1.2361 H   0  0  0  0  0  0  0  0  0  0  0  0
   -4.4739    2.8710   -0.3549 H   0  0  0  0  0  0  0  0  0  0  0  0
   -2.0460    3.2726   -0.6103 H   0  0  0  0  0  0  0  0  0  0  0  0
   -3.7510   -1.3142    0.3717 H   0  0  0  0  0  0  0  0  0  0  0  0
   -0.4311   -3.0970    0.3973 H   0  0  0  0  0  0  0  0  0  0  0  0
   -1.9956   -2.6534    1.0422 H   0  0  0  0  0  0  0  0  0  0  0  0
   -1.7673   -2.8047   -0.7210 H   0  0  0  0  0  0  0  0  0  0  0  0
    1.5268   -2.2054    0.0267 H   0  0  0  0  0  0  0  0  0  0  0  0
    2.6952   -0.9435   -2.5412 H   0  0  0  0  0  0  0  0  0  0  0  0
    4.8771    0.1196   -3.0247 H   0  0  0  0  0  0  0  0  0  0  0  0
    6.1634    1.1614   -1.1693 H   0  0  0  0  0  0  0  0  0  0  0  0
    5.2286    1.0998    1.1473 H   0  0  0  0  0  0  0  0  0  0  0  0
    2.6878   -0.9609    2.2376 H   0  0  0  0  0  0  0  0  0  0  0  0
    2.1912    0.7681    2.0461 H   0  0  0  0  0  0  0  0  0  0  0  0
    3.8161    0.3440    2.6542 H   0  0  0  0  0  0  0  0  0  0  0  0
  1  2  1  0
  2  3  2  0
  3  4  1  0
  4  5  2  0
  5  6  1  0
  6  7  2  0
  6  8  1  0
  8  9  1  0
  8 10  1  0
 10 11  2  3
 11 12  1  0
 12 13  2  0
 13 14  1  0
 14 15  2  0
 15 16  1  0
 16 17  2  0
 17 18  1  0
 10 19  1  0
  7  2  1  0
 17 12  1  0
 19  5  1  0
  1 20  1  0
  1 21  1  0
  1 22  1  0
  3 23  1  0
  4 24  1  0
  7 25  1  0
  9 26  1  0
  9 27  1  0
  9 28  1  0
 11 29  1  0
 13 30  1  0
 14 31  1  0
 15 32  1  0
 16 33  1  0
 18 34  1  0
 18 35  1  0
 18 36  1  0
M  CHG  1  17   1
M  END
$$$$
