
     RDKit          3D

 36 36  0  0  0  0  0  0  0  0999 V2000
    2.7822   -4.5455    3.5161 C   0  0  0  0  0  0  0  0  0  0  0  0
    2.5544   -3.9893    2.1232 C   0  0  0  0  0  0  0  0  0  0  0  0
    1.5831   -2.9472    2.2120 O   0  0  0  0  0  0  0  0  0  0  0  0
    1.2645   -2.3703    0.9384 C   0  0  0  0  0  0  0  0  0  0  0  0
    0.1154   -3.1410    0.2836 C   0  0  0  0  0  0  0  0  0  0  0  0
   -0.2884   -2.5777   -1.0778 C   0  0  0  0  0  0  0  0  0  0  0  0
   -0.8698   -1.2511   -0.9786 N   0  0  0  0  0  0  0  0  0  0  0  0
   -0.1844   -0.1220   -1.3700 C   0  0  0  0  0  0  0  0  0  0  0  0
    0.9621   -0.1732   -1.8085 O   0  0  0  0  0  0  0  0  0  0  0  0
   -0.9128    1.1859   -1.2375 C   0  0  0  0  0  0  0  0  0  0  0  0
   -2.1993    1.2058   -0.6378 C   0  0  0  0  0  0  0  0  0  0  0  0
   -3.2471    1.1159   -0.1447 N   0  0  0  0  0  0  0  0  0  0  0  0
   -0.2754    2.2683   -1.7227 C   0  0  0  0  0  0  0  0  0  0  0  0
   -0.7716    3.6038   -1.6918 C   0  0  0  0  0  0  0  0  0  0  0  0
   -0.1806    4.7426   -2.2426 C   0  0  0  0  0  0  0  0  0  0  0  0
   -1.0029    5.8590   -1.9503 C   0  0  0  0  0  0  0  0  0  0  0  0
   -2.0628    5.3431   -1.2509 C   0  0  0  0  0  0  0  0  0  0  0  0
   -3.2243    5.9619   -0.6943 N   0  0  0  0  0  4  0  0  0  0  0  0
   -3.3297    7.1840   -0.8779 O   0  0  0  0  0  0  0  0  0  0  0  0
   -4.0262    5.2468   -0.0775 O   0  0  0  0  0  1  0  0  0  0  0  0
   -1.9404    4.0020   -1.0725 O   0  0  0  0  0  0  0  0  0  0  0  0
    3.5275   -5.3509    3.5003 H   0  0  0  0  0  0  0  0  0  0  0  0
    3.1265   -3.7547    4.1972 H   0  0  0  0  0  0  0  0  0  0  0  0
    1.8444   -4.9385    3.9278 H   0  0  0  0  0  0  0  0  0  0  0  0
    3.4944   -3.5819    1.7337 H   0  0  0  0  0  0  0  0  0  0  0  0
    2.2008   -4.7866    1.4548 H   0  0  0  0  0  0  0  0  0  0  0  0
    2.1529   -2.3263    0.2933 H   0  0  0  0  0  0  0  0  0  0  0  0
    0.9550   -1.3370    1.1367 H   0  0  0  0  0  0  0  0  0  0  0  0
   -0.7494   -3.1431    0.9631 H   0  0  0  0  0  0  0  0  0  0  0  0
    0.3985   -4.1932    0.1631 H   0  0  0  0  0  0  0  0  0  0  0  0
    0.5660   -2.5737   -1.7688 H   0  0  0  0  0  0  0  0  0  0  0  0
   -1.0654   -3.2190   -1.5155 H   0  0  0  0  0  0  0  0  0  0  0  0
   -1.8121   -1.1943   -0.6065 H   0  0  0  0  0  0  0  0  0  0  0  0
    0.7054    2.1439   -2.1761 H   0  0  0  0  0  0  0  0  0  0  0  0
    0.7532    4.7582   -2.7929 H   0  0  0  0  0  0  0  0  0  0  0  0
   -0.8437    6.8958   -2.2194 H   0  0  0  0  0  0  0  0  0  0  0  0
  1  2  1  0
  2  3  1  0
  3  4  1  0
  4  5  1  0
  5  6  1  0
  6  7  1  0
  7  8  1  0
  8  9  2  0
  8 10  1  0
 10 11  1  0
 11 12  3  0
 10 13  2  3
 13 14  1  0
 14 15  2  0
 15 16  1  0
 16 17  2  0
 17 18  1  0
 18 19  2  0
 18 20  1  0
 17 21  1  0
 21 14  1  0
  1 22  1  0
  1 23  1  0
  1 24  1  0
  2 25  1  0
  2 26  1  0
  4 27  1  0
  4 28  1  0
  5 29  1  0
  5 30  1  0
  6 31  1  0
  6 32  1  0
  7 33  1  0
 13 34  1  0
 15 35  1  0
 16 36  1  0
M  CHG  2  18   1  20  -1
M  END
$$$$
