
     RDKit          3D

 71 75  0  0  0  0  0  0  0  0999 V2000
   -1.0385    4.3938   -0.2113 C   0  0  0  0  0  0  0  0  0  0  0  0
   -1.1826    2.9108    0.0176 C   0  0  0  0  0  0  0  0  0  0  0  0
   -1.6139    2.0953   -0.9652 C   0  0  0  0  0  0  0  0  0  0  0  0
   -1.9068    0.6483   -1.0169 C   0  0  0  0  0  0  0  0  0  0  0  0
   -3.2380    0.0952   -0.5479 C   0  0  2  0  0  0  0  0  0  0  0  0
   -3.5006   -1.2379    0.1150 C   0  0  0  0  0  0  0  0  0  0  0  0
   -2.3349   -2.1951    0.3612 C   0  0  0  0  0  0  0  0  0  0  0  0
   -1.3093   -1.8187    1.4129 C   0  0  2  0  0  0  0  0  0  0  0  0
   -0.1345   -2.7486    1.4775 C   0  0  0  0  0  0  0  0  0  0  0  0
   -1.8323   -1.5732    2.7367 O   0  0  0  0  0  0  0  0  0  0  0  0
   -1.3675   -0.4242    2.0220 C   0  0  1  0  0  0  0  0  0  0  0  0
   -0.3156    0.4067    2.6607 C   0  0  1  0  0  0  0  0  0  0  0  0
    0.8883   -0.1782    3.3875 C   0  0  1  0  0  0  0  0  0  0  0  0
    1.7708   -0.9013    2.5418 O   0  0  0  0  0  0  0  0  0  0  0  0
    1.5816    1.1212    3.8319 C   0  0  1  0  0  0  0  0  0  0  0  0
    3.0336    0.9665    4.2655 C   0  0  0  0  0  0  0  0  0  0  0  0
    3.1332   -0.0242    5.2810 O   0  0  0  0  0  0  0  0  0  0  0  0
    1.4196    2.0808    2.6276 C   0  0  0  0  0  0  0  0  0  0  0  0
    0.2972    1.4853    1.7125 C   0  0  1  0  0  0  0  0  0  0  0  0
    0.8803    0.8363    0.5698 O   0  0  0  0  0  0  0  0  0  0  0  0
    1.6160    1.5759   -0.2936 C   0  0  0  0  0  0  0  0  0  0  0  0
    1.8323    2.7761   -0.2141 O   0  0  0  0  0  0  0  0  0  0  0  0
    2.1145    0.7720   -1.4269 C   0  0  0  0  0  0  0  0  0  0  0  0
    2.1224   -0.5690   -1.4399 C   0  0  0  0  0  0  0  0  0  0  0  0
    2.5837   -1.3879   -2.5684 C   0  0  0  0  0  0  0  0  0  0  0  0
    1.9626   -2.6239   -2.7962 C   0  0  0  0  0  0  0  0  0  0  0  0
    2.3798   -3.4497   -3.8430 C   0  0  0  0  0  0  0  0  0  0  0  0
    3.4305   -3.0528   -4.6670 C   0  0  0  0  0  0  0  0  0  0  0  0
    4.0674   -1.8345   -4.4405 C   0  0  0  0  0  0  0  0  0  0  0  0
    3.6501   -1.0077   -3.3936 C   0  0  0  0  0  0  0  0  0  0  0  0
   -0.8207    2.5259    1.4205 C   0  0  0  0  0  0  0  0  0  0  0  0
   -1.4013    3.1098    2.3422 O   0  0  0  0  0  0  0  0  0  0  0  0
   -2.9566    0.1866   -2.0422 C   0  0  0  0  0  0  0  0  0  0  0  0
   -2.6053   -1.0298   -2.8676 C   0  0  0  0  0  0  0  0  0  0  0  0
   -3.8404    1.1569   -2.7995 C   0  0  0  0  0  0  0  0  0  0  0  0
   -1.7952    4.9430    0.3598 H   0  0  0  0  0  0  0  0  0  0  0  0
   -1.1576    4.6646   -1.2661 H   0  0  0  0  0  0  0  0  0  0  0  0
   -0.0492    4.7410    0.1046 H   0  0  0  0  0  0  0  0  0  0  0  0
   -1.7775    2.5927   -1.9224 H   0  0  0  0  0  0  0  0  0  0  0  0
   -1.0284    0.0202   -0.9163 H   0  0  0  0  0  0  0  0  0  0  0  0
   -3.9432    0.8211   -0.1426 H   0  0  0  0  0  0  0  0  0  0  0  0
   -4.0042   -1.0469    1.0715 H   0  0  0  0  0  0  0  0  0  0  0  0
   -4.2472   -1.7614   -0.4961 H   0  0  0  0  0  0  0  0  0  0  0  0
   -2.7646   -3.1599    0.6625 H   0  0  0  0  0  0  0  0  0  0  0  0
   -1.8044   -2.3868   -0.5748 H   0  0  0  0  0  0  0  0  0  0  0  0
   -0.4313   -3.7632    1.1872 H   0  0  0  0  0  0  0  0  0  0  0  0
    0.6475   -2.4309    0.7873 H   0  0  0  0  0  0  0  0  0  0  0  0
    0.2771   -2.8328    2.4870 H   0  0  0  0  0  0  0  0  0  0  0  0
   -2.1709    0.2432    1.7361 H   0  0  0  0  0  0  0  0  0  0  0  0
   -0.8814    0.9360    3.4463 H   0  0  0  0  0  0  0  0  0  0  0  0
    0.5953   -0.8135    4.2296 H   0  0  0  0  0  0  0  0  0  0  0  0
    2.4284   -1.3211    3.1306 H   0  0  0  0  0  0  0  0  0  0  0  0
    1.0128    1.5280    4.6804 H   0  0  0  0  0  0  0  0  0  0  0  0
    3.4315    1.9101    4.6536 H   0  0  0  0  0  0  0  0  0  0  0  0
    3.6744    0.6577    3.4332 H   0  0  0  0  0  0  0  0  0  0  0  0
    2.7546    0.3548    6.0947 H   0  0  0  0  0  0  0  0  0  0  0  0
    1.1615    3.0801    2.9970 H   0  0  0  0  0  0  0  0  0  0  0  0
    2.3754    2.1716    2.1023 H   0  0  0  0  0  0  0  0  0  0  0  0
    2.4801    1.3628   -2.2588 H   0  0  0  0  0  0  0  0  0  0  0  0
    1.7550   -1.1246   -0.5818 H   0  0  0  0  0  0  0  0  0  0  0  0
    1.1417   -2.9535   -2.1625 H   0  0  0  0  0  0  0  0  0  0  0  0
    1.8860   -4.4030   -4.0127 H   0  0  0  0  0  0  0  0  0  0  0  0
    3.7576   -3.6953   -5.4803 H   0  0  0  0  0  0  0  0  0  0  0  0
    4.8951   -1.5283   -5.0758 H   0  0  0  0  0  0  0  0  0  0  0  0
    4.1792   -0.0726   -3.2280 H   0  0  0  0  0  0  0  0  0  0  0  0
   -2.4185   -0.7426   -3.9082 H   0  0  0  0  0  0  0  0  0  0  0  0
   -3.4295   -1.7497   -2.8616 H   0  0  0  0  0  0  0  0  0  0  0  0
   -1.6980   -1.5295   -2.5193 H   0  0  0  0  0  0  0  0  0  0  0  0
   -4.7401    0.6438   -3.1558 H   0  0  0  0  0  0  0  0  0  0  0  0
   -3.3092    1.5586   -3.6686 H   0  0  0  0  0  0  0  0  0  0  0  0
   -4.1682    1.9999   -2.1823 H   0  0  0  0  0  0  0  0  0  0  0  0
  1  2  1  0
  2  3  2  3
  3  4  1  0
  4  5  1  0
  5  6  1  0
  6  7  1  0
  7  8  1  0
  8  9  1  1
  8 10  1  0
 10 11  1  0
 11 12  1  0
 12 13  1  0
 13 14  1  0
 13 15  1  0
 15 16  1  0
 16 17  1  0
 15 18  1  0
 18 19  1  0
 19 20  1  6
 20 21  1  0
 21 22  2  0
 21 23  1  0
 23 24  2  0
 24 25  1  0
 25 26  2  0
 26 27  1  0
 27 28  2  0
 28 29  1  0
 29 30  2  0
 19 31  1  0
 31 32  2  0
  5 33  1  0
 33 34  1  0
 33 35  1  0
 31  2  1  0
 33  4  1  0
 11  8  1  0
 19 12  1  0
 30 25  1  0
  1 36  1  0
  1 37  1  0
  1 38  1  0
  3 39  1  0
  4 40  1  0
  5 41  1  6
  6 42  1  0
  6 43  1  0
  7 44  1  0
  7 45  1  0
  9 46  1  0
  9 47  1  0
  9 48  1  0
 11 49  1  6
 12 50  1  1
 13 51  1  1
 14 52  1  0
 15 53  1  1
 16 54  1  0
 16 55  1  0
 17 56  1  0
 18 57  1  0
 18 58  1  0
 23 59  1  0
 24 60  1  0
 26 61  1  0
 27 62  1  0
 28 63  1  0
 29 64  1  0
 30 65  1  0
 34 66  1  0
 34 67  1  0
 34 68  1  0
 35 69  1  0
 35 70  1  0
 35 71  1  0
M  END
$$$$
