
     RDKit          3D

 58 62  0  0  0  0  0  0  0  0999 V2000
    8.3368    2.4823   -0.0493 C   0  0  0  0  0  0  0  0  0  0  0  0
    7.5186    1.8976    0.9537 O   0  0  0  0  0  0  0  0  0  0  0  0
    6.1735    1.7971    0.7001 C   0  0  0  0  0  0  0  0  0  0  0  0
    5.5731    2.1252   -0.5187 C   0  0  0  0  0  0  0  0  0  0  0  0
    4.1911    1.9894   -0.6861 C   0  0  0  0  0  0  0  0  0  0  0  0
    3.3844    1.5271    0.3601 C   0  0  0  0  0  0  0  0  0  0  0  0
    1.9380    1.3870    0.2159 C   0  0  0  0  0  0  0  0  0  0  0  0
    1.0375    1.0592    1.1236 N   0  0  0  0  0  0  0  0  0  0  0  0
   -0.1614    1.0613    0.4384 C   0  0  0  0  0  0  0  0  0  0  0  0
   -1.4316    0.7368    1.1361 C   0  0  0  0  0  0  0  0  0  0  0  0
   -1.7473   -0.6774    1.0165 N   0  0  0  0  0  0  0  0  0  0  0  0
   -2.7202   -1.2612    0.2437 C   0  0  0  0  0  0  0  0  0  0  0  0
   -3.7585   -0.3721   -0.8195 S   0  0  0  0  0  0  0  0  0  0  0  0
   -4.7217   -1.7293   -1.5540 C   0  0  0  0  0  0  0  0  0  0  0  0
   -5.7128   -1.2039   -2.5637 C   0  0  0  0  0  0  0  0  0  0  0  0
   -7.0032   -0.8160   -2.1644 C   0  0  0  0  0  0  0  0  0  0  0  0
   -7.9161   -0.3118   -3.0950 C   0  0  0  0  0  0  0  0  0  0  0  0
   -7.5470   -0.1849   -4.4320 C   0  0  0  0  0  0  0  0  0  0  0  0
   -6.2692   -0.5623   -4.8275 C   0  0  0  0  0  0  0  0  0  0  0  0
   -5.9132   -0.4365   -6.1126 F   0  0  0  0  0  0  0  0  0  0  0  0
   -5.3514   -1.0659   -3.9111 C   0  0  0  0  0  0  0  0  0  0  0  0
   -2.7724   -2.5613    0.4144 N   0  0  0  0  0  0  0  0  0  0  0  0
   -1.7998   -2.8448    1.3394 C   0  0  0  0  0  0  0  0  0  0  0  0
   -1.4289   -4.0726    1.8859 C   0  0  0  0  0  0  0  0  0  0  0  0
   -0.4021   -4.0310    2.8143 C   0  0  0  0  0  0  0  0  0  0  0  0
    0.2423   -2.9069    3.2064 N   0  0  0  0  0  0  0  0  0  0  0  0
   -0.1129   -1.7160    2.6685 C   0  0  0  0  0  0  0  0  0  0  0  0
   -1.1420   -1.6874    1.7376 C   0  0  0  0  0  0  0  0  0  0  0  0
    0.0680    1.4132   -0.8764 C   0  0  0  0  0  0  0  0  0  0  0  0
   -0.7718    1.5962   -2.0730 C   0  0  0  0  0  0  0  0  0  0  0  0
    1.4105    1.6220   -1.0268 O   0  0  0  0  0  0  0  0  0  0  0  0
    3.9925    1.1937    1.5811 C   0  0  0  0  0  0  0  0  0  0  0  0
    5.3765    1.3173    1.7579 C   0  0  0  0  0  0  0  0  0  0  0  0
    6.0385    1.0096    2.9214 O   0  0  0  0  0  0  0  0  0  0  0  0
    5.2919    0.3924    3.9600 C   0  0  0  0  0  0  0  0  0  0  0  0
    9.3576    2.5376    0.3414 H   0  0  0  0  0  0  0  0  0  0  0  0
    8.0141    3.5034   -0.2795 H   0  0  0  0  0  0  0  0  0  0  0  0
    8.3593    1.8607   -0.9505 H   0  0  0  0  0  0  0  0  0  0  0  0
    6.1518    2.4860   -1.3624 H   0  0  0  0  0  0  0  0  0  0  0  0
    3.7522    2.2526   -1.6465 H   0  0  0  0  0  0  0  0  0  0  0  0
   -2.2589    1.3393    0.7533 H   0  0  0  0  0  0  0  0  0  0  0  0
   -1.3512    0.9609    2.2065 H   0  0  0  0  0  0  0  0  0  0  0  0
   -5.2547   -2.2765   -0.7677 H   0  0  0  0  0  0  0  0  0  0  0  0
   -4.0456   -2.4412   -2.0415 H   0  0  0  0  0  0  0  0  0  0  0  0
   -7.3046   -0.9049   -1.1216 H   0  0  0  0  0  0  0  0  0  0  0  0
   -8.9136   -0.0170   -2.7749 H   0  0  0  0  0  0  0  0  0  0  0  0
   -8.2442    0.2058   -5.1661 H   0  0  0  0  0  0  0  0  0  0  0  0
   -4.3601   -1.3459   -4.2579 H   0  0  0  0  0  0  0  0  0  0  0  0
   -1.9157   -4.9954    1.6024 H   0  0  0  0  0  0  0  0  0  0  0  0
   -0.0534   -4.9442    3.2899 H   0  0  0  0  0  0  0  0  0  0  0  0
    0.4353   -0.8419    2.9979 H   0  0  0  0  0  0  0  0  0  0  0  0
   -1.6796    2.1541   -1.8274 H   0  0  0  0  0  0  0  0  0  0  0  0
   -1.0582    0.6267   -2.4899 H   0  0  0  0  0  0  0  0  0  0  0  0
   -0.2375    2.1523   -2.8493 H   0  0  0  0  0  0  0  0  0  0  0  0
    3.3569    0.8376    2.3870 H   0  0  0  0  0  0  0  0  0  0  0  0
    4.8376   -0.5436    3.6212 H   0  0  0  0  0  0  0  0  0  0  0  0
    5.9846    0.1500    4.7718 H   0  0  0  0  0  0  0  0  0  0  0  0
    4.5385    1.0775    4.3604 H   0  0  0  0  0  0  0  0  0  0  0  0
  1  2  1  0
  2  3  1  0
  3  4  2  0
  4  5  1  0
  5  6  2  0
  6  7  1  0
  7  8  2  0
  8  9  1  0
  9 10  1  0
 10 11  1  0
 11 12  1  0
 12 13  1  0
 13 14  1  0
 14 15  1  0
 15 16  2  0
 16 17  1  0
 17 18  2  0
 18 19  1  0
 19 20  1  0
 19 21  2  0
 12 22  2  0
 22 23  1  0
 23 24  2  0
 24 25  1  0
 25 26  2  0
 26 27  1  0
 27 28  2  0
  9 29  2  0
 29 30  1  0
 29 31  1  0
  6 32  1  0
 32 33  2  0
 33 34  1  0
 34 35  1  0
 33  3  1  0
 31  7  1  0
 28 11  1  0
 21 15  1  0
 28 23  1  0
  1 36  1  0
  1 37  1  0
  1 38  1  0
  4 39  1  0
  5 40  1  0
 10 41  1  0
 10 42  1  0
 14 43  1  0
 14 44  1  0
 16 45  1  0
 17 46  1  0
 18 47  1  0
 21 48  1  0
 24 49  1  0
 25 50  1  0
 27 51  1  0
 30 52  1  0
 30 53  1  0
 30 54  1  0
 32 55  1  0
 35 56  1  0
 35 57  1  0
 35 58  1  0
M  END
$$$$
