
     RDKit          3D

 57 62  0  0  0  0  0  0  0  0999 V2000
    7.9688    0.3666    1.5370 C   0  0  0  0  0  0  0  0  0  0  0  0
    6.6967   -0.1456    0.9490 C   0  0  0  0  0  0  0  0  0  0  0  0
    5.8464   -1.1148    1.4432 C   0  0  0  0  0  0  0  0  0  0  0  0
    4.7203   -1.3277    0.5945 C   0  0  0  0  0  0  0  0  0  0  0  0
    4.7347   -0.4993   -0.5103 C   0  0  0  0  0  0  0  0  0  0  0  0
    3.7750   -0.3983   -1.5988 C   0  0  0  0  0  0  0  0  0  0  0  0
    4.1205   -0.4636   -2.7787 O   0  0  0  0  0  0  0  0  0  0  0  0
    2.4108   -0.2470   -1.2513 N   0  0  0  0  0  0  0  0  0  0  0  0
    1.4912   -0.1263   -2.3798 C   0  0  0  0  0  0  0  0  0  0  0  0
    0.0421   -0.4014   -1.9815 C   0  0  0  0  0  0  0  0  0  0  0  0
   -0.4073    0.4653   -0.7792 C   0  0  0  0  0  0  0  0  0  0  0  0
    0.6002    0.2387    0.3713 C   0  0  0  0  0  0  0  0  0  0  0  0
    2.0366    0.5190   -0.0629 C   0  0  0  0  0  0  0  0  0  0  0  0
   -0.2798    1.8301   -1.2576 O   0  0  0  0  0  0  0  0  0  0  0  0
   -0.9425    2.8081   -0.5791 C   0  0  0  0  0  0  0  0  0  0  0  0
   -0.5865    4.1199   -0.8928 C   0  0  0  0  0  0  0  0  0  0  0  0
   -1.1967    5.1886   -0.2314 C   0  0  0  0  0  0  0  0  0  0  0  0
   -2.1638    4.9413    0.7431 C   0  0  0  0  0  0  0  0  0  0  0  0
   -2.9068    6.2599    1.5584 Cl  0  0  0  0  0  0  0  0  0  0  0  0
   -2.5331    3.6358    1.0555 C   0  0  0  0  0  0  0  0  0  0  0  0
   -1.9243    2.5747    0.3778 C   0  0  0  0  0  0  0  0  0  0  0  0
   -2.3068    1.1859    0.6661 C   0  0  0  0  0  0  0  0  0  0  0  0
   -2.9276    0.9243    1.6930 O   0  0  0  0  0  0  0  0  0  0  0  0
   -1.8698    0.1458   -0.3611 C   0  0  0  0  0  0  0  0  0  0  0  0
   -2.1239   -1.2658    0.1507 C   0  0  0  0  0  0  0  0  0  0  0  0
   -3.4788   -1.4767   -0.4386 C   0  0  0  0  0  0  0  0  0  0  0  0
   -4.3599   -2.5825   -0.0147 C   0  0  0  0  0  0  0  0  0  0  0  0
   -5.6681   -2.6593   -0.4973 C   0  0  0  0  0  0  0  0  0  0  0  0
   -6.4879   -3.7130   -0.0966 C   0  0  0  0  0  0  0  0  0  0  0  0
   -5.9664   -4.6591    0.7716 C   0  0  0  0  0  0  0  0  0  0  0  0
   -4.7054   -4.6172    1.2557 N   0  0  0  0  0  0  0  0  0  0  0  0
   -3.9319   -3.5782    0.8537 C   0  0  0  0  0  0  0  0  0  0  0  0
   -3.8015   -0.6348   -1.3683 N   0  0  0  0  0  0  0  0  0  0  0  0
   -2.7375    0.2836   -1.4993 O   0  0  0  0  0  0  0  0  0  0  0  0
    6.1345    0.4856   -0.5388 S   0  0  0  0  0  0  0  0  0  0  0  0
    8.7950    0.2846    0.8219 H   0  0  0  0  0  0  0  0  0  0  0  0
    8.2436   -0.2049    2.4294 H   0  0  0  0  0  0  0  0  0  0  0  0
    7.8610    1.4167    1.8313 H   0  0  0  0  0  0  0  0  0  0  0  0
    6.0264   -1.6517    2.3665 H   0  0  0  0  0  0  0  0  0  0  0  0
    3.9408   -2.0572    0.7810 H   0  0  0  0  0  0  0  0  0  0  0  0
    1.6026    0.8814   -2.7992 H   0  0  0  0  0  0  0  0  0  0  0  0
    1.7796   -0.8349   -3.1653 H   0  0  0  0  0  0  0  0  0  0  0  0
   -0.5899   -0.2021   -2.8556 H   0  0  0  0  0  0  0  0  0  0  0  0
   -0.0484   -1.4674   -1.7480 H   0  0  0  0  0  0  0  0  0  0  0  0
    0.5345   -0.7965    0.7279 H   0  0  0  0  0  0  0  0  0  0  0  0
    0.3761    0.8883    1.2248 H   0  0  0  0  0  0  0  0  0  0  0  0
    2.1774    1.5810   -0.2993 H   0  0  0  0  0  0  0  0  0  0  0  0
    2.6978    0.3015    0.7776 H   0  0  0  0  0  0  0  0  0  0  0  0
    0.1704    4.3133   -1.6501 H   0  0  0  0  0  0  0  0  0  0  0  0
   -0.9134    6.2085   -0.4810 H   0  0  0  0  0  0  0  0  0  0  0  0
   -3.2937    3.4428    1.8085 H   0  0  0  0  0  0  0  0  0  0  0  0
   -2.1156   -1.3565    1.2391 H   0  0  0  0  0  0  0  0  0  0  0  0
   -1.4556   -2.0171   -0.2753 H   0  0  0  0  0  0  0  0  0  0  0  0
   -6.0546   -1.9038   -1.1785 H   0  0  0  0  0  0  0  0  0  0  0  0
   -7.5083   -3.7935   -0.4547 H   0  0  0  0  0  0  0  0  0  0  0  0
   -6.5663   -5.5002    1.1107 H   0  0  0  0  0  0  0  0  0  0  0  0
   -2.9306   -3.5948    1.2696 H   0  0  0  0  0  0  0  0  0  0  0  0
  1  2  1  0
  2  3  2  0
  3  4  1  0
  4  5  2  0
  5  6  1  0
  6  7  2  0
  6  8  1  0
  8  9  1  0
  9 10  1  0
 10 11  1  0
 11 12  1  0
 12 13  1  0
 11 14  1  0
 14 15  1  0
 15 16  2  0
 16 17  1  0
 17 18  2  0
 18 19  1  0
 18 20  1  0
 20 21  2  0
 21 22  1  0
 22 23  2  0
 22 24  1  0
 24 25  1  0
 25 26  1  0
 26 27  1  0
 27 28  2  0
 28 29  1  0
 29 30  2  0
 30 31  1  0
 31 32  2  0
 26 33  2  0
 33 34  1  0
  5 35  1  0
 35  2  1  0
 13  8  1  0
 21 15  1  0
 34 24  1  0
 24 11  1  0
 32 27  1  0
  1 36  1  0
  1 37  1  0
  1 38  1  0
  3 39  1  0
  4 40  1  0
  9 41  1  0
  9 42  1  0
 10 43  1  0
 10 44  1  0
 12 45  1  0
 12 46  1  0
 13 47  1  0
 13 48  1  0
 16 49  1  0
 17 50  1  0
 20 51  1  0
 25 52  1  0
 25 53  1  0
 28 54  1  0
 29 55  1  0
 30 56  1  0
 32 57  1  0
M  END
$$$$
