
     RDKit          3D

 59 63  0  0  0  0  0  0  0  0999 V2000
   -4.4660   -4.0658   -0.5404 C   0  0  0  0  0  0  0  0  0  0  0  0
   -4.3749   -2.7134   -1.2369 C   0  0  0  0  0  0  0  0  0  0  0  0
   -3.0304   -2.0151   -0.9918 C   0  0  0  0  0  0  0  0  0  0  0  0
   -2.8170   -1.0252   -2.0480 N   0  0  0  0  0  0  0  0  0  0  0  0
   -1.5966   -0.3564   -1.8851 C   0  0  0  0  0  0  0  0  0  0  0  0
   -0.9815   -0.0163   -3.0246 N   0  0  0  0  0  0  0  0  0  0  0  0
    0.1489    0.6754   -2.8823 C   0  0  0  0  0  0  0  0  0  0  0  0
    0.7393    0.9932   -1.7243 N   0  0  0  0  0  0  0  0  0  0  0  0
    0.1420    0.5917   -0.5825 C   0  0  0  0  0  0  0  0  0  0  0  0
    0.8698    0.7639    0.6097 N   0  0  0  0  0  0  0  0  0  0  0  0
    1.3564   -0.5211    1.1847 C   0  0  0  0  0  0  0  0  0  0  0  0
    2.6490   -1.0268    0.5093 C   0  0  0  0  0  0  0  0  0  0  0  0
    3.7053    0.0083    0.5789 N   0  0  0  0  0  0  0  0  0  0  0  0
    4.9467   -0.4559    0.0964 C   0  0  0  0  0  0  0  0  0  0  0  0
    6.0888    0.3333    0.2527 C   0  0  0  0  0  0  0  0  0  0  0  0
    7.3254   -0.1277   -0.1985 C   0  0  0  0  0  0  0  0  0  0  0  0
    7.4067   -1.3785   -0.7884 C   0  0  0  0  0  0  0  0  0  0  0  0
    6.2424   -2.1135   -0.8946 C   0  0  0  0  0  0  0  0  0  0  0  0
    5.0340   -1.6829   -0.4656 N   0  0  0  0  0  0  0  0  0  0  0  0
    3.2768    1.2781   -0.0553 C   0  0  0  0  0  0  0  0  0  0  0  0
    1.9473    1.7849    0.5584 C   0  0  0  0  0  0  0  0  0  0  0  0
   -1.1113   -0.0434   -0.6072 C   0  0  0  0  0  0  0  0  0  0  0  0
   -1.9162   -0.3957    0.5384 N   0  0  0  0  0  0  0  0  0  0  0  0
   -1.9091    0.4295    1.7462 C   0  0  0  0  0  0  0  0  0  0  0  0
   -2.6906    1.7186    1.5770 C   0  0  0  0  0  0  0  0  0  0  0  0
   -4.0804    1.7396    1.7721 C   0  0  0  0  0  0  0  0  0  0  0  0
   -4.8062    2.9201    1.5993 C   0  0  0  0  0  0  0  0  0  0  0  0
   -4.1466    4.0872    1.2242 C   0  0  0  0  0  0  0  0  0  0  0  0
   -5.1268    5.6853    0.9832 Br  0  0  0  0  0  0  0  0  0  0  0  0
   -2.7692    4.0843    1.0198 C   0  0  0  0  0  0  0  0  0  0  0  0
   -2.0448    2.9034    1.1961 C   0  0  0  0  0  0  0  0  0  0  0  0
   -2.9736   -1.3092    0.3873 C   0  0  0  0  0  0  0  0  0  0  0  0
   -3.7516   -1.5877    1.3007 O   0  0  0  0  0  0  0  0  0  0  0  0
   -4.3898   -3.9699    0.5464 H   0  0  0  0  0  0  0  0  0  0  0  0
   -3.6692   -4.7344   -0.8825 H   0  0  0  0  0  0  0  0  0  0  0  0
   -5.4249   -4.5426   -0.7674 H   0  0  0  0  0  0  0  0  0  0  0  0
   -5.2056   -2.0781   -0.9078 H   0  0  0  0  0  0  0  0  0  0  0  0
   -4.5178   -2.8822   -2.3121 H   0  0  0  0  0  0  0  0  0  0  0  0
   -2.2247   -2.7615   -1.0195 H   0  0  0  0  0  0  0  0  0  0  0  0
   -2.8740   -1.3463   -3.0095 H   0  0  0  0  0  0  0  0  0  0  0  0
    0.6452    0.9994   -3.7899 H   0  0  0  0  0  0  0  0  0  0  0  0
    1.5602   -0.3460    2.2489 H   0  0  0  0  0  0  0  0  0  0  0  0
    0.5929   -1.3060    1.1460 H   0  0  0  0  0  0  0  0  0  0  0  0
    2.9666   -1.9323    1.0419 H   0  0  0  0  0  0  0  0  0  0  0  0
    2.4366   -1.2950   -0.5342 H   0  0  0  0  0  0  0  0  0  0  0  0
    6.0307    1.2939    0.7511 H   0  0  0  0  0  0  0  0  0  0  0  0
    8.2145    0.4821   -0.0739 H   0  0  0  0  0  0  0  0  0  0  0  0
    8.3511   -1.7753   -1.1443 H   0  0  0  0  0  0  0  0  0  0  0  0
    6.2460   -3.1061   -1.3375 H   0  0  0  0  0  0  0  0  0  0  0  0
    3.1781    1.1371   -1.1379 H   0  0  0  0  0  0  0  0  0  0  0  0
    4.0214    2.0671    0.1010 H   0  0  0  0  0  0  0  0  0  0  0  0
    2.1449    2.0895    1.5949 H   0  0  0  0  0  0  0  0  0  0  0  0
    1.6082    2.6925    0.0426 H   0  0  0  0  0  0  0  0  0  0  0  0
   -0.9027    0.6401    2.1056 H   0  0  0  0  0  0  0  0  0  0  0  0
   -2.3627   -0.1365    2.5707 H   0  0  0  0  0  0  0  0  0  0  0  0
   -4.6076    0.8306    2.0574 H   0  0  0  0  0  0  0  0  0  0  0  0
   -5.8834    2.9134    1.7529 H   0  0  0  0  0  0  0  0  0  0  0  0
   -2.2503    4.9907    0.7202 H   0  0  0  0  0  0  0  0  0  0  0  0
   -0.9694    2.9134    1.0280 H   0  0  0  0  0  0  0  0  0  0  0  0
  1  2  1  0
  2  3  1  0
  3  4  1  0
  4  5  1  0
  5  6  2  0
  6  7  1  0
  7  8  2  0
  8  9  1  0
  9 10  1  0
 10 11  1  0
 11 12  1  0
 12 13  1  0
 13 14  1  0
 14 15  2  0
 15 16  1  0
 16 17  2  0
 17 18  1  0
 18 19  2  0
 13 20  1  0
 20 21  1  0
  9 22  2  0
 22 23  1  0
 23 24  1  0
 24 25  1  0
 25 26  2  0
 26 27  1  0
 27 28  2  0
 28 29  1  0
 28 30  1  0
 30 31  2  0
 23 32  1  0
 32 33  2  0
 32  3  1  0
 22  5  1  0
 31 25  1  0
 21 10  1  0
 19 14  1  0
  1 34  1  0
  1 35  1  0
  1 36  1  0
  2 37  1  0
  2 38  1  0
  3 39  1  0
  4 40  1  0
  7 41  1  0
 11 42  1  0
 11 43  1  0
 12 44  1  0
 12 45  1  0
 15 46  1  0
 16 47  1  0
 17 48  1  0
 18 49  1  0
 20 50  1  0
 20 51  1  0
 21 52  1  0
 21 53  1  0
 24 54  1  0
 24 55  1  0
 26 56  1  0
 27 57  1  0
 30 58  1  0
 31 59  1  0
M  END
$$$$
