
     RDKit          3D

 55 58  0  0  0  0  0  0  0  0999 V2000
    8.5140    1.3850    1.0884 C   0  0  0  0  0  0  0  0  0  0  0  0
    7.8149    0.7666    0.0177 O   0  0  0  0  0  0  0  0  0  0  0  0
    6.4444    0.7319    0.0861 C   0  0  0  0  0  0  0  0  0  0  0  0
    5.6939    1.2386    1.1512 C   0  0  0  0  0  0  0  0  0  0  0  0
    4.2999    1.1534    1.1339 C   0  0  0  0  0  0  0  0  0  0  0  0
    3.6430    0.5508    0.0571 C   0  0  0  0  0  0  0  0  0  0  0  0
    2.1541    0.4807    0.0855 C   0  0  0  0  0  0  0  0  0  0  0  0
    1.5235   -0.7468   -0.4988 C   0  0  0  0  0  0  0  0  0  0  0  0
    0.1771   -0.7981   -0.4750 C   0  0  0  0  0  0  0  0  0  0  0  0
   -0.6160   -1.9344   -0.9970 C   0  0  0  0  0  0  0  0  0  0  0  0
   -1.3526   -2.5447   -0.0363 F   0  0  0  0  0  0  0  0  0  0  0  0
    0.1923   -2.9021   -1.5171 F   0  0  0  0  0  0  0  0  0  0  0  0
   -1.4540   -1.5759   -2.0011 F   0  0  0  0  0  0  0  0  0  0  0  0
   -0.5409    0.2545    0.0789 N   0  0  0  0  0  0  0  0  0  0  0  0
   -1.8826    0.3892    0.1876 N   0  0  0  0  0  0  0  0  0  0  0  0
   -2.0873    1.5623    0.8105 C   0  0  0  0  0  0  0  0  0  0  0  0
   -3.4224    2.1362    1.0915 C   0  0  0  0  0  0  0  0  0  0  0  0
   -3.5271    3.3513    1.2750 O   0  0  0  0  0  0  0  0  0  0  0  0
   -4.5520    1.3032    1.1221 N   0  0  0  0  0  0  0  0  0  0  0  0
   -5.8468    1.9560    1.2331 C   0  0  0  0  0  0  0  0  0  0  0  0
   -4.5035   -0.1024    1.5328 C   0  0  0  0  0  0  0  0  0  0  0  0
   -5.2327   -1.0300    0.5884 C   0  0  0  0  0  0  0  0  0  0  0  0
   -4.8858   -1.0911   -0.7689 C   0  0  0  0  0  0  0  0  0  0  0  0
   -5.5477   -1.9633   -1.6345 C   0  0  0  0  0  0  0  0  0  0  0  0
   -6.5624   -2.7873   -1.1532 C   0  0  0  0  0  0  0  0  0  0  0  0
   -6.9138   -2.7421    0.1943 C   0  0  0  0  0  0  0  0  0  0  0  0
   -6.2511   -1.8711    1.0617 C   0  0  0  0  0  0  0  0  0  0  0  0
   -0.8528    2.2019    1.0816 C   0  0  0  0  0  0  0  0  0  0  0  0
    0.1242    1.3541    0.6222 C   0  0  0  0  0  0  0  0  0  0  0  0
    1.4844    1.4582    0.6278 N   0  0  0  0  0  0  0  0  0  0  0  0
    4.3860    0.0588   -1.0235 C   0  0  0  0  0  0  0  0  0  0  0  0
    5.7843    0.1427   -1.0131 C   0  0  0  0  0  0  0  0  0  0  0  0
    6.5949   -0.3182   -2.0216 O   0  0  0  0  0  0  0  0  0  0  0  0
    5.9781   -0.8441   -3.1874 C   0  0  0  0  0  0  0  0  0  0  0  0
    8.3471    0.8508    2.0295 H   0  0  0  0  0  0  0  0  0  0  0  0
    9.5836    1.3339    0.8631 H   0  0  0  0  0  0  0  0  0  0  0  0
    8.2438    2.4423    1.1789 H   0  0  0  0  0  0  0  0  0  0  0  0
    6.1612    1.7087    2.0102 H   0  0  0  0  0  0  0  0  0  0  0  0
    3.7307    1.5582    1.9689 H   0  0  0  0  0  0  0  0  0  0  0  0
    2.1343   -1.5525   -0.8860 H   0  0  0  0  0  0  0  0  0  0  0  0
   -6.0820    2.0956    2.2927 H   0  0  0  0  0  0  0  0  0  0  0  0
   -6.6197    1.3439    0.7609 H   0  0  0  0  0  0  0  0  0  0  0  0
   -5.8375    2.9332    0.7409 H   0  0  0  0  0  0  0  0  0  0  0  0
   -4.9672   -0.1430    2.5278 H   0  0  0  0  0  0  0  0  0  0  0  0
   -3.4881   -0.4689    1.6912 H   0  0  0  0  0  0  0  0  0  0  0  0
   -4.0936   -0.4562   -1.1602 H   0  0  0  0  0  0  0  0  0  0  0  0
   -5.2670   -1.9989   -2.6837 H   0  0  0  0  0  0  0  0  0  0  0  0
   -7.0766   -3.4665   -1.8278 H   0  0  0  0  0  0  0  0  0  0  0  0
   -7.7029   -3.3876    0.5708 H   0  0  0  0  0  0  0  0  0  0  0  0
   -6.5370   -1.8546    2.1109 H   0  0  0  0  0  0  0  0  0  0  0  0
   -0.7020    3.1651    1.5486 H   0  0  0  0  0  0  0  0  0  0  0  0
    3.8685   -0.3633   -1.8763 H   0  0  0  0  0  0  0  0  0  0  0  0
    5.4033   -1.7466   -2.9555 H   0  0  0  0  0  0  0  0  0  0  0  0
    5.3527   -0.0914   -3.6788 H   0  0  0  0  0  0  0  0  0  0  0  0
    6.7706   -1.1259   -3.8874 H   0  0  0  0  0  0  0  0  0  0  0  0
  1  2  1  0
  2  3  1  0
  3  4  2  0
  4  5  1  0
  5  6  2  0
  6  7  1  0
  7  8  1  0
  8  9  2  0
  9 10  1  0
 10 11  1  0
 10 12  1  0
 10 13  1  0
  9 14  1  0
 14 15  1  0
 15 16  2  0
 16 17  1  0
 17 18  2  0
 17 19  1  0
 19 20  1  0
 19 21  1  0
 21 22  1  0
 22 23  2  0
 23 24  1  0
 24 25  2  0
 25 26  1  0
 26 27  2  0
 16 28  1  0
 28 29  2  0
 29 30  1  0
  6 31  1  0
 31 32  2  0
 32 33  1  0
 33 34  1  0
 32  3  1  0
 30  7  2  0
 29 14  1  0
 27 22  1  0
  1 35  1  0
  1 36  1  0
  1 37  1  0
  4 38  1  0
  5 39  1  0
  8 40  1  0
 20 41  1  0
 20 42  1  0
 20 43  1  0
 21 44  1  0
 21 45  1  0
 23 46  1  0
 24 47  1  0
 25 48  1  0
 26 49  1  0
 27 50  1  0
 28 51  1  0
 31 52  1  0
 34 53  1  0
 34 54  1  0
 34 55  1  0
M  END
$$$$
