
     RDKit          3D

 39 41  0  0  0  0  0  0  0  0999 V2000
    5.0313   -0.2326    0.1832 C   0  0  0  0  0  0  0  0  0  0  0  0
    3.8760   -0.1570   -0.7165 N   0  0  0  0  0  0  0  0  0  0  0  0
    3.8374    1.1622   -1.3527 C   0  0  0  0  0  0  0  0  0  0  0  0
    2.6377   -0.4431    0.0347 C   0  0  0  0  0  0  0  0  0  0  0  0
    1.4020   -0.6331   -0.8682 C   0  0  0  0  0  0  0  0  0  0  0  0
    0.2053   -1.0938   -0.0682 C   0  0  0  0  0  0  0  0  0  0  0  0
   -1.0314   -0.5506    0.0139 C   0  0  0  0  0  0  0  0  0  0  0  0
   -1.4308    0.6680   -0.7372 C   0  0  0  0  0  0  0  0  0  0  0  0
   -1.2514    0.7787   -2.1244 C   0  0  0  0  0  0  0  0  0  0  0  0
   -1.6529    1.9301   -2.8045 C   0  0  0  0  0  0  0  0  0  0  0  0
   -2.2593    2.9739   -2.1104 C   0  0  0  0  0  0  0  0  0  0  0  0
   -2.4858    2.8592   -0.7385 C   0  0  0  0  0  0  0  0  0  0  0  0
   -2.0931    1.7039   -0.0503 C   0  0  0  0  0  0  0  0  0  0  0  0
   -2.4878    1.5792    1.6950 S   0  0  0  0  0  0  0  0  0  0  0  0
   -2.6636   -0.1980    1.8680 C   0  0  0  0  0  0  0  0  0  0  0  0
   -3.5315   -0.6856    2.8539 C   0  0  0  0  0  0  0  0  0  0  0  0
   -3.7156   -2.0603    3.0129 C   0  0  0  0  0  0  0  0  0  0  0  0
   -3.0359   -2.9490    2.1836 C   0  0  0  0  0  0  0  0  0  0  0  0
   -3.2772   -4.6426    2.3703 Cl  0  0  0  0  0  0  0  0  0  0  0  0
   -2.1632   -2.4793    1.2028 C   0  0  0  0  0  0  0  0  0  0  0  0
   -1.9541   -1.0997    1.0479 C   0  0  0  0  0  0  0  0  0  0  0  0
    5.9622   -0.0635   -0.3696 H   0  0  0  0  0  0  0  0  0  0  0  0
    5.1110   -1.2318    0.6260 H   0  0  0  0  0  0  0  0  0  0  0  0
    4.9723    0.5020    0.9946 H   0  0  0  0  0  0  0  0  0  0  0  0
    3.0628    1.2090   -2.1241 H   0  0  0  0  0  0  0  0  0  0  0  0
    3.6595    1.9657   -0.6289 H   0  0  0  0  0  0  0  0  0  0  0  0
    4.7837    1.3685   -1.8663 H   0  0  0  0  0  0  0  0  0  0  0  0
    2.4413    0.3447    0.7748 H   0  0  0  0  0  0  0  0  0  0  0  0
    2.7828   -1.3747    0.5985 H   0  0  0  0  0  0  0  0  0  0  0  0
    1.6160   -1.3927   -1.6298 H   0  0  0  0  0  0  0  0  0  0  0  0
    1.1985    0.3041   -1.3881 H   0  0  0  0  0  0  0  0  0  0  0  0
    0.4351   -1.9595    0.5542 H   0  0  0  0  0  0  0  0  0  0  0  0
   -0.8015   -0.0356   -2.6878 H   0  0  0  0  0  0  0  0  0  0  0  0
   -1.4971    2.0080   -3.8777 H   0  0  0  0  0  0  0  0  0  0  0  0
   -2.5730    3.8702   -2.6395 H   0  0  0  0  0  0  0  0  0  0  0  0
   -2.9852    3.6703   -0.2137 H   0  0  0  0  0  0  0  0  0  0  0  0
   -4.0752    0.0014    3.4987 H   0  0  0  0  0  0  0  0  0  0  0  0
   -4.3945   -2.4283    3.7777 H   0  0  0  0  0  0  0  0  0  0  0  0
   -1.6548   -3.1883    0.5544 H   0  0  0  0  0  0  0  0  0  0  0  0
  1  2  1  0
  2  3  1  0
  2  4  1  0
  4  5  1  0
  5  6  1  0
  6  7  2  3
  7  8  1  0
  8  9  2  0
  9 10  1  0
 10 11  2  0
 11 12  1  0
 12 13  2  0
 13 14  1  0
 14 15  1  0
 15 16  2  0
 16 17  1  0
 17 18  2  0
 18 19  1  0
 18 20  1  0
 20 21  2  0
 21  7  1  0
 13  8  1  0
 21 15  1  0
  1 22  1  0
  1 23  1  0
  1 24  1  0
  3 25  1  0
  3 26  1  0
  3 27  1  0
  4 28  1  0
  4 29  1  0
  5 30  1  0
  5 31  1  0
  6 32  1  0
  9 33  1  0
 10 34  1  0
 11 35  1  0
 12 36  1  0
 16 37  1  0
 17 38  1  0
 20 39  1  0
M  END
$$$$
