
     RDKit          3D

 73 75  0  0  0  0  0  0  0  0999 V2000
   -2.0408   -5.9681   -0.8673 C   0  0  0  0  0  0  0  0  0  0  0  0
   -3.0191   -4.8009   -0.9475 C   0  0  0  0  0  0  0  0  0  0  0  0
   -3.9464   -4.7858    0.2659 C   0  0  0  0  0  0  0  0  0  0  0  0
   -2.2874   -3.5493   -1.0458 N   0  0  0  0  0  0  0  0  0  0  0  0
   -2.8468   -2.4162   -1.6008 C   0  0  0  0  0  0  0  0  0  0  0  0
   -3.9330   -2.4174   -2.1648 O   0  0  0  0  0  0  0  0  0  0  0  0
   -2.0158   -1.3365   -1.4261 N   0  0  0  0  0  0  0  0  0  0  0  0
   -2.1751   -0.0143   -1.8806 C   0  0  0  0  0  0  0  0  0  0  0  0
   -3.2059    0.4006   -2.7249 C   0  0  0  0  0  0  0  0  0  0  0  0
   -3.2541    1.7210   -3.1894 C   0  0  0  0  0  0  0  0  0  0  0  0
   -2.2698    2.6377   -2.8162 C   0  0  0  0  0  0  0  0  0  0  0  0
   -1.2520    2.2442   -1.9437 C   0  0  0  0  0  0  0  0  0  0  0  0
   -1.2156    0.9271   -1.4730 C   0  0  0  0  0  0  0  0  0  0  0  0
   -0.2093    0.5460   -0.6242 O   0  0  0  0  0  0  0  0  0  0  0  0
   -0.5662    0.6755    0.7741 C   0  0  0  0  0  0  0  0  0  0  0  0
    0.7674    0.5549    1.5452 C   0  0  0  0  0  0  0  0  0  0  0  0
    0.9212   -0.7684    2.2381 N   0  0  0  0  0  0  0  0  0  0  0  0
    1.8295   -0.6685    3.4038 C   0  0  0  0  0  0  0  0  0  0  0  0
    1.1162   -2.1708    1.2773 S   0  0  0  0  0  6  0  0  0  0  0  0
    1.3211   -3.2961    2.1654 O   0  0  0  0  0  0  0  0  0  0  0  0
    0.0502   -2.2249    0.2952 O   0  0  0  0  0  0  0  0  0  0  0  0
    2.6481   -1.8968    0.4108 C   0  0  0  0  0  0  0  0  0  0  0  0
    3.8561   -2.2740    1.0110 C   0  0  0  0  0  0  0  0  0  0  0  0
    5.0544   -2.0814    0.3223 C   0  0  0  0  0  0  0  0  0  0  0  0
    5.0321   -1.5342   -0.9576 C   0  0  0  0  0  0  0  0  0  0  0  0
    6.1853   -1.3446   -1.6116 F   0  0  0  0  0  0  0  0  0  0  0  0
    3.8326   -1.1851   -1.5703 C   0  0  0  0  0  0  0  0  0  0  0  0
    2.6299   -1.3750   -0.8886 C   0  0  0  0  0  0  0  0  0  0  0  0
   -1.3700    1.9619    1.1140 C   0  0  0  0  0  0  0  0  0  0  0  0
   -1.8759    1.9367    2.5657 C   0  0  0  0  0  0  0  0  0  0  0  0
   -0.6434    3.2881    0.8330 C   0  0  0  0  0  0  0  0  0  0  0  0
    0.2795    3.3609   -0.3070 N   0  0  0  0  0  0  0  0  0  0  0  0
    1.4967    4.1900   -0.0923 C   0  0  0  0  0  0  0  0  0  0  0  0
    1.2591    5.6687   -0.4078 C   0  0  0  0  0  0  0  0  0  0  0  0
    2.7474    3.6470   -0.8198 C   0  0  0  0  0  0  0  0  0  0  0  0
    3.1507    2.4054   -0.2333 O   0  0  0  0  0  0  0  0  0  0  0  0
   -0.1646    3.1968   -1.6327 C   0  0  0  0  0  0  0  0  0  0  0  0
    0.3344    3.7863   -2.5907 O   0  0  0  0  0  0  0  0  0  0  0  0
   -1.3912   -5.8852    0.0109 H   0  0  0  0  0  0  0  0  0  0  0  0
   -1.3961   -5.9914   -1.7523 H   0  0  0  0  0  0  0  0  0  0  0  0
   -2.5735   -6.9230   -0.8115 H   0  0  0  0  0  0  0  0  0  0  0  0
   -3.6290   -4.9138   -1.8516 H   0  0  0  0  0  0  0  0  0  0  0  0
   -4.6698   -3.9660    0.1994 H   0  0  0  0  0  0  0  0  0  0  0  0
   -3.3803   -4.6492    1.1938 H   0  0  0  0  0  0  0  0  0  0  0  0
   -4.5066   -5.7234    0.3418 H   0  0  0  0  0  0  0  0  0  0  0  0
   -1.5282   -3.3941   -0.3894 H   0  0  0  0  0  0  0  0  0  0  0  0
   -1.1697   -1.5189   -0.8896 H   0  0  0  0  0  0  0  0  0  0  0  0
   -3.9722   -0.2912   -3.0631 H   0  0  0  0  0  0  0  0  0  0  0  0
   -4.0495    2.0224   -3.8673 H   0  0  0  0  0  0  0  0  0  0  0  0
   -2.2878    3.6483   -3.2174 H   0  0  0  0  0  0  0  0  0  0  0  0
   -1.2122   -0.1739    1.0300 H   0  0  0  0  0  0  0  0  0  0  0  0
    0.8303    1.3359    2.3100 H   0  0  0  0  0  0  0  0  0  0  0  0
    1.6284    0.7087    0.8895 H   0  0  0  0  0  0  0  0  0  0  0  0
    1.4276    0.0568    4.1190 H   0  0  0  0  0  0  0  0  0  0  0  0
    2.8264   -0.3406    3.0976 H   0  0  0  0  0  0  0  0  0  0  0  0
    1.9043   -1.6200    3.9367 H   0  0  0  0  0  0  0  0  0  0  0  0
    3.8713   -2.7185    2.0032 H   0  0  0  0  0  0  0  0  0  0  0  0
    6.0039   -2.3595    0.7697 H   0  0  0  0  0  0  0  0  0  0  0  0
    3.8401   -0.7740   -2.5754 H   0  0  0  0  0  0  0  0  0  0  0  0
    1.6938   -1.1108   -1.3759 H   0  0  0  0  0  0  0  0  0  0  0  0
   -2.2862    1.9660    0.5104 H   0  0  0  0  0  0  0  0  0  0  0  0
   -2.4529    1.0261    2.7589 H   0  0  0  0  0  0  0  0  0  0  0  0
   -2.5341    2.7920    2.7549 H   0  0  0  0  0  0  0  0  0  0  0  0
   -1.0590    1.9808    3.2922 H   0  0  0  0  0  0  0  0  0  0  0  0
   -1.3895    4.0802    0.6880 H   0  0  0  0  0  0  0  0  0  0  0  0
   -0.0848    3.5615    1.7357 H   0  0  0  0  0  0  0  0  0  0  0  0
    1.7329    4.1156    0.9772 H   0  0  0  0  0  0  0  0  0  0  0  0
    1.1045    5.8482   -1.4754 H   0  0  0  0  0  0  0  0  0  0  0  0
    2.1201    6.2697   -0.0960 H   0  0  0  0  0  0  0  0  0  0  0  0
    0.3790    6.0445    0.1245 H   0  0  0  0  0  0  0  0  0  0  0  0
    3.5843    4.3434   -0.7015 H   0  0  0  0  0  0  0  0  0  0  0  0
    2.5893    3.4873   -1.8884 H   0  0  0  0  0  0  0  0  0  0  0  0
    3.8158    2.0258   -0.8339 H   0  0  0  0  0  0  0  0  0  0  0  0
  1  2  1  0
  2  3  1  0
  2  4  1  0
  4  5  1  0
  5  6  2  0
  5  7  1  0
  7  8  1  0
  8  9  2  0
  9 10  1  0
 10 11  2  0
 11 12  1  0
 12 13  2  0
 13 14  1  0
 14 15  1  0
 15 16  1  0
 16 17  1  0
 17 18  1  0
 17 19  1  0
 19 20  2  0
 19 21  2  0
 19 22  1  0
 22 23  2  0
 23 24  1  0
 24 25  2  0
 25 26  1  0
 25 27  1  0
 27 28  2  0
 15 29  1  0
 29 30  1  0
 29 31  1  0
 31 32  1  0
 32 33  1  0
 33 34  1  0
 33 35  1  0
 35 36  1  0
 32 37  1  0
 37 38  2  0
 13  8  1  0
 28 22  1  0
 37 12  1  0
  1 39  1  0
  1 40  1  0
  1 41  1  0
  2 42  1  0
  3 43  1  0
  3 44  1  0
  3 45  1  0
  4 46  1  0
  7 47  1  0
  9 48  1  0
 10 49  1  0
 11 50  1  0
 15 51  1  0
 16 52  1  0
 16 53  1  0
 18 54  1  0
 18 55  1  0
 18 56  1  0
 23 57  1  0
 24 58  1  0
 27 59  1  0
 28 60  1  0
 29 61  1  0
 30 62  1  0
 30 63  1  0
 30 64  1  0
 31 65  1  0
 31 66  1  0
 33 67  1  0
 34 68  1  0
 34 69  1  0
 34 70  1  0
 35 71  1  0
 35 72  1  0
 36 73  1  0
M  END
$$$$
