
     RDKit          3D

 38 40  0  0  0  0  0  0  0  0999 V2000
   -4.6876    1.4273   -2.4029 C   0  0  0  0  0  0  0  0  0  0  0  0
   -3.9767    1.0607   -1.1329 C   0  0  0  0  0  0  0  0  0  0  0  0
   -2.8404    1.7750   -0.7286 C   0  0  0  0  0  0  0  0  0  0  0  0
   -2.1587    1.4201    0.4361 C   0  0  0  0  0  0  0  0  0  0  0  0
   -2.6015    0.3279    1.1861 C   0  0  0  0  0  0  0  0  0  0  0  0
   -1.7392   -0.1320    2.6718 S   0  0  0  0  0  6  0  0  0  0  0  0
   -2.6937   -0.7812    3.5467 O   0  0  0  0  0  0  0  0  0  0  0  0
   -0.9677    1.0071    3.1194 O   0  0  0  0  0  0  0  0  0  0  0  0
   -0.6915   -1.3499    2.1433 N   0  0  0  0  0  0  0  0  0  0  0  0
    0.1874   -1.0918    1.0546 C   0  0  0  0  0  0  0  0  0  0  0  0
   -0.0038   -1.7824   -0.1416 C   0  0  0  0  0  0  0  0  0  0  0  0
    0.8199   -1.5155   -1.2338 C   0  0  0  0  0  0  0  0  0  0  0  0
    1.8356   -0.5673   -1.1243 C   0  0  0  0  0  0  0  0  0  0  0  0
    2.5953   -0.3758   -2.2459 O   0  0  0  0  0  0  0  0  0  0  0  0
    2.0408    0.1359    0.0715 C   0  0  0  0  0  0  0  0  0  0  0  0
    3.2544    1.4331    0.2606 S   0  0  0  0  0  0  0  0  0  0  0  0
    4.7510    0.5656    0.0770 C   0  0  0  0  0  0  0  0  0  0  0  0
    5.6472    0.3781    1.0899 N   0  0  0  0  0  0  0  0  0  0  0  0
    6.6146   -0.2914    0.5096 C   0  0  0  0  0  0  0  0  0  0  0  0
    6.3089   -0.4877   -0.7996 N   0  0  0  0  0  0  0  0  0  0  0  0
    5.1178    0.0571   -1.1075 N   0  0  0  0  0  0  0  0  0  0  0  0
    1.2011   -0.1368    1.1610 C   0  0  0  0  0  0  0  0  0  0  0  0
   -3.7349   -0.3915    0.7983 C   0  0  0  0  0  0  0  0  0  0  0  0
   -4.4133   -0.0286   -0.3662 C   0  0  0  0  0  0  0  0  0  0  0  0
   -4.2508    0.8833   -3.2460 H   0  0  0  0  0  0  0  0  0  0  0  0
   -4.6113    2.5024   -2.5969 H   0  0  0  0  0  0  0  0  0  0  0  0
   -5.7534    1.1842   -2.3382 H   0  0  0  0  0  0  0  0  0  0  0  0
   -2.4815    2.6164   -1.3184 H   0  0  0  0  0  0  0  0  0  0  0  0
   -1.2852    1.9912    0.7433 H   0  0  0  0  0  0  0  0  0  0  0  0
   -1.1272   -2.2688    2.1980 H   0  0  0  0  0  0  0  0  0  0  0  0
   -0.7970   -2.5171   -0.2441 H   0  0  0  0  0  0  0  0  0  0  0  0
    0.6725   -2.0429   -2.1726 H   0  0  0  0  0  0  0  0  0  0  0  0
    3.4459    0.0290   -1.9684 H   0  0  0  0  0  0  0  0  0  0  0  0
    7.5265   -0.6449    0.9698 H   0  0  0  0  0  0  0  0  0  0  0  0
    6.8440   -0.9639   -1.5180 H   0  0  0  0  0  0  0  0  0  0  0  0
    1.3394    0.3978    2.0991 H   0  0  0  0  0  0  0  0  0  0  0  0
   -4.0960   -1.2273    1.3929 H   0  0  0  0  0  0  0  0  0  0  0  0
   -5.2909   -0.5957   -0.6705 H   0  0  0  0  0  0  0  0  0  0  0  0
  1  2  1  0
  2  3  2  0
  3  4  1  0
  4  5  2  0
  5  6  1  0
  6  7  2  0
  6  8  2  0
  6  9  1  0
  9 10  1  0
 10 11  2  0
 11 12  1  0
 12 13  2  0
 13 14  1  0
 13 15  1  0
 15 16  1  0
 16 17  1  0
 17 18  1  0
 18 19  2  0
 19 20  1  0
 20 21  1  0
 15 22  2  0
  5 23  1  0
 23 24  2  0
 24  2  1  0
 22 10  1  0
 21 17  2  0
  1 25  1  0
  1 26  1  0
  1 27  1  0
  3 28  1  0
  4 29  1  0
  9 30  1  0
 11 31  1  0
 12 32  1  0
 14 33  1  0
 19 34  1  0
 20 35  1  0
 22 36  1  0
 23 37  1  0
 24 38  1  0
M  END
$$$$
