
     RDKit          3D

 60 63  0  0  0  0  0  0  0  0999 V2000
   -0.7737   -1.0267    1.8152 C   0  0  0  0  0  0  0  0  0  0  0  0
   -2.0476   -0.3329    1.4430 C   0  0  0  0  0  0  0  0  0  0  0  0
   -3.1685   -1.0614    1.0999 C   0  0  0  0  0  0  0  0  0  0  0  0
   -4.2957   -0.3404    0.7580 C   0  0  0  0  0  0  0  0  0  0  0  0
   -5.5540   -1.0495    0.3610 C   0  0  0  0  0  0  0  0  0  0  0  0
   -4.3116    1.0069    0.7436 N   0  0  0  0  0  0  0  0  0  0  0  0
   -3.1797    1.6295    1.1108 C   0  0  0  0  0  0  0  0  0  0  0  0
   -3.1685    3.3947    1.0816 S   0  0  0  0  0  0  0  0  0  0  0  0
   -2.9212    3.6153   -0.7036 C   0  0  0  0  0  0  0  0  0  0  0  0
   -1.5219    3.3308   -1.1329 C   0  0  0  0  0  0  0  0  0  0  0  0
   -0.4704    4.0889   -0.8802 N   0  0  0  0  0  0  0  0  0  0  0  0
    0.6284    3.5206   -1.4725 N   0  0  0  0  0  0  0  0  0  0  0  0
    0.2285    2.4351   -2.0897 C   0  0  0  0  0  0  0  0  0  0  0  0
    1.2277    1.4129   -3.0581 S   0  0  0  0  0  0  0  0  0  0  0  0
    2.6911    1.2984   -1.9938 C   0  0  0  0  0  0  0  0  0  0  0  0
    2.5515    0.2188   -0.9211 C   0  0  0  0  0  0  0  0  0  0  0  0
    1.5026   -0.3739   -0.6909 O   0  0  0  0  0  0  0  0  0  0  0  0
    3.7677   -0.0039   -0.2832 N   0  0  0  0  0  0  0  0  0  0  0  0
    4.0560   -0.9273    0.7426 C   0  0  0  0  0  0  0  0  0  0  0  0
    5.3869   -1.0210    1.1633 C   0  0  0  0  0  0  0  0  0  0  0  0
    5.7562   -1.9109    2.1737 C   0  0  0  0  0  0  0  0  0  0  0  0
    4.8005   -2.7276    2.7916 C   0  0  0  0  0  0  0  0  0  0  0  0
    5.2378   -3.6389    3.9043 C   0  0  0  0  0  0  0  0  0  0  0  0
    3.4519   -2.6206    2.3967 C   0  0  0  0  0  0  0  0  0  0  0  0
    2.3704   -3.4311    3.0574 C   0  0  0  0  0  0  0  0  0  0  0  0
    3.1011   -1.7338    1.3607 C   0  0  0  0  0  0  0  0  0  0  0  0
   -1.1152    2.2613   -1.9061 N   0  0  0  0  0  0  0  0  0  0  0  0
   -1.9316    1.1667   -2.3901 C   0  0  0  0  0  0  0  0  0  0  0  0
   -2.5665    1.5170   -3.6857 C   0  0  0  0  0  0  0  0  0  0  0  0
   -2.1236    1.5352   -4.9926 C   0  0  0  0  0  0  0  0  0  0  0  0
   -3.2144    1.9777   -5.7778 C   0  0  0  0  0  0  0  0  0  0  0  0
   -4.2548    2.1913   -4.9052 C   0  0  0  0  0  0  0  0  0  0  0  0
   -3.8730    1.9084   -3.6343 O   0  0  0  0  0  0  0  0  0  0  0  0
   -2.0407    1.0114    1.4483 N   0  0  0  0  0  0  0  0  0  0  0  0
   -0.9344   -1.6904    2.6710 H   0  0  0  0  0  0  0  0  0  0  0  0
    0.0004   -0.3003    2.0883 H   0  0  0  0  0  0  0  0  0  0  0  0
   -0.4112   -1.6163    0.9694 H   0  0  0  0  0  0  0  0  0  0  0  0
   -3.1620   -2.1448    1.0982 H   0  0  0  0  0  0  0  0  0  0  0  0
   -5.3978   -1.5944   -0.5746 H   0  0  0  0  0  0  0  0  0  0  0  0
   -6.3719   -0.3372    0.2117 H   0  0  0  0  0  0  0  0  0  0  0  0
   -5.8584   -1.7532    1.1407 H   0  0  0  0  0  0  0  0  0  0  0  0
   -3.6632    3.0319   -1.2581 H   0  0  0  0  0  0  0  0  0  0  0  0
   -3.1349    4.6674   -0.9257 H   0  0  0  0  0  0  0  0  0  0  0  0
    3.5354    1.0328   -2.6385 H   0  0  0  0  0  0  0  0  0  0  0  0
    2.9188    2.2574   -1.5177 H   0  0  0  0  0  0  0  0  0  0  0  0
    4.5501    0.5622   -0.5850 H   0  0  0  0  0  0  0  0  0  0  0  0
    6.1617   -0.4052    0.7148 H   0  0  0  0  0  0  0  0  0  0  0  0
    6.8004   -1.9660    2.4759 H   0  0  0  0  0  0  0  0  0  0  0  0
    4.6751   -4.5742    3.9032 H   0  0  0  0  0  0  0  0  0  0  0  0
    5.0991   -3.1408    4.8690 H   0  0  0  0  0  0  0  0  0  0  0  0
    6.2978   -3.9077    3.8012 H   0  0  0  0  0  0  0  0  0  0  0  0
    2.4035   -3.2976    4.1450 H   0  0  0  0  0  0  0  0  0  0  0  0
    1.3746   -3.1183    2.7258 H   0  0  0  0  0  0  0  0  0  0  0  0
    2.4858   -4.4944    2.8147 H   0  0  0  0  0  0  0  0  0  0  0  0
    2.0553   -1.6692    1.0700 H   0  0  0  0  0  0  0  0  0  0  0  0
   -2.6875    0.9402   -1.6345 H   0  0  0  0  0  0  0  0  0  0  0  0
   -1.3137    0.2689   -2.4834 H   0  0  0  0  0  0  0  0  0  0  0  0
   -1.1323    1.2728   -5.3377 H   0  0  0  0  0  0  0  0  0  0  0  0
   -3.2400    2.1272   -6.8484 H   0  0  0  0  0  0  0  0  0  0  0  0
   -5.2763    2.5284   -5.0249 H   0  0  0  0  0  0  0  0  0  0  0  0
  1  2  1  0
  2  3  2  0
  3  4  1  0
  4  5  1  0
  4  6  2  0
  6  7  1  0
  7  8  1  0
  8  9  1  0
  9 10  1  0
 10 11  2  0
 11 12  1  0
 12 13  2  0
 13 14  1  0
 14 15  1  0
 15 16  1  0
 16 17  2  0
 16 18  1  0
 18 19  1  0
 19 20  2  0
 20 21  1  0
 21 22  2  0
 22 23  1  0
 22 24  1  0
 24 25  1  0
 24 26  2  0
 13 27  1  0
 27 28  1  0
 28 29  1  0
 29 30  2  0
 30 31  1  0
 31 32  2  0
 32 33  1  0
  7 34  2  0
 34  2  1  0
 27 10  1  0
 33 29  1  0
 26 19  1  0
  1 35  1  0
  1 36  1  0
  1 37  1  0
  3 38  1  0
  5 39  1  0
  5 40  1  0
  5 41  1  0
  9 42  1  0
  9 43  1  0
 15 44  1  0
 15 45  1  0
 18 46  1  0
 20 47  1  0
 21 48  1  0
 23 49  1  0
 23 50  1  0
 23 51  1  0
 25 52  1  0
 25 53  1  0
 25 54  1  0
 26 55  1  0
 28 56  1  0
 28 57  1  0
 30 58  1  0
 31 59  1  0
 32 60  1  0
M  END
$$$$
