
     RDKit          3D

 54 57  0  0  0  0  0  0  0  0999 V2000
    5.4984    1.1518    4.2456 C   0  0  0  0  0  0  0  0  0  0  0  0
    4.8178    0.9123    2.9077 C   0  0  0  0  0  0  0  0  0  0  0  0
    3.4017    0.3804    3.0649 C   0  0  0  0  0  0  0  0  0  0  0  0
    2.8629    0.2978    4.1684 O   0  0  0  0  0  0  0  0  0  0  0  0
    2.7484   -0.0016    1.9026 N   0  0  0  0  0  0  0  0  0  0  0  0
    1.4065   -0.5872    2.0110 C   0  0  0  0  0  0  0  0  0  0  0  0
    1.0937   -1.5422    0.8481 C   0  0  0  0  0  0  0  0  0  0  0  0
    1.1837   -0.8378   -0.4569 N   0  0  0  0  0  0  0  0  0  0  0  0
    1.1664   -1.7537   -1.5399 C   0  0  0  0  0  0  0  0  0  0  0  0
    2.2981   -2.4863   -1.9237 C   0  0  0  0  0  0  0  0  0  0  0  0
    2.2258   -3.3928   -2.9827 C   0  0  0  0  0  0  0  0  0  0  0  0
    1.0221   -3.5737   -3.6620 C   0  0  0  0  0  0  0  0  0  0  0  0
    0.9505   -4.6940   -4.9679 Cl  0  0  0  0  0  0  0  0  0  0  0  0
   -0.1182   -2.8597   -3.2976 C   0  0  0  0  0  0  0  0  0  0  0  0
   -0.0516   -1.9529   -2.2398 C   0  0  0  0  0  0  0  0  0  0  0  0
   -1.1382   -1.1660   -1.8022 N   0  0  0  0  0  0  0  0  0  0  0  0
   -2.4441   -1.1912   -2.2364 C   0  0  0  0  0  0  0  0  0  0  0  0
   -2.9217   -1.9602   -3.0622 O   0  0  0  0  0  0  0  0  0  0  0  0
   -3.3445   -0.1970   -1.5838 C   0  0  0  0  0  0  0  0  0  0  0  0
   -4.6985   -0.5266   -1.4250 C   0  0  0  0  0  0  0  0  0  0  0  0
   -5.5746    0.3702   -0.8091 C   0  0  0  0  0  0  0  0  0  0  0  0
   -5.1017    1.5998   -0.3574 C   0  0  0  0  0  0  0  0  0  0  0  0
   -3.7613    1.9503   -0.5539 C   0  0  0  0  0  0  0  0  0  0  0  0
   -2.8792    1.0532   -1.1556 C   0  0  0  0  0  0  0  0  0  0  0  0
   -3.2391    3.1614   -0.1755 O   0  0  0  0  0  0  0  0  0  0  0  0
   -4.2754    4.1129    0.0976 C   0  0  0  0  0  0  0  0  0  0  0  0
   -5.3623    3.4895    0.9577 C   0  0  0  0  0  0  0  0  0  0  0  0
   -6.0106    2.4212    0.2578 O   0  0  0  0  0  0  0  0  0  0  0  0
    2.2274    0.2123   -0.5435 C   0  0  0  0  0  0  0  0  0  0  0  0
    3.3079    0.0938    0.5476 C   0  0  0  0  0  0  0  0  0  0  0  0
    4.9526    1.8930    4.8388 H   0  0  0  0  0  0  0  0  0  0  0  0
    6.5180    1.5199    4.0939 H   0  0  0  0  0  0  0  0  0  0  0  0
    5.5516    0.2270    4.8298 H   0  0  0  0  0  0  0  0  0  0  0  0
    4.7770    1.8594    2.3595 H   0  0  0  0  0  0  0  0  0  0  0  0
    5.4089    0.1908    2.3340 H   0  0  0  0  0  0  0  0  0  0  0  0
    1.3053   -1.1188    2.9633 H   0  0  0  0  0  0  0  0  0  0  0  0
    0.6961    0.2483    2.0172 H   0  0  0  0  0  0  0  0  0  0  0  0
    0.0815   -1.9442    0.9744 H   0  0  0  0  0  0  0  0  0  0  0  0
    1.7983   -2.3836    0.8863 H   0  0  0  0  0  0  0  0  0  0  0  0
    3.2399   -2.3705   -1.3972 H   0  0  0  0  0  0  0  0  0  0  0  0
    3.1085   -3.9574   -3.2713 H   0  0  0  0  0  0  0  0  0  0  0  0
   -1.0383   -3.0181   -3.8496 H   0  0  0  0  0  0  0  0  0  0  0  0
   -0.8765   -0.5603   -1.0296 H   0  0  0  0  0  0  0  0  0  0  0  0
   -5.0716   -1.4873   -1.7757 H   0  0  0  0  0  0  0  0  0  0  0  0
   -6.6203    0.1056   -0.6763 H   0  0  0  0  0  0  0  0  0  0  0  0
   -1.8495    1.3592   -1.3151 H   0  0  0  0  0  0  0  0  0  0  0  0
   -4.6766    4.4750   -0.8572 H   0  0  0  0  0  0  0  0  0  0  0  0
   -3.8185    4.9599    0.6191 H   0  0  0  0  0  0  0  0  0  0  0  0
   -4.9543    3.0943    1.8963 H   0  0  0  0  0  0  0  0  0  0  0  0
   -6.1244    4.2353    1.2040 H   0  0  0  0  0  0  0  0  0  0  0  0
    2.6982    0.2495   -1.5338 H   0  0  0  0  0  0  0  0  0  0  0  0
    1.7143    1.1740   -0.4156 H   0  0  0  0  0  0  0  0  0  0  0  0
    3.9055   -0.8117    0.3927 H   0  0  0  0  0  0  0  0  0  0  0  0
    3.9835    0.9506    0.4783 H   0  0  0  0  0  0  0  0  0  0  0  0
  1  2  1  0
  2  3  1  0
  3  4  2  0
  3  5  1  0
  5  6  1  0
  6  7  1  0
  7  8  1  0
  8  9  1  0
  9 10  2  0
 10 11  1  0
 11 12  2  0
 12 13  1  0
 12 14  1  0
 14 15  2  0
 15 16  1  0
 16 17  1  0
 17 18  2  0
 17 19  1  0
 19 20  2  0
 20 21  1  0
 21 22  2  0
 22 23  1  0
 23 24  2  0
 23 25  1  0
 25 26  1  0
 26 27  1  0
 27 28  1  0
  8 29  1  0
 29 30  1  0
 30  5  1  0
 15  9  1  0
 24 19  1  0
 28 22  1  0
  1 31  1  0
  1 32  1  0
  1 33  1  0
  2 34  1  0
  2 35  1  0
  6 36  1  0
  6 37  1  0
  7 38  1  0
  7 39  1  0
 10 40  1  0
 11 41  1  0
 14 42  1  0
 16 43  1  0
 20 44  1  0
 21 45  1  0
 24 46  1  0
 26 47  1  0
 26 48  1  0
 27 49  1  0
 27 50  1  0
 29 51  1  0
 29 52  1  0
 30 53  1  0
 30 54  1  0
M  END
$$$$
