
     RDKit          3D

 46 48  0  0  0  0  0  0  0  0999 V2000
   -1.9106   -2.0050    2.1535 C   0  0  0  0  0  0  0  0  0  0  0  0
   -1.9072   -1.7719    0.6541 C   0  0  0  0  0  0  0  0  0  0  0  0
   -2.5426   -0.4562    0.3407 N   0  0  0  0  0  4  0  0  0  0  0  0
   -1.7496    0.6486    0.1960 C   0  0  0  0  0  0  0  0  0  0  0  0
   -0.3032    0.5835    0.4428 C   0  0  0  0  0  0  0  0  0  0  0  0
    0.5936    0.6958   -0.5507 C   0  0  0  0  0  0  0  0  0  0  0  0
    2.0525    0.6599   -0.3565 C   0  0  0  0  0  0  0  0  0  0  0  0
    2.8588    1.3929   -1.2340 C   0  0  0  0  0  0  0  0  0  0  0  0
    4.2525    1.3634   -1.1217 C   0  0  0  0  0  0  0  0  0  0  0  0
    4.8648    0.5925   -0.1317 C   0  0  0  0  0  0  0  0  0  0  0  0
    6.2201    0.5008    0.0562 O   0  0  0  0  0  0  0  0  0  0  0  0
    7.0638    1.2154   -0.8360 C   0  0  0  0  0  0  0  0  0  0  0  0
    4.0649   -0.1521    0.7561 C   0  0  0  0  0  0  0  0  0  0  0  0
    4.7381   -0.9010    1.6892 O   0  0  0  0  0  0  0  0  0  0  0  0
    4.0017   -1.4009    2.7950 C   0  0  0  0  0  0  0  0  0  0  0  0
    2.6688   -0.1240    0.6299 C   0  0  0  0  0  0  0  0  0  0  0  0
   -2.2984    1.8800   -0.1627 C   0  0  0  0  0  0  0  0  0  0  0  0
   -3.6584    1.9983   -0.3754 C   0  0  0  0  0  0  0  0  0  0  0  0
   -4.4730    0.8848   -0.2144 C   0  0  0  0  0  0  0  0  0  0  0  0
   -5.8557    1.0060   -0.4171 C   0  0  0  0  0  0  0  0  0  0  0  0
   -6.6964   -0.0907   -0.2523 C   0  0  0  0  0  0  0  0  0  0  0  0
   -6.1646   -1.3173    0.1203 C   0  0  0  0  0  0  0  0  0  0  0  0
   -4.7870   -1.4536    0.3243 C   0  0  0  0  0  0  0  0  0  0  0  0
   -3.9053   -0.3663    0.1572 C   0  0  0  0  0  0  0  0  0  0  0  0
   -1.3590   -1.2202    2.6799 H   0  0  0  0  0  0  0  0  0  0  0  0
   -1.4408   -2.9652    2.3872 H   0  0  0  0  0  0  0  0  0  0  0  0
   -2.9271   -2.0175    2.5577 H   0  0  0  0  0  0  0  0  0  0  0  0
   -2.4343   -2.5611    0.1111 H   0  0  0  0  0  0  0  0  0  0  0  0
   -0.8887   -1.7929    0.2567 H   0  0  0  0  0  0  0  0  0  0  0  0
   -0.0008    0.4668    1.4798 H   0  0  0  0  0  0  0  0  0  0  0  0
    0.2712    0.8455   -1.5813 H   0  0  0  0  0  0  0  0  0  0  0  0
    2.4176    2.0038   -2.0196 H   0  0  0  0  0  0  0  0  0  0  0  0
    4.8321    1.9534   -1.8246 H   0  0  0  0  0  0  0  0  0  0  0  0
    6.8984    2.2947   -0.7554 H   0  0  0  0  0  0  0  0  0  0  0  0
    6.9317    0.8701   -1.8667 H   0  0  0  0  0  0  0  0  0  0  0  0
    8.1005    1.0154   -0.5486 H   0  0  0  0  0  0  0  0  0  0  0  0
    3.4467   -0.6036    3.3010 H   0  0  0  0  0  0  0  0  0  0  0  0
    4.7150   -1.8178    3.5125 H   0  0  0  0  0  0  0  0  0  0  0  0
    3.3328   -2.2095    2.4833 H   0  0  0  0  0  0  0  0  0  0  0  0
    2.0584   -0.7329    1.2854 H   0  0  0  0  0  0  0  0  0  0  0  0
   -1.6644    2.7595   -0.2717 H   0  0  0  0  0  0  0  0  0  0  0  0
   -4.0732    2.9663   -0.6561 H   0  0  0  0  0  0  0  0  0  0  0  0
   -6.2989    1.9598   -0.7046 H   0  0  0  0  0  0  0  0  0  0  0  0
   -7.7688    0.0150   -0.4109 H   0  0  0  0  0  0  0  0  0  0  0  0
   -6.8262   -2.1723    0.2554 H   0  0  0  0  0  0  0  0  0  0  0  0
   -4.4500   -2.4400    0.6272 H   0  0  0  0  0  0  0  0  0  0  0  0
  1  2  1  0
  2  3  1  0
  3  4  2  0
  4  5  1  0
  5  6  2  3
  6  7  1  0
  7  8  2  0
  8  9  1  0
  9 10  2  0
 10 11  1  0
 11 12  1  0
 10 13  1  0
 13 14  1  0
 14 15  1  0
 13 16  2  0
  4 17  1  0
 17 18  2  0
 18 19  1  0
 19 20  2  0
 20 21  1  0
 21 22  2  0
 22 23  1  0
 23 24  2  0
 24  3  1  0
 16  7  1  0
 24 19  1  0
  1 25  1  0
  1 26  1  0
  1 27  1  0
  2 28  1  0
  2 29  1  0
  5 30  1  0
  6 31  1  0
  8 32  1  0
  9 33  1  0
 12 34  1  0
 12 35  1  0
 12 36  1  0
 15 37  1  0
 15 38  1  0
 15 39  1  0
 16 40  1  0
 17 41  1  0
 18 42  1  0
 20 43  1  0
 21 44  1  0
 22 45  1  0
 23 46  1  0
M  CHG  1   3   1
M  END
$$$$
