
     RDKit          3D

 31 32  0  0  0  0  0  0  0  0999 V2000
    2.1924   -2.9911    3.3101 C   0  0  0  0  0  0  0  0  0  0  0  0
    0.6561   -2.4282    2.5306 S   0  0  0  0  0  0  0  0  0  0  0  0
    1.3479   -1.5499    1.1381 C   0  0  0  0  0  0  0  0  0  0  0  0
    2.0705   -2.2133    0.1383 C   0  0  0  0  0  0  0  0  0  0  0  0
    2.6115   -1.4965   -0.9328 C   0  0  0  0  0  0  0  0  0  0  0  0
    2.4336   -0.1145   -1.0090 C   0  0  0  0  0  0  0  0  0  0  0  0
    1.7074    0.5482   -0.0193 C   0  0  0  0  0  0  0  0  0  0  0  0
    1.5149    1.9619   -0.0854 N   0  0  0  0  0  0  0  0  0  0  0  0
    0.4510    2.5308   -1.2865 S   0  0  0  0  0  6  0  0  0  0  0  0
    0.2677    3.9471   -1.0431 O   0  0  0  0  0  0  0  0  0  0  0  0
    0.8284    2.0230   -2.5869 O   0  0  0  0  0  0  0  0  0  0  0  0
   -1.1271    1.8521   -0.9749 C   0  0  0  0  0  0  0  0  0  0  0  0
   -2.0862    1.5287   -1.9167 C   0  0  0  0  0  0  0  0  0  0  0  0
   -3.1304    1.0256   -1.1930 N   0  0  0  0  0  0  0  0  0  0  0  0
   -4.3949    0.5804   -1.7229 C   0  0  0  0  0  0  0  0  0  0  0  0
   -2.7907    1.0719    0.1296 C   0  0  0  0  0  0  0  0  0  0  0  0
   -1.5804    1.5579    0.3045 N   0  0  0  0  0  0  0  0  0  0  0  0
    1.1571   -0.1685    1.0465 C   0  0  0  0  0  0  0  0  0  0  0  0
    2.6359   -3.8113    2.7374 H   0  0  0  0  0  0  0  0  0  0  0  0
    1.9668   -3.3458    4.3201 H   0  0  0  0  0  0  0  0  0  0  0  0
    2.9065   -2.1656    3.3890 H   0  0  0  0  0  0  0  0  0  0  0  0
    2.2108   -3.2885    0.1809 H   0  0  0  0  0  0  0  0  0  0  0  0
    3.1711   -2.0135   -1.7107 H   0  0  0  0  0  0  0  0  0  0  0  0
    2.8670    0.4415   -1.8420 H   0  0  0  0  0  0  0  0  0  0  0  0
    1.2126    2.3777    0.7982 H   0  0  0  0  0  0  0  0  0  0  0  0
   -2.0936    1.6233   -2.9924 H   0  0  0  0  0  0  0  0  0  0  0  0
   -5.1860    0.7907   -0.9946 H   0  0  0  0  0  0  0  0  0  0  0  0
   -4.6030    1.1189   -2.6522 H   0  0  0  0  0  0  0  0  0  0  0  0
   -4.3313   -0.4948   -1.9117 H   0  0  0  0  0  0  0  0  0  0  0  0
   -3.4553    0.7510    0.9222 H   0  0  0  0  0  0  0  0  0  0  0  0
    0.5701    0.3506    1.8037 H   0  0  0  0  0  0  0  0  0  0  0  0
  1  2  1  0
  2  3  1  0
  3  4  2  0
  4  5  1  0
  5  6  2  0
  6  7  1  0
  7  8  1  0
  8  9  1  0
  9 10  2  0
  9 11  2  0
  9 12  1  0
 12 13  2  0
 13 14  1  0
 14 15  1  0
 14 16  1  0
 16 17  2  0
  7 18  2  0
 18  3  1  0
 17 12  1  0
  1 19  1  0
  1 20  1  0
  1 21  1  0
  4 22  1  0
  5 23  1  0
  6 24  1  0
  8 25  1  0
 13 26  1  0
 15 27  1  0
 15 28  1  0
 15 29  1  0
 16 30  1  0
 18 31  1  0
M  END
$$$$
