
     RDKit          3D

 56 58  0  0  0  0  0  0  0  0999 V2000
    0.2410   -3.6450   -0.4715 C   0  0  0  0  0  0  0  0  0  0  0  0
    1.2354   -2.6379   -0.5835 O   0  0  0  0  0  0  0  0  0  0  0  0
    0.9223   -1.3797   -0.1282 C   0  0  0  0  0  0  0  0  0  0  0  0
   -0.3618   -0.9799    0.2672 C   0  0  0  0  0  0  0  0  0  0  0  0
   -0.6015    0.3292    0.7088 C   0  0  0  0  0  0  0  0  0  0  0  0
   -1.9284    0.7763    1.1505 C   0  0  0  0  0  0  0  0  0  0  0  0
   -3.0672    0.4612    0.5159 C   0  0  0  0  0  0  0  0  0  0  0  0
   -4.3617    0.9823    1.0309 C   0  0  0  0  0  0  0  0  0  0  0  0
   -4.4547    1.7018    2.0176 O   0  0  0  0  0  0  0  0  0  0  0  0
   -5.5755    0.5594    0.3060 C   0  0  0  0  0  0  0  0  0  0  0  0
   -5.7968    0.9601   -1.0280 C   0  0  0  0  0  0  0  0  0  0  0  0
   -4.8195    1.7234   -1.6106 O   0  0  0  0  0  0  0  0  0  0  0  0
   -5.1026    2.3134   -2.8738 C   0  0  0  0  0  0  0  0  0  0  0  0
   -6.9768    0.5613   -1.6787 C   0  0  0  0  0  0  0  0  0  0  0  0
   -7.9324   -0.2127   -1.0135 C   0  0  0  0  0  0  0  0  0  0  0  0
   -7.6934   -0.5851    0.3002 C   0  0  0  0  0  0  0  0  0  0  0  0
   -8.6253   -1.3618    0.9847 O   0  0  0  0  0  0  0  0  0  0  0  0
   -8.1160   -1.5962    2.2586 C   0  0  0  0  0  0  0  0  0  0  0  0
   -8.7157   -2.2611    3.0922 O   0  0  0  0  0  0  0  0  0  0  0  0
   -6.5363   -0.8846    2.5898 S   0  0  0  0  0  0  0  0  0  0  0  0
   -6.5312   -0.2098    0.9654 C   0  0  0  0  0  0  0  0  0  0  0  0
    0.4666    1.2275    0.7773 C   0  0  0  0  0  0  0  0  0  0  0  0
    1.7501    0.8409    0.3807 C   0  0  0  0  0  0  0  0  0  0  0  0
    1.9869   -0.4577   -0.0789 C   0  0  0  0  0  0  0  0  0  0  0  0
    3.2100   -0.9249   -0.4916 O   0  0  0  0  0  0  0  0  0  0  0  0
    4.3194   -0.0263   -0.4331 C   0  0  0  0  0  0  0  0  0  0  0  0
    5.5506   -0.7775   -0.9346 C   0  0  0  0  0  0  0  0  0  0  0  0
    6.7932    0.1126   -1.0333 C   0  0  0  0  0  0  0  0  0  0  0  0
    7.1629    0.7830    0.2247 N   0  0  0  0  0  0  0  0  0  0  0  0
    8.2051    1.7824   -0.0266 C   0  0  0  0  0  0  0  0  0  0  0  0
    7.6317   -0.1713    1.2335 C   0  0  0  0  0  0  0  0  0  0  0  0
    0.6856   -4.5921   -0.7938 H   0  0  0  0  0  0  0  0  0  0  0  0
   -0.6070   -3.4353   -1.1318 H   0  0  0  0  0  0  0  0  0  0  0  0
   -0.0857   -3.7689    0.5661 H   0  0  0  0  0  0  0  0  0  0  0  0
   -1.1891   -1.6806    0.2451 H   0  0  0  0  0  0  0  0  0  0  0  0
   -1.9481    1.4193    2.0290 H   0  0  0  0  0  0  0  0  0  0  0  0
   -3.0847   -0.1507   -0.3770 H   0  0  0  0  0  0  0  0  0  0  0  0
   -5.1914    1.5483   -3.6514 H   0  0  0  0  0  0  0  0  0  0  0  0
   -6.0003    2.9385   -2.8286 H   0  0  0  0  0  0  0  0  0  0  0  0
   -4.2594    2.9591   -3.1372 H   0  0  0  0  0  0  0  0  0  0  0  0
   -7.1823    0.8400   -2.7089 H   0  0  0  0  0  0  0  0  0  0  0  0
   -8.8455   -0.5175   -1.5177 H   0  0  0  0  0  0  0  0  0  0  0  0
    0.3092    2.2447    1.1312 H   0  0  0  0  0  0  0  0  0  0  0  0
    2.5427    1.5789    0.4456 H   0  0  0  0  0  0  0  0  0  0  0  0
    4.1318    0.8401   -1.0795 H   0  0  0  0  0  0  0  0  0  0  0  0
    4.4766    0.2996    0.6013 H   0  0  0  0  0  0  0  0  0  0  0  0
    5.3345   -1.1929   -1.9273 H   0  0  0  0  0  0  0  0  0  0  0  0
    5.7373   -1.6500   -0.2969 H   0  0  0  0  0  0  0  0  0  0  0  0
    6.5823    0.8755   -1.7947 H   0  0  0  0  0  0  0  0  0  0  0  0
    7.6326   -0.4837   -1.4150 H   0  0  0  0  0  0  0  0  0  0  0  0
    7.8523    2.5378   -0.7376 H   0  0  0  0  0  0  0  0  0  0  0  0
    8.4564    2.3194    0.8963 H   0  0  0  0  0  0  0  0  0  0  0  0
    9.1211    1.3325   -0.4262 H   0  0  0  0  0  0  0  0  0  0  0  0
    7.9166    0.3531    2.1534 H   0  0  0  0  0  0  0  0  0  0  0  0
    6.8392   -0.8711    1.5177 H   0  0  0  0  0  0  0  0  0  0  0  0
    8.4971   -0.7476    0.8863 H   0  0  0  0  0  0  0  0  0  0  0  0
  1  2  1  0
  2  3  1  0
  3  4  2  0
  4  5  1  0
  5  6  1  0
  6  7  2  0
  7  8  1  0
  8  9  2  0
  8 10  1  0
 10 11  2  0
 11 12  1  0
 12 13  1  0
 11 14  1  0
 14 15  2  0
 15 16  1  0
 16 17  1  0
 17 18  1  0
 18 19  2  0
 18 20  1  0
 20 21  1  0
  5 22  2  0
 22 23  1  0
 23 24  2  0
 24 25  1  0
 25 26  1  0
 26 27  1  0
 27 28  1  0
 28 29  1  0
 29 30  1  0
 29 31  1  0
 24  3  1  0
 21 10  1  0
 21 16  2  0
  1 32  1  0
  1 33  1  0
  1 34  1  0
  4 35  1  0
  6 36  1  0
  7 37  1  0
 13 38  1  0
 13 39  1  0
 13 40  1  0
 14 41  1  0
 15 42  1  0
 22 43  1  0
 23 44  1  0
 26 45  1  0
 26 46  1  0
 27 47  1  0
 27 48  1  0
 28 49  1  0
 28 50  1  0
 30 51  1  0
 30 52  1  0
 30 53  1  0
 31 54  1  0
 31 55  1  0
 31 56  1  0
M  END
$$$$
