
     RDKit          3D

 41 44  0  0  0  0  0  0  0  0999 V2000
    0.1928   -1.2058   -0.5148 O   0  0  0  0  0  0  0  0  0  0  0  0
    0.3269   -0.3287    0.3361 C   0  0  0  0  0  0  0  0  0  0  0  0
   -0.8864    0.3996    0.9388 C   0  0  0  0  0  0  0  0  0  0  0  0
   -1.8748    0.7527   -0.0783 N   0  0  0  0  0  0  0  0  0  0  0  0
   -1.5622    1.8400   -0.8898 C   0  0  0  0  0  0  0  0  0  0  0  0
   -0.5719    2.5494   -0.6911 O   0  0  0  0  0  0  0  0  0  0  0  0
   -2.4514    2.0910   -2.0845 C   0  0  0  0  0  0  0  0  0  0  0  0
   -3.6485    2.9489   -1.7367 C   0  0  0  0  0  0  0  0  0  0  0  0
   -4.5660    2.4589   -0.2444 S   0  0  0  0  0  0  0  0  0  0  0  0
   -4.3573    0.6802   -0.2910 C   0  0  0  0  0  0  0  0  0  0  0  0
   -5.5371   -0.0801   -0.3382 C   0  0  0  0  0  0  0  0  0  0  0  0
   -5.4939   -1.4697   -0.2350 C   0  0  0  0  0  0  0  0  0  0  0  0
   -4.2746   -2.1115   -0.0633 C   0  0  0  0  0  0  0  0  0  0  0  0
   -3.0945   -1.3654    0.0001 C   0  0  0  0  0  0  0  0  0  0  0  0
   -3.1103    0.0337   -0.1296 C   0  0  0  0  0  0  0  0  0  0  0  0
    1.5283    0.0837    0.8970 N   0  0  0  0  0  0  0  0  0  0  0  0
    2.8157   -0.4485    0.6683 C   0  0  0  0  0  0  0  0  0  0  0  0
    3.0636   -1.5871   -0.1219 C   0  0  0  0  0  0  0  0  0  0  0  0
    4.3659   -2.0784   -0.2941 C   0  0  0  0  0  0  0  0  0  0  0  0
    5.3935   -1.4148    0.3361 C   0  0  0  0  0  0  0  0  0  0  0  0
    5.1612   -0.3036    1.1079 C   0  0  0  0  0  0  0  0  0  0  0  0
    3.8904    0.2025    1.2936 C   0  0  0  0  0  0  0  0  0  0  0  0
    6.3043    0.2047    1.6440 O   0  0  0  0  0  0  0  0  0  0  0  0
    7.2834   -0.7120    1.1089 C   0  0  0  0  0  0  0  0  0  0  0  0
    6.7098   -1.7476    0.2840 O   0  0  0  0  0  0  0  0  0  0  0  0
   -1.3242   -0.2412    1.7128 H   0  0  0  0  0  0  0  0  0  0  0  0
   -0.5651    1.3218    1.4398 H   0  0  0  0  0  0  0  0  0  0  0  0
   -2.7536    1.1404   -2.5395 H   0  0  0  0  0  0  0  0  0  0  0  0
   -1.8528    2.5942   -2.8557 H   0  0  0  0  0  0  0  0  0  0  0  0
   -3.3284    3.9860   -1.5846 H   0  0  0  0  0  0  0  0  0  0  0  0
   -4.3493    2.9526   -2.5801 H   0  0  0  0  0  0  0  0  0  0  0  0
   -6.5049    0.4078   -0.4373 H   0  0  0  0  0  0  0  0  0  0  0  0
   -6.4143   -2.0471   -0.2793 H   0  0  0  0  0  0  0  0  0  0  0  0
   -4.2356   -3.1952    0.0161 H   0  0  0  0  0  0  0  0  0  0  0  0
   -2.1587   -1.9095    0.1051 H   0  0  0  0  0  0  0  0  0  0  0  0
    1.4979    0.9169    1.4740 H   0  0  0  0  0  0  0  0  0  0  0  0
    2.2575   -2.1183   -0.6203 H   0  0  0  0  0  0  0  0  0  0  0  0
    4.5525   -2.9589   -0.8979 H   0  0  0  0  0  0  0  0  0  0  0  0
    3.7517    1.0837    1.9118 H   0  0  0  0  0  0  0  0  0  0  0  0
    7.8155   -1.1817    1.9441 H   0  0  0  0  0  0  0  0  0  0  0  0
    8.0051   -0.1435    0.5097 H   0  0  0  0  0  0  0  0  0  0  0  0
  1  2  2  0
  2  3  1  0
  3  4  1  0
  4  5  1  0
  5  6  2  0
  5  7  1  0
  7  8  1  0
  8  9  1  0
  9 10  1  0
 10 11  2  0
 11 12  1  0
 12 13  2  0
 13 14  1  0
 14 15  2  0
  2 16  1  0
 16 17  1  0
 17 18  2  0
 18 19  1  0
 19 20  2  0
 20 21  1  0
 21 22  2  0
 21 23  1  0
 23 24  1  0
 24 25  1  0
 15  4  1  0
 22 17  1  0
 15 10  1  0
 25 20  1  0
  3 26  1  0
  3 27  1  0
  7 28  1  0
  7 29  1  0
  8 30  1  0
  8 31  1  0
 11 32  1  0
 12 33  1  0
 13 34  1  0
 14 35  1  0
 16 36  1  0
 18 37  1  0
 19 38  1  0
 22 39  1  0
 24 40  1  0
 24 41  1  0
M  END
$$$$
