
     RDKit          3D

 69 74  0  0  0  0  0  0  0  0999 V2000
    2.3006   -0.1124    2.1039 O   0  0  0  0  0  0  0  0  0  0  0  0
    2.0984   -0.3845    0.7076 C   0  0  0  0  0  0  0  0  0  0  0  0
    3.3391   -1.0684    0.1190 C   0  0  0  0  0  0  0  0  0  0  0  0
    4.3437   -0.0776   -0.1536 O   0  0  0  0  0  0  0  0  0  0  0  0
    5.5457   -0.2071    0.4812 C   0  0  0  0  0  0  0  0  0  0  0  0
    5.6131   -0.5407    1.8405 C   0  0  0  0  0  0  0  0  0  0  0  0
    6.8395   -0.6177    2.5009 C   0  0  0  0  0  0  0  0  0  0  0  0
    8.0175   -0.3395    1.8139 C   0  0  0  0  0  0  0  0  0  0  0  0
    7.9849    0.0279    0.4672 C   0  0  0  0  0  0  0  0  0  0  0  0
    9.2262    0.3207   -0.1455 N   0  0  0  0  0  0  0  0  0  0  0  0
    9.2307    0.6796   -1.3896 C   0  0  0  0  0  0  0  0  0  0  0  0
    8.0228    0.7719   -2.1507 C   0  0  0  0  0  0  0  0  0  0  0  0
    7.8153    1.1184   -3.4689 C   0  0  0  0  0  0  0  0  0  0  0  0
    6.4250    1.0326   -3.7048 C   0  0  0  0  0  0  0  0  0  0  0  0
    5.8312    0.6419   -2.5222 C   0  0  0  0  0  0  0  0  0  0  0  0
    6.8079    0.4843   -1.5629 N   0  0  0  0  0  0  0  0  0  0  0  0
    6.7371    0.0969   -0.2002 C   0  0  0  0  0  0  0  0  0  0  0  0
    0.8432   -1.2741    0.5745 C   0  0  0  0  0  0  0  0  0  0  0  0
   -0.3310   -0.6603    1.2388 N   0  0  0  0  0  0  0  0  0  0  0  0
   -1.4642   -1.6067    1.3236 C   0  0  0  0  0  0  0  0  0  0  0  0
   -2.5262   -1.4491    0.2106 C   0  0  0  0  0  0  0  0  0  0  0  0
   -3.1260   -0.0965    0.0979 N   0  0  0  0  0  0  0  0  0  0  0  0
   -4.5116   -0.0322    0.6505 C   0  0  0  0  0  0  0  0  0  0  0  0
   -5.4901   -0.9984   -0.0349 C   0  0  0  0  0  0  0  0  0  0  0  0
   -5.4859   -1.1982   -1.4271 C   0  0  0  0  0  0  0  0  0  0  0  0
   -6.4036   -2.0615   -2.0295 C   0  0  0  0  0  0  0  0  0  0  0  0
   -7.3387   -2.7387   -1.2499 C   0  0  0  0  0  0  0  0  0  0  0  0
   -7.3607   -2.5508    0.1314 C   0  0  0  0  0  0  0  0  0  0  0  0
   -6.4475   -1.6832    0.7346 C   0  0  0  0  0  0  0  0  0  0  0  0
   -5.1038    1.3855    0.6370 C   0  0  0  0  0  0  0  0  0  0  0  0
   -5.1609    2.1487   -0.5424 C   0  0  0  0  0  0  0  0  0  0  0  0
   -5.7027    3.4352   -0.5369 C   0  0  0  0  0  0  0  0  0  0  0  0
   -6.1992    3.9767    0.6465 C   0  0  0  0  0  0  0  0  0  0  0  0
   -6.1547    3.2343    1.8238 C   0  0  0  0  0  0  0  0  0  0  0  0
   -5.6135    1.9465    1.8203 C   0  0  0  0  0  0  0  0  0  0  0  0
   -2.2429    0.9100    0.7363 C   0  0  0  0  0  0  0  0  0  0  0  0
   -0.7458    0.5867    0.5520 C   0  0  0  0  0  0  0  0  0  0  0  0
    1.3993    0.0253    2.4625 H   0  0  0  0  0  0  0  0  0  0  0  0
    1.9492    0.5804    0.2107 H   0  0  0  0  0  0  0  0  0  0  0  0
    3.0870   -1.5068   -0.8543 H   0  0  0  0  0  0  0  0  0  0  0  0
    3.6986   -1.8846    0.7566 H   0  0  0  0  0  0  0  0  0  0  0  0
    4.7103   -0.7152    2.4203 H   0  0  0  0  0  0  0  0  0  0  0  0
    6.8734   -0.8777    3.5554 H   0  0  0  0  0  0  0  0  0  0  0  0
    8.9735   -0.3908    2.3319 H   0  0  0  0  0  0  0  0  0  0  0  0
   10.1904    0.9148   -1.8785 H   0  0  0  0  0  0  0  0  0  0  0  0
    8.5795    1.3968   -4.1835 H   0  0  0  0  0  0  0  0  0  0  0  0
    5.9056    1.2324   -4.6345 H   0  0  0  0  0  0  0  0  0  0  0  0
    4.7873    0.4724   -2.3105 H   0  0  0  0  0  0  0  0  0  0  0  0
    0.6331   -1.4972   -0.4788 H   0  0  0  0  0  0  0  0  0  0  0  0
    1.0629   -2.2244    1.0784 H   0  0  0  0  0  0  0  0  0  0  0  0
   -1.1150   -2.6464    1.3515 H   0  0  0  0  0  0  0  0  0  0  0  0
   -1.9568   -1.4429    2.2911 H   0  0  0  0  0  0  0  0  0  0  0  0
   -3.2784   -2.2350    0.3435 H   0  0  0  0  0  0  0  0  0  0  0  0
   -2.0468   -1.6690   -0.7528 H   0  0  0  0  0  0  0  0  0  0  0  0
   -4.4350   -0.3491    1.7021 H   0  0  0  0  0  0  0  0  0  0  0  0
   -4.7610   -0.6771   -2.0491 H   0  0  0  0  0  0  0  0  0  0  0  0
   -6.3909   -2.1996   -3.1085 H   0  0  0  0  0  0  0  0  0  0  0  0
   -8.0547   -3.4087   -1.7185 H   0  0  0  0  0  0  0  0  0  0  0  0
   -8.0949   -3.0747    0.7382 H   0  0  0  0  0  0  0  0  0  0  0  0
   -6.4913   -1.5389    1.8127 H   0  0  0  0  0  0  0  0  0  0  0  0
   -4.7708    1.7430   -1.4732 H   0  0  0  0  0  0  0  0  0  0  0  0
   -5.7375    4.0113   -1.4574 H   0  0  0  0  0  0  0  0  0  0  0  0
   -6.6225    4.9776    0.6502 H   0  0  0  0  0  0  0  0  0  0  0  0
   -6.5438    3.6571    2.7462 H   0  0  0  0  0  0  0  0  0  0  0  0
   -5.5908    1.3851    2.7503 H   0  0  0  0  0  0  0  0  0  0  0  0
   -2.4485    0.9950    1.8126 H   0  0  0  0  0  0  0  0  0  0  0  0
   -2.4268    1.8928    0.2874 H   0  0  0  0  0  0  0  0  0  0  0  0
   -0.5408    0.5329   -0.5262 H   0  0  0  0  0  0  0  0  0  0  0  0
   -0.1569    1.4208    0.9517 H   0  0  0  0  0  0  0  0  0  0  0  0
  1  2  1  0
  2  3  1  0
  3  4  1  0
  4  5  1  0
  5  6  2  0
  6  7  1  0
  7  8  2  0
  8  9  1  0
  9 10  1  0
 10 11  2  0
 11 12  1  0
 12 13  2  0
 13 14  1  0
 14 15  2  0
 15 16  1  0
 16 17  1  0
  2 18  1  0
 18 19  1  0
 19 20  1  0
 20 21  1  0
 21 22  1  0
 22 23  1  0
 23 24  1  0
 24 25  2  0
 25 26  1  0
 26 27  2  0
 27 28  1  0
 28 29  2  0
 23 30  1  0
 30 31  2  0
 31 32  1  0
 32 33  2  0
 33 34  1  0
 34 35  2  0
 22 36  1  0
 36 37  1  0
 17  5  1  0
 37 19  1  0
 17  9  2  0
 29 24  1  0
 35 30  1  0
 16 12  1  0
  1 38  1  0
  2 39  1  0
  3 40  1  0
  3 41  1  0
  6 42  1  0
  7 43  1  0
  8 44  1  0
 11 45  1  0
 13 46  1  0
 14 47  1  0
 15 48  1  0
 18 49  1  0
 18 50  1  0
 20 51  1  0
 20 52  1  0
 21 53  1  0
 21 54  1  0
 23 55  1  0
 25 56  1  0
 26 57  1  0
 27 58  1  0
 28 59  1  0
 29 60  1  0
 31 61  1  0
 32 62  1  0
 33 63  1  0
 34 64  1  0
 35 65  1  0
 36 66  1  0
 36 67  1  0
 37 68  1  0
 37 69  1  0
M  END
$$$$
