
     RDKit          3D

 29 30  0  0  0  0  0  0  0  0999 V2000
    0.8727   -0.0029    1.3776 O   0  0  0  0  0  0  0  0  0  0  0  0
    1.2545    0.2262    0.2292 C   0  0  0  0  0  0  0  0  0  0  0  0
    0.4087    1.0217   -0.7604 C   0  0  0  0  0  0  0  0  0  0  0  0
   -0.9370    1.1585   -0.2969 O   0  0  0  0  0  0  0  0  0  0  0  0
   -1.7064    0.0526   -0.5037 C   0  0  0  0  0  0  0  0  0  0  0  0
   -1.3573   -0.9301   -1.1402 O   0  0  0  0  0  0  0  0  0  0  0  0
   -3.0470    0.2343    0.1389 C   0  0  0  0  0  0  0  0  0  0  0  0
   -3.2406    1.1529    1.1686 C   0  0  0  0  0  0  0  0  0  0  0  0
   -4.5097    1.2631    1.7320 C   0  0  0  0  0  0  0  0  0  0  0  0
   -5.5387    0.4575    1.2575 C   0  0  0  0  0  0  0  0  0  0  0  0
   -5.2581   -0.4333    0.2345 C   0  0  0  0  0  0  0  0  0  0  0  0
   -4.0415   -0.5639   -0.3347 N   0  0  0  0  0  0  0  0  0  0  0  0
    2.5965   -0.2647   -0.2059 C   0  0  0  0  0  0  0  0  0  0  0  0
    3.2790   -1.1610    0.6308 C   0  0  0  0  0  0  0  0  0  0  0  0
    4.5396   -1.6470    0.2736 C   0  0  0  0  0  0  0  0  0  0  0  0
    5.1231   -1.2351   -0.9216 C   0  0  0  0  0  0  0  0  0  0  0  0
    6.8282   -1.8883   -1.4088 Br  0  0  0  0  0  0  0  0  0  0  0  0
    4.4586   -0.3418   -1.7606 C   0  0  0  0  0  0  0  0  0  0  0  0
    3.1960    0.1456   -1.4039 C   0  0  0  0  0  0  0  0  0  0  0  0
    0.4264    0.5704   -1.7581 H   0  0  0  0  0  0  0  0  0  0  0  0
    0.8266    2.0313   -0.8294 H   0  0  0  0  0  0  0  0  0  0  0  0
   -2.4245    1.7626    1.5421 H   0  0  0  0  0  0  0  0  0  0  0  0
   -4.6911    1.9672    2.5396 H   0  0  0  0  0  0  0  0  0  0  0  0
   -6.5364    0.5178    1.6789 H   0  0  0  0  0  0  0  0  0  0  0  0
   -6.0284   -1.0871   -0.1658 H   0  0  0  0  0  0  0  0  0  0  0  0
    2.8288   -1.4899    1.5665 H   0  0  0  0  0  0  0  0  0  0  0  0
    5.0514   -2.3434    0.9331 H   0  0  0  0  0  0  0  0  0  0  0  0
    4.9146   -0.0187   -2.6936 H   0  0  0  0  0  0  0  0  0  0  0  0
    2.7120    0.8454   -2.0786 H   0  0  0  0  0  0  0  0  0  0  0  0
  1  2  2  0
  2  3  1  0
  3  4  1  0
  4  5  1  0
  5  6  2  0
  5  7  1  0
  7  8  2  0
  8  9  1  0
  9 10  2  0
 10 11  1  0
 11 12  2  0
  2 13  1  0
 13 14  2  0
 14 15  1  0
 15 16  2  0
 16 17  1  0
 16 18  1  0
 18 19  2  0
 12  7  1  0
 19 13  1  0
  3 20  1  0
  3 21  1  0
  8 22  1  0
  9 23  1  0
 10 24  1  0
 11 25  1  0
 14 26  1  0
 15 27  1  0
 18 28  1  0
 19 29  1  0
M  END
$$$$
