
     RDKit          3D

 48 50  0  0  0  0  0  0  0  0999 V2000
    4.2049   -4.3785    0.7245 C   0  0  0  0  0  0  0  0  0  0  0  0
    4.0186   -3.0209    1.0979 O   0  0  0  0  0  0  0  0  0  0  0  0
    2.8133   -2.4412    0.8020 C   0  0  0  0  0  0  0  0  0  0  0  0
    1.8180   -3.0420    0.0212 C   0  0  0  0  0  0  0  0  0  0  0  0
    0.6065   -2.3868   -0.2077 C   0  0  0  0  0  0  0  0  0  0  0  0
    0.3866   -1.1193    0.3322 C   0  0  0  0  0  0  0  0  0  0  0  0
   -0.8990   -0.4231    0.1252 C   0  0  0  0  0  0  0  0  0  0  0  0
   -1.9154   -1.0259   -0.3994 N   0  0  0  0  0  0  0  0  0  0  0  0
   -3.0427   -0.2726   -0.5175 N   0  0  0  0  0  0  0  0  0  0  0  0
   -4.2347   -0.8391   -0.9591 C   0  0  0  0  0  0  0  0  0  0  0  0
   -4.3719   -2.0180   -1.2589 O   0  0  0  0  0  0  0  0  0  0  0  0
   -5.3572    0.1636   -1.0301 C   0  0  0  0  0  0  0  0  0  0  0  0
   -4.9681    1.4287   -0.6752 N   0  0  0  0  0  0  0  0  0  0  0  0
   -5.9098    2.3957   -0.7155 C   0  0  0  0  0  0  0  0  0  0  0  0
   -5.2889    3.9238   -0.2269 Cl  0  0  0  0  0  0  0  0  0  0  0  0
   -7.2273    2.1919   -1.1009 C   0  0  0  0  0  0  0  0  0  0  0  0
   -8.3840    3.4818   -1.1251 Cl  0  0  0  0  0  0  0  0  0  0  0  0
   -7.6129    0.8962   -1.4899 C   0  0  0  0  0  0  0  0  0  0  0  0
   -8.9767    0.6088   -1.7451 N   0  0  0  0  0  0  0  0  0  0  0  0
   -6.6627   -0.1503   -1.4162 C   0  0  0  0  0  0  0  0  0  0  0  0
   -7.1850   -1.7485   -1.8356 Cl  0  0  0  0  0  0  0  0  0  0  0  0
    1.3796   -0.5002    1.0926 C   0  0  0  0  0  0  0  0  0  0  0  0
    2.6055   -1.1511    1.3271 C   0  0  0  0  0  0  0  0  0  0  0  0
    3.6557   -0.5084    2.2143 C   0  0  0  0  0  0  0  0  0  0  0  0
    3.5691    0.9203    2.2311 O   0  0  0  0  0  0  0  0  0  0  0  0
    4.2690    1.6223    1.2894 C   0  0  0  0  0  0  0  0  0  0  0  0
    4.8493    1.0875    0.1349 C   0  0  0  0  0  0  0  0  0  0  0  0
    5.5298    1.9210   -0.7574 C   0  0  0  0  0  0  0  0  0  0  0  0
    5.6215    3.2845   -0.4983 C   0  0  0  0  0  0  0  0  0  0  0  0
    6.2822    4.0732   -1.3540 F   0  0  0  0  0  0  0  0  0  0  0  0
    5.0426    3.8373    0.6336 C   0  0  0  0  0  0  0  0  0  0  0  0
    4.3689    3.0025    1.5155 C   0  0  0  0  0  0  0  0  0  0  0  0
    3.8072    3.5449    2.6072 F   0  0  0  0  0  0  0  0  0  0  0  0
    4.2320   -4.4893   -0.3619 H   0  0  0  0  0  0  0  0  0  0  0  0
    5.1742   -4.6990    1.1146 H   0  0  0  0  0  0  0  0  0  0  0  0
    3.4374   -5.0239    1.1663 H   0  0  0  0  0  0  0  0  0  0  0  0
    1.9511   -4.0205   -0.4307 H   0  0  0  0  0  0  0  0  0  0  0  0
   -0.1618   -2.8679   -0.8125 H   0  0  0  0  0  0  0  0  0  0  0  0
   -0.9570    0.6270    0.4646 H   0  0  0  0  0  0  0  0  0  0  0  0
   -3.0411    0.7137   -0.2646 H   0  0  0  0  0  0  0  0  0  0  0  0
   -9.1308   -0.2538   -2.2673 H   0  0  0  0  0  0  0  0  0  0  0  0
   -9.5195    1.3984   -2.0893 H   0  0  0  0  0  0  0  0  0  0  0  0
    1.2015    0.4820    1.5201 H   0  0  0  0  0  0  0  0  0  0  0  0
    3.4613   -0.8435    3.2407 H   0  0  0  0  0  0  0  0  0  0  0  0
    4.6786   -0.8293    1.9754 H   0  0  0  0  0  0  0  0  0  0  0  0
    4.7815    0.0351   -0.1075 H   0  0  0  0  0  0  0  0  0  0  0  0
    5.9855    1.5145   -1.6562 H   0  0  0  0  0  0  0  0  0  0  0  0
    5.1148    4.8985    0.8316 H   0  0  0  0  0  0  0  0  0  0  0  0
  1  2  1  0
  2  3  1  0
  3  4  2  0
  4  5  1  0
  5  6  2  0
  6  7  1  0
  7  8  2  3
  8  9  1  0
  9 10  1  0
 10 11  2  0
 10 12  1  0
 12 13  2  0
 13 14  1  0
 14 15  1  0
 14 16  2  0
 16 17  1  0
 16 18  1  0
 18 19  1  0
 18 20  2  0
 20 21  1  0
  6 22  1  0
 22 23  2  0
 23 24  1  0
 24 25  1  0
 25 26  1  0
 26 27  2  0
 27 28  1  0
 28 29  2  0
 29 30  1  0
 29 31  1  0
 31 32  2  0
 32 33  1  0
 23  3  1  0
 32 26  1  0
 20 12  1  0
  1 34  1  0
  1 35  1  0
  1 36  1  0
  4 37  1  0
  5 38  1  0
  7 39  1  0
  9 40  1  0
 19 41  1  0
 19 42  1  0
 22 43  1  0
 24 44  1  0
 24 45  1  0
 27 46  1  0
 28 47  1  0
 31 48  1  0
M  END
$$$$
