
     RDKit          3D

 54 57  0  0  0  0  0  0  0  0999 V2000
   -4.6422    3.0332   -4.0567 C   0  0  0  0  0  0  0  0  0  0  0  0
   -3.8428    2.2409   -3.0657 C   0  0  0  0  0  0  0  0  0  0  0  0
   -2.4491    2.2605   -3.0814 C   0  0  0  0  0  0  0  0  0  0  0  0
   -1.7016    1.4956   -2.1684 C   0  0  0  0  0  0  0  0  0  0  0  0
   -0.1983    1.5523   -2.2714 C   0  0  0  0  0  0  0  0  0  0  0  0
   -2.3684    0.6756   -1.2236 C   0  0  0  0  0  0  0  0  0  0  0  0
   -1.5603   -0.0931   -0.3523 N   0  0  0  0  0  0  0  0  0  0  0  0
   -1.7849   -1.3975    0.0526 C   0  0  0  0  0  0  0  0  0  0  0  0
   -2.7530   -2.0947   -0.2395 O   0  0  0  0  0  0  0  0  0  0  0  0
   -0.6998   -1.9531    0.9874 C   0  0  0  0  0  0  0  0  0  0  0  0
    0.6105   -1.2924    0.8719 N   0  0  0  0  0  0  0  0  0  0  0  0
    0.9635   -0.3874    1.8686 C   0  0  0  0  0  0  0  0  0  0  0  0
    0.1765   -0.0940    2.7708 O   0  0  0  0  0  0  0  0  0  0  0  0
    2.2223    0.1859    1.7804 N   0  0  0  0  0  0  0  0  0  0  0  0
    2.6296    1.0826    2.8546 C   0  0  0  0  0  0  0  0  0  0  0  0
    3.1718    0.2798    3.9873 C   0  0  0  0  0  0  0  0  0  0  0  0
    2.5943   -0.2966    5.1009 C   0  0  0  0  0  0  0  0  0  0  0  0
    3.6395   -0.9390    5.8064 C   0  0  0  0  0  0  0  0  0  0  0  0
    4.7857   -0.7136    5.0813 C   0  0  0  0  0  0  0  0  0  0  0  0
    4.5119    0.0247    3.9757 O   0  0  0  0  0  0  0  0  0  0  0  0
    3.1092   -0.0003    0.7318 C   0  0  0  0  0  0  0  0  0  0  0  0
    4.1674    0.6097    0.6021 O   0  0  0  0  0  0  0  0  0  0  0  0
    2.7140   -0.9671   -0.3041 C   0  0  0  0  0  0  0  0  0  0  0  0
    3.5867   -1.2260   -1.3726 C   0  0  0  0  0  0  0  0  0  0  0  0
    3.2210   -2.1231   -2.3710 C   0  0  0  0  0  0  0  0  0  0  0  0
    1.9860   -2.7574   -2.3019 C   0  0  0  0  0  0  0  0  0  0  0  0
    1.1183   -2.4980   -1.2349 C   0  0  0  0  0  0  0  0  0  0  0  0
    1.4740   -1.5984   -0.2167 C   0  0  0  0  0  0  0  0  0  0  0  0
   -3.7763    0.7043   -1.1582 C   0  0  0  0  0  0  0  0  0  0  0  0
   -4.5951    0.0172   -0.0981 C   0  0  0  0  0  0  0  0  0  0  0  0
   -4.4925    1.4620   -2.1063 C   0  0  0  0  0  0  0  0  0  0  0  0
   -5.1791    2.3584   -4.7310 H   0  0  0  0  0  0  0  0  0  0  0  0
   -5.3635    3.6728   -3.5377 H   0  0  0  0  0  0  0  0  0  0  0  0
   -4.0014    3.6813   -4.6638 H   0  0  0  0  0  0  0  0  0  0  0  0
   -1.9349    2.8716   -3.8212 H   0  0  0  0  0  0  0  0  0  0  0  0
    0.2059    0.5571   -2.4820 H   0  0  0  0  0  0  0  0  0  0  0  0
    0.2332    1.9382   -1.3422 H   0  0  0  0  0  0  0  0  0  0  0  0
    0.1287    2.2139   -3.0807 H   0  0  0  0  0  0  0  0  0  0  0  0
   -0.5932    0.1892   -0.2818 H   0  0  0  0  0  0  0  0  0  0  0  0
   -1.0893   -1.8599    2.0074 H   0  0  0  0  0  0  0  0  0  0  0  0
   -0.5770   -3.0267    0.8072 H   0  0  0  0  0  0  0  0  0  0  0  0
    1.7704    1.6719    3.1953 H   0  0  0  0  0  0  0  0  0  0  0  0
    3.3850    1.7953    2.5060 H   0  0  0  0  0  0  0  0  0  0  0  0
    1.5446   -0.2594    5.3615 H   0  0  0  0  0  0  0  0  0  0  0  0
    3.5676   -1.4983    6.7285 H   0  0  0  0  0  0  0  0  0  0  0  0
    5.8216   -0.9956    5.2087 H   0  0  0  0  0  0  0  0  0  0  0  0
    4.5533   -0.7276   -1.4271 H   0  0  0  0  0  0  0  0  0  0  0  0
    3.8965   -2.3251   -3.1990 H   0  0  0  0  0  0  0  0  0  0  0  0
    1.6915   -3.4579   -3.0811 H   0  0  0  0  0  0  0  0  0  0  0  0
    0.1652   -3.0203   -1.2439 H   0  0  0  0  0  0  0  0  0  0  0  0
   -4.9401   -0.9586   -0.4511 H   0  0  0  0  0  0  0  0  0  0  0  0
   -4.0415   -0.0906    0.8390 H   0  0  0  0  0  0  0  0  0  0  0  0
   -5.4797    0.6163    0.1494 H   0  0  0  0  0  0  0  0  0  0  0  0
   -5.5817    1.4615   -2.0760 H   0  0  0  0  0  0  0  0  0  0  0  0
  1  2  1  0
  2  3  2  0
  3  4  1  0
  4  5  1  0
  4  6  2  0
  6  7  1  0
  7  8  1  0
  8  9  2  0
  8 10  1  0
 10 11  1  0
 11 12  1  0
 12 13  2  0
 12 14  1  0
 14 15  1  0
 15 16  1  0
 16 17  2  0
 17 18  1  0
 18 19  2  0
 19 20  1  0
 14 21  1  0
 21 22  2  0
 21 23  1  0
 23 24  2  0
 24 25  1  0
 25 26  2  0
 26 27  1  0
 27 28  2  0
  6 29  1  0
 29 30  1  0
 29 31  2  0
 31  2  1  0
 28 11  1  0
 20 16  1  0
 28 23  1  0
  1 32  1  0
  1 33  1  0
  1 34  1  0
  3 35  1  0
  5 36  1  0
  5 37  1  0
  5 38  1  0
  7 39  1  0
 10 40  1  0
 10 41  1  0
 15 42  1  0
 15 43  1  0
 17 44  1  0
 18 45  1  0
 19 46  1  0
 24 47  1  0
 25 48  1  0
 26 49  1  0
 27 50  1  0
 30 51  1  0
 30 52  1  0
 30 53  1  0
 31 54  1  0
M  END
$$$$
