
     RDKit          3D

 57 59  0  0  0  0  0  0  0  0999 V2000
   -8.7114    2.6477    0.1717 C   0  0  0  0  0  0  0  0  0  0  0  0
   -7.3358    2.8953   -0.0933 O   0  0  0  0  0  0  0  0  0  0  0  0
   -6.6080    1.8609   -0.6130 C   0  0  0  0  0  0  0  0  0  0  0  0
   -5.2772    2.1760   -0.9047 C   0  0  0  0  0  0  0  0  0  0  0  0
   -4.4164    1.2163   -1.4403 C   0  0  0  0  0  0  0  0  0  0  0  0
   -4.8872   -0.0787   -1.6627 C   0  0  0  0  0  0  0  0  0  0  0  0
   -3.8113   -1.3024   -2.3813 S   0  0  0  0  0  6  0  0  0  0  0  0
   -2.7624   -0.5981   -3.0856 O   0  0  0  0  0  0  0  0  0  0  0  0
   -4.6501   -2.2683   -3.0583 O   0  0  0  0  0  0  0  0  0  0  0  0
   -3.1152   -2.0736   -1.0711 N   0  0  0  0  0  0  0  0  0  0  0  0
   -3.9345   -2.8932   -0.1814 C   0  0  0  0  0  0  0  0  0  0  0  0
   -2.9956   -3.1075    0.9835 C   0  0  0  0  0  0  0  0  0  0  0  0
   -2.2985   -1.8617    1.1000 O   0  0  0  0  0  0  0  0  0  0  0  0
   -2.1545   -1.3375   -0.2426 C   0  0  0  0  0  0  0  0  0  0  0  0
   -0.7071   -1.5708   -0.7178 C   0  0  0  0  0  0  0  0  0  0  0  0
    0.2632   -0.9751    0.1859 N   0  0  0  0  0  0  0  0  0  0  0  0
    1.5665   -0.7449   -0.1858 C   0  0  0  0  0  0  0  0  0  0  0  0
    2.0257   -0.8402   -1.3141 O   0  0  0  0  0  0  0  0  0  0  0  0
    2.4805   -0.3407    0.9932 C   0  0  0  0  0  0  0  0  0  0  0  0
    2.0585   -0.3962    2.1398 O   0  0  0  0  0  0  0  0  0  0  0  0
    3.7370    0.0550    0.6067 N   0  0  0  0  0  0  0  0  0  0  0  0
    4.7859    0.2733    1.5741 C   0  0  0  0  0  0  0  0  0  0  0  0
    5.9439    1.0402    0.9814 C   0  0  0  0  0  0  0  0  0  0  0  0
    5.6949    2.2728    0.3470 C   0  0  0  0  0  0  0  0  0  0  0  0
    6.7371    3.0201   -0.1979 C   0  0  0  0  0  0  0  0  0  0  0  0
    8.0432    2.5513   -0.1074 C   0  0  0  0  0  0  0  0  0  0  0  0
    8.3105    1.3379    0.5316 C   0  0  0  0  0  0  0  0  0  0  0  0
    7.2713    0.5791    1.0843 C   0  0  0  0  0  0  0  0  0  0  0  0
    7.4470   -0.6138    1.7352 O   0  0  0  0  0  0  0  0  0  0  0  0
    8.7809   -1.0734    1.9169 C   0  0  0  0  0  0  0  0  0  0  0  0
   -6.2232   -0.3976   -1.4031 C   0  0  0  0  0  0  0  0  0  0  0  0
   -7.0792    0.5716   -0.8696 C   0  0  0  0  0  0  0  0  0  0  0  0
   -9.1505    3.5706    0.5654 H   0  0  0  0  0  0  0  0  0  0  0  0
   -8.8314    1.8705    0.9336 H   0  0  0  0  0  0  0  0  0  0  0  0
   -9.2482    2.3883   -0.7464 H   0  0  0  0  0  0  0  0  0  0  0  0
   -4.9136    3.1845   -0.7231 H   0  0  0  0  0  0  0  0  0  0  0  0
   -3.3940    1.4915   -1.6852 H   0  0  0  0  0  0  0  0  0  0  0  0
   -4.8166   -2.3424    0.1550 H   0  0  0  0  0  0  0  0  0  0  0  0
   -4.2368   -3.8368   -0.6397 H   0  0  0  0  0  0  0  0  0  0  0  0
   -3.5169   -3.3358    1.9164 H   0  0  0  0  0  0  0  0  0  0  0  0
   -2.2637   -3.8966    0.7786 H   0  0  0  0  0  0  0  0  0  0  0  0
   -2.3704   -0.2685   -0.1795 H   0  0  0  0  0  0  0  0  0  0  0  0
   -0.4801   -2.6431   -0.7475 H   0  0  0  0  0  0  0  0  0  0  0  0
   -0.5494   -1.1724   -1.7248 H   0  0  0  0  0  0  0  0  0  0  0  0
    0.0904   -1.0275    1.1898 H   0  0  0  0  0  0  0  0  0  0  0  0
    3.9845   -0.1187   -0.3637 H   0  0  0  0  0  0  0  0  0  0  0  0
    4.3820    0.8240    2.4323 H   0  0  0  0  0  0  0  0  0  0  0  0
    5.0812   -0.7166    1.9367 H   0  0  0  0  0  0  0  0  0  0  0  0
    4.6765    2.6534    0.2761 H   0  0  0  0  0  0  0  0  0  0  0  0
    6.5283    3.9661   -0.6904 H   0  0  0  0  0  0  0  0  0  0  0  0
    8.8591    3.1293   -0.5334 H   0  0  0  0  0  0  0  0  0  0  0  0
    9.3442    1.0137    0.5800 H   0  0  0  0  0  0  0  0  0  0  0  0
    9.2666   -1.2738    0.9547 H   0  0  0  0  0  0  0  0  0  0  0  0
    9.3619   -0.3651    2.5164 H   0  0  0  0  0  0  0  0  0  0  0  0
    8.7364   -2.0168    2.4681 H   0  0  0  0  0  0  0  0  0  0  0  0
   -6.6090   -1.3916   -1.6178 H   0  0  0  0  0  0  0  0  0  0  0  0
   -8.1091    0.2903   -0.6746 H   0  0  0  0  0  0  0  0  0  0  0  0
  1  2  1  0
  2  3  1  0
  3  4  2  0
  4  5  1  0
  5  6  2  0
  6  7  1  0
  7  8  2  0
  7  9  2  0
  7 10  1  0
 10 11  1  0
 11 12  1  0
 12 13  1  0
 13 14  1  0
 14 15  1  0
 15 16  1  0
 16 17  1  0
 17 18  2  0
 17 19  1  0
 19 20  2  0
 19 21  1  0
 21 22  1  0
 22 23  1  0
 23 24  2  0
 24 25  1  0
 25 26  2  0
 26 27  1  0
 27 28  2  0
 28 29  1  0
 29 30  1  0
  6 31  1  0
 31 32  2  0
 32  3  1  0
 14 10  1  0
 28 23  1  0
  1 33  1  0
  1 34  1  0
  1 35  1  0
  4 36  1  0
  5 37  1  0
 11 38  1  0
 11 39  1  0
 12 40  1  0
 12 41  1  0
 14 42  1  0
 15 43  1  0
 15 44  1  0
 16 45  1  0
 21 46  1  0
 22 47  1  0
 22 48  1  0
 24 49  1  0
 25 50  1  0
 26 51  1  0
 27 52  1  0
 30 53  1  0
 30 54  1  0
 30 55  1  0
 31 56  1  0
 32 57  1  0
M  END
$$$$
