
     RDKit          3D

 40 41  0  0  0  0  0  0  0  0999 V2000
    6.5122   -0.0380    1.4065 C   0  0  0  0  0  0  0  0  0  0  0  0
    6.6430    1.0707   -0.0177 S   0  0  0  0  0  0  0  0  0  0  0  0
    5.0510    1.9403    0.1263 C   0  0  0  0  0  0  0  0  0  0  0  0
    3.8502    1.0456   -0.0582 C   0  0  0  0  0  0  0  0  0  0  0  0
    3.0006    0.7615    1.0214 C   0  0  0  0  0  0  0  0  0  0  0  0
    1.8865   -0.0671    0.8532 C   0  0  0  0  0  0  0  0  0  0  0  0
    1.6032   -0.6164   -0.4031 C   0  0  0  0  0  0  0  0  0  0  0  0
    0.4289   -1.5046   -0.6308 C   0  0  0  0  0  0  0  0  0  0  0  0
    0.4334   -2.3176   -1.5478 O   0  0  0  0  0  0  0  0  0  0  0  0
   -0.6465   -1.3235    0.2150 N   0  0  0  0  0  0  0  0  0  0  0  0
   -1.9048   -2.0024   -0.0416 C   0  0  0  0  0  0  0  0  0  0  0  0
   -2.8592   -1.9443    1.1514 C   0  0  0  0  0  0  0  0  0  0  0  0
   -3.2292   -0.2278    1.6869 S   0  0  0  0  0  0  0  0  0  0  0  0
   -4.2027    0.3344    0.3035 C   0  0  0  0  0  0  0  0  0  0  0  0
   -5.4356   -0.2520   -0.0010 C   0  0  0  0  0  0  0  0  0  0  0  0
   -6.1857    0.2066   -1.0874 C   0  0  0  0  0  0  0  0  0  0  0  0
   -5.7046    1.2584   -1.8646 C   0  0  0  0  0  0  0  0  0  0  0  0
   -6.7182    1.8797   -3.3337 Br  0  0  0  0  0  0  0  0  0  0  0  0
   -4.4842    1.8588   -1.5623 C   0  0  0  0  0  0  0  0  0  0  0  0
   -3.7366    1.3991   -0.4748 C   0  0  0  0  0  0  0  0  0  0  0  0
    2.4542   -0.3480   -1.4805 C   0  0  0  0  0  0  0  0  0  0  0  0
    3.5653    0.4816   -1.3106 C   0  0  0  0  0  0  0  0  0  0  0  0
    7.4655   -0.5563    1.5414 H   0  0  0  0  0  0  0  0  0  0  0  0
    6.2965    0.5284    2.3161 H   0  0  0  0  0  0  0  0  0  0  0  0
    5.7367   -0.7904    1.2436 H   0  0  0  0  0  0  0  0  0  0  0  0
    5.0163    2.4511    1.0951 H   0  0  0  0  0  0  0  0  0  0  0  0
    5.0226    2.7281   -0.6353 H   0  0  0  0  0  0  0  0  0  0  0  0
    3.2061    1.1760    2.0065 H   0  0  0  0  0  0  0  0  0  0  0  0
    1.2680   -0.2939    1.7171 H   0  0  0  0  0  0  0  0  0  0  0  0
   -0.7067   -0.4480    0.7206 H   0  0  0  0  0  0  0  0  0  0  0  0
   -1.6896   -3.0497   -0.2838 H   0  0  0  0  0  0  0  0  0  0  0  0
   -2.3507   -1.5528   -0.9359 H   0  0  0  0  0  0  0  0  0  0  0  0
   -2.3989   -2.4470    2.0091 H   0  0  0  0  0  0  0  0  0  0  0  0
   -3.7886   -2.4755    0.9246 H   0  0  0  0  0  0  0  0  0  0  0  0
   -5.8303   -1.0618    0.6078 H   0  0  0  0  0  0  0  0  0  0  0  0
   -7.1418   -0.2581   -1.3137 H   0  0  0  0  0  0  0  0  0  0  0  0
   -4.1074    2.6832   -2.1620 H   0  0  0  0  0  0  0  0  0  0  0  0
   -2.7879    1.8786   -0.2454 H   0  0  0  0  0  0  0  0  0  0  0  0
    2.2540   -0.7847   -2.4573 H   0  0  0  0  0  0  0  0  0  0  0  0
    4.2153    0.6778   -2.1619 H   0  0  0  0  0  0  0  0  0  0  0  0
  1  2  1  0
  2  3  1  0
  3  4  1  0
  4  5  2  0
  5  6  1  0
  6  7  2  0
  7  8  1  0
  8  9  2  0
  8 10  1  0
 10 11  1  0
 11 12  1  0
 12 13  1  0
 13 14  1  0
 14 15  2  0
 15 16  1  0
 16 17  2  0
 17 18  1  0
 17 19  1  0
 19 20  2  0
  7 21  1  0
 21 22  2  0
 22  4  1  0
 20 14  1  0
  1 23  1  0
  1 24  1  0
  1 25  1  0
  3 26  1  0
  3 27  1  0
  5 28  1  0
  6 29  1  0
 10 30  1  0
 11 31  1  0
 11 32  1  0
 12 33  1  0
 12 34  1  0
 15 35  1  0
 16 36  1  0
 19 37  1  0
 20 38  1  0
 21 39  1  0
 22 40  1  0
M  END
$$$$
