
     RDKit          3D

 49 50  0  0  0  0  0  0  0  0999 V2000
    5.5762   -2.7985    0.8754 C   0  0  0  0  0  0  0  0  0  0  0  0
    5.4489   -1.7815   -0.2421 C   0  0  0  0  0  0  0  0  0  0  0  0
    4.1833   -1.1282   -0.1057 O   0  0  0  0  0  0  0  0  0  0  0  0
    3.9278   -0.1840   -1.0589 C   0  0  0  0  0  0  0  0  0  0  0  0
    4.7140    0.0932   -1.9590 O   0  0  0  0  0  0  0  0  0  0  0  0
    2.6255    0.4794   -0.8907 C   0  0  0  0  0  0  0  0  0  0  0  0
    2.1700    1.6395   -1.6117 C   0  0  0  0  0  0  0  0  0  0  0  0
    2.9491    2.3721   -2.6539 C   0  0  0  0  0  0  0  0  0  0  0  0
    0.8938    1.9427   -1.1616 C   0  0  0  0  0  0  0  0  0  0  0  0
   -0.0329    3.0313   -1.5925 C   0  0  0  0  0  0  0  0  0  0  0  0
    0.5708    1.0371   -0.1692 N   0  0  0  0  0  0  0  0  0  0  0  0
   -0.6545    1.0839    0.6411 C   0  0  0  0  0  0  0  0  0  0  0  0
   -1.7867    0.2070    0.1447 C   0  0  0  0  0  0  0  0  0  0  0  0
   -1.7560   -0.4633   -1.0873 C   0  0  0  0  0  0  0  0  0  0  0  0
   -2.8273   -1.2577   -1.4933 C   0  0  0  0  0  0  0  0  0  0  0  0
   -3.9463   -1.4067   -0.6738 C   0  0  0  0  0  0  0  0  0  0  0  0
   -4.0128   -0.7523    0.5588 C   0  0  0  0  0  0  0  0  0  0  0  0
   -5.0573   -0.8743    1.4375 O   0  0  0  0  0  0  0  0  0  0  0  0
   -6.0573   -1.8404    1.1425 C   0  0  0  0  0  0  0  0  0  0  0  0
   -2.9428    0.0809    0.9452 C   0  0  0  0  0  0  0  0  0  0  0  0
   -2.9191    0.7624    2.1425 O   0  0  0  0  0  0  0  0  0  0  0  0
   -4.0574    1.6001    2.3417 C   0  0  0  0  0  0  0  0  0  0  0  0
    1.5936    0.1161   -0.0239 C   0  0  0  0  0  0  0  0  0  0  0  0
    1.5142   -1.0383    0.9243 C   0  0  0  0  0  0  0  0  0  0  0  0
    5.5040   -2.3088    1.8522 H   0  0  0  0  0  0  0  0  0  0  0  0
    4.7625   -3.5297    0.8254 H   0  0  0  0  0  0  0  0  0  0  0  0
    6.5313   -3.3276    0.8149 H   0  0  0  0  0  0  0  0  0  0  0  0
    5.5019   -2.2899   -1.2114 H   0  0  0  0  0  0  0  0  0  0  0  0
    6.2565   -1.0451   -0.1651 H   0  0  0  0  0  0  0  0  0  0  0  0
    2.4670    3.3093   -2.9450 H   0  0  0  0  0  0  0  0  0  0  0  0
    3.9464    2.6263   -2.2805 H   0  0  0  0  0  0  0  0  0  0  0  0
    3.0557    1.7543   -3.5512 H   0  0  0  0  0  0  0  0  0  0  0  0
    0.2500    3.4368   -2.5681 H   0  0  0  0  0  0  0  0  0  0  0  0
   -0.0177    3.8508   -0.8670 H   0  0  0  0  0  0  0  0  0  0  0  0
   -1.0599    2.6656   -1.6883 H   0  0  0  0  0  0  0  0  0  0  0  0
   -0.3633    0.8031    1.6600 H   0  0  0  0  0  0  0  0  0  0  0  0
   -0.9846    2.1279    0.6795 H   0  0  0  0  0  0  0  0  0  0  0  0
   -0.8972   -0.3825   -1.7512 H   0  0  0  0  0  0  0  0  0  0  0  0
   -2.7839   -1.7715   -2.4510 H   0  0  0  0  0  0  0  0  0  0  0  0
   -4.7483   -2.0452   -1.0286 H   0  0  0  0  0  0  0  0  0  0  0  0
   -6.7615   -1.8579    1.9800 H   0  0  0  0  0  0  0  0  0  0  0  0
   -6.6178   -1.5629    0.2440 H   0  0  0  0  0  0  0  0  0  0  0  0
   -5.6273   -2.8432    1.0491 H   0  0  0  0  0  0  0  0  0  0  0  0
   -3.7252    2.4808    2.9003 H   0  0  0  0  0  0  0  0  0  0  0  0
   -4.4999    1.9503    1.4020 H   0  0  0  0  0  0  0  0  0  0  0  0
   -4.8029    1.0842    2.9536 H   0  0  0  0  0  0  0  0  0  0  0  0
    1.8513   -1.9587    0.4367 H   0  0  0  0  0  0  0  0  0  0  0  0
    2.1463   -0.8513    1.7982 H   0  0  0  0  0  0  0  0  0  0  0  0
    0.4996   -1.2356    1.2779 H   0  0  0  0  0  0  0  0  0  0  0  0
  1  2  1  0
  2  3  1  0
  3  4  1  0
  4  5  2  0
  4  6  1  0
  6  7  1  0
  7  8  1  0
  7  9  2  0
  9 10  1  0
  9 11  1  0
 11 12  1  0
 12 13  1  0
 13 14  2  0
 14 15  1  0
 15 16  2  0
 16 17  1  0
 17 18  1  0
 18 19  1  0
 17 20  2  0
 20 21  1  0
 21 22  1  0
 11 23  1  0
 23 24  1  0
 23  6  2  0
 20 13  1  0
  1 25  1  0
  1 26  1  0
  1 27  1  0
  2 28  1  0
  2 29  1  0
  8 30  1  0
  8 31  1  0
  8 32  1  0
 10 33  1  0
 10 34  1  0
 10 35  1  0
 12 36  1  0
 12 37  1  0
 14 38  1  0
 15 39  1  0
 16 40  1  0
 19 41  1  0
 19 42  1  0
 19 43  1  0
 22 44  1  0
 22 45  1  0
 22 46  1  0
 24 47  1  0
 24 48  1  0
 24 49  1  0
M  END
$$$$
