
     RDKit          3D

 37 39  0  0  0  0  0  0  0  0999 V2000
   -5.1512    2.3137   -0.0228 C   0  0  0  0  0  0  0  0  0  0  0  0
   -4.6316    1.1605    0.7848 C   0  0  0  0  0  0  0  0  0  0  0  0
   -4.8579    1.1121    2.1678 C   0  0  0  0  0  0  0  0  0  0  0  0
   -4.3881    0.0381    2.9282 C   0  0  0  0  0  0  0  0  0  0  0  0
   -3.6903   -1.0015    2.3152 C   0  0  0  0  0  0  0  0  0  0  0  0
   -3.4472   -0.9611    0.9436 C   0  0  0  0  0  0  0  0  0  0  0  0
   -3.8917    0.1279    0.1915 C   0  0  0  0  0  0  0  0  0  0  0  0
   -3.6485    0.1451   -1.1577 O   0  0  0  0  0  0  0  0  0  0  0  0
   -2.3718    0.7130   -1.4323 C   0  0  0  0  0  0  0  0  0  0  0  0
   -1.1895   -0.2702   -1.4206 C   0  0  0  0  0  0  0  0  0  0  0  0
   -1.3347   -1.4661   -1.6536 O   0  0  0  0  0  0  0  0  0  0  0  0
    0.0063    0.3617   -1.1359 N   0  0  0  0  0  0  0  0  0  0  0  0
    1.1890   -0.3220   -1.0672 C   0  0  0  0  0  0  0  0  0  0  0  0
    1.4540   -1.5886   -1.2528 N   0  0  0  0  0  0  0  0  0  0  0  0
    2.7989   -1.8575   -1.0823 N   0  0  0  0  0  0  0  0  0  0  0  0
    3.5046   -0.7832   -0.7742 C   0  0  0  0  0  0  0  0  0  0  0  0
    4.9589   -0.7858   -0.5369 C   0  0  0  0  0  0  0  0  0  0  0  0
    5.6972    0.3633   -0.2288 C   0  0  0  0  0  0  0  0  0  0  0  0
    7.0645    0.2478   -0.0247 C   0  0  0  0  0  0  0  0  0  0  0  0
    7.7402   -0.9153   -0.1045 N   0  0  0  0  0  0  0  0  0  0  0  0
    7.0203   -2.0154   -0.4022 C   0  0  0  0  0  0  0  0  0  0  0  0
    5.6532   -2.0004   -0.6229 C   0  0  0  0  0  0  0  0  0  0  0  0
    2.5379    0.6447   -0.6751 S   0  0  0  0  0  0  0  0  0  0  0  0
   -5.6163    1.9601   -0.9486 H   0  0  0  0  0  0  0  0  0  0  0  0
   -4.3343    2.9995   -0.2672 H   0  0  0  0  0  0  0  0  0  0  0  0
   -5.9157    2.8725    0.5279 H   0  0  0  0  0  0  0  0  0  0  0  0
   -5.4117    1.9066    2.6626 H   0  0  0  0  0  0  0  0  0  0  0  0
   -4.5799    0.0054    3.9980 H   0  0  0  0  0  0  0  0  0  0  0  0
   -3.3428   -1.8478    2.9018 H   0  0  0  0  0  0  0  0  0  0  0  0
   -2.9199   -1.7830    0.4632 H   0  0  0  0  0  0  0  0  0  0  0  0
   -2.4206    1.1189   -2.4501 H   0  0  0  0  0  0  0  0  0  0  0  0
   -2.1639    1.5640   -0.7693 H   0  0  0  0  0  0  0  0  0  0  0  0
    0.0425    1.3507   -0.9403 H   0  0  0  0  0  0  0  0  0  0  0  0
    5.2442    1.3441   -0.1427 H   0  0  0  0  0  0  0  0  0  0  0  0
    7.6702    1.1181    0.2162 H   0  0  0  0  0  0  0  0  0  0  0  0
    7.5863   -2.9408   -0.4617 H   0  0  0  0  0  0  0  0  0  0  0  0
    5.1395   -2.9293   -0.8590 H   0  0  0  0  0  0  0  0  0  0  0  0
  1  2  1  0
  2  3  2  0
  3  4  1  0
  4  5  2  0
  5  6  1  0
  6  7  2  0
  7  8  1  0
  8  9  1  0
  9 10  1  0
 10 11  2  0
 10 12  1  0
 12 13  1  0
 13 14  2  0
 14 15  1  0
 15 16  2  0
 16 17  1  0
 17 18  2  0
 18 19  1  0
 19 20  2  0
 20 21  1  0
 21 22  2  0
 16 23  1  0
  7  2  1  0
 23 13  1  0
 22 17  1  0
  1 24  1  0
  1 25  1  0
  1 26  1  0
  3 27  1  0
  4 28  1  0
  5 29  1  0
  6 30  1  0
  9 31  1  0
  9 32  1  0
 12 33  1  0
 18 34  1  0
 19 35  1  0
 21 36  1  0
 22 37  1  0
M  END
$$$$
