
     RDKit          3D

 58 63  0  0  0  0  0  0  0  0999 V2000
    6.7539    3.4861   -1.3975 C   0  0  0  0  0  0  0  0  0  0  0  0
    5.8746    2.4714   -0.7500 C   0  0  0  0  0  0  0  0  0  0  0  0
    5.2061    2.5560    0.4512 C   0  0  0  0  0  0  0  0  0  0  0  0
    4.4475    1.3820    0.7287 C   0  0  0  0  0  0  0  0  0  0  0  0
    4.5585    0.4353   -0.2725 C   0  0  0  0  0  0  0  0  0  0  0  0
    3.9535   -0.8853   -0.3674 C   0  0  0  0  0  0  0  0  0  0  0  0
    4.6042   -1.8854   -0.6769 O   0  0  0  0  0  0  0  0  0  0  0  0
    2.5873   -0.9966   -0.0690 N   0  0  0  0  0  0  0  0  0  0  0  0
    2.0140   -2.3343    0.0137 C   0  0  0  0  0  0  0  0  0  0  0  0
    0.6983   -2.3156    0.7847 C   0  0  0  0  0  0  0  0  0  0  0  0
   -0.3847   -1.4493    0.0662 C   0  0  0  0  0  0  0  0  0  0  0  0
    0.3186   -0.3019   -0.7184 C   0  0  0  0  0  0  0  0  0  0  0  0
    1.6471    0.1234   -0.1017 C   0  0  0  0  0  0  0  0  0  0  0  0
   -1.0287   -2.2474   -0.9650 O   0  0  0  0  0  0  0  0  0  0  0  0
   -1.9027   -3.2043   -0.5289 C   0  0  0  0  0  0  0  0  0  0  0  0
   -2.2258   -4.2048   -1.4435 C   0  0  0  0  0  0  0  0  0  0  0  0
   -3.0866   -5.2398   -1.0708 C   0  0  0  0  0  0  0  0  0  0  0  0
   -3.6262   -5.2669    0.2150 C   0  0  0  0  0  0  0  0  0  0  0  0
   -4.6815   -6.5461    0.6691 Cl  0  0  0  0  0  0  0  0  0  0  0  0
   -3.3211   -4.2635    1.1308 C   0  0  0  0  0  0  0  0  0  0  0  0
   -2.4643   -3.2278    0.7476 C   0  0  0  0  0  0  0  0  0  0  0  0
   -2.1530   -2.1287    1.6815 C   0  0  0  0  0  0  0  0  0  0  0  0
   -2.4985   -2.2095    2.8536 O   0  0  0  0  0  0  0  0  0  0  0  0
   -1.4594   -0.9209    1.0609 C   0  0  0  0  0  0  0  0  0  0  0  0
   -2.5486   -0.0339    0.4636 C   0  0  0  0  0  0  0  0  0  0  0  0
   -2.1145    1.2853    1.0014 C   0  0  0  0  0  0  0  0  0  0  0  0
   -2.7302    2.5588    0.5584 C   0  0  0  0  0  0  0  0  0  0  0  0
   -2.2824    3.7619    1.1238 C   0  0  0  0  0  0  0  0  0  0  0  0
   -2.8399    4.9806    0.7263 C   0  0  0  0  0  0  0  0  0  0  0  0
   -3.8422    4.9991   -0.2408 C   0  0  0  0  0  0  0  0  0  0  0  0
   -4.5276    6.4968   -0.7360 Cl  0  0  0  0  0  0  0  0  0  0  0  0
   -4.2947    3.8082   -0.8095 C   0  0  0  0  0  0  0  0  0  0  0  0
   -3.7425    2.5880   -0.4086 C   0  0  0  0  0  0  0  0  0  0  0  0
   -1.1610    1.2313    1.8742 N   0  0  0  0  0  0  0  0  0  0  0  0
   -0.8481   -0.1320    2.0847 O   0  0  0  0  0  0  0  0  0  0  0  0
    5.6137    0.9617   -1.5128 S   0  0  0  0  0  0  0  0  0  0  0  0
    6.8850    4.3609   -0.7520 H   0  0  0  0  0  0  0  0  0  0  0  0
    6.3156    3.8278   -2.3411 H   0  0  0  0  0  0  0  0  0  0  0  0
    7.7451    3.0721   -1.6061 H   0  0  0  0  0  0  0  0  0  0  0  0
    5.2545    3.4212    1.1031 H   0  0  0  0  0  0  0  0  0  0  0  0
    3.8573    1.2343    1.6257 H   0  0  0  0  0  0  0  0  0  0  0  0
    2.7277   -3.0011    0.5122 H   0  0  0  0  0  0  0  0  0  0  0  0
    1.8691   -2.7085   -1.0083 H   0  0  0  0  0  0  0  0  0  0  0  0
    0.3669   -3.3531    0.9112 H   0  0  0  0  0  0  0  0  0  0  0  0
    0.8993   -1.9184    1.7886 H   0  0  0  0  0  0  0  0  0  0  0  0
   -0.3224    0.5786   -0.8221 H   0  0  0  0  0  0  0  0  0  0  0  0
    0.5055   -0.6289   -1.7521 H   0  0  0  0  0  0  0  0  0  0  0  0
    1.5114    0.4745    0.9261 H   0  0  0  0  0  0  0  0  0  0  0  0
    2.0603    0.9471   -0.6915 H   0  0  0  0  0  0  0  0  0  0  0  0
   -1.7966   -4.1916   -2.4424 H   0  0  0  0  0  0  0  0  0  0  0  0
   -3.3264   -6.0252   -1.7837 H   0  0  0  0  0  0  0  0  0  0  0  0
   -3.7478   -4.2829    2.1310 H   0  0  0  0  0  0  0  0  0  0  0  0
   -2.5731   -0.0539   -0.6277 H   0  0  0  0  0  0  0  0  0  0  0  0
   -3.5511   -0.2560    0.8504 H   0  0  0  0  0  0  0  0  0  0  0  0
   -1.5027    3.7597    1.8837 H   0  0  0  0  0  0  0  0  0  0  0  0
   -2.4898    5.9071    1.1783 H   0  0  0  0  0  0  0  0  0  0  0  0
   -5.0785    3.8257   -1.5636 H   0  0  0  0  0  0  0  0  0  0  0  0
   -4.1222    1.6786   -0.8660 H   0  0  0  0  0  0  0  0  0  0  0  0
  1  2  1  0
  2  3  2  0
  3  4  1  0
  4  5  2  0
  5  6  1  0
  6  7  2  0
  6  8  1  0
  8  9  1  0
  9 10  1  0
 10 11  1  0
 11 12  1  0
 12 13  1  0
 11 14  1  0
 14 15  1  0
 15 16  2  0
 16 17  1  0
 17 18  2  0
 18 19  1  0
 18 20  1  0
 20 21  2  0
 21 22  1  0
 22 23  2  0
 22 24  1  0
 24 25  1  0
 25 26  1  0
 26 27  1  0
 27 28  2  0
 28 29  1  0
 29 30  2  0
 30 31  1  0
 30 32  1  0
 32 33  2  0
 26 34  2  0
 34 35  1  0
  5 36  1  0
 36  2  1  0
 13  8  1  0
 21 15  1  0
 35 24  1  0
 24 11  1  0
 33 27  1  0
  1 37  1  0
  1 38  1  0
  1 39  1  0
  3 40  1  0
  4 41  1  0
  9 42  1  0
  9 43  1  0
 10 44  1  0
 10 45  1  0
 12 46  1  0
 12 47  1  0
 13 48  1  0
 13 49  1  0
 16 50  1  0
 17 51  1  0
 20 52  1  0
 25 53  1  0
 25 54  1  0
 28 55  1  0
 29 56  1  0
 32 57  1  0
 33 58  1  0
M  END
$$$$
