
     RDKit          3D

 56 59  0  0  0  0  0  0  0  0999 V2000
    9.4545   -0.6021    0.7447 C   0  0  0  0  0  0  0  0  0  0  0  0
    8.5288   -1.1949   -0.1579 O   0  0  0  0  0  0  0  0  0  0  0  0
    7.2225   -1.2517    0.2422 C   0  0  0  0  0  0  0  0  0  0  0  0
    6.3645   -1.8888   -0.6607 C   0  0  0  0  0  0  0  0  0  0  0  0
    5.0022   -2.0195   -0.3822 C   0  0  0  0  0  0  0  0  0  0  0  0
    4.4911   -1.4859    0.8020 C   0  0  0  0  0  0  0  0  0  0  0  0
    2.7655   -1.6842    1.1954 S   0  0  0  0  0  6  0  0  0  0  0  0
    2.6457   -1.6361    2.6370 O   0  0  0  0  0  0  0  0  0  0  0  0
    2.2763   -2.8189    0.4424 O   0  0  0  0  0  0  0  0  0  0  0  0
    2.0292   -0.3131    0.5839 N   0  0  0  0  0  0  0  0  0  0  0  0
    2.3396    0.9993    1.1457 C   0  0  0  0  0  0  0  0  0  0  0  0
    1.7344    1.9292    0.1189 C   0  0  0  0  0  0  0  0  0  0  0  0
    1.9377    1.2639   -1.1328 O   0  0  0  0  0  0  0  0  0  0  0  0
    1.9146   -0.1547   -0.8749 C   0  0  0  0  0  0  0  0  0  0  0  0
    0.6065   -0.7860   -1.4092 C   0  0  0  0  0  0  0  0  0  0  0  0
   -0.5734   -0.4004   -0.6489 N   0  0  0  0  0  0  0  0  0  0  0  0
   -1.4699    0.5420   -1.0905 C   0  0  0  0  0  0  0  0  0  0  0  0
   -1.5008    1.0541   -2.2006 O   0  0  0  0  0  0  0  0  0  0  0  0
   -2.5063    0.9588   -0.0220 C   0  0  0  0  0  0  0  0  0  0  0  0
   -2.4168    0.5321    1.1205 O   0  0  0  0  0  0  0  0  0  0  0  0
   -3.4646    1.8196   -0.4983 N   0  0  0  0  0  0  0  0  0  0  0  0
   -4.5988    2.2305    0.2860 C   0  0  0  0  0  0  0  0  0  0  0  0
   -5.8339    1.4682   -0.1198 C   0  0  0  0  0  0  0  0  0  0  0  0
   -6.7103    1.9933   -1.0984 C   0  0  0  0  0  0  0  0  0  0  0  0
   -7.8499    1.2866   -1.4974 C   0  0  0  0  0  0  0  0  0  0  0  0
   -8.0830    0.0618   -0.9109 C   0  0  0  0  0  0  0  0  0  0  0  0
   -7.2324   -0.4626    0.0334 C   0  0  0  0  0  0  0  0  0  0  0  0
   -6.1015    0.2100    0.4469 C   0  0  0  0  0  0  0  0  0  0  0  0
   -7.6409   -1.6805    0.4802 O   0  0  0  0  0  0  0  0  0  0  0  0
   -8.8413   -1.8659   -0.2976 C   0  0  0  0  0  0  0  0  0  0  0  0
   -9.1345   -0.7589   -1.1759 O   0  0  0  0  0  0  0  0  0  0  0  0
    5.3445   -0.8730    1.7250 C   0  0  0  0  0  0  0  0  0  0  0  0
    6.7081   -0.7487    1.4387 C   0  0  0  0  0  0  0  0  0  0  0  0
    9.2121    0.4504    0.9239 H   0  0  0  0  0  0  0  0  0  0  0  0
    9.5030   -1.1624    1.6841 H   0  0  0  0  0  0  0  0  0  0  0  0
   10.4451   -0.6414    0.2815 H   0  0  0  0  0  0  0  0  0  0  0  0
    6.7675   -2.2974   -1.5852 H   0  0  0  0  0  0  0  0  0  0  0  0
    4.3606   -2.5435   -1.0865 H   0  0  0  0  0  0  0  0  0  0  0  0
    3.4204    1.1597    1.1893 H   0  0  0  0  0  0  0  0  0  0  0  0
    1.9023    1.1460    2.1358 H   0  0  0  0  0  0  0  0  0  0  0  0
    0.6593    2.0643    0.2759 H   0  0  0  0  0  0  0  0  0  0  0  0
    2.2128    2.9122    0.1021 H   0  0  0  0  0  0  0  0  0  0  0  0
    2.7692   -0.5752   -1.4099 H   0  0  0  0  0  0  0  0  0  0  0  0
    0.4646   -0.5008   -2.4568 H   0  0  0  0  0  0  0  0  0  0  0  0
    0.6604   -1.8768   -1.3533 H   0  0  0  0  0  0  0  0  0  0  0  0
   -0.6192   -0.6535    0.3353 H   0  0  0  0  0  0  0  0  0  0  0  0
   -3.4387    2.0180   -1.4947 H   0  0  0  0  0  0  0  0  0  0  0  0
   -4.7416    3.3039    0.1205 H   0  0  0  0  0  0  0  0  0  0  0  0
   -4.4007    2.0910    1.3548 H   0  0  0  0  0  0  0  0  0  0  0  0
   -6.5040    2.9605   -1.5537 H   0  0  0  0  0  0  0  0  0  0  0  0
   -8.5269    1.6847   -2.2451 H   0  0  0  0  0  0  0  0  0  0  0  0
   -5.4397   -0.2292    1.1881 H   0  0  0  0  0  0  0  0  0  0  0  0
   -9.6859   -2.0026    0.3873 H   0  0  0  0  0  0  0  0  0  0  0  0
   -8.7302   -2.7730   -0.9026 H   0  0  0  0  0  0  0  0  0  0  0  0
    4.9602   -0.4963    2.6709 H   0  0  0  0  0  0  0  0  0  0  0  0
    7.3418   -0.2626    2.1737 H   0  0  0  0  0  0  0  0  0  0  0  0
  1  2  1  0
  2  3  1  0
  3  4  2  0
  4  5  1  0
  5  6  2  0
  6  7  1  0
  7  8  2  0
  7  9  2  0
  7 10  1  0
 10 11  1  0
 11 12  1  0
 12 13  1  0
 13 14  1  0
 14 15  1  0
 15 16  1  0
 16 17  1  0
 17 18  2  0
 17 19  1  0
 19 20  2  0
 19 21  1  0
 21 22  1  0
 22 23  1  0
 23 24  2  0
 24 25  1  0
 25 26  2  0
 26 27  1  0
 27 28  2  0
 27 29  1  0
 29 30  1  0
 30 31  1  0
  6 32  1  0
 32 33  2  0
 33  3  1  0
 14 10  1  0
 28 23  1  0
 31 26  1  0
  1 34  1  0
  1 35  1  0
  1 36  1  0
  4 37  1  0
  5 38  1  0
 11 39  1  0
 11 40  1  0
 12 41  1  0
 12 42  1  0
 14 43  1  0
 15 44  1  0
 15 45  1  0
 16 46  1  0
 21 47  1  0
 22 48  1  0
 22 49  1  0
 24 50  1  0
 25 51  1  0
 28 52  1  0
 30 53  1  0
 30 54  1  0
 32 55  1  0
 33 56  1  0
M  END
$$$$
