
     RDKit          3D

 56 59  0  0  0  0  0  0  0  0999 V2000
   -4.7219    2.5297    1.9055 C   0  0  0  0  0  0  0  0  0  0  0  0
   -5.2013    3.3217    0.7011 C   0  0  0  0  0  0  0  0  0  0  0  0
   -3.8896    3.5023   -0.5564 S   0  0  0  0  0  0  0  0  0  0  0  0
   -3.8093    1.8340   -1.1849 C   0  0  0  0  0  0  0  0  0  0  0  0
   -4.8935    1.2527   -1.8263 C   0  0  0  0  0  0  0  0  0  0  0  0
   -4.7887   -0.0523   -2.2963 C   0  0  0  0  0  0  0  0  0  0  0  0
   -3.5986   -0.7893   -2.1405 C   0  0  0  0  0  0  0  0  0  0  0  0
   -2.4694   -0.2213   -1.5182 C   0  0  0  0  0  0  0  0  0  0  0  0
   -2.6177    1.1056   -1.0487 C   0  0  0  0  0  0  0  0  0  0  0  0
   -1.2581   -0.9564   -1.3483 N   0  0  0  0  0  0  0  0  0  0  0  0
   -0.0380   -0.1792   -1.0116 C   0  0  0  0  0  0  0  0  0  0  0  0
    0.1608   -0.0748    0.5086 C   0  0  0  0  0  0  0  0  0  0  0  0
    1.2210    0.9685    0.8830 C   0  0  0  0  0  0  0  0  0  0  0  0
    2.5526    0.6925    0.3252 N   0  0  0  0  0  0  0  0  0  0  0  0
    3.4665    1.8437    0.5081 C   0  0  0  0  0  0  0  0  0  0  0  0
    4.4194    1.7293    1.7197 C   0  0  0  0  0  0  0  0  0  0  0  0
    5.2603    0.5158    1.7259 N   0  0  0  0  0  0  0  0  0  0  0  0
    6.6357    0.8023    1.3281 C   0  0  0  0  0  0  0  0  0  0  0  0
    4.6854   -0.5436    0.8728 C   0  0  0  0  0  0  0  0  0  0  0  0
    3.1416   -0.5409    0.8995 C   0  0  0  0  0  0  0  0  0  0  0  0
   -1.0992   -2.3523   -1.5869 C   0  0  0  0  0  0  0  0  0  0  0  0
    0.0586   -3.0583   -1.1887 C   0  0  0  0  0  0  0  0  0  0  0  0
    0.2199   -4.4326   -1.4056 C   0  0  0  0  0  0  0  0  0  0  0  0
   -0.7806   -5.1561   -2.0305 C   0  0  0  0  0  0  0  0  0  0  0  0
   -1.9376   -4.4997   -2.4320 C   0  0  0  0  0  0  0  0  0  0  0  0
   -2.1044   -3.1170   -2.2132 C   0  0  0  0  0  0  0  0  0  0  0  0
   -3.6306   -2.4326   -2.8127 S   0  0  0  0  0  0  0  0  0  0  0  0
   -3.8430    2.9929    2.3666 H   0  0  0  0  0  0  0  0  0  0  0  0
   -5.5120    2.4936    2.6630 H   0  0  0  0  0  0  0  0  0  0  0  0
   -4.4738    1.4966    1.6426 H   0  0  0  0  0  0  0  0  0  0  0  0
   -6.0918    2.8606    0.2633 H   0  0  0  0  0  0  0  0  0  0  0  0
   -5.4847    4.3291    1.0232 H   0  0  0  0  0  0  0  0  0  0  0  0
   -5.8199    1.8006   -1.9734 H   0  0  0  0  0  0  0  0  0  0  0  0
   -5.6476   -0.4975   -2.7956 H   0  0  0  0  0  0  0  0  0  0  0  0
   -1.8038    1.6079   -0.5366 H   0  0  0  0  0  0  0  0  0  0  0  0
    0.8504   -0.6106   -1.4897 H   0  0  0  0  0  0  0  0  0  0  0  0
   -0.0808    0.8196   -1.4652 H   0  0  0  0  0  0  0  0  0  0  0  0
    0.4174   -1.0505    0.9346 H   0  0  0  0  0  0  0  0  0  0  0  0
   -0.7791    0.2111    0.9958 H   0  0  0  0  0  0  0  0  0  0  0  0
    1.2705    1.0599    1.9758 H   0  0  0  0  0  0  0  0  0  0  0  0
    0.8641    1.9367    0.5076 H   0  0  0  0  0  0  0  0  0  0  0  0
    4.0758    1.9234   -0.4020 H   0  0  0  0  0  0  0  0  0  0  0  0
    2.9135    2.7893    0.5666 H   0  0  0  0  0  0  0  0  0  0  0  0
    3.8122    1.7111    2.6340 H   0  0  0  0  0  0  0  0  0  0  0  0
    5.0290    2.6389    1.7907 H   0  0  0  0  0  0  0  0  0  0  0  0
    6.6954    1.2209    0.3170 H   0  0  0  0  0  0  0  0  0  0  0  0
    7.0958    1.5130    2.0235 H   0  0  0  0  0  0  0  0  0  0  0  0
    7.2443   -0.1083    1.3624 H   0  0  0  0  0  0  0  0  0  0  0  0
    5.0481   -1.5157    1.2269 H   0  0  0  0  0  0  0  0  0  0  0  0
    5.0150   -0.4376   -0.1701 H   0  0  0  0  0  0  0  0  0  0  0  0
    2.8187   -0.6861    1.9395 H   0  0  0  0  0  0  0  0  0  0  0  0
    2.7817   -1.4019    0.3261 H   0  0  0  0  0  0  0  0  0  0  0  0
    0.8767   -2.5626   -0.6788 H   0  0  0  0  0  0  0  0  0  0  0  0
    1.1300   -4.9293   -1.0793 H   0  0  0  0  0  0  0  0  0  0  0  0
   -0.6658   -6.2220   -2.2046 H   0  0  0  0  0  0  0  0  0  0  0  0
   -2.7197   -5.0746   -2.9243 H   0  0  0  0  0  0  0  0  0  0  0  0
  1  2  1  0
  2  3  1  0
  3  4  1  0
  4  5  2  0
  5  6  1  0
  6  7  2  0
  7  8  1  0
  8  9  2  0
  8 10  1  0
 10 11  1  0
 11 12  1  0
 12 13  1  0
 13 14  1  0
 14 15  1  0
 15 16  1  0
 16 17  1  0
 17 18  1  0
 17 19  1  0
 19 20  1  0
 10 21  1  0
 21 22  2  0
 22 23  1  0
 23 24  2  0
 24 25  1  0
 25 26  2  0
 26 27  1  0
  9  4  1  0
 20 14  1  0
 26 21  1  0
 27  7  1  0
  1 28  1  0
  1 29  1  0
  1 30  1  0
  2 31  1  0
  2 32  1  0
  5 33  1  0
  6 34  1  0
  9 35  1  0
 11 36  1  0
 11 37  1  0
 12 38  1  0
 12 39  1  0
 13 40  1  0
 13 41  1  0
 15 42  1  0
 15 43  1  0
 16 44  1  0
 16 45  1  0
 18 46  1  0
 18 47  1  0
 18 48  1  0
 19 49  1  0
 19 50  1  0
 20 51  1  0
 20 52  1  0
 22 53  1  0
 23 54  1  0
 24 55  1  0
 25 56  1  0
M  END
$$$$
