
     RDKit          3D

 36 37  0  0  0  0  0  0  0  0999 V2000
    0.7289   -1.2705   -2.1403 O   0  0  0  0  0  0  0  0  0  0  0  0
    0.1216   -1.8229   -1.2255 C   0  0  0  0  0  0  0  0  0  0  0  0
    0.8134   -2.2699    0.0655 C   0  0  0  0  0  0  0  0  0  0  0  0
    1.8817   -1.3963    0.4455 O   0  0  0  0  0  0  0  0  0  0  0  0
    1.5061   -0.1150    0.6874 C   0  0  0  0  0  0  0  0  0  0  0  0
    0.3586    0.3099    0.6795 O   0  0  0  0  0  0  0  0  0  0  0  0
    2.6918    0.7331    0.9806 C   0  0  0  0  0  0  0  0  0  0  0  0
    3.9987    0.2285    0.9419 C   0  0  0  0  0  0  0  0  0  0  0  0
    5.0754    1.0716    1.2195 C   0  0  0  0  0  0  0  0  0  0  0  0
    6.6790    0.4482    1.1737 Cl  0  0  0  0  0  0  0  0  0  0  0  0
    4.8681    2.4117    1.5350 C   0  0  0  0  0  0  0  0  0  0  0  0
    3.5678    2.9094    1.5707 C   0  0  0  0  0  0  0  0  0  0  0  0
    3.3013    4.5649    1.9579 Cl  0  0  0  0  0  0  0  0  0  0  0  0
    2.4793    2.0811    1.2957 C   0  0  0  0  0  0  0  0  0  0  0  0
   -1.2436   -2.0399   -1.2512 N   0  0  0  0  0  0  0  0  0  0  0  0
   -2.0597   -1.3391   -2.2313 C   0  0  0  0  0  0  0  0  0  0  0  0
   -2.3463    0.1080   -1.7979 C   0  0  0  0  0  0  0  0  0  0  0  0
   -3.4096    0.1898   -0.8063 N   0  0  0  0  0  0  0  0  0  0  0  0
   -3.2913   -0.1197    0.5282 C   0  0  0  0  0  0  0  0  0  0  0  0
   -2.0983   -0.4662    1.0829 O   0  0  0  0  0  0  0  0  0  0  0  0
   -4.4436   -0.1267    1.2047 C   0  0  0  0  0  0  0  0  0  0  0  0
   -5.7852    0.2691    0.1817 S   0  0  0  0  0  0  0  0  0  0  0  0
   -4.7203    0.4019   -1.2263 C   0  0  0  0  0  0  0  0  0  0  0  0
   -5.1188    0.6170   -2.3598 O   0  0  0  0  0  0  0  0  0  0  0  0
    0.1043   -2.3569    0.8966 H   0  0  0  0  0  0  0  0  0  0  0  0
    1.2423   -3.2611   -0.1166 H   0  0  0  0  0  0  0  0  0  0  0  0
    4.1870   -0.8125    0.6927 H   0  0  0  0  0  0  0  0  0  0  0  0
    5.7112    3.0646    1.7497 H   0  0  0  0  0  0  0  0  0  0  0  0
    1.4697    2.4864    1.3245 H   0  0  0  0  0  0  0  0  0  0  0  0
   -1.7013   -2.2595   -0.3712 H   0  0  0  0  0  0  0  0  0  0  0  0
   -1.5277   -1.3333   -3.1892 H   0  0  0  0  0  0  0  0  0  0  0  0
   -2.9861   -1.9092   -2.3541 H   0  0  0  0  0  0  0  0  0  0  0  0
   -2.6629    0.6714   -2.6832 H   0  0  0  0  0  0  0  0  0  0  0  0
   -1.4536    0.6079   -1.4099 H   0  0  0  0  0  0  0  0  0  0  0  0
   -1.3879    0.0923    0.6967 H   0  0  0  0  0  0  0  0  0  0  0  0
   -4.5498   -0.3680    2.2521 H   0  0  0  0  0  0  0  0  0  0  0  0
  1  2  2  0
  2  3  1  0
  3  4  1  0
  4  5  1  0
  5  6  2  0
  5  7  1  0
  7  8  2  0
  8  9  1  0
  9 10  1  0
  9 11  2  0
 11 12  1  0
 12 13  1  0
 12 14  2  0
  2 15  1  0
 15 16  1  0
 16 17  1  0
 17 18  1  0
 18 19  1  0
 19 20  1  0
 19 21  2  0
 21 22  1  0
 22 23  1  0
 23 24  2  0
 14  7  1  0
 23 18  1  0
  3 25  1  0
  3 26  1  0
  8 27  1  0
 11 28  1  0
 14 29  1  0
 15 30  1  0
 16 31  1  0
 16 32  1  0
 17 33  1  0
 17 34  1  0
 20 35  1  0
 21 36  1  0
M  END
$$$$
