
     RDKit          3D

 40 42  0  0  0  0  0  0  0  0999 V2000
   -1.3431    4.0570    2.8698 C   0  0  0  0  0  0  0  0  0  0  0  0
   -2.2165    3.1420    3.5169 O   0  0  0  0  0  0  0  0  0  0  0  0
   -2.2093    1.8478    3.0703 C   0  0  0  0  0  0  0  0  0  0  0  0
   -3.0686    0.9962    3.7616 C   0  0  0  0  0  0  0  0  0  0  0  0
   -3.1791   -0.3577    3.4326 C   0  0  0  0  0  0  0  0  0  0  0  0
   -2.3947   -0.8420    2.3764 C   0  0  0  0  0  0  0  0  0  0  0  0
   -1.5231   -0.0180    1.6572 C   0  0  0  0  0  0  0  0  0  0  0  0
   -1.4340    1.3495    2.0170 C   0  0  0  0  0  0  0  0  0  0  0  0
   -0.8932   -0.8350    0.6636 C   0  0  0  0  0  0  0  0  0  0  0  0
    0.0683   -0.4059   -0.3061 C   0  0  0  0  0  0  0  0  0  0  0  0
    0.7494   -1.2036   -1.1472 C   0  0  0  0  0  0  0  0  0  0  0  0
    1.7277   -0.7111   -2.1224 C   0  0  0  0  0  0  0  0  0  0  0  0
    2.9265   -1.4003   -2.2917 C   0  0  0  0  0  0  0  0  0  0  0  0
    3.8491   -0.9570   -3.2324 C   0  0  0  0  0  0  0  0  0  0  0  0
    3.5909    0.1313   -3.9914 N   0  0  0  0  0  4  0  0  0  0  0  0
    4.5842    0.5679   -4.9875 C   0  0  0  0  0  0  0  0  0  0  0  0
    2.4245    0.8016   -3.8621 C   0  0  0  0  0  0  0  0  0  0  0  0
    1.4745    0.3960   -2.9312 C   0  0  0  0  0  0  0  0  0  0  0  0
   -1.3917   -2.1128    0.8040 C   0  0  0  0  0  0  0  0  0  0  0  0
   -2.2928   -2.1063    1.8374 N   0  0  0  0  0  0  0  0  0  0  0  0
   -3.0341   -3.2624    2.2934 C   0  0  0  0  0  0  0  0  0  0  0  0
   -1.4652    5.0331    3.3494 H   0  0  0  0  0  0  0  0  0  0  0  0
   -1.6042    4.1706    1.8124 H   0  0  0  0  0  0  0  0  0  0  0  0
   -0.2969    3.7557    2.9886 H   0  0  0  0  0  0  0  0  0  0  0  0
   -3.6680    1.3927    4.5790 H   0  0  0  0  0  0  0  0  0  0  0  0
   -3.8542   -1.0025    3.9862 H   0  0  0  0  0  0  0  0  0  0  0  0
   -0.7580    1.9881    1.4639 H   0  0  0  0  0  0  0  0  0  0  0  0
    0.2561    0.6649   -0.3336 H   0  0  0  0  0  0  0  0  0  0  0  0
    0.6108   -2.2819   -1.1161 H   0  0  0  0  0  0  0  0  0  0  0  0
    3.1528   -2.2787   -1.6889 H   0  0  0  0  0  0  0  0  0  0  0  0
    4.7954   -1.4673   -3.3882 H   0  0  0  0  0  0  0  0  0  0  0  0
    4.4000    1.6116   -5.2565 H   0  0  0  0  0  0  0  0  0  0  0  0
    4.4792   -0.0806   -5.8617 H   0  0  0  0  0  0  0  0  0  0  0  0
    5.5817    0.4764   -4.5481 H   0  0  0  0  0  0  0  0  0  0  0  0
    2.2560    1.6572   -4.5105 H   0  0  0  0  0  0  0  0  0  0  0  0
    0.5353    0.9409   -2.8538 H   0  0  0  0  0  0  0  0  0  0  0  0
   -1.1925   -3.0258    0.2594 H   0  0  0  0  0  0  0  0  0  0  0  0
   -2.7601   -4.1337    1.6927 H   0  0  0  0  0  0  0  0  0  0  0  0
   -4.1012   -3.0553    2.1793 H   0  0  0  0  0  0  0  0  0  0  0  0
   -2.7819   -3.4428    3.3417 H   0  0  0  0  0  0  0  0  0  0  0  0
  1  2  1  0
  2  3  1  0
  3  4  2  0
  4  5  1  0
  5  6  2  0
  6  7  1  0
  7  8  2  0
  7  9  1  0
  9 10  1  0
 10 11  2  3
 11 12  1  0
 12 13  2  0
 13 14  1  0
 14 15  2  0
 15 16  1  0
 15 17  1  0
 17 18  2  0
  9 19  2  0
 19 20  1  0
 20 21  1  0
  8  3  1  0
 18 12  1  0
 20  6  1  0
  1 22  1  0
  1 23  1  0
  1 24  1  0
  4 25  1  0
  5 26  1  0
  8 27  1  0
 10 28  1  0
 11 29  1  0
 13 30  1  0
 14 31  1  0
 16 32  1  0
 16 33  1  0
 16 34  1  0
 17 35  1  0
 18 36  1  0
 19 37  1  0
 21 38  1  0
 21 39  1  0
 21 40  1  0
M  CHG  1  15   1
M  END
$$$$
