
     RDKit          3D

 31 31  0  0  0  0  0  0  0  0999 V2000
    4.9016    1.1425    1.5285 C   0  0  0  0  0  0  0  0  0  0  0  0
    3.5830    1.6591    1.4439 O   0  0  0  0  0  0  0  0  0  0  0  0
    2.6346    0.6231    1.1835 C   0  0  0  0  0  0  0  0  0  0  0  0
    1.3596    1.2005    0.8990 O   0  0  0  0  0  0  0  0  0  0  0  0
    0.3501    0.2780    0.9822 C   0  0  0  0  0  0  0  0  0  0  0  0
   -0.6019    0.0903    0.0538 C   0  0  0  0  0  0  0  0  0  0  0  0
   -0.6425    0.6632   -1.1999 N   0  0  0  0  0  0  0  0  0  0  0  0
    0.4336    1.0313   -1.9878 C   0  0  0  0  0  0  0  0  0  0  0  0
    0.0116    1.7947   -3.2175 C   0  0  0  0  0  0  0  0  0  0  0  0
    1.6082    0.7260   -1.8090 O   0  0  0  0  0  0  0  0  0  0  0  0
   -1.7574   -0.7565    0.4071 C   0  0  0  0  0  0  0  0  0  0  0  0
   -2.6902   -0.3365    1.3650 C   0  0  0  0  0  0  0  0  0  0  0  0
   -3.7871   -1.1408    1.6806 C   0  0  0  0  0  0  0  0  0  0  0  0
   -3.9601   -2.3675    1.0408 C   0  0  0  0  0  0  0  0  0  0  0  0
   -3.0386   -2.7925    0.0846 C   0  0  0  0  0  0  0  0  0  0  0  0
   -1.9414   -1.9897   -0.2331 C   0  0  0  0  0  0  0  0  0  0  0  0
    5.2013    0.6957    0.5756 H   0  0  0  0  0  0  0  0  0  0  0  0
    4.9743    0.4022    2.3312 H   0  0  0  0  0  0  0  0  0  0  0  0
    5.5818    1.9684    1.7536 H   0  0  0  0  0  0  0  0  0  0  0  0
    2.5820   -0.0162    2.0743 H   0  0  0  0  0  0  0  0  0  0  0  0
    2.9578    0.0265    0.3224 H   0  0  0  0  0  0  0  0  0  0  0  0
    0.3232   -0.2035    1.9535 H   0  0  0  0  0  0  0  0  0  0  0  0
   -1.5369    0.6093   -1.6733 H   0  0  0  0  0  0  0  0  0  0  0  0
    0.7793    2.5339   -3.4632 H   0  0  0  0  0  0  0  0  0  0  0  0
   -0.1093    1.0976   -4.0506 H   0  0  0  0  0  0  0  0  0  0  0  0
   -0.9296    2.3264   -3.0501 H   0  0  0  0  0  0  0  0  0  0  0  0
   -2.5693    0.6216    1.8665 H   0  0  0  0  0  0  0  0  0  0  0  0
   -4.5065   -0.8095    2.4253 H   0  0  0  0  0  0  0  0  0  0  0  0
   -4.8138   -2.9936    1.2886 H   0  0  0  0  0  0  0  0  0  0  0  0
   -3.1727   -3.7503   -0.4117 H   0  0  0  0  0  0  0  0  0  0  0  0
   -1.2247   -2.3338   -0.9762 H   0  0  0  0  0  0  0  0  0  0  0  0
  1  2  1  0
  2  3  1  0
  3  4  1  0
  4  5  1  0
  5  6  2  3
  6  7  1  0
  7  8  1  0
  8  9  1  0
  8 10  2  0
  6 11  1  0
 11 12  2  0
 12 13  1  0
 13 14  2  0
 14 15  1  0
 15 16  2  0
 16 11  1  0
  1 17  1  0
  1 18  1  0
  1 19  1  0
  3 20  1  0
  3 21  1  0
  5 22  1  0
  7 23  1  0
  9 24  1  0
  9 25  1  0
  9 26  1  0
 12 27  1  0
 13 28  1  0
 14 29  1  0
 15 30  1  0
 16 31  1  0
M  END
$$$$
