
     RDKit          3D

 50 51  0  0  0  0  0  0  0  0999 V2000
   -4.6529   -4.3978   -0.3411 C   0  0  0  0  0  0  0  0  0  0  0  0
   -4.9174   -3.1592    0.3029 O   0  0  0  0  0  0  0  0  0  0  0  0
   -3.8856   -2.2594    0.3997 C   0  0  0  0  0  0  0  0  0  0  0  0
   -2.5863   -2.4940   -0.0616 C   0  0  0  0  0  0  0  0  0  0  0  0
   -1.5975   -1.5178    0.0830 C   0  0  0  0  0  0  0  0  0  0  0  0
   -1.8973   -0.3071    0.7017 C   0  0  0  0  0  0  0  0  0  0  0  0
   -0.9292    0.7459    0.8461 N   0  0  0  0  0  0  0  0  0  0  0  0
   -0.6268    1.5193   -0.3885 C   0  0  0  0  0  0  0  0  0  0  0  0
    0.4467    0.9263   -1.2936 C   0  0  0  0  0  0  0  0  0  0  0  0
    0.1354    0.1637   -2.2056 O   0  0  0  0  0  0  0  0  0  0  0  0
    1.7331    1.3397   -0.9738 N   0  0  0  0  0  0  0  0  0  0  0  0
    2.9350    1.0555   -1.6718 C   0  0  0  0  0  0  0  0  0  0  0  0
    2.9247    0.4463   -2.9384 C   0  0  0  0  0  0  0  0  0  0  0  0
    4.1058    0.1893   -3.6402 C   0  0  0  0  0  0  0  0  0  0  0  0
    5.3261    0.5549   -3.0942 C   0  0  0  0  0  0  0  0  0  0  0  0
    5.3465    1.1720   -1.8383 C   0  0  0  0  0  0  0  0  0  0  0  0
    6.6522    1.5721   -1.3416 N   0  0  0  0  0  4  0  0  0  0  0  0
    7.4666    0.6697   -1.1073 O   0  0  0  0  0  0  0  0  0  0  0  0
    6.8596    2.7862   -1.2133 O   0  0  0  0  0  1  0  0  0  0  0  0
    4.1737    1.4223   -1.0905 C   0  0  0  0  0  0  0  0  0  0  0  0
    4.2300    2.0317    0.2886 C   0  0  0  0  0  0  0  0  0  0  0  0
    0.3917    0.4554    1.8697 S   0  0  0  0  0  6  0  0  0  0  0  0
   -0.3864    0.3671    3.4702 C   0  0  0  0  0  0  0  0  0  0  0  0
    1.2023    1.6603    1.8343 O   0  0  0  0  0  0  0  0  0  0  0  0
    0.9883   -0.8228    1.5568 O   0  0  0  0  0  0  0  0  0  0  0  0
   -3.1974   -0.0534    1.1465 C   0  0  0  0  0  0  0  0  0  0  0  0
   -4.1948   -1.0250    1.0074 C   0  0  0  0  0  0  0  0  0  0  0  0
   -5.4933   -0.8683    1.4264 O   0  0  0  0  0  0  0  0  0  0  0  0
   -5.8554    0.3708    2.0183 C   0  0  0  0  0  0  0  0  0  0  0  0
   -4.3510   -4.2457   -1.3829 H   0  0  0  0  0  0  0  0  0  0  0  0
   -5.5814   -4.9767   -0.3460 H   0  0  0  0  0  0  0  0  0  0  0  0
   -3.9034   -4.9762    0.2093 H   0  0  0  0  0  0  0  0  0  0  0  0
   -2.3068   -3.4250   -0.5440 H   0  0  0  0  0  0  0  0  0  0  0  0
   -0.5992   -1.7215   -0.2983 H   0  0  0  0  0  0  0  0  0  0  0  0
   -0.3456    2.5420   -0.1073 H   0  0  0  0  0  0  0  0  0  0  0  0
   -1.5388    1.6364   -0.9885 H   0  0  0  0  0  0  0  0  0  0  0  0
    1.8297    1.8135   -0.0767 H   0  0  0  0  0  0  0  0  0  0  0  0
    1.9964    0.1583   -3.4241 H   0  0  0  0  0  0  0  0  0  0  0  0
    4.0609   -0.2891   -4.6160 H   0  0  0  0  0  0  0  0  0  0  0  0
    6.2454    0.3651   -3.6436 H   0  0  0  0  0  0  0  0  0  0  0  0
    3.7408    3.0112    0.2883 H   0  0  0  0  0  0  0  0  0  0  0  0
    5.2454    2.1706    0.6671 H   0  0  0  0  0  0  0  0  0  0  0  0
    3.7358    1.3696    1.0068 H   0  0  0  0  0  0  0  0  0  0  0  0
   -1.0233   -0.5173    3.5148 H   0  0  0  0  0  0  0  0  0  0  0  0
    0.4033    0.2881    4.2205 H   0  0  0  0  0  0  0  0  0  0  0  0
   -0.9619    1.2793    3.6351 H   0  0  0  0  0  0  0  0  0  0  0  0
   -3.4071    0.9091    1.5993 H   0  0  0  0  0  0  0  0  0  0  0  0
   -5.2942    0.5457    2.9420 H   0  0  0  0  0  0  0  0  0  0  0  0
   -6.9170    0.3200    2.2791 H   0  0  0  0  0  0  0  0  0  0  0  0
   -5.7253    1.1988    1.3133 H   0  0  0  0  0  0  0  0  0  0  0  0
  1  2  1  0
  2  3  1  0
  3  4  2  0
  4  5  1  0
  5  6  2  0
  6  7  1  0
  7  8  1  0
  8  9  1  0
  9 10  2  0
  9 11  1  0
 11 12  1  0
 12 13  2  0
 13 14  1  0
 14 15  2  0
 15 16  1  0
 16 17  1  0
 17 18  2  0
 17 19  1  0
 16 20  2  0
 20 21  1  0
  7 22  1  0
 22 23  1  0
 22 24  2  0
 22 25  2  0
  6 26  1  0
 26 27  2  0
 27 28  1  0
 28 29  1  0
 27  3  1  0
 20 12  1  0
  1 30  1  0
  1 31  1  0
  1 32  1  0
  4 33  1  0
  5 34  1  0
  8 35  1  0
  8 36  1  0
 11 37  1  0
 13 38  1  0
 14 39  1  0
 15 40  1  0
 21 41  1  0
 21 42  1  0
 21 43  1  0
 23 44  1  0
 23 45  1  0
 23 46  1  0
 26 47  1  0
 29 48  1  0
 29 49  1  0
 29 50  1  0
M  CHG  2  17   1  19  -1
M  END
$$$$
