
     RDKit          3D

 55 57  0  0  0  0  0  0  0  0999 V2000
   -4.3342   -2.2371   -2.0230 C   0  0  0  0  0  0  0  0  0  0  0  0
   -3.6504   -1.3573   -1.1385 O   0  0  0  0  0  0  0  0  0  0  0  0
   -4.4184   -0.5572   -0.3264 C   0  0  0  0  0  0  0  0  0  0  0  0
   -5.8167   -0.5583   -0.3016 C   0  0  0  0  0  0  0  0  0  0  0  0
   -6.5165    0.2943    0.5657 C   0  0  0  0  0  0  0  0  0  0  0  0
   -8.0099    0.2507    0.5491 C   0  0  0  0  0  0  0  0  0  0  0  0
   -8.7795    1.1499    1.4808 C   0  0  0  0  0  0  0  0  0  0  0  0
   -8.5890   -0.5136   -0.2203 O   0  0  0  0  0  0  0  0  0  0  0  0
   -5.8057    1.1521    1.4099 C   0  0  0  0  0  0  0  0  0  0  0  0
   -4.4069    1.1589    1.3908 C   0  0  0  0  0  0  0  0  0  0  0  0
   -3.7090    0.3074    0.5302 C   0  0  0  0  0  0  0  0  0  0  0  0
   -2.3440    0.2463    0.4350 O   0  0  0  0  0  0  0  0  0  0  0  0
   -1.5702    0.9793    1.3789 C   0  0  0  0  0  0  0  0  0  0  0  0
   -0.0828    0.6726    1.1823 C   0  0  0  0  0  0  0  0  0  0  0  0
    0.7766    1.3162    1.7782 O   0  0  0  0  0  0  0  0  0  0  0  0
    0.1403   -0.3641    0.2924 N   0  0  0  0  0  0  0  0  0  0  0  0
    1.3674   -0.9324   -0.0850 C   0  0  0  0  0  0  0  0  0  0  0  0
    1.3526   -1.8401   -1.1442 C   0  0  0  0  0  0  0  0  0  0  0  0
    2.5403   -2.4256   -1.5900 C   0  0  0  0  0  0  0  0  0  0  0  0
    3.7648   -2.1233   -0.9807 C   0  0  0  0  0  0  0  0  0  0  0  0
    5.1488   -2.8768   -1.6798 Cl  0  0  0  0  0  0  0  0  0  0  0  0
    3.7848   -1.2303    0.0914 C   0  0  0  0  0  0  0  0  0  0  0  0
    5.2584   -0.8240    1.0039 S   0  0  0  0  0  6  0  0  0  0  0  0
    6.2316   -1.8821    0.8531 O   0  0  0  0  0  0  0  0  0  0  0  0
    4.8412   -0.4254    2.3335 O   0  0  0  0  0  0  0  0  0  0  0  0
    5.8540    0.5621    0.2300 N   0  0  0  0  0  0  0  0  0  0  0  0
    6.4307    0.3942   -1.1314 C   0  0  0  0  0  0  0  0  0  0  0  0
    7.2102    1.6589   -1.5126 C   0  0  0  0  0  0  0  0  0  0  0  0
    6.3700    2.8228   -1.4531 O   0  0  0  0  0  0  0  0  0  0  0  0
    5.8683    3.0049   -0.1187 C   0  0  0  0  0  0  0  0  0  0  0  0
    5.0287    1.8007    0.3234 C   0  0  0  0  0  0  0  0  0  0  0  0
    2.5808   -0.6486    0.5414 C   0  0  0  0  0  0  0  0  0  0  0  0
   -3.5801   -2.7886   -2.5929 H   0  0  0  0  0  0  0  0  0  0  0  0
   -4.9486   -1.6798   -2.7377 H   0  0  0  0  0  0  0  0  0  0  0  0
   -4.9317   -2.9681   -1.4686 H   0  0  0  0  0  0  0  0  0  0  0  0
   -6.3897   -1.2160   -0.9492 H   0  0  0  0  0  0  0  0  0  0  0  0
   -9.8515    0.9780    1.3417 H   0  0  0  0  0  0  0  0  0  0  0  0
   -8.5722    2.1985    1.2522 H   0  0  0  0  0  0  0  0  0  0  0  0
   -8.5325    0.9195    2.5203 H   0  0  0  0  0  0  0  0  0  0  0  0
   -6.3126    1.8289    2.0922 H   0  0  0  0  0  0  0  0  0  0  0  0
   -3.8942    1.8460    2.0570 H   0  0  0  0  0  0  0  0  0  0  0  0
   -1.7075    2.0547    1.2212 H   0  0  0  0  0  0  0  0  0  0  0  0
   -1.8292    0.6882    2.4031 H   0  0  0  0  0  0  0  0  0  0  0  0
   -0.6992   -0.6942   -0.1832 H   0  0  0  0  0  0  0  0  0  0  0  0
    0.4222   -2.0950   -1.6475 H   0  0  0  0  0  0  0  0  0  0  0  0
    2.5014   -3.1206   -2.4273 H   0  0  0  0  0  0  0  0  0  0  0  0
    5.6180    0.2392   -1.8492 H   0  0  0  0  0  0  0  0  0  0  0  0
    7.1124   -0.4603   -1.1596 H   0  0  0  0  0  0  0  0  0  0  0  0
    8.0740    1.8069   -0.8536 H   0  0  0  0  0  0  0  0  0  0  0  0
    7.5821    1.5713   -2.5383 H   0  0  0  0  0  0  0  0  0  0  0  0
    5.2517    3.9091   -0.1175 H   0  0  0  0  0  0  0  0  0  0  0  0
    6.7121    3.1725    0.5613 H   0  0  0  0  0  0  0  0  0  0  0  0
    4.1597    1.7039   -0.3366 H   0  0  0  0  0  0  0  0  0  0  0  0
    4.6874    1.9632    1.3497 H   0  0  0  0  0  0  0  0  0  0  0  0
    2.6118    0.0204    1.3980 H   0  0  0  0  0  0  0  0  0  0  0  0
  1  2  1  0
  2  3  1  0
  3  4  2  0
  4  5  1  0
  5  6  1  0
  6  7  1  0
  6  8  2  0
  5  9  2  0
  9 10  1  0
 10 11  2  0
 11 12  1  0
 12 13  1  0
 13 14  1  0
 14 15  2  0
 14 16  1  0
 16 17  1  0
 17 18  2  0
 18 19  1  0
 19 20  2  0
 20 21  1  0
 20 22  1  0
 22 23  1  0
 23 24  2  0
 23 25  2  0
 23 26  1  0
 26 27  1  0
 27 28  1  0
 28 29  1  0
 29 30  1  0
 30 31  1  0
 22 32  2  0
 11  3  1  0
 32 17  1  0
 31 26  1  0
  1 33  1  0
  1 34  1  0
  1 35  1  0
  4 36  1  0
  7 37  1  0
  7 38  1  0
  7 39  1  0
  9 40  1  0
 10 41  1  0
 13 42  1  0
 13 43  1  0
 16 44  1  0
 18 45  1  0
 19 46  1  0
 27 47  1  0
 27 48  1  0
 28 49  1  0
 28 50  1  0
 30 51  1  0
 30 52  1  0
 31 53  1  0
 31 54  1  0
 32 55  1  0
M  END
$$$$
