
     RDKit          3D

 32 34  0  0  0  0  0  0  0  0999 V2000
    5.0242    0.0049   -0.9024 C   0  0  0  0  0  0  0  0  0  0  0  0
    4.4153   -0.4172    0.4213 C   0  0  0  0  0  0  0  0  0  0  0  0
    2.9939   -0.5557    0.2880 O   0  0  0  0  0  0  0  0  0  0  0  0
    2.2564    0.5584    0.4901 C   0  0  0  0  0  0  0  0  0  0  0  0
    2.7110    1.6770    0.7143 O   0  0  0  0  0  0  0  0  0  0  0  0
    0.8081    0.3098    0.3176 C   0  0  0  0  0  0  0  0  0  0  0  0
    0.0281    1.3713   -0.0159 C   0  0  0  0  0  0  0  0  0  0  0  0
    0.4716    2.6740   -0.1692 O   0  0  0  0  0  0  0  0  0  0  0  0
   -1.4089    1.1944   -0.2627 C   0  0  0  0  0  0  0  0  0  0  0  0
   -2.3305    2.1803   -0.6139 C   0  0  0  0  0  0  0  0  0  0  0  0
   -3.6881    1.8474   -0.8203 C   0  0  0  0  0  0  0  0  0  0  0  0
   -4.1465    0.5274   -0.6786 C   0  0  0  0  0  0  0  0  0  0  0  0
   -3.2306   -0.4441   -0.3289 C   0  0  0  0  0  0  0  0  0  0  0  0
   -1.9065   -0.0840   -0.1392 C   0  0  0  0  0  0  0  0  0  0  0  0
   -1.1287   -1.1699    0.2134 N   0  0  0  0  0  0  0  0  0  0  0  0
    0.2081   -1.0645    0.5021 C   0  0  0  0  0  0  0  0  0  0  0  0
    0.8585   -2.0232    0.9084 O   0  0  0  0  0  0  0  0  0  0  0  0
   -1.9785   -2.3558    0.3225 C   0  0  0  0  0  0  0  0  0  0  0  0
   -3.4009   -1.9161   -0.1082 C   0  0  0  0  0  0  0  0  0  0  0  0
    6.1139    0.0596   -0.8283 H   0  0  0  0  0  0  0  0  0  0  0  0
    4.7587   -0.7062   -1.6917 H   0  0  0  0  0  0  0  0  0  0  0  0
    4.6452    0.9831   -1.2149 H   0  0  0  0  0  0  0  0  0  0  0  0
    4.6733    0.2845    1.2228 H   0  0  0  0  0  0  0  0  0  0  0  0
    4.8073   -1.3973    0.7121 H   0  0  0  0  0  0  0  0  0  0  0  0
    1.4065    2.7310    0.1279 H   0  0  0  0  0  0  0  0  0  0  0  0
   -2.0093    3.2128   -0.7318 H   0  0  0  0  0  0  0  0  0  0  0  0
   -4.3905    2.6324   -1.0946 H   0  0  0  0  0  0  0  0  0  0  0  0
   -5.1923    0.2863   -0.8405 H   0  0  0  0  0  0  0  0  0  0  0  0
   -1.9591   -2.7084    1.3599 H   0  0  0  0  0  0  0  0  0  0  0  0
   -1.5791   -3.1496   -0.3178 H   0  0  0  0  0  0  0  0  0  0  0  0
   -4.1316   -2.1254    0.6785 H   0  0  0  0  0  0  0  0  0  0  0  0
   -3.6990   -2.4172   -1.0344 H   0  0  0  0  0  0  0  0  0  0  0  0
  1  2  1  0
  2  3  1  0
  3  4  1  0
  4  5  2  0
  4  6  1  0
  6  7  2  0
  7  8  1  0
  7  9  1  0
  9 10  2  0
 10 11  1  0
 11 12  2  0
 12 13  1  0
 13 14  2  0
 14 15  1  0
 15 16  1  0
 16 17  2  0
 15 18  1  0
 18 19  1  0
 16  6  1  0
 14  9  1  0
 19 13  1  0
  1 20  1  0
  1 21  1  0
  1 22  1  0
  2 23  1  0
  2 24  1  0
  8 25  1  0
 10 26  1  0
 11 27  1  0
 12 28  1  0
 18 29  1  0
 18 30  1  0
 19 31  1  0
 19 32  1  0
M  END
$$$$
