
     RDKit          3D

 56 61  0  0  0  0  0  0  0  0999 V2000
    6.7571    2.9504   -1.5362 C   0  0  0  0  0  0  0  0  0  0  0  0
    5.5996    2.0253   -1.2973 C   0  0  0  0  0  0  0  0  0  0  0  0
    5.7547    0.8845   -0.5034 C   0  0  0  0  0  0  0  0  0  0  0  0
    4.6700    0.0380   -0.2505 C   0  0  0  0  0  0  0  0  0  0  0  0
    3.4134    0.3296   -0.7822 C   0  0  0  0  0  0  0  0  0  0  0  0
    2.1828   -0.6058   -0.5008 C   0  0  0  0  0  0  0  0  0  0  0  0
    0.8758   -0.3967   -0.9263 C   0  0  0  0  0  0  0  0  0  0  0  0
    0.0716   -1.4285   -0.4424 N   0  0  0  0  0  4  0  0  0  0  0  0
   -1.3874   -1.5534   -0.5959 C   0  0  0  0  0  0  0  0  0  0  0  0
   -2.0905   -1.0713    0.6873 C   0  0  0  0  0  0  0  0  0  0  0  0
   -1.7291   -1.5238    1.7745 O   0  0  0  0  0  0  0  0  0  0  0  0
   -3.0205   -0.0437    0.4739 N   0  0  0  0  0  0  0  0  0  0  0  0
   -4.0703   -0.2209   -0.4995 C   0  0  0  0  0  0  0  0  0  0  0  0
   -4.4910   -1.5303   -0.8238 C   0  0  0  0  0  0  0  0  0  0  0  0
   -5.5014   -1.7640   -1.7620 C   0  0  0  0  0  0  0  0  0  0  0  0
   -6.1244   -0.6932   -2.3913 C   0  0  0  0  0  0  0  0  0  0  0  0
   -5.7455    0.6064   -2.0674 C   0  0  0  0  0  0  0  0  0  0  0  0
   -4.7358    0.8480   -1.1181 C   0  0  0  0  0  0  0  0  0  0  0  0
   -4.3228    2.5352   -0.7976 S   0  0  0  0  0  0  0  0  0  0  0  0
   -3.5847    2.3657    0.8090 C   0  0  0  0  0  0  0  0  0  0  0  0
   -3.5246    3.5375    1.5850 C   0  0  0  0  0  0  0  0  0  0  0  0
   -2.8836    3.5432    2.8184 C   0  0  0  0  0  0  0  0  0  0  0  0
   -2.2887    2.3782    3.2800 C   0  0  0  0  0  0  0  0  0  0  0  0
   -2.3404    1.2108    2.5094 C   0  0  0  0  0  0  0  0  0  0  0  0
   -2.9994    1.1669    1.2626 C   0  0  0  0  0  0  0  0  0  0  0  0
    0.8466   -2.2353    0.2756 C   0  0  0  0  0  0  0  0  0  0  0  0
    2.0992   -1.7915    0.2077 N   0  0  0  0  0  0  0  0  0  0  0  0
    3.0186   -2.6531    0.9394 C   0  0  0  0  0  0  0  0  0  0  0  0
    2.1763   -3.9302    1.2140 C   0  0  0  0  0  0  0  0  0  0  0  0
    0.7094   -3.4741    1.0783 C   0  0  0  0  0  0  0  0  0  0  0  0
    3.2493    1.4792   -1.5635 C   0  0  0  0  0  0  0  0  0  0  0  0
    4.3360    2.3220   -1.8150 C   0  0  0  0  0  0  0  0  0  0  0  0
    7.7014    2.3969   -1.5567 H   0  0  0  0  0  0  0  0  0  0  0  0
    6.6583    3.4587   -2.5007 H   0  0  0  0  0  0  0  0  0  0  0  0
    6.8035    3.7019   -0.7427 H   0  0  0  0  0  0  0  0  0  0  0  0
    6.7270    0.6515   -0.0715 H   0  0  0  0  0  0  0  0  0  0  0  0
    4.8450   -0.8264    0.3760 H   0  0  0  0  0  0  0  0  0  0  0  0
    0.4051    0.3798   -1.5062 H   0  0  0  0  0  0  0  0  0  0  0  0
   -1.6328   -2.6058   -0.7689 H   0  0  0  0  0  0  0  0  0  0  0  0
   -1.6812   -0.9708   -1.4734 H   0  0  0  0  0  0  0  0  0  0  0  0
   -4.0917   -2.4025   -0.3081 H   0  0  0  0  0  0  0  0  0  0  0  0
   -5.8213   -2.7805   -1.9824 H   0  0  0  0  0  0  0  0  0  0  0  0
   -6.9190   -0.8649   -3.1161 H   0  0  0  0  0  0  0  0  0  0  0  0
   -6.2560    1.4376   -2.5577 H   0  0  0  0  0  0  0  0  0  0  0  0
   -3.9733    4.4641    1.2238 H   0  0  0  0  0  0  0  0  0  0  0  0
   -2.8478    4.4534    3.4118 H   0  0  0  0  0  0  0  0  0  0  0  0
   -1.7901    2.3680    4.2468 H   0  0  0  0  0  0  0  0  0  0  0  0
   -1.8784    0.3333    2.9537 H   0  0  0  0  0  0  0  0  0  0  0  0
    3.3014   -2.1566    1.8733 H   0  0  0  0  0  0  0  0  0  0  0  0
    3.8993   -2.8882    0.3376 H   0  0  0  0  0  0  0  0  0  0  0  0
    2.3935   -4.6736    0.4366 H   0  0  0  0  0  0  0  0  0  0  0  0
    2.3963   -4.3835    2.1849 H   0  0  0  0  0  0  0  0  0  0  0  0
    0.2806   -3.1863    2.0396 H   0  0  0  0  0  0  0  0  0  0  0  0
    0.0797   -4.1843    0.5394 H   0  0  0  0  0  0  0  0  0  0  0  0
    2.2902    1.7570   -1.9911 H   0  0  0  0  0  0  0  0  0  0  0  0
    4.1899    3.2161   -2.4196 H   0  0  0  0  0  0  0  0  0  0  0  0
  1  2  1  0
  2  3  2  0
  3  4  1  0
  4  5  2  0
  5  6  1  0
  6  7  2  0
  7  8  1  0
  8  9  1  0
  9 10  1  0
 10 11  2  0
 10 12  1  0
 12 13  1  0
 13 14  2  0
 14 15  1  0
 15 16  2  0
 16 17  1  0
 17 18  2  0
 18 19  1  0
 19 20  1  0
 20 21  2  0
 21 22  1  0
 22 23  2  0
 23 24  1  0
 24 25  2  0
  8 26  2  0
 26 27  1  0
 27 28  1  0
 28 29  1  0
 29 30  1  0
  5 31  1  0
 31 32  2  0
 32  2  1  0
 27  6  1  0
 25 12  1  0
 30 26  1  0
 18 13  1  0
 25 20  1  0
  1 33  1  0
  1 34  1  0
  1 35  1  0
  3 36  1  0
  4 37  1  0
  7 38  1  0
  9 39  1  0
  9 40  1  0
 14 41  1  0
 15 42  1  0
 16 43  1  0
 17 44  1  0
 21 45  1  0
 22 46  1  0
 23 47  1  0
 24 48  1  0
 28 49  1  0
 28 50  1  0
 29 51  1  0
 29 52  1  0
 30 53  1  0
 30 54  1  0
 31 55  1  0
 32 56  1  0
M  CHG  1   8   1
M  END
$$$$
