
     RDKit          3D

 39 39  0  0  0  0  0  0  0  0999 V2000
   -5.4598    3.0096   -0.6296 C   0  0  0  0  0  0  0  0  0  0  0  0
   -4.3011    2.1447   -1.0204 C   0  0  0  0  0  0  0  0  0  0  0  0
   -3.8792    2.0270   -2.1615 O   0  0  0  0  0  0  0  0  0  0  0  0
   -3.7920    1.5237    0.0791 O   0  0  0  0  0  0  0  0  0  0  0  0
   -2.6776    0.6464   -0.1609 C   0  0  0  0  0  0  0  0  0  0  0  0
   -1.3723    1.4373   -0.0947 C   0  0  0  0  0  0  0  0  0  0  0  0
   -0.1350    0.5750   -0.4057 C   0  0  0  0  0  0  0  0  0  0  0  0
    1.0352    1.4736   -0.4413 N   0  0  0  0  0  0  0  0  0  0  0  0
    2.3638    0.9981   -1.3375 S   0  0  0  0  0  6  0  0  0  0  0  0
    3.3455    2.0481   -1.1902 O   0  0  0  0  0  0  0  0  0  0  0  0
    1.9156    0.5562   -2.6363 O   0  0  0  0  0  0  0  0  0  0  0  0
    2.9267   -0.2931   -0.5435 O   0  0  0  0  0  0  0  0  0  0  0  0
    4.2047   -0.7911   -0.9316 C   0  0  0  0  0  0  0  0  0  0  0  0
    4.4324   -2.2229   -0.4297 C   0  0  0  0  0  0  0  0  0  0  0  0
    3.2501   -3.3487   -1.1643 Cl  0  0  0  0  0  0  0  0  0  0  0  0
    4.2962   -2.3049    1.3537 Cl  0  0  0  0  0  0  0  0  0  0  0  0
    6.0812   -2.7586   -0.8939 Cl  0  0  0  0  0  0  0  0  0  0  0  0
    0.0500   -0.5525    0.5936 C   0  0  0  0  0  0  0  0  0  0  0  0
    0.2449   -0.3032    1.9621 C   0  0  0  0  0  0  0  0  0  0  0  0
    0.4263   -1.3584    2.8579 C   0  0  0  0  0  0  0  0  0  0  0  0
    0.4145   -2.6735    2.4001 C   0  0  0  0  0  0  0  0  0  0  0  0
    0.2210   -2.9363    1.0467 C   0  0  0  0  0  0  0  0  0  0  0  0
    0.0415   -1.8837    0.1480 C   0  0  0  0  0  0  0  0  0  0  0  0
   -5.8706    3.4900   -1.5222 H   0  0  0  0  0  0  0  0  0  0  0  0
   -6.2420    2.3979   -0.1733 H   0  0  0  0  0  0  0  0  0  0  0  0
   -5.1252    3.7865    0.0624 H   0  0  0  0  0  0  0  0  0  0  0  0
   -2.7891    0.1215   -1.1172 H   0  0  0  0  0  0  0  0  0  0  0  0
   -2.7108   -0.1133    0.6265 H   0  0  0  0  0  0  0  0  0  0  0  0
   -1.4208    2.2701   -0.8091 H   0  0  0  0  0  0  0  0  0  0  0  0
   -1.2905    1.9185    0.8888 H   0  0  0  0  0  0  0  0  0  0  0  0
   -0.2888    0.1582   -1.4091 H   0  0  0  0  0  0  0  0  0  0  0  0
    1.3214    1.8516    0.4582 H   0  0  0  0  0  0  0  0  0  0  0  0
    4.9667   -0.1178   -0.5199 H   0  0  0  0  0  0  0  0  0  0  0  0
    4.2935   -0.7623   -2.0255 H   0  0  0  0  0  0  0  0  0  0  0  0
    0.2580    0.7135    2.3474 H   0  0  0  0  0  0  0  0  0  0  0  0
    0.5800   -1.1552    3.9149 H   0  0  0  0  0  0  0  0  0  0  0  0
    0.5615   -3.4943    3.0975 H   0  0  0  0  0  0  0  0  0  0  0  0
    0.2196   -3.9628    0.6877 H   0  0  0  0  0  0  0  0  0  0  0  0
   -0.0955   -2.1149   -0.9073 H   0  0  0  0  0  0  0  0  0  0  0  0
  1  2  1  0
  2  3  2  0
  2  4  1  0
  4  5  1  0
  5  6  1  0
  6  7  1  0
  7  8  1  0
  8  9  1  0
  9 10  2  0
  9 11  2  0
  9 12  1  0
 12 13  1  0
 13 14  1  0
 14 15  1  0
 14 16  1  0
 14 17  1  0
  7 18  1  0
 18 19  2  0
 19 20  1  0
 20 21  2  0
 21 22  1  0
 22 23  2  0
 23 18  1  0
  1 24  1  0
  1 25  1  0
  1 26  1  0
  5 27  1  0
  5 28  1  0
  6 29  1  0
  6 30  1  0
  7 31  1  0
  8 32  1  0
 13 33  1  0
 13 34  1  0
 19 35  1  0
 20 36  1  0
 21 37  1  0
 22 38  1  0
 23 39  1  0
M  END
$$$$
