
     RDKit          3D

 49 50  0  0  0  0  0  0  0  0999 V2000
    3.8859   -0.5570    2.2545 C   0  0  0  0  0  0  0  0  0  0  0  0
    3.9913    0.4133    1.0772 C   0  0  0  0  0  0  0  0  0  0  0  0
    5.4634    0.6966    0.7698 C   0  0  0  0  0  0  0  0  0  0  0  0
    3.2861   -0.1163   -0.1838 C   0  0  0  0  0  0  0  0  0  0  0  0
    1.7813   -0.3031    0.0037 C   0  0  0  0  0  0  0  0  0  0  0  0
    1.1704   -0.6710   -1.3014 N   0  0  0  0  0  4  0  0  0  0  0  0
    1.1229   -1.9887   -1.6234 C   0  0  0  0  0  0  0  0  0  0  0  0
    0.6172   -2.4196   -2.8423 C   0  0  0  0  0  0  0  0  0  0  0  0
    0.1495   -1.4867   -3.7516 C   0  0  0  0  0  0  0  0  0  0  0  0
    0.1864   -0.1409   -3.4142 C   0  0  0  0  0  0  0  0  0  0  0  0
    0.6904    0.2631   -2.1696 C   0  0  0  0  0  0  0  0  0  0  0  0
    0.6601    1.6935   -1.8411 C   0  0  0  0  0  0  0  0  0  0  0  0
   -0.2422    2.2881   -1.0406 C   0  0  0  0  0  0  0  0  0  0  0  0
   -1.3138    1.6015   -0.3115 C   0  0  0  0  0  0  0  0  0  0  0  0
   -2.3198    0.8964   -0.9669 C   0  0  0  0  0  0  0  0  0  0  0  0
   -3.2966    0.2062   -0.2337 C   0  0  0  0  0  0  0  0  0  0  0  0
   -3.3267    0.2088    1.1721 C   0  0  0  0  0  0  0  0  0  0  0  0
   -4.2815   -0.5152    1.8951 N   0  0  0  0  0  0  0  0  0  0  0  0
   -4.4253   -0.2669    3.3318 C   0  0  0  0  0  0  0  0  0  0  0  0
   -5.5144   -0.9257    1.2173 C   0  0  0  0  0  0  0  0  0  0  0  0
   -2.3106    0.9481    1.8024 C   0  0  0  0  0  0  0  0  0  0  0  0
   -1.3289    1.6431    1.0806 C   0  0  0  0  0  0  0  0  0  0  0  0
    2.8476   -0.6812    2.5766 H   0  0  0  0  0  0  0  0  0  0  0  0
    4.4497   -0.1839    3.1164 H   0  0  0  0  0  0  0  0  0  0  0  0
    4.2830   -1.5434    1.9924 H   0  0  0  0  0  0  0  0  0  0  0  0
    3.5213    1.3608    1.3704 H   0  0  0  0  0  0  0  0  0  0  0  0
    5.9716    1.1120    1.6466 H   0  0  0  0  0  0  0  0  0  0  0  0
    5.5587    1.4229   -0.0442 H   0  0  0  0  0  0  0  0  0  0  0  0
    5.9908   -0.2166    0.4734 H   0  0  0  0  0  0  0  0  0  0  0  0
    3.7386   -1.0670   -0.4935 H   0  0  0  0  0  0  0  0  0  0  0  0
    3.4601    0.5857   -1.0091 H   0  0  0  0  0  0  0  0  0  0  0  0
    1.5559   -1.1119    0.7078 H   0  0  0  0  0  0  0  0  0  0  0  0
    1.3147    0.5986    0.3975 H   0  0  0  0  0  0  0  0  0  0  0  0
    1.5062   -2.6981   -0.8942 H   0  0  0  0  0  0  0  0  0  0  0  0
    0.5912   -3.4807   -3.0818 H   0  0  0  0  0  0  0  0  0  0  0  0
   -0.2500   -1.8038   -4.7138 H   0  0  0  0  0  0  0  0  0  0  0  0
   -0.1968    0.5963   -4.1186 H   0  0  0  0  0  0  0  0  0  0  0  0
    1.4116    2.3018   -2.3410 H   0  0  0  0  0  0  0  0  0  0  0  0
   -0.1865    3.3635   -0.8720 H   0  0  0  0  0  0  0  0  0  0  0  0
   -2.3754    0.8746   -2.0522 H   0  0  0  0  0  0  0  0  0  0  0  0
   -4.0445   -0.3369   -0.8047 H   0  0  0  0  0  0  0  0  0  0  0  0
   -3.4996   -0.5017    3.8684 H   0  0  0  0  0  0  0  0  0  0  0  0
   -5.1956   -0.9117    3.7700 H   0  0  0  0  0  0  0  0  0  0  0  0
   -4.7121    0.7727    3.5248 H   0  0  0  0  0  0  0  0  0  0  0  0
   -6.1888   -1.4520    1.9024 H   0  0  0  0  0  0  0  0  0  0  0  0
   -5.3043   -1.6301    0.4055 H   0  0  0  0  0  0  0  0  0  0  0  0
   -6.0545   -0.0576    0.8231 H   0  0  0  0  0  0  0  0  0  0  0  0
   -2.2582    1.0116    2.8858 H   0  0  0  0  0  0  0  0  0  0  0  0
   -0.5799    2.2085    1.6311 H   0  0  0  0  0  0  0  0  0  0  0  0
  1  2  1  0
  2  3  1  0
  2  4  1  0
  4  5  1  0
  5  6  1  0
  6  7  2  0
  7  8  1  0
  8  9  2  0
  9 10  1  0
 10 11  2  0
 11 12  1  0
 12 13  2  3
 13 14  1  0
 14 15  2  0
 15 16  1  0
 16 17  2  0
 17 18  1  0
 18 19  1  0
 18 20  1  0
 17 21  1  0
 21 22  2  0
 11  6  1  0
 22 14  1  0
  1 23  1  0
  1 24  1  0
  1 25  1  0
  2 26  1  0
  3 27  1  0
  3 28  1  0
  3 29  1  0
  4 30  1  0
  4 31  1  0
  5 32  1  0
  5 33  1  0
  7 34  1  0
  8 35  1  0
  9 36  1  0
 10 37  1  0
 12 38  1  0
 13 39  1  0
 15 40  1  0
 16 41  1  0
 19 42  1  0
 19 43  1  0
 19 44  1  0
 20 45  1  0
 20 46  1  0
 20 47  1  0
 21 48  1  0
 22 49  1  0
M  CHG  1   6   1
M  END
$$$$
