
     RDKit          3D

 61 65  0  0  0  0  0  0  0  0999 V2000
    1.5914   -0.9519    5.5884 C   0  0  0  0  0  0  0  0  0  0  0  0
    2.2061   -0.3236    4.3741 C   0  0  0  0  0  0  0  0  0  0  0  0
    3.2030    0.6415    4.4960 C   0  0  0  0  0  0  0  0  0  0  0  0
    3.7964    1.1865    3.3531 C   0  0  0  0  0  0  0  0  0  0  0  0
    3.4304    0.7918    2.0742 C   0  0  0  0  0  0  0  0  0  0  0  0
    4.0466    1.3634    1.0237 N   0  0  0  0  0  0  0  0  0  0  0  0
    3.7234    0.9929   -0.2408 C   0  0  0  0  0  0  0  0  0  0  0  0
    4.4775    1.6647   -1.3202 C   0  0  0  0  0  0  0  0  0  0  0  0
    5.8036    2.0887   -1.1107 C   0  0  0  0  0  0  0  0  0  0  0  0
    6.5410    2.7085   -2.1231 C   0  0  0  0  0  0  0  0  0  0  0  0
    5.9649    2.9264   -3.3710 C   0  0  0  0  0  0  0  0  0  0  0  0
    4.6513    2.5333   -3.6024 C   0  0  0  0  0  0  0  0  0  0  0  0
    3.9161    1.9110   -2.5878 C   0  0  0  0  0  0  0  0  0  0  0  0
    2.7541    0.0348   -0.4814 C   0  0  0  0  0  0  0  0  0  0  0  0
    2.1019   -0.5368    0.6113 C   0  0  0  0  0  0  0  0  0  0  0  0
    1.0670   -1.5497    0.3275 C   0  0  0  0  0  0  0  0  0  0  0  0
    1.3270   -2.7258    0.5603 O   0  0  0  0  0  0  0  0  0  0  0  0
   -0.1412   -1.1171   -0.2050 N   0  0  0  0  0  0  0  0  0  0  0  0
   -0.5421    0.2920   -0.3234 C   0  0  0  0  0  0  0  0  0  0  0  0
   -2.0584    0.4641   -0.4967 C   0  0  0  0  0  0  0  0  0  0  0  0
   -2.5319   -0.3154   -1.6635 N   0  0  0  0  0  0  0  0  0  0  0  0
   -4.0818   -0.0185   -2.2530 S   0  0  0  0  0  6  0  0  0  0  0  0
   -4.2553   -0.7847   -3.4668 O   0  0  0  0  0  0  0  0  0  0  0  0
   -4.3072    1.4104   -2.2198 O   0  0  0  0  0  0  0  0  0  0  0  0
   -5.2321   -0.6543   -1.1603 C   0  0  0  0  0  0  0  0  0  0  0  0
   -5.8910   -1.9050   -1.2174 C   0  0  0  0  0  0  0  0  0  0  0  0
   -5.8228   -2.9796   -2.2366 C   0  0  0  0  0  0  0  0  0  0  0  0
   -6.6956   -2.0640   -0.1572 N   0  0  0  0  0  0  0  0  0  0  0  0
   -6.6064   -0.8950    0.5705 O   0  0  0  0  0  0  0  0  0  0  0  0
   -5.7415   -0.0409   -0.0393 C   0  0  0  0  0  0  0  0  0  0  0  0
   -5.5808    1.2795    0.5998 C   0  0  0  0  0  0  0  0  0  0  0  0
   -1.9784   -1.6911   -1.7907 C   0  0  0  0  0  0  0  0  0  0  0  0
   -1.1459   -2.1149   -0.5732 C   0  0  0  0  0  0  0  0  0  0  0  0
    2.4329   -0.1858    1.9334 C   0  0  0  0  0  0  0  0  0  0  0  0
    1.8331   -0.7410    3.0927 C   0  0  0  0  0  0  0  0  0  0  0  0
    2.1128   -1.8814    5.8344 H   0  0  0  0  0  0  0  0  0  0  0  0
    0.5335   -1.1714    5.4159 H   0  0  0  0  0  0  0  0  0  0  0  0
    1.6462   -0.2783    6.4501 H   0  0  0  0  0  0  0  0  0  0  0  0
    3.5337    0.9779    5.4764 H   0  0  0  0  0  0  0  0  0  0  0  0
    4.5736    1.9399    3.4658 H   0  0  0  0  0  0  0  0  0  0  0  0
    6.2762    1.9279   -0.1420 H   0  0  0  0  0  0  0  0  0  0  0  0
    7.5651    3.0162   -1.9339 H   0  0  0  0  0  0  0  0  0  0  0  0
    6.5375    3.4075   -4.1587 H   0  0  0  0  0  0  0  0  0  0  0  0
    4.1946    2.7112   -4.5728 H   0  0  0  0  0  0  0  0  0  0  0  0
    2.8869    1.6372   -2.8027 H   0  0  0  0  0  0  0  0  0  0  0  0
    2.5154   -0.2893   -1.4884 H   0  0  0  0  0  0  0  0  0  0  0  0
   -0.2050    0.8423    0.5618 H   0  0  0  0  0  0  0  0  0  0  0  0
   -0.0212    0.7001   -1.1984 H   0  0  0  0  0  0  0  0  0  0  0  0
   -2.2721    1.5281   -0.6376 H   0  0  0  0  0  0  0  0  0  0  0  0
   -2.5760    0.1197    0.4053 H   0  0  0  0  0  0  0  0  0  0  0  0
   -4.7976   -3.3327   -2.3681 H   0  0  0  0  0  0  0  0  0  0  0  0
   -6.1992   -2.6214   -3.1990 H   0  0  0  0  0  0  0  0  0  0  0  0
   -6.4311   -3.8436   -1.9479 H   0  0  0  0  0  0  0  0  0  0  0  0
   -4.5360    1.4598    0.8653 H   0  0  0  0  0  0  0  0  0  0  0  0
   -5.9112    2.0763   -0.0741 H   0  0  0  0  0  0  0  0  0  0  0  0
   -6.1745    1.3521    1.5177 H   0  0  0  0  0  0  0  0  0  0  0  0
   -2.7730   -2.4253   -1.9386 H   0  0  0  0  0  0  0  0  0  0  0  0
   -1.3442   -1.7018   -2.6844 H   0  0  0  0  0  0  0  0  0  0  0  0
   -0.6694   -3.0803   -0.7725 H   0  0  0  0  0  0  0  0  0  0  0  0
   -1.7964   -2.2460    0.3002 H   0  0  0  0  0  0  0  0  0  0  0  0
    1.0762   -1.5188    2.9944 H   0  0  0  0  0  0  0  0  0  0  0  0
  1  2  1  0
  2  3  2  0
  3  4  1  0
  4  5  2  0
  5  6  1  0
  6  7  2  0
  7  8  1  0
  8  9  2  0
  9 10  1  0
 10 11  2  0
 11 12  1  0
 12 13  2  0
  7 14  1  0
 14 15  2  0
 15 16  1  0
 16 17  2  0
 16 18  1  0
 18 19  1  0
 19 20  1  0
 20 21  1  0
 21 22  1  0
 22 23  2  0
 22 24  2  0
 22 25  1  0
 25 26  1  0
 26 27  1  0
 26 28  2  0
 28 29  1  0
 29 30  1  0
 30 31  1  0
 21 32  1  0
 32 33  1  0
 15 34  1  0
 34 35  2  0
 35  2  1  0
 34  5  1  0
 13  8  1  0
 33 18  1  0
 30 25  2  0
  1 36  1  0
  1 37  1  0
  1 38  1  0
  3 39  1  0
  4 40  1  0
  9 41  1  0
 10 42  1  0
 11 43  1  0
 12 44  1  0
 13 45  1  0
 14 46  1  0
 19 47  1  0
 19 48  1  0
 20 49  1  0
 20 50  1  0
 27 51  1  0
 27 52  1  0
 27 53  1  0
 31 54  1  0
 31 55  1  0
 31 56  1  0
 32 57  1  0
 32 58  1  0
 33 59  1  0
 33 60  1  0
 35 61  1  0
M  END
$$$$
