
     RDKit          3D

 52 55  0  0  0  0  0  0  0  0999 V2000
    7.3495   -0.7796   -0.3669 C   0  0  0  0  0  0  0  0  0  0  0  0
    5.9386   -0.5774    0.0382 C   0  0  0  0  0  0  0  0  0  0  0  0
    5.2358    0.6371    0.1735 C   0  0  0  0  0  0  0  0  0  0  0  0
    3.9489    0.2915    0.5479 C   0  0  0  0  0  0  0  0  0  0  0  0
    2.8408    1.1817    0.7864 C   0  0  0  0  0  0  0  0  0  0  0  0
    2.9753    2.2902    1.2938 O   0  0  0  0  0  0  0  0  0  0  0  0
    1.6221    0.7315    0.3259 N   0  0  0  0  0  0  0  0  0  0  0  0
    0.4726    1.6190    0.3009 C   0  0  0  0  0  0  0  0  0  0  0  0
   -0.1974    1.7640    1.6893 C   0  0  0  0  0  0  0  0  0  0  0  0
   -1.2033    0.6297    2.0651 C   0  0  0  0  0  0  0  0  0  0  0  0
   -1.8725    0.9977    3.4051 C   0  0  0  0  0  0  0  0  0  0  0  0
   -0.4801   -0.7164    2.2617 C   0  0  0  0  0  0  0  0  0  0  0  0
   -2.3133    0.4822    0.9789 C   0  0  0  0  0  0  0  0  0  0  0  0
   -1.7518    0.5842   -0.4003 C   0  0  0  0  0  0  0  0  0  0  0  0
   -0.4987    1.0907   -0.6978 C   0  0  0  0  0  0  0  0  0  0  0  0
   -0.3849    0.9694   -2.0862 C   0  0  0  0  0  0  0  0  0  0  0  0
   -1.4545    0.3985   -2.6311 N   0  0  0  0  0  0  0  0  0  0  0  0
   -2.3410    0.2219   -1.6070 N   0  0  0  0  0  0  0  0  0  0  0  0
   -3.6491   -0.2690   -1.9114 C   0  0  0  0  0  0  0  0  0  0  0  0
   -3.9025   -0.7599   -3.2088 C   0  0  0  0  0  0  0  0  0  0  0  0
   -5.1638   -1.2512   -3.5623 C   0  0  0  0  0  0  0  0  0  0  0  0
   -6.1921   -1.2507   -2.6269 C   0  0  0  0  0  0  0  0  0  0  0  0
   -5.9493   -0.7527   -1.3537 C   0  0  0  0  0  0  0  0  0  0  0  0
   -6.9443   -0.7330   -0.4567 F   0  0  0  0  0  0  0  0  0  0  0  0
   -4.6965   -0.2613   -0.9869 C   0  0  0  0  0  0  0  0  0  0  0  0
    3.9890   -1.0717    0.7019 N   0  0  0  0  0  0  0  0  0  0  0  0
    2.9721   -1.9315    1.2614 C   0  0  0  0  0  0  0  0  0  0  0  0
    5.1633   -1.6234    0.3393 N   0  0  0  0  0  0  0  0  0  0  0  0
    7.7445    0.1086   -0.8708 H   0  0  0  0  0  0  0  0  0  0  0  0
    7.4414   -1.6254   -1.0563 H   0  0  0  0  0  0  0  0  0  0  0  0
    7.9717   -0.9796    0.5112 H   0  0  0  0  0  0  0  0  0  0  0  0
    5.6018    1.6403   -0.0001 H   0  0  0  0  0  0  0  0  0  0  0  0
    1.6205   -0.0560   -0.3074 H   0  0  0  0  0  0  0  0  0  0  0  0
    0.8206    2.6080   -0.0237 H   0  0  0  0  0  0  0  0  0  0  0  0
   -0.7552    2.7120    1.6845 H   0  0  0  0  0  0  0  0  0  0  0  0
    0.5635    1.8649    2.4735 H   0  0  0  0  0  0  0  0  0  0  0  0
   -2.6048    0.2389    3.7034 H   0  0  0  0  0  0  0  0  0  0  0  0
   -2.3979    1.9568    3.3368 H   0  0  0  0  0  0  0  0  0  0  0  0
   -1.1308    1.0817    4.2074 H   0  0  0  0  0  0  0  0  0  0  0  0
   -1.1663   -1.4766    2.6528 H   0  0  0  0  0  0  0  0  0  0  0  0
    0.3426   -0.6176    2.9783 H   0  0  0  0  0  0  0  0  0  0  0  0
   -0.0728   -1.1100    1.3263 H   0  0  0  0  0  0  0  0  0  0  0  0
   -2.8258   -0.4755    1.1222 H   0  0  0  0  0  0  0  0  0  0  0  0
   -3.0465    1.2888    1.1051 H   0  0  0  0  0  0  0  0  0  0  0  0
    0.4427    1.2500   -2.7262 H   0  0  0  0  0  0  0  0  0  0  0  0
   -3.1165   -0.7740   -3.9637 H   0  0  0  0  0  0  0  0  0  0  0  0
   -5.3365   -1.6300   -4.5667 H   0  0  0  0  0  0  0  0  0  0  0  0
   -7.1785   -1.6239   -2.8823 H   0  0  0  0  0  0  0  0  0  0  0  0
   -4.6129    0.1412    0.0115 H   0  0  0  0  0  0  0  0  0  0  0  0
    2.2514   -2.1683    0.4758 H   0  0  0  0  0  0  0  0  0  0  0  0
    3.4378   -2.8499    1.6297 H   0  0  0  0  0  0  0  0  0  0  0  0
    2.4929   -1.4161    2.0959 H   0  0  0  0  0  0  0  0  0  0  0  0
  1  2  1  0
  2  3  1  0
  3  4  2  0
  4  5  1  0
  5  6  2  0
  5  7  1  0
  7  8  1  0
  8  9  1  0
  9 10  1  0
 10 11  1  0
 10 12  1  0
 10 13  1  0
 13 14  1  0
 14 15  2  0
 15 16  1  0
 16 17  2  0
 17 18  1  0
 18 19  1  0
 19 20  2  0
 20 21  1  0
 21 22  2  0
 22 23  1  0
 23 24  1  0
 23 25  2  0
  4 26  1  0
 26 27  1  0
 26 28  1  0
 28  2  2  0
 15  8  1  0
 25 19  1  0
 18 14  1  0
  1 29  1  0
  1 30  1  0
  1 31  1  0
  3 32  1  0
  7 33  1  0
  8 34  1  0
  9 35  1  0
  9 36  1  0
 11 37  1  0
 11 38  1  0
 11 39  1  0
 12 40  1  0
 12 41  1  0
 12 42  1  0
 13 43  1  0
 13 44  1  0
 16 45  1  0
 20 46  1  0
 21 47  1  0
 22 48  1  0
 25 49  1  0
 27 50  1  0
 27 51  1  0
 27 52  1  0
M  END
$$$$
