
     RDKit          3D

 42 44  0  0  0  0  0  0  0  0999 V2000
   -4.5873   -2.2143   -0.0913 C   0  0  0  0  0  0  0  0  0  0  0  0
   -4.2789   -0.8978    0.6231 C   0  0  0  0  0  0  0  0  0  0  0  0
   -4.3147   -1.0639    2.1431 C   0  0  0  0  0  0  0  0  0  0  0  0
   -3.0083   -0.3248    0.1722 N   0  0  0  0  0  0  0  0  0  0  0  0
   -1.7829   -0.9249    0.3423 C   0  0  0  0  0  0  0  0  0  0  0  0
   -0.8178   -0.0973   -0.1847 C   0  0  0  0  0  0  0  0  0  0  0  0
    0.5720   -0.4252   -0.1509 C   0  0  0  0  0  0  0  0  0  0  0  0
    1.5719    0.4594   -0.0000 C   0  0  0  0  0  0  0  0  0  0  0  0
    2.9930    0.0989    0.0421 C   0  0  0  0  0  0  0  0  0  0  0  0
    3.4588   -1.0229    0.7262 C   0  0  0  0  0  0  0  0  0  0  0  0
    4.8217   -1.2970    0.7549 C   0  0  0  0  0  0  0  0  0  0  0  0
    5.7021   -0.4785    0.1371 N   0  0  0  0  0  4  0  0  0  0  0  0
    7.1398   -0.7966    0.1704 C   0  0  0  0  0  0  0  0  0  0  0  0
    5.2752    0.6189   -0.5263 C   0  0  0  0  0  0  0  0  0  0  0  0
    3.9217    0.9325   -0.5787 C   0  0  0  0  0  0  0  0  0  0  0  0
   -1.4809    1.0392   -0.7405 C   0  0  0  0  0  0  0  0  0  0  0  0
   -1.0573    2.1865   -1.4502 C   0  0  0  0  0  0  0  0  0  0  0  0
   -1.9908    3.1415   -1.8642 C   0  0  0  0  0  0  0  0  0  0  0  0
   -3.3407    2.9691   -1.5895 C   0  0  0  0  0  0  0  0  0  0  0  0
   -3.7941    1.8387   -0.9048 C   0  0  0  0  0  0  0  0  0  0  0  0
   -2.8521    0.8790   -0.4921 C   0  0  0  0  0  0  0  0  0  0  0  0
   -5.5823   -2.5790    0.1849 H   0  0  0  0  0  0  0  0  0  0  0  0
   -4.5662   -2.0824   -1.1788 H   0  0  0  0  0  0  0  0  0  0  0  0
   -3.8623   -2.9948    0.1637 H   0  0  0  0  0  0  0  0  0  0  0  0
   -5.0679   -0.1880    0.3553 H   0  0  0  0  0  0  0  0  0  0  0  0
   -3.5814   -1.8001    2.4894 H   0  0  0  0  0  0  0  0  0  0  0  0
   -5.3046   -1.3987    2.4709 H   0  0  0  0  0  0  0  0  0  0  0  0
   -4.0965   -0.1146    2.6447 H   0  0  0  0  0  0  0  0  0  0  0  0
   -1.7015   -1.8828    0.8390 H   0  0  0  0  0  0  0  0  0  0  0  0
    0.8007   -1.4856   -0.2332 H   0  0  0  0  0  0  0  0  0  0  0  0
    1.3465    1.5191    0.1030 H   0  0  0  0  0  0  0  0  0  0  0  0
    2.7711   -1.6848    1.2491 H   0  0  0  0  0  0  0  0  0  0  0  0
    5.2169   -2.1666    1.2727 H   0  0  0  0  0  0  0  0  0  0  0  0
    7.7139    0.1324    0.1253 H   0  0  0  0  0  0  0  0  0  0  0  0
    7.3546   -1.4299   -0.6938 H   0  0  0  0  0  0  0  0  0  0  0  0
    7.3698   -1.3184    1.1030 H   0  0  0  0  0  0  0  0  0  0  0  0
    6.0231    1.2397   -1.0116 H   0  0  0  0  0  0  0  0  0  0  0  0
    3.5980    1.8228   -1.1154 H   0  0  0  0  0  0  0  0  0  0  0  0
   -0.0099    2.3319   -1.6914 H   0  0  0  0  0  0  0  0  0  0  0  0
   -1.6590    4.0216   -2.4091 H   0  0  0  0  0  0  0  0  0  0  0  0
   -4.0580    3.7183   -1.9179 H   0  0  0  0  0  0  0  0  0  0  0  0
   -4.8553    1.7199   -0.7114 H   0  0  0  0  0  0  0  0  0  0  0  0
  1  2  1  0
  2  3  1  0
  2  4  1  0
  4  5  1  0
  5  6  2  0
  6  7  1  0
  7  8  2  3
  8  9  1  0
  9 10  2  0
 10 11  1  0
 11 12  2  0
 12 13  1  0
 12 14  1  0
 14 15  2  0
  6 16  1  0
 16 17  2  0
 17 18  1  0
 18 19  2  0
 19 20  1  0
 20 21  2  0
 21  4  1  0
 15  9  1  0
 21 16  1  0
  1 22  1  0
  1 23  1  0
  1 24  1  0
  2 25  1  0
  3 26  1  0
  3 27  1  0
  3 28  1  0
  5 29  1  0
  7 30  1  0
  8 31  1  0
 10 32  1  0
 11 33  1  0
 13 34  1  0
 13 35  1  0
 13 36  1  0
 14 37  1  0
 15 38  1  0
 17 39  1  0
 18 40  1  0
 19 41  1  0
 20 42  1  0
M  CHG  1  12   1
M  END
$$$$
