
     RDKit          3D

 53 55  0  0  0  0  0  0  0  0999 V2000
    9.3069    0.1851    2.2442 C   0  0  0  0  0  0  0  0  0  0  0  0
    8.4966   -0.6508    1.4267 O   0  0  0  0  0  0  0  0  0  0  0  0
    7.1429   -0.4715    1.5058 C   0  0  0  0  0  0  0  0  0  0  0  0
    6.4862    0.4937    2.2745 C   0  0  0  0  0  0  0  0  0  0  0  0
    5.0892    0.5750    2.2600 C   0  0  0  0  0  0  0  0  0  0  0  0
    4.3542   -0.3124    1.4704 C   0  0  0  0  0  0  0  0  0  0  0  0
    2.5839   -0.2117    1.4239 S   0  0  0  0  0  6  0  0  0  0  0  0
    2.0642   -1.5494    1.6075 O   0  0  0  0  0  0  0  0  0  0  0  0
    2.1651    0.8862    2.2712 O   0  0  0  0  0  0  0  0  0  0  0  0
    2.2920    0.2390   -0.1621 N   0  0  0  0  0  0  0  0  0  0  0  0
    2.7749    1.5354   -0.6391 C   0  0  0  0  0  0  0  0  0  0  0  0
    2.1186    1.6010   -1.9993 C   0  0  0  0  0  0  0  0  0  0  0  0
    0.8345    0.9911   -1.8265 O   0  0  0  0  0  0  0  0  0  0  0  0
    0.9158    0.1058   -0.6772 C   0  0  0  0  0  0  0  0  0  0  0  0
   -0.2127    0.5181    0.2931 C   0  0  0  0  0  0  0  0  0  0  0  0
   -1.5088    0.5485   -0.3669 N   0  0  0  0  0  0  0  0  0  0  0  0
   -2.6924    0.5749    0.3284 C   0  0  0  0  0  0  0  0  0  0  0  0
   -2.8326    0.4008    1.5303 O   0  0  0  0  0  0  0  0  0  0  0  0
   -3.9245    0.8686   -0.5582 C   0  0  0  0  0  0  0  0  0  0  0  0
   -3.7825    1.0766   -1.7542 O   0  0  0  0  0  0  0  0  0  0  0  0
   -5.1095    0.8676    0.1376 N   0  0  0  0  0  0  0  0  0  0  0  0
   -6.3916    1.0067   -0.5129 C   0  0  0  0  0  0  0  0  0  0  0  0
   -6.9880   -0.3172   -0.9392 C   0  0  0  0  0  0  0  0  0  0  0  0
   -6.8131   -1.4647   -0.1383 C   0  0  0  0  0  0  0  0  0  0  0  0
   -7.3785   -2.6922   -0.4975 C   0  0  0  0  0  0  0  0  0  0  0  0
   -8.1409   -2.7970   -1.6573 C   0  0  0  0  0  0  0  0  0  0  0  0
   -8.3515   -1.6693   -2.4498 C   0  0  0  0  0  0  0  0  0  0  0  0
   -7.7898   -0.4365   -2.0907 C   0  0  0  0  0  0  0  0  0  0  0  0
   -8.1529    0.9160   -3.1080 Cl  0  0  0  0  0  0  0  0  0  0  0  0
    4.9987   -1.2873    0.7062 C   0  0  0  0  0  0  0  0  0  0  0  0
    6.3926   -1.3585    0.7252 C   0  0  0  0  0  0  0  0  0  0  0  0
    9.2012    1.2368    1.9578 H   0  0  0  0  0  0  0  0  0  0  0  0
   10.3512   -0.1003    2.0832 H   0  0  0  0  0  0  0  0  0  0  0  0
    9.0807    0.0391    3.3059 H   0  0  0  0  0  0  0  0  0  0  0  0
    7.0314    1.1966    2.8961 H   0  0  0  0  0  0  0  0  0  0  0  0
    4.5892    1.3276    2.8667 H   0  0  0  0  0  0  0  0  0  0  0  0
    2.4068    2.3439    0.0012 H   0  0  0  0  0  0  0  0  0  0  0  0
    3.8631    1.5853   -0.7170 H   0  0  0  0  0  0  0  0  0  0  0  0
    2.0048    2.6227   -2.3705 H   0  0  0  0  0  0  0  0  0  0  0  0
    2.6736    1.0150   -2.7413 H   0  0  0  0  0  0  0  0  0  0  0  0
    0.7545   -0.9132   -1.0452 H   0  0  0  0  0  0  0  0  0  0  0  0
   -0.0429    1.5343    0.6692 H   0  0  0  0  0  0  0  0  0  0  0  0
   -0.2754   -0.1557    1.1538 H   0  0  0  0  0  0  0  0  0  0  0  0
   -1.5502    0.8628   -1.3370 H   0  0  0  0  0  0  0  0  0  0  0  0
   -5.0542    0.6554    1.1298 H   0  0  0  0  0  0  0  0  0  0  0  0
   -7.0702    1.4900    0.1993 H   0  0  0  0  0  0  0  0  0  0  0  0
   -6.2495    1.6792   -1.3651 H   0  0  0  0  0  0  0  0  0  0  0  0
   -6.2297   -1.4166    0.7814 H   0  0  0  0  0  0  0  0  0  0  0  0
   -7.2215   -3.5669    0.1325 H   0  0  0  0  0  0  0  0  0  0  0  0
   -8.5793   -3.7517   -1.9400 H   0  0  0  0  0  0  0  0  0  0  0  0
   -8.9601   -1.7551   -3.3481 H   0  0  0  0  0  0  0  0  0  0  0  0
    4.4270   -1.9870    0.1007 H   0  0  0  0  0  0  0  0  0  0  0  0
    6.9024   -2.1141    0.1308 H   0  0  0  0  0  0  0  0  0  0  0  0
  1  2  1  0
  2  3  1  0
  3  4  2  0
  4  5  1  0
  5  6  2  0
  6  7  1  0
  7  8  2  0
  7  9  2  0
  7 10  1  0
 10 11  1  0
 11 12  1  0
 12 13  1  0
 13 14  1  0
 14 15  1  0
 15 16  1  0
 16 17  1  0
 17 18  2  0
 17 19  1  0
 19 20  2  0
 19 21  1  0
 21 22  1  0
 22 23  1  0
 23 24  2  0
 24 25  1  0
 25 26  2  0
 26 27  1  0
 27 28  2  0
 28 29  1  0
  6 30  1  0
 30 31  2  0
 31  3  1  0
 14 10  1  0
 28 23  1  0
  1 32  1  0
  1 33  1  0
  1 34  1  0
  4 35  1  0
  5 36  1  0
 11 37  1  0
 11 38  1  0
 12 39  1  0
 12 40  1  0
 14 41  1  0
 15 42  1  0
 15 43  1  0
 16 44  1  0
 21 45  1  0
 22 46  1  0
 22 47  1  0
 24 48  1  0
 25 49  1  0
 26 50  1  0
 27 51  1  0
 30 52  1  0
 31 53  1  0
M  END
$$$$
