
     RDKit          3D

 38 39  0  0  0  0  0  0  0  0999 V2000
    0.4221   -1.9862    1.1229 O   0  0  0  0  0  0  0  0  0  0  0  0
    0.0032   -0.8373    1.0411 C   0  0  0  0  0  0  0  0  0  0  0  0
   -1.3699   -0.5247    1.5125 C   0  0  0  0  0  0  0  0  0  0  0  0
   -2.1018    0.5355    1.1358 C   0  0  0  0  0  0  0  0  0  0  0  0
   -3.4771    0.7490    1.6182 C   0  0  0  0  0  0  0  0  0  0  0  0
   -3.7113    0.7959    3.0028 C   0  0  0  0  0  0  0  0  0  0  0  0
   -5.0017    0.9868    3.5112 C   0  0  0  0  0  0  0  0  0  0  0  0
   -6.0860    1.1374    2.6481 C   0  0  0  0  0  0  0  0  0  0  0  0
   -5.8836    1.1058    1.2707 C   0  0  0  0  0  0  0  0  0  0  0  0
   -4.5851    0.9223    0.7696 C   0  0  0  0  0  0  0  0  0  0  0  0
   -4.4313    0.9028   -0.6760 N   0  0  0  0  0  4  0  0  0  0  0  0
   -3.6446    1.7179   -1.1780 O   0  0  0  0  0  0  0  0  0  0  0  0
   -5.1265    0.0942   -1.3055 O   0  0  0  0  0  1  0  0  0  0  0  0
    0.7419    0.2169    0.5738 N   0  0  0  0  0  0  0  0  0  0  0  0
    2.1026    0.0358    0.1033 C   0  0  0  0  0  0  0  0  0  0  0  0
    2.1537   -0.5590   -1.3061 C   0  0  0  0  0  0  0  0  0  0  0  0
    3.5729   -0.7102   -1.7965 C   0  0  0  0  0  0  0  0  0  0  0  0
    4.3220   -1.8441   -1.4453 C   0  0  0  0  0  0  0  0  0  0  0  0
    5.6406   -1.9798   -1.8807 C   0  0  0  0  0  0  0  0  0  0  0  0
    6.2096   -0.9824   -2.6630 C   0  0  0  0  0  0  0  0  0  0  0  0
    7.4759   -1.1124   -3.0800 F   0  0  0  0  0  0  0  0  0  0  0  0
    5.4853    0.1494   -3.0179 C   0  0  0  0  0  0  0  0  0  0  0  0
    4.1663    0.2880   -2.5837 C   0  0  0  0  0  0  0  0  0  0  0  0
   -1.7768   -1.2908    2.1676 H   0  0  0  0  0  0  0  0  0  0  0  0
   -1.7272    1.2695    0.4287 H   0  0  0  0  0  0  0  0  0  0  0  0
   -2.8879    0.6850    3.7075 H   0  0  0  0  0  0  0  0  0  0  0  0
   -5.1589    1.0154    4.5879 H   0  0  0  0  0  0  0  0  0  0  0  0
   -7.0867    1.2798    3.0505 H   0  0  0  0  0  0  0  0  0  0  0  0
   -6.7312    1.2231    0.5982 H   0  0  0  0  0  0  0  0  0  0  0  0
    0.3721    1.1555    0.6016 H   0  0  0  0  0  0  0  0  0  0  0  0
    2.6340   -0.6075    0.8148 H   0  0  0  0  0  0  0  0  0  0  0  0
    2.5823    1.0209    0.1244 H   0  0  0  0  0  0  0  0  0  0  0  0
    1.5872    0.0756   -2.0001 H   0  0  0  0  0  0  0  0  0  0  0  0
    1.6559   -1.5366   -1.3327 H   0  0  0  0  0  0  0  0  0  0  0  0
    3.8787   -2.6268   -0.8318 H   0  0  0  0  0  0  0  0  0  0  0  0
    6.2248   -2.8549   -1.6153 H   0  0  0  0  0  0  0  0  0  0  0  0
    5.9517    0.9144   -3.6301 H   0  0  0  0  0  0  0  0  0  0  0  0
    3.6047    1.1759   -2.8653 H   0  0  0  0  0  0  0  0  0  0  0  0
  1  2  2  0
  2  3  1  0
  3  4  2  3
  4  5  1  0
  5  6  2  0
  6  7  1  0
  7  8  2  0
  8  9  1  0
  9 10  2  0
 10 11  1  0
 11 12  2  0
 11 13  1  0
  2 14  1  0
 14 15  1  0
 15 16  1  0
 16 17  1  0
 17 18  2  0
 18 19  1  0
 19 20  2  0
 20 21  1  0
 20 22  1  0
 22 23  2  0
 10  5  1  0
 23 17  1  0
  3 24  1  0
  4 25  1  0
  6 26  1  0
  7 27  1  0
  8 28  1  0
  9 29  1  0
 14 30  1  0
 15 31  1  0
 15 32  1  0
 16 33  1  0
 16 34  1  0
 18 35  1  0
 19 36  1  0
 22 37  1  0
 23 38  1  0
M  CHG  2  11   1  13  -1
M  END
$$$$
