
     RDKit          3D

 59 62  0  0  0  0  0  0  0  0999 V2000
    3.7094   -4.9370   -0.9376 C   0  0  0  0  0  0  0  0  0  0  0  0
    2.6670   -4.2666   -0.0610 C   0  0  0  0  0  0  0  0  0  0  0  0
    2.9558   -2.8732    0.0634 O   0  0  0  0  0  0  0  0  0  0  0  0
    2.3259   -2.0896   -0.9544 C   0  0  0  0  0  0  0  0  0  0  0  0
    2.8888   -0.6754   -0.8833 C   0  0  0  0  0  0  0  0  0  0  0  0
    2.3432    0.2374   -1.9812 C   0  0  0  0  0  0  0  0  0  0  0  0
    0.9473    0.6426   -1.7152 N   0  0  0  0  0  0  0  0  0  0  0  0
   -0.1010   -0.0746   -2.3164 C   0  0  0  0  0  0  0  0  0  0  0  0
    0.1773   -1.0612   -3.1195 N   0  0  0  0  0  0  0  0  0  0  0  0
   -1.5111    0.3207   -2.0098 C   0  0  0  0  0  0  0  0  0  0  0  0
   -2.8809   -0.5806   -2.5412 S   0  0  0  0  0  6  0  0  0  0  0  0
   -4.0224    0.2990   -2.7198 O   0  0  0  0  0  0  0  0  0  0  0  0
   -2.5004   -1.4919   -3.6084 O   0  0  0  0  0  0  0  0  0  0  0  0
   -3.2193   -1.5963   -1.1136 C   0  0  0  0  0  0  0  0  0  0  0  0
   -4.2557   -1.2517   -0.2450 C   0  0  0  0  0  0  0  0  0  0  0  0
   -4.5059   -2.0488    0.8728 C   0  0  0  0  0  0  0  0  0  0  0  0
   -3.7262   -3.1857    1.1252 C   0  0  0  0  0  0  0  0  0  0  0  0
   -4.0244   -4.0541    2.3131 C   0  0  0  0  0  0  0  0  0  0  0  0
   -2.7108   -3.5391    0.2243 C   0  0  0  0  0  0  0  0  0  0  0  0
   -2.4543   -2.7481   -0.8958 C   0  0  0  0  0  0  0  0  0  0  0  0
   -1.6915    1.3853   -1.2108 C   0  0  0  0  0  0  0  0  0  0  0  0
   -0.5766    2.1297   -0.6471 C   0  0  0  0  0  0  0  0  0  0  0  0
   -0.8483    3.3033    0.2310 C   0  0  0  0  0  0  0  0  0  0  0  0
   -2.0141    3.6282    0.4708 O   0  0  0  0  0  0  0  0  0  0  0  0
    0.2621    3.9595    0.7302 N   0  0  0  0  0  0  0  0  0  0  0  0
    0.0908    5.0742    1.5451 C   0  0  0  0  0  0  0  0  0  0  0  0
    1.1312    5.7504    2.0576 C   0  0  0  0  0  0  0  0  0  0  0  0
    0.9743    6.9539    2.9358 C   0  0  0  0  0  0  0  0  0  0  0  0
    2.4733    5.3041    1.7590 C   0  0  0  0  0  0  0  0  0  0  0  0
    2.6812    4.2331    0.9837 C   0  0  0  0  0  0  0  0  0  0  0  0
    1.5231    3.4910    0.4157 C   0  0  0  0  0  0  0  0  0  0  0  0
    1.7562    2.4615   -0.3328 N   0  0  0  0  0  0  0  0  0  0  0  0
    0.7043    1.7643   -0.8815 C   0  0  0  0  0  0  0  0  0  0  0  0
    3.6869   -4.5385   -1.9567 H   0  0  0  0  0  0  0  0  0  0  0  0
    4.7143   -4.7493   -0.5456 H   0  0  0  0  0  0  0  0  0  0  0  0
    3.5497   -6.0179   -0.9821 H   0  0  0  0  0  0  0  0  0  0  0  0
    1.6525   -4.4321   -0.4454 H   0  0  0  0  0  0  0  0  0  0  0  0
    2.7123   -4.6985    0.9444 H   0  0  0  0  0  0  0  0  0  0  0  0
    2.5216   -2.5229   -1.9405 H   0  0  0  0  0  0  0  0  0  0  0  0
    1.2482   -2.0894   -0.7662 H   0  0  0  0  0  0  0  0  0  0  0  0
    3.9819   -0.7320   -0.9822 H   0  0  0  0  0  0  0  0  0  0  0  0
    2.7041   -0.2535    0.1132 H   0  0  0  0  0  0  0  0  0  0  0  0
    2.4470   -0.2449   -2.9627 H   0  0  0  0  0  0  0  0  0  0  0  0
    2.9806    1.1296   -2.0531 H   0  0  0  0  0  0  0  0  0  0  0  0
   -0.6661   -1.4795   -3.5493 H   0  0  0  0  0  0  0  0  0  0  0  0
   -4.8732   -0.3755   -0.4267 H   0  0  0  0  0  0  0  0  0  0  0  0
   -5.3156   -1.7784    1.5514 H   0  0  0  0  0  0  0  0  0  0  0  0
   -4.3097   -3.4446    3.1780 H   0  0  0  0  0  0  0  0  0  0  0  0
   -3.1463   -4.6408    2.6016 H   0  0  0  0  0  0  0  0  0  0  0  0
   -4.8405   -4.7427    2.0774 H   0  0  0  0  0  0  0  0  0  0  0  0
   -2.1149   -4.4339    0.3915 H   0  0  0  0  0  0  0  0  0  0  0  0
   -1.6652   -3.0390   -1.5868 H   0  0  0  0  0  0  0  0  0  0  0  0
   -2.6917    1.7167   -0.9353 H   0  0  0  0  0  0  0  0  0  0  0  0
   -0.9353    5.3751    1.7460 H   0  0  0  0  0  0  0  0  0  0  0  0
    1.4834    6.8027    3.8936 H   0  0  0  0  0  0  0  0  0  0  0  0
   -0.0783    7.1651    3.1492 H   0  0  0  0  0  0  0  0  0  0  0  0
    1.3999    7.8389    2.4542 H   0  0  0  0  0  0  0  0  0  0  0  0
    3.3136    5.8502    2.1764 H   0  0  0  0  0  0  0  0  0  0  0  0
    3.6723    3.8708    0.7413 H   0  0  0  0  0  0  0  0  0  0  0  0
  1  2  1  0
  2  3  1  0
  3  4  1  0
  4  5  1  0
  5  6  1  0
  6  7  1  0
  7  8  1  0
  8  9  2  3
  8 10  1  0
 10 11  1  0
 11 12  2  0
 11 13  2  0
 11 14  1  0
 14 15  2  0
 15 16  1  0
 16 17  2  0
 17 18  1  0
 17 19  1  0
 19 20  2  0
 10 21  2  0
 21 22  1  0
 22 23  1  0
 23 24  2  0
 23 25  1  0
 25 26  1  0
 26 27  2  0
 27 28  1  0
 27 29  1  0
 29 30  2  0
 30 31  1  0
 31 32  2  0
 32 33  1  0
 33  7  1  0
 20 14  1  0
 33 22  2  0
 31 25  1  0
  1 34  1  0
  1 35  1  0
  1 36  1  0
  2 37  1  0
  2 38  1  0
  4 39  1  0
  4 40  1  0
  5 41  1  0
  5 42  1  0
  6 43  1  0
  6 44  1  0
  9 45  1  0
 15 46  1  0
 16 47  1  0
 18 48  1  0
 18 49  1  0
 18 50  1  0
 19 51  1  0
 20 52  1  0
 21 53  1  0
 26 54  1  0
 28 55  1  0
 28 56  1  0
 28 57  1  0
 29 58  1  0
 30 59  1  0
M  END
$$$$
