
     RDKit          3D

 45 44  0  0  0  0  0  0  0  0999 V2000
    6.1759   -3.8973    1.4135 C   0  0  0  0  0  0  0  0  0  0  0  0
    4.6858   -4.0165    1.6932 C   0  0  0  0  0  0  0  0  0  0  0  0
    3.9066   -2.7328    1.4036 C   0  0  0  0  0  0  0  0  0  0  0  0
    3.9023   -2.3491   -0.0751 C   0  0  0  0  0  0  0  0  0  0  0  0
    3.0917   -1.1775   -0.3150 N   0  0  0  0  0  0  0  0  0  0  0  0
    1.7426   -1.2362   -0.4842 C   0  0  0  0  0  0  0  0  0  0  0  0
    1.0760   -2.2575   -0.5394 O   0  0  0  0  0  0  0  0  0  0  0  0
    1.2564    0.0246   -0.5767 O   0  0  0  0  0  0  0  0  0  0  0  0
   -0.1688    0.0936   -0.7294 C   0  0  0  0  0  0  0  0  0  0  0  0
   -0.5929    1.5545   -0.9787 C   0  0  0  0  0  0  0  0  0  0  0  0
    0.0108    2.0907   -2.2891 C   0  0  0  0  0  0  0  0  0  0  0  0
   -0.2556    3.5771   -2.4931 C   0  0  0  0  0  0  0  0  0  0  0  0
   -2.0438    1.6777   -0.9947 N   0  0  0  0  0  0  0  0  0  0  0  0
   -2.7872    1.6928    0.1459 C   0  0  0  0  0  0  0  0  0  0  0  0
   -2.3378    1.7332    1.2799 O   0  0  0  0  0  0  0  0  0  0  0  0
   -4.0986    1.6358   -0.1862 O   0  0  0  0  0  0  0  0  0  0  0  0
   -5.0282    1.6301    0.9131 C   0  0  0  0  0  0  0  0  0  0  0  0
   -5.1961    0.2066    1.4326 C   0  0  0  0  0  0  0  0  0  0  0  0
   -6.3516    2.1704    0.3847 C   0  0  0  0  0  0  0  0  0  0  0  0
    6.6909   -4.8110    1.7272 H   0  0  0  0  0  0  0  0  0  0  0  0
    6.6129   -3.0570    1.9622 H   0  0  0  0  0  0  0  0  0  0  0  0
    6.3739   -3.7556    0.3471 H   0  0  0  0  0  0  0  0  0  0  0  0
    4.5493   -4.2748    2.7502 H   0  0  0  0  0  0  0  0  0  0  0  0
    4.2699   -4.8452    1.1085 H   0  0  0  0  0  0  0  0  0  0  0  0
    4.3167   -1.9069    1.9984 H   0  0  0  0  0  0  0  0  0  0  0  0
    2.8734   -2.8723    1.7460 H   0  0  0  0  0  0  0  0  0  0  0  0
    4.9116   -2.1075   -0.4215 H   0  0  0  0  0  0  0  0  0  0  0  0
    3.5176   -3.1763   -0.6819 H   0  0  0  0  0  0  0  0  0  0  0  0
    3.4811   -0.2536   -0.1925 H   0  0  0  0  0  0  0  0  0  0  0  0
   -0.4895   -0.5335   -1.5713 H   0  0  0  0  0  0  0  0  0  0  0  0
   -0.6378   -0.2848    0.1869 H   0  0  0  0  0  0  0  0  0  0  0  0
   -0.2090    2.1632   -0.1493 H   0  0  0  0  0  0  0  0  0  0  0  0
   -0.3948    1.5365   -3.1446 H   0  0  0  0  0  0  0  0  0  0  0  0
    1.0961    1.9363   -2.2923 H   0  0  0  0  0  0  0  0  0  0  0  0
   -1.3264    3.7841   -2.5835 H   0  0  0  0  0  0  0  0  0  0  0  0
    0.1404    4.1640   -1.6582 H   0  0  0  0  0  0  0  0  0  0  0  0
    0.2302    3.9234   -3.4109 H   0  0  0  0  0  0  0  0  0  0  0  0
   -2.5646    1.4957   -1.8419 H   0  0  0  0  0  0  0  0  0  0  0  0
   -4.6796    2.2919    1.7155 H   0  0  0  0  0  0  0  0  0  0  0  0
   -5.5111   -0.4686    0.6293 H   0  0  0  0  0  0  0  0  0  0  0  0
   -4.2477   -0.1839    1.8157 H   0  0  0  0  0  0  0  0  0  0  0  0
   -5.9358    0.1637    2.2380 H   0  0  0  0  0  0  0  0  0  0  0  0
   -6.2191    3.1852   -0.0059 H   0  0  0  0  0  0  0  0  0  0  0  0
   -6.7227    1.5600   -0.4461 H   0  0  0  0  0  0  0  0  0  0  0  0
   -7.1132    2.1959    1.1699 H   0  0  0  0  0  0  0  0  0  0  0  0
  1  2  1  0
  2  3  1  0
  3  4  1  0
  4  5  1  0
  5  6  1  0
  6  7  2  0
  6  8  1  0
  8  9  1  0
  9 10  1  0
 10 11  1  0
 11 12  1  0
 10 13  1  0
 13 14  1  0
 14 15  2  0
 14 16  1  0
 16 17  1  0
 17 18  1  0
 17 19  1  0
  1 20  1  0
  1 21  1  0
  1 22  1  0
  2 23  1  0
  2 24  1  0
  3 25  1  0
  3 26  1  0
  4 27  1  0
  4 28  1  0
  5 29  1  0
  9 30  1  0
  9 31  1  0
 10 32  1  0
 11 33  1  0
 11 34  1  0
 12 35  1  0
 12 36  1  0
 12 37  1  0
 13 38  1  0
 17 39  1  0
 18 40  1  0
 18 41  1  0
 18 42  1  0
 19 43  1  0
 19 44  1  0
 19 45  1  0
M  END
$$$$
