
     RDKit          3D

 50 53  0  0  0  0  0  0  0  0999 V2000
    8.7047    0.5252    1.2335 C   0  0  0  0  0  0  0  0  0  0  0  0
    7.2214    0.1989    1.3424 C   0  0  0  0  0  0  0  0  0  0  0  0
    6.7438   -0.1385    0.0314 O   0  0  0  0  0  0  0  0  0  0  0  0
    5.3785   -0.1088   -0.0268 C   0  0  0  0  0  0  0  0  0  0  0  0
    4.7367    1.1245   -0.1640 C   0  0  0  0  0  0  0  0  0  0  0  0
    3.3449    1.1828   -0.2991 C   0  0  0  0  0  0  0  0  0  0  0  0
    2.5890    0.0001   -0.3269 C   0  0  0  0  0  0  0  0  0  0  0  0
    1.1059    0.0350   -0.4386 C   0  0  0  0  0  0  0  0  0  0  0  0
    0.4656   -0.7760    0.2172 O   0  0  0  0  0  0  0  0  0  0  0  0
    0.6134    0.9848   -1.3129 N   0  0  0  0  0  0  0  0  0  0  0  0
   -0.7406    1.3065   -1.5454 C   0  0  0  0  0  0  0  0  0  0  0  0
   -1.0150    2.1918   -2.5943 C   0  0  0  0  0  0  0  0  0  0  0  0
   -2.3272    2.5707   -2.8791 C   0  0  0  0  0  0  0  0  0  0  0  0
   -3.3784    2.0727   -2.1115 C   0  0  0  0  0  0  0  0  0  0  0  0
   -3.1286    1.1918   -1.0515 C   0  0  0  0  0  0  0  0  0  0  0  0
   -4.2489    0.6770   -0.2322 C   0  0  0  0  0  0  0  0  0  0  0  0
   -4.4004   -0.6521   -0.1013 C   0  0  0  0  0  0  0  0  0  0  0  0
   -5.4982   -1.2043    0.6748 C   0  0  0  0  0  0  0  0  0  0  0  0
   -5.6755   -2.5798    0.8386 C   0  0  0  0  0  0  0  0  0  0  0  0
   -6.7523   -3.0628    1.5896 C   0  0  0  0  0  0  0  0  0  0  0  0
   -7.6562   -2.1746    2.1777 C   0  0  0  0  0  0  0  0  0  0  0  0
   -7.4831   -0.8010    2.0203 C   0  0  0  0  0  0  0  0  0  0  0  0
   -6.4044   -0.3359    1.2714 C   0  0  0  0  0  0  0  0  0  0  0  0
   -6.2598    1.0548    1.1394 O   0  0  0  0  0  0  0  0  0  0  0  0
   -5.2134    1.6183    0.4140 C   0  0  0  0  0  0  0  0  0  0  0  0
   -5.1064    2.8372    0.3165 O   0  0  0  0  0  0  0  0  0  0  0  0
   -1.8007    0.8157   -0.7774 C   0  0  0  0  0  0  0  0  0  0  0  0
    3.2226   -1.2407   -0.2053 C   0  0  0  0  0  0  0  0  0  0  0  0
    4.6148   -1.2764   -0.0667 C   0  0  0  0  0  0  0  0  0  0  0  0
    5.2579   -2.5682    0.0300 N   0  0  0  0  0  4  0  0  0  0  0  0
    5.1561   -3.3193   -0.9493 O   0  0  0  0  0  0  0  0  0  0  0  0
    5.8210   -2.8418    1.0967 O   0  0  0  0  0  1  0  0  0  0  0  0
    9.2584   -0.3075    0.7796 H   0  0  0  0  0  0  0  0  0  0  0  0
    9.1297    0.7325    2.2198 H   0  0  0  0  0  0  0  0  0  0  0  0
    8.8605    1.4005    0.5885 H   0  0  0  0  0  0  0  0  0  0  0  0
    6.6896    1.0659    1.7590 H   0  0  0  0  0  0  0  0  0  0  0  0
    7.0854   -0.6611    2.0132 H   0  0  0  0  0  0  0  0  0  0  0  0
    5.3185    2.0438   -0.1654 H   0  0  0  0  0  0  0  0  0  0  0  0
    2.8629    2.1563   -0.3579 H   0  0  0  0  0  0  0  0  0  0  0  0
    1.2817    1.4539   -1.9106 H   0  0  0  0  0  0  0  0  0  0  0  0
   -0.2150    2.5980   -3.2076 H   0  0  0  0  0  0  0  0  0  0  0  0
   -2.5322    3.2592   -3.6956 H   0  0  0  0  0  0  0  0  0  0  0  0
   -4.3943    2.3888   -2.3408 H   0  0  0  0  0  0  0  0  0  0  0  0
   -3.7198   -1.3528   -0.5762 H   0  0  0  0  0  0  0  0  0  0  0  0
   -4.9816   -3.2880    0.3908 H   0  0  0  0  0  0  0  0  0  0  0  0
   -6.8867   -4.1347    1.7167 H   0  0  0  0  0  0  0  0  0  0  0  0
   -8.4923   -2.5541    2.7600 H   0  0  0  0  0  0  0  0  0  0  0  0
   -8.1779   -0.1015    2.4754 H   0  0  0  0  0  0  0  0  0  0  0  0
   -1.6120    0.1523    0.0614 H   0  0  0  0  0  0  0  0  0  0  0  0
    2.6379   -2.1594   -0.2215 H   0  0  0  0  0  0  0  0  0  0  0  0
  1  2  1  0
  2  3  1  0
  3  4  1  0
  4  5  2  0
  5  6  1  0
  6  7  2  0
  7  8  1  0
  8  9  2  0
  8 10  1  0
 10 11  1  0
 11 12  2  0
 12 13  1  0
 13 14  2  0
 14 15  1  0
 15 16  1  0
 16 17  2  0
 17 18  1  0
 18 19  2  0
 19 20  1  0
 20 21  2  0
 21 22  1  0
 22 23  2  0
 23 24  1  0
 24 25  1  0
 25 26  2  0
 15 27  2  0
  7 28  1  0
 28 29  2  0
 29 30  1  0
 30 31  2  0
 30 32  1  0
 29  4  1  0
 27 11  1  0
 25 16  1  0
 23 18  1  0
  1 33  1  0
  1 34  1  0
  1 35  1  0
  2 36  1  0
  2 37  1  0
  5 38  1  0
  6 39  1  0
 10 40  1  0
 12 41  1  0
 13 42  1  0
 14 43  1  0
 17 44  1  0
 19 45  1  0
 20 46  1  0
 21 47  1  0
 22 48  1  0
 27 49  1  0
 28 50  1  0
M  CHG  2  30   1  32  -1
M  END
$$$$
