
     RDKit          3D

 33 35  0  0  0  0  0  0  0  0999 V2000
   -1.4900    2.2959    2.4082 C   0  0  0  0  0  0  0  0  0  0  0  0
   -2.7379    1.9256    1.8244 O   0  0  0  0  0  0  0  0  0  0  0  0
   -2.6652    1.1572    0.6678 C   0  0  0  0  0  0  0  0  0  0  0  0
   -3.8931    1.0277    0.0054 C   0  0  0  0  0  0  0  0  0  0  0  0
   -4.0062    0.2925   -1.1712 C   0  0  0  0  0  0  0  0  0  0  0  0
   -2.8916   -0.3486   -1.7315 C   0  0  0  0  0  0  0  0  0  0  0  0
   -2.9146   -1.0889   -2.8825 O   0  0  0  0  0  0  0  0  0  0  0  0
   -4.0753   -0.9806   -3.6992 C   0  0  0  0  0  0  0  0  0  0  0  0
   -1.6615   -0.2278   -1.0473 C   0  0  0  0  0  0  0  0  0  0  0  0
   -0.1223   -0.9004   -1.4734 S   0  0  0  0  0  0  0  0  0  0  0  0
    0.5675   -0.1829   -0.0980 C   0  0  0  0  0  0  0  0  0  0  0  0
    1.8986   -0.4532    0.0591 N   0  0  0  0  0  0  0  0  0  0  0  0
    2.6482    0.0745    1.0926 C   0  0  0  0  0  0  0  0  0  0  0  0
    2.2339    0.9180    1.8842 O   0  0  0  0  0  0  0  0  0  0  0  0
    4.0150   -0.4557    1.1531 C   0  0  0  0  0  0  0  0  0  0  0  0
    4.6012   -1.5330    0.5013 C   0  0  0  0  0  0  0  0  0  0  0  0
    5.9738   -1.7164    0.8584 C   0  0  0  0  0  0  0  0  0  0  0  0
    6.3762   -0.7772    1.7711 C   0  0  0  0  0  0  0  0  0  0  0  0
    8.1421   -0.7044    2.4966 Br  0  0  0  0  0  0  0  0  0  0  0  0
    5.1516    0.3082    2.2004 S   0  0  0  0  0  0  0  0  0  0  0  0
   -0.2314    0.5098    0.6614 N   0  0  0  0  0  0  0  0  0  0  0  0
   -1.5193    0.5089    0.1370 C   0  0  0  0  0  0  0  0  0  0  0  0
   -1.7100    3.0003    3.2183 H   0  0  0  0  0  0  0  0  0  0  0  0
   -0.9867    1.4303    2.8531 H   0  0  0  0  0  0  0  0  0  0  0  0
   -0.8530    2.8205    1.6880 H   0  0  0  0  0  0  0  0  0  0  0  0
   -4.7732    1.5153    0.4206 H   0  0  0  0  0  0  0  0  0  0  0  0
   -4.9865    0.2336   -1.6343 H   0  0  0  0  0  0  0  0  0  0  0  0
   -4.9289   -1.4786   -3.2281 H   0  0  0  0  0  0  0  0  0  0  0  0
   -4.3064    0.0638   -3.9340 H   0  0  0  0  0  0  0  0  0  0  0  0
   -3.8697   -1.4952   -4.6426 H   0  0  0  0  0  0  0  0  0  0  0  0
    2.3130   -1.0507   -0.6365 H   0  0  0  0  0  0  0  0  0  0  0  0
    4.0870   -2.1876   -0.1909 H   0  0  0  0  0  0  0  0  0  0  0  0
    6.6144   -2.5009    0.4685 H   0  0  0  0  0  0  0  0  0  0  0  0
  1  2  1  0
  2  3  1  0
  3  4  2  0
  4  5  1  0
  5  6  2  0
  6  7  1  0
  7  8  1  0
  6  9  1  0
  9 10  1  0
 10 11  1  0
 11 12  1  0
 12 13  1  0
 13 14  2  0
 13 15  1  0
 15 16  2  0
 16 17  1  0
 17 18  2  0
 18 19  1  0
 18 20  1  0
 11 21  2  0
 21 22  1  0
 22  3  1  0
 22  9  2  0
 20 15  1  0
  1 23  1  0
  1 24  1  0
  1 25  1  0
  4 26  1  0
  5 27  1  0
  8 28  1  0
  8 29  1  0
  8 30  1  0
 12 31  1  0
 16 32  1  0
 17 33  1  0
M  END
$$$$
