
     RDKit          3D

 57 59  0  0  0  0  0  0  0  0999 V2000
    9.6569   -3.2836   -2.6229 C   0  0  0  0  0  0  0  0  0  0  0  0
    9.5099   -2.2285   -1.6812 O   0  0  0  0  0  0  0  0  0  0  0  0
    8.3833   -2.2448   -0.9061 C   0  0  0  0  0  0  0  0  0  0  0  0
    8.2775   -1.1810   -0.0075 C   0  0  0  0  0  0  0  0  0  0  0  0
    7.1764   -1.0728    0.8456 C   0  0  0  0  0  0  0  0  0  0  0  0
    6.1638   -2.0383    0.8173 C   0  0  0  0  0  0  0  0  0  0  0  0
    4.9618   -1.9177    1.7125 C   0  0  0  0  0  0  0  0  0  0  0  0
    3.8603   -1.3099    1.0164 N   0  0  0  0  0  0  0  0  0  0  0  0
    2.6069   -1.2414    1.5722 C   0  0  0  0  0  0  0  0  0  0  0  0
    2.2572   -1.7543    2.6259 O   0  0  0  0  0  0  0  0  0  0  0  0
    1.5999   -0.4209    0.7340 C   0  0  0  0  0  0  0  0  0  0  0  0
    1.9375    0.0508   -0.3418 O   0  0  0  0  0  0  0  0  0  0  0  0
    0.3596   -0.3098    1.3155 N   0  0  0  0  0  0  0  0  0  0  0  0
   -0.7831    0.2354    0.5994 C   0  0  0  0  0  0  0  0  0  0  0  0
   -1.9483    0.5872    1.5548 C   0  0  0  0  0  0  0  0  0  0  0  0
   -2.2520   -0.5758    2.3595 O   0  0  0  0  0  0  0  0  0  0  0  0
   -3.2595   -1.2936    1.6411 C   0  0  0  0  0  0  0  0  0  0  0  0
   -4.1175   -0.2199    1.0069 C   0  0  0  0  0  0  0  0  0  0  0  0
   -3.2264    0.9461    0.9180 N   0  0  0  0  0  0  0  0  0  0  0  0
   -3.1855    1.8417   -0.4943 S   0  0  0  0  0  6  0  0  0  0  0  0
   -2.3257    2.9828   -0.2751 O   0  0  0  0  0  0  0  0  0  0  0  0
   -2.9485    0.9130   -1.5789 O   0  0  0  0  0  0  0  0  0  0  0  0
   -4.8502    2.4411   -0.6192 C   0  0  0  0  0  0  0  0  0  0  0  0
   -5.6674    2.0350   -1.6764 C   0  0  0  0  0  0  0  0  0  0  0  0
   -6.9796    2.5130   -1.7593 C   0  0  0  0  0  0  0  0  0  0  0  0
   -7.4694    3.3946   -0.7921 C   0  0  0  0  0  0  0  0  0  0  0  0
   -8.7273    3.9299   -0.7568 O   0  0  0  0  0  0  0  0  0  0  0  0
   -9.5987    3.6016   -1.8317 C   0  0  0  0  0  0  0  0  0  0  0  0
   -6.6368    3.7969    0.2583 C   0  0  0  0  0  0  0  0  0  0  0  0
   -5.3257    3.3274    0.3486 C   0  0  0  0  0  0  0  0  0  0  0  0
    6.2680   -3.0990   -0.0925 C   0  0  0  0  0  0  0  0  0  0  0  0
    7.3720   -3.2041   -0.9464 C   0  0  0  0  0  0  0  0  0  0  0  0
   10.5969   -3.1239   -3.1598 H   0  0  0  0  0  0  0  0  0  0  0  0
    9.7214   -4.2547   -2.1208 H   0  0  0  0  0  0  0  0  0  0  0  0
    8.8468   -3.2715   -3.3595 H   0  0  0  0  0  0  0  0  0  0  0  0
    9.0600   -0.4266    0.0257 H   0  0  0  0  0  0  0  0  0  0  0  0
    7.1176   -0.2289    1.5294 H   0  0  0  0  0  0  0  0  0  0  0  0
    4.6555   -2.9029    2.0840 H   0  0  0  0  0  0  0  0  0  0  0  0
    5.1887   -1.3055    2.5933 H   0  0  0  0  0  0  0  0  0  0  0  0
    4.0244   -0.7585    0.1777 H   0  0  0  0  0  0  0  0  0  0  0  0
    0.1918   -0.8915    2.1357 H   0  0  0  0  0  0  0  0  0  0  0  0
   -1.0836   -0.5336   -0.1210 H   0  0  0  0  0  0  0  0  0  0  0  0
   -0.4489    1.1099    0.0328 H   0  0  0  0  0  0  0  0  0  0  0  0
   -1.6407    1.3807    2.2441 H   0  0  0  0  0  0  0  0  0  0  0  0
   -3.8221   -1.9365    2.3234 H   0  0  0  0  0  0  0  0  0  0  0  0
   -2.7756   -1.9234    0.8866 H   0  0  0  0  0  0  0  0  0  0  0  0
   -4.5220   -0.5528    0.0478 H   0  0  0  0  0  0  0  0  0  0  0  0
   -4.9546    0.0412    1.6631 H   0  0  0  0  0  0  0  0  0  0  0  0
   -5.2952    1.3549   -2.4397 H   0  0  0  0  0  0  0  0  0  0  0  0
   -7.5917    2.1809   -2.5918 H   0  0  0  0  0  0  0  0  0  0  0  0
   -9.8109    2.5277   -1.8525 H   0  0  0  0  0  0  0  0  0  0  0  0
  -10.5454    4.1249   -1.6663 H   0  0  0  0  0  0  0  0  0  0  0  0
   -9.1918    3.9435   -2.7892 H   0  0  0  0  0  0  0  0  0  0  0  0
   -7.0147    4.4878    1.0089 H   0  0  0  0  0  0  0  0  0  0  0  0
   -4.6864    3.6542    1.1656 H   0  0  0  0  0  0  0  0  0  0  0  0
    5.4837   -3.8520   -0.1439 H   0  0  0  0  0  0  0  0  0  0  0  0
    7.4076   -4.0448   -1.6310 H   0  0  0  0  0  0  0  0  0  0  0  0
  1  2  1  0
  2  3  1  0
  3  4  2  0
  4  5  1  0
  5  6  2  0
  6  7  1  0
  7  8  1  0
  8  9  1  0
  9 10  2  0
  9 11  1  0
 11 12  2  0
 11 13  1  0
 13 14  1  0
 14 15  1  0
 15 16  1  0
 16 17  1  0
 17 18  1  0
 18 19  1  0
 19 20  1  0
 20 21  2  0
 20 22  2  0
 20 23  1  0
 23 24  2  0
 24 25  1  0
 25 26  2  0
 26 27  1  0
 27 28  1  0
 26 29  1  0
 29 30  2  0
  6 31  1  0
 31 32  2  0
 32  3  1  0
 19 15  1  0
 30 23  1  0
  1 33  1  0
  1 34  1  0
  1 35  1  0
  4 36  1  0
  5 37  1  0
  7 38  1  0
  7 39  1  0
  8 40  1  0
 13 41  1  0
 14 42  1  0
 14 43  1  0
 15 44  1  0
 17 45  1  0
 17 46  1  0
 18 47  1  0
 18 48  1  0
 24 49  1  0
 25 50  1  0
 28 51  1  0
 28 52  1  0
 28 53  1  0
 29 54  1  0
 30 55  1  0
 31 56  1  0
 32 57  1  0
M  END
$$$$
