
     RDKit          3D

 59 62  0  0  0  0  0  0  0  0999 V2000
    6.4039   -3.8036   -0.0233 C   0  0  0  0  0  0  0  0  0  0  0  0
    5.6465   -2.8648    0.9004 C   0  0  0  0  0  0  0  0  0  0  0  0
    4.3384   -2.5963    0.3996 O   0  0  0  0  0  0  0  0  0  0  0  0
    4.3085   -1.5385   -0.5533 C   0  0  0  0  0  0  0  0  0  0  0  0
    2.8919   -1.3664   -1.0948 C   0  0  0  0  0  0  0  0  0  0  0  0
    1.8786   -1.1419    0.0301 C   0  0  0  0  0  0  0  0  0  0  0  0
    0.6057   -0.6173   -0.5111 N   0  0  0  0  0  0  0  0  0  0  0  0
   -0.3653   -1.5271   -0.9613 C   0  0  0  0  0  0  0  0  0  0  0  0
   -0.1150   -2.8033   -0.9220 N   0  0  0  0  0  0  0  0  0  0  0  0
   -1.6646   -0.9943   -1.4752 C   0  0  0  0  0  0  0  0  0  0  0  0
   -2.9956   -2.0042   -1.8994 S   0  0  0  0  0  6  0  0  0  0  0  0
   -3.7709   -1.3854   -2.9644 O   0  0  0  0  0  0  0  0  0  0  0  0
   -2.5604   -3.3880   -2.0366 O   0  0  0  0  0  0  0  0  0  0  0  0
   -3.9888   -1.9473   -0.4183 C   0  0  0  0  0  0  0  0  0  0  0  0
   -5.1898   -1.2353   -0.4045 C   0  0  0  0  0  0  0  0  0  0  0  0
   -5.9565   -1.2093    0.7616 C   0  0  0  0  0  0  0  0  0  0  0  0
   -5.5407   -1.9109    1.9027 C   0  0  0  0  0  0  0  0  0  0  0  0
   -6.3584   -1.8639    3.1626 C   0  0  0  0  0  0  0  0  0  0  0  0
   -4.3327   -2.6211    1.8728 C   0  0  0  0  0  0  0  0  0  0  0  0
   -3.5583   -2.6460    0.7125 C   0  0  0  0  0  0  0  0  0  0  0  0
   -1.7995    0.3413   -1.5362 C   0  0  0  0  0  0  0  0  0  0  0  0
   -0.7361    1.2481   -1.1293 C   0  0  0  0  0  0  0  0  0  0  0  0
   -0.9445    2.7199   -1.2356 C   0  0  0  0  0  0  0  0  0  0  0  0
   -2.0208    3.1532   -1.6510 O   0  0  0  0  0  0  0  0  0  0  0  0
    0.1112    3.5169   -0.8328 N   0  0  0  0  0  0  0  0  0  0  0  0
   -0.0064    4.9021   -0.9057 C   0  0  0  0  0  0  0  0  0  0  0  0
    0.9784    5.7238   -0.5122 C   0  0  0  0  0  0  0  0  0  0  0  0
    0.8836    7.2171   -0.5796 C   0  0  0  0  0  0  0  0  0  0  0  0
    2.2028    5.1532    0.0023 C   0  0  0  0  0  0  0  0  0  0  0  0
    2.3586    3.8260    0.0829 C   0  0  0  0  0  0  0  0  0  0  0  0
    1.2597    2.9220   -0.3491 C   0  0  0  0  0  0  0  0  0  0  0  0
    1.4364    1.6439   -0.2475 N   0  0  0  0  0  0  0  0  0  0  0  0
    0.4325    0.7840   -0.6321 C   0  0  0  0  0  0  0  0  0  0  0  0
    5.8325   -4.7233   -0.1890 H   0  0  0  0  0  0  0  0  0  0  0  0
    6.5706   -3.3476   -1.0034 H   0  0  0  0  0  0  0  0  0  0  0  0
    7.3768   -4.0667    0.4059 H   0  0  0  0  0  0  0  0  0  0  0  0
    6.2013   -1.9345    1.0643 H   0  0  0  0  0  0  0  0  0  0  0  0
    5.5217   -3.3488    1.8765 H   0  0  0  0  0  0  0  0  0  0  0  0
    4.6397   -0.6111   -0.0710 H   0  0  0  0  0  0  0  0  0  0  0  0
    4.9865   -1.7585   -1.3851 H   0  0  0  0  0  0  0  0  0  0  0  0
    2.8837   -0.5286   -1.8023 H   0  0  0  0  0  0  0  0  0  0  0  0
    2.6039   -2.2619   -1.6583 H   0  0  0  0  0  0  0  0  0  0  0  0
    1.7101   -2.0731    0.5852 H   0  0  0  0  0  0  0  0  0  0  0  0
    2.2862   -0.4471    0.7759 H   0  0  0  0  0  0  0  0  0  0  0  0
   -0.8746   -3.3809   -1.3174 H   0  0  0  0  0  0  0  0  0  0  0  0
   -5.5406   -0.7051   -1.2868 H   0  0  0  0  0  0  0  0  0  0  0  0
   -6.8874   -0.6458    0.7748 H   0  0  0  0  0  0  0  0  0  0  0  0
   -6.1416   -2.7284    3.8006 H   0  0  0  0  0  0  0  0  0  0  0  0
   -7.4291   -1.8857    2.9319 H   0  0  0  0  0  0  0  0  0  0  0  0
   -6.1329   -0.9495    3.7258 H   0  0  0  0  0  0  0  0  0  0  0  0
   -3.9925   -3.1689    2.7515 H   0  0  0  0  0  0  0  0  0  0  0  0
   -2.6322   -3.2156    0.6998 H   0  0  0  0  0  0  0  0  0  0  0  0
   -2.7247    0.7959   -1.8867 H   0  0  0  0  0  0  0  0  0  0  0  0
   -0.9420    5.2898   -1.2988 H   0  0  0  0  0  0  0  0  0  0  0  0
    0.9304    7.6480    0.4259 H   0  0  0  0  0  0  0  0  0  0  0  0
   -0.0518    7.5477   -1.0427 H   0  0  0  0  0  0  0  0  0  0  0  0
    1.7083    7.6288   -1.1717 H   0  0  0  0  0  0  0  0  0  0  0  0
    3.0008    5.8175    0.3224 H   0  0  0  0  0  0  0  0  0  0  0  0
    3.2646    3.3668    0.4596 H   0  0  0  0  0  0  0  0  0  0  0  0
  1  2  1  0
  2  3  1  0
  3  4  1  0
  4  5  1  0
  5  6  1  0
  6  7  1  0
  7  8  1  0
  8  9  2  3
  8 10  1  0
 10 11  1  0
 11 12  2  0
 11 13  2  0
 11 14  1  0
 14 15  2  0
 15 16  1  0
 16 17  2  0
 17 18  1  0
 17 19  1  0
 19 20  2  0
 10 21  2  0
 21 22  1  0
 22 23  1  0
 23 24  2  0
 23 25  1  0
 25 26  1  0
 26 27  2  0
 27 28  1  0
 27 29  1  0
 29 30  2  0
 30 31  1  0
 31 32  2  0
 32 33  1  0
 33  7  1  0
 20 14  1  0
 33 22  2  0
 31 25  1  0
  1 34  1  0
  1 35  1  0
  1 36  1  0
  2 37  1  0
  2 38  1  0
  4 39  1  0
  4 40  1  0
  5 41  1  0
  5 42  1  0
  6 43  1  0
  6 44  1  0
  9 45  1  0
 15 46  1  0
 16 47  1  0
 18 48  1  0
 18 49  1  0
 18 50  1  0
 19 51  1  0
 20 52  1  0
 21 53  1  0
 26 54  1  0
 28 55  1  0
 28 56  1  0
 28 57  1  0
 29 58  1  0
 30 59  1  0
M  END
$$$$
