
     RDKit          3D

 51 53  0  0  0  0  0  0  0  0999 V2000
   -9.1051    0.9137   -1.0160 C   0  0  0  0  0  0  0  0  0  0  0  0
   -7.6618    0.5269   -0.8914 C   0  0  0  0  0  0  0  0  0  0  0  0
   -6.8279    1.2042    0.0028 C   0  0  0  0  0  0  0  0  0  0  0  0
   -5.4771    0.8593    0.1107 C   0  0  0  0  0  0  0  0  0  0  0  0
   -4.9358   -0.1670   -0.6728 C   0  0  0  0  0  0  0  0  0  0  0  0
   -3.5700   -0.4537   -0.4990 N   0  0  0  0  0  0  0  0  0  0  0  0
   -2.8124   -1.4302   -1.1177 C   0  0  0  0  0  0  0  0  0  0  0  0
   -3.2041   -2.2532   -1.9411 O   0  0  0  0  0  0  0  0  0  0  0  0
   -1.3534   -1.4385   -0.6487 C   0  0  0  0  0  0  0  0  0  0  0  0
   -1.0644   -0.3054    0.1699 O   0  0  0  0  0  0  0  0  0  0  0  0
    0.2213   -0.1740    0.6139 C   0  0  0  0  0  0  0  0  0  0  0  0
    0.4917    1.0295    1.2696 C   0  0  0  0  0  0  0  0  0  0  0  0
    1.7659    1.2928    1.7777 C   0  0  0  0  0  0  0  0  0  0  0  0
    2.7807    0.3454    1.6519 C   0  0  0  0  0  0  0  0  0  0  0  0
    4.0943    0.6693    2.1387 N   0  0  0  0  0  0  0  0  0  0  0  0
    4.8319   -0.3913    2.8552 C   0  0  0  0  0  0  0  0  0  0  0  0
    5.0384    1.7091    1.1549 S   0  0  0  0  0  6  0  0  0  0  0  0
    4.2300    2.8288    0.7150 O   0  0  0  0  0  0  0  0  0  0  0  0
    6.3040    1.9357    1.8241 O   0  0  0  0  0  0  0  0  0  0  0  0
    5.3842    0.7105   -0.2853 C   0  0  0  0  0  0  0  0  0  0  0  0
    6.5610   -0.0474   -0.3392 C   0  0  0  0  0  0  0  0  0  0  0  0
    6.8314   -0.8116   -1.4752 C   0  0  0  0  0  0  0  0  0  0  0  0
    5.9385   -0.7975   -2.5438 C   0  0  0  0  0  0  0  0  0  0  0  0
    6.1997   -1.5373   -3.6308 F   0  0  0  0  0  0  0  0  0  0  0  0
    4.7815   -0.0244   -2.5061 C   0  0  0  0  0  0  0  0  0  0  0  0
    4.5034    0.7438   -1.3749 C   0  0  0  0  0  0  0  0  0  0  0  0
    2.5164   -0.8554    0.9860 C   0  0  0  0  0  0  0  0  0  0  0  0
    1.2398   -1.1163    0.4720 C   0  0  0  0  0  0  0  0  0  0  0  0
   -5.7655   -0.8367   -1.5726 C   0  0  0  0  0  0  0  0  0  0  0  0
   -7.1175   -0.4899   -1.6839 C   0  0  0  0  0  0  0  0  0  0  0  0
   -9.6699    0.1722   -1.5918 H   0  0  0  0  0  0  0  0  0  0  0  0
   -9.5678    0.9820   -0.0254 H   0  0  0  0  0  0  0  0  0  0  0  0
   -9.1916    1.8799   -1.5210 H   0  0  0  0  0  0  0  0  0  0  0  0
   -7.2232    2.0083    0.6189 H   0  0  0  0  0  0  0  0  0  0  0  0
   -4.8584    1.4021    0.8208 H   0  0  0  0  0  0  0  0  0  0  0  0
   -3.0597    0.1225    0.1638 H   0  0  0  0  0  0  0  0  0  0  0  0
   -0.7245   -1.4231   -1.5477 H   0  0  0  0  0  0  0  0  0  0  0  0
   -1.2093   -2.3650   -0.0798 H   0  0  0  0  0  0  0  0  0  0  0  0
   -0.2894    1.7777    1.3799 H   0  0  0  0  0  0  0  0  0  0  0  0
    1.9609    2.2432    2.2703 H   0  0  0  0  0  0  0  0  0  0  0  0
    4.1623   -0.9200    3.5414 H   0  0  0  0  0  0  0  0  0  0  0  0
    5.2679   -1.1191    2.1654 H   0  0  0  0  0  0  0  0  0  0  0  0
    5.6245    0.0436    3.4710 H   0  0  0  0  0  0  0  0  0  0  0  0
    7.2672   -0.0428    0.4889 H   0  0  0  0  0  0  0  0  0  0  0  0
    7.7352   -1.4113   -1.5421 H   0  0  0  0  0  0  0  0  0  0  0  0
    4.1093   -0.0218   -3.3596 H   0  0  0  0  0  0  0  0  0  0  0  0
    3.6040    1.3577   -1.3456 H   0  0  0  0  0  0  0  0  0  0  0  0
    3.2949   -1.6001    0.8475 H   0  0  0  0  0  0  0  0  0  0  0  0
    1.0801   -2.0647   -0.0309 H   0  0  0  0  0  0  0  0  0  0  0  0
   -5.3920   -1.6343   -2.2098 H   0  0  0  0  0  0  0  0  0  0  0  0
   -7.7392   -1.0259   -2.3978 H   0  0  0  0  0  0  0  0  0  0  0  0
  1  2  1  0
  2  3  2  0
  3  4  1  0
  4  5  2  0
  5  6  1  0
  6  7  1  0
  7  8  2  0
  7  9  1  0
  9 10  1  0
 10 11  1  0
 11 12  2  0
 12 13  1  0
 13 14  2  0
 14 15  1  0
 15 16  1  0
 15 17  1  0
 17 18  2  0
 17 19  2  0
 17 20  1  0
 20 21  2  0
 21 22  1  0
 22 23  2  0
 23 24  1  0
 23 25  1  0
 25 26  2  0
 14 27  1  0
 27 28  2  0
  5 29  1  0
 29 30  2  0
 30  2  1  0
 28 11  1  0
 26 20  1  0
  1 31  1  0
  1 32  1  0
  1 33  1  0
  3 34  1  0
  4 35  1  0
  6 36  1  0
  9 37  1  0
  9 38  1  0
 12 39  1  0
 13 40  1  0
 16 41  1  0
 16 42  1  0
 16 43  1  0
 21 44  1  0
 22 45  1  0
 25 46  1  0
 26 47  1  0
 27 48  1  0
 28 49  1  0
 29 50  1  0
 30 51  1  0
M  END
$$$$
