
     RDKit          3D

 47 48  0  0  0  0  0  0  0  0999 V2000
    5.9617   -1.7621    0.9089 C   0  0  0  0  0  0  0  0  0  0  0  0
    6.6525   -0.8061    0.1183 O   0  0  0  0  0  0  0  0  0  0  0  0
    5.9020    0.0580   -0.6350 C   0  0  0  0  0  0  0  0  0  0  0  0
    4.5032    0.1070   -0.6473 C   0  0  0  0  0  0  0  0  0  0  0  0
    3.8229    1.0297   -1.4599 C   0  0  0  0  0  0  0  0  0  0  0  0
    2.3552    1.1256   -1.4711 C   0  0  0  0  0  0  0  0  0  0  0  0
    1.5533    0.0506   -1.4871 C   0  0  0  0  0  0  0  0  0  0  0  0
    0.0634    0.1036   -1.5017 C   0  0  0  0  0  0  0  0  0  0  0  0
   -0.5453   -0.9644   -1.4532 O   0  0  0  0  0  0  0  0  0  0  0  0
   -0.6318    1.4408   -1.5405 C   0  0  0  0  0  0  0  0  0  0  0  0
   -2.1265    1.3555   -1.7184 C   0  0  0  0  0  0  0  0  0  0  0  0
   -2.6570    1.6845   -2.7816 O   0  0  0  0  0  0  0  0  0  0  0  0
   -3.0095    0.9123   -0.6035 C   0  0  0  0  0  0  0  0  0  0  0  0
   -2.5963    0.6148    0.6369 C   0  0  0  0  0  0  0  0  0  0  0  0
   -3.5207    0.1769    1.6917 C   0  0  0  0  0  0  0  0  0  0  0  0
   -3.4233    0.7597    2.9626 C   0  0  0  0  0  0  0  0  0  0  0  0
   -4.2698    0.3501    3.9920 C   0  0  0  0  0  0  0  0  0  0  0  0
   -5.2018   -0.6492    3.7471 C   0  0  0  0  0  0  0  0  0  0  0  0
   -6.0203   -1.0339    4.7741 O   0  0  0  0  0  0  0  0  0  0  0  0
   -5.3107   -1.2599    2.4931 C   0  0  0  0  0  0  0  0  0  0  0  0
   -6.2699   -2.2366    2.4071 O   0  0  0  0  0  0  0  0  0  0  0  0
   -6.4024   -2.8906    1.1497 C   0  0  0  0  0  0  0  0  0  0  0  0
   -4.4610   -0.8442    1.4663 C   0  0  0  0  0  0  0  0  0  0  0  0
    4.5607    1.9250   -2.2438 C   0  0  0  0  0  0  0  0  0  0  0  0
    5.9556    1.8866   -2.2397 C   0  0  0  0  0  0  0  0  0  0  0  0
    6.6161    0.9559   -1.4397 C   0  0  0  0  0  0  0  0  0  0  0  0
    7.9850    0.9163   -1.4335 O   0  0  0  0  0  0  0  0  0  0  0  0
    5.3493   -2.4230    0.2865 H   0  0  0  0  0  0  0  0  0  0  0  0
    5.3579   -1.2732    1.6805 H   0  0  0  0  0  0  0  0  0  0  0  0
    6.7090   -2.3809    1.4149 H   0  0  0  0  0  0  0  0  0  0  0  0
    3.9247   -0.5610   -0.0180 H   0  0  0  0  0  0  0  0  0  0  0  0
    1.9630    2.1385   -1.4869 H   0  0  0  0  0  0  0  0  0  0  0  0
    1.9517   -0.9605   -1.4977 H   0  0  0  0  0  0  0  0  0  0  0  0
   -0.4097    2.0085   -0.6313 H   0  0  0  0  0  0  0  0  0  0  0  0
   -0.2431    2.0113   -2.3928 H   0  0  0  0  0  0  0  0  0  0  0  0
   -4.0586    0.8551   -0.8812 H   0  0  0  0  0  0  0  0  0  0  0  0
   -1.5563    0.6852    0.9386 H   0  0  0  0  0  0  0  0  0  0  0  0
   -2.6953    1.5428    3.1603 H   0  0  0  0  0  0  0  0  0  0  0  0
   -4.2041    0.8036    4.9763 H   0  0  0  0  0  0  0  0  0  0  0  0
   -6.5855   -1.7353    4.3952 H   0  0  0  0  0  0  0  0  0  0  0  0
   -5.4820   -3.4196    0.8812 H   0  0  0  0  0  0  0  0  0  0  0  0
   -6.6974   -2.1842    0.3668 H   0  0  0  0  0  0  0  0  0  0  0  0
   -7.1988   -3.6351    1.2434 H   0  0  0  0  0  0  0  0  0  0  0  0
   -4.5019   -1.3079    0.4859 H   0  0  0  0  0  0  0  0  0  0  0  0
    4.0568    2.6554   -2.8735 H   0  0  0  0  0  0  0  0  0  0  0  0
    6.5072    2.5849   -2.8614 H   0  0  0  0  0  0  0  0  0  0  0  0
    8.3279    1.5893   -2.0413 H   0  0  0  0  0  0  0  0  0  0  0  0
  1  2  1  0
  2  3  1  0
  3  4  2  0
  4  5  1  0
  5  6  1  0
  6  7  2  3
  7  8  1  0
  8  9  2  0
  8 10  1  0
 10 11  1  0
 11 12  2  0
 11 13  1  0
 13 14  2  3
 14 15  1  0
 15 16  2  0
 16 17  1  0
 17 18  2  0
 18 19  1  0
 18 20  1  0
 20 21  1  0
 21 22  1  0
 20 23  2  0
  5 24  2  0
 24 25  1  0
 25 26  2  0
 26 27  1  0
 26  3  1  0
 23 15  1  0
  1 28  1  0
  1 29  1  0
  1 30  1  0
  4 31  1  0
  6 32  1  0
  7 33  1  0
 10 34  1  0
 10 35  1  0
 13 36  1  0
 14 37  1  0
 16 38  1  0
 17 39  1  0
 19 40  1  0
 22 41  1  0
 22 42  1  0
 22 43  1  0
 23 44  1  0
 24 45  1  0
 25 46  1  0
 27 47  1  0
M  END
$$$$
