
     RDKit          3D

 49 53  0  0  0  0  0  0  0  0999 V2000
    6.0948   -1.7642    1.5973 C   0  0  0  0  0  0  0  0  0  0  0  0
    4.7019   -1.4163    2.0245 C   0  0  0  0  0  0  0  0  0  0  0  0
    3.8789   -2.4726    3.0812 S   0  0  0  0  0  0  0  0  0  0  0  0
    2.4902   -1.4964    3.0900 C   0  0  0  0  0  0  0  0  0  0  0  0
    1.4240   -1.8706    3.8164 N   0  0  0  0  0  0  0  0  0  0  0  0
    0.4103   -1.0131    3.7258 C   0  0  0  0  0  0  0  0  0  0  0  0
    0.3652    0.1171    3.0125 N   0  0  0  0  0  0  0  0  0  0  0  0
    1.4645    0.4631    2.3009 C   0  0  0  0  0  0  0  0  0  0  0  0
    1.4007    1.9913    1.4116 S   0  0  0  0  0  0  0  0  0  0  0  0
   -0.2261    1.7960    0.5670 C   0  0  0  0  0  0  0  0  0  0  0  0
   -0.4700    3.0520   -0.2682 C   0  0  0  0  0  0  0  0  0  0  0  0
   -0.2484    0.5449   -0.3548 C   0  0  0  0  0  0  0  0  0  0  0  0
    0.8127    0.0051   -0.6864 O   0  0  0  0  0  0  0  0  0  0  0  0
   -1.5092    0.2099   -0.9082 N   0  0  0  0  0  0  0  0  0  0  0  0
   -2.7478    0.3961   -0.1988 C   0  0  0  0  0  0  0  0  0  0  0  0
   -2.8035    0.1307    1.1809 C   0  0  0  0  0  0  0  0  0  0  0  0
   -3.9880    0.2879    1.9073 C   0  0  0  0  0  0  0  0  0  0  0  0
   -5.1490    0.6949    1.2604 C   0  0  0  0  0  0  0  0  0  0  0  0
   -5.1272    0.9229   -0.1140 C   0  0  0  0  0  0  0  0  0  0  0  0
   -3.9416    0.7554   -0.8465 C   0  0  0  0  0  0  0  0  0  0  0  0
   -3.9960    1.0281   -2.5982 S   0  0  0  0  0  0  0  0  0  0  0  0
   -2.7155   -0.1217   -3.0635 C   0  0  0  0  0  0  0  0  0  0  0  0
   -2.8053   -0.7023   -4.3430 C   0  0  0  0  0  0  0  0  0  0  0  0
   -1.8206   -1.5786   -4.7969 C   0  0  0  0  0  0  0  0  0  0  0  0
   -0.7396   -1.8729   -3.9752 C   0  0  0  0  0  0  0  0  0  0  0  0
   -0.6409   -1.2873   -2.7038 C   0  0  0  0  0  0  0  0  0  0  0  0
   -1.6206   -0.3996   -2.2175 C   0  0  0  0  0  0  0  0  0  0  0  0
    2.6128   -0.3542    2.3075 C   0  0  0  0  0  0  0  0  0  0  0  0
    3.9321   -0.3076    1.6814 C   0  0  0  0  0  0  0  0  0  0  0  0
    4.4065    0.7828    0.7702 C   0  0  0  0  0  0  0  0  0  0  0  0
    6.2317   -1.5754    0.5247 H   0  0  0  0  0  0  0  0  0  0  0  0
    6.8190   -1.1558    2.1553 H   0  0  0  0  0  0  0  0  0  0  0  0
    6.3293   -2.8220    1.7727 H   0  0  0  0  0  0  0  0  0  0  0  0
   -0.4831   -1.2639    4.2890 H   0  0  0  0  0  0  0  0  0  0  0  0
   -0.9699    1.7453    1.3598 H   0  0  0  0  0  0  0  0  0  0  0  0
   -0.4618    3.9549    0.3530 H   0  0  0  0  0  0  0  0  0  0  0  0
   -1.4441    3.0144   -0.7680 H   0  0  0  0  0  0  0  0  0  0  0  0
    0.2848    3.1615   -1.0545 H   0  0  0  0  0  0  0  0  0  0  0  0
   -1.9305   -0.2456    1.7097 H   0  0  0  0  0  0  0  0  0  0  0  0
   -4.0037    0.0772    2.9738 H   0  0  0  0  0  0  0  0  0  0  0  0
   -6.0750    0.8140    1.8191 H   0  0  0  0  0  0  0  0  0  0  0  0
   -6.0475    1.2196   -0.6153 H   0  0  0  0  0  0  0  0  0  0  0  0
   -3.6459   -0.4708   -4.9958 H   0  0  0  0  0  0  0  0  0  0  0  0
   -1.8966   -2.0288   -5.7873 H   0  0  0  0  0  0  0  0  0  0  0  0
    0.0315   -2.5643   -4.3132 H   0  0  0  0  0  0  0  0  0  0  0  0
    0.2077   -1.5873   -2.0939 H   0  0  0  0  0  0  0  0  0  0  0  0
    3.7933    0.8192   -0.1373 H   0  0  0  0  0  0  0  0  0  0  0  0
    5.4447    0.6348    0.4578 H   0  0  0  0  0  0  0  0  0  0  0  0
    4.3706    1.7526    1.2755 H   0  0  0  0  0  0  0  0  0  0  0  0
  1  2  1  0
  2  3  1  0
  3  4  1  0
  4  5  2  0
  5  6  1  0
  6  7  2  0
  7  8  1  0
  8  9  1  0
  9 10  1  0
 10 11  1  0
 10 12  1  0
 12 13  2  0
 12 14  1  0
 14 15  1  0
 15 16  2  0
 16 17  1  0
 17 18  2  0
 18 19  1  0
 19 20  2  0
 20 21  1  0
 21 22  1  0
 22 23  2  0
 23 24  1  0
 24 25  2  0
 25 26  1  0
 26 27  2  0
  8 28  2  0
 28 29  1  0
 29 30  1  0
 29  2  2  0
 28  4  1  0
 27 14  1  0
 20 15  1  0
 27 22  1  0
  1 31  1  0
  1 32  1  0
  1 33  1  0
  6 34  1  0
 10 35  1  0
 11 36  1  0
 11 37  1  0
 11 38  1  0
 16 39  1  0
 17 40  1  0
 18 41  1  0
 19 42  1  0
 23 43  1  0
 24 44  1  0
 25 45  1  0
 26 46  1  0
 30 47  1  0
 30 48  1  0
 30 49  1  0
M  END
$$$$
