
     RDKit          3D

 57 59  0  0  0  0  0  0  0  0999 V2000
   -4.5155   -2.8314    1.1830 C   0  0  0  0  0  0  0  0  0  0  0  0
   -4.2719   -2.6781   -0.3145 C   0  0  0  0  0  0  0  0  0  0  0  0
   -4.0090   -1.2862   -0.7289 N   0  0  0  0  0  0  0  0  0  0  0  0
   -4.1425   -1.1309   -2.1897 C   0  0  0  0  0  0  0  0  0  0  0  0
   -3.0941   -1.8403   -3.0467 C   0  0  0  0  0  0  0  0  0  0  0  0
   -2.7370   -0.7763   -0.1836 C   0  0  0  0  0  0  0  0  0  0  0  0
   -2.4314    0.6995   -0.4992 C   0  0  0  0  0  0  0  0  0  0  0  0
   -1.2718    1.0781    0.2544 O   0  0  0  0  0  0  0  0  0  0  0  0
   -0.8766    2.3898    0.2191 C   0  0  0  0  0  0  0  0  0  0  0  0
   -1.3649    3.3649   -0.5846 C   0  0  0  0  0  0  0  0  0  0  0  0
   -0.7983    4.7547   -0.4347 C   0  0  2  0  0  0  0  0  0  0  0  0
   -0.9488    5.5850   -1.5764 O   0  0  0  0  0  0  0  0  0  0  0  0
   -0.0847    6.6433   -1.3888 C   0  0  0  0  0  0  0  0  0  0  0  0
   -0.1034    7.6575   -2.0692 O   0  0  0  0  0  0  0  0  0  0  0  0
    1.1112    6.3942   -0.0965 S   0  0  0  0  0  0  0  0  0  0  0  0
    0.7074    4.6612   -0.1552 C   0  0  1  0  0  0  0  0  0  0  0  0
    0.9639    3.8143    1.0405 C   0  0  0  0  0  0  0  0  0  0  0  0
    0.1902    2.7108    1.1828 C   0  0  0  0  0  0  0  0  0  0  0  0
    0.4315    1.8716    2.3858 C   0  0  0  0  0  0  0  0  0  0  0  0
   -0.0672    2.1652    3.4714 O   0  0  0  0  0  0  0  0  0  0  0  0
    1.3478    0.7044    2.2779 C   0  0  0  0  0  0  0  0  0  0  0  0
    1.9502    0.2903    1.1528 C   0  0  0  0  0  0  0  0  0  0  0  0
    2.8933   -0.8382    1.1151 C   0  0  0  0  0  0  0  0  0  0  0  0
    2.6891   -2.0134    1.8458 C   0  0  0  0  0  0  0  0  0  0  0  0
    3.6128   -3.0626    1.7724 C   0  0  0  0  0  0  0  0  0  0  0  0
    4.7458   -2.9630    0.9625 C   0  0  0  0  0  0  0  0  0  0  0  0
    5.5683   -4.0563    0.9869 O   0  0  0  0  0  0  0  0  0  0  0  0
    6.7186   -4.0164    0.1531 C   0  0  0  0  0  0  0  0  0  0  0  0
    4.9440   -1.8026    0.2163 C   0  0  0  0  0  0  0  0  0  0  0  0
    4.0190   -0.7509    0.2874 C   0  0  0  0  0  0  0  0  0  0  0  0
   -4.8773   -3.8425    1.3959 H   0  0  0  0  0  0  0  0  0  0  0  0
   -5.2685   -2.1243    1.5394 H   0  0  0  0  0  0  0  0  0  0  0  0
   -3.5990   -2.6847    1.7648 H   0  0  0  0  0  0  0  0  0  0  0  0
   -5.1793   -3.0380   -0.8168 H   0  0  0  0  0  0  0  0  0  0  0  0
   -3.4580   -3.3463   -0.6152 H   0  0  0  0  0  0  0  0  0  0  0  0
   -4.1479   -0.0630   -2.4465 H   0  0  0  0  0  0  0  0  0  0  0  0
   -5.1384   -1.4856   -2.4892 H   0  0  0  0  0  0  0  0  0  0  0  0
   -3.0701   -2.9183   -2.8510 H   0  0  0  0  0  0  0  0  0  0  0  0
   -2.0899   -1.4332   -2.8823 H   0  0  0  0  0  0  0  0  0  0  0  0
   -3.3319   -1.7051   -4.1068 H   0  0  0  0  0  0  0  0  0  0  0  0
   -1.8865   -1.4019   -0.4937 H   0  0  0  0  0  0  0  0  0  0  0  0
   -2.7618   -0.8464    0.9110 H   0  0  0  0  0  0  0  0  0  0  0  0
   -2.2298    0.8328   -1.5667 H   0  0  0  0  0  0  0  0  0  0  0  0
   -3.2835    1.3187   -0.1958 H   0  0  0  0  0  0  0  0  0  0  0  0
   -2.1554    3.2031   -1.3055 H   0  0  0  0  0  0  0  0  0  0  0  0
   -1.3644    5.2279    0.3894 H   0  0  0  0  0  0  0  0  0  0  0  0
    1.2499    4.2420   -1.0154 H   0  0  0  0  0  0  0  0  0  0  0  0
    1.7477    4.0673    1.7459 H   0  0  0  0  0  0  0  0  0  0  0  0
    1.5190    0.2078    3.2298 H   0  0  0  0  0  0  0  0  0  0  0  0
    1.7926    0.7939    0.2034 H   0  0  0  0  0  0  0  0  0  0  0  0
    1.8116   -2.1372    2.4750 H   0  0  0  0  0  0  0  0  0  0  0  0
    3.4447   -3.9680    2.3533 H   0  0  0  0  0  0  0  0  0  0  0  0
    7.3988   -3.2089    0.4497 H   0  0  0  0  0  0  0  0  0  0  0  0
    7.2559   -4.9641    0.2752 H   0  0  0  0  0  0  0  0  0  0  0  0
    6.4343   -3.9309   -0.9006 H   0  0  0  0  0  0  0  0  0  0  0  0
    5.8100   -1.6782   -0.4296 H   0  0  0  0  0  0  0  0  0  0  0  0
    4.2015    0.1453   -0.3018 H   0  0  0  0  0  0  0  0  0  0  0  0
  1  2  1  0
  2  3  1  0
  3  4  1  0
  4  5  1  0
  3  6  1  0
  6  7  1  0
  7  8  1  0
  8  9  1  0
  9 10  2  0
 10 11  1  0
 11 12  1  0
 12 13  1  0
 13 14  2  0
 13 15  1  0
 15 16  1  0
 16 17  1  0
 17 18  2  0
 18 19  1  0
 19 20  2  0
 19 21  1  0
 21 22  2  0
 22 23  1  0
 23 24  2  0
 24 25  1  0
 25 26  2  0
 26 27  1  0
 27 28  1  0
 26 29  1  0
 29 30  2  0
 18  9  1  0
 30 23  1  0
 16 11  1  0
  1 31  1  0
  1 32  1  0
  1 33  1  0
  2 34  1  0
  2 35  1  0
  4 36  1  0
  4 37  1  0
  5 38  1  0
  5 39  1  0
  5 40  1  0
  6 41  1  0
  6 42  1  0
  7 43  1  0
  7 44  1  0
 10 45  1  0
 11 46  1  1
 16 47  1  6
 17 48  1  0
 21 49  1  0
 22 50  1  0
 24 51  1  0
 25 52  1  0
 28 53  1  0
 28 54  1  0
 28 55  1  0
 29 56  1  0
 30 57  1  0
M  END
$$$$
