
     RDKit          3D

 33 34  0  0  0  0  0  0  0  0999 V2000
   -4.7653   -1.2692    0.3504 C   0  0  0  0  0  0  0  0  0  0  0  0
   -3.7018   -0.6218   -0.4869 C   0  0  0  0  0  0  0  0  0  0  0  0
   -4.0189   -0.0497   -1.7233 C   0  0  0  0  0  0  0  0  0  0  0  0
   -3.0358    0.5890   -2.4831 C   0  0  0  0  0  0  0  0  0  0  0  0
   -1.7246    0.6640   -2.0090 C   0  0  0  0  0  0  0  0  0  0  0  0
   -0.7879    1.3295   -2.7489 O   0  0  0  0  0  0  0  0  0  0  0  0
   -1.3878    0.0950   -0.7768 C   0  0  0  0  0  0  0  0  0  0  0  0
   -0.0133    0.1300   -0.2053 C   0  0  0  0  0  0  0  0  0  0  0  0
    0.1079    0.2065    1.0165 O   0  0  0  0  0  0  0  0  0  0  0  0
    1.1691    0.0607   -1.1419 C   0  0  0  0  0  0  0  0  0  0  0  0
    2.3971   -0.6208   -0.5887 C   0  0  0  0  0  0  0  0  0  0  0  0
    2.9981   -1.4891   -1.2197 O   0  0  0  0  0  0  0  0  0  0  0  0
    2.9650   -0.1565    0.6941 C   0  0  0  0  0  0  0  0  0  0  0  0
    3.4116    1.1690    0.7877 C   0  0  0  0  0  0  0  0  0  0  0  0
    3.9742    1.6298    1.9788 C   0  0  0  0  0  0  0  0  0  0  0  0
    4.0935    0.7718    3.0717 C   0  0  0  0  0  0  0  0  0  0  0  0
    3.6500   -0.5495    2.9771 C   0  0  0  0  0  0  0  0  0  0  0  0
    3.0852   -1.0200    1.7878 C   0  0  0  0  0  0  0  0  0  0  0  0
    2.5222   -2.6524    1.7524 Cl  0  0  0  0  0  0  0  0  0  0  0  0
   -2.3863   -0.5306   -0.0132 C   0  0  0  0  0  0  0  0  0  0  0  0
   -5.5485   -1.7036   -0.2797 H   0  0  0  0  0  0  0  0  0  0  0  0
   -5.2180   -0.5292    1.0175 H   0  0  0  0  0  0  0  0  0  0  0  0
   -4.3464   -2.0815    0.9535 H   0  0  0  0  0  0  0  0  0  0  0  0
   -5.0391   -0.0930   -2.1004 H   0  0  0  0  0  0  0  0  0  0  0  0
   -3.3170    1.0292   -3.4356 H   0  0  0  0  0  0  0  0  0  0  0  0
   -1.2027    1.6657   -3.5622 H   0  0  0  0  0  0  0  0  0  0  0  0
    0.8796   -0.5153   -2.0291 H   0  0  0  0  0  0  0  0  0  0  0  0
    1.4433    1.0719   -1.4580 H   0  0  0  0  0  0  0  0  0  0  0  0
    3.3371    1.8433   -0.0612 H   0  0  0  0  0  0  0  0  0  0  0  0
    4.3212    2.6577    2.0554 H   0  0  0  0  0  0  0  0  0  0  0  0
    4.5292    1.1315    4.0010 H   0  0  0  0  0  0  0  0  0  0  0  0
    3.7410   -1.2073    3.8380 H   0  0  0  0  0  0  0  0  0  0  0  0
   -2.1318   -0.9550    0.9578 H   0  0  0  0  0  0  0  0  0  0  0  0
  1  2  1  0
  2  3  2  0
  3  4  1  0
  4  5  2  0
  5  6  1  0
  5  7  1  0
  7  8  1  0
  8  9  2  0
  8 10  1  0
 10 11  1  0
 11 12  2  0
 11 13  1  0
 13 14  2  0
 14 15  1  0
 15 16  2  0
 16 17  1  0
 17 18  2  0
 18 19  1  0
  7 20  2  0
 20  2  1  0
 18 13  1  0
  1 21  1  0
  1 22  1  0
  1 23  1  0
  3 24  1  0
  4 25  1  0
  6 26  1  0
 10 27  1  0
 10 28  1  0
 14 29  1  0
 15 30  1  0
 16 31  1  0
 17 32  1  0
 20 33  1  0
M  END
$$$$
