
     RDKit          3D

 39 42  0  0  0  0  0  0  0  0999 V2000
   -7.2990   -1.2193   -0.3381 O   0  0  0  0  0  0  0  0  0  0  0  0
   -6.2687   -1.1982    0.3131 C   0  0  0  0  0  0  0  0  0  0  0  0
   -5.2634   -2.0551    0.0560 O   0  0  0  0  0  0  0  0  0  0  0  0
   -5.9537   -0.2530    1.4315 C   0  0  0  0  0  0  0  0  0  0  0  0
   -5.3047    1.0202    0.9026 C   0  0  0  0  0  0  0  0  0  0  0  0
   -3.8757    0.8574    0.6095 N   0  0  0  0  0  0  0  0  0  0  0  0
   -3.4867    0.5421   -0.6811 C   0  0  0  0  0  0  0  0  0  0  0  0
   -4.2347    0.3950   -1.6392 O   0  0  0  0  0  0  0  0  0  0  0  0
   -2.0081    0.3956   -0.7640 C   0  0  0  0  0  0  0  0  0  0  0  0
   -1.4301    0.0986   -1.9357 C   0  0  0  0  0  0  0  0  0  0  0  0
   -0.0341   -0.0697   -2.1582 C   0  0  0  0  0  0  0  0  0  0  0  0
    0.6046   -0.3712   -3.3534 C   0  0  0  0  0  0  0  0  0  0  0  0
    1.9954   -0.4411   -3.0991 C   0  0  0  0  0  0  0  0  0  0  0  0
    2.1771   -0.1807   -1.7524 C   0  0  0  0  0  0  0  0  0  0  0  0
    3.3867   -0.1264   -0.9709 C   0  0  0  0  0  0  0  0  0  0  0  0
    3.3713    0.1395    0.3176 N   0  0  0  0  0  0  0  0  0  0  0  0
    4.6588    0.1304    0.8233 C   0  0  0  0  0  0  0  0  0  0  0  0
    5.0221    0.3736    2.1633 C   0  0  0  0  0  0  0  0  0  0  0  0
    6.3692    0.3323    2.5375 C   0  0  0  0  0  0  0  0  0  0  0  0
    7.3537    0.0524    1.5951 C   0  0  0  0  0  0  0  0  0  0  0  0
    7.0192   -0.1925    0.2594 C   0  0  0  0  0  0  0  0  0  0  0  0
    5.6630   -0.1483   -0.1047 C   0  0  0  0  0  0  0  0  0  0  0  0
    4.9418   -0.4015   -1.6463 S   0  0  0  0  0  0  0  0  0  0  0  0
    0.9418    0.0411   -1.2003 O   0  0  0  0  0  0  0  0  0  0  0  0
   -1.3138    0.6606    0.7815 S   0  0  0  0  0  0  0  0  0  0  0  0
   -2.8666    0.9563    1.5460 C   0  0  0  0  0  0  0  0  0  0  0  0
   -3.0056    1.3026    3.1728 S   0  0  0  0  0  0  0  0  0  0  0  0
   -5.5783   -2.5596   -0.7248 H   0  0  0  0  0  0  0  0  0  0  0  0
   -6.9049   -0.0112    1.9203 H   0  0  0  0  0  0  0  0  0  0  0  0
   -5.3399   -0.7646    2.1801 H   0  0  0  0  0  0  0  0  0  0  0  0
   -5.4166    1.8156    1.6470 H   0  0  0  0  0  0  0  0  0  0  0  0
   -5.8188    1.3630   -0.0034 H   0  0  0  0  0  0  0  0  0  0  0  0
   -2.0685   -0.0285   -2.8084 H   0  0  0  0  0  0  0  0  0  0  0  0
    0.1151   -0.5234   -4.3062 H   0  0  0  0  0  0  0  0  0  0  0  0
    2.7716   -0.6571   -3.8202 H   0  0  0  0  0  0  0  0  0  0  0  0
    4.2494    0.5915    2.8941 H   0  0  0  0  0  0  0  0  0  0  0  0
    6.6445    0.5207    3.5727 H   0  0  0  0  0  0  0  0  0  0  0  0
    8.3979    0.0234    1.8999 H   0  0  0  0  0  0  0  0  0  0  0  0
    7.7888   -0.4107   -0.4746 H   0  0  0  0  0  0  0  0  0  0  0  0
  1  2  2  0
  2  3  1  0
  2  4  1  0
  4  5  1  0
  5  6  1  0
  6  7  1  0
  7  8  2  0
  7  9  1  0
  9 10  2  3
 10 11  1  0
 11 12  2  0
 12 13  1  0
 13 14  2  0
 14 15  1  0
 15 16  2  0
 16 17  1  0
 17 18  2  0
 18 19  1  0
 19 20  2  0
 20 21  1  0
 21 22  2  0
 22 23  1  0
 14 24  1  0
  9 25  1  0
 25 26  1  0
 26 27  2  0
 26  6  1  0
 24 11  1  0
 23 15  1  0
 22 17  1  0
  3 28  1  0
  4 29  1  0
  4 30  1  0
  5 31  1  0
  5 32  1  0
 10 33  1  0
 12 34  1  0
 13 35  1  0
 18 36  1  0
 19 37  1  0
 20 38  1  0
 21 39  1  0
M  END
$$$$
