
     RDKit          3D

 39 40  0  0  0  0  0  0  0  0999 V2000
   -1.8101   -1.6459   -1.6171 C   0  0  0  0  0  0  0  0  0  0  0  0
   -2.5666   -0.5603   -0.8760 C   0  0  0  0  0  0  0  0  0  0  0  0
   -1.9870    0.2234    0.0554 C   0  0  0  0  0  0  0  0  0  0  0  0
   -0.5372    0.1708    0.3981 C   0  0  0  0  0  0  0  0  0  0  0  0
    0.4036   -0.0881   -0.4508 N   0  0  0  0  0  0  0  0  0  0  0  0
    1.6692   -0.0493    0.0512 N   0  0  0  0  0  0  0  0  0  0  0  0
    2.7530   -0.3590   -0.7502 C   0  0  0  0  0  0  0  0  0  0  0  0
    2.6700   -0.7166   -1.9232 O   0  0  0  0  0  0  0  0  0  0  0  0
    4.1035   -0.2454   -0.1087 C   0  0  0  0  0  0  0  0  0  0  0  0
    5.2163   -0.5638   -0.9062 C   0  0  0  0  0  0  0  0  0  0  0  0
    6.5059   -0.4815   -0.3834 C   0  0  0  0  0  0  0  0  0  0  0  0
    7.9906   -0.9142   -1.4704 Br  0  0  0  0  0  0  0  0  0  0  0  0
    6.7110   -0.0827    0.9349 C   0  0  0  0  0  0  0  0  0  0  0  0
    5.6171    0.2372    1.7399 C   0  0  0  0  0  0  0  0  0  0  0  0
    4.3203    0.1565    1.2211 C   0  0  0  0  0  0  0  0  0  0  0  0
    3.2678    0.4779    2.0408 O   0  0  0  0  0  0  0  0  0  0  0  0
   -2.8262    1.1722    0.8254 C   0  0  0  0  0  0  0  0  0  0  0  0
   -2.3345    1.7764    1.7797 O   0  0  0  0  0  0  0  0  0  0  0  0
   -4.1362    1.3166    0.4270 N   0  0  0  0  0  0  0  0  0  0  0  0
   -4.9716    2.2648    1.1398 C   0  0  0  0  0  0  0  0  0  0  0  0
   -4.7512    0.5135   -0.5202 C   0  0  0  0  0  0  0  0  0  0  0  0
   -5.9589    0.6006   -0.7516 O   0  0  0  0  0  0  0  0  0  0  0  0
   -3.9269   -0.4043   -1.1749 N   0  0  0  0  0  0  0  0  0  0  0  0
   -4.5559   -1.2231   -2.2116 C   0  0  0  0  0  0  0  0  0  0  0  0
   -1.5097   -1.2923   -2.6085 H   0  0  0  0  0  0  0  0  0  0  0  0
   -0.9229   -1.9948   -1.0835 H   0  0  0  0  0  0  0  0  0  0  0  0
   -2.4170   -2.5493   -1.7367 H   0  0  0  0  0  0  0  0  0  0  0  0
   -0.3031    0.4156    1.4505 H   0  0  0  0  0  0  0  0  0  0  0  0
    1.8340    0.2401    1.0143 H   0  0  0  0  0  0  0  0  0  0  0  0
    5.0703   -0.8763   -1.9392 H   0  0  0  0  0  0  0  0  0  0  0  0
    7.7170   -0.0184    1.3429 H   0  0  0  0  0  0  0  0  0  0  0  0
    5.7979    0.5457    2.7660 H   0  0  0  0  0  0  0  0  0  0  0  0
    3.6177    0.7591    2.9065 H   0  0  0  0  0  0  0  0  0  0  0  0
   -4.3757    3.0441    1.6233 H   0  0  0  0  0  0  0  0  0  0  0  0
   -5.5356    1.7208    1.9043 H   0  0  0  0  0  0  0  0  0  0  0  0
   -5.6790    2.7407    0.4534 H   0  0  0  0  0  0  0  0  0  0  0  0
   -3.9429   -1.2153   -3.1182 H   0  0  0  0  0  0  0  0  0  0  0  0
   -4.6708   -2.2444   -1.8358 H   0  0  0  0  0  0  0  0  0  0  0  0
   -5.5465   -0.8511   -2.4883 H   0  0  0  0  0  0  0  0  0  0  0  0
  1  2  1  0
  2  3  2  0
  3  4  1  0
  4  5  2  3
  5  6  1  0
  6  7  1  0
  7  8  2  0
  7  9  1  0
  9 10  2  0
 10 11  1  0
 11 12  1  0
 11 13  2  0
 13 14  1  0
 14 15  2  0
 15 16  1  0
  3 17  1  0
 17 18  2  0
 17 19  1  0
 19 20  1  0
 19 21  1  0
 21 22  2  0
 21 23  1  0
 23 24  1  0
 23  2  1  0
 15  9  1  0
  1 25  1  0
  1 26  1  0
  1 27  1  0
  4 28  1  0
  6 29  1  0
 10 30  1  0
 13 31  1  0
 14 32  1  0
 16 33  1  0
 20 34  1  0
 20 35  1  0
 20 36  1  0
 24 37  1  0
 24 38  1  0
 24 39  1  0
M  END
$$$$
