
     RDKit          3D

 51 53  0  0  0  0  0  0  0  0999 V2000
    8.1086   -2.1794   -1.1265 C   0  0  0  0  0  0  0  0  0  0  0  0
    8.7145   -0.9838   -0.6502 O   0  0  0  0  0  0  0  0  0  0  0  0
    7.8749    0.0037   -0.2097 C   0  0  0  0  0  0  0  0  0  0  0  0
    8.5232    1.1525    0.2478 C   0  0  0  0  0  0  0  0  0  0  0  0
    7.7888    2.2356    0.7249 C   0  0  0  0  0  0  0  0  0  0  0  0
    6.3960    2.1724    0.7458 C   0  0  0  0  0  0  0  0  0  0  0  0
    5.7304    1.0283    0.2906 C   0  0  0  0  0  0  0  0  0  0  0  0
    4.3259    1.0435    0.3445 N   0  0  0  0  0  0  0  0  0  0  0  0
    3.4472    0.0540   -0.0408 C   0  0  0  0  0  0  0  0  0  0  0  0
    3.6778   -1.0517   -0.5124 O   0  0  0  0  0  0  0  0  0  0  0  0
    1.9814    0.4662    0.1809 C   0  0  0  0  0  0  0  0  0  0  0  0
    1.7366    1.5668    0.6581 O   0  0  0  0  0  0  0  0  0  0  0  0
    1.0993   -0.5210   -0.2125 N   0  0  0  0  0  0  0  0  0  0  0  0
   -0.2455   -0.3378   -0.0947 N   0  0  0  0  0  0  0  0  0  0  0  0
   -0.9812   -1.3252   -0.4889 C   0  0  0  0  0  0  0  0  0  0  0  0
   -2.4302   -1.2428   -0.4221 C   0  0  0  0  0  0  0  0  0  0  0  0
   -3.3240   -2.2183   -0.9259 C   0  0  0  0  0  0  0  0  0  0  0  0
   -4.6174   -1.7842   -0.7154 C   0  0  0  0  0  0  0  0  0  0  0  0
   -5.8689   -2.4479   -1.1824 C   0  0  0  0  0  0  0  0  0  0  0  0
   -4.5561   -0.5471   -0.0800 N   0  0  0  0  0  0  0  0  0  0  0  0
   -5.6712    0.2789    0.2496 C   0  0  0  0  0  0  0  0  0  0  0  0
   -6.8067   -0.2719    0.8533 C   0  0  0  0  0  0  0  0  0  0  0  0
   -7.8963    0.5455    1.1668 C   0  0  0  0  0  0  0  0  0  0  0  0
   -7.8600    1.9125    0.8769 C   0  0  0  0  0  0  0  0  0  0  0  0
   -9.2445    2.8584    1.2922 Cl  0  0  0  0  0  0  0  0  0  0  0  0
   -6.7259    2.4649    0.2717 C   0  0  0  0  0  0  0  0  0  0  0  0
   -6.6142    4.1433   -0.1244 Cl  0  0  0  0  0  0  0  0  0  0  0  0
   -5.6324    1.6496   -0.0405 C   0  0  0  0  0  0  0  0  0  0  0  0
   -3.2129   -0.2437    0.1494 C   0  0  0  0  0  0  0  0  0  0  0  0
   -2.7568    0.9363    0.9531 C   0  0  0  0  0  0  0  0  0  0  0  0
    6.4774   -0.0547   -0.1868 C   0  0  0  0  0  0  0  0  0  0  0  0
    8.9089   -2.8584   -1.4365 H   0  0  0  0  0  0  0  0  0  0  0  0
    7.4818   -1.9825   -2.0026 H   0  0  0  0  0  0  0  0  0  0  0  0
    7.5392   -2.6764   -0.3342 H   0  0  0  0  0  0  0  0  0  0  0  0
    9.6094    1.2009    0.2311 H   0  0  0  0  0  0  0  0  0  0  0  0
    8.3014    3.1259    1.0789 H   0  0  0  0  0  0  0  0  0  0  0  0
    5.8411    3.0285    1.1218 H   0  0  0  0  0  0  0  0  0  0  0  0
    3.8747    1.8809    0.7104 H   0  0  0  0  0  0  0  0  0  0  0  0
    1.4867   -1.3841   -0.5909 H   0  0  0  0  0  0  0  0  0  0  0  0
   -0.5530   -2.2551   -0.9038 H   0  0  0  0  0  0  0  0  0  0  0  0
   -3.0550   -3.1388   -1.4301 H   0  0  0  0  0  0  0  0  0  0  0  0
   -6.5744   -1.7301   -1.6114 H   0  0  0  0  0  0  0  0  0  0  0  0
   -5.6430   -3.1799   -1.9659 H   0  0  0  0  0  0  0  0  0  0  0  0
   -6.3510   -2.9878   -0.3623 H   0  0  0  0  0  0  0  0  0  0  0  0
   -6.8476   -1.3224    1.1292 H   0  0  0  0  0  0  0  0  0  0  0  0
   -8.7699    0.1100    1.6470 H   0  0  0  0  0  0  0  0  0  0  0  0
   -4.7711    2.0863   -0.5415 H   0  0  0  0  0  0  0  0  0  0  0  0
   -3.5239    1.2910    1.6471 H   0  0  0  0  0  0  0  0  0  0  0  0
   -1.8971    0.6734    1.5774 H   0  0  0  0  0  0  0  0  0  0  0  0
   -2.4660    1.7589    0.2927 H   0  0  0  0  0  0  0  0  0  0  0  0
    5.9710   -0.9430   -0.5403 H   0  0  0  0  0  0  0  0  0  0  0  0
  1  2  1  0
  2  3  1  0
  3  4  2  0
  4  5  1  0
  5  6  2  0
  6  7  1  0
  7  8  1  0
  8  9  1  0
  9 10  2  0
  9 11  1  0
 11 12  2  0
 11 13  1  0
 13 14  1  0
 14 15  2  3
 15 16  1  0
 16 17  1  0
 17 18  2  0
 18 19  1  0
 18 20  1  0
 20 21  1  0
 21 22  2  0
 22 23  1  0
 23 24  2  0
 24 25  1  0
 24 26  1  0
 26 27  1  0
 26 28  2  0
 20 29  1  0
 29 30  1  0
  7 31  2  0
 31  3  1  0
 29 16  2  0
 28 21  1  0
  1 32  1  0
  1 33  1  0
  1 34  1  0
  4 35  1  0
  5 36  1  0
  6 37  1  0
  8 38  1  0
 13 39  1  0
 15 40  1  0
 17 41  1  0
 19 42  1  0
 19 43  1  0
 19 44  1  0
 22 45  1  0
 23 46  1  0
 28 47  1  0
 30 48  1  0
 30 49  1  0
 30 50  1  0
 31 51  1  0
M  END
$$$$
