
     RDKit          3D

 33 34  0  0  0  0  0  0  0  0999 V2000
   -1.9275   -1.5308   -1.5084 N   0  0  0  0  0  0  0  0  0  0  0  0
   -2.0100   -0.4496   -0.7890 C   0  0  0  0  0  0  0  0  0  0  0  0
   -1.0932    0.5721   -0.8868 N   0  0  0  0  0  0  0  0  0  0  0  0
    0.1543    0.1467   -1.3586 O   0  0  0  0  0  0  0  0  0  0  0  0
    1.0439    1.1886   -1.4620 C   0  0  0  0  0  0  0  0  0  0  0  0
    0.8344    2.3423   -1.0747 O   0  0  0  0  0  0  0  0  0  0  0  0
    2.3312    0.7119   -2.0901 C   0  0  0  0  0  0  0  0  0  0  0  0
    3.3206    0.2187   -1.0635 C   0  0  0  0  0  0  0  0  0  0  0  0
    3.5614   -1.1537   -0.8874 C   0  0  0  0  0  0  0  0  0  0  0  0
    4.4566   -1.5912    0.0940 C   0  0  0  0  0  0  0  0  0  0  0  0
    5.1201   -0.6661    0.9017 C   0  0  0  0  0  0  0  0  0  0  0  0
    4.8818    0.6993    0.7365 C   0  0  0  0  0  0  0  0  0  0  0  0
    3.9875    1.1397   -0.2389 C   0  0  0  0  0  0  0  0  0  0  0  0
   -3.1588   -0.2615    0.1387 C   0  0  0  0  0  0  0  0  0  0  0  0
   -4.4402   -0.2726   -0.4243 C   0  0  0  0  0  0  0  0  0  0  0  0
   -5.5542   -0.0629    0.3877 C   0  0  0  0  0  0  0  0  0  0  0  0
   -5.3946    0.1509    1.7603 C   0  0  0  0  0  0  0  0  0  0  0  0
   -4.1207    0.1555    2.3244 C   0  0  0  0  0  0  0  0  0  0  0  0
   -2.9978   -0.0471    1.5162 C   0  0  0  0  0  0  0  0  0  0  0  0
   -1.4570   -0.0473    2.2822 Cl  0  0  0  0  0  0  0  0  0  0  0  0
   -2.6865   -2.1846   -1.3000 H   0  0  0  0  0  0  0  0  0  0  0  0
   -1.0217    1.2372   -0.1208 H   0  0  0  0  0  0  0  0  0  0  0  0
    2.1039   -0.0530   -2.8456 H   0  0  0  0  0  0  0  0  0  0  0  0
    2.7695    1.5494   -2.6500 H   0  0  0  0  0  0  0  0  0  0  0  0
    3.0512   -1.8961   -1.5088 H   0  0  0  0  0  0  0  0  0  0  0  0
    4.6327   -2.6581    0.2263 H   0  0  0  0  0  0  0  0  0  0  0  0
    5.8135   -1.0088    1.6669 H   0  0  0  0  0  0  0  0  0  0  0  0
    5.3886    1.4195    1.3681 H   0  0  0  0  0  0  0  0  0  0  0  0
    3.8018    2.2096   -0.3441 H   0  0  0  0  0  0  0  0  0  0  0  0
   -4.5674   -0.4220   -1.4973 H   0  0  0  0  0  0  0  0  0  0  0  0
   -6.5474   -0.0646   -0.0513 H   0  0  0  0  0  0  0  0  0  0  0  0
   -6.2639    0.3154    2.3933 H   0  0  0  0  0  0  0  0  0  0  0  0
   -4.0120    0.3132    3.3978 H   0  0  0  0  0  0  0  0  0  0  0  0
  1  2  2  3
  2  3  1  0
  3  4  1  0
  4  5  1  0
  5  6  2  0
  5  7  1  0
  7  8  1  0
  8  9  2  0
  9 10  1  0
 10 11  2  0
 11 12  1  0
 12 13  2  0
  2 14  1  0
 14 15  2  0
 15 16  1  0
 16 17  2  0
 17 18  1  0
 18 19  2  0
 19 20  1  0
 13  8  1  0
 19 14  1  0
  1 21  1  0
  3 22  1  0
  7 23  1  0
  7 24  1  0
  9 25  1  0
 10 26  1  0
 11 27  1  0
 12 28  1  0
 13 29  1  0
 15 30  1  0
 16 31  1  0
 17 32  1  0
 18 33  1  0
M  END
$$$$
