
     RDKit          3D

 48 50  0  0  0  0  0  0  0  0999 V2000
   -2.5655    1.1541    2.8667 C   0  0  0  0  0  0  0  0  0  0  0  0
   -3.1215    1.7789    1.7110 O   0  0  0  0  0  0  0  0  0  0  0  0
   -2.4457    1.4103    0.5751 C   0  0  0  0  0  0  0  0  0  0  0  0
   -1.5803    2.3571    0.0269 C   0  0  0  0  0  0  0  0  0  0  0  0
   -0.8933    2.0718   -1.1525 C   0  0  0  0  0  0  0  0  0  0  0  0
    0.0573    3.0616   -1.6787 C   0  0  0  0  0  0  0  0  0  0  0  0
    1.3414    2.8421   -2.0305 C   0  0  0  0  0  0  0  0  0  0  0  0
    2.1166    3.8980   -2.5877 C   0  0  0  0  0  0  0  0  0  0  0  0
    2.7141    4.8007   -3.0054 N   0  0  0  0  0  0  0  0  0  0  0  0
    2.0080    1.5073   -1.9287 C   0  0  0  0  0  0  0  0  0  0  0  0
    2.5536    1.0369   -2.9193 O   0  0  0  0  0  0  0  0  0  0  0  0
    1.9207    0.9403   -0.6697 N   0  0  0  0  0  0  0  0  0  0  0  0
    2.3545   -0.3484   -0.2546 C   0  0  0  0  0  0  0  0  0  0  0  0
    3.0567   -1.1938   -1.1205 C   0  0  0  0  0  0  0  0  0  0  0  0
    3.4591   -2.4577   -0.7048 C   0  0  0  0  0  0  0  0  0  0  0  0
    3.1628   -2.8889    0.5831 C   0  0  0  0  0  0  0  0  0  0  0  0
    2.4744   -2.0891    1.4785 C   0  0  0  0  0  0  0  0  0  0  0  0
    2.2408   -2.5986    2.7008 N   0  0  0  0  0  0  0  0  0  0  0  0
    1.5738   -1.8453    3.5960 C   0  0  0  0  0  0  0  0  0  0  0  0
    1.1136   -0.5766    3.3243 C   0  0  0  0  0  0  0  0  0  0  0  0
    1.3574   -0.0505    2.0594 C   0  0  0  0  0  0  0  0  0  0  0  0
    2.0572   -0.7961    1.0760 C   0  0  0  0  0  0  0  0  0  0  0  0
   -1.1448    0.8611   -1.8195 C   0  0  0  0  0  0  0  0  0  0  0  0
   -2.0216   -0.0935   -1.2829 C   0  0  0  0  0  0  0  0  0  0  0  0
   -2.3242   -1.2797   -1.8988 O   0  0  0  0  0  0  0  0  0  0  0  0
   -1.7380   -1.5463   -3.1670 C   0  0  0  0  0  0  0  0  0  0  0  0
   -2.6594    0.1752   -0.0572 C   0  0  0  0  0  0  0  0  0  0  0  0
   -3.5579   -0.6708    0.5445 O   0  0  0  0  0  0  0  0  0  0  0  0
   -3.1183   -2.0237    0.6518 C   0  0  0  0  0  0  0  0  0  0  0  0
   -1.5140    1.4345    2.9927 H   0  0  0  0  0  0  0  0  0  0  0  0
   -2.6678    0.0669    2.8375 H   0  0  0  0  0  0  0  0  0  0  0  0
   -3.1160    1.5196    3.7392 H   0  0  0  0  0  0  0  0  0  0  0  0
   -1.4480    3.3086    0.5393 H   0  0  0  0  0  0  0  0  0  0  0  0
   -0.3607    4.0634   -1.7835 H   0  0  0  0  0  0  0  0  0  0  0  0
    1.4318    1.4849    0.0253 H   0  0  0  0  0  0  0  0  0  0  0  0
    3.3157   -0.9023   -2.1327 H   0  0  0  0  0  0  0  0  0  0  0  0
    4.0061   -3.1078   -1.3833 H   0  0  0  0  0  0  0  0  0  0  0  0
    3.4841   -3.8791    0.9021 H   0  0  0  0  0  0  0  0  0  0  0  0
    1.4186   -2.3051    4.5686 H   0  0  0  0  0  0  0  0  0  0  0  0
    0.5838   -0.0072    4.0796 H   0  0  0  0  0  0  0  0  0  0  0  0
    0.9876    0.9496    1.8631 H   0  0  0  0  0  0  0  0  0  0  0  0
   -0.6423    0.6759   -2.7652 H   0  0  0  0  0  0  0  0  0  0  0  0
   -2.0924   -2.5280   -3.4991 H   0  0  0  0  0  0  0  0  0  0  0  0
   -0.6469   -1.5981   -3.0995 H   0  0  0  0  0  0  0  0  0  0  0  0
   -2.0566   -0.8082   -3.9110 H   0  0  0  0  0  0  0  0  0  0  0  0
   -3.5090   -2.4254    1.5924 H   0  0  0  0  0  0  0  0  0  0  0  0
   -2.0259   -2.1163    0.6817 H   0  0  0  0  0  0  0  0  0  0  0  0
   -3.5396   -2.6201   -0.1633 H   0  0  0  0  0  0  0  0  0  0  0  0
  1  2  1  0
  2  3  1  0
  3  4  2  0
  4  5  1  0
  5  6  1  0
  6  7  2  3
  7  8  1  0
  8  9  3  0
  7 10  1  0
 10 11  2  0
 10 12  1  0
 12 13  1  0
 13 14  2  0
 14 15  1  0
 15 16  2  0
 16 17  1  0
 17 18  2  0
 18 19  1  0
 19 20  2  0
 20 21  1  0
 21 22  2  0
  5 23  2  0
 23 24  1  0
 24 25  1  0
 25 26  1  0
 24 27  2  0
 27 28  1  0
 28 29  1  0
 27  3  1  0
 22 13  1  0
 22 17  1  0
  1 30  1  0
  1 31  1  0
  1 32  1  0
  4 33  1  0
  6 34  1  0
 12 35  1  0
 14 36  1  0
 15 37  1  0
 16 38  1  0
 19 39  1  0
 20 40  1  0
 21 41  1  0
 23 42  1  0
 26 43  1  0
 26 44  1  0
 26 45  1  0
 29 46  1  0
 29 47  1  0
 29 48  1  0
M  END
$$$$
