
     RDKit          3D

 74 79  0  0  0  0  0  0  0  0999 V2000
    9.8086   -2.4169   -3.1706 C   0  0  0  0  0  0  0  0  0  0  0  0
    8.5403   -2.9562   -2.8210 O   0  0  0  0  0  0  0  0  0  0  0  0
    7.5750   -2.0639   -2.4452 C   0  0  0  0  0  0  0  0  0  0  0  0
    7.7280   -0.6858   -2.3359 C   0  0  0  0  0  0  0  0  0  0  0  0
    6.6448    0.1137   -1.9435 C   0  0  0  0  0  0  0  0  0  0  0  0
    5.3796   -0.4319   -1.6504 C   0  0  0  0  0  0  0  0  0  0  0  0
    4.2542    0.4466   -1.2534 C   0  0  0  0  0  0  0  0  0  0  0  0
    2.9231    0.0958   -1.3949 C   0  0  0  0  0  0  0  0  0  0  0  0
    1.9422    1.0068   -0.9955 C   0  0  0  0  0  0  0  0  0  0  0  0
    0.5384    0.5432   -1.1137 C   0  0  0  0  0  0  0  0  0  0  0  0
    0.1605    0.1041   -2.1907 O   0  0  0  0  0  0  0  0  0  0  0  0
   -0.1770    0.6145    0.0584 N   0  0  0  0  0  0  0  0  0  0  0  0
   -1.5258    0.2755    0.2880 C   0  0  0  0  0  0  0  0  0  0  0  0
   -2.3782   -0.2443   -0.6844 C   0  0  0  0  0  0  0  0  0  0  0  0
   -3.7092   -0.5439   -0.3586 C   0  0  0  0  0  0  0  0  0  0  0  0
   -4.7213   -1.2177   -1.6605 S   0  0  0  0  0  6  0  0  0  0  0  0
   -5.2228   -0.0905   -2.4168 O   0  0  0  0  0  0  0  0  0  0  0  0
   -3.9340   -2.2611   -2.2860 O   0  0  0  0  0  0  0  0  0  0  0  0
   -6.0312   -1.9881   -0.9467 N   0  0  0  0  0  0  0  0  0  0  0  0
   -7.2517   -1.2341   -0.5804 C   0  0  0  0  0  0  0  0  0  0  0  0
   -8.4522   -2.1899   -0.5976 C   0  0  0  0  0  0  0  0  0  0  0  0
   -8.2307   -3.3141    0.2703 O   0  0  0  0  0  0  0  0  0  0  0  0
   -7.0878   -4.0656   -0.1715 C   0  0  0  0  0  0  0  0  0  0  0  0
   -5.8169   -3.2082   -0.1353 C   0  0  0  0  0  0  0  0  0  0  0  0
   -4.1818   -0.3275    0.9355 C   0  0  0  0  0  0  0  0  0  0  0  0
   -3.3252    0.1884    1.9130 C   0  0  0  0  0  0  0  0  0  0  0  0
   -1.9932    0.4966    1.6065 C   0  0  0  0  0  0  0  0  0  0  0  0
   -1.0969    1.0436    2.5563 N   0  0  0  0  0  0  0  0  0  0  0  0
   -0.8912    0.2159    3.7720 C   0  0  0  0  0  0  0  0  0  0  0  0
   -1.4665    0.8901    5.0271 C   0  0  0  0  0  0  0  0  0  0  0  0
   -0.9402    2.2033    5.2729 O   0  0  0  0  0  0  0  0  0  0  0  0
   -0.5760    2.9085    4.0766 C   0  0  0  0  0  0  0  0  0  0  0  0
   -1.3859    2.4684    2.8488 C   0  0  0  0  0  0  0  0  0  0  0  0
    2.2867    2.2876   -0.5101 C   0  0  0  0  0  0  0  0  0  0  0  0
    1.3664    3.3151   -0.1713 C   0  0  0  0  0  0  0  0  0  0  0  0
    1.8053    4.5460    0.3126 C   0  0  0  0  0  0  0  0  0  0  0  0
    3.1654    4.7746    0.4560 C   0  0  0  0  0  0  0  0  0  0  0  0
    4.0752    3.7767    0.0993 C   0  0  0  0  0  0  0  0  0  0  0  0
    3.6630    2.5441   -0.3909 C   0  0  0  0  0  0  0  0  0  0  0  0
    4.6059    1.6530   -0.7387 N   0  0  0  0  0  0  0  0  0  0  0  0
    5.2549   -1.8281   -1.7560 C   0  0  0  0  0  0  0  0  0  0  0  0
    6.3354   -2.6290   -2.1497 C   0  0  0  0  0  0  0  0  0  0  0  0
    9.7281   -1.7316   -4.0217 H   0  0  0  0  0  0  0  0  0  0  0  0
   10.2776   -1.9260   -2.3114 H   0  0  0  0  0  0  0  0  0  0  0  0
   10.4534   -3.2481   -3.4726 H   0  0  0  0  0  0  0  0  0  0  0  0
    8.6702   -0.1927   -2.5457 H   0  0  0  0  0  0  0  0  0  0  0  0
    6.7976    1.1907   -1.8713 H   0  0  0  0  0  0  0  0  0  0  0  0
    2.6252   -0.8583   -1.8175 H   0  0  0  0  0  0  0  0  0  0  0  0
    0.2852    0.9443    0.9042 H   0  0  0  0  0  0  0  0  0  0  0  0
   -2.0315   -0.4226   -1.6989 H   0  0  0  0  0  0  0  0  0  0  0  0
   -7.4415   -0.4193   -1.2849 H   0  0  0  0  0  0  0  0  0  0  0  0
   -7.1445   -0.8137    0.4229 H   0  0  0  0  0  0  0  0  0  0  0  0
   -8.6534   -2.5544   -1.6115 H   0  0  0  0  0  0  0  0  0  0  0  0
   -9.3468   -1.6685   -0.2442 H   0  0  0  0  0  0  0  0  0  0  0  0
   -6.9763   -4.9239    0.4980 H   0  0  0  0  0  0  0  0  0  0  0  0
   -7.2780   -4.4486   -1.1810 H   0  0  0  0  0  0  0  0  0  0  0  0
   -5.6014   -2.9174    0.8981 H   0  0  0  0  0  0  0  0  0  0  0  0
   -4.9770   -3.7973   -0.5149 H   0  0  0  0  0  0  0  0  0  0  0  0
   -5.2032   -0.5465    1.2142 H   0  0  0  0  0  0  0  0  0  0  0  0
   -3.7137    0.3580    2.9134 H   0  0  0  0  0  0  0  0  0  0  0  0
    0.1933    0.1081    3.8986 H   0  0  0  0  0  0  0  0  0  0  0  0
   -1.2999   -0.7957    3.6615 H   0  0  0  0  0  0  0  0  0  0  0  0
   -2.5565    0.9778    4.9548 H   0  0  0  0  0  0  0  0  0  0  0  0
   -1.2499    0.2816    5.9113 H   0  0  0  0  0  0  0  0  0  0  0  0
    0.4941    2.7471    3.9088 H   0  0  0  0  0  0  0  0  0  0  0  0
   -0.7236    3.9756    4.2661 H   0  0  0  0  0  0  0  0  0  0  0  0
   -1.1074    3.0820    1.9852 H   0  0  0  0  0  0  0  0  0  0  0  0
   -2.4532    2.6195    3.0519 H   0  0  0  0  0  0  0  0  0  0  0  0
    0.2959    3.1719   -0.3071 H   0  0  0  0  0  0  0  0  0  0  0  0
    1.0894    5.3252    0.5620 H   0  0  0  0  0  0  0  0  0  0  0  0
    3.5266    5.7301    0.8283 H   0  0  0  0  0  0  0  0  0  0  0  0
    5.1414    3.9712    0.1966 H   0  0  0  0  0  0  0  0  0  0  0  0
    4.3174   -2.3275   -1.5245 H   0  0  0  0  0  0  0  0  0  0  0  0
    6.2048   -3.7060   -2.2257 H   0  0  0  0  0  0  0  0  0  0  0  0
  1  2  1  0
  2  3  1  0
  3  4  2  0
  4  5  1  0
  5  6  2  0
  6  7  1  0
  7  8  2  0
  8  9  1  0
  9 10  1  0
 10 11  2  0
 10 12  1  0
 12 13  1  0
 13 14  2  0
 14 15  1  0
 15 16  1  0
 16 17  2  0
 16 18  2  0
 16 19  1  0
 19 20  1  0
 20 21  1  0
 21 22  1  0
 22 23  1  0
 23 24  1  0
 15 25  2  0
 25 26  1  0
 26 27  2  0
 27 28  1  0
 28 29  1  0
 29 30  1  0
 30 31  1  0
 31 32  1  0
 32 33  1  0
  9 34  2  0
 34 35  1  0
 35 36  2  0
 36 37  1  0
 37 38  2  0
 38 39  1  0
 39 40  2  0
  6 41  1  0
 41 42  2  0
 42  3  1  0
 40  7  1  0
 27 13  1  0
 33 28  1  0
 39 34  1  0
 24 19  1  0
  1 43  1  0
  1 44  1  0
  1 45  1  0
  4 46  1  0
  5 47  1  0
  8 48  1  0
 12 49  1  0
 14 50  1  0
 20 51  1  0
 20 52  1  0
 21 53  1  0
 21 54  1  0
 23 55  1  0
 23 56  1  0
 24 57  1  0
 24 58  1  0
 25 59  1  0
 26 60  1  0
 29 61  1  0
 29 62  1  0
 30 63  1  0
 30 64  1  0
 32 65  1  0
 32 66  1  0
 33 67  1  0
 33 68  1  0
 35 69  1  0
 36 70  1  0
 37 71  1  0
 38 72  1  0
 41 73  1  0
 42 74  1  0
M  END
$$$$
