
     RDKit          3D

 46 48  0  0  0  0  0  0  0  0999 V2000
    7.1751   -0.1726    2.7797 C   0  0  0  0  0  0  0  0  0  0  0  0
    6.6801   -1.3492    1.9597 C   0  0  0  0  0  0  0  0  0  0  0  0
    5.6892   -0.9138    1.0182 O   0  0  0  0  0  0  0  0  0  0  0  0
    6.1567   -0.4605   -0.1696 C   0  0  0  0  0  0  0  0  0  0  0  0
    7.3311   -0.3860   -0.4966 O   0  0  0  0  0  0  0  0  0  0  0  0
    5.0351   -0.0443   -1.0565 C   0  0  0  0  0  0  0  0  0  0  0  0
    5.3565    0.4673   -2.3203 C   0  0  0  0  0  0  0  0  0  0  0  0
    4.3462    0.8755   -3.1875 C   0  0  0  0  0  0  0  0  0  0  0  0
    3.0107    0.7720   -2.7955 C   0  0  0  0  0  0  0  0  0  0  0  0
    2.6695    0.2580   -1.5369 C   0  0  0  0  0  0  0  0  0  0  0  0
    1.2943    0.1951   -1.2245 N   0  0  0  0  0  0  0  0  0  0  0  0
    0.7136   -0.3440   -0.0905 C   0  0  0  0  0  0  0  0  0  0  0  0
    1.2862   -0.9317    0.8187 O   0  0  0  0  0  0  0  0  0  0  0  0
   -0.7706   -0.2183   -0.0233 C   0  0  0  0  0  0  0  0  0  0  0  0
   -1.5016   -1.2427    0.5856 C   0  0  0  0  0  0  0  0  0  0  0  0
   -2.8953   -1.1601    0.6659 C   0  0  0  0  0  0  0  0  0  0  0  0
   -3.5768   -0.0515    0.1479 C   0  0  0  0  0  0  0  0  0  0  0  0
   -4.9778   -0.0488    0.2671 N   0  0  0  0  0  0  0  0  0  0  0  0
   -5.8784    0.9058   -0.1728 C   0  0  0  0  0  0  0  0  0  0  0  0
   -5.5871    1.9379   -0.7683 O   0  0  0  0  0  0  0  0  0  0  0  0
   -7.2537    0.5594    0.1419 C   0  0  0  0  0  0  0  0  0  0  0  0
   -8.4403    1.2220   -0.1100 C   0  0  0  0  0  0  0  0  0  0  0  0
   -9.4775    0.4194    0.4221 C   0  0  0  0  0  0  0  0  0  0  0  0
   -8.8662   -0.6846    0.9667 C   0  0  0  0  0  0  0  0  0  0  0  0
   -7.5196   -0.6139    0.8041 O   0  0  0  0  0  0  0  0  0  0  0  0
   -2.8403    0.9789   -0.4409 C   0  0  0  0  0  0  0  0  0  0  0  0
   -1.4437    0.9017   -0.5227 C   0  0  0  0  0  0  0  0  0  0  0  0
    3.6885   -0.1456   -0.6694 C   0  0  0  0  0  0  0  0  0  0  0  0
    7.8870   -0.5028    3.5414 H   0  0  0  0  0  0  0  0  0  0  0  0
    7.6645    0.5716    2.1432 H   0  0  0  0  0  0  0  0  0  0  0  0
    6.3377    0.3317    3.2732 H   0  0  0  0  0  0  0  0  0  0  0  0
    6.1972   -2.0792    2.6177 H   0  0  0  0  0  0  0  0  0  0  0  0
    7.5070   -1.8650    1.4581 H   0  0  0  0  0  0  0  0  0  0  0  0
    6.3966    0.5503   -2.6310 H   0  0  0  0  0  0  0  0  0  0  0  0
    4.5990    1.2736   -4.1671 H   0  0  0  0  0  0  0  0  0  0  0  0
    2.2414    1.0973   -3.4917 H   0  0  0  0  0  0  0  0  0  0  0  0
    0.6669    0.5225   -1.9476 H   0  0  0  0  0  0  0  0  0  0  0  0
   -0.9879   -2.1091    0.9986 H   0  0  0  0  0  0  0  0  0  0  0  0
   -3.4358   -1.9750    1.1417 H   0  0  0  0  0  0  0  0  0  0  0  0
   -5.4049   -0.8440    0.7315 H   0  0  0  0  0  0  0  0  0  0  0  0
   -8.5310    2.1727   -0.6187 H   0  0  0  0  0  0  0  0  0  0  0  0
  -10.5398    0.6210    0.4105 H   0  0  0  0  0  0  0  0  0  0  0  0
   -9.2310   -1.5643    1.4795 H   0  0  0  0  0  0  0  0  0  0  0  0
   -3.3208    1.8688   -0.8367 H   0  0  0  0  0  0  0  0  0  0  0  0
   -0.9026    1.7413   -0.9508 H   0  0  0  0  0  0  0  0  0  0  0  0
    3.4529   -0.5370    0.3148 H   0  0  0  0  0  0  0  0  0  0  0  0
  1  2  1  0
  2  3  1  0
  3  4  1  0
  4  5  2  0
  4  6  1  0
  6  7  2  0
  7  8  1  0
  8  9  2  0
  9 10  1  0
 10 11  1  0
 11 12  1  0
 12 13  2  0
 12 14  1  0
 14 15  2  0
 15 16  1  0
 16 17  2  0
 17 18  1  0
 18 19  1  0
 19 20  2  0
 19 21  1  0
 21 22  2  0
 22 23  1  0
 23 24  2  0
 24 25  1  0
 17 26  1  0
 26 27  2  0
 10 28  2  0
 28  6  1  0
 27 14  1  0
 25 21  1  0
  1 29  1  0
  1 30  1  0
  1 31  1  0
  2 32  1  0
  2 33  1  0
  7 34  1  0
  8 35  1  0
  9 36  1  0
 11 37  1  0
 15 38  1  0
 16 39  1  0
 18 40  1  0
 22 41  1  0
 23 42  1  0
 24 43  1  0
 26 44  1  0
 27 45  1  0
 28 46  1  0
M  END
$$$$
