
     RDKit          3D

 34 35  0  0  0  0  0  0  0  0999 V2000
   -4.1269   -0.6007    1.8910 O   0  0  0  0  0  0  0  0  0  0  0  0
   -3.6701   -0.7106    0.7481 C   0  0  0  0  0  0  0  0  0  0  0  0
   -4.3979   -1.5114   -0.3409 C   0  0  0  0  0  0  0  0  0  0  0  0
   -5.4055   -2.7910    0.3791 Cl  0  0  0  0  0  0  0  0  0  0  0  0
   -5.4087   -0.4047   -1.2965 Cl  0  0  0  0  0  0  0  0  0  0  0  0
   -2.4406   -0.1175    0.4163 N   0  0  0  0  0  0  0  0  0  0  0  0
   -1.8169    0.7231    1.4460 C   0  0  0  0  0  0  0  0  0  0  0  0
   -0.3051    0.9168    1.2275 C   0  0  0  0  0  0  0  0  0  0  0  0
   -0.0098    1.3887   -0.1347 N   0  0  0  0  0  0  0  0  0  0  0  0
    1.4017    1.7406   -0.3436 C   0  0  0  0  0  0  0  0  0  0  0  0
    2.4150    0.6196   -0.2468 C   0  0  0  0  0  0  0  0  0  0  0  0
    2.7898   -0.1061   -1.3880 C   0  0  0  0  0  0  0  0  0  0  0  0
    3.7244   -1.1393   -1.2990 C   0  0  0  0  0  0  0  0  0  0  0  0
    4.2984   -1.4569   -0.0700 C   0  0  0  0  0  0  0  0  0  0  0  0
    3.9414   -0.7402    1.0702 C   0  0  0  0  0  0  0  0  0  0  0  0
    3.0073    0.2935    0.9825 C   0  0  0  0  0  0  0  0  0  0  0  0
   -0.5367    0.4374   -1.1223 C   0  0  0  0  0  0  0  0  0  0  0  0
   -2.0562    0.2303   -0.9595 C   0  0  0  0  0  0  0  0  0  0  0  0
   -3.6900   -2.0181   -0.9990 H   0  0  0  0  0  0  0  0  0  0  0  0
   -1.9801    0.2834    2.4364 H   0  0  0  0  0  0  0  0  0  0  0  0
   -2.3304    1.6928    1.4276 H   0  0  0  0  0  0  0  0  0  0  0  0
    0.1961   -0.0388    1.4244 H   0  0  0  0  0  0  0  0  0  0  0  0
    0.0571    1.6421    1.9655 H   0  0  0  0  0  0  0  0  0  0  0  0
    1.5026    2.2213   -1.3262 H   0  0  0  0  0  0  0  0  0  0  0  0
    1.6811    2.5308    0.3664 H   0  0  0  0  0  0  0  0  0  0  0  0
    2.3555    0.1326   -2.3561 H   0  0  0  0  0  0  0  0  0  0  0  0
    4.0070   -1.6948   -2.1895 H   0  0  0  0  0  0  0  0  0  0  0  0
    5.0268   -2.2605   -0.0010 H   0  0  0  0  0  0  0  0  0  0  0  0
    4.3922   -0.9848    2.0286 H   0  0  0  0  0  0  0  0  0  0  0  0
    2.7437    0.8461    1.8815 H   0  0  0  0  0  0  0  0  0  0  0  0
   -0.0451   -0.5385   -1.0241 H   0  0  0  0  0  0  0  0  0  0  0  0
   -0.3494    0.8048   -2.1382 H   0  0  0  0  0  0  0  0  0  0  0  0
   -2.5913    1.1524   -1.2183 H   0  0  0  0  0  0  0  0  0  0  0  0
   -2.3796   -0.5425   -1.6596 H   0  0  0  0  0  0  0  0  0  0  0  0
  1  2  2  0
  2  3  1  0
  3  4  1  0
  3  5  1  0
  2  6  1  0
  6  7  1  0
  7  8  1  0
  8  9  1  0
  9 10  1  0
 10 11  1  0
 11 12  2  0
 12 13  1  0
 13 14  2  0
 14 15  1  0
 15 16  2  0
  9 17  1  0
 17 18  1  0
 18  6  1  0
 16 11  1  0
  3 19  1  0
  7 20  1  0
  7 21  1  0
  8 22  1  0
  8 23  1  0
 10 24  1  0
 10 25  1  0
 12 26  1  0
 13 27  1  0
 14 28  1  0
 15 29  1  0
 16 30  1  0
 17 31  1  0
 17 32  1  0
 18 33  1  0
 18 34  1  0
M  END
$$$$
