
     RDKit          3D

 57 60  0  0  0  0  0  0  0  0999 V2000
   10.7067    1.4621   -0.1488 C   0  0  0  0  0  0  0  0  0  0  0  0
    9.2821    0.9595   -0.3212 C   0  0  0  0  0  0  0  0  0  0  0  0
    8.4466    1.7041    0.5589 O   0  0  0  0  0  0  0  0  0  0  0  0
    7.1189    1.3805    0.5846 C   0  0  0  0  0  0  0  0  0  0  0  0
    6.3278    2.2173    1.3734 C   0  0  0  0  0  0  0  0  0  0  0  0
    4.9545    1.9848    1.5014 C   0  0  0  0  0  0  0  0  0  0  0  0
    4.3493    0.9056    0.8432 C   0  0  0  0  0  0  0  0  0  0  0  0
    2.9652    0.7201    1.0479 N   0  0  0  0  0  0  0  0  0  0  0  0
    2.1635   -0.2961    0.5357 C   0  0  0  0  0  0  0  0  0  0  0  0
    2.5213   -1.1808   -0.2418 O   0  0  0  0  0  0  0  0  0  0  0  0
    0.7330   -0.2433    1.0543 C   0  0  0  0  0  0  0  0  0  0  0  0
   -0.4122    0.0523   -0.3302 S   0  0  0  0  0  0  0  0  0  0  0  0
   -1.9139    0.0272    0.5369 C   0  0  0  0  0  0  0  0  0  0  0  0
   -2.0794    0.6033    1.7018 N   0  0  0  0  0  0  0  0  0  0  0  0
   -3.3332    0.2950    2.1476 N   0  0  0  0  0  0  0  0  0  0  0  0
   -3.9166   -0.4778    1.2494 C   0  0  0  0  0  0  0  0  0  0  0  0
   -5.3561   -0.8791    1.3060 C   0  0  0  0  0  0  0  0  0  0  0  0
   -6.1861   -0.2666    0.2162 C   0  0  0  0  0  0  0  0  0  0  0  0
   -6.8198   -0.8865   -0.8525 C   0  0  0  0  0  0  0  0  0  0  0  0
   -7.4701    0.1116   -1.6126 C   0  0  0  0  0  0  0  0  0  0  0  0
   -7.2320    1.3184   -0.9910 C   0  0  0  0  0  0  0  0  0  0  0  0
   -6.4645    1.0840    0.1246 N   0  0  0  0  0  0  0  0  0  0  0  0
   -6.0135    2.1207    1.0327 C   0  0  0  0  0  0  0  0  0  0  0  0
   -3.0356   -0.7143    0.1996 N   0  0  0  0  0  0  0  0  0  0  0  0
   -3.2258   -1.5705   -0.9220 C   0  0  0  0  0  0  0  0  0  0  0  0
   -2.8692   -1.1400   -2.2108 C   0  0  0  0  0  0  0  0  0  0  0  0
   -3.0454   -1.9957   -3.3042 C   0  0  0  0  0  0  0  0  0  0  0  0
   -3.5694   -3.2713   -3.1068 C   0  0  0  0  0  0  0  0  0  0  0  0
   -3.7292   -4.0952   -4.1568 F   0  0  0  0  0  0  0  0  0  0  0  0
   -3.9223   -3.7107   -1.8334 C   0  0  0  0  0  0  0  0  0  0  0  0
   -3.7539   -2.8599   -0.7359 C   0  0  0  0  0  0  0  0  0  0  0  0
    5.1424    0.0784    0.0461 C   0  0  0  0  0  0  0  0  0  0  0  0
    6.5194    0.3124   -0.0829 C   0  0  0  0  0  0  0  0  0  0  0  0
   11.3841    0.9457   -0.8335 H   0  0  0  0  0  0  0  0  0  0  0  0
   11.0506    1.2952    0.8806 H   0  0  0  0  0  0  0  0  0  0  0  0
   10.7653    2.5414   -0.3355 H   0  0  0  0  0  0  0  0  0  0  0  0
    8.9645    1.1176   -1.3599 H   0  0  0  0  0  0  0  0  0  0  0  0
    9.2520   -0.1080   -0.0747 H   0  0  0  0  0  0  0  0  0  0  0  0
    6.7830    3.0528    1.8970 H   0  0  0  0  0  0  0  0  0  0  0  0
    4.3746    2.6550    2.1299 H   0  0  0  0  0  0  0  0  0  0  0  0
    2.5205    1.4059    1.6504 H   0  0  0  0  0  0  0  0  0  0  0  0
    0.6192    0.5349    1.8157 H   0  0  0  0  0  0  0  0  0  0  0  0
    0.5119   -1.2114    1.5227 H   0  0  0  0  0  0  0  0  0  0  0  0
   -5.7714   -0.5708    2.2727 H   0  0  0  0  0  0  0  0  0  0  0  0
   -5.4539   -1.9662    1.2978 H   0  0  0  0  0  0  0  0  0  0  0  0
   -6.8051   -1.9485   -1.0659 H   0  0  0  0  0  0  0  0  0  0  0  0
   -8.0512   -0.0325   -2.5178 H   0  0  0  0  0  0  0  0  0  0  0  0
   -7.5502    2.3211   -1.2531 H   0  0  0  0  0  0  0  0  0  0  0  0
   -6.1429    1.7743    2.0620 H   0  0  0  0  0  0  0  0  0  0  0  0
   -4.9649    2.3258    0.8123 H   0  0  0  0  0  0  0  0  0  0  0  0
   -6.6133    3.0247    0.8806 H   0  0  0  0  0  0  0  0  0  0  0  0
   -2.4852   -0.1370   -2.3943 H   0  0  0  0  0  0  0  0  0  0  0  0
   -2.7782   -1.6724   -4.3081 H   0  0  0  0  0  0  0  0  0  0  0  0
   -4.3140   -4.7180   -1.7043 H   0  0  0  0  0  0  0  0  0  0  0  0
   -3.9908   -3.2442    0.2536 H   0  0  0  0  0  0  0  0  0  0  0  0
    4.7236   -0.7641   -0.4991 H   0  0  0  0  0  0  0  0  0  0  0  0
    7.0891   -0.3711   -0.7099 H   0  0  0  0  0  0  0  0  0  0  0  0
  1  2  1  0
  2  3  1  0
  3  4  1  0
  4  5  2  0
  5  6  1  0
  6  7  2  0
  7  8  1  0
  8  9  1  0
  9 10  2  0
  9 11  1  0
 11 12  1  0
 12 13  1  0
 13 14  2  0
 14 15  1  0
 15 16  2  0
 16 17  1  0
 17 18  1  0
 18 19  2  0
 19 20  1  0
 20 21  2  0
 21 22  1  0
 22 23  1  0
 16 24  1  0
 24 25  1  0
 25 26  2  0
 26 27  1  0
 27 28  2  0
 28 29  1  0
 28 30  1  0
 30 31  2  0
  7 32  1  0
 32 33  2  0
 33  4  1  0
 24 13  1  0
 31 25  1  0
 22 18  1  0
  1 34  1  0
  1 35  1  0
  1 36  1  0
  2 37  1  0
  2 38  1  0
  5 39  1  0
  6 40  1  0
  8 41  1  0
 11 42  1  0
 11 43  1  0
 17 44  1  0
 17 45  1  0
 19 46  1  0
 20 47  1  0
 21 48  1  0
 23 49  1  0
 23 50  1  0
 23 51  1  0
 26 52  1  0
 27 53  1  0
 30 54  1  0
 31 55  1  0
 32 56  1  0
 33 57  1  0
M  END
$$$$
