
     RDKit          3D

 59 62  0  0  0  0  0  0  0  0999 V2000
   -6.1626   -0.3452    2.4616 C   0  0  0  0  0  0  0  0  0  0  0  0
   -5.2572   -1.4982    2.0701 C   0  0  0  0  0  0  0  0  0  0  0  0
   -4.7969   -1.3954    0.6929 N   0  0  0  0  0  0  0  0  0  0  0  0
   -5.4480   -1.9437   -0.3954 C   0  0  0  0  0  0  0  0  0  0  0  0
   -6.6438   -2.6763   -0.4905 C   0  0  0  0  0  0  0  0  0  0  0  0
   -7.0539   -3.1113   -1.7535 C   0  0  0  0  0  0  0  0  0  0  0  0
   -6.3027   -2.8249   -2.8873 C   0  0  0  0  0  0  0  0  0  0  0  0
   -5.1167   -2.0925   -2.7842 C   0  0  0  0  0  0  0  0  0  0  0  0
   -4.6792   -1.6429   -1.5215 C   0  0  0  0  0  0  0  0  0  0  0  0
   -3.5452   -0.8900   -1.0855 C   0  0  0  0  0  0  0  0  0  0  0  0
   -2.4403   -0.3193   -1.7606 C   0  0  0  0  0  0  0  0  0  0  0  0
   -1.4661    0.3818   -1.0449 C   0  0  0  0  0  0  0  0  0  0  0  0
   -0.3356    0.9759   -1.6384 N   0  0  0  0  0  0  0  0  0  0  0  0
    0.0345    0.9654   -2.9755 C   0  0  0  0  0  0  0  0  0  0  0  0
   -0.5968    0.4752   -3.9070 O   0  0  0  0  0  0  0  0  0  0  0  0
    1.3329    1.7550   -3.2296 C   0  0  0  0  0  0  0  0  0  0  0  0
    0.9786    3.2054   -3.5239 C   0  0  0  0  0  0  0  0  0  0  0  0
    2.2048    1.7611   -2.0854 O   0  0  0  0  0  0  0  0  0  0  0  0
    2.9440    0.6328   -1.9257 C   0  0  0  0  0  0  0  0  0  0  0  0
    2.9151   -0.3461   -2.6508 O   0  0  0  0  0  0  0  0  0  0  0  0
    3.7935    0.7323   -0.7078 C   0  0  0  0  0  0  0  0  0  0  0  0
    4.5703   -0.3756   -0.3525 C   0  0  0  0  0  0  0  0  0  0  0  0
    5.3776   -0.3428    0.7925 C   0  0  0  0  0  0  0  0  0  0  0  0
    5.4200    0.7965    1.6003 C   0  0  0  0  0  0  0  0  0  0  0  0
    6.1954    0.9093    2.7758 N   0  0  0  0  0  0  0  0  0  0  0  0
    6.9796   -0.0789    3.3617 C   0  0  0  0  0  0  0  0  0  0  0  0
    7.1090   -1.2292    2.9526 O   0  0  0  0  0  0  0  0  0  0  0  0
    7.6669    0.3736    4.6315 C   0  0  0  0  0  0  0  0  0  0  0  0
    9.1053    0.1132    4.5621 C   0  0  0  0  0  0  0  0  0  0  0  0
   10.2522   -0.0576    4.5474 N   0  0  0  0  0  0  0  0  0  0  0  0
    4.6483    1.9075    1.2372 C   0  0  0  0  0  0  0  0  0  0  0  0
    3.8398    1.8793    0.0929 C   0  0  0  0  0  0  0  0  0  0  0  0
   -1.5975    0.5150    0.3406 C   0  0  0  0  0  0  0  0  0  0  0  0
   -2.6796   -0.0393    1.0349 C   0  0  0  0  0  0  0  0  0  0  0  0
   -3.6427   -0.7440    0.2989 C   0  0  0  0  0  0  0  0  0  0  0  0
   -5.6557    0.6180    2.3356 H   0  0  0  0  0  0  0  0  0  0  0  0
   -7.0674   -0.3267    1.8447 H   0  0  0  0  0  0  0  0  0  0  0  0
   -6.4660   -0.4387    3.5090 H   0  0  0  0  0  0  0  0  0  0  0  0
   -5.7757   -2.4545    2.1889 H   0  0  0  0  0  0  0  0  0  0  0  0
   -4.3765   -1.5379    2.7199 H   0  0  0  0  0  0  0  0  0  0  0  0
   -7.2417   -2.9063    0.3846 H   0  0  0  0  0  0  0  0  0  0  0  0
   -7.9743   -3.6826   -1.8502 H   0  0  0  0  0  0  0  0  0  0  0  0
   -6.6364   -3.1698   -3.8630 H   0  0  0  0  0  0  0  0  0  0  0  0
   -4.5338   -1.8709   -3.6750 H   0  0  0  0  0  0  0  0  0  0  0  0
   -2.3810   -0.4472   -2.8364 H   0  0  0  0  0  0  0  0  0  0  0  0
    0.3107    1.4407   -1.0129 H   0  0  0  0  0  0  0  0  0  0  0  0
    1.8479    1.3246   -4.0972 H   0  0  0  0  0  0  0  0  0  0  0  0
    0.4810    3.6731   -2.6672 H   0  0  0  0  0  0  0  0  0  0  0  0
    1.8841    3.7885   -3.7214 H   0  0  0  0  0  0  0  0  0  0  0  0
    0.3124    3.2849   -4.3870 H   0  0  0  0  0  0  0  0  0  0  0  0
    4.5532   -1.2810   -0.9629 H   0  0  0  0  0  0  0  0  0  0  0  0
    5.9631   -1.2312    1.0156 H   0  0  0  0  0  0  0  0  0  0  0  0
    6.1431    1.8044    3.2428 H   0  0  0  0  0  0  0  0  0  0  0  0
    7.4958    1.4397    4.8131 H   0  0  0  0  0  0  0  0  0  0  0  0
    7.2110   -0.1693    5.4647 H   0  0  0  0  0  0  0  0  0  0  0  0
    4.6591    2.8134    1.8401 H   0  0  0  0  0  0  0  0  0  0  0  0
    3.2563    2.7617   -0.1573 H   0  0  0  0  0  0  0  0  0  0  0  0
   -0.8531    1.0597    0.9145 H   0  0  0  0  0  0  0  0  0  0  0  0
   -2.7592    0.0812    2.1110 H   0  0  0  0  0  0  0  0  0  0  0  0
  1  2  1  0
  2  3  1  0
  3  4  1  0
  4  5  2  0
  5  6  1  0
  6  7  2  0
  7  8  1  0
  8  9  2  0
  9 10  1  0
 10 11  2  0
 11 12  1  0
 12 13  1  0
 13 14  1  0
 14 15  2  0
 14 16  1  0
 16 17  1  0
 16 18  1  0
 18 19  1  0
 19 20  2  0
 19 21  1  0
 21 22  2  0
 22 23  1  0
 23 24  2  0
 24 25  1  0
 25 26  1  0
 26 27  2  0
 26 28  1  0
 28 29  1  0
 29 30  3  0
 24 31  1  0
 31 32  2  0
 12 33  2  0
 33 34  1  0
 34 35  2  0
 35  3  1  0
  9  4  1  0
 35 10  1  0
 32 21  1  0
  1 36  1  0
  1 37  1  0
  1 38  1  0
  2 39  1  0
  2 40  1  0
  5 41  1  0
  6 42  1  0
  7 43  1  0
  8 44  1  0
 11 45  1  0
 13 46  1  0
 16 47  1  0
 17 48  1  0
 17 49  1  0
 17 50  1  0
 22 51  1  0
 23 52  1  0
 25 53  1  0
 28 54  1  0
 28 55  1  0
 31 56  1  0
 32 57  1  0
 33 58  1  0
 34 59  1  0
M  END
$$$$
