
     RDKit          3D

 63 67  0  0  0  0  0  0  0  0999 V2000
   -0.4643   -4.0245    0.2159 C   0  0  0  0  0  0  0  0  0  0  0  0
   -1.3351   -3.0098    0.7247 O   0  0  0  0  0  0  0  0  0  0  0  0
   -2.1282   -3.4256    1.7470 C   0  0  0  0  0  0  0  0  0  0  0  0
   -2.1347   -4.5566    2.2100 O   0  0  0  0  0  0  0  0  0  0  0  0
   -3.0364   -2.3393    2.2241 C   0  0  0  0  0  0  0  0  0  0  0  0
   -4.1143   -2.7646    3.0250 C   0  0  0  0  0  0  0  0  0  0  0  0
   -5.0347   -1.8501    3.5333 C   0  0  0  0  0  0  0  0  0  0  0  0
   -4.8935   -0.5001    3.2407 C   0  0  0  0  0  0  0  0  0  0  0  0
   -3.8249   -0.0616    2.4549 C   0  0  0  0  0  0  0  0  0  0  0  0
   -2.8685   -0.9611    1.9594 C   0  0  0  0  0  0  0  0  0  0  0  0
   -1.8088   -0.5013    1.1369 N   0  0  0  0  0  0  0  0  0  0  0  0
   -1.1341    0.7119    1.1180 C   0  0  0  0  0  0  0  0  0  0  0  0
   -0.9909    1.7077    2.4692 S   0  0  0  0  0  0  0  0  0  0  0  0
   -0.5126    0.9625   -0.1269 N   0  0  0  0  0  0  0  0  0  0  0  0
   -0.9921    0.3443   -1.3803 C   0  0  0  0  0  0  0  0  0  0  0  0
   -1.9594    1.2369   -2.1276 C   0  0  0  0  0  0  0  0  0  0  0  0
   -1.5618    1.8703   -3.3287 C   0  0  0  0  0  0  0  0  0  0  0  0
   -2.4393    2.7042   -4.0292 C   0  0  0  0  0  0  0  0  0  0  0  0
   -3.7016    2.8866   -3.5101 C   0  0  0  0  0  0  0  0  0  0  0  0
   -4.0994    2.2761   -2.3447 C   0  0  0  0  0  0  0  0  0  0  0  0
   -3.2573    1.4487   -1.6325 C   0  0  0  0  0  0  0  0  0  0  0  0
   -5.3794    2.5870   -2.0064 O   0  0  0  0  0  0  0  0  0  0  0  0
   -5.7382    3.4697   -3.0895 C   0  0  0  0  0  0  0  0  0  0  0  0
   -4.6806    3.6592   -4.0520 O   0  0  0  0  0  0  0  0  0  0  0  0
    0.5235    2.0028   -0.3079 C   0  0  0  0  0  0  0  0  0  0  0  0
    1.8847    1.3614   -0.3366 C   0  0  0  0  0  0  0  0  0  0  0  0
    2.5489    0.9908    0.7739 C   0  0  0  0  0  0  0  0  0  0  0  0
    3.8815    0.3962    0.6956 C   0  0  0  0  0  0  0  0  0  0  0  0
    4.5706   -0.0123    1.8385 C   0  0  0  0  0  0  0  0  0  0  0  0
    5.8480   -0.5755    1.7264 C   0  0  0  0  0  0  0  0  0  0  0  0
    6.4420   -0.7316    0.4718 C   0  0  0  0  0  0  0  0  0  0  0  0
    7.6782   -1.2648    0.2293 O   0  0  0  0  0  0  0  0  0  0  0  0
    8.4307   -1.6894    1.3592 C   0  0  0  0  0  0  0  0  0  0  0  0
    5.7513   -0.3220   -0.6723 C   0  0  0  0  0  0  0  0  0  0  0  0
    4.4796    0.2369   -0.5566 C   0  0  0  0  0  0  0  0  0  0  0  0
    3.7857    0.6464   -1.7006 N   0  0  0  0  0  0  0  0  0  0  0  0
    2.5330    1.1990   -1.6740 C   0  0  0  0  0  0  0  0  0  0  0  0
    1.9716    1.5355   -2.7127 O   0  0  0  0  0  0  0  0  0  0  0  0
    0.2180   -4.3711    0.9980 H   0  0  0  0  0  0  0  0  0  0  0  0
    0.1283   -3.5851   -0.5911 H   0  0  0  0  0  0  0  0  0  0  0  0
   -1.0447   -4.8571   -0.1934 H   0  0  0  0  0  0  0  0  0  0  0  0
   -4.2434   -3.8214    3.2556 H   0  0  0  0  0  0  0  0  0  0  0  0
   -5.8633   -2.1932    4.1479 H   0  0  0  0  0  0  0  0  0  0  0  0
   -5.6174    0.2190    3.6173 H   0  0  0  0  0  0  0  0  0  0  0  0
   -3.7773    0.9973    2.2149 H   0  0  0  0  0  0  0  0  0  0  0  0
   -1.2805   -1.2477    0.6922 H   0  0  0  0  0  0  0  0  0  0  0  0
   -0.1263    0.0963   -2.0026 H   0  0  0  0  0  0  0  0  0  0  0  0
   -1.4984   -0.6087   -1.2036 H   0  0  0  0  0  0  0  0  0  0  0  0
   -0.5550    1.7202   -3.7178 H   0  0  0  0  0  0  0  0  0  0  0  0
   -2.1353    3.1940   -4.9473 H   0  0  0  0  0  0  0  0  0  0  0  0
   -3.5985    0.9820   -0.7150 H   0  0  0  0  0  0  0  0  0  0  0  0
   -6.0102    4.4455   -2.6708 H   0  0  0  0  0  0  0  0  0  0  0  0
   -6.6109    3.0535   -3.6061 H   0  0  0  0  0  0  0  0  0  0  0  0
    0.4975    2.7425    0.4963 H   0  0  0  0  0  0  0  0  0  0  0  0
    0.3134    2.5753   -1.2165 H   0  0  0  0  0  0  0  0  0  0  0  0
    2.1107    1.1218    1.7578 H   0  0  0  0  0  0  0  0  0  0  0  0
    4.1254    0.1022    2.8241 H   0  0  0  0  0  0  0  0  0  0  0  0
    6.3504   -0.8805    2.6386 H   0  0  0  0  0  0  0  0  0  0  0  0
    7.9198   -2.4984    1.8914 H   0  0  0  0  0  0  0  0  0  0  0  0
    9.3861   -2.0809    0.9966 H   0  0  0  0  0  0  0  0  0  0  0  0
    8.6470   -0.8497    2.0277 H   0  0  0  0  0  0  0  0  0  0  0  0
    6.2179   -0.4451   -1.6454 H   0  0  0  0  0  0  0  0  0  0  0  0
    4.2075    0.5454   -2.6139 H   0  0  0  0  0  0  0  0  0  0  0  0
  1  2  1  0
  2  3  1  0
  3  4  2  0
  3  5  1  0
  5  6  2  0
  6  7  1  0
  7  8  2  0
  8  9  1  0
  9 10  2  0
 10 11  1  0
 11 12  1  0
 12 13  2  0
 12 14  1  0
 14 15  1  0
 15 16  1  0
 16 17  2  0
 17 18  1  0
 18 19  2  0
 19 20  1  0
 20 21  2  0
 20 22  1  0
 22 23  1  0
 23 24  1  0
 14 25  1  0
 25 26  1  0
 26 27  2  0
 27 28  1  0
 28 29  2  0
 29 30  1  0
 30 31  2  0
 31 32  1  0
 32 33  1  0
 31 34  1  0
 34 35  2  0
 35 36  1  0
 36 37  1  0
 37 38  2  0
 10  5  1  0
 21 16  1  0
 37 26  1  0
 24 19  1  0
 35 28  1  0
  1 39  1  0
  1 40  1  0
  1 41  1  0
  6 42  1  0
  7 43  1  0
  8 44  1  0
  9 45  1  0
 11 46  1  0
 15 47  1  0
 15 48  1  0
 17 49  1  0
 18 50  1  0
 21 51  1  0
 23 52  1  0
 23 53  1  0
 25 54  1  0
 25 55  1  0
 27 56  1  0
 29 57  1  0
 30 58  1  0
 33 59  1  0
 33 60  1  0
 33 61  1  0
 34 62  1  0
 36 63  1  0
M  END
$$$$
