
     RDKit          3D

 65 68  0  0  0  0  0  0  0  0999 V2000
    8.3599    0.1903    5.0455 C   0  0  0  0  0  0  0  0  0  0  0  0
    6.9211    0.3888    4.7991 C   0  0  0  0  0  0  0  0  0  0  0  0
    6.0688    0.0477    3.7793 C   0  0  0  0  0  0  0  0  0  0  0  0
    4.8138    0.5551    4.1777 C   0  0  0  0  0  0  0  0  0  0  0  0
    3.6010    0.5088    3.5260 N   0  0  0  0  0  0  0  0  0  0  0  0
    3.3953   -0.0210    2.2724 C   0  0  0  0  0  0  0  0  0  0  0  0
    4.2521   -0.5400    1.5630 O   0  0  0  0  0  0  0  0  0  0  0  0
    1.9485    0.1020    1.8336 C   0  0  0  0  0  0  0  0  0  0  0  0
    1.7718   -0.3460    0.3846 C   0  0  0  0  0  0  0  0  0  0  0  0
    0.3425   -0.1795   -0.0949 C   0  0  0  0  0  0  0  0  0  0  0  0
   -0.5165    0.2839    0.6600 O   0  0  0  0  0  0  0  0  0  0  0  0
    0.0539   -0.5514   -1.4026 N   0  0  0  0  0  0  0  0  0  0  0  0
    1.0571   -1.0214   -2.3649 C   0  0  0  0  0  0  0  0  0  0  0  0
    0.7873   -2.4452   -2.7594 C   0  0  0  0  0  0  0  0  0  0  0  0
    0.2515   -2.9146   -3.9428 C   0  0  0  0  0  0  0  0  0  0  0  0
    0.1296   -4.3339   -3.9624 C   0  0  0  0  0  0  0  0  0  0  0  0
    0.5906   -4.9052   -2.7999 C   0  0  0  0  0  0  0  0  0  0  0  0
    1.1914   -3.7370   -1.7059 S   0  0  0  0  0  0  0  0  0  0  0  0
   -1.3101   -0.3266   -1.9356 C   0  0  0  0  0  0  0  0  0  0  0  0
   -1.5937    1.1990   -1.9916 C   0  0  0  0  0  0  0  0  0  0  0  0
   -1.1974    1.8937   -2.9289 O   0  0  0  0  0  0  0  0  0  0  0  0
   -2.2199    1.7271   -0.8755 N   0  0  0  0  0  0  0  0  0  0  0  0
   -2.3927    3.1611   -0.7155 C   0  0  0  0  0  0  0  0  0  0  0  0
   -2.9866    3.4921    0.6533 C   0  0  0  0  0  0  0  0  0  0  0  0
   -4.4918    3.2816    0.4948 C   0  0  0  0  0  0  0  0  0  0  0  0
   -4.7813    3.3920   -1.0036 C   0  0  0  0  0  0  0  0  0  0  0  0
   -3.4471    3.7318   -1.6652 C   0  0  0  0  0  0  0  0  0  0  0  0
   -2.4394   -1.1855   -1.3641 C   0  0  0  0  0  0  0  0  0  0  0  0
   -3.7498   -1.0018   -1.8517 C   0  0  0  0  0  0  0  0  0  0  0  0
   -4.8077   -1.7959   -1.4048 C   0  0  0  0  0  0  0  0  0  0  0  0
   -4.5762   -2.7980   -0.4687 C   0  0  0  0  0  0  0  0  0  0  0  0
   -3.2872   -3.0065    0.0168 C   0  0  0  0  0  0  0  0  0  0  0  0
   -2.2278   -2.2133   -0.4329 C   0  0  0  0  0  0  0  0  0  0  0  0
    4.8979    1.1514    5.3719 N   0  0  0  0  0  0  0  0  0  0  0  0
    6.2240    1.0568    5.7528 O   0  0  0  0  0  0  0  0  0  0  0  0
    8.5235   -0.7036    5.6536 H   0  0  0  0  0  0  0  0  0  0  0  0
    8.9033    0.0704    4.1020 H   0  0  0  0  0  0  0  0  0  0  0  0
    8.7885    1.0493    5.5705 H   0  0  0  0  0  0  0  0  0  0  0  0
    6.3229   -0.4881    2.8784 H   0  0  0  0  0  0  0  0  0  0  0  0
    2.8440    0.9445    4.0342 H   0  0  0  0  0  0  0  0  0  0  0  0
    1.3285   -0.5095    2.5020 H   0  0  0  0  0  0  0  0  0  0  0  0
    1.6377    1.1490    1.9441 H   0  0  0  0  0  0  0  0  0  0  0  0
    2.0572   -1.3994    0.2916 H   0  0  0  0  0  0  0  0  0  0  0  0
    2.4255    0.2628   -0.2522 H   0  0  0  0  0  0  0  0  0  0  0  0
    1.0159   -0.3622   -3.2402 H   0  0  0  0  0  0  0  0  0  0  0  0
    2.0740   -0.9417   -1.9763 H   0  0  0  0  0  0  0  0  0  0  0  0
   -0.0522   -2.2668   -4.7555 H   0  0  0  0  0  0  0  0  0  0  0  0
   -0.2802   -4.9071   -4.7851 H   0  0  0  0  0  0  0  0  0  0  0  0
    0.6175   -5.9552   -2.5401 H   0  0  0  0  0  0  0  0  0  0  0  0
   -1.2867   -0.6202   -2.9953 H   0  0  0  0  0  0  0  0  0  0  0  0
   -1.9918    1.2014   -0.0290 H   0  0  0  0  0  0  0  0  0  0  0  0
   -1.4167    3.6386   -0.8572 H   0  0  0  0  0  0  0  0  0  0  0  0
   -2.5776    2.8855    1.4686 H   0  0  0  0  0  0  0  0  0  0  0  0
   -2.7941    4.5453    0.8900 H   0  0  0  0  0  0  0  0  0  0  0  0
   -5.0523    4.0211    1.0752 H   0  0  0  0  0  0  0  0  0  0  0  0
   -4.7826    2.2896    0.8617 H   0  0  0  0  0  0  0  0  0  0  0  0
   -5.1602    2.4332   -1.3792 H   0  0  0  0  0  0  0  0  0  0  0  0
   -5.5397    4.1517   -1.2214 H   0  0  0  0  0  0  0  0  0  0  0  0
   -3.3960    3.3425   -2.6859 H   0  0  0  0  0  0  0  0  0  0  0  0
   -3.3401    4.8224   -1.7189 H   0  0  0  0  0  0  0  0  0  0  0  0
   -3.9595   -0.2316   -2.5915 H   0  0  0  0  0  0  0  0  0  0  0  0
   -5.8097   -1.6319   -1.7919 H   0  0  0  0  0  0  0  0  0  0  0  0
   -5.3967   -3.4192   -0.1209 H   0  0  0  0  0  0  0  0  0  0  0  0
   -3.0994   -3.7919    0.7451 H   0  0  0  0  0  0  0  0  0  0  0  0
   -1.2358   -2.4192   -0.0383 H   0  0  0  0  0  0  0  0  0  0  0  0
  1  2  1  0
  2  3  2  0
  3  4  1  0
  4  5  1  0
  5  6  1  0
  6  7  2  0
  6  8  1  0
  8  9  1  0
  9 10  1  0
 10 11  2  0
 10 12  1  0
 12 13  1  0
 13 14  1  0
 14 15  2  0
 15 16  1  0
 16 17  2  0
 17 18  1  0
 12 19  1  0
 19 20  1  0
 20 21  2  0
 20 22  1  0
 22 23  1  0
 23 24  1  0
 24 25  1  0
 25 26  1  0
 26 27  1  0
 19 28  1  0
 28 29  2  0
 29 30  1  0
 30 31  2  0
 31 32  1  0
 32 33  2  0
  4 34  2  0
 34 35  1  0
 35  2  1  0
 18 14  1  0
 27 23  1  0
 33 28  1  0
  1 36  1  0
  1 37  1  0
  1 38  1  0
  3 39  1  0
  5 40  1  0
  8 41  1  0
  8 42  1  0
  9 43  1  0
  9 44  1  0
 13 45  1  0
 13 46  1  0
 15 47  1  0
 16 48  1  0
 17 49  1  0
 19 50  1  0
 22 51  1  0
 23 52  1  0
 24 53  1  0
 24 54  1  0
 25 55  1  0
 25 56  1  0
 26 57  1  0
 26 58  1  0
 27 59  1  0
 27 60  1  0
 29 61  1  0
 30 62  1  0
 31 63  1  0
 32 64  1  0
 33 65  1  0
M  END
$$$$
