
     RDKit          3D

 35 35  0  0  0  0  0  0  0  0999 V2000
   -3.4197   -0.9318   -1.9919 C   0  0  0  0  0  0  0  0  0  0  0  0
   -3.5390   -0.3214   -0.5887 C   0  0  0  0  0  0  0  0  0  0  0  0
   -3.4679   -1.4233    0.4755 C   0  0  0  0  0  0  0  0  0  0  0  0
   -2.5722    0.7874   -0.4227 N   0  0  0  0  0  0  0  0  0  0  0  0
   -2.9787    1.6808    0.6679 C   0  0  0  0  0  0  0  0  0  0  0  0
   -1.1756    0.3441   -0.2495 C   0  0  0  0  0  0  0  0  0  0  0  0
   -0.1424    1.4577   -0.4943 C   0  0  0  0  0  0  0  0  0  0  0  0
    1.1922    0.9171   -0.4990 O   0  0  0  0  0  0  0  0  0  0  0  0
    1.7489    0.7414    0.7224 C   0  0  0  0  0  0  0  0  0  0  0  0
    1.2211    0.9256    1.8058 O   0  0  0  0  0  0  0  0  0  0  0  0
    3.0925    0.1618    0.5591 C   0  0  0  0  0  0  0  0  0  0  0  0
    3.3256   -1.0755    1.1778 C   0  0  0  0  0  0  0  0  0  0  0  0
    4.5718   -1.6917    1.0634 C   0  0  0  0  0  0  0  0  0  0  0  0
    5.5896   -1.0711    0.3411 C   0  0  0  0  0  0  0  0  0  0  0  0
    5.3674    0.1708   -0.2589 C   0  0  0  0  0  0  0  0  0  0  0  0
    4.1201    0.7958   -0.1479 C   0  0  0  0  0  0  0  0  0  0  0  0
    3.9348    2.5175   -0.9267 Br  0  0  0  0  0  0  0  0  0  0  0  0
   -4.2470   -1.6269   -2.1750 H   0  0  0  0  0  0  0  0  0  0  0  0
   -2.4881   -1.4899   -2.1274 H   0  0  0  0  0  0  0  0  0  0  0  0
   -3.4692   -0.1547   -2.7627 H   0  0  0  0  0  0  0  0  0  0  0  0
   -4.5500    0.1066   -0.5476 H   0  0  0  0  0  0  0  0  0  0  0  0
   -3.5876   -1.0166    1.4843 H   0  0  0  0  0  0  0  0  0  0  0  0
   -4.2731   -2.1505    0.3215 H   0  0  0  0  0  0  0  0  0  0  0  0
   -2.5212   -1.9721    0.4356 H   0  0  0  0  0  0  0  0  0  0  0  0
   -2.8921    1.2073    1.6517 H   0  0  0  0  0  0  0  0  0  0  0  0
   -4.0154    2.0105    0.5349 H   0  0  0  0  0  0  0  0  0  0  0  0
   -2.3768    2.5949    0.6738 H   0  0  0  0  0  0  0  0  0  0  0  0
   -0.9378   -0.4560   -0.9602 H   0  0  0  0  0  0  0  0  0  0  0  0
   -1.0210   -0.0945    0.7442 H   0  0  0  0  0  0  0  0  0  0  0  0
   -0.3013    1.9026   -1.4829 H   0  0  0  0  0  0  0  0  0  0  0  0
   -0.2142    2.2682    0.2395 H   0  0  0  0  0  0  0  0  0  0  0  0
    2.5348   -1.5598    1.7477 H   0  0  0  0  0  0  0  0  0  0  0  0
    4.7497   -2.6532    1.5397 H   0  0  0  0  0  0  0  0  0  0  0  0
    6.5626   -1.5494    0.2529 H   0  0  0  0  0  0  0  0  0  0  0  0
    6.1792    0.6481   -0.8035 H   0  0  0  0  0  0  0  0  0  0  0  0
  1  2  1  0
  2  3  1  0
  2  4  1  0
  4  5  1  0
  4  6  1  0
  6  7  1  0
  7  8  1  0
  8  9  1  0
  9 10  2  0
  9 11  1  0
 11 12  2  0
 12 13  1  0
 13 14  2  0
 14 15  1  0
 15 16  2  0
 16 17  1  0
 16 11  1  0
  1 18  1  0
  1 19  1  0
  1 20  1  0
  2 21  1  0
  3 22  1  0
  3 23  1  0
  3 24  1  0
  5 25  1  0
  5 26  1  0
  5 27  1  0
  6 28  1  0
  6 29  1  0
  7 30  1  0
  7 31  1  0
 12 32  1  0
 13 33  1  0
 14 34  1  0
 15 35  1  0
M  END
$$$$
