
     RDKit          3D

 52 56  0  0  0  0  0  0  0  0999 V2000
    0.8549   -1.7778    1.6618 O   0  0  0  0  0  0  0  0  0  0  0  0
    0.6054   -0.6761    2.1471 C   0  0  0  0  0  0  0  0  0  0  0  0
   -0.6969   -0.4601    2.9040 C   0  0  0  0  0  0  0  0  0  0  0  0
   -1.6254    1.0063    2.3700 S   0  0  0  0  0  0  0  0  0  0  0  0
   -1.4870    0.9078    0.6417 C   0  0  0  0  0  0  0  0  0  0  0  0
   -0.7733    1.7620   -0.0521 N   0  0  0  0  0  0  0  0  0  0  0  0
   -0.7144    1.3061   -1.3385 N   0  0  0  0  0  0  0  0  0  0  0  0
   -1.4054    0.1825   -1.4168 C   0  0  0  0  0  0  0  0  0  0  0  0
   -1.6933   -0.5348   -2.6959 C   0  0  0  0  0  0  0  0  0  0  0  0
   -3.1033   -0.3165   -3.1726 C   0  0  0  0  0  0  0  0  0  0  0  0
   -3.7261    0.8796   -3.4786 C   0  0  0  0  0  0  0  0  0  0  0  0
   -5.0739    0.6979   -3.9011 C   0  0  0  0  0  0  0  0  0  0  0  0
   -5.4353   -0.6302   -3.9115 C   0  0  0  0  0  0  0  0  0  0  0  0
   -4.1522   -1.6485   -3.4240 S   0  0  0  0  0  0  0  0  0  0  0  0
   -1.9287   -0.1252   -0.1658 N   0  0  0  0  0  0  0  0  0  0  0  0
   -2.7386   -1.2300    0.1914 C   0  0  0  0  0  0  0  0  0  0  0  0
   -3.9028   -1.0273    0.9434 C   0  0  0  0  0  0  0  0  0  0  0  0
   -4.6974   -2.1183    1.2980 C   0  0  0  0  0  0  0  0  0  0  0  0
   -4.3289   -3.4066    0.9133 C   0  0  0  0  0  0  0  0  0  0  0  0
   -3.1633   -3.6094    0.1755 C   0  0  0  0  0  0  0  0  0  0  0  0
   -2.3649   -2.5239   -0.1877 C   0  0  0  0  0  0  0  0  0  0  0  0
    1.4269    0.4357    2.1165 N   0  0  0  0  0  0  0  0  0  0  0  0
    2.7193    0.5323    1.5619 C   0  0  0  0  0  0  0  0  0  0  0  0
    3.4684   -0.5686    1.1373 C   0  0  0  0  0  0  0  0  0  0  0  0
    4.7485   -0.3924    0.5997 C   0  0  0  0  0  0  0  0  0  0  0  0
    5.2856    0.8854    0.4831 C   0  0  0  0  0  0  0  0  0  0  0  0
    4.5576    1.9879    0.9350 C   0  0  0  0  0  0  0  0  0  0  0  0
    3.2764    1.8137    1.4597 C   0  0  0  0  0  0  0  0  0  0  0  0
    5.0337    3.2740    0.8872 O   0  0  0  0  0  0  0  0  0  0  0  0
    6.4447    3.3013    0.6430 C   0  0  0  0  0  0  0  0  0  0  0  0
    6.8183    2.3328   -0.4670 C   0  0  0  0  0  0  0  0  0  0  0  0
    6.5337    0.9851   -0.0753 O   0  0  0  0  0  0  0  0  0  0  0  0
   -0.4634   -0.3628    3.9693 H   0  0  0  0  0  0  0  0  0  0  0  0
   -1.3266   -1.3471    2.7861 H   0  0  0  0  0  0  0  0  0  0  0  0
   -1.0175   -0.1435   -3.4689 H   0  0  0  0  0  0  0  0  0  0  0  0
   -1.4472   -1.5972   -2.6163 H   0  0  0  0  0  0  0  0  0  0  0  0
   -3.2345    1.8434   -3.3972 H   0  0  0  0  0  0  0  0  0  0  0  0
   -5.7428    1.5014   -4.1852 H   0  0  0  0  0  0  0  0  0  0  0  0
   -6.3904   -1.0545   -4.1884 H   0  0  0  0  0  0  0  0  0  0  0  0
   -4.2310   -0.0304    1.2296 H   0  0  0  0  0  0  0  0  0  0  0  0
   -5.6101   -1.9633    1.8684 H   0  0  0  0  0  0  0  0  0  0  0  0
   -4.9495   -4.2552    1.1910 H   0  0  0  0  0  0  0  0  0  0  0  0
   -2.8704   -4.6174   -0.1092 H   0  0  0  0  0  0  0  0  0  0  0  0
   -1.4346   -2.7202   -0.7155 H   0  0  0  0  0  0  0  0  0  0  0  0
    0.9911    1.3162    2.3750 H   0  0  0  0  0  0  0  0  0  0  0  0
    3.0869   -1.5820    1.2125 H   0  0  0  0  0  0  0  0  0  0  0  0
    5.3172   -1.2546    0.2632 H   0  0  0  0  0  0  0  0  0  0  0  0
    2.7228    2.6910    1.7821 H   0  0  0  0  0  0  0  0  0  0  0  0
    6.9642    3.0591    1.5785 H   0  0  0  0  0  0  0  0  0  0  0  0
    6.7123    4.3240    0.3590 H   0  0  0  0  0  0  0  0  0  0  0  0
    6.2714    2.5513   -1.3928 H   0  0  0  0  0  0  0  0  0  0  0  0
    7.8898    2.3966   -0.6806 H   0  0  0  0  0  0  0  0  0  0  0  0
  1  2  2  0
  2  3  1  0
  3  4  1  0
  4  5  1  0
  5  6  2  0
  6  7  1  0
  7  8  2  0
  8  9  1  0
  9 10  1  0
 10 11  2  0
 11 12  1  0
 12 13  2  0
 13 14  1  0
  8 15  1  0
 15 16  1  0
 16 17  2  0
 17 18  1  0
 18 19  2  0
 19 20  1  0
 20 21  2  0
  2 22  1  0
 22 23  1  0
 23 24  2  0
 24 25  1  0
 25 26  2  0
 26 27  1  0
 27 28  2  0
 27 29  1  0
 29 30  1  0
 30 31  1  0
 31 32  1  0
 15  5  1  0
 21 16  1  0
 28 23  1  0
 14 10  1  0
 32 26  1  0
  3 33  1  0
  3 34  1  0
  9 35  1  0
  9 36  1  0
 11 37  1  0
 12 38  1  0
 13 39  1  0
 17 40  1  0
 18 41  1  0
 19 42  1  0
 20 43  1  0
 21 44  1  0
 22 45  1  0
 24 46  1  0
 25 47  1  0
 28 48  1  0
 30 49  1  0
 30 50  1  0
 31 51  1  0
 31 52  1  0
M  END
$$$$
