
     RDKit          3D

 57 61  0  0  0  0  0  0  0  0999 V2000
    5.7931    1.0994   -0.6689 C   0  0  0  0  0  0  0  0  0  0  0  0
    4.4588    1.3171    0.0496 C   0  0  0  0  0  0  0  0  0  0  0  0
    4.6540    2.2952    1.2075 C   0  0  0  0  0  0  0  0  0  0  0  0
    3.8916   -0.0109    0.5629 C   0  0  0  0  0  0  0  0  0  0  0  0
    4.5869   -1.0290    0.5706 O   0  0  0  0  0  0  0  0  0  0  0  0
    2.5841   -0.0217    1.0469 N   0  0  0  0  0  0  0  0  0  0  0  0
    1.5536    0.9394    0.6780 C   0  0  0  0  0  0  0  0  0  0  0  0
    0.6893    0.3541   -0.4382 C   0  0  0  0  0  0  0  0  0  0  0  0
    0.0830   -1.0495   -0.1255 C   0  0  0  0  0  0  0  0  0  0  0  0
    1.2209   -1.9510    0.4548 C   0  0  0  0  0  0  0  0  0  0  0  0
    2.0456   -1.2784    1.5474 C   0  0  0  0  0  0  0  0  0  0  0  0
   -0.2867   -1.5715   -1.4374 O   0  0  0  0  0  0  0  0  0  0  0  0
   -0.9957   -2.7408   -1.4386 C   0  0  0  0  0  0  0  0  0  0  0  0
   -0.9931   -3.4638   -2.6317 C   0  0  0  0  0  0  0  0  0  0  0  0
   -1.6802   -4.6762   -2.7106 C   0  0  0  0  0  0  0  0  0  0  0  0
   -2.3686   -5.1523   -1.5985 C   0  0  0  0  0  0  0  0  0  0  0  0
   -3.0257   -6.3158   -1.6809 F   0  0  0  0  0  0  0  0  0  0  0  0
   -2.3928   -4.4358   -0.4091 C   0  0  0  0  0  0  0  0  0  0  0  0
   -1.7094   -3.2198   -0.3393 C   0  0  0  0  0  0  0  0  0  0  0  0
   -1.7481   -2.4061    0.8908 C   0  0  0  0  0  0  0  0  0  0  0  0
   -2.2433   -2.8719    1.9114 O   0  0  0  0  0  0  0  0  0  0  0  0
   -1.2001   -0.9869    0.7587 C   0  0  0  0  0  0  0  0  0  0  0  0
   -2.3373   -0.1259    0.2098 C   0  0  0  0  0  0  0  0  0  0  0  0
   -2.2645    1.0147    1.1605 C   0  0  0  0  0  0  0  0  0  0  0  0
   -3.0357    2.2631    0.9547 C   0  0  0  0  0  0  0  0  0  0  0  0
   -3.9273    2.4060   -0.1153 C   0  0  0  0  0  0  0  0  0  0  0  0
   -4.6323    3.6026   -0.2838 C   0  0  0  0  0  0  0  0  0  0  0  0
   -4.4500    4.6519    0.6159 C   0  0  0  0  0  0  0  0  0  0  0  0
   -5.3180    6.1206    0.4020 Cl  0  0  0  0  0  0  0  0  0  0  0  0
   -3.5687    4.5166    1.6859 C   0  0  0  0  0  0  0  0  0  0  0  0
   -2.8620    3.3229    1.8555 C   0  0  0  0  0  0  0  0  0  0  0  0
   -1.4796    0.8289    2.1708 N   0  0  0  0  0  0  0  0  0  0  0  0
   -0.9274   -0.4670    2.0586 O   0  0  0  0  0  0  0  0  0  0  0  0
    6.5534    0.6933    0.0075 H   0  0  0  0  0  0  0  0  0  0  0  0
    6.1724    2.0417   -1.0783 H   0  0  0  0  0  0  0  0  0  0  0  0
    5.6766    0.3946   -1.4995 H   0  0  0  0  0  0  0  0  0  0  0  0
    3.7697    1.7355   -0.6908 H   0  0  0  0  0  0  0  0  0  0  0  0
    5.3586    1.8944    1.9449 H   0  0  0  0  0  0  0  0  0  0  0  0
    3.7179    2.4990    1.7355 H   0  0  0  0  0  0  0  0  0  0  0  0
    5.0473    3.2511    0.8465 H   0  0  0  0  0  0  0  0  0  0  0  0
    1.9793    1.8846    0.3390 H   0  0  0  0  0  0  0  0  0  0  0  0
    0.9762    1.1689    1.5752 H   0  0  0  0  0  0  0  0  0  0  0  0
   -0.0892    1.0708   -0.7194 H   0  0  0  0  0  0  0  0  0  0  0  0
    1.3160    0.2617   -1.3376 H   0  0  0  0  0  0  0  0  0  0  0  0
    1.8917   -2.2317   -0.3698 H   0  0  0  0  0  0  0  0  0  0  0  0
    0.8305   -2.8992    0.8393 H   0  0  0  0  0  0  0  0  0  0  0  0
    1.4456   -1.0659    2.4372 H   0  0  0  0  0  0  0  0  0  0  0  0
    2.8515   -1.9475    1.8676 H   0  0  0  0  0  0  0  0  0  0  0  0
   -0.4452   -3.0934   -3.4950 H   0  0  0  0  0  0  0  0  0  0  0  0
   -1.6795   -5.2556   -3.6294 H   0  0  0  0  0  0  0  0  0  0  0  0
   -2.9450   -4.8238    0.4422 H   0  0  0  0  0  0  0  0  0  0  0  0
   -2.1904    0.1879   -0.8261 H   0  0  0  0  0  0  0  0  0  0  0  0
   -3.3228   -0.5961    0.3037 H   0  0  0  0  0  0  0  0  0  0  0  0
   -4.0979    1.6040   -0.8273 H   0  0  0  0  0  0  0  0  0  0  0  0
   -5.3244    3.7093   -1.1159 H   0  0  0  0  0  0  0  0  0  0  0  0
   -3.4276    5.3310    2.3921 H   0  0  0  0  0  0  0  0  0  0  0  0
   -2.1788    3.2271    2.6980 H   0  0  0  0  0  0  0  0  0  0  0  0
  1  2  1  0
  2  3  1  0
  2  4  1  0
  4  5  2  0
  4  6  1  0
  6  7  1  0
  7  8  1  0
  8  9  1  0
  9 10  1  0
 10 11  1  0
  9 12  1  0
 12 13  1  0
 13 14  2  0
 14 15  1  0
 15 16  2  0
 16 17  1  0
 16 18  1  0
 18 19  2  0
 19 20  1  0
 20 21  2  0
 20 22  1  0
 22 23  1  0
 23 24  1  0
 24 25  1  0
 25 26  2  0
 26 27  1  0
 27 28  2  0
 28 29  1  0
 28 30  1  0
 30 31  2  0
 24 32  2  0
 32 33  1  0
 11  6  1  0
 19 13  1  0
 33 22  1  0
 22  9  1  0
 31 25  1  0
  1 34  1  0
  1 35  1  0
  1 36  1  0
  2 37  1  0
  3 38  1  0
  3 39  1  0
  3 40  1  0
  7 41  1  0
  7 42  1  0
  8 43  1  0
  8 44  1  0
 10 45  1  0
 10 46  1  0
 11 47  1  0
 11 48  1  0
 14 49  1  0
 15 50  1  0
 18 51  1  0
 23 52  1  0
 23 53  1  0
 26 54  1  0
 27 55  1  0
 30 56  1  0
 31 57  1  0
M  END
$$$$
