
     RDKit          3D

 46 48  0  0  0  0  0  0  0  0999 V2000
    3.1571    1.0176   -4.1760 C   0  0  0  0  0  0  0  0  0  0  0  0
    2.6083    0.3647   -2.9167 C   0  0  0  0  0  0  0  0  0  0  0  0
    2.1409    1.3701   -1.8460 N   0  0  0  0  0  4  0  0  0  0  0  0
    0.9439    2.1835   -2.3363 C   0  0  0  0  0  0  0  0  0  0  0  0
    3.2725    2.3416   -1.4858 C   0  0  0  0  0  0  0  0  0  0  0  0
    1.7756    0.6141   -0.5350 C   0  0  0  0  0  0  0  0  0  0  0  0
    0.6486   -0.4141   -0.6946 C   0  0  0  0  0  0  0  0  0  0  0  0
    0.2934   -1.0550    0.6235 C   0  0  0  0  0  0  0  0  0  0  0  0
   -0.8562   -0.9454    1.3289 C   0  0  0  0  0  0  0  0  0  0  0  0
   -1.9909   -0.0949    0.8875 C   0  0  0  0  0  0  0  0  0  0  0  0
   -1.8392    1.2763    0.6316 C   0  0  0  0  0  0  0  0  0  0  0  0
   -2.9315    2.0459    0.2267 C   0  0  0  0  0  0  0  0  0  0  0  0
   -4.1872    1.4576    0.0928 C   0  0  0  0  0  0  0  0  0  0  0  0
   -4.3610    0.1057    0.3918 C   0  0  0  0  0  0  0  0  0  0  0  0
   -3.2742   -0.6703    0.8109 C   0  0  0  0  0  0  0  0  0  0  0  0
   -3.5705   -2.3756    1.2807 S   0  0  0  0  0  0  0  0  0  0  0  0
   -2.2847   -2.6082    2.5122 C   0  0  0  0  0  0  0  0  0  0  0  0
   -2.5091   -3.5235    3.5479 C   0  0  0  0  0  0  0  0  0  0  0  0
   -1.5388   -3.7240    4.5320 C   0  0  0  0  0  0  0  0  0  0  0  0
   -0.3455   -3.0076    4.4830 C   0  0  0  0  0  0  0  0  0  0  0  0
    0.8460   -3.2451    5.7008 Cl  0  0  0  0  0  0  0  0  0  0  0  0
   -0.1040   -2.0973    3.4542 C   0  0  0  0  0  0  0  0  0  0  0  0
   -1.0646   -1.9020    2.4511 C   0  0  0  0  0  0  0  0  0  0  0  0
    4.0753    1.5786   -3.9808 H   0  0  0  0  0  0  0  0  0  0  0  0
    3.4077    0.2416   -4.9074 H   0  0  0  0  0  0  0  0  0  0  0  0
    2.4300    1.6843   -4.6469 H   0  0  0  0  0  0  0  0  0  0  0  0
    1.7460   -0.2561   -3.1790 H   0  0  0  0  0  0  0  0  0  0  0  0
    3.3741   -0.2671   -2.4529 H   0  0  0  0  0  0  0  0  0  0  0  0
    0.5387    2.7457   -1.4899 H   0  0  0  0  0  0  0  0  0  0  0  0
    0.1945    1.5021   -2.7458 H   0  0  0  0  0  0  0  0  0  0  0  0
    1.2811    2.8762   -3.1120 H   0  0  0  0  0  0  0  0  0  0  0  0
    3.4825    2.9816   -2.3465 H   0  0  0  0  0  0  0  0  0  0  0  0
    2.9419    2.9593   -0.6450 H   0  0  0  0  0  0  0  0  0  0  0  0
    4.1543    1.7562   -1.2102 H   0  0  0  0  0  0  0  0  0  0  0  0
    2.6953    0.1254   -0.1896 H   0  0  0  0  0  0  0  0  0  0  0  0
    1.4990    1.3795    0.2003 H   0  0  0  0  0  0  0  0  0  0  0  0
   -0.2300    0.0288   -1.1677 H   0  0  0  0  0  0  0  0  0  0  0  0
    0.9709   -1.2226   -1.3609 H   0  0  0  0  0  0  0  0  0  0  0  0
    1.0421   -1.7732    0.9648 H   0  0  0  0  0  0  0  0  0  0  0  0
   -0.8809    1.7629    0.7786 H   0  0  0  0  0  0  0  0  0  0  0  0
   -2.8146    3.1104    0.0378 H   0  0  0  0  0  0  0  0  0  0  0  0
   -5.0423    2.0566   -0.2134 H   0  0  0  0  0  0  0  0  0  0  0  0
   -5.3554   -0.3307    0.3194 H   0  0  0  0  0  0  0  0  0  0  0  0
   -3.4421   -4.0814    3.6010 H   0  0  0  0  0  0  0  0  0  0  0  0
   -1.7245   -4.4338    5.3348 H   0  0  0  0  0  0  0  0  0  0  0  0
    0.8272   -1.5383    3.4460 H   0  0  0  0  0  0  0  0  0  0  0  0
  1  2  1  0
  2  3  1  0
  3  4  1  0
  3  5  1  0
  3  6  1  0
  6  7  1  0
  7  8  1  0
  8  9  2  3
  9 10  1  0
 10 11  2  0
 11 12  1  0
 12 13  2  0
 13 14  1  0
 14 15  2  0
 15 16  1  0
 16 17  1  0
 17 18  2  0
 18 19  1  0
 19 20  2  0
 20 21  1  0
 20 22  1  0
 22 23  2  0
 23  9  1  0
 15 10  1  0
 23 17  1  0
  1 24  1  0
  1 25  1  0
  1 26  1  0
  2 27  1  0
  2 28  1  0
  4 29  1  0
  4 30  1  0
  4 31  1  0
  5 32  1  0
  5 33  1  0
  5 34  1  0
  6 35  1  0
  6 36  1  0
  7 37  1  0
  7 38  1  0
  8 39  1  0
 11 40  1  0
 12 41  1  0
 13 42  1  0
 14 43  1  0
 18 44  1  0
 19 45  1  0
 22 46  1  0
M  CHG  1   3   1
M  END
$$$$
