
     RDKit          3D

 72 77  0  0  0  0  0  0  0  0999 V2000
   -5.1637   -3.2779    1.1410 C   0  0  0  0  0  0  0  0  0  0  0  0
   -5.9504   -2.0787    1.5797 C   0  0  0  0  0  0  0  0  0  0  0  0
   -6.6350   -2.0858    2.7948 C   0  0  0  0  0  0  0  0  0  0  0  0
   -7.3317   -0.9532    3.2190 C   0  0  0  0  0  0  0  0  0  0  0  0
   -7.3552    0.2172    2.4435 C   0  0  0  0  0  0  0  0  0  0  0  0
   -8.1100    1.4111    2.9625 C   0  0  0  0  0  0  0  0  0  0  0  0
   -6.6553    0.2427    1.2192 C   0  0  0  0  0  0  0  0  0  0  0  0
   -6.5960    1.4702    0.3352 C   0  0  0  0  0  0  0  0  0  0  0  0
   -5.4601    2.3116    0.6541 N   0  0  0  0  0  0  0  0  0  0  0  0
   -5.6062    3.4179    1.4260 N   0  0  0  0  0  0  0  0  0  0  0  0
   -4.4120    4.0000    1.5355 N   0  0  0  0  0  0  0  0  0  0  0  0
   -3.5367    3.2643    0.8001 C   0  0  0  0  0  0  0  0  0  0  0  0
   -2.1302    3.4340    0.5632 C   0  0  0  0  0  0  0  0  0  0  0  0
   -1.4287    4.3394    1.0005 O   0  0  0  0  0  0  0  0  0  0  0  0
   -1.6122    2.4359   -0.2548 N   0  0  0  0  0  0  0  0  0  0  0  0
   -2.3693    1.4173   -0.8204 C   0  0  0  0  0  0  0  0  0  0  0  0
   -1.6342    0.4144   -1.7008 C   0  0  0  0  0  0  0  0  0  0  0  0
   -0.6866   -0.4690   -0.8770 C   0  0  0  0  0  0  0  0  0  0  0  0
    0.7685   -0.0282   -0.9584 C   0  0  0  0  0  0  0  0  0  0  0  0
    1.2558    0.0788   -2.3606 N   0  0  0  0  0  0  0  0  0  0  0  0
    2.4808   -1.0342   -2.8132 S   0  0  0  0  0  6  0  0  0  0  0  0
    2.0065   -2.3527   -2.4480 O   0  0  0  0  0  0  0  0  0  0  0  0
    2.8949   -0.7271   -4.1651 O   0  0  0  0  0  0  0  0  0  0  0  0
    3.8257   -0.5956   -1.7394 C   0  0  0  0  0  0  0  0  0  0  0  0
    4.3633    0.6948   -1.8195 C   0  0  0  0  0  0  0  0  0  0  0  0
    5.4158    1.0551   -0.9757 C   0  0  0  0  0  0  0  0  0  0  0  0
    5.9255    0.1157   -0.0723 C   0  0  0  0  0  0  0  0  0  0  0  0
    7.2343    0.5674    1.0406 S   0  0  0  0  0  6  0  0  0  0  0  0
    6.9794   -0.0841    2.3067 O   0  0  0  0  0  0  0  0  0  0  0  0
    7.4357    1.9968    0.9477 O   0  0  0  0  0  0  0  0  0  0  0  0
    8.5740   -0.1452    0.2761 N   0  0  0  0  0  0  0  0  0  0  0  0
    9.3548   -1.0653    1.1132 C   0  0  0  0  0  0  0  0  0  0  0  0
   10.3584   -1.9907    0.4877 C   0  0  0  0  0  0  0  0  0  0  0  0
    9.0923   -2.5417    1.0750 C   0  0  0  0  0  0  0  0  0  0  0  0
    5.3862   -1.1742    0.0064 C   0  0  0  0  0  0  0  0  0  0  0  0
    4.3331   -1.5343   -0.8355 C   0  0  0  0  0  0  0  0  0  0  0  0
    0.1989    0.2151   -3.3994 C   0  0  0  0  0  0  0  0  0  0  0  0
   -0.9339    1.0885   -2.8835 C   0  0  0  0  0  0  0  0  0  0  0  0
   -3.6495    1.2635   -0.6208 N   0  0  0  0  0  0  0  0  0  0  0  0
   -4.1740    2.2034    0.2041 C   0  0  0  0  0  0  0  0  0  0  0  0
   -5.9563   -0.9114    0.8084 C   0  0  0  0  0  0  0  0  0  0  0  0
   -4.1459   -3.2238    1.5414 H   0  0  0  0  0  0  0  0  0  0  0  0
   -5.1096   -3.3317    0.0491 H   0  0  0  0  0  0  0  0  0  0  0  0
   -5.6355   -4.2022    1.4890 H   0  0  0  0  0  0  0  0  0  0  0  0
   -6.6288   -2.9719    3.4250 H   0  0  0  0  0  0  0  0  0  0  0  0
   -7.8553   -0.9901    4.1727 H   0  0  0  0  0  0  0  0  0  0  0  0
   -8.8482    1.7473    2.2282 H   0  0  0  0  0  0  0  0  0  0  0  0
   -8.6577    1.1707    3.8803 H   0  0  0  0  0  0  0  0  0  0  0  0
   -7.4213    2.2270    3.1958 H   0  0  0  0  0  0  0  0  0  0  0  0
   -6.5111    1.1827   -0.7197 H   0  0  0  0  0  0  0  0  0  0  0  0
   -7.5046    2.0757    0.4120 H   0  0  0  0  0  0  0  0  0  0  0  0
   -0.6317    2.5458   -0.4606 H   0  0  0  0  0  0  0  0  0  0  0  0
   -2.4058   -0.2542   -2.1102 H   0  0  0  0  0  0  0  0  0  0  0  0
   -0.7543   -1.4977   -1.2562 H   0  0  0  0  0  0  0  0  0  0  0  0
   -1.0006   -0.5102    0.1726 H   0  0  0  0  0  0  0  0  0  0  0  0
    0.8988    0.9535   -0.4910 H   0  0  0  0  0  0  0  0  0  0  0  0
    1.3804   -0.7222   -0.3734 H   0  0  0  0  0  0  0  0  0  0  0  0
    3.9647    1.4159   -2.5295 H   0  0  0  0  0  0  0  0  0  0  0  0
    5.8268    2.0613   -1.0255 H   0  0  0  0  0  0  0  0  0  0  0  0
    9.1446    0.6000   -0.1316 H   0  0  0  0  0  0  0  0  0  0  0  0
    9.6252   -0.6329    2.0760 H   0  0  0  0  0  0  0  0  0  0  0  0
   11.2811   -2.1782    1.0251 H   0  0  0  0  0  0  0  0  0  0  0  0
   10.4544   -1.9981   -0.5906 H   0  0  0  0  0  0  0  0  0  0  0  0
    9.1511   -3.0883    2.0093 H   0  0  0  0  0  0  0  0  0  0  0  0
    8.3395   -2.9142    0.3916 H   0  0  0  0  0  0  0  0  0  0  0  0
    5.7807   -1.8951    0.7193 H   0  0  0  0  0  0  0  0  0  0  0  0
    3.9163   -2.5383   -0.7781 H   0  0  0  0  0  0  0  0  0  0  0  0
    0.6330    0.6917   -4.2852 H   0  0  0  0  0  0  0  0  0  0  0  0
   -0.1834   -0.7705   -3.6902 H   0  0  0  0  0  0  0  0  0  0  0  0
   -1.6635    1.2634   -3.6837 H   0  0  0  0  0  0  0  0  0  0  0  0
   -0.5375    2.0749   -2.6155 H   0  0  0  0  0  0  0  0  0  0  0  0
   -5.3983   -0.8962   -0.1274 H   0  0  0  0  0  0  0  0  0  0  0  0
  1  2  1  0
  2  3  2  0
  3  4  1  0
  4  5  2  0
  5  6  1  0
  5  7  1  0
  7  8  1  0
  8  9  1  0
  9 10  1  0
 10 11  2  0
 11 12  1  0
 12 13  1  0
 13 14  2  0
 13 15  1  0
 15 16  1  0
 16 17  1  0
 17 18  1  0
 18 19  1  0
 19 20  1  0
 20 21  1  0
 21 22  2  0
 21 23  2  0
 21 24  1  0
 24 25  2  0
 25 26  1  0
 26 27  2  0
 27 28  1  0
 28 29  2  0
 28 30  2  0
 28 31  1  0
 31 32  1  0
 32 33  1  0
 33 34  1  0
 27 35  1  0
 35 36  2  0
 20 37  1  0
 37 38  1  0
 16 39  2  0
 39 40  1  0
  7 41  2  0
 41  2  1  0
 40  9  1  0
 40 12  2  0
 38 17  1  0
 36 24  1  0
 34 32  1  0
  1 42  1  0
  1 43  1  0
  1 44  1  0
  3 45  1  0
  4 46  1  0
  6 47  1  0
  6 48  1  0
  6 49  1  0
  8 50  1  0
  8 51  1  0
 15 52  1  0
 17 53  1  0
 18 54  1  0
 18 55  1  0
 19 56  1  0
 19 57  1  0
 25 58  1  0
 26 59  1  0
 31 60  1  0
 32 61  1  0
 33 62  1  0
 33 63  1  0
 34 64  1  0
 34 65  1  0
 35 66  1  0
 36 67  1  0
 37 68  1  0
 37 69  1  0
 38 70  1  0
 38 71  1  0
 41 72  1  0
M  END
$$$$
