
     RDKit          3D

 48 51  0  0  0  0  0  0  0  0999 V2000
    6.7471    1.4365   -2.3690 C   0  0  0  0  0  0  0  0  0  0  0  0
    5.9372    0.5198   -1.5483 C   0  0  0  0  0  0  0  0  0  0  0  0
    4.5934    0.2716   -1.4242 C   0  0  0  0  0  0  0  0  0  0  0  0
    4.5014   -0.7572   -0.4440 C   0  0  0  0  0  0  0  0  0  0  0  0
    3.3074   -1.4255    0.0922 C   0  0  0  0  0  0  0  0  0  0  0  0
    3.3522   -2.4452    0.7757 O   0  0  0  0  0  0  0  0  0  0  0  0
    2.1052   -0.8126   -0.2165 N   0  0  0  0  0  0  0  0  0  0  0  0
    0.8608   -1.2946    0.3478 C   0  0  0  0  0  0  0  0  0  0  0  0
    0.7014   -0.8208    1.8129 C   0  0  0  0  0  0  0  0  0  0  0  0
   -0.7646   -0.8683    2.3351 C   0  0  0  0  0  0  0  0  0  0  0  0
   -0.7951   -0.3259    3.7768 C   0  0  0  0  0  0  0  0  0  0  0  0
   -1.2832   -2.3207    2.3631 C   0  0  0  0  0  0  0  0  0  0  0  0
   -1.6880    0.0238    1.4460 C   0  0  0  0  0  0  0  0  0  0  0  0
   -1.3956   -0.1680   -0.0064 C   0  0  0  0  0  0  0  0  0  0  0  0
   -0.2541   -0.7786   -0.4960 C   0  0  0  0  0  0  0  0  0  0  0  0
   -0.4644   -0.8683   -1.8757 C   0  0  0  0  0  0  0  0  0  0  0  0
   -1.6149   -0.3159   -2.2487 N   0  0  0  0  0  0  0  0  0  0  0  0
   -2.1840    0.1618   -1.1025 N   0  0  0  0  0  0  0  0  0  0  0  0
   -3.4150    0.8853   -1.1968 C   0  0  0  0  0  0  0  0  0  0  0  0
   -4.1108    0.8751   -2.4232 C   0  0  0  0  0  0  0  0  0  0  0  0
   -5.3167    1.5658   -2.5688 C   0  0  0  0  0  0  0  0  0  0  0  0
   -5.8287    2.2774   -1.4948 C   0  0  0  0  0  0  0  0  0  0  0  0
   -6.9820    2.9440   -1.6300 F   0  0  0  0  0  0  0  0  0  0  0  0
   -5.1536    2.3153   -0.2817 C   0  0  0  0  0  0  0  0  0  0  0  0
   -3.9451    1.6240   -0.1308 C   0  0  0  0  0  0  0  0  0  0  0  0
    5.7305   -1.0980   -0.0197 N   0  0  0  0  0  0  0  0  0  0  0  0
    6.6190   -0.2979   -0.7074 O   0  0  0  0  0  0  0  0  0  0  0  0
    6.1092    2.0893   -2.9732 H   0  0  0  0  0  0  0  0  0  0  0  0
    7.3963    0.8726   -3.0463 H   0  0  0  0  0  0  0  0  0  0  0  0
    7.3752    2.0684   -1.7336 H   0  0  0  0  0  0  0  0  0  0  0  0
    3.7996    0.7530   -1.9741 H   0  0  0  0  0  0  0  0  0  0  0  0
    2.1146    0.1260   -0.5874 H   0  0  0  0  0  0  0  0  0  0  0  0
    0.8585   -2.3911    0.3161 H   0  0  0  0  0  0  0  0  0  0  0  0
    1.3559   -1.4187    2.4604 H   0  0  0  0  0  0  0  0  0  0  0  0
    1.0651    0.2141    1.8974 H   0  0  0  0  0  0  0  0  0  0  0  0
   -0.1708   -0.9336    4.4416 H   0  0  0  0  0  0  0  0  0  0  0  0
   -0.4229    0.7039    3.8219 H   0  0  0  0  0  0  0  0  0  0  0  0
   -1.8147   -0.3292    4.1786 H   0  0  0  0  0  0  0  0  0  0  0  0
   -2.2877   -2.3694    2.7990 H   0  0  0  0  0  0  0  0  0  0  0  0
   -1.3427   -2.7625    1.3637 H   0  0  0  0  0  0  0  0  0  0  0  0
   -0.6286   -2.9579    2.9685 H   0  0  0  0  0  0  0  0  0  0  0  0
   -2.7346   -0.2114    1.6693 H   0  0  0  0  0  0  0  0  0  0  0  0
   -1.5096    1.0782    1.6916 H   0  0  0  0  0  0  0  0  0  0  0  0
    0.1686   -1.3209   -2.6289 H   0  0  0  0  0  0  0  0  0  0  0  0
   -3.7281    0.3205   -3.2794 H   0  0  0  0  0  0  0  0  0  0  0  0
   -5.8528    1.5504   -3.5123 H   0  0  0  0  0  0  0  0  0  0  0  0
   -5.5672    2.8922    0.5401 H   0  0  0  0  0  0  0  0  0  0  0  0
   -3.4429    1.7231    0.8219 H   0  0  0  0  0  0  0  0  0  0  0  0
  1  2  1  0
  2  3  2  0
  3  4  1  0
  4  5  1  0
  5  6  2  0
  5  7  1  0
  7  8  1  0
  8  9  1  0
  9 10  1  0
 10 11  1  0
 10 12  1  0
 10 13  1  0
 13 14  1  0
 14 15  2  0
 15 16  1  0
 16 17  2  0
 17 18  1  0
 18 19  1  0
 19 20  2  0
 20 21  1  0
 21 22  2  0
 22 23  1  0
 22 24  1  0
 24 25  2  0
  4 26  2  0
 26 27  1  0
 27  2  1  0
 15  8  1  0
 25 19  1  0
 18 14  1  0
  1 28  1  0
  1 29  1  0
  1 30  1  0
  3 31  1  0
  7 32  1  0
  8 33  1  0
  9 34  1  0
  9 35  1  0
 11 36  1  0
 11 37  1  0
 11 38  1  0
 12 39  1  0
 12 40  1  0
 12 41  1  0
 13 42  1  0
 13 43  1  0
 16 44  1  0
 20 45  1  0
 21 46  1  0
 24 47  1  0
 25 48  1  0
M  END
$$$$
