
     RDKit          3D

 57 61  0  0  0  0  0  0  0  0999 V2000
   -6.2098   -0.0842   -3.6764 C   0  0  0  0  0  0  0  0  0  0  0  0
   -5.8265    0.0680   -2.2342 C   0  0  0  0  0  0  0  0  0  0  0  0
   -4.9462    1.0778   -1.8335 C   0  0  0  0  0  0  0  0  0  0  0  0
   -4.5646    1.1952   -0.4948 C   0  0  0  0  0  0  0  0  0  0  0  0
   -5.0537    0.3000    0.4669 C   0  0  0  0  0  0  0  0  0  0  0  0
   -4.6294    0.4164    1.9097 C   0  0  0  0  0  0  0  0  0  0  0  0
   -3.6227   -0.5689    2.2462 N   0  0  0  0  0  0  0  0  0  0  0  0
   -3.9578   -1.7174    2.8870 N   0  0  0  0  0  0  0  0  0  0  0  0
   -2.8417   -2.4262    3.0605 N   0  0  0  0  0  0  0  0  0  0  0  0
   -1.8166   -1.6982    2.5410 C   0  0  0  0  0  0  0  0  0  0  0  0
   -0.4112   -1.9815    2.4500 C   0  0  0  0  0  0  0  0  0  0  0  0
    0.1489   -2.9957    2.8513 O   0  0  0  0  0  0  0  0  0  0  0  0
    0.2913   -0.9530    1.8326 N   0  0  0  0  0  0  0  0  0  0  0  0
   -0.2901    0.2195    1.3614 C   0  0  0  0  0  0  0  0  0  0  0  0
    0.6432    1.2294    0.7063 C   0  0  0  0  0  0  0  0  0  0  0  0
    1.7248    1.7213    1.6812 C   0  0  0  0  0  0  0  0  0  0  0  0
    3.1221    1.2523    1.2846 C   0  0  0  0  0  0  0  0  0  0  0  0
    3.4202    1.7124   -0.0825 N   0  0  0  0  0  0  0  0  0  0  0  0
    5.0396    1.7305   -0.5953 S   0  0  0  0  0  6  0  0  0  0  0  0
    5.0750    2.4586   -1.8492 O   0  0  0  0  0  0  0  0  0  0  0  0
    5.8800    2.1309    0.5112 O   0  0  0  0  0  0  0  0  0  0  0  0
    5.3821    0.0360   -0.9660 C   0  0  0  0  0  0  0  0  0  0  0  0
    5.4697   -0.3859   -2.2989 C   0  0  0  0  0  0  0  0  0  0  0  0
    5.7751   -1.7186   -2.5851 C   0  0  0  0  0  0  0  0  0  0  0  0
    6.0014   -2.6220   -1.5463 C   0  0  0  0  0  0  0  0  0  0  0  0
    5.9276   -2.1923   -0.2205 C   0  0  0  0  0  0  0  0  0  0  0  0
    5.6241   -0.8625    0.0643 C   0  0  0  0  0  0  0  0  0  0  0  0
    5.5437   -0.4935    1.3496 F   0  0  0  0  0  0  0  0  0  0  0  0
    2.3727    1.5226   -1.1082 C   0  0  0  0  0  0  0  0  0  0  0  0
    1.2294    0.6594   -0.5904 C   0  0  0  0  0  0  0  0  0  0  0  0
   -1.5645    0.4873    1.4446 N   0  0  0  0  0  0  0  0  0  0  0  0
   -2.2748   -0.5062    2.0340 C   0  0  0  0  0  0  0  0  0  0  0  0
   -5.9209   -0.7228    0.0596 C   0  0  0  0  0  0  0  0  0  0  0  0
   -6.3002   -0.8388   -1.2794 C   0  0  0  0  0  0  0  0  0  0  0  0
   -7.2502   -0.4127   -3.7677 H   0  0  0  0  0  0  0  0  0  0  0  0
   -6.1214    0.8675   -4.2105 H   0  0  0  0  0  0  0  0  0  0  0  0
   -5.5605   -0.8199   -4.1602 H   0  0  0  0  0  0  0  0  0  0  0  0
   -4.5486    1.7800   -2.5629 H   0  0  0  0  0  0  0  0  0  0  0  0
   -3.8736    1.9862   -0.2105 H   0  0  0  0  0  0  0  0  0  0  0  0
   -4.2133    1.4075    2.1267 H   0  0  0  0  0  0  0  0  0  0  0  0
   -5.4891    0.2761    2.5763 H   0  0  0  0  0  0  0  0  0  0  0  0
    1.2810   -1.1249    1.7484 H   0  0  0  0  0  0  0  0  0  0  0  0
    0.0249    2.0998    0.4428 H   0  0  0  0  0  0  0  0  0  0  0  0
    1.5099    1.4159    2.7123 H   0  0  0  0  0  0  0  0  0  0  0  0
    1.7155    2.8201    1.6808 H   0  0  0  0  0  0  0  0  0  0  0  0
    3.8405    1.6744    1.9945 H   0  0  0  0  0  0  0  0  0  0  0  0
    3.1838    0.1615    1.3424 H   0  0  0  0  0  0  0  0  0  0  0  0
    5.3130    0.3147   -3.1174 H   0  0  0  0  0  0  0  0  0  0  0  0
    5.8468   -2.0504   -3.6194 H   0  0  0  0  0  0  0  0  0  0  0  0
    6.2452   -3.6585   -1.7701 H   0  0  0  0  0  0  0  0  0  0  0  0
    6.1104   -2.8863    0.5941 H   0  0  0  0  0  0  0  0  0  0  0  0
    2.7794    1.0559   -2.0102 H   0  0  0  0  0  0  0  0  0  0  0  0
    1.9959    2.5114   -1.3927 H   0  0  0  0  0  0  0  0  0  0  0  0
    0.4419    0.5913   -1.3513 H   0  0  0  0  0  0  0  0  0  0  0  0
    1.5921   -0.3659   -0.4426 H   0  0  0  0  0  0  0  0  0  0  0  0
   -6.2983   -1.4465    0.7820 H   0  0  0  0  0  0  0  0  0  0  0  0
   -6.9656   -1.6472   -1.5734 H   0  0  0  0  0  0  0  0  0  0  0  0
  1  2  1  0
  2  3  2  0
  3  4  1  0
  4  5  2  0
  5  6  1  0
  6  7  1  0
  7  8  1  0
  8  9  2  0
  9 10  1  0
 10 11  1  0
 11 12  2  0
 11 13  1  0
 13 14  1  0
 14 15  1  0
 15 16  1  0
 16 17  1  0
 17 18  1  0
 18 19  1  0
 19 20  2  0
 19 21  2  0
 19 22  1  0
 22 23  2  0
 23 24  1  0
 24 25  2  0
 25 26  1  0
 26 27  2  0
 27 28  1  0
 18 29  1  0
 29 30  1  0
 14 31  2  0
 31 32  1  0
  5 33  1  0
 33 34  2  0
 34  2  1  0
 32  7  1  0
 32 10  2  0
 30 15  1  0
 27 22  1  0
  1 35  1  0
  1 36  1  0
  1 37  1  0
  3 38  1  0
  4 39  1  0
  6 40  1  0
  6 41  1  0
 13 42  1  0
 15 43  1  0
 16 44  1  0
 16 45  1  0
 17 46  1  0
 17 47  1  0
 23 48  1  0
 24 49  1  0
 25 50  1  0
 26 51  1  0
 29 52  1  0
 29 53  1  0
 30 54  1  0
 30 55  1  0
 33 56  1  0
 34 57  1  0
M  END
$$$$
