
     RDKit          3D

 84 89  0  0  0  0  0  0  0  0999 V2000
    6.6157   -3.4308    1.3443 C   0  0  0  0  0  0  0  0  0  0  0  0
    6.3798   -3.1605   -0.0380 O   0  0  0  0  0  0  0  0  0  0  0  0
    7.2221   -2.2275   -0.5694 C   0  0  0  0  0  0  0  0  0  0  0  0
    8.1264   -1.6710    0.0367 O   0  0  0  0  0  0  0  0  0  0  0  0
    6.8867   -2.0179   -2.0278 C   0  0  0  0  0  0  0  0  0  0  0  0
    7.3887   -0.6819   -2.5770 C   0  0  0  0  0  0  0  0  0  0  0  0
    6.7799    0.5640   -1.9210 C   0  0  0  0  0  0  0  0  0  0  0  0
    5.2561    0.6372   -2.0417 C   0  0  0  0  0  0  0  0  0  0  0  0
    4.6769    1.9754   -1.5709 C   0  0  0  0  0  0  0  0  0  0  0  0
    4.9663    2.3480   -0.1129 C   0  0  0  0  0  0  0  0  0  0  0  0
    4.5536    1.3134    0.9423 C   0  0  0  0  0  0  0  0  0  0  0  0
    3.0715    0.9301    0.9347 C   0  0  0  0  0  0  0  0  0  0  0  0
    2.1441    2.0320    1.4317 C   0  0  0  0  0  0  0  0  0  0  0  0
    2.5817    3.1071    1.8407 O   0  0  0  0  0  0  0  0  0  0  0  0
    0.7803    1.7497    1.4301 N   0  0  0  0  0  0  0  0  0  0  0  0
   -0.1325    2.8687    1.7497 C   0  0  0  0  0  0  0  0  0  0  0  0
   -1.5565    2.4395    2.1863 C   0  0  0  0  0  0  0  0  0  0  0  0
   -2.0593    1.4514    1.2483 N   0  0  0  0  0  0  0  0  0  0  0  0
   -1.1772    0.2423    1.2566 C   0  0  2  0  0  0  0  0  0  0  0  0
    0.1853    0.6148    0.6816 C   0  0  0  0  0  0  0  0  0  0  0  0
   -2.0357   -0.7073    0.5246 C   0  0  0  0  0  0  0  0  0  0  0  0
   -3.3738   -0.2848    0.5750 C   0  0  0  0  0  0  0  0  0  0  0  0
   -4.1511   -1.2340   -0.0316 C   0  0  0  0  0  0  0  0  0  0  0  0
   -5.4802   -1.2937   -0.0933 O   0  0  0  0  0  0  0  0  0  0  0  0
   -3.2779   -2.2204   -0.5347 N   0  0  0  0  0  0  0  0  0  0  0  0
   -3.6697   -3.3840   -1.2585 C   0  0  0  0  0  0  0  0  0  0  0  0
   -4.6946   -3.3052   -2.2108 C   0  0  0  0  0  0  0  0  0  0  0  0
   -5.0783   -4.4479   -2.9148 C   0  0  0  0  0  0  0  0  0  0  0  0
   -4.4476   -5.6677   -2.6685 C   0  0  0  0  0  0  0  0  0  0  0  0
   -3.4286   -5.7487   -1.7207 C   0  0  0  0  0  0  0  0  0  0  0  0
   -3.0362   -4.6099   -1.0147 C   0  0  0  0  0  0  0  0  0  0  0  0
   -1.9573   -1.8669   -0.1911 C   0  0  0  0  0  0  0  0  0  0  0  0
   -0.8644   -2.5309   -0.5638 O   0  0  0  0  0  0  0  0  0  0  0  0
   -3.4708    1.0013    1.3113 C   0  0  1  0  0  0  0  0  0  0  0  0
   -4.0559    0.8556    2.7362 C   0  0  0  0  0  0  0  0  0  0  0  0
   -3.6106    0.2269    3.6853 O   0  0  0  0  0  0  0  0  0  0  0  0
   -5.2228    1.6224    2.7669 N   0  0  0  0  0  0  0  0  0  0  0  0
   -5.4704    2.2404    1.5408 C   0  0  0  0  0  0  0  0  0  0  0  0
   -4.4541    1.9073    0.6313 C   0  0  0  0  0  0  0  0  0  0  0  0
   -4.4582    2.4191   -0.6557 C   0  0  0  0  0  0  0  0  0  0  0  0
   -5.5100    3.2588   -1.0219 C   0  0  0  0  0  0  0  0  0  0  0  0
   -6.5307    3.5804   -0.1048 C   0  0  0  0  0  0  0  0  0  0  0  0
   -7.7879    4.6343   -0.6585 Cl  0  0  0  0  0  0  0  0  0  0  0  0
   -6.5308    3.0750    1.2098 C   0  0  0  0  0  0  0  0  0  0  0  0
   -7.6118    3.4291    2.1858 C   0  0  0  0  0  0  0  0  0  0  0  0
    7.6396   -3.7872    1.4999 H   0  0  0  0  0  0  0  0  0  0  0  0
    6.4198   -2.5376    1.9466 H   0  0  0  0  0  0  0  0  0  0  0  0
    5.9258   -4.2190    1.6576 H   0  0  0  0  0  0  0  0  0  0  0  0
    5.8035   -2.0974   -2.1663 H   0  0  0  0  0  0  0  0  0  0  0  0
    7.3533   -2.8364   -2.5878 H   0  0  0  0  0  0  0  0  0  0  0  0
    7.1848   -0.6502   -3.6546 H   0  0  0  0  0  0  0  0  0  0  0  0
    8.4796   -0.6303   -2.4680 H   0  0  0  0  0  0  0  0  0  0  0  0
    7.2216    1.4473   -2.3992 H   0  0  0  0  0  0  0  0  0  0  0  0
    7.0741    0.6030   -0.8671 H   0  0  0  0  0  0  0  0  0  0  0  0
    4.7911   -0.1783   -1.4789 H   0  0  0  0  0  0  0  0  0  0  0  0
    4.9718    0.4945   -3.0910 H   0  0  0  0  0  0  0  0  0  0  0  0
    5.0676    2.7753   -2.2120 H   0  0  0  0  0  0  0  0  0  0  0  0
    3.5935    1.9656   -1.7359 H   0  0  0  0  0  0  0  0  0  0  0  0
    4.4732    3.3035    0.0984 H   0  0  0  0  0  0  0  0  0  0  0  0
    6.0392    2.5433    0.0002 H   0  0  0  0  0  0  0  0  0  0  0  0
    5.1488    0.4031    0.8035 H   0  0  0  0  0  0  0  0  0  0  0  0
    4.8249    1.7032    1.9315 H   0  0  0  0  0  0  0  0  0  0  0  0
    2.9435    0.0734    1.6070 H   0  0  0  0  0  0  0  0  0  0  0  0
    2.7694    0.6223   -0.0696 H   0  0  0  0  0  0  0  0  0  0  0  0
    0.3088    3.4932    2.5348 H   0  0  0  0  0  0  0  0  0  0  0  0
   -0.1966    3.4834    0.8425 H   0  0  0  0  0  0  0  0  0  0  0  0
   -1.5161    2.0370    3.2055 H   0  0  0  0  0  0  0  0  0  0  0  0
   -2.1993    3.3264    2.2047 H   0  0  0  0  0  0  0  0  0  0  0  0
   -1.0520   -0.1245    2.2859 H   0  0  0  0  0  0  0  0  0  0  0  0
    0.8465   -0.2556    0.7199 H   0  0  0  0  0  0  0  0  0  0  0  0
    0.1132    0.9240   -0.3691 H   0  0  0  0  0  0  0  0  0  0  0  0
   -5.7488   -2.2242   -0.1945 H   0  0  0  0  0  0  0  0  0  0  0  0
   -5.1737   -2.3568   -2.4539 H   0  0  0  0  0  0  0  0  0  0  0  0
   -5.8637   -4.3865   -3.6652 H   0  0  0  0  0  0  0  0  0  0  0  0
   -4.7488   -6.5556   -3.2198 H   0  0  0  0  0  0  0  0  0  0  0  0
   -2.9443   -6.7027   -1.5266 H   0  0  0  0  0  0  0  0  0  0  0  0
   -2.2693   -4.7111   -0.2492 H   0  0  0  0  0  0  0  0  0  0  0  0
   -1.0769   -3.0713   -1.3447 H   0  0  0  0  0  0  0  0  0  0  0  0
   -5.7947    1.6858    3.5941 H   0  0  0  0  0  0  0  0  0  0  0  0
   -3.6678    2.1709   -1.3581 H   0  0  0  0  0  0  0  0  0  0  0  0
   -5.5359    3.6679   -2.0296 H   0  0  0  0  0  0  0  0  0  0  0  0
   -7.6238    4.5099    2.3604 H   0  0  0  0  0  0  0  0  0  0  0  0
   -7.4737    2.9486    3.1575 H   0  0  0  0  0  0  0  0  0  0  0  0
   -8.5884    3.1105    1.8061 H   0  0  0  0  0  0  0  0  0  0  0  0
  1  2  1  0
  2  3  1  0
  3  4  2  0
  3  5  1  0
  5  6  1  0
  6  7  1  0
  7  8  1  0
  8  9  1  0
  9 10  1  0
 10 11  1  0
 11 12  1  0
 12 13  1  0
 13 14  2  0
 13 15  1  0
 15 16  1  0
 16 17  1  0
 17 18  1  0
 18 19  1  0
 19 20  1  0
 19 21  1  0
 21 22  1  0
 22 23  2  0
 23 24  1  0
 23 25  1  0
 25 26  1  0
 26 27  2  0
 27 28  1  0
 28 29  2  0
 29 30  1  0
 30 31  2  0
 25 32  1  0
 32 33  1  0
 22 34  1  0
 34 35  1  0
 35 36  2  0
 35 37  1  0
 37 38  1  0
 38 39  2  0
 39 40  1  0
 40 41  2  0
 41 42  1  0
 42 43  1  0
 42 44  2  0
 44 45  1  0
 20 15  1  0
 32 21  2  0
 39 34  1  0
 34 18  1  1
 44 38  1  0
 31 26  1  0
  1 46  1  0
  1 47  1  0
  1 48  1  0
  5 49  1  0
  5 50  1  0
  6 51  1  0
  6 52  1  0
  7 53  1  0
  7 54  1  0
  8 55  1  0
  8 56  1  0
  9 57  1  0
  9 58  1  0
 10 59  1  0
 10 60  1  0
 11 61  1  0
 11 62  1  0
 12 63  1  0
 12 64  1  0
 16 65  1  0
 16 66  1  0
 17 67  1  0
 17 68  1  0
 19 69  1  1
 20 70  1  0
 20 71  1  0
 24 72  1  0
 27 73  1  0
 28 74  1  0
 29 75  1  0
 30 76  1  0
 31 77  1  0
 33 78  1  0
 37 79  1  0
 40 80  1  0
 41 81  1  0
 45 82  1  0
 45 83  1  0
 45 84  1  0
M  END
$$$$
