
     RDKit          3D

 60 63  0  0  0  0  0  0  0  0999 V2000
    7.7577   -4.1817    0.1114 C   0  0  0  0  0  0  0  0  0  0  0  0
    7.4895   -2.9815   -0.7795 C   0  0  0  0  0  0  0  0  0  0  0  0
    7.5404   -1.7748   -0.0199 O   0  0  0  0  0  0  0  0  0  0  0  0
    6.3722   -1.2576    0.4669 C   0  0  0  0  0  0  0  0  0  0  0  0
    6.4674    0.0595    0.9240 C   0  0  0  0  0  0  0  0  0  0  0  0
    5.3511    0.7145    1.4504 C   0  0  0  0  0  0  0  0  0  0  0  0
    4.1206    0.0526    1.5495 C   0  0  0  0  0  0  0  0  0  0  0  0
    2.9180    0.7713    2.1036 C   0  0  0  0  0  0  0  0  0  0  0  0
    2.1294    1.3515    1.0449 N   0  0  0  0  0  0  0  0  0  0  0  0
    2.3371    2.6392    0.5945 C   0  0  0  0  0  0  0  0  0  0  0  0
    3.1600    3.4019    1.0974 O   0  0  0  0  0  0  0  0  0  0  0  0
    1.5762    2.9964   -0.6833 C   0  0  0  0  0  0  0  0  0  0  0  0
    0.3505    2.2121   -0.8376 N   0  0  0  0  0  0  0  0  0  0  0  0
    0.4840    0.9593   -1.4576 N   0  0  0  0  0  0  0  0  0  0  0  0
   -0.5537    0.1891   -1.6412 C   0  0  0  0  0  0  0  0  0  0  0  0
   -0.3470   -1.1384   -2.3126 C   0  0  0  0  0  0  0  0  0  0  0  0
   -1.8499    0.6258   -1.1845 C   0  0  0  0  0  0  0  0  0  0  0  0
   -3.1304    0.1040   -1.2734 C   0  0  0  0  0  0  0  0  0  0  0  0
   -3.6359   -1.0664   -2.0354 C   0  0  0  0  0  0  0  0  0  0  0  0
   -3.9350    0.9678   -0.5211 N   0  0  0  0  0  0  0  0  0  0  0  0
   -5.2839    0.8242   -0.0748 C   0  0  0  0  0  0  0  0  0  0  0  0
   -5.9157   -0.4226    0.0057 C   0  0  0  0  0  0  0  0  0  0  0  0
   -7.2378   -0.5171    0.4571 C   0  0  0  0  0  0  0  0  0  0  0  0
   -7.9472    0.6266    0.8363 C   0  0  0  0  0  0  0  0  0  0  0  0
   -9.3537    0.5195    1.3457 C   0  0  0  0  0  0  0  0  0  0  0  0
   -7.3046    1.8677    0.7943 C   0  0  0  0  0  0  0  0  0  0  0  0
   -5.9838    1.9661    0.3469 C   0  0  0  0  0  0  0  0  0  0  0  0
   -3.2545    2.0984   -0.1898 N   0  0  0  0  0  0  0  0  0  0  0  0
   -1.9876    1.8542   -0.5295 C   0  0  0  0  0  0  0  0  0  0  0  0
   -0.8476    2.7340   -0.3073 C   0  0  0  0  0  0  0  0  0  0  0  0
   -0.9168    3.8139    0.2757 O   0  0  0  0  0  0  0  0  0  0  0  0
    4.0276   -1.2691    1.0909 C   0  0  0  0  0  0  0  0  0  0  0  0
    5.1477   -1.9217    0.5573 C   0  0  0  0  0  0  0  0  0  0  0  0
    6.9605   -4.3162    0.8496 H   0  0  0  0  0  0  0  0  0  0  0  0
    7.8359   -5.0933   -0.4877 H   0  0  0  0  0  0  0  0  0  0  0  0
    8.6900   -4.0437    0.6715 H   0  0  0  0  0  0  0  0  0  0  0  0
    6.5600   -3.0878   -1.3556 H   0  0  0  0  0  0  0  0  0  0  0  0
    8.2960   -2.9130   -1.5218 H   0  0  0  0  0  0  0  0  0  0  0  0
    7.4193    0.5884    0.8629 H   0  0  0  0  0  0  0  0  0  0  0  0
    5.4453    1.7512    1.7781 H   0  0  0  0  0  0  0  0  0  0  0  0
    3.2285    1.5473    2.8135 H   0  0  0  0  0  0  0  0  0  0  0  0
    2.2760    0.0709    2.6479 H   0  0  0  0  0  0  0  0  0  0  0  0
    1.6269    0.7362    0.4138 H   0  0  0  0  0  0  0  0  0  0  0  0
    1.3326    4.0638   -0.6520 H   0  0  0  0  0  0  0  0  0  0  0  0
    2.2276    2.8069   -1.5445 H   0  0  0  0  0  0  0  0  0  0  0  0
    0.7224   -1.3648   -2.3844 H   0  0  0  0  0  0  0  0  0  0  0  0
   -0.8333   -1.9312   -1.7375 H   0  0  0  0  0  0  0  0  0  0  0  0
   -0.7641   -1.1064   -3.3230 H   0  0  0  0  0  0  0  0  0  0  0  0
   -4.6643   -0.9202   -2.3819 H   0  0  0  0  0  0  0  0  0  0  0  0
   -3.0433   -1.2264   -2.9387 H   0  0  0  0  0  0  0  0  0  0  0  0
   -3.5782   -1.9777   -1.4327 H   0  0  0  0  0  0  0  0  0  0  0  0
   -5.4042   -1.3507   -0.2210 H   0  0  0  0  0  0  0  0  0  0  0  0
   -7.7074   -1.4982    0.5230 H   0  0  0  0  0  0  0  0  0  0  0  0
   -9.9509    1.3729    1.0064 H   0  0  0  0  0  0  0  0  0  0  0  0
   -9.8392   -0.3858    0.9653 H   0  0  0  0  0  0  0  0  0  0  0  0
   -9.3565    0.4918    2.4395 H   0  0  0  0  0  0  0  0  0  0  0  0
   -7.8261    2.7705    1.1089 H   0  0  0  0  0  0  0  0  0  0  0  0
   -5.5158    2.9514    0.3193 H   0  0  0  0  0  0  0  0  0  0  0  0
    3.0836   -1.8039    1.1487 H   0  0  0  0  0  0  0  0  0  0  0  0
    5.0341   -2.9503    0.2331 H   0  0  0  0  0  0  0  0  0  0  0  0
  1  2  1  0
  2  3  1  0
  3  4  1  0
  4  5  2  0
  5  6  1  0
  6  7  2  0
  7  8  1  0
  8  9  1  0
  9 10  1  0
 10 11  2  0
 10 12  1  0
 12 13  1  0
 13 14  1  0
 14 15  2  0
 15 16  1  0
 15 17  1  0
 17 18  2  0
 18 19  1  0
 18 20  1  0
 20 21  1  0
 21 22  2  0
 22 23  1  0
 23 24  2  0
 24 25  1  0
 24 26  1  0
 26 27  2  0
 20 28  1  0
 28 29  2  0
 29 30  1  0
 30 31  2  0
  7 32  1  0
 32 33  2  0
 33  4  1  0
 30 13  1  0
 29 17  1  0
 27 21  1  0
  1 34  1  0
  1 35  1  0
  1 36  1  0
  2 37  1  0
  2 38  1  0
  5 39  1  0
  6 40  1  0
  8 41  1  0
  8 42  1  0
  9 43  1  0
 12 44  1  0
 12 45  1  0
 16 46  1  0
 16 47  1  0
 16 48  1  0
 19 49  1  0
 19 50  1  0
 19 51  1  0
 22 52  1  0
 23 53  1  0
 25 54  1  0
 25 55  1  0
 25 56  1  0
 26 57  1  0
 27 58  1  0
 32 59  1  0
 33 60  1  0
M  END
$$$$
