
     RDKit          3D

 19 19  0  0  0  0  0  0  0  0999 V2000
   -3.4199    0.2099   -1.2540 C   0  0  0  0  0  0  0  0  0  0  0  0
   -2.5799   -1.0396   -1.0252 C   0  0  0  0  0  0  0  0  0  0  0  0
   -1.0862   -0.7581   -0.8569 C   0  0  0  0  0  0  0  0  0  0  0  0
   -0.7247    0.1252    0.6930 S   0  0  0  0  0  0  0  0  0  0  0  0
    1.0126    0.2906    0.5747 C   0  0  0  0  0  0  0  0  0  0  0  0
    1.7136   -0.2018   -0.4224 N   0  0  0  0  0  0  0  0  0  0  0  0
    3.0626    0.0645   -0.2848 N   0  0  0  0  0  0  0  0  0  0  0  0
    3.3301    0.7439    0.8078 C   0  0  0  0  0  0  0  0  0  0  0  0
    4.5653    1.1261    1.1862 N   0  0  0  0  0  0  0  0  0  0  0  0
    1.9458    1.1029    1.7593 S   0  0  0  0  0  0  0  0  0  0  0  0
   -4.4582   -0.0700   -1.4597 H   0  0  0  0  0  0  0  0  0  0  0  0
   -3.0484    0.7803   -2.1113 H   0  0  0  0  0  0  0  0  0  0  0  0
   -3.4217    0.8647   -0.3778 H   0  0  0  0  0  0  0  0  0  0  0  0
   -2.7063   -1.6962   -1.8949 H   0  0  0  0  0  0  0  0  0  0  0  0
   -2.9671   -1.5927   -0.1609 H   0  0  0  0  0  0  0  0  0  0  0  0
   -0.7206   -0.1712   -1.7066 H   0  0  0  0  0  0  0  0  0  0  0  0
   -0.5475   -1.7119   -0.8464 H   0  0  0  0  0  0  0  0  0  0  0  0
    5.3295    0.6360    0.7325 H   0  0  0  0  0  0  0  0  0  0  0  0
    4.7210    1.2974    2.1726 H   0  0  0  0  0  0  0  0  0  0  0  0
  1  2  1  0
  2  3  1  0
  3  4  1  0
  4  5  1  0
  5  6  2  0
  6  7  1  0
  7  8  2  0
  8  9  1  0
  8 10  1  0
 10  5  1  0
  1 11  1  0
  1 12  1  0
  1 13  1  0
  2 14  1  0
  2 15  1  0
  3 16  1  0
  3 17  1  0
  9 18  1  0
  9 19  1  0
M  END
$$$$
