
     RDKit          3D

 55 58  0  0  0  0  0  0  0  0999 V2000
    7.0785    0.4874   -1.8224 C   0  0  0  0  0  0  0  0  0  0  0  0
    7.0179    0.8252   -0.3382 C   0  0  0  0  0  0  0  0  0  0  0  0
    6.1090   -0.0760    0.3945 N   0  0  0  0  0  0  0  0  0  0  0  0
    6.6310   -1.4244    0.6626 C   0  0  0  0  0  0  0  0  0  0  0  0
    6.2322   -1.9056    2.0513 C   0  0  0  0  0  0  0  0  0  0  0  0
    4.7385    0.1318    0.2015 C   0  0  0  0  0  0  0  0  0  0  0  0
    4.1837    1.4105    0.3731 C   0  0  0  0  0  0  0  0  0  0  0  0
    2.8163    1.6600    0.1905 C   0  0  0  0  0  0  0  0  0  0  0  0
    1.9459    0.6268   -0.1554 C   0  0  0  0  0  0  0  0  0  0  0  0
    0.5249    0.9291   -0.3658 C   0  0  0  0  0  0  0  0  0  0  0  0
   -0.4783    0.1199    0.0137 C   0  0  0  0  0  0  0  0  0  0  0  0
   -1.9023    0.4304   -0.1862 C   0  0  0  0  0  0  0  0  0  0  0  0
   -2.8723   -0.4551    0.2534 C   0  0  0  0  0  0  0  0  0  0  0  0
   -4.2240   -0.1470    0.0549 C   0  0  0  0  0  0  0  0  0  0  0  0
   -5.2368   -1.1012    0.5287 C   0  0  0  0  0  0  0  0  0  0  0  0
   -5.7087   -2.1206   -0.3124 C   0  0  0  0  0  0  0  0  0  0  0  0
   -6.6682   -3.0292    0.1391 C   0  0  0  0  0  0  0  0  0  0  0  0
   -7.1657   -2.9306    1.4371 C   0  0  0  0  0  0  0  0  0  0  0  0
   -6.7052   -1.9248    2.2846 C   0  0  0  0  0  0  0  0  0  0  0  0
   -5.7456   -1.0160    1.8336 C   0  0  0  0  0  0  0  0  0  0  0  0
   -4.5618    1.0681   -0.5925 C   0  0  0  0  0  0  0  0  0  0  0  0
   -5.8916    1.4862   -0.8468 C   0  0  0  0  0  0  0  0  0  0  0  0
   -6.1597    2.6941   -1.4887 C   0  0  0  0  0  0  0  0  0  0  0  0
   -5.1063    3.5036   -1.8868 C   0  0  0  0  0  0  0  0  0  0  0  0
   -3.7928    3.0990   -1.6398 C   0  0  0  0  0  0  0  0  0  0  0  0
   -3.4986    1.9010   -1.0022 C   0  0  0  0  0  0  0  0  0  0  0  0
   -2.2079    1.5909   -0.8049 N   0  0  0  0  0  0  0  0  0  0  0  0
    2.4767   -0.6515   -0.3347 C   0  0  0  0  0  0  0  0  0  0  0  0
    3.8471   -0.8919   -0.1492 C   0  0  0  0  0  0  0  0  0  0  0  0
    7.7878    1.1486   -2.3301 H   0  0  0  0  0  0  0  0  0  0  0  0
    6.1017    0.6101   -2.3013 H   0  0  0  0  0  0  0  0  0  0  0  0
    7.4045   -0.5453   -1.9828 H   0  0  0  0  0  0  0  0  0  0  0  0
    8.0259    0.7422    0.0872 H   0  0  0  0  0  0  0  0  0  0  0  0
    6.7428    1.8776   -0.2114 H   0  0  0  0  0  0  0  0  0  0  0  0
    7.7280   -1.4059    0.6342 H   0  0  0  0  0  0  0  0  0  0  0  0
    6.3292   -2.1399   -0.1101 H   0  0  0  0  0  0  0  0  0  0  0  0
    6.6982   -2.8733    2.2628 H   0  0  0  0  0  0  0  0  0  0  0  0
    6.5588   -1.1954    2.8185 H   0  0  0  0  0  0  0  0  0  0  0  0
    5.1495   -2.0280    2.1486 H   0  0  0  0  0  0  0  0  0  0  0  0
    4.8111    2.2395    0.6888 H   0  0  0  0  0  0  0  0  0  0  0  0
    2.4416    2.6697    0.3412 H   0  0  0  0  0  0  0  0  0  0  0  0
    0.3101    1.8853   -0.8394 H   0  0  0  0  0  0  0  0  0  0  0  0
   -0.2639   -0.8197    0.5134 H   0  0  0  0  0  0  0  0  0  0  0  0
   -2.5930   -1.3808    0.7482 H   0  0  0  0  0  0  0  0  0  0  0  0
   -5.3295   -2.2084   -1.3287 H   0  0  0  0  0  0  0  0  0  0  0  0
   -7.0265   -3.8135   -0.5228 H   0  0  0  0  0  0  0  0  0  0  0  0
   -7.9124   -3.6381    1.7885 H   0  0  0  0  0  0  0  0  0  0  0  0
   -7.0922   -1.8470    3.2973 H   0  0  0  0  0  0  0  0  0  0  0  0
   -5.3956   -0.2347    2.5055 H   0  0  0  0  0  0  0  0  0  0  0  0
   -6.7331    0.8667   -0.5425 H   0  0  0  0  0  0  0  0  0  0  0  0
   -7.1866    2.9976   -1.6748 H   0  0  0  0  0  0  0  0  0  0  0  0
   -5.2981    4.4483   -2.3884 H   0  0  0  0  0  0  0  0  0  0  0  0
   -2.9711    3.7387   -1.9547 H   0  0  0  0  0  0  0  0  0  0  0  0
    1.8393   -1.4789   -0.6353 H   0  0  0  0  0  0  0  0  0  0  0  0
    4.1974   -1.9055   -0.3135 H   0  0  0  0  0  0  0  0  0  0  0  0
  1  2  1  0
  2  3  1  0
  3  4  1  0
  4  5  1  0
  3  6  1  0
  6  7  2  0
  7  8  1  0
  8  9  2  0
  9 10  1  0
 10 11  2  3
 11 12  1  0
 12 13  2  0
 13 14  1  0
 14 15  1  0
 15 16  2  0
 16 17  1  0
 17 18  2  0
 18 19  1  0
 19 20  2  0
 14 21  2  0
 21 22  1  0
 22 23  2  0
 23 24  1  0
 24 25  2  0
 25 26  1  0
 26 27  2  0
  9 28  1  0
 28 29  2  0
 29  6  1  0
 27 12  1  0
 20 15  1  0
 26 21  1  0
  1 30  1  0
  1 31  1  0
  1 32  1  0
  2 33  1  0
  2 34  1  0
  4 35  1  0
  4 36  1  0
  5 37  1  0
  5 38  1  0
  5 39  1  0
  7 40  1  0
  8 41  1  0
 10 42  1  0
 11 43  1  0
 13 44  1  0
 16 45  1  0
 17 46  1  0
 18 47  1  0
 19 48  1  0
 20 49  1  0
 22 50  1  0
 23 51  1  0
 24 52  1  0
 25 53  1  0
 28 54  1  0
 29 55  1  0
M  END
$$$$
