
     RDKit          3D

 51 55  0  0  0  0  0  0  0  0999 V2000
    7.9002   -1.6785   -2.6787 Cl  0  0  0  0  0  0  0  0  0  0  0  0
    6.7194   -0.9127   -1.6766 C   0  0  0  0  0  0  0  0  0  0  0  0
    6.8561   -1.0456   -0.2921 C   0  0  0  0  0  0  0  0  0  0  0  0
    5.9308   -0.4490    0.5677 C   0  0  0  0  0  0  0  0  0  0  0  0
    4.8596    0.2913    0.0525 C   0  0  0  0  0  0  0  0  0  0  0  0
    3.8472    0.9224    0.9814 C   0  0  0  0  0  0  0  0  0  0  0  0
    2.6358    0.0009    1.2094 C   0  0  0  0  0  0  0  0  0  0  0  0
    1.6973    0.5242    2.2190 N   0  0  0  0  0  0  0  0  0  0  0  0
    0.7125   -0.5109    2.6183 C   0  0  0  0  0  0  0  0  0  0  0  0
   -0.3615   -0.8413    1.5584 C   0  0  0  0  0  0  0  0  0  0  0  0
   -1.0652    0.3799    1.1185 N   0  0  0  0  0  0  0  0  0  0  0  0
   -2.2313    0.2097    0.3733 C   0  0  0  0  0  0  0  0  0  0  0  0
   -2.2584    0.6173   -0.8709 N   0  0  0  0  0  0  0  0  0  0  0  0
   -3.4109    0.4299   -1.6601 C   0  0  0  0  0  0  0  0  0  0  0  0
   -3.3848    0.8677   -2.9856 C   0  0  0  0  0  0  0  0  0  0  0  0
   -4.4966    0.6980   -3.8154 C   0  0  0  0  0  0  0  0  0  0  0  0
   -5.6501    0.0853   -3.3243 C   0  0  0  0  0  0  0  0  0  0  0  0
   -5.6993   -0.3599   -2.0028 C   0  0  0  0  0  0  0  0  0  0  0  0
   -4.5792   -0.1838   -1.1851 C   0  0  0  0  0  0  0  0  0  0  0  0
   -4.5470   -0.5912    0.1583 N   0  0  0  0  0  0  0  0  0  0  0  0
   -5.5240   -1.1916    0.9169 C   0  0  0  0  0  0  0  0  0  0  0  0
   -5.0431   -1.3381    2.2004 C   0  0  0  0  0  0  0  0  0  0  0  0
   -3.7266   -0.8217    2.2162 C   0  0  0  0  0  0  0  0  0  0  0  0
   -3.4268   -0.3969    0.9342 C   0  0  0  0  0  0  0  0  0  0  0  0
   -0.1296    1.4348    0.6771 C   0  0  0  0  0  0  0  0  0  0  0  0
    0.9407    1.7123    1.7555 C   0  0  0  0  0  0  0  0  0  0  0  0
    4.7241    0.4172   -1.3380 C   0  0  0  0  0  0  0  0  0  0  0  0
    5.6502   -0.1799   -2.2012 C   0  0  0  0  0  0  0  0  0  0  0  0
    5.4117    0.0250   -3.9004 Cl  0  0  0  0  0  0  0  0  0  0  0  0
    7.6835   -1.6147    0.1257 H   0  0  0  0  0  0  0  0  0  0  0  0
    6.0526   -0.5656    1.6434 H   0  0  0  0  0  0  0  0  0  0  0  0
    4.3295    1.1551    1.9397 H   0  0  0  0  0  0  0  0  0  0  0  0
    3.5388    1.8838    0.5548 H   0  0  0  0  0  0  0  0  0  0  0  0
    3.0226   -0.9645    1.5634 H   0  0  0  0  0  0  0  0  0  0  0  0
    2.1371   -0.2040    0.2546 H   0  0  0  0  0  0  0  0  0  0  0  0
    1.2322   -1.4304    2.9143 H   0  0  0  0  0  0  0  0  0  0  0  0
    0.2064   -0.1560    3.5263 H   0  0  0  0  0  0  0  0  0  0  0  0
    0.0970   -1.3305    0.6902 H   0  0  0  0  0  0  0  0  0  0  0  0
   -1.0592   -1.5624    1.9954 H   0  0  0  0  0  0  0  0  0  0  0  0
   -2.4876    1.3438   -3.3721 H   0  0  0  0  0  0  0  0  0  0  0  0
   -4.4599    1.0445   -4.8451 H   0  0  0  0  0  0  0  0  0  0  0  0
   -6.5127   -0.0438   -3.9738 H   0  0  0  0  0  0  0  0  0  0  0  0
   -6.6078   -0.8308   -1.6427 H   0  0  0  0  0  0  0  0  0  0  0  0
   -6.4866   -1.4536    0.5028 H   0  0  0  0  0  0  0  0  0  0  0  0
   -5.5874   -1.7604    3.0354 H   0  0  0  0  0  0  0  0  0  0  0  0
   -3.0666   -0.7618    3.0714 H   0  0  0  0  0  0  0  0  0  0  0  0
    0.3476    1.1470   -0.2675 H   0  0  0  0  0  0  0  0  0  0  0  0
   -0.6827    2.3654    0.5000 H   0  0  0  0  0  0  0  0  0  0  0  0
    0.4393    2.1430    2.6331 H   0  0  0  0  0  0  0  0  0  0  0  0
    1.6200    2.4960    1.4048 H   0  0  0  0  0  0  0  0  0  0  0  0
    3.8930    0.9850   -1.7520 H   0  0  0  0  0  0  0  0  0  0  0  0
  1  2  1  0
  2  3  2  0
  3  4  1  0
  4  5  2  0
  5  6  1  0
  6  7  1  0
  7  8  1  0
  8  9  1  0
  9 10  1  0
 10 11  1  0
 11 12  1  0
 12 13  2  0
 13 14  1  0
 14 15  2  0
 15 16  1  0
 16 17  2  0
 17 18  1  0
 18 19  2  0
 19 20  1  0
 20 21  1  0
 21 22  2  0
 22 23  1  0
 23 24  2  0
 11 25  1  0
 25 26  1  0
  5 27  1  0
 27 28  2  0
 28 29  1  0
 28  2  1  0
 26  8  1  0
 24 12  1  0
 19 14  1  0
 24 20  1  0
  3 30  1  0
  4 31  1  0
  6 32  1  0
  6 33  1  0
  7 34  1  0
  7 35  1  0
  9 36  1  0
  9 37  1  0
 10 38  1  0
 10 39  1  0
 15 40  1  0
 16 41  1  0
 17 42  1  0
 18 43  1  0
 21 44  1  0
 22 45  1  0
 23 46  1  0
 25 47  1  0
 25 48  1  0
 26 49  1  0
 26 50  1  0
 27 51  1  0
M  END
$$$$
