
     RDKit          3D

 51 54  0  0  0  0  0  0  0  0999 V2000
   -3.8272   -4.1044    2.4777 C   0  0  0  0  0  0  0  0  0  0  0  0
   -2.4072   -4.0142    2.4746 O   0  0  0  0  0  0  0  0  0  0  0  0
   -1.8366   -3.1379    1.5926 C   0  0  0  0  0  0  0  0  0  0  0  0
   -2.5296   -2.2445    0.7809 C   0  0  0  0  0  0  0  0  0  0  0  0
   -1.8290   -1.3796   -0.0827 C   0  0  0  0  0  0  0  0  0  0  0  0
   -2.5870   -0.4182   -0.8981 C   0  0  0  0  0  0  0  0  0  0  0  0
   -3.8161   -0.4439   -0.8657 O   0  0  0  0  0  0  0  0  0  0  0  0
   -1.8511    0.4748   -1.6599 N   0  0  0  0  0  0  0  0  0  0  0  0
   -2.5863    1.5186   -2.3601 C   0  0  0  0  0  0  0  0  0  0  0  0
   -2.8087    2.6659   -1.4344 C   0  0  0  0  0  0  0  0  0  0  0  0
   -3.7868    2.9556   -0.5046 C   0  0  0  0  0  0  0  0  0  0  0  0
   -3.4323    4.1947    0.0753 C   0  0  0  0  0  0  0  0  0  0  0  0
   -2.2641    4.5827   -0.5357 C   0  0  0  0  0  0  0  0  0  0  0  0
   -1.8799    3.6643   -1.4564 O   0  0  0  0  0  0  0  0  0  0  0  0
   -0.4728    0.4517   -1.7965 C   0  0  0  0  0  0  0  0  0  0  0  0
    0.1285    1.2332   -2.5380 O   0  0  0  0  0  0  0  0  0  0  0  0
    0.2171   -0.5187   -1.0744 N   0  0  0  0  0  0  0  0  0  0  0  0
    1.6783   -0.5060   -1.1993 C   0  0  0  0  0  0  0  0  0  0  0  0
    2.3113    0.4117   -0.1522 C   0  0  0  0  0  0  0  0  0  0  0  0
    1.8279    0.5683    0.9710 O   0  0  0  0  0  0  0  0  0  0  0  0
    3.5866    1.1131   -0.4841 C   0  0  0  0  0  0  0  0  0  0  0  0
    3.9496    2.2271    0.2901 C   0  0  0  0  0  0  0  0  0  0  0  0
    5.1335    2.9192    0.0250 C   0  0  0  0  0  0  0  0  0  0  0  0
    5.9674    2.4983   -1.0100 C   0  0  0  0  0  0  0  0  0  0  0  0
    5.6131    1.3853   -1.7731 C   0  0  0  0  0  0  0  0  0  0  0  0
    6.7525    0.8096   -3.1707 Br  0  0  0  0  0  0  0  0  0  0  0  0
    4.4306    0.6858   -1.5161 C   0  0  0  0  0  0  0  0  0  0  0  0
   -0.4377   -1.3993   -0.1704 C   0  0  0  0  0  0  0  0  0  0  0  0
    0.2543   -2.2962    0.6519 C   0  0  0  0  0  0  0  0  0  0  0  0
   -0.4388   -3.1343    1.5340 C   0  0  0  0  0  0  0  0  0  0  0  0
    0.2832   -4.0043    2.3160 O   0  0  0  0  0  0  0  0  0  0  0  0
    0.7748   -3.3176    3.4704 C   0  0  0  0  0  0  0  0  0  0  0  0
   -4.1122   -4.8836    3.1917 H   0  0  0  0  0  0  0  0  0  0  0  0
   -4.2786   -3.1642    2.8136 H   0  0  0  0  0  0  0  0  0  0  0  0
   -4.2086   -4.3998    1.4938 H   0  0  0  0  0  0  0  0  0  0  0  0
   -3.6139   -2.1866    0.8048 H   0  0  0  0  0  0  0  0  0  0  0  0
   -2.0428    1.8520   -3.2508 H   0  0  0  0  0  0  0  0  0  0  0  0
   -3.5521    1.1300   -2.7031 H   0  0  0  0  0  0  0  0  0  0  0  0
   -4.6418    2.3354   -0.2714 H   0  0  0  0  0  0  0  0  0  0  0  0
   -3.9583    4.7354    0.8479 H   0  0  0  0  0  0  0  0  0  0  0  0
   -1.6117    5.4367   -0.4331 H   0  0  0  0  0  0  0  0  0  0  0  0
    2.0915   -1.5150   -1.1148 H   0  0  0  0  0  0  0  0  0  0  0  0
    1.9365   -0.1514   -2.2023 H   0  0  0  0  0  0  0  0  0  0  0  0
    3.3051    2.5657    1.1015 H   0  0  0  0  0  0  0  0  0  0  0  0
    5.4029    3.7858    0.6267 H   0  0  0  0  0  0  0  0  0  0  0  0
    6.8876    3.0419   -1.2119 H   0  0  0  0  0  0  0  0  0  0  0  0
    4.1948   -0.1865   -2.1197 H   0  0  0  0  0  0  0  0  0  0  0  0
    1.3364   -2.3594    0.6590 H   0  0  0  0  0  0  0  0  0  0  0  0
    1.1275   -4.0665    4.1848 H   0  0  0  0  0  0  0  0  0  0  0  0
    1.6252   -2.6846    3.2012 H   0  0  0  0  0  0  0  0  0  0  0  0
   -0.0050   -2.7260    3.9578 H   0  0  0  0  0  0  0  0  0  0  0  0
  1  2  1  0
  2  3  1  0
  3  4  2  0
  4  5  1  0
  5  6  1  0
  6  7  2  0
  6  8  1  0
  8  9  1  0
  9 10  1  0
 10 11  2  0
 11 12  1  0
 12 13  2  0
 13 14  1  0
  8 15  1  0
 15 16  2  0
 15 17  1  0
 17 18  1  0
 18 19  1  0
 19 20  2  0
 19 21  1  0
 21 22  2  0
 22 23  1  0
 23 24  2  0
 24 25  1  0
 25 26  1  0
 25 27  2  0
 17 28  1  0
 28 29  1  0
 29 30  2  0
 30 31  1  0
 31 32  1  0
 30  3  1  0
 28  5  2  0
 14 10  1  0
 27 21  1  0
  1 33  1  0
  1 34  1  0
  1 35  1  0
  4 36  1  0
  9 37  1  0
  9 38  1  0
 11 39  1  0
 12 40  1  0
 13 41  1  0
 18 42  1  0
 18 43  1  0
 22 44  1  0
 23 45  1  0
 24 46  1  0
 27 47  1  0
 29 48  1  0
 32 49  1  0
 32 50  1  0
 32 51  1  0
M  END
$$$$
