
     RDKit          3D

 57 61  0  0  0  0  0  0  0  0999 V2000
   -6.0947    0.5012    4.1381 C   0  0  0  0  0  0  0  0  0  0  0  0
   -5.7754    0.6192    2.6774 C   0  0  0  0  0  0  0  0  0  0  0  0
   -4.7376    1.4502    2.2418 C   0  0  0  0  0  0  0  0  0  0  0  0
   -4.4185    1.5333    0.8847 C   0  0  0  0  0  0  0  0  0  0  0  0
   -5.1292    0.7821   -0.0613 C   0  0  0  0  0  0  0  0  0  0  0  0
   -4.7773    0.8613   -1.5253 C   0  0  0  0  0  0  0  0  0  0  0  0
   -3.8933   -0.2152   -1.9189 N   0  0  0  0  0  0  0  0  0  0  0  0
   -4.3813   -1.3404   -2.4989 N   0  0  0  0  0  0  0  0  0  0  0  0
   -3.3474   -2.1370   -2.7713 N   0  0  0  0  0  0  0  0  0  0  0  0
   -2.2198   -1.4873   -2.3728 C   0  0  0  0  0  0  0  0  0  0  0  0
   -0.8369   -1.8782   -2.4286 C   0  0  0  0  0  0  0  0  0  0  0  0
   -0.4128   -2.9322   -2.8861 O   0  0  0  0  0  0  0  0  0  0  0  0
   -0.0015   -0.9019   -1.8988 N   0  0  0  0  0  0  0  0  0  0  0  0
   -0.4370    0.3200   -1.4015 C   0  0  0  0  0  0  0  0  0  0  0  0
    0.6317    1.2680   -0.8620 C   0  0  0  0  0  0  0  0  0  0  0  0
    1.7563    1.5154   -1.8796 C   0  0  0  0  0  0  0  0  0  0  0  0
    3.0651    0.8226   -1.5043 C   0  0  0  0  0  0  0  0  0  0  0  0
    2.7479   -0.5058   -0.9368 N   0  0  0  0  0  0  0  0  0  0  0  0
    3.9529   -1.7154   -1.1059 S   0  0  0  0  0  6  0  0  0  0  0  0
    3.4388   -2.9171   -0.4860 O   0  0  0  0  0  0  0  0  0  0  0  0
    4.3830   -1.7048   -2.4872 O   0  0  0  0  0  0  0  0  0  0  0  0
    5.3001   -1.1151   -0.1114 C   0  0  0  0  0  0  0  0  0  0  0  0
    5.4326   -1.5480    1.2118 C   0  0  0  0  0  0  0  0  0  0  0  0
    6.5035   -1.0917    1.9801 C   0  0  0  0  0  0  0  0  0  0  0  0
    7.4436   -0.2236    1.4223 C   0  0  0  0  0  0  0  0  0  0  0  0
    7.3243    0.1829    0.0923 C   0  0  0  0  0  0  0  0  0  0  0  0
    6.2561   -0.2688   -0.6824 C   0  0  0  0  0  0  0  0  0  0  0  0
    2.0851   -0.4365    0.3939 C   0  0  0  0  0  0  0  0  0  0  0  0
    1.1646    0.7827    0.4897 C   0  0  0  0  0  0  0  0  0  0  0  0
   -1.6894    0.6857   -1.3533 N   0  0  0  0  0  0  0  0  0  0  0  0
   -2.5306   -0.2578   -1.8438 C   0  0  0  0  0  0  0  0  0  0  0  0
   -6.1529   -0.0673    0.3801 C   0  0  0  0  0  0  0  0  0  0  0  0
   -6.4705   -0.1493    1.7374 C   0  0  0  0  0  0  0  0  0  0  0  0
   -7.1601    0.2976    4.2890 H   0  0  0  0  0  0  0  0  0  0  0  0
   -5.5121   -0.3106    4.5840 H   0  0  0  0  0  0  0  0  0  0  0  0
   -5.8646    1.4328    4.6656 H   0  0  0  0  0  0  0  0  0  0  0  0
   -4.1676    2.0369    2.9585 H   0  0  0  0  0  0  0  0  0  0  0  0
   -3.6024    2.1817    0.5716 H   0  0  0  0  0  0  0  0  0  0  0  0
   -4.2828    1.8101   -1.7636 H   0  0  0  0  0  0  0  0  0  0  0  0
   -5.6806    0.8095   -2.1444 H   0  0  0  0  0  0  0  0  0  0  0  0
    0.9877   -1.1303   -1.9084 H   0  0  0  0  0  0  0  0  0  0  0  0
    0.1232    2.2281   -0.6948 H   0  0  0  0  0  0  0  0  0  0  0  0
    1.9515    2.5924   -1.9561 H   0  0  0  0  0  0  0  0  0  0  0  0
    1.4463    1.1972   -2.8828 H   0  0  0  0  0  0  0  0  0  0  0  0
    3.6171    1.4201   -0.7694 H   0  0  0  0  0  0  0  0  0  0  0  0
    3.6856    0.7439   -2.4019 H   0  0  0  0  0  0  0  0  0  0  0  0
    4.7162   -2.2418    1.6468 H   0  0  0  0  0  0  0  0  0  0  0  0
    6.6141   -1.4221    3.0105 H   0  0  0  0  0  0  0  0  0  0  0  0
    8.2822    0.1237    2.0218 H   0  0  0  0  0  0  0  0  0  0  0  0
    8.0730    0.8410   -0.3428 H   0  0  0  0  0  0  0  0  0  0  0  0
    6.1839    0.0313   -1.7253 H   0  0  0  0  0  0  0  0  0  0  0  0
    2.8187   -0.3903    1.2032 H   0  0  0  0  0  0  0  0  0  0  0  0
    1.4884   -1.3454    0.5303 H   0  0  0  0  0  0  0  0  0  0  0  0
    1.7290    1.6058    0.9483 H   0  0  0  0  0  0  0  0  0  0  0  0
    0.3406    0.5617    1.1789 H   0  0  0  0  0  0  0  0  0  0  0  0
   -6.7037   -0.6817   -0.3305 H   0  0  0  0  0  0  0  0  0  0  0  0
   -7.2631   -0.8229    2.0565 H   0  0  0  0  0  0  0  0  0  0  0  0
  1  2  1  0
  2  3  2  0
  3  4  1  0
  4  5  2  0
  5  6  1  0
  6  7  1  0
  7  8  1  0
  8  9  2  0
  9 10  1  0
 10 11  1  0
 11 12  2  0
 11 13  1  0
 13 14  1  0
 14 15  1  0
 15 16  1  0
 16 17  1  0
 17 18  1  0
 18 19  1  0
 19 20  2  0
 19 21  2  0
 19 22  1  0
 22 23  2  0
 23 24  1  0
 24 25  2  0
 25 26  1  0
 26 27  2  0
 18 28  1  0
 28 29  1  0
 14 30  2  0
 30 31  1  0
  5 32  1  0
 32 33  2  0
 33  2  1  0
 31  7  1  0
 31 10  2  0
 29 15  1  0
 27 22  1  0
  1 34  1  0
  1 35  1  0
  1 36  1  0
  3 37  1  0
  4 38  1  0
  6 39  1  0
  6 40  1  0
 13 41  1  0
 15 42  1  0
 16 43  1  0
 16 44  1  0
 17 45  1  0
 17 46  1  0
 23 47  1  0
 24 48  1  0
 25 49  1  0
 26 50  1  0
 27 51  1  0
 28 52  1  0
 28 53  1  0
 29 54  1  0
 29 55  1  0
 32 56  1  0
 33 57  1  0
M  END
$$$$
