
     RDKit          3D

 60 63  0  0  0  0  0  0  0  0999 V2000
   -7.0847    0.5956   -0.2963 C   0  0  0  0  0  0  0  0  0  0  0  0
   -6.4517    0.0025   -1.5194 C   0  0  0  0  0  0  0  0  0  0  0  0
   -7.2128   -0.7108   -2.4227 C   0  0  0  0  0  0  0  0  0  0  0  0
   -6.5487   -1.2395   -3.5130 C   0  0  0  0  0  0  0  0  0  0  0  0
   -7.2974   -2.0241   -4.5497 C   0  0  0  0  0  0  0  0  0  0  0  0
   -5.2229   -1.0829   -3.6945 N   0  0  0  0  0  0  0  0  0  0  0  0
   -4.5597   -0.3875   -2.7598 C   0  0  0  0  0  0  0  0  0  0  0  0
   -2.8098   -0.1821   -3.0052 S   0  0  0  0  0  0  0  0  0  0  0  0
   -2.3352    0.1507   -1.2876 C   0  0  0  0  0  0  0  0  0  0  0  0
   -0.8601    0.2919   -1.1419 C   0  0  0  0  0  0  0  0  0  0  0  0
   -0.0501   -0.6336   -0.6599 N   0  0  0  0  0  0  0  0  0  0  0  0
    1.2175   -0.1191   -0.6173 N   0  0  0  0  0  0  0  0  0  0  0  0
    1.1644    1.1064   -1.0793 C   0  0  0  0  0  0  0  0  0  0  0  0
    2.5157    2.1767   -1.1528 S   0  0  0  0  0  0  0  0  0  0  0  0
    2.8859    2.3138    0.6223 C   0  0  0  0  0  0  0  0  0  0  0  0
    3.9411    1.3180    1.0881 C   0  0  0  0  0  0  0  0  0  0  0  0
    4.9843    1.7289    1.5985 O   0  0  0  0  0  0  0  0  0  0  0  0
    3.5720   -0.0055    0.9606 N   0  0  0  0  0  0  0  0  0  0  0  0
    4.2645   -1.1534    1.3936 C   0  0  0  0  0  0  0  0  0  0  0  0
    3.6982   -2.3904    1.0780 C   0  0  0  0  0  0  0  0  0  0  0  0
    4.3184   -3.5768    1.4723 C   0  0  0  0  0  0  0  0  0  0  0  0
    5.5186   -3.5555    2.1947 C   0  0  0  0  0  0  0  0  0  0  0  0
    6.1299   -4.8616    2.6137 C   0  0  0  0  0  0  0  0  0  0  0  0
    6.0739   -2.3151    2.5516 C   0  0  0  0  0  0  0  0  0  0  0  0
    7.3458   -2.2119    3.3478 C   0  0  0  0  0  0  0  0  0  0  0  0
    5.4493   -1.1262    2.1253 C   0  0  0  0  0  0  0  0  0  0  0  0
   -0.1232    1.4258   -1.4175 N   0  0  0  0  0  0  0  0  0  0  0  0
   -0.6134    2.6869   -1.9385 C   0  0  0  0  0  0  0  0  0  0  0  0
   -0.9121    3.6345   -0.8307 C   0  0  0  0  0  0  0  0  0  0  0  0
   -1.9872    3.8078    0.0210 C   0  0  0  0  0  0  0  0  0  0  0  0
   -1.6560    4.8943    0.8713 C   0  0  0  0  0  0  0  0  0  0  0  0
   -0.4110    5.3264    0.4777 C   0  0  0  0  0  0  0  0  0  0  0  0
    0.0456    4.5695   -0.5556 O   0  0  0  0  0  0  0  0  0  0  0  0
   -5.1251    0.1735   -1.6755 N   0  0  0  0  0  0  0  0  0  0  0  0
   -6.3667    1.2123    0.2518 H   0  0  0  0  0  0  0  0  0  0  0  0
   -7.4253   -0.2017    0.3703 H   0  0  0  0  0  0  0  0  0  0  0  0
   -7.9353    1.2253   -0.5728 H   0  0  0  0  0  0  0  0  0  0  0  0
   -8.2782   -0.8503   -2.2838 H   0  0  0  0  0  0  0  0  0  0  0  0
   -6.6249   -2.3492   -5.3586 H   0  0  0  0  0  0  0  0  0  0  0  0
   -8.0887   -1.4011   -4.9884 H   0  0  0  0  0  0  0  0  0  0  0  0
   -7.7506   -2.9176   -4.1009 H   0  0  0  0  0  0  0  0  0  0  0  0
   -2.8251    1.0599   -0.9309 H   0  0  0  0  0  0  0  0  0  0  0  0
   -2.6728   -0.6807   -0.6548 H   0  0  0  0  0  0  0  0  0  0  0  0
    3.2724    3.3220    0.7961 H   0  0  0  0  0  0  0  0  0  0  0  0
    1.9863    2.2045    1.2368 H   0  0  0  0  0  0  0  0  0  0  0  0
    2.7193   -0.1942    0.4357 H   0  0  0  0  0  0  0  0  0  0  0  0
    2.7654   -2.4481    0.5219 H   0  0  0  0  0  0  0  0  0  0  0  0
    3.8570   -4.5217    1.2092 H   0  0  0  0  0  0  0  0  0  0  0  0
    7.2113   -4.7858    2.7408 H   0  0  0  0  0  0  0  0  0  0  0  0
    5.6836   -5.1910    3.5541 H   0  0  0  0  0  0  0  0  0  0  0  0
    5.9601   -5.6319    1.8547 H   0  0  0  0  0  0  0  0  0  0  0  0
    7.3255   -2.8960    4.2055 H   0  0  0  0  0  0  0  0  0  0  0  0
    7.4853   -1.2055    3.7511 H   0  0  0  0  0  0  0  0  0  0  0  0
    8.2056   -2.4477    2.7170 H   0  0  0  0  0  0  0  0  0  0  0  0
    5.9104   -0.1801    2.3915 H   0  0  0  0  0  0  0  0  0  0  0  0
    0.1376    3.0918   -2.6265 H   0  0  0  0  0  0  0  0  0  0  0  0
   -1.5146    2.4999   -2.5324 H   0  0  0  0  0  0  0  0  0  0  0  0
   -2.8993    3.2265    0.0369 H   0  0  0  0  0  0  0  0  0  0  0  0
   -2.2529    5.3166    1.6719 H   0  0  0  0  0  0  0  0  0  0  0  0
    0.2505    6.1168    0.8092 H   0  0  0  0  0  0  0  0  0  0  0  0
  1  2  1  0
  2  3  2  0
  3  4  1  0
  4  5  1  0
  4  6  2  0
  6  7  1  0
  7  8  1  0
  8  9  1  0
  9 10  1  0
 10 11  2  0
 11 12  1  0
 12 13  2  0
 13 14  1  0
 14 15  1  0
 15 16  1  0
 16 17  2  0
 16 18  1  0
 18 19  1  0
 19 20  2  0
 20 21  1  0
 21 22  2  0
 22 23  1  0
 22 24  1  0
 24 25  1  0
 24 26  2  0
 13 27  1  0
 27 28  1  0
 28 29  1  0
 29 30  2  0
 30 31  1  0
 31 32  2  0
 32 33  1  0
  7 34  2  0
 34  2  1  0
 27 10  1  0
 33 29  1  0
 26 19  1  0
  1 35  1  0
  1 36  1  0
  1 37  1  0
  3 38  1  0
  5 39  1  0
  5 40  1  0
  5 41  1  0
  9 42  1  0
  9 43  1  0
 15 44  1  0
 15 45  1  0
 18 46  1  0
 20 47  1  0
 21 48  1  0
 23 49  1  0
 23 50  1  0
 23 51  1  0
 25 52  1  0
 25 53  1  0
 25 54  1  0
 26 55  1  0
 28 56  1  0
 28 57  1  0
 30 58  1  0
 31 59  1  0
 32 60  1  0
M  END
$$$$
