
     RDKit          3D

 32 32  0  0  0  0  0  0  0  0999 V2000
   -3.7609    2.3308   -1.0603 C   0  0  0  0  0  0  0  0  0  0  0  0
   -3.1990    1.4447   -0.4752 C   0  0  0  0  0  0  0  0  0  0  0  0
   -2.5092    0.3646    0.2496 C   0  0  0  0  0  0  0  0  0  0  0  0
   -2.2458   -0.8471   -0.5458 N   0  0  0  0  0  0  0  0  0  0  0  0
   -3.4950   -1.5061   -0.9360 C   0  0  0  0  0  0  0  0  0  0  0  0
   -1.3900   -0.6212   -1.7206 C   0  0  0  0  0  0  0  0  0  0  0  0
    0.0560   -0.2484   -1.3802 C   0  0  0  0  0  0  0  0  0  0  0  0
    0.7744   -1.3416   -0.5909 C   0  0  0  0  0  0  0  0  0  0  0  0
    2.1556   -1.0124   -0.4286 O   0  0  0  0  0  0  0  0  0  0  0  0
    2.5587   -0.2566    0.6383 C   0  0  0  0  0  0  0  0  0  0  0  0
    1.7069    0.2707    1.6134 C   0  0  0  0  0  0  0  0  0  0  0  0
    2.2211    1.0362    2.6662 C   0  0  0  0  0  0  0  0  0  0  0  0
    3.5896    1.2791    2.7493 C   0  0  0  0  0  0  0  0  0  0  0  0
    4.2119    2.2215    4.0466 Cl  0  0  0  0  0  0  0  0  0  0  0  0
    4.4541    0.7655    1.7897 C   0  0  0  0  0  0  0  0  0  0  0  0
    3.9383    0.0018    0.7395 C   0  0  0  0  0  0  0  0  0  0  0  0
    5.0562   -0.6125   -0.4309 Cl  0  0  0  0  0  0  0  0  0  0  0  0
   -4.2591    3.1159   -1.5809 H   0  0  0  0  0  0  0  0  0  0  0  0
   -1.5689    0.7479    0.6600 H   0  0  0  0  0  0  0  0  0  0  0  0
   -3.1021    0.0876    1.1309 H   0  0  0  0  0  0  0  0  0  0  0  0
   -4.0773   -0.9176   -1.6535 H   0  0  0  0  0  0  0  0  0  0  0  0
   -3.2844   -2.4812   -1.3897 H   0  0  0  0  0  0  0  0  0  0  0  0
   -4.1210   -1.7042   -0.0587 H   0  0  0  0  0  0  0  0  0  0  0  0
   -1.3493   -1.5442   -2.3148 H   0  0  0  0  0  0  0  0  0  0  0  0
   -1.8153    0.1422   -2.3837 H   0  0  0  0  0  0  0  0  0  0  0  0
    0.6042   -0.0763   -2.3158 H   0  0  0  0  0  0  0  0  0  0  0  0
    0.1026    0.7077   -0.8480 H   0  0  0  0  0  0  0  0  0  0  0  0
    0.2924   -1.5841    0.3619 H   0  0  0  0  0  0  0  0  0  0  0  0
    0.7536   -2.2688   -1.1761 H   0  0  0  0  0  0  0  0  0  0  0  0
    0.6348    0.1102    1.5874 H   0  0  0  0  0  0  0  0  0  0  0  0
    1.5455    1.4393    3.4171 H   0  0  0  0  0  0  0  0  0  0  0  0
    5.5215    0.9564    1.8552 H   0  0  0  0  0  0  0  0  0  0  0  0
  1  2  3  0
  2  3  1  0
  3  4  1  0
  4  5  1  0
  4  6  1  0
  6  7  1  0
  7  8  1  0
  8  9  1  0
  9 10  1  0
 10 11  2  0
 11 12  1  0
 12 13  2  0
 13 14  1  0
 13 15  1  0
 15 16  2  0
 16 17  1  0
 16 10  1  0
  1 18  1  0
  3 19  1  0
  3 20  1  0
  5 21  1  0
  5 22  1  0
  5 23  1  0
  6 24  1  0
  6 25  1  0
  7 26  1  0
  7 27  1  0
  8 28  1  0
  8 29  1  0
 11 30  1  0
 12 31  1  0
 15 32  1  0
M  END
$$$$
