
     RDKit          3D

 61 67  0  0  0  0  0  0  0  0999 V2000
    3.2164    0.1568    3.0399 O   0  0  0  0  0  0  0  0  0  0  0  0
    3.0513    0.2450    1.8253 C   0  0  0  0  0  0  0  0  0  0  0  0
    4.2143    0.6383    0.9981 C   0  0  0  0  0  0  0  0  0  0  0  0
    4.1274    1.7351    0.1134 C   0  0  0  0  0  0  0  0  0  0  0  0
    5.2364    2.1152   -0.6480 C   0  0  0  0  0  0  0  0  0  0  0  0
    6.4009    1.3943   -0.4856 C   0  0  0  0  0  0  0  0  0  0  0  0
    6.4887    0.3389    0.3943 C   0  0  0  0  0  0  0  0  0  0  0  0
    5.4157   -0.0622    1.1596 C   0  0  0  0  0  0  0  0  0  0  0  0
    7.7263   -0.2248    0.4044 O   0  0  0  0  0  0  0  0  0  0  0  0
    8.4114    0.6027   -0.5587 C   0  0  0  0  0  0  0  0  0  0  0  0
    7.5721    1.6241   -1.1372 O   0  0  0  0  0  0  0  0  0  0  0  0
    1.8288    0.0004    1.2022 N   0  0  0  0  0  0  0  0  0  0  0  0
    0.6680   -0.2319    2.0532 C   0  0  0  0  0  0  0  0  0  0  0  0
   -0.6259    0.0219    1.2884 C   0  0  0  0  0  0  0  0  0  0  0  0
   -0.7903   -0.9670    0.1001 C   0  0  0  0  0  0  0  0  0  0  0  0
    0.6130   -1.3185   -0.4868 C   0  0  0  0  0  0  0  0  0  0  0  0
    1.6570   -0.2355   -0.2322 C   0  0  0  0  0  0  0  0  0  0  0  0
   -1.3485   -2.1636    0.7085 O   0  0  0  0  0  0  0  0  0  0  0  0
   -1.8189   -3.1158   -0.1497 C   0  0  0  0  0  0  0  0  0  0  0  0
   -1.9819   -4.3956    0.3830 C   0  0  0  0  0  0  0  0  0  0  0  0
   -2.4435   -5.4337   -0.4277 C   0  0  0  0  0  0  0  0  0  0  0  0
   -2.7438   -5.1825   -1.7628 C   0  0  0  0  0  0  0  0  0  0  0  0
   -3.1860   -6.1816   -2.5365 F   0  0  0  0  0  0  0  0  0  0  0  0
   -2.6006   -3.9108   -2.3024 C   0  0  0  0  0  0  0  0  0  0  0  0
   -2.1446   -2.8744   -1.4834 C   0  0  0  0  0  0  0  0  0  0  0  0
   -2.0258   -1.5034   -2.0110 C   0  0  0  0  0  0  0  0  0  0  0  0
   -2.1791   -1.3034   -3.2116 O   0  0  0  0  0  0  0  0  0  0  0  0
   -1.7669   -0.4124   -0.9760 C   0  0  0  0  0  0  0  0  0  0  0  0
   -3.1199    0.0671   -0.4651 C   0  0  0  0  0  0  0  0  0  0  0  0
   -2.9233    1.5374   -0.5929 C   0  0  0  0  0  0  0  0  0  0  0  0
   -3.8901    2.5088   -0.0296 C   0  0  0  0  0  0  0  0  0  0  0  0
   -3.6015    3.8769   -0.1100 C   0  0  0  0  0  0  0  0  0  0  0  0
   -4.4916    4.8163    0.4144 C   0  0  0  0  0  0  0  0  0  0  0  0
   -5.6733    4.3937    1.0200 C   0  0  0  0  0  0  0  0  0  0  0  0
   -5.9676    3.0331    1.1012 C   0  0  0  0  0  0  0  0  0  0  0  0
   -5.0797    2.0895    0.5771 C   0  0  0  0  0  0  0  0  0  0  0  0
   -1.8523    1.8911   -1.2280 N   0  0  0  0  0  0  0  0  0  0  0  0
   -1.1841    0.7165   -1.6375 O   0  0  0  0  0  0  0  0  0  0  0  0
    3.2008    2.2987    0.0307 H   0  0  0  0  0  0  0  0  0  0  0  0
    5.1885    2.9530   -1.3347 H   0  0  0  0  0  0  0  0  0  0  0  0
    5.5005   -0.8848    1.8610 H   0  0  0  0  0  0  0  0  0  0  0  0
    9.2619    1.0861   -0.0642 H   0  0  0  0  0  0  0  0  0  0  0  0
    8.7899   -0.0372   -1.3640 H   0  0  0  0  0  0  0  0  0  0  0  0
    0.7176   -1.2643    2.4192 H   0  0  0  0  0  0  0  0  0  0  0  0
    0.7227    0.4291    2.9257 H   0  0  0  0  0  0  0  0  0  0  0  0
   -0.6028    1.0597    0.9400 H   0  0  0  0  0  0  0  0  0  0  0  0
   -1.4663   -0.0730    1.9864 H   0  0  0  0  0  0  0  0  0  0  0  0
    0.9728   -2.2566   -0.0416 H   0  0  0  0  0  0  0  0  0  0  0  0
    0.5591   -1.5053   -1.5652 H   0  0  0  0  0  0  0  0  0  0  0  0
    1.3558    0.7119   -0.6919 H   0  0  0  0  0  0  0  0  0  0  0  0
    2.6066   -0.5426   -0.6808 H   0  0  0  0  0  0  0  0  0  0  0  0
   -1.7381   -4.5890    1.4252 H   0  0  0  0  0  0  0  0  0  0  0  0
   -2.5674   -6.4363   -0.0288 H   0  0  0  0  0  0  0  0  0  0  0  0
   -2.8519   -3.7380   -3.3453 H   0  0  0  0  0  0  0  0  0  0  0  0
   -3.3318   -0.2367    0.5624 H   0  0  0  0  0  0  0  0  0  0  0  0
   -3.9560   -0.2326   -1.1067 H   0  0  0  0  0  0  0  0  0  0  0  0
   -2.6839    4.2218   -0.5831 H   0  0  0  0  0  0  0  0  0  0  0  0
   -4.2622    5.8771    0.3469 H   0  0  0  0  0  0  0  0  0  0  0  0
   -6.3673    5.1262    1.4260 H   0  0  0  0  0  0  0  0  0  0  0  0
   -6.8930    2.7077    1.5707 H   0  0  0  0  0  0  0  0  0  0  0  0
   -5.3440    1.0390    0.6496 H   0  0  0  0  0  0  0  0  0  0  0  0
  1  2  2  0
  2  3  1  0
  3  4  2  0
  4  5  1  0
  5  6  2  0
  6  7  1  0
  7  8  2  0
  7  9  1  0
  9 10  1  0
 10 11  1  0
  2 12  1  0
 12 13  1  0
 13 14  1  0
 14 15  1  0
 15 16  1  0
 16 17  1  0
 15 18  1  0
 18 19  1  0
 19 20  2  0
 20 21  1  0
 21 22  2  0
 22 23  1  0
 22 24  1  0
 24 25  2  0
 25 26  1  0
 26 27  2  0
 26 28  1  0
 28 29  1  0
 29 30  1  0
 30 31  1  0
 31 32  2  0
 32 33  1  0
 33 34  2  0
 34 35  1  0
 35 36  2  0
 30 37  2  0
 37 38  1  0
  8  3  1  0
 17 12  1  0
 25 19  1  0
 38 28  1  0
 11  6  1  0
 28 15  1  0
 36 31  1  0
  4 39  1  0
  5 40  1  0
  8 41  1  0
 10 42  1  0
 10 43  1  0
 13 44  1  0
 13 45  1  0
 14 46  1  0
 14 47  1  0
 16 48  1  0
 16 49  1  0
 17 50  1  0
 17 51  1  0
 20 52  1  0
 21 53  1  0
 24 54  1  0
 29 55  1  0
 29 56  1  0
 32 57  1  0
 33 58  1  0
 34 59  1  0
 35 60  1  0
 36 61  1  0
M  END
$$$$
