
     RDKit          3D

 53 55  0  0  0  0  0  0  0  0999 V2000
   -7.0497    0.8242    0.7144 C   0  0  0  0  0  0  0  0  0  0  0  0
   -5.9951    0.1233    0.0673 O   0  0  0  0  0  0  0  0  0  0  0  0
   -5.9000   -1.2249    0.2946 C   0  0  0  0  0  0  0  0  0  0  0  0
   -6.7576   -1.9555    1.1242 C   0  0  0  0  0  0  0  0  0  0  0  0
   -6.5674   -3.3275    1.3084 C   0  0  0  0  0  0  0  0  0  0  0  0
   -5.5175   -3.9801    0.6704 C   0  0  0  0  0  0  0  0  0  0  0  0
   -4.6583   -3.2624   -0.1589 C   0  0  0  0  0  0  0  0  0  0  0  0
   -4.8457   -1.8846   -0.3651 C   0  0  0  0  0  0  0  0  0  0  0  0
   -3.8852   -1.1397   -1.2564 C   0  0  0  0  0  0  0  0  0  0  0  0
   -2.8461   -0.5083   -0.4850 N   0  0  0  0  0  0  0  0  0  0  0  0
   -1.7018   -0.0358   -1.0808 C   0  0  0  0  0  0  0  0  0  0  0  0
   -1.3504   -0.2467   -2.2320 O   0  0  0  0  0  0  0  0  0  0  0  0
   -0.8388    0.8420   -0.1439 C   0  0  0  0  0  0  0  0  0  0  0  0
   -1.2364    1.1295    0.9775 O   0  0  0  0  0  0  0  0  0  0  0  0
    0.3706    1.2215   -0.6761 N   0  0  0  0  0  0  0  0  0  0  0  0
    1.3832    1.8797    0.1233 C   0  0  0  0  0  0  0  0  0  0  0  0
    2.0653    0.9697    1.1528 C   0  0  0  0  0  0  0  0  0  0  0  0
    3.0399    1.6789    1.9224 O   0  0  0  0  0  0  0  0  0  0  0  0
    3.8787    0.6890    2.5394 C   0  0  0  0  0  0  0  0  0  0  0  0
    3.5578   -0.6400    1.8704 C   0  0  0  0  0  0  0  0  0  0  0  0
    2.7528   -0.2515    0.6981 N   0  0  0  0  0  0  0  0  0  0  0  0
    3.4535   -0.4190   -0.8207 S   0  0  0  0  0  6  0  0  0  0  0  0
    4.0131   -1.7541   -0.8870 O   0  0  0  0  0  0  0  0  0  0  0  0
    2.5132    0.0221   -1.8289 O   0  0  0  0  0  0  0  0  0  0  0  0
    4.8383    0.7073   -0.8437 C   0  0  0  0  0  0  0  0  0  0  0  0
    6.0720    0.2925   -0.3258 C   0  0  0  0  0  0  0  0  0  0  0  0
    7.1723    1.1514   -0.3767 C   0  0  0  0  0  0  0  0  0  0  0  0
    7.0425    2.4069   -0.9694 C   0  0  0  0  0  0  0  0  0  0  0  0
    8.5321    3.5681   -1.0389 Br  0  0  0  0  0  0  0  0  0  0  0  0
    5.8287    2.8049   -1.5291 C   0  0  0  0  0  0  0  0  0  0  0  0
    4.7268    1.9472   -1.4806 C   0  0  0  0  0  0  0  0  0  0  0  0
   -8.0276    0.4539    0.3896 H   0  0  0  0  0  0  0  0  0  0  0  0
   -6.9793    1.8764    0.4224 H   0  0  0  0  0  0  0  0  0  0  0  0
   -6.9470    0.7740    1.8033 H   0  0  0  0  0  0  0  0  0  0  0  0
   -7.5844   -1.4872    1.6476 H   0  0  0  0  0  0  0  0  0  0  0  0
   -7.2387   -3.8856    1.9562 H   0  0  0  0  0  0  0  0  0  0  0  0
   -5.3655   -5.0459    0.8196 H   0  0  0  0  0  0  0  0  0  0  0  0
   -3.8349   -3.7807   -0.6468 H   0  0  0  0  0  0  0  0  0  0  0  0
   -3.4296   -1.8178   -1.9884 H   0  0  0  0  0  0  0  0  0  0  0  0
   -4.4020   -0.3677   -1.8383 H   0  0  0  0  0  0  0  0  0  0  0  0
   -3.0874   -0.0995    0.4132 H   0  0  0  0  0  0  0  0  0  0  0  0
    0.6677    0.7384   -1.5289 H   0  0  0  0  0  0  0  0  0  0  0  0
    0.9056    2.7113    0.6568 H   0  0  0  0  0  0  0  0  0  0  0  0
    2.1023    2.3422   -0.5531 H   0  0  0  0  0  0  0  0  0  0  0  0
    1.2839    0.6437    1.8546 H   0  0  0  0  0  0  0  0  0  0  0  0
    3.6801    0.6611    3.6152 H   0  0  0  0  0  0  0  0  0  0  0  0
    4.9211    0.9841    2.3892 H   0  0  0  0  0  0  0  0  0  0  0  0
    4.4550   -1.2194    1.6449 H   0  0  0  0  0  0  0  0  0  0  0  0
    2.9374   -1.2616    2.5267 H   0  0  0  0  0  0  0  0  0  0  0  0
    6.1916   -0.6997    0.1033 H   0  0  0  0  0  0  0  0  0  0  0  0
    8.1263    0.8286    0.0332 H   0  0  0  0  0  0  0  0  0  0  0  0
    5.7343    3.7722   -2.0170 H   0  0  0  0  0  0  0  0  0  0  0  0
    3.8003    2.2509   -1.9611 H   0  0  0  0  0  0  0  0  0  0  0  0
  1  2  1  0
  2  3  1  0
  3  4  2  0
  4  5  1  0
  5  6  2  0
  6  7  1  0
  7  8  2  0
  8  9  1  0
  9 10  1  0
 10 11  1  0
 11 12  2  0
 11 13  1  0
 13 14  2  0
 13 15  1  0
 15 16  1  0
 16 17  1  0
 17 18  1  0
 18 19  1  0
 19 20  1  0
 20 21  1  0
 21 22  1  0
 22 23  2  0
 22 24  2  0
 22 25  1  0
 25 26  2  0
 26 27  1  0
 27 28  2  0
 28 29  1  0
 28 30  1  0
 30 31  2  0
  8  3  1  0
 21 17  1  0
 31 25  1  0
  1 32  1  0
  1 33  1  0
  1 34  1  0
  4 35  1  0
  5 36  1  0
  6 37  1  0
  7 38  1  0
  9 39  1  0
  9 40  1  0
 10 41  1  0
 15 42  1  0
 16 43  1  0
 16 44  1  0
 17 45  1  0
 19 46  1  0
 19 47  1  0
 20 48  1  0
 20 49  1  0
 26 50  1  0
 27 51  1  0
 30 52  1  0
 31 53  1  0
M  END
$$$$
