
     RDKit          3D

 47 48  0  0  0  0  0  0  0  0999 V2000
    3.8772    1.8724    4.5651 C   0  0  0  0  0  0  0  0  0  0  0  0
    2.7096    2.7649    4.1890 C   0  0  0  0  0  0  0  0  0  0  0  0
    2.4656    2.6904    2.7756 O   0  0  0  0  0  0  0  0  0  0  0  0
    1.6511    1.6874    2.3586 C   0  0  0  0  0  0  0  0  0  0  0  0
    1.1295    0.8570    3.0900 O   0  0  0  0  0  0  0  0  0  0  0  0
    1.4823    1.7290    0.8771 C   0  0  0  0  0  0  0  0  0  0  0  0
    2.0378    2.8211    0.1601 C   0  0  0  0  0  0  0  0  0  0  0  0
    2.4932    3.7071   -0.4369 N   0  0  0  0  0  0  0  0  0  0  0  0
    0.7687    0.7245    0.3256 C   0  0  0  0  0  0  0  0  0  0  0  0
    0.3899    0.4449   -1.0675 C   0  0  0  0  0  0  0  0  0  0  0  0
   -0.6193   -0.4170   -1.3740 C   0  0  0  0  0  0  0  0  0  0  0  0
   -1.3844   -1.0913   -0.4056 N   0  0  0  0  0  0  0  0  0  0  0  0
   -2.4687   -0.4153    0.3432 C   0  0  0  0  0  0  0  0  0  0  0  0
   -2.5546   -0.9439    1.7834 C   0  0  0  0  0  0  0  0  0  0  0  0
   -2.7870   -2.3584    1.8634 O   0  0  0  0  0  0  0  0  0  0  0  0
   -2.2005   -3.0948    0.7790 C   0  0  0  0  0  0  0  0  0  0  0  0
   -0.9848   -2.4026    0.1452 C   0  0  0  0  0  0  0  0  0  0  0  0
   -1.0376   -0.6633   -2.8596 C   0  0  0  0  0  0  0  0  0  0  0  0
   -0.7733   -2.1129   -3.2975 C   0  0  0  0  0  0  0  0  0  0  0  0
   -2.5277   -0.3490   -3.0709 C   0  0  0  0  0  0  0  0  0  0  0  0
   -0.3612    0.2130   -3.7848 O   0  0  0  0  0  0  0  0  0  0  0  0
    1.0199    0.3698   -3.5033 C   0  0  0  0  0  0  0  0  0  0  0  0
    1.1776    1.0998   -2.1803 C   0  0  0  0  0  0  0  0  0  0  0  0
    3.6562    0.8230    4.3460 H   0  0  0  0  0  0  0  0  0  0  0  0
    4.7667    2.1383    3.9846 H   0  0  0  0  0  0  0  0  0  0  0  0
    4.1094    1.9656    5.6297 H   0  0  0  0  0  0  0  0  0  0  0  0
    1.8099    2.5123    4.7617 H   0  0  0  0  0  0  0  0  0  0  0  0
    2.9541    3.8076    4.4165 H   0  0  0  0  0  0  0  0  0  0  0  0
    0.3754   -0.0178    1.0199 H   0  0  0  0  0  0  0  0  0  0  0  0
   -2.3146    0.6695    0.3592 H   0  0  0  0  0  0  0  0  0  0  0  0
   -3.4152   -0.6146   -0.1714 H   0  0  0  0  0  0  0  0  0  0  0  0
   -3.3710   -0.4474    2.3174 H   0  0  0  0  0  0  0  0  0  0  0  0
   -1.6297   -0.7268    2.3300 H   0  0  0  0  0  0  0  0  0  0  0  0
   -1.9156   -4.0778    1.1670 H   0  0  0  0  0  0  0  0  0  0  0  0
   -2.9823   -3.2529    0.0268 H   0  0  0  0  0  0  0  0  0  0  0  0
   -0.2071   -2.2553    0.9030 H   0  0  0  0  0  0  0  0  0  0  0  0
   -0.5696   -3.0422   -0.6394 H   0  0  0  0  0  0  0  0  0  0  0  0
    0.2518   -2.4231   -3.0678 H   0  0  0  0  0  0  0  0  0  0  0  0
   -1.4539   -2.8180   -2.8090 H   0  0  0  0  0  0  0  0  0  0  0  0
   -0.8969   -2.2195   -4.3816 H   0  0  0  0  0  0  0  0  0  0  0  0
   -2.7900   -0.4051   -4.1344 H   0  0  0  0  0  0  0  0  0  0  0  0
   -2.7601    0.6735   -2.7500 H   0  0  0  0  0  0  0  0  0  0  0  0
   -3.1808   -1.0401   -2.5287 H   0  0  0  0  0  0  0  0  0  0  0  0
    1.5318   -0.5989   -3.5013 H   0  0  0  0  0  0  0  0  0  0  0  0
    1.4620    0.9658   -4.3086 H   0  0  0  0  0  0  0  0  0  0  0  0
    0.8187    2.1294   -2.2981 H   0  0  0  0  0  0  0  0  0  0  0  0
    2.2475    1.1219   -1.9464 H   0  0  0  0  0  0  0  0  0  0  0  0
  1  2  1  0
  2  3  1  0
  3  4  1  0
  4  5  2  0
  4  6  1  0
  6  7  1  0
  7  8  3  0
  6  9  2  3
  9 10  1  0
 10 11  2  0
 11 12  1  0
 12 13  1  0
 13 14  1  0
 14 15  1  0
 15 16  1  0
 16 17  1  0
 11 18  1  0
 18 19  1  0
 18 20  1  0
 18 21  1  0
 21 22  1  0
 22 23  1  0
 23 10  1  0
 17 12  1  0
  1 24  1  0
  1 25  1  0
  1 26  1  0
  2 27  1  0
  2 28  1  0
  9 29  1  0
 13 30  1  0
 13 31  1  0
 14 32  1  0
 14 33  1  0
 16 34  1  0
 16 35  1  0
 17 36  1  0
 17 37  1  0
 19 38  1  0
 19 39  1  0
 19 40  1  0
 20 41  1  0
 20 42  1  0
 20 43  1  0
 22 44  1  0
 22 45  1  0
 23 46  1  0
 23 47  1  0
M  END
$$$$
