
     RDKit          3D

 49 52  0  0  0  0  0  0  0  0999 V2000
   -5.7867   -0.7814    3.5078 C   0  0  0  0  0  0  0  0  0  0  0  0
   -4.9028   -0.6618    2.3928 O   0  0  0  0  0  0  0  0  0  0  0  0
   -3.9517   -1.6378    2.3206 C   0  0  0  0  0  0  0  0  0  0  0  0
   -3.8406   -2.5408    3.1436 O   0  0  0  0  0  0  0  0  0  0  0  0
   -3.1016   -1.4702    1.1613 C   0  0  0  0  0  0  0  0  0  0  0  0
   -3.3704   -0.2659   -0.0311 S   0  0  0  0  0  0  0  0  0  0  0  0
   -2.0242   -0.8148   -0.9062 C   0  0  0  0  0  0  0  0  0  0  0  0
   -1.6418   -0.2793   -2.1086 N   0  0  0  0  0  0  0  0  0  0  0  0
   -2.1748    0.8241   -2.7397 C   0  0  0  0  0  0  0  0  0  0  0  0
   -3.0546    1.5644   -2.3067 O   0  0  0  0  0  0  0  0  0  0  0  0
   -1.5679    1.0830   -4.1112 C   0  0  0  0  0  0  0  0  0  0  0  0
   -0.1101    2.1621   -3.9801 S   0  0  0  0  0  0  0  0  0  0  0  0
    1.0523    1.0440   -3.3667 C   0  0  0  0  0  0  0  0  0  0  0  0
    0.9085   -0.2600   -3.3410 N   0  0  0  0  0  0  0  0  0  0  0  0
    1.9813   -0.7846   -2.6773 N   0  0  0  0  0  0  0  0  0  0  0  0
    2.7665    0.2108   -2.3084 C   0  0  0  0  0  0  0  0  0  0  0  0
    4.0029    0.0666   -1.4948 C   0  0  0  0  0  0  0  0  0  0  0  0
    3.8895    0.7602   -0.2270 N   0  0  0  0  0  0  0  0  0  0  0  0
    4.7165    1.7923    0.0395 N   0  0  0  0  0  0  0  0  0  0  0  0
    4.4026    2.2554    1.2413 N   0  0  0  0  0  0  0  0  0  0  0  0
    3.3637    1.5087    1.7287 C   0  0  0  0  0  0  0  0  0  0  0  0
    2.6669    1.5965    2.9412 C   0  0  0  0  0  0  0  0  0  0  0  0
    1.6173    0.6997    3.1742 C   0  0  0  0  0  0  0  0  0  0  0  0
    1.2714   -0.2588    2.2189 C   0  0  0  0  0  0  0  0  0  0  0  0
    1.9607   -0.3659    1.0052 C   0  0  0  0  0  0  0  0  0  0  0  0
    3.0076    0.5389    0.7983 C   0  0  0  0  0  0  0  0  0  0  0  0
    2.2333    1.3936   -2.7756 N   0  0  0  0  0  0  0  0  0  0  0  0
    2.7782    2.7191   -2.6125 C   0  0  0  0  0  0  0  0  0  0  0  0
   -1.3774   -1.8261   -0.3780 N   0  0  0  0  0  0  0  0  0  0  0  0
   -1.9874   -2.2166    0.8061 C   0  0  0  0  0  0  0  0  0  0  0  0
   -1.4000   -3.3641    1.5511 C   0  0  0  0  0  0  0  0  0  0  0  0
   -5.2357   -0.6723    4.4469 H   0  0  0  0  0  0  0  0  0  0  0  0
   -6.5227    0.0256    3.4438 H   0  0  0  0  0  0  0  0  0  0  0  0
   -6.3191   -1.7367    3.4762 H   0  0  0  0  0  0  0  0  0  0  0  0
   -0.8083   -0.7198   -2.4940 H   0  0  0  0  0  0  0  0  0  0  0  0
   -1.3277    0.1409   -4.6184 H   0  0  0  0  0  0  0  0  0  0  0  0
   -2.3223    1.5880   -4.7253 H   0  0  0  0  0  0  0  0  0  0  0  0
    4.8712    0.4603   -2.0346 H   0  0  0  0  0  0  0  0  0  0  0  0
    4.1985   -0.9873   -1.2654 H   0  0  0  0  0  0  0  0  0  0  0  0
    2.9367    2.3461    3.6765 H   0  0  0  0  0  0  0  0  0  0  0  0
    1.0620    0.7530    4.1083 H   0  0  0  0  0  0  0  0  0  0  0  0
    0.4465   -0.9378    2.4211 H   0  0  0  0  0  0  0  0  0  0  0  0
    1.6770   -1.1098    0.2661 H   0  0  0  0  0  0  0  0  0  0  0  0
    2.4859    3.3485   -3.4557 H   0  0  0  0  0  0  0  0  0  0  0  0
    3.8689    2.6626   -2.5932 H   0  0  0  0  0  0  0  0  0  0  0  0
    2.3960    3.1329   -1.6751 H   0  0  0  0  0  0  0  0  0  0  0  0
   -1.1498   -3.0722    2.5744 H   0  0  0  0  0  0  0  0  0  0  0  0
   -2.1030   -4.2011    1.5837 H   0  0  0  0  0  0  0  0  0  0  0  0
   -0.4814   -3.7124    1.0687 H   0  0  0  0  0  0  0  0  0  0  0  0
  1  2  1  0
  2  3  1  0
  3  4  2  0
  3  5  1  0
  5  6  1  0
  6  7  1  0
  7  8  1  0
  8  9  1  0
  9 10  2  0
  9 11  1  0
 11 12  1  0
 12 13  1  0
 13 14  2  0
 14 15  1  0
 15 16  2  0
 16 17  1  0
 17 18  1  0
 18 19  1  0
 19 20  2  0
 20 21  1  0
 21 22  2  0
 22 23  1  0
 23 24  2  0
 24 25  1  0
 25 26  2  0
 16 27  1  0
 27 28  1  0
  7 29  2  0
 29 30  1  0
 30 31  1  0
 30  5  2  0
 27 13  1  0
 26 18  1  0
 26 21  1  0
  1 32  1  0
  1 33  1  0
  1 34  1  0
  8 35  1  0
 11 36  1  0
 11 37  1  0
 17 38  1  0
 17 39  1  0
 22 40  1  0
 23 41  1  0
 24 42  1  0
 25 43  1  0
 28 44  1  0
 28 45  1  0
 28 46  1  0
 31 47  1  0
 31 48  1  0
 31 49  1  0
M  END
$$$$
