
     RDKit          3D

 54 57  0  0  0  0  0  0  0  0999 V2000
    1.1550   -1.4699    1.7392 O   0  0  0  0  0  0  0  0  0  0  0  0
    0.3796   -0.5195    1.7961 C   0  0  0  0  0  0  0  0  0  0  0  0
   -0.6256   -0.3969    2.9493 C   0  0  0  0  0  0  0  0  0  0  0  0
   -1.9877   -0.6068    2.5726 O   0  0  0  0  0  0  0  0  0  0  0  0
   -2.6072    0.4541    2.0034 C   0  0  0  0  0  0  0  0  0  0  0  0
   -2.0750    1.5275    1.7593 O   0  0  0  0  0  0  0  0  0  0  0  0
   -4.0278    0.1416    1.6960 C   0  0  0  0  0  0  0  0  0  0  0  0
   -4.5862   -1.1237    1.9333 C   0  0  0  0  0  0  0  0  0  0  0  0
   -5.9292   -1.3666    1.6309 C   0  0  0  0  0  0  0  0  0  0  0  0
   -6.7163   -0.3500    1.0945 C   0  0  0  0  0  0  0  0  0  0  0  0
   -6.1562    0.9037    0.8300 C   0  0  0  0  0  0  0  0  0  0  0  0
   -4.8212    1.1557    1.1425 C   0  0  0  0  0  0  0  0  0  0  0  0
   -6.8627    1.9382    0.2713 O   0  0  0  0  0  0  0  0  0  0  0  0
   -8.0852    1.4779   -0.3174 C   0  0  0  0  0  0  0  0  0  0  0  0
   -8.8079    0.5270    0.6225 C   0  0  0  0  0  0  0  0  0  0  0  0
   -8.0291   -0.6547    0.8439 O   0  0  0  0  0  0  0  0  0  0  0  0
    0.3177    0.5405    0.9089 N   0  0  0  0  0  0  0  0  0  0  0  0
    1.0782    0.7408   -0.2585 C   0  0  0  0  0  0  0  0  0  0  0  0
    0.8383    1.9227   -0.9756 C   0  0  0  0  0  0  0  0  0  0  0  0
    1.5491    2.2136   -2.1439 C   0  0  0  0  0  0  0  0  0  0  0  0
    2.5105    1.3229   -2.6111 C   0  0  0  0  0  0  0  0  0  0  0  0
    2.7463    0.1438   -1.9015 C   0  0  0  0  0  0  0  0  0  0  0  0
    3.9685   -1.0045   -2.4778 S   0  0  0  0  0  6  0  0  0  0  0  0
    3.3110   -2.2791   -2.6651 O   0  0  0  0  0  0  0  0  0  0  0  0
    4.7111   -0.3835   -3.5556 O   0  0  0  0  0  0  0  0  0  0  0  0
    5.0346   -1.1357   -1.1531 N   0  0  0  0  0  0  0  0  0  0  0  0
    5.6903    0.1429   -0.7242 C   0  0  0  0  0  0  0  0  0  0  0  0
    6.9307   -0.1510    0.1255 C   0  0  0  0  0  0  0  0  0  0  0  0
    7.9468   -0.8633   -0.5939 O   0  0  0  0  0  0  0  0  0  0  0  0
    7.4182   -1.7300   -1.6090 C   0  0  0  0  0  0  0  0  0  0  0  0
    6.0208   -2.2605   -1.2779 C   0  0  0  0  0  0  0  0  0  0  0  0
    2.0351   -0.1555   -0.7319 C   0  0  0  0  0  0  0  0  0  0  0  0
   -0.3772   -1.1647    3.6908 H   0  0  0  0  0  0  0  0  0  0  0  0
   -0.4966    0.5693    3.4533 H   0  0  0  0  0  0  0  0  0  0  0  0
   -3.9913   -1.9313    2.3537 H   0  0  0  0  0  0  0  0  0  0  0  0
   -6.3627   -2.3451    1.8220 H   0  0  0  0  0  0  0  0  0  0  0  0
   -4.4034    2.1399    0.9425 H   0  0  0  0  0  0  0  0  0  0  0  0
   -8.7068    2.3557   -0.5201 H   0  0  0  0  0  0  0  0  0  0  0  0
   -7.8513    0.9958   -1.2749 H   0  0  0  0  0  0  0  0  0  0  0  0
   -9.7635    0.2179    0.1876 H   0  0  0  0  0  0  0  0  0  0  0  0
   -9.0096    0.9977    1.5927 H   0  0  0  0  0  0  0  0  0  0  0  0
   -0.3861    1.2527    1.1142 H   0  0  0  0  0  0  0  0  0  0  0  0
    0.0905    2.6350   -0.6318 H   0  0  0  0  0  0  0  0  0  0  0  0
    1.3475    3.1333   -2.6878 H   0  0  0  0  0  0  0  0  0  0  0  0
    3.0600    1.5475   -3.5226 H   0  0  0  0  0  0  0  0  0  0  0  0
    4.9784    0.7254   -0.1316 H   0  0  0  0  0  0  0  0  0  0  0  0
    5.9882    0.7278   -1.6009 H   0  0  0  0  0  0  0  0  0  0  0  0
    6.6649   -0.7429    1.0090 H   0  0  0  0  0  0  0  0  0  0  0  0
    7.3759    0.7841    0.4799 H   0  0  0  0  0  0  0  0  0  0  0  0
    7.4103   -1.1751   -2.5540 H   0  0  0  0  0  0  0  0  0  0  0  0
    8.1204   -2.5617   -1.7239 H   0  0  0  0  0  0  0  0  0  0  0  0
    6.0320   -2.7873   -0.3163 H   0  0  0  0  0  0  0  0  0  0  0  0
    5.7094   -2.9850   -2.0366 H   0  0  0  0  0  0  0  0  0  0  0  0
    2.2462   -1.0906   -0.2212 H   0  0  0  0  0  0  0  0  0  0  0  0
  1  2  2  0
  2  3  1  0
  3  4  1  0
  4  5  1  0
  5  6  2  0
  5  7  1  0
  7  8  2  0
  8  9  1  0
  9 10  2  0
 10 11  1  0
 11 12  2  0
 11 13  1  0
 13 14  1  0
 14 15  1  0
 15 16  1  0
  2 17  1  0
 17 18  1  0
 18 19  2  0
 19 20  1  0
 20 21  2  0
 21 22  1  0
 22 23  1  0
 23 24  2  0
 23 25  2  0
 23 26  1  0
 26 27  1  0
 27 28  1  0
 28 29  1  0
 29 30  1  0
 30 31  1  0
 22 32  2  0
 12  7  1  0
 32 18  1  0
 16 10  1  0
 31 26  1  0
  3 33  1  0
  3 34  1  0
  8 35  1  0
  9 36  1  0
 12 37  1  0
 14 38  1  0
 14 39  1  0
 15 40  1  0
 15 41  1  0
 17 42  1  0
 19 43  1  0
 20 44  1  0
 21 45  1  0
 27 46  1  0
 27 47  1  0
 28 48  1  0
 28 49  1  0
 30 50  1  0
 30 51  1  0
 31 52  1  0
 31 53  1  0
 32 54  1  0
M  END
$$$$
