
     RDKit          3D

 51 53  0  0  0  0  0  0  0  0999 V2000
    3.3958   -3.1432    1.8325 N   0  0  0  0  0  0  0  0  0  0  0  0
    3.0698   -2.0645    1.5541 C   0  0  0  0  0  0  0  0  0  0  0  0
    2.7223   -0.7263    1.2433 C   0  0  0  0  0  0  0  0  0  0  0  0
    1.7489   -0.3742    0.3833 C   0  0  0  0  0  0  0  0  0  0  0  0
    0.8929   -1.2552   -0.3390 C   0  0  0  0  0  0  0  0  0  0  0  0
    0.4595   -2.5569   -0.1045 C   0  0  0  0  0  0  0  0  0  0  0  0
   -0.4160   -2.9298   -1.1534 C   0  0  0  0  0  0  0  0  0  0  0  0
   -0.4937   -1.8414   -1.9866 C   0  0  0  0  0  0  0  0  0  0  0  0
   -1.2414   -1.5654   -3.2367 C   0  0  0  0  0  0  0  0  0  0  0  0
   -2.3067   -0.6437   -2.9384 N   0  0  0  0  0  0  0  0  0  0  0  0
   -3.5526   -1.0689   -2.5498 C   0  0  0  0  0  0  0  0  0  0  0  0
   -3.9734   -2.2173   -2.5815 O   0  0  0  0  0  0  0  0  0  0  0  0
   -4.4584    0.0594   -2.0103 C   0  0  0  0  0  0  0  0  0  0  0  0
   -4.0278    1.2027   -1.9815 O   0  0  0  0  0  0  0  0  0  0  0  0
   -5.6887   -0.4195   -1.6107 N   0  0  0  0  0  0  0  0  0  0  0  0
   -6.7571    0.3035   -1.0525 C   0  0  0  0  0  0  0  0  0  0  0  0
   -6.7178    1.6765   -0.8037 C   0  0  0  0  0  0  0  0  0  0  0  0
   -7.8262    2.3186   -0.2444 C   0  0  0  0  0  0  0  0  0  0  0  0
   -7.7654    4.0117    0.0632 Cl  0  0  0  0  0  0  0  0  0  0  0  0
   -8.9793    1.6083    0.0725 C   0  0  0  0  0  0  0  0  0  0  0  0
   -9.0159    0.2416   -0.1745 C   0  0  0  0  0  0  0  0  0  0  0  0
  -10.4331   -0.6554    0.2084 Cl  0  0  0  0  0  0  0  0  0  0  0  0
   -7.9164   -0.4123   -0.7339 C   0  0  0  0  0  0  0  0  0  0  0  0
    0.2807   -0.8340   -1.5022 O   0  0  0  0  0  0  0  0  0  0  0  0
    3.4864    0.3982    1.8812 C   0  0  0  0  0  0  0  0  0  0  0  0
    3.1462    1.5696    1.7371 O   0  0  0  0  0  0  0  0  0  0  0  0
    4.5866    0.0436    2.6303 N   0  0  0  0  0  0  0  0  0  0  0  0
    5.4556    1.0442    3.2140 C   0  0  0  0  0  0  0  0  0  0  0  0
    6.6317    1.3193    2.3247 C   0  0  0  0  0  0  0  0  0  0  0  0
    7.8241    0.5981    2.4365 C   0  0  0  0  0  0  0  0  0  0  0  0
    8.8821    0.8769    1.5752 C   0  0  0  0  0  0  0  0  0  0  0  0
    8.7102    1.8666    0.6226 C   0  0  0  0  0  0  0  0  0  0  0  0
    7.5721    2.5772    0.4778 N   0  0  0  0  0  0  0  0  0  0  0  0
    6.5594    2.2866    1.3263 C   0  0  0  0  0  0  0  0  0  0  0  0
    1.5881    0.6800    0.1647 H   0  0  0  0  0  0  0  0  0  0  0  0
    0.7200   -3.1816    0.7393 H   0  0  0  0  0  0  0  0  0  0  0  0
   -0.9377   -3.8692   -1.2767 H   0  0  0  0  0  0  0  0  0  0  0  0
   -0.5894   -1.0950   -3.9787 H   0  0  0  0  0  0  0  0  0  0  0  0
   -1.6501   -2.4878   -3.6613 H   0  0  0  0  0  0  0  0  0  0  0  0
   -2.0674    0.3176   -2.7080 H   0  0  0  0  0  0  0  0  0  0  0  0
   -5.8041   -1.4240   -1.7403 H   0  0  0  0  0  0  0  0  0  0  0  0
   -5.8376    2.2704   -1.0316 H   0  0  0  0  0  0  0  0  0  0  0  0
   -9.8362    2.1144    0.5077 H   0  0  0  0  0  0  0  0  0  0  0  0
   -7.9722   -1.4830   -0.9165 H   0  0  0  0  0  0  0  0  0  0  0  0
    4.9209   -0.9116    2.6564 H   0  0  0  0  0  0  0  0  0  0  0  0
    5.7940    0.6568    4.1811 H   0  0  0  0  0  0  0  0  0  0  0  0
    4.9014    1.9677    3.4174 H   0  0  0  0  0  0  0  0  0  0  0  0
    7.9370   -0.1754    3.1904 H   0  0  0  0  0  0  0  0  0  0  0  0
    9.8188    0.3353    1.6440 H   0  0  0  0  0  0  0  0  0  0  0  0
    9.5059    2.1200   -0.0720 H   0  0  0  0  0  0  0  0  0  0  0  0
    5.6541    2.8710    1.1726 H   0  0  0  0  0  0  0  0  0  0  0  0
  1  2  3  0
  2  3  1  0
  3  4  2  3
  4  5  1  0
  5  6  2  0
  6  7  1  0
  7  8  2  0
  8  9  1  0
  9 10  1  0
 10 11  1  0
 11 12  2  0
 11 13  1  0
 13 14  2  0
 13 15  1  0
 15 16  1  0
 16 17  2  0
 17 18  1  0
 18 19  1  0
 18 20  2  0
 20 21  1  0
 21 22  1  0
 21 23  2  0
  8 24  1  0
  3 25  1  0
 25 26  2  0
 25 27  1  0
 27 28  1  0
 28 29  1  0
 29 30  2  0
 30 31  1  0
 31 32  2  0
 32 33  1  0
 33 34  2  0
 24  5  1  0
 34 29  1  0
 23 16  1  0
  4 35  1  0
  6 36  1  0
  7 37  1  0
  9 38  1  0
  9 39  1  0
 10 40  1  0
 15 41  1  0
 17 42  1  0
 20 43  1  0
 23 44  1  0
 27 45  1  0
 28 46  1  0
 28 47  1  0
 30 48  1  0
 31 49  1  0
 32 50  1  0
 34 51  1  0
M  END
$$$$
