
     RDKit          3D

 28 30  0  0  0  0  0  0  0  0999 V2000
    0.0633   -3.3082    1.8667 O   0  0  0  0  0  0  0  0  0  0  0  0
    0.3226   -2.2618    1.2732 C   0  0  0  0  0  0  0  0  0  0  0  0
   -0.5760   -1.7247    0.1927 C   0  0  0  0  0  0  0  0  0  0  0  0
   -1.4551   -0.5929    0.6830 C   0  0  0  0  0  0  0  0  0  0  0  0
   -2.3382   -0.1101   -0.4270 C   0  0  0  0  0  0  0  0  0  0  0  0
   -2.1213    0.6105   -1.5867 C   0  0  0  0  0  0  0  0  0  0  0  0
   -3.3767    0.7238   -2.2304 C   0  0  0  0  0  0  0  0  0  0  0  0
   -4.2780    0.0621   -1.4311 C   0  0  0  0  0  0  0  0  0  0  0  0
   -3.6577   -0.4515   -0.3389 O   0  0  0  0  0  0  0  0  0  0  0  0
   -0.5903    0.8369    1.4417 S   0  0  0  0  0  0  0  0  0  0  0  0
    1.0673    0.7167    0.7766 C   0  0  0  0  0  0  0  0  0  0  0  0
    1.5939    1.8910    0.2165 C   0  0  0  0  0  0  0  0  0  0  0  0
    2.9444    1.9787   -0.1244 C   0  0  0  0  0  0  0  0  0  0  0  0
    3.7934    0.9059    0.1263 C   0  0  0  0  0  0  0  0  0  0  0  0
    3.2875   -0.2640    0.6936 C   0  0  0  0  0  0  0  0  0  0  0  0
    1.9218   -0.3823    0.9850 C   0  0  0  0  0  0  0  0  0  0  0  0
    1.4993   -1.6113    1.5199 N   0  0  0  0  0  0  0  0  0  0  0  0
   -1.2030   -2.5589   -0.1521 H   0  0  0  0  0  0  0  0  0  0  0  0
    0.0228   -1.4473   -0.6845 H   0  0  0  0  0  0  0  0  0  0  0  0
   -2.0961   -0.9805    1.4853 H   0  0  0  0  0  0  0  0  0  0  0  0
   -1.1733    1.0081   -1.9218 H   0  0  0  0  0  0  0  0  0  0  0  0
   -3.5992    1.2255   -3.1615 H   0  0  0  0  0  0  0  0  0  0  0  0
   -5.3409   -0.1249   -1.4953 H   0  0  0  0  0  0  0  0  0  0  0  0
    0.9604    2.7648    0.0735 H   0  0  0  0  0  0  0  0  0  0  0  0
    3.3376    2.8971   -0.5540 H   0  0  0  0  0  0  0  0  0  0  0  0
    4.8509    0.9803   -0.1162 H   0  0  0  0  0  0  0  0  0  0  0  0
    3.9671   -1.0937    0.8741 H   0  0  0  0  0  0  0  0  0  0  0  0
    2.1735   -2.1824    2.0158 H   0  0  0  0  0  0  0  0  0  0  0  0
  1  2  2  0
  2  3  1  0
  3  4  1  0
  4  5  1  0
  5  6  2  0
  6  7  1  0
  7  8  2  0
  8  9  1  0
  4 10  1  0
 10 11  1  0
 11 12  2  0
 12 13  1  0
 13 14  2  0
 14 15  1  0
 15 16  2  0
 16 17  1  0
 17  2  1  0
  9  5  1  0
 16 11  1  0
  3 18  1  0
  3 19  1  0
  4 20  1  0
  6 21  1  0
  7 22  1  0
  8 23  1  0
 12 24  1  0
 13 25  1  0
 14 26  1  0
 15 27  1  0
 17 28  1  0
M  END
$$$$
