
     RDKit          3D

 51 55  0  0  0  0  0  0  0  0999 V2000
    8.8917   -1.3963   -0.4099 Cl  0  0  0  0  0  0  0  0  0  0  0  0
    7.3937   -0.7202    0.1235 C   0  0  0  0  0  0  0  0  0  0  0  0
    6.3945   -1.6015    0.5431 C   0  0  0  0  0  0  0  0  0  0  0  0
    5.1637   -1.1105    0.9848 C   0  0  0  0  0  0  0  0  0  0  0  0
    4.9165    0.2674    1.0153 C   0  0  0  0  0  0  0  0  0  0  0  0
    3.5796    0.7987    1.4801 C   0  0  0  0  0  0  0  0  0  0  0  0
    2.5185    0.8658    0.3634 C   0  0  0  0  0  0  0  0  0  0  0  0
    2.0612   -0.4521   -0.1171 N   0  0  0  0  0  0  0  0  0  0  0  0
    1.3484   -0.3334   -1.4123 C   0  0  0  0  0  0  0  0  0  0  0  0
   -0.0571    0.2990   -1.3290 C   0  0  0  0  0  0  0  0  0  0  0  0
   -0.9045   -0.4282   -0.3612 N   0  0  0  0  0  0  0  0  0  0  0  0
   -2.2716   -0.1552   -0.3793 C   0  0  0  0  0  0  0  0  0  0  0  0
   -2.6885    0.9865   -0.8664 N   0  0  0  0  0  0  0  0  0  0  0  0
   -4.0616    1.3043   -0.8693 C   0  0  0  0  0  0  0  0  0  0  0  0
   -4.4549    2.5396   -1.3878 C   0  0  0  0  0  0  0  0  0  0  0  0
   -5.8025    2.9095   -1.4061 C   0  0  0  0  0  0  0  0  0  0  0  0
   -6.7737    2.0430   -0.9030 C   0  0  0  0  0  0  0  0  0  0  0  0
   -6.4042    0.8031   -0.3804 C   0  0  0  0  0  0  0  0  0  0  0  0
   -5.0524    0.4472   -0.3684 C   0  0  0  0  0  0  0  0  0  0  0  0
   -4.5948   -0.7844    0.1272 N   0  0  0  0  0  0  0  0  0  0  0  0
   -5.3051   -1.8358    0.6568 C   0  0  0  0  0  0  0  0  0  0  0  0
   -4.4195   -2.8527    0.9431 C   0  0  0  0  0  0  0  0  0  0  0  0
   -3.1288   -2.3969    0.5877 C   0  0  0  0  0  0  0  0  0  0  0  0
   -3.2556   -1.1020    0.1177 C   0  0  0  0  0  0  0  0  0  0  0  0
   -0.2599   -0.5505    0.9611 C   0  0  0  0  0  0  0  0  0  0  0  0
    1.1625   -1.1422    0.8370 C   0  0  0  0  0  0  0  0  0  0  0  0
    5.9221    1.1468    0.5873 C   0  0  0  0  0  0  0  0  0  0  0  0
    7.1567    0.6577    0.1446 C   0  0  0  0  0  0  0  0  0  0  0  0
    8.3412    1.8101   -0.3623 Cl  0  0  0  0  0  0  0  0  0  0  0  0
    6.5641   -2.6753    0.5236 H   0  0  0  0  0  0  0  0  0  0  0  0
    4.3906   -1.8120    1.2932 H   0  0  0  0  0  0  0  0  0  0  0  0
    3.7265    1.8125    1.8763 H   0  0  0  0  0  0  0  0  0  0  0  0
    3.2280    0.2105    2.3354 H   0  0  0  0  0  0  0  0  0  0  0  0
    2.9627    1.4202   -0.4743 H   0  0  0  0  0  0  0  0  0  0  0  0
    1.6755    1.4706    0.7169 H   0  0  0  0  0  0  0  0  0  0  0  0
    1.9619    0.2232   -2.1313 H   0  0  0  0  0  0  0  0  0  0  0  0
    1.2516   -1.3439   -1.8317 H   0  0  0  0  0  0  0  0  0  0  0  0
   -0.5119    0.2513   -2.3260 H   0  0  0  0  0  0  0  0  0  0  0  0
    0.0183    1.3561   -1.0460 H   0  0  0  0  0  0  0  0  0  0  0  0
   -3.7011    3.2173   -1.7795 H   0  0  0  0  0  0  0  0  0  0  0  0
   -6.0921    3.8747   -1.8138 H   0  0  0  0  0  0  0  0  0  0  0  0
   -7.8210    2.3351   -0.9206 H   0  0  0  0  0  0  0  0  0  0  0  0
   -7.1771    0.1450    0.0020 H   0  0  0  0  0  0  0  0  0  0  0  0
   -6.3780   -1.7965    0.7755 H   0  0  0  0  0  0  0  0  0  0  0  0
   -4.6790   -3.8208    1.3520 H   0  0  0  0  0  0  0  0  0  0  0  0
   -2.2040   -2.9534    0.6621 H   0  0  0  0  0  0  0  0  0  0  0  0
   -0.2236    0.4349    1.4411 H   0  0  0  0  0  0  0  0  0  0  0  0
   -0.8406   -1.2014    1.6222 H   0  0  0  0  0  0  0  0  0  0  0  0
    1.0704   -2.1848    0.5032 H   0  0  0  0  0  0  0  0  0  0  0  0
    1.6200   -1.2002    1.8302 H   0  0  0  0  0  0  0  0  0  0  0  0
    5.7434    2.2200    0.5970 H   0  0  0  0  0  0  0  0  0  0  0  0
  1  2  1  0
  2  3  2  0
  3  4  1  0
  4  5  2  0
  5  6  1  0
  6  7  1  0
  7  8  1  0
  8  9  1  0
  9 10  1  0
 10 11  1  0
 11 12  1  0
 12 13  2  0
 13 14  1  0
 14 15  2  0
 15 16  1  0
 16 17  2  0
 17 18  1  0
 18 19  2  0
 19 20  1  0
 20 21  1  0
 21 22  2  0
 22 23  1  0
 23 24  2  0
 11 25  1  0
 25 26  1  0
  5 27  1  0
 27 28  2  0
 28 29  1  0
 28  2  1  0
 26  8  1  0
 24 12  1  0
 19 14  1  0
 24 20  1  0
  3 30  1  0
  4 31  1  0
  6 32  1  0
  6 33  1  0
  7 34  1  0
  7 35  1  0
  9 36  1  0
  9 37  1  0
 10 38  1  0
 10 39  1  0
 15 40  1  0
 16 41  1  0
 17 42  1  0
 18 43  1  0
 21 44  1  0
 22 45  1  0
 23 46  1  0
 25 47  1  0
 25 48  1  0
 26 49  1  0
 26 50  1  0
 27 51  1  0
M  END
$$$$
