
     RDKit          3D

 42 44  0  0  0  0  0  0  0  0999 V2000
    5.6196   -2.3786   -2.6895 C   0  0  0  0  0  0  0  0  0  0  0  0
    4.2125   -2.4664   -2.5080 O   0  0  0  0  0  0  0  0  0  0  0  0
    3.6591   -1.7047   -1.5150 C   0  0  0  0  0  0  0  0  0  0  0  0
    4.3465   -0.8166   -0.6818 C   0  0  0  0  0  0  0  0  0  0  0  0
    3.6588   -0.0992    0.3025 C   0  0  0  0  0  0  0  0  0  0  0  0
    4.2141    0.7861    1.1869 O   0  0  0  0  0  0  0  0  0  0  0  0
    5.6172    0.9994    1.0990 C   0  0  0  0  0  0  0  0  0  0  0  0
    2.2784   -0.2640    0.4452 C   0  0  0  0  0  0  0  0  0  0  0  0
    1.5812   -1.1378   -0.3954 C   0  0  0  0  0  0  0  0  0  0  0  0
    0.1093   -1.3479   -0.2727 C   0  0  0  0  0  0  0  0  0  0  0  0
   -0.3293   -2.4611   -0.5357 O   0  0  0  0  0  0  0  0  0  0  0  0
   -0.6008   -0.2255    0.1050 N   0  0  0  0  0  0  0  0  0  0  0  0
   -1.9699   -0.1173    0.3127 C   0  0  0  0  0  0  0  0  0  0  0  0
   -3.0036   -1.4753    0.1753 S   0  0  0  0  0  0  0  0  0  0  0  0
   -4.3347   -0.5342    0.5125 C   0  0  0  0  0  0  0  0  0  0  0  0
   -4.0474    0.7819    0.7490 C   0  0  0  0  0  0  0  0  0  0  0  0
   -2.6492    1.0577    0.6601 C   0  0  0  0  0  0  0  0  0  0  0  0
   -1.9448    2.3226    0.8600 C   0  0  0  0  0  0  0  0  0  0  0  0
   -2.6594    3.3495    1.4047 N   0  0  0  0  0  0  0  0  0  0  0  0
   -0.7536    2.4760    0.5979 O   0  0  0  0  0  0  0  0  0  0  0  0
   -5.2987    1.5400    1.0189 C   0  0  0  0  0  0  0  0  0  0  0  0
   -6.4087    0.5448    0.5591 C   0  0  0  0  0  0  0  0  0  0  0  0
   -5.7733   -0.8757    0.5880 C   0  0  0  0  0  0  0  0  0  0  0  0
    2.2802   -1.8646   -1.3645 C   0  0  0  0  0  0  0  0  0  0  0  0
    5.8951   -3.0576   -3.5022 H   0  0  0  0  0  0  0  0  0  0  0  0
    5.9162   -1.3671   -2.9857 H   0  0  0  0  0  0  0  0  0  0  0  0
    6.1550   -2.7010   -1.7903 H   0  0  0  0  0  0  0  0  0  0  0  0
    5.4147   -0.6885   -0.7960 H   0  0  0  0  0  0  0  0  0  0  0  0
    5.8936    1.7265    1.8687 H   0  0  0  0  0  0  0  0  0  0  0  0
    5.8917    1.4228    0.1272 H   0  0  0  0  0  0  0  0  0  0  0  0
    6.1700    0.0758    1.2995 H   0  0  0  0  0  0  0  0  0  0  0  0
    1.7686    0.2814    1.2354 H   0  0  0  0  0  0  0  0  0  0  0  0
   -0.1035    0.6612    0.1769 H   0  0  0  0  0  0  0  0  0  0  0  0
   -2.1288    4.1709    1.6613 H   0  0  0  0  0  0  0  0  0  0  0  0
   -3.5345    3.1903    1.8773 H   0  0  0  0  0  0  0  0  0  0  0  0
   -5.3966    1.7480    2.0896 H   0  0  0  0  0  0  0  0  0  0  0  0
   -5.3586    2.4762    0.4572 H   0  0  0  0  0  0  0  0  0  0  0  0
   -6.6978    0.7860   -0.4725 H   0  0  0  0  0  0  0  0  0  0  0  0
   -7.3097    0.6117    1.1767 H   0  0  0  0  0  0  0  0  0  0  0  0
   -6.1216   -1.4834   -0.2514 H   0  0  0  0  0  0  0  0  0  0  0  0
   -6.0044   -1.3817    1.5309 H   0  0  0  0  0  0  0  0  0  0  0  0
    1.7470   -2.5604   -2.0103 H   0  0  0  0  0  0  0  0  0  0  0  0
  1  2  1  0
  2  3  1  0
  3  4  2  0
  4  5  1  0
  5  6  1  0
  6  7  1  0
  5  8  2  0
  8  9  1  0
  9 10  1  0
 10 11  2  0
 10 12  1  0
 12 13  1  0
 13 14  1  0
 14 15  1  0
 15 16  2  0
 16 17  1  0
 17 18  1  0
 18 19  1  0
 18 20  2  0
 16 21  1  0
 21 22  1  0
 22 23  1  0
  9 24  2  0
 24  3  1  0
 17 13  2  0
 23 15  1  0
  1 25  1  0
  1 26  1  0
  1 27  1  0
  4 28  1  0
  7 29  1  0
  7 30  1  0
  7 31  1  0
  8 32  1  0
 12 33  1  0
 19 34  1  0
 19 35  1  0
 21 36  1  0
 21 37  1  0
 22 38  1  0
 22 39  1  0
 23 40  1  0
 23 41  1  0
 24 42  1  0
M  END
$$$$
