
     RDKit          3D

 47 48  0  0  0  0  0  0  0  0999 V2000
    3.5473   -0.7833    1.6122 C   0  0  0  0  0  0  0  0  0  0  0  0
    3.4382    0.7286    1.5948 C   0  0  0  0  0  0  0  0  0  0  0  0
    2.0494    1.0750    1.5435 O   0  0  0  0  0  0  0  0  0  0  0  0
    1.8089    2.4108    1.5121 C   0  0  0  0  0  0  0  0  0  0  0  0
    2.6518    3.2933    1.5630 O   0  0  0  0  0  0  0  0  0  0  0  0
    0.3571    2.6681    1.4609 C   0  0  0  0  0  0  0  0  0  0  0  0
   -0.1646    3.5384    2.4547 C   0  0  0  0  0  0  0  0  0  0  0  0
   -0.6324    4.2316    3.2598 N   0  0  0  0  0  0  0  0  0  0  0  0
   -0.4537    2.1457    0.5209 C   0  0  0  0  0  0  0  0  0  0  0  0
   -0.0769    1.3062   -0.6080 C   0  0  0  0  0  0  0  0  0  0  0  0
   -0.5361    0.0422   -0.7768 C   0  0  0  0  0  0  0  0  0  0  0  0
   -1.3815   -0.6277    0.1263 N   0  0  0  0  0  0  0  0  0  0  0  0
   -0.8839   -1.0126    1.4696 C   0  0  0  0  0  0  0  0  0  0  0  0
   -1.7062   -2.1922    2.0098 C   0  0  0  0  0  0  0  0  0  0  0  0
   -3.1087   -1.8788    2.0535 O   0  0  0  0  0  0  0  0  0  0  0  0
   -3.5856   -1.5547    0.7368 C   0  0  0  0  0  0  0  0  0  0  0  0
   -2.8356   -0.3491    0.1503 C   0  0  0  0  0  0  0  0  0  0  0  0
   -0.0976   -0.7899   -2.0193 C   0  0  0  0  0  0  0  0  0  0  0  0
   -1.2930   -1.0891   -2.9385 C   0  0  0  0  0  0  0  0  0  0  0  0
    0.5404   -2.1198   -1.5868 C   0  0  0  0  0  0  0  0  0  0  0  0
    0.9262   -0.1382   -2.8021 O   0  0  0  0  0  0  0  0  0  0  0  0
    0.7088    1.2549   -2.9797 C   0  0  0  0  0  0  0  0  0  0  0  0
    0.8208    1.9539   -1.6352 C   0  0  0  0  0  0  0  0  0  0  0  0
    3.0931   -1.2119    0.7134 H   0  0  0  0  0  0  0  0  0  0  0  0
    3.0090   -1.1992    2.4701 H   0  0  0  0  0  0  0  0  0  0  0  0
    4.5932   -1.0987    1.6631 H   0  0  0  0  0  0  0  0  0  0  0  0
    3.8885    1.1425    2.5038 H   0  0  0  0  0  0  0  0  0  0  0  0
    3.9520    1.1273    0.7129 H   0  0  0  0  0  0  0  0  0  0  0  0
   -1.5199    2.3676    0.5653 H   0  0  0  0  0  0  0  0  0  0  0  0
    0.1727   -1.2986    1.4215 H   0  0  0  0  0  0  0  0  0  0  0  0
   -0.9814   -0.1603    2.1517 H   0  0  0  0  0  0  0  0  0  0  0  0
   -1.5613   -3.0882    1.3944 H   0  0  0  0  0  0  0  0  0  0  0  0
   -1.3882   -2.4311    3.0294 H   0  0  0  0  0  0  0  0  0  0  0  0
   -4.6526   -1.3252    0.8183 H   0  0  0  0  0  0  0  0  0  0  0  0
   -3.4795   -2.4359    0.0929 H   0  0  0  0  0  0  0  0  0  0  0  0
   -3.0243    0.5337    0.7717 H   0  0  0  0  0  0  0  0  0  0  0  0
   -3.2083   -0.1432   -0.8588 H   0  0  0  0  0  0  0  0  0  0  0  0
   -2.0127   -1.7659   -2.4654 H   0  0  0  0  0  0  0  0  0  0  0  0
   -1.8283   -0.1741   -3.2145 H   0  0  0  0  0  0  0  0  0  0  0  0
   -0.9566   -1.5484   -3.8752 H   0  0  0  0  0  0  0  0  0  0  0  0
   -0.1635   -2.7681   -1.0545 H   0  0  0  0  0  0  0  0  0  0  0  0
    1.4058   -1.9430   -0.9383 H   0  0  0  0  0  0  0  0  0  0  0  0
    0.9164   -2.6715   -2.4569 H   0  0  0  0  0  0  0  0  0  0  0  0
   -0.2582    1.4404   -3.4602 H   0  0  0  0  0  0  0  0  0  0  0  0
    1.4828    1.6312   -3.6567 H   0  0  0  0  0  0  0  0  0  0  0  0
    0.5704    3.0132   -1.7666 H   0  0  0  0  0  0  0  0  0  0  0  0
    1.8577    1.8944   -1.2834 H   0  0  0  0  0  0  0  0  0  0  0  0
  1  2  1  0
  2  3  1  0
  3  4  1  0
  4  5  2  0
  4  6  1  0
  6  7  1  0
  7  8  3  0
  6  9  2  3
  9 10  1  0
 10 11  2  0
 11 12  1  0
 12 13  1  0
 13 14  1  0
 14 15  1  0
 15 16  1  0
 16 17  1  0
 11 18  1  0
 18 19  1  0
 18 20  1  0
 18 21  1  0
 21 22  1  0
 22 23  1  0
 23 10  1  0
 17 12  1  0
  1 24  1  0
  1 25  1  0
  1 26  1  0
  2 27  1  0
  2 28  1  0
  9 29  1  0
 13 30  1  0
 13 31  1  0
 14 32  1  0
 14 33  1  0
 16 34  1  0
 16 35  1  0
 17 36  1  0
 17 37  1  0
 19 38  1  0
 19 39  1  0
 19 40  1  0
 20 41  1  0
 20 42  1  0
 20 43  1  0
 22 44  1  0
 22 45  1  0
 23 46  1  0
 23 47  1  0
M  END
$$$$
