
     RDKit          3D

 60 63  0  0  0  0  0  0  0  0999 V2000
    7.9685   -2.7353   -3.6738 C   0  0  0  0  0  0  0  0  0  0  0  0
    7.8417   -1.3974   -2.9669 C   0  0  0  0  0  0  0  0  0  0  0  0
    7.7129   -1.5819   -1.5615 O   0  0  0  0  0  0  0  0  0  0  0  0
    6.4601   -1.6458   -1.0229 C   0  0  0  0  0  0  0  0  0  0  0  0
    5.2653   -1.8133   -1.7237 C   0  0  0  0  0  0  0  0  0  0  0  0
    4.0455   -1.8699   -1.0368 C   0  0  0  0  0  0  0  0  0  0  0  0
    4.0066   -1.7711    0.3612 C   0  0  0  0  0  0  0  0  0  0  0  0
    2.6950   -1.7975    1.1047 C   0  0  0  0  0  0  0  0  0  0  0  0
    2.1032   -0.4832    1.1490 N   0  0  0  0  0  0  0  0  0  0  0  0
    2.3425    0.3965    2.1826 C   0  0  0  0  0  0  0  0  0  0  0  0
    3.0016    0.0984    3.1768 O   0  0  0  0  0  0  0  0  0  0  0  0
    1.7889    1.8041    1.9618 C   0  0  0  0  0  0  0  0  0  0  0  0
    0.3336    1.7934    1.8420 N   0  0  0  0  0  0  0  0  0  0  0  0
   -0.3795    2.1226    3.0014 N   0  0  0  0  0  0  0  0  0  0  0  0
   -1.6837    2.1255    3.0141 C   0  0  0  0  0  0  0  0  0  0  0  0
   -2.3861    2.4758    4.2953 C   0  0  0  0  0  0  0  0  0  0  0  0
   -2.4021    1.7957    1.8071 C   0  0  0  0  0  0  0  0  0  0  0  0
   -3.7425    1.7496    1.4627 C   0  0  0  0  0  0  0  0  0  0  0  0
   -4.9356    2.1849    2.2306 C   0  0  0  0  0  0  0  0  0  0  0  0
   -3.7731    1.2340    0.1611 N   0  0  0  0  0  0  0  0  0  0  0  0
   -4.8635    0.7411   -0.6204 C   0  0  0  0  0  0  0  0  0  0  0  0
   -6.0823    0.3588   -0.0505 C   0  0  0  0  0  0  0  0  0  0  0  0
   -7.1139   -0.1418   -0.8549 C   0  0  0  0  0  0  0  0  0  0  0  0
   -6.9469   -0.2689   -2.2376 C   0  0  0  0  0  0  0  0  0  0  0  0
   -8.0438   -0.8406   -3.0861 C   0  0  0  0  0  0  0  0  0  0  0  0
   -5.7188    0.0815   -2.8043 C   0  0  0  0  0  0  0  0  0  0  0  0
   -4.6847    0.5768   -2.0045 C   0  0  0  0  0  0  0  0  0  0  0  0
   -2.5225    1.2069   -0.3777 N   0  0  0  0  0  0  0  0  0  0  0  0
   -1.7026    1.4709    0.6411 C   0  0  0  0  0  0  0  0  0  0  0  0
   -0.2479    1.4563    0.6047 C   0  0  0  0  0  0  0  0  0  0  0  0
    0.4154    1.1486   -0.3867 O   0  0  0  0  0  0  0  0  0  0  0  0
    5.2088   -1.5996    1.0584 C   0  0  0  0  0  0  0  0  0  0  0  0
    6.4232   -1.5466    0.3700 C   0  0  0  0  0  0  0  0  0  0  0  0
    8.1359   -2.5912   -4.7458 H   0  0  0  0  0  0  0  0  0  0  0  0
    8.8061   -3.3072   -3.2590 H   0  0  0  0  0  0  0  0  0  0  0  0
    7.0688   -3.3453   -3.5408 H   0  0  0  0  0  0  0  0  0  0  0  0
    7.0442   -0.7778   -3.3884 H   0  0  0  0  0  0  0  0  0  0  0  0
    8.7698   -0.8351   -3.1182 H   0  0  0  0  0  0  0  0  0  0  0  0
    5.2436   -1.9111   -2.8040 H   0  0  0  0  0  0  0  0  0  0  0  0
    3.1230   -1.9909   -1.6036 H   0  0  0  0  0  0  0  0  0  0  0  0
    1.9864   -2.4623    0.5969 H   0  0  0  0  0  0  0  0  0  0  0  0
    2.8335   -2.1843    2.1218 H   0  0  0  0  0  0  0  0  0  0  0  0
    1.7311   -0.1078    0.2781 H   0  0  0  0  0  0  0  0  0  0  0  0
    2.0791    2.4423    2.8048 H   0  0  0  0  0  0  0  0  0  0  0  0
    2.2349    2.2174    1.0492 H   0  0  0  0  0  0  0  0  0  0  0  0
   -2.8261    3.4733    4.2083 H   0  0  0  0  0  0  0  0  0  0  0  0
   -1.6778    2.4811    5.1292 H   0  0  0  0  0  0  0  0  0  0  0  0
   -3.1700    1.7449    4.5096 H   0  0  0  0  0  0  0  0  0  0  0  0
   -4.6897    3.0294    2.8809 H   0  0  0  0  0  0  0  0  0  0  0  0
   -5.3080    1.3728    2.8619 H   0  0  0  0  0  0  0  0  0  0  0  0
   -5.7388    2.5414    1.5810 H   0  0  0  0  0  0  0  0  0  0  0  0
   -6.2601    0.3855    1.0183 H   0  0  0  0  0  0  0  0  0  0  0  0
   -8.0490   -0.4479   -0.3892 H   0  0  0  0  0  0  0  0  0  0  0  0
   -7.9847   -1.9351   -3.0873 H   0  0  0  0  0  0  0  0  0  0  0  0
   -9.0262   -0.5374   -2.7076 H   0  0  0  0  0  0  0  0  0  0  0  0
   -7.9689   -0.4818   -4.1187 H   0  0  0  0  0  0  0  0  0  0  0  0
   -5.5519   -0.0303   -3.8744 H   0  0  0  0  0  0  0  0  0  0  0  0
   -3.7419    0.8410   -2.4826 H   0  0  0  0  0  0  0  0  0  0  0  0
    5.2035   -1.4964    2.1431 H   0  0  0  0  0  0  0  0  0  0  0  0
    7.3499   -1.4158    0.9264 H   0  0  0  0  0  0  0  0  0  0  0  0
  1  2  1  0
  2  3  1  0
  3  4  1  0
  4  5  2  0
  5  6  1  0
  6  7  2  0
  7  8  1  0
  8  9  1  0
  9 10  1  0
 10 11  2  0
 10 12  1  0
 12 13  1  0
 13 14  1  0
 14 15  2  0
 15 16  1  0
 15 17  1  0
 17 18  2  0
 18 19  1  0
 18 20  1  0
 20 21  1  0
 21 22  2  0
 22 23  1  0
 23 24  2  0
 24 25  1  0
 24 26  1  0
 26 27  2  0
 20 28  1  0
 28 29  2  0
 29 30  1  0
 30 31  2  0
  7 32  1  0
 32 33  2  0
 33  4  1  0
 30 13  1  0
 29 17  1  0
 27 21  1  0
  1 34  1  0
  1 35  1  0
  1 36  1  0
  2 37  1  0
  2 38  1  0
  5 39  1  0
  6 40  1  0
  8 41  1  0
  8 42  1  0
  9 43  1  0
 12 44  1  0
 12 45  1  0
 16 46  1  0
 16 47  1  0
 16 48  1  0
 19 49  1  0
 19 50  1  0
 19 51  1  0
 22 52  1  0
 23 53  1  0
 25 54  1  0
 25 55  1  0
 25 56  1  0
 26 57  1  0
 27 58  1  0
 32 59  1  0
 33 60  1  0
M  END
$$$$
