
     RDKit          3D

 25 26  0  0  0  0  0  0  0  0999 V2000
   -0.9761    1.2962    1.7193 O   0  0  0  0  0  0  0  0  0  0  0  0
   -1.3145    0.9172    0.6049 C   0  0  0  0  0  0  0  0  0  0  0  0
   -0.5854    1.1000   -0.5332 O   0  0  0  0  0  0  0  0  0  0  0  0
    0.6842    1.7374   -0.3586 C   0  0  0  0  0  0  0  0  0  0  0  0
    1.7617    0.6877   -0.2850 C   0  0  0  0  0  0  0  0  0  0  0  0
    2.2885    0.1240   -1.4555 C   0  0  0  0  0  0  0  0  0  0  0  0
    3.2714   -0.8644   -1.3840 C   0  0  0  0  0  0  0  0  0  0  0  0
    3.7302   -1.3042   -0.1436 C   0  0  0  0  0  0  0  0  0  0  0  0
    3.2042   -0.7595    1.0263 C   0  0  0  0  0  0  0  0  0  0  0  0
    2.2220    0.2294    0.9571 C   0  0  0  0  0  0  0  0  0  0  0  0
   -2.5371    0.2186    0.2815 C   0  0  0  0  0  0  0  0  0  0  0  0
   -3.0406   -0.2908   -0.9040 C   0  0  0  0  0  0  0  0  0  0  0  0
   -4.2947   -0.8758   -0.6013 C   0  0  0  0  0  0  0  0  0  0  0  0
   -4.4864   -0.6915    0.7477 C   0  0  0  0  0  0  0  0  0  0  0  0
   -6.0076   -1.2722    1.7306 Br  0  0  0  0  0  0  0  0  0  0  0  0
   -3.4308   -0.0312    1.2903 O   0  0  0  0  0  0  0  0  0  0  0  0
    0.7112    2.4068    0.5099 H   0  0  0  0  0  0  0  0  0  0  0  0
    0.8527    2.3772   -1.2328 H   0  0  0  0  0  0  0  0  0  0  0  0
    1.9333    0.4506   -2.4303 H   0  0  0  0  0  0  0  0  0  0  0  0
    3.6772   -1.2944   -2.2960 H   0  0  0  0  0  0  0  0  0  0  0  0
    4.4941   -2.0753   -0.0881 H   0  0  0  0  0  0  0  0  0  0  0  0
    3.5554   -1.1075    1.9944 H   0  0  0  0  0  0  0  0  0  0  0  0
    1.8123    0.6375    1.8800 H   0  0  0  0  0  0  0  0  0  0  0  0
   -2.5531   -0.2447   -1.8687 H   0  0  0  0  0  0  0  0  0  0  0  0
   -4.9722   -1.3710   -1.2828 H   0  0  0  0  0  0  0  0  0  0  0  0
  1  2  2  0
  2  3  1  0
  3  4  1  0
  4  5  1  0
  5  6  2  0
  6  7  1  0
  7  8  2  0
  8  9  1  0
  9 10  2  0
  2 11  1  0
 11 12  2  0
 12 13  1  0
 13 14  2  0
 14 15  1  0
 14 16  1  0
 10  5  1  0
 16 11  1  0
  4 17  1  0
  4 18  1  0
  6 19  1  0
  7 20  1  0
  8 21  1  0
  9 22  1  0
 10 23  1  0
 12 24  1  0
 13 25  1  0
M  END
$$$$
