
     RDKit          3D

 55 59  0  0  0  0  0  0  0  0999 V2000
    8.3496    1.0403    0.5723 C   0  0  0  0  0  0  0  0  0  0  0  0
    7.1405    0.3057    0.4238 O   0  0  0  0  0  0  0  0  0  0  0  0
    6.0374    1.0070    0.0197 C   0  0  0  0  0  0  0  0  0  0  0  0
    5.9730    2.3838   -0.1927 C   0  0  0  0  0  0  0  0  0  0  0  0
    4.7783    2.9712   -0.6153 C   0  0  0  0  0  0  0  0  0  0  0  0
    3.6426    2.1859   -0.8159 C   0  0  0  0  0  0  0  0  0  0  0  0
    3.6843    0.8061   -0.5863 C   0  0  0  0  0  0  0  0  0  0  0  0
    2.4819    0.0052   -0.8055 C   0  0  0  0  0  0  0  0  0  0  0  0
    1.6760    0.1121   -1.8496 N   0  0  0  0  0  0  0  0  0  0  0  0
    0.6693   -0.8123   -1.7248 N   0  0  0  0  0  0  0  0  0  0  0  0
    0.8648   -1.4523   -0.5985 C   0  0  0  0  0  0  0  0  0  0  0  0
   -0.1428   -2.7090    0.0250 S   0  0  0  0  0  0  0  0  0  0  0  0
   -1.7870   -1.9466   -0.3181 C   0  0  0  0  0  0  0  0  0  0  0  0
   -1.9466   -0.6236    0.4599 C   0  0  0  0  0  0  0  0  0  0  0  0
   -1.3539   -0.4272    1.5265 O   0  0  0  0  0  0  0  0  0  0  0  0
   -2.8588    0.3997   -0.0778 C   0  0  0  0  0  0  0  0  0  0  0  0
   -3.6348    0.2993   -1.2210 C   0  0  0  0  0  0  0  0  0  0  0  0
   -4.3404    1.4635   -1.3749 N   0  0  0  0  0  0  0  0  0  0  0  0
   -4.0525    2.3335   -0.3522 C   0  0  0  0  0  0  0  0  0  0  0  0
   -4.5382    3.6237   -0.1058 C   0  0  0  0  0  0  0  0  0  0  0  0
   -4.0641    4.2912    1.0266 C   0  0  0  0  0  0  0  0  0  0  0  0
   -3.1409    3.6900    1.8768 C   0  0  0  0  0  0  0  0  0  0  0  0
   -2.6666    2.3996    1.6145 C   0  0  0  0  0  0  0  0  0  0  0  0
   -3.1270    1.6990    0.4781 C   0  0  0  0  0  0  0  0  0  0  0  0
   -2.8947   -2.9443   -0.0101 C   0  0  0  0  0  0  0  0  0  0  0  0
   -3.4851   -3.6733   -1.0566 C   0  0  0  0  0  0  0  0  0  0  0  0
   -4.4984   -4.5979   -0.7977 C   0  0  0  0  0  0  0  0  0  0  0  0
   -4.9301   -4.8123    0.5091 C   0  0  0  0  0  0  0  0  0  0  0  0
   -4.3456   -4.1078    1.5589 C   0  0  0  0  0  0  0  0  0  0  0  0
   -3.3312   -3.1832    1.3037 C   0  0  0  0  0  0  0  0  0  0  0  0
    1.9625   -0.9523    0.0424 N   0  0  0  0  0  0  0  0  0  0  0  0
    2.4162   -1.2786    1.3699 C   0  0  0  0  0  0  0  0  0  0  0  0
    4.8946    0.2256   -0.1832 C   0  0  0  0  0  0  0  0  0  0  0  0
    9.1354    0.3355    0.8612 H   0  0  0  0  0  0  0  0  0  0  0  0
    8.6498    1.5040   -0.3733 H   0  0  0  0  0  0  0  0  0  0  0  0
    8.2615    1.7861    1.3692 H   0  0  0  0  0  0  0  0  0  0  0  0
    6.8335    3.0280   -0.0458 H   0  0  0  0  0  0  0  0  0  0  0  0
    4.7312    4.0431   -0.7923 H   0  0  0  0  0  0  0  0  0  0  0  0
    2.7191    2.6548   -1.1528 H   0  0  0  0  0  0  0  0  0  0  0  0
   -1.7983   -1.7173   -1.3897 H   0  0  0  0  0  0  0  0  0  0  0  0
   -3.7540   -0.4943   -1.9466 H   0  0  0  0  0  0  0  0  0  0  0  0
   -4.9828    1.6618   -2.1300 H   0  0  0  0  0  0  0  0  0  0  0  0
   -5.2570    4.0963   -0.7673 H   0  0  0  0  0  0  0  0  0  0  0  0
   -4.4211    5.2950    1.2454 H   0  0  0  0  0  0  0  0  0  0  0  0
   -2.7818    4.2240    2.7530 H   0  0  0  0  0  0  0  0  0  0  0  0
   -1.9450    1.9422    2.2865 H   0  0  0  0  0  0  0  0  0  0  0  0
   -3.1549   -3.5307   -2.0840 H   0  0  0  0  0  0  0  0  0  0  0  0
   -4.9470   -5.1557   -1.6158 H   0  0  0  0  0  0  0  0  0  0  0  0
   -5.7174   -5.5340    0.7107 H   0  0  0  0  0  0  0  0  0  0  0  0
   -4.6757   -4.2812    2.5801 H   0  0  0  0  0  0  0  0  0  0  0  0
   -2.8822   -2.6561    2.1446 H   0  0  0  0  0  0  0  0  0  0  0  0
    3.0726   -2.1493    1.3040 H   0  0  0  0  0  0  0  0  0  0  0  0
    2.9514   -0.4295    1.8011 H   0  0  0  0  0  0  0  0  0  0  0  0
    1.5600   -1.4945    2.0133 H   0  0  0  0  0  0  0  0  0  0  0  0
    4.9697   -0.8498   -0.0403 H   0  0  0  0  0  0  0  0  0  0  0  0
  1  2  1  0
  2  3  1  0
  3  4  2  0
  4  5  1  0
  5  6  2  0
  6  7  1  0
  7  8  1  0
  8  9  2  0
  9 10  1  0
 10 11  2  0
 11 12  1  0
 12 13  1  0
 13 14  1  0
 14 15  2  0
 14 16  1  0
 16 17  2  0
 17 18  1  0
 18 19  1  0
 19 20  2  0
 20 21  1  0
 21 22  2  0
 22 23  1  0
 23 24  2  0
 13 25  1  0
 25 26  2  0
 26 27  1  0
 27 28  2  0
 28 29  1  0
 29 30  2  0
 11 31  1  0
 31 32  1  0
  7 33  2  0
 33  3  1  0
 31  8  1  0
 24 16  1  0
 30 25  1  0
 24 19  1  0
  1 34  1  0
  1 35  1  0
  1 36  1  0
  4 37  1  0
  5 38  1  0
  6 39  1  0
 13 40  1  0
 17 41  1  0
 18 42  1  0
 20 43  1  0
 21 44  1  0
 22 45  1  0
 23 46  1  0
 26 47  1  0
 27 48  1  0
 28 49  1  0
 29 50  1  0
 30 51  1  0
 32 52  1  0
 32 53  1  0
 32 54  1  0
 33 55  1  0
M  END
$$$$
