
     RDKit          3D

 47 50  0  0  0  0  0  0  0  0999 V2000
   -5.4990    0.9322    2.1657 C   0  0  0  0  0  0  0  0  0  0  0  0
   -5.3714    1.5647    0.7865 C   0  0  0  0  0  0  0  0  0  0  0  0
   -5.4821    0.5345   -0.3375 C   0  0  0  0  0  0  0  0  0  0  0  0
   -4.4815   -0.4772   -0.2367 O   0  0  0  0  0  0  0  0  0  0  0  0
   -3.2297   -0.2525   -0.7388 C   0  0  0  0  0  0  0  0  0  0  0  0
   -2.8295    0.9081   -1.4064 C   0  0  0  0  0  0  0  0  0  0  0  0
   -1.5101    1.0575   -1.8527 C   0  0  0  0  0  0  0  0  0  0  0  0
   -0.5656    0.0533   -1.6265 C   0  0  0  0  0  0  0  0  0  0  0  0
    0.8055    0.2285   -2.1111 C   0  0  0  0  0  0  0  0  0  0  0  0
    1.8892    0.4202   -1.3462 C   0  0  0  0  0  0  0  0  0  0  0  0
    1.9507    0.5241    0.4033 S   0  0  0  0  0  0  0  0  0  0  0  0
    3.6438    0.7854    0.3199 C   0  0  0  0  0  0  0  0  0  0  0  0
    4.5959    0.9825    1.1855 N   0  0  0  0  0  0  0  0  0  0  0  0
    5.7004    1.1138    0.3529 C   0  0  0  0  0  0  0  0  0  0  0  0
    7.1376    1.3667    0.9147 C   0  0  0  0  0  0  0  0  0  0  0  0
    7.4647    1.4813    2.2527 C   0  0  0  0  0  0  0  0  0  0  0  0
    8.8626    1.7001    2.3134 C   0  0  0  0  0  0  0  0  0  0  0  0
    9.3034    1.7072    1.0113 C   0  0  0  0  0  0  0  0  0  0  0  0
    8.2677    1.5062    0.1571 O   0  0  0  0  0  0  0  0  0  0  0  0
    5.4416    1.0049   -0.9666 N   0  0  0  0  0  0  0  0  0  0  0  0
    4.1164    0.7943   -0.9420 N   0  0  0  0  0  0  0  0  0  0  0  0
    3.2312    0.5994   -1.9804 C   0  0  0  0  0  0  0  0  0  0  0  0
    3.5414    0.5894   -3.1578 O   0  0  0  0  0  0  0  0  0  0  0  0
   -0.9565   -1.1116   -0.9645 C   0  0  0  0  0  0  0  0  0  0  0  0
   -2.2813   -1.2706   -0.5438 C   0  0  0  0  0  0  0  0  0  0  0  0
   -2.5527   -2.4468    0.1127 O   0  0  0  0  0  0  0  0  0  0  0  0
   -3.5462   -3.2281   -0.5627 C   0  0  0  0  0  0  0  0  0  0  0  0
   -3.2874   -4.6882   -0.2393 C   0  0  0  0  0  0  0  0  0  0  0  0
   -5.4428    1.7033    2.9414 H   0  0  0  0  0  0  0  0  0  0  0  0
   -6.4582    0.4147    2.2709 H   0  0  0  0  0  0  0  0  0  0  0  0
   -4.6957    0.2107    2.3489 H   0  0  0  0  0  0  0  0  0  0  0  0
   -4.4087    2.0846    0.7355 H   0  0  0  0  0  0  0  0  0  0  0  0
   -6.1574    2.3180    0.6618 H   0  0  0  0  0  0  0  0  0  0  0  0
   -5.4922    1.0040   -1.3273 H   0  0  0  0  0  0  0  0  0  0  0  0
   -6.4484    0.0224   -0.2501 H   0  0  0  0  0  0  0  0  0  0  0  0
   -3.5133    1.7295   -1.5911 H   0  0  0  0  0  0  0  0  0  0  0  0
   -1.2288    1.9737   -2.3690 H   0  0  0  0  0  0  0  0  0  0  0  0
    0.9045    0.2108   -3.1964 H   0  0  0  0  0  0  0  0  0  0  0  0
    6.7697    1.4115    3.0788 H   0  0  0  0  0  0  0  0  0  0  0  0
    9.4731    1.8351    3.1951 H   0  0  0  0  0  0  0  0  0  0  0  0
   10.2720    1.8336    0.5472 H   0  0  0  0  0  0  0  0  0  0  0  0
   -0.2462   -1.9140   -0.7798 H   0  0  0  0  0  0  0  0  0  0  0  0
   -4.5434   -2.9556   -0.2011 H   0  0  0  0  0  0  0  0  0  0  0  0
   -3.5010   -3.0895   -1.6510 H   0  0  0  0  0  0  0  0  0  0  0  0
   -4.0115   -5.3343   -0.7451 H   0  0  0  0  0  0  0  0  0  0  0  0
   -2.2769   -4.9776   -0.5470 H   0  0  0  0  0  0  0  0  0  0  0  0
   -3.3535   -4.8603    0.8403 H   0  0  0  0  0  0  0  0  0  0  0  0
  1  2  1  0
  2  3  1  0
  3  4  1  0
  4  5  1  0
  5  6  2  0
  6  7  1  0
  7  8  2  0
  8  9  1  0
  9 10  2  3
 10 11  1  0
 11 12  1  0
 12 13  2  0
 13 14  1  0
 14 15  1  0
 15 16  2  0
 16 17  1  0
 17 18  2  0
 18 19  1  0
 14 20  2  0
 20 21  1  0
 21 22  1  0
 22 23  2  0
  8 24  1  0
 24 25  2  0
 25 26  1  0
 26 27  1  0
 27 28  1  0
 25  5  1  0
 22 10  1  0
 21 12  1  0
 19 15  1  0
  1 29  1  0
  1 30  1  0
  1 31  1  0
  2 32  1  0
  2 33  1  0
  3 34  1  0
  3 35  1  0
  6 36  1  0
  7 37  1  0
  9 38  1  0
 16 39  1  0
 17 40  1  0
 18 41  1  0
 24 42  1  0
 27 43  1  0
 27 44  1  0
 28 45  1  0
 28 46  1  0
 28 47  1  0
M  END
$$$$
