
     RDKit          3D

 70 75  0  0  0  0  0  0  0  0999 V2000
   -5.3239   -3.5582    2.1906 C   0  0  0  0  0  0  0  0  0  0  0  0
   -4.2080   -2.8505    1.4665 C   0  0  0  0  0  0  0  0  0  0  0  0
   -3.5975   -1.7391    2.0969 C   0  0  0  0  0  0  0  0  0  0  0  0
   -2.5601   -1.0334    1.4864 C   0  0  0  0  0  0  0  0  0  0  0  0
   -2.1440   -1.4431    0.2330 C   0  0  0  0  0  0  0  0  0  0  0  0
   -2.7312   -2.5548   -0.3859 C   0  0  0  0  0  0  0  0  0  0  0  0
   -3.7483   -3.2956    0.2055 C   0  0  0  0  0  0  0  0  0  0  0  0
   -4.3683   -4.4743   -0.4867 C   0  0  0  0  0  0  0  0  0  0  0  0
   -2.1419   -2.7652   -1.6313 N   0  0  0  0  0  0  0  0  0  0  0  0
   -1.1399   -1.8291   -1.8969 C   0  0  0  0  0  0  0  0  0  0  0  0
   -0.4480   -1.8156   -2.9035 O   0  0  0  0  0  0  0  0  0  0  0  0
   -1.0937   -0.8774   -0.6742 C   0  0  1  0  0  0  0  0  0  0  0  0
   -1.4390    0.5318   -1.0111 C   0  0  0  0  0  0  0  0  0  0  0  0
   -0.2717    1.3111   -1.0487 C   0  0  0  0  0  0  0  0  0  0  0  0
   -0.6071    2.5989   -1.3669 C   0  0  0  0  0  0  0  0  0  0  0  0
    0.1692    3.6732   -1.4815 O   0  0  0  0  0  0  0  0  0  0  0  0
   -2.0142    2.6444   -1.5234 N   0  0  0  0  0  0  0  0  0  0  0  0
   -2.7979    3.8077   -1.8509 C   0  0  0  0  0  0  0  0  0  0  0  0
   -2.2261    4.8935   -2.5308 C   0  0  0  0  0  0  0  0  0  0  0  0
   -2.9887    6.0234   -2.8467 C   0  0  0  0  0  0  0  0  0  0  0  0
   -4.3305    6.0858   -2.4870 C   0  0  0  0  0  0  0  0  0  0  0  0
   -4.9127    5.0164   -1.8154 C   0  0  0  0  0  0  0  0  0  0  0  0
   -4.1536    3.8846   -1.4990 C   0  0  0  0  0  0  0  0  0  0  0  0
   -2.5109    1.3378   -1.2974 C   0  0  0  0  0  0  0  0  0  0  0  0
   -3.8002    1.0228   -1.4081 O   0  0  0  0  0  0  0  0  0  0  0  0
    0.9068    0.4621   -0.7680 C   0  0  1  0  0  0  0  0  0  0  0  0
    2.0148    0.9927    0.1336 C   0  0  0  0  0  0  0  0  0  0  0  0
    2.9734   -0.0780    0.4594 N   0  0  0  0  0  0  0  0  0  0  0  0
    4.2627    0.2904    0.8012 C   0  0  0  0  0  0  0  0  0  0  0  0
    4.6949    1.4283    0.6670 O   0  0  0  0  0  0  0  0  0  0  0  0
    4.9803   -0.7537    1.2872 O   0  0  0  0  0  0  0  0  0  0  0  0
    6.3705   -0.5956    1.6702 C   0  0  0  0  0  0  0  0  0  0  0  0
    6.8036   -1.9922    2.1437 C   0  0  0  0  0  0  0  0  0  0  0  0
    7.2367   -0.1971    0.4698 C   0  0  0  0  0  0  0  0  0  0  0  0
    6.5217    0.3844    2.8385 C   0  0  0  0  0  0  0  0  0  0  0  0
    2.4026   -1.3777    0.8632 C   0  0  0  0  0  0  0  0  0  0  0  0
    1.1652   -1.8097    0.0334 C   0  0  0  0  0  0  0  0  0  0  0  0
    0.2451   -0.6897   -0.0746 N   0  0  0  0  0  0  0  0  0  0  0  0
   -4.9625   -4.5043    2.6046 H   0  0  0  0  0  0  0  0  0  0  0  0
   -6.1634   -3.7508    1.5147 H   0  0  0  0  0  0  0  0  0  0  0  0
   -5.7133   -2.9517    3.0155 H   0  0  0  0  0  0  0  0  0  0  0  0
   -3.9404   -1.4145    3.0788 H   0  0  0  0  0  0  0  0  0  0  0  0
   -2.1020   -0.1787    1.9762 H   0  0  0  0  0  0  0  0  0  0  0  0
   -5.2905   -4.1692   -0.9918 H   0  0  0  0  0  0  0  0  0  0  0  0
   -3.6934   -4.9123   -1.2291 H   0  0  0  0  0  0  0  0  0  0  0  0
   -4.5965   -5.2745    0.2251 H   0  0  0  0  0  0  0  0  0  0  0  0
   -2.3707   -3.5026   -2.2806 H   0  0  0  0  0  0  0  0  0  0  0  0
    1.0933    3.4057   -1.3455 H   0  0  0  0  0  0  0  0  0  0  0  0
   -1.1936    4.8804   -2.8632 H   0  0  0  0  0  0  0  0  0  0  0  0
   -2.5294    6.8515   -3.3796 H   0  0  0  0  0  0  0  0  0  0  0  0
   -4.9208    6.9642   -2.7316 H   0  0  0  0  0  0  0  0  0  0  0  0
   -5.9587    5.0622   -1.5236 H   0  0  0  0  0  0  0  0  0  0  0  0
   -4.6453    3.0932   -0.9423 H   0  0  0  0  0  0  0  0  0  0  0  0
   -3.9088    0.0878   -1.1601 H   0  0  0  0  0  0  0  0  0  0  0  0
    1.3338    0.1312   -1.7260 H   0  0  0  0  0  0  0  0  0  0  0  0
    1.6165    1.3767    1.0818 H   0  0  0  0  0  0  0  0  0  0  0  0
    2.5348    1.8233   -0.3560 H   0  0  0  0  0  0  0  0  0  0  0  0
    6.1826   -2.3293    2.9820 H   0  0  0  0  0  0  0  0  0  0  0  0
    7.8514   -2.0082    2.4617 H   0  0  0  0  0  0  0  0  0  0  0  0
    6.6722   -2.7317    1.3452 H   0  0  0  0  0  0  0  0  0  0  0  0
    7.0293    0.8244    0.1373 H   0  0  0  0  0  0  0  0  0  0  0  0
    7.0384   -0.8524   -0.3863 H   0  0  0  0  0  0  0  0  0  0  0  0
    8.3040   -0.2519    0.7112 H   0  0  0  0  0  0  0  0  0  0  0  0
    7.5443    0.3799    3.2324 H   0  0  0  0  0  0  0  0  0  0  0  0
    5.8336    0.1281    3.6525 H   0  0  0  0  0  0  0  0  0  0  0  0
    6.2894    1.4119    2.5438 H   0  0  0  0  0  0  0  0  0  0  0  0
    2.1234   -1.2792    1.9200 H   0  0  0  0  0  0  0  0  0  0  0  0
    3.1660   -2.1604    0.7971 H   0  0  0  0  0  0  0  0  0  0  0  0
    1.4970   -2.1475   -0.9557 H   0  0  0  0  0  0  0  0  0  0  0  0
    0.6894   -2.6608    0.5331 H   0  0  0  0  0  0  0  0  0  0  0  0
  1  2  1  0
  2  3  2  0
  3  4  1  0
  4  5  2  0
  5  6  1  0
  6  7  2  0
  7  8  1  0
  6  9  1  0
  9 10  1  0
 10 11  2  0
 10 12  1  0
 12 13  1  0
 13 14  1  0
 14 15  2  0
 15 16  1  0
 15 17  1  0
 17 18  1  0
 18 19  2  0
 19 20  1  0
 20 21  2  0
 21 22  1  0
 22 23  2  0
 17 24  1  0
 24 25  1  0
 14 26  1  0
 26 27  1  0
 27 28  1  0
 28 29  1  0
 29 30  2  0
 29 31  1  0
 31 32  1  0
 32 33  1  0
 32 34  1  0
 32 35  1  0
 28 36  1  0
 36 37  1  0
 37 38  1  0
  7  2  1  0
 12 38  1  1
 12  5  1  0
 24 13  2  0
 38 26  1  0
 23 18  1  0
  1 39  1  0
  1 40  1  0
  1 41  1  0
  3 42  1  0
  4 43  1  0
  8 44  1  0
  8 45  1  0
  8 46  1  0
  9 47  1  0
 16 48  1  0
 19 49  1  0
 20 50  1  0
 21 51  1  0
 22 52  1  0
 23 53  1  0
 25 54  1  0
 26 55  1  6
 27 56  1  0
 27 57  1  0
 33 58  1  0
 33 59  1  0
 33 60  1  0
 34 61  1  0
 34 62  1  0
 34 63  1  0
 35 64  1  0
 35 65  1  0
 35 66  1  0
 36 67  1  0
 36 68  1  0
 37 69  1  0
 37 70  1  0
M  END
$$$$
