
     RDKit          3D

 51 55  0  0  0  0  0  0  0  0999 V2000
    1.9954    0.3901   -2.5000 O   0  0  0  0  0  0  0  0  0  0  0  0
    1.2802   -0.4393   -1.9342 C   0  0  0  0  0  0  0  0  0  0  0  0
   -0.1163   -0.7720   -2.4815 C   0  0  0  0  0  0  0  0  0  0  0  0
   -1.1965   -0.3416   -1.5807 N   0  0  0  0  0  0  0  0  0  0  0  0
   -1.4707   -1.1401   -0.4755 C   0  0  0  0  0  0  0  0  0  0  0  0
   -0.8786   -2.2083   -0.2785 O   0  0  0  0  0  0  0  0  0  0  0  0
   -2.4405   -0.6183    0.5519 C   0  0  0  0  0  0  0  0  0  0  0  0
   -3.8659   -0.9864    0.1875 C   0  0  0  0  0  0  0  0  0  0  0  0
   -4.8179   -0.4693    1.2223 C   0  0  0  0  0  0  0  0  0  0  0  0
   -5.2812    0.7875    1.5699 C   0  0  0  0  0  0  0  0  0  0  0  0
   -6.1551    0.6047    2.6726 C   0  0  0  0  0  0  0  0  0  0  0  0
   -6.1665   -0.7462    2.9329 C   0  0  0  0  0  0  0  0  0  0  0  0
   -5.3627   -1.4073    2.0564 O   0  0  0  0  0  0  0  0  0  0  0  0
   -4.3964   -0.4691   -1.4923 S   0  0  0  0  0  0  0  0  0  0  0  0
   -3.3275    0.9344   -1.8032 C   0  0  0  0  0  0  0  0  0  0  0  0
   -3.9770    2.1334   -2.1307 C   0  0  0  0  0  0  0  0  0  0  0  0
   -3.2509    3.2450   -2.5545 C   0  0  0  0  0  0  0  0  0  0  0  0
   -1.8704    3.1632   -2.6779 C   0  0  0  0  0  0  0  0  0  0  0  0
   -1.2119    1.9736   -2.3660 C   0  0  0  0  0  0  0  0  0  0  0  0
   -1.9207    0.8490   -1.9062 C   0  0  0  0  0  0  0  0  0  0  0  0
    1.6047   -1.1705   -0.8054 N   0  0  0  0  0  0  0  0  0  0  0  0
    2.7728   -1.0990   -0.0228 C   0  0  0  0  0  0  0  0  0  0  0  0
    2.8278   -1.9347    1.1040 C   0  0  0  0  0  0  0  0  0  0  0  0
    3.9464   -1.9346    1.9411 C   0  0  0  0  0  0  0  0  0  0  0  0
    5.0231   -1.1039    1.6521 C   0  0  0  0  0  0  0  0  0  0  0  0
    4.9663   -0.2482    0.5478 C   0  0  0  0  0  0  0  0  0  0  0  0
    3.8489   -0.2518   -0.2929 C   0  0  0  0  0  0  0  0  0  0  0  0
    5.9821    0.6180    0.2186 O   0  0  0  0  0  0  0  0  0  0  0  0
    6.9053    0.7807    1.3013 C   0  0  0  0  0  0  0  0  0  0  0  0
    7.2589   -0.5649    1.9133 C   0  0  0  0  0  0  0  0  0  0  0  0
    6.1006   -1.1740    2.4964 O   0  0  0  0  0  0  0  0  0  0  0  0
   -0.1777   -1.8570   -2.6286 H   0  0  0  0  0  0  0  0  0  0  0  0
   -0.2379   -0.3189   -3.4718 H   0  0  0  0  0  0  0  0  0  0  0  0
   -2.2954    0.4568    0.7077 H   0  0  0  0  0  0  0  0  0  0  0  0
   -2.1734   -1.0740    1.5152 H   0  0  0  0  0  0  0  0  0  0  0  0
   -3.9455   -2.0841    0.1684 H   0  0  0  0  0  0  0  0  0  0  0  0
   -5.0175    1.7233    1.0908 H   0  0  0  0  0  0  0  0  0  0  0  0
   -6.7062    1.3607    3.2200 H   0  0  0  0  0  0  0  0  0  0  0  0
   -6.6701   -1.3659    3.6647 H   0  0  0  0  0  0  0  0  0  0  0  0
   -5.0621    2.2027   -2.0842 H   0  0  0  0  0  0  0  0  0  0  0  0
   -3.7673    4.1671   -2.8079 H   0  0  0  0  0  0  0  0  0  0  0  0
   -1.2981    4.0240   -3.0203 H   0  0  0  0  0  0  0  0  0  0  0  0
   -0.1280    1.9619   -2.4611 H   0  0  0  0  0  0  0  0  0  0  0  0
    0.9023   -1.8487   -0.4986 H   0  0  0  0  0  0  0  0  0  0  0  0
    2.0011   -2.6022    1.3419 H   0  0  0  0  0  0  0  0  0  0  0  0
    3.9817   -2.5917    2.8052 H   0  0  0  0  0  0  0  0  0  0  0  0
    3.8496    0.4205   -1.1483 H   0  0  0  0  0  0  0  0  0  0  0  0
    6.4591    1.4546    2.0417 H   0  0  0  0  0  0  0  0  0  0  0  0
    7.8038    1.2590    0.9019 H   0  0  0  0  0  0  0  0  0  0  0  0
    8.0006   -0.4361    2.7080 H   0  0  0  0  0  0  0  0  0  0  0  0
    7.6750   -1.2521    1.1649 H   0  0  0  0  0  0  0  0  0  0  0  0
  1  2  2  0
  2  3  1  0
  3  4  1  0
  4  5  1  0
  5  6  2  0
  5  7  1  0
  7  8  1  0
  8  9  1  0
  9 10  2  0
 10 11  1  0
 11 12  2  0
 12 13  1  0
  8 14  1  0
 14 15  1  0
 15 16  2  0
 16 17  1  0
 17 18  2  0
 18 19  1  0
 19 20  2  0
  2 21  1  0
 21 22  1  0
 22 23  2  0
 23 24  1  0
 24 25  2  0
 25 26  1  0
 26 27  2  0
 26 28  1  0
 28 29  1  0
 29 30  1  0
 30 31  1  0
 20  4  1  0
 27 22  1  0
 13  9  1  0
 20 15  1  0
 31 25  1  0
  3 32  1  0
  3 33  1  0
  7 34  1  0
  7 35  1  0
  8 36  1  0
 10 37  1  0
 11 38  1  0
 12 39  1  0
 16 40  1  0
 17 41  1  0
 18 42  1  0
 19 43  1  0
 21 44  1  0
 23 45  1  0
 24 46  1  0
 27 47  1  0
 29 48  1  0
 29 49  1  0
 30 50  1  0
 30 51  1  0
M  END
$$$$
