
     RDKit          3D

 49 51  0  0  0  0  0  0  0  0999 V2000
    2.6166   -2.7924    1.1894 O   0  0  0  0  0  0  0  0  0  0  0  0
    2.2430   -2.7892    0.0244 C   0  0  0  0  0  0  0  0  0  0  0  0
    2.9642   -3.2055   -1.0683 N   0  0  0  0  0  0  0  0  0  0  0  0
    4.3588   -3.5508   -0.9852 C   0  0  0  0  0  0  0  0  0  0  0  0
    5.2272   -2.3749   -1.3479 C   0  0  0  0  0  0  0  0  0  0  0  0
    5.5843   -1.4315   -0.3735 C   0  0  0  0  0  0  0  0  0  0  0  0
    6.3700   -0.3283   -0.7098 C   0  0  0  0  0  0  0  0  0  0  0  0
    6.8009   -0.1534   -2.0235 C   0  0  0  0  0  0  0  0  0  0  0  0
    6.4436   -1.0787   -3.0027 C   0  0  0  0  0  0  0  0  0  0  0  0
    5.6572   -2.1827   -2.6686 C   0  0  0  0  0  0  0  0  0  0  0  0
    0.8333   -2.2646   -0.3326 C   0  0  0  0  0  0  0  0  0  0  0  0
    0.4734   -2.2267   -1.5006 O   0  0  0  0  0  0  0  0  0  0  0  0
    0.0982   -1.8821    0.7666 N   0  0  0  0  0  0  0  0  0  0  0  0
   -1.1619   -1.1698    0.6442 C   0  0  0  0  0  0  0  0  0  0  0  0
   -0.9954    0.3640    0.6515 C   0  0  0  0  0  0  0  0  0  0  0  0
   -0.2707    0.7963   -0.5127 O   0  0  0  0  0  0  0  0  0  0  0  0
   -0.7404    2.1170   -0.7800 C   0  0  0  0  0  0  0  0  0  0  0  0
   -2.2238    2.0229   -0.5083 C   0  0  0  0  0  0  0  0  0  0  0  0
   -2.3170    1.0341    0.5860 N   0  0  0  0  0  0  0  0  0  0  0  0
   -2.8621    1.5811    2.0857 S   0  0  0  0  0  6  0  0  0  0  0  0
   -2.1321    2.7928    2.3920 O   0  0  0  0  0  0  0  0  0  0  0  0
   -2.8681    0.4556    2.9937 O   0  0  0  0  0  0  0  0  0  0  0  0
   -4.5521    2.0042    1.7480 C   0  0  0  0  0  0  0  0  0  0  0  0
   -5.4435    0.9894    1.3829 C   0  0  0  0  0  0  0  0  0  0  0  0
   -6.7754    1.3088    1.1146 C   0  0  0  0  0  0  0  0  0  0  0  0
   -7.2038    2.6334    1.2178 C   0  0  0  0  0  0  0  0  0  0  0  0
   -9.0081    3.0637    0.8530 Br  0  0  0  0  0  0  0  0  0  0  0  0
   -6.3148    3.6437    1.5900 C   0  0  0  0  0  0  0  0  0  0  0  0
   -4.9811    3.3300    1.8597 C   0  0  0  0  0  0  0  0  0  0  0  0
    2.5504   -3.0066   -1.9747 H   0  0  0  0  0  0  0  0  0  0  0  0
    4.5341   -4.3816   -1.6776 H   0  0  0  0  0  0  0  0  0  0  0  0
    4.6040   -3.9091    0.0211 H   0  0  0  0  0  0  0  0  0  0  0  0
    5.2451   -1.5523    0.6542 H   0  0  0  0  0  0  0  0  0  0  0  0
    6.6421    0.3960    0.0534 H   0  0  0  0  0  0  0  0  0  0  0  0
    7.4117    0.7066   -2.2848 H   0  0  0  0  0  0  0  0  0  0  0  0
    6.7753   -0.9384   -4.0282 H   0  0  0  0  0  0  0  0  0  0  0  0
    5.3817   -2.8916   -3.4460 H   0  0  0  0  0  0  0  0  0  0  0  0
    0.5787   -1.9218    1.6624 H   0  0  0  0  0  0  0  0  0  0  0  0
   -1.7878   -1.4941    1.4810 H   0  0  0  0  0  0  0  0  0  0  0  0
   -1.6494   -1.4852   -0.2857 H   0  0  0  0  0  0  0  0  0  0  0  0
   -0.4152    0.6826    1.5263 H   0  0  0  0  0  0  0  0  0  0  0  0
   -0.5132    2.4000   -1.8109 H   0  0  0  0  0  0  0  0  0  0  0  0
   -0.2426    2.8142   -0.0966 H   0  0  0  0  0  0  0  0  0  0  0  0
   -2.6611    2.9979   -0.2815 H   0  0  0  0  0  0  0  0  0  0  0  0
   -2.7521    1.6063   -1.3732 H   0  0  0  0  0  0  0  0  0  0  0  0
   -5.1070   -0.0427    1.3093 H   0  0  0  0  0  0  0  0  0  0  0  0
   -7.4700    0.5217    0.8308 H   0  0  0  0  0  0  0  0  0  0  0  0
   -6.6523    4.6738    1.6768 H   0  0  0  0  0  0  0  0  0  0  0  0
   -4.2926    4.1180    2.1571 H   0  0  0  0  0  0  0  0  0  0  0  0
  1  2  2  0
  2  3  1  0
  3  4  1  0
  4  5  1  0
  5  6  2  0
  6  7  1  0
  7  8  2  0
  8  9  1  0
  9 10  2  0
  2 11  1  0
 11 12  2  0
 11 13  1  0
 13 14  1  0
 14 15  1  0
 15 16  1  0
 16 17  1  0
 17 18  1  0
 18 19  1  0
 19 20  1  0
 20 21  2  0
 20 22  2  0
 20 23  1  0
 23 24  2  0
 24 25  1  0
 25 26  2  0
 26 27  1  0
 26 28  1  0
 28 29  2  0
 10  5  1  0
 19 15  1  0
 29 23  1  0
  3 30  1  0
  4 31  1  0
  4 32  1  0
  6 33  1  0
  7 34  1  0
  8 35  1  0
  9 36  1  0
 10 37  1  0
 13 38  1  0
 14 39  1  0
 14 40  1  0
 15 41  1  0
 17 42  1  0
 17 43  1  0
 18 44  1  0
 18 45  1  0
 24 46  1  0
 25 47  1  0
 28 48  1  0
 29 49  1  0
M  END
$$$$
