
     RDKit          3D

 44 47  0  0  0  0  0  0  0  0999 V2000
   -5.7532   -1.8046    2.5580 C   0  0  0  0  0  0  0  0  0  0  0  0
   -5.1541   -2.2520    1.2356 C   0  0  0  0  0  0  0  0  0  0  0  0
   -4.7812   -1.1293    0.4400 O   0  0  0  0  0  0  0  0  0  0  0  0
   -3.5444   -0.5679    0.5965 C   0  0  0  0  0  0  0  0  0  0  0  0
   -2.5899   -0.9672    1.5347 C   0  0  0  0  0  0  0  0  0  0  0  0
   -1.3639   -0.2958    1.6363 C   0  0  0  0  0  0  0  0  0  0  0  0
   -1.0733    0.7878    0.8017 C   0  0  0  0  0  0  0  0  0  0  0  0
    0.1924    1.5190    0.9117 C   0  0  0  0  0  0  0  0  0  0  0  0
    1.4085    1.0314    0.6268 C   0  0  0  0  0  0  0  0  0  0  0  0
    1.7974   -0.5772    0.0444 S   0  0  0  0  0  0  0  0  0  0  0  0
    3.4580   -0.1526    0.0032 C   0  0  0  0  0  0  0  0  0  0  0  0
    4.5632   -0.7599   -0.3147 N   0  0  0  0  0  0  0  0  0  0  0  0
    5.5023    0.2350   -0.0843 C   0  0  0  0  0  0  0  0  0  0  0  0
    7.0323    0.0061   -0.3159 C   0  0  0  0  0  0  0  0  0  0  0  0
    8.0303    0.9394   -0.1087 C   0  0  0  0  0  0  0  0  0  0  0  0
    9.2544    0.3080   -0.4370 C   0  0  0  0  0  0  0  0  0  0  0  0
    8.9306   -0.9700   -0.8261 C   0  0  0  0  0  0  0  0  0  0  0  0
    7.5889   -1.1631   -0.7570 O   0  0  0  0  0  0  0  0  0  0  0  0
    5.0007    1.4088    0.3567 N   0  0  0  0  0  0  0  0  0  0  0  0
    3.6899    1.1143    0.3983 N   0  0  0  0  0  0  0  0  0  0  0  0
    2.6196    1.8961    0.7759 C   0  0  0  0  0  0  0  0  0  0  0  0
    2.7116    3.0520    1.1483 O   0  0  0  0  0  0  0  0  0  0  0  0
   -2.0268    1.2020   -0.1288 C   0  0  0  0  0  0  0  0  0  0  0  0
   -3.2390    0.5143   -0.2439 C   0  0  0  0  0  0  0  0  0  0  0  0
   -4.1289    1.0084   -1.1669 O   0  0  0  0  0  0  0  0  0  0  0  0
   -4.2536    0.1256   -2.2873 C   0  0  0  0  0  0  0  0  0  0  0  0
   -4.9232    0.8953   -3.4122 C   0  0  0  0  0  0  0  0  0  0  0  0
   -6.1014   -2.6661    3.1351 H   0  0  0  0  0  0  0  0  0  0  0  0
   -5.0274   -1.2506    3.1614 H   0  0  0  0  0  0  0  0  0  0  0  0
   -6.5993   -1.1313    2.3856 H   0  0  0  0  0  0  0  0  0  0  0  0
   -5.9274   -2.7862    0.6712 H   0  0  0  0  0  0  0  0  0  0  0  0
   -4.3341   -2.9668    1.3649 H   0  0  0  0  0  0  0  0  0  0  0  0
   -2.7679   -1.7875    2.2220 H   0  0  0  0  0  0  0  0  0  0  0  0
   -0.6475   -0.6238    2.3876 H   0  0  0  0  0  0  0  0  0  0  0  0
    0.0864    2.5547    1.2387 H   0  0  0  0  0  0  0  0  0  0  0  0
    7.8820    1.9529    0.2396 H   0  0  0  0  0  0  0  0  0  0  0  0
   10.2483    0.7306   -0.3951 H   0  0  0  0  0  0  0  0  0  0  0  0
    9.5076   -1.8216   -1.1612 H   0  0  0  0  0  0  0  0  0  0  0  0
   -1.8406    2.0549   -0.7769 H   0  0  0  0  0  0  0  0  0  0  0  0
   -4.8739   -0.7383   -2.0271 H   0  0  0  0  0  0  0  0  0  0  0  0
   -3.2691   -0.2229   -2.6240 H   0  0  0  0  0  0  0  0  0  0  0  0
   -5.0345    0.2692   -4.3017 H   0  0  0  0  0  0  0  0  0  0  0  0
   -4.3367    1.7832   -3.6734 H   0  0  0  0  0  0  0  0  0  0  0  0
   -5.9131    1.2456   -3.1013 H   0  0  0  0  0  0  0  0  0  0  0  0
  1  2  1  0
  2  3  1  0
  3  4  1  0
  4  5  2  0
  5  6  1  0
  6  7  2  0
  7  8  1  0
  8  9  2  3
  9 10  1  0
 10 11  1  0
 11 12  2  0
 12 13  1  0
 13 14  1  0
 14 15  2  0
 15 16  1  0
 16 17  2  0
 17 18  1  0
 13 19  2  0
 19 20  1  0
 20 21  1  0
 21 22  2  0
  7 23  1  0
 23 24  2  0
 24 25  1  0
 25 26  1  0
 26 27  1  0
 24  4  1  0
 21  9  1  0
 20 11  1  0
 18 14  1  0
  1 28  1  0
  1 29  1  0
  1 30  1  0
  2 31  1  0
  2 32  1  0
  5 33  1  0
  6 34  1  0
  8 35  1  0
 15 36  1  0
 16 37  1  0
 17 38  1  0
 23 39  1  0
 26 40  1  0
 26 41  1  0
 27 42  1  0
 27 43  1  0
 27 44  1  0
M  END
$$$$
