
     RDKit          3D

 36 37  0  0  0  0  0  0  0  0999 V2000
    0.7489    2.6451   -0.2774 O   0  0  0  0  0  0  0  0  0  0  0  0
    0.6268    1.4715   -0.6222 C   0  0  0  0  0  0  0  0  0  0  0  0
   -0.2184    1.0502   -1.8268 C   0  0  0  0  0  0  0  0  0  0  0  0
   -1.6073    0.9445   -1.5051 O   0  0  0  0  0  0  0  0  0  0  0  0
   -1.9214   -0.1149   -0.7217 C   0  0  0  0  0  0  0  0  0  0  0  0
   -1.1608   -0.9843   -0.3339 O   0  0  0  0  0  0  0  0  0  0  0  0
   -3.3507   -0.0381   -0.3785 C   0  0  0  0  0  0  0  0  0  0  0  0
   -4.2887    0.0388   -1.4184 C   0  0  0  0  0  0  0  0  0  0  0  0
   -5.6474    0.0829   -1.1149 C   0  0  0  0  0  0  0  0  0  0  0  0
   -6.8033    0.1718   -2.3848 Cl  0  0  0  0  0  0  0  0  0  0  0  0
   -6.0784    0.0517    0.2107 C   0  0  0  0  0  0  0  0  0  0  0  0
   -5.1419   -0.0216    1.2454 C   0  0  0  0  0  0  0  0  0  0  0  0
   -3.7742   -0.0675    0.9552 C   0  0  0  0  0  0  0  0  0  0  0  0
   -2.6729   -0.1092    2.2844 Cl  0  0  0  0  0  0  0  0  0  0  0  0
    1.2083    0.4191    0.0560 N   0  0  0  0  0  0  0  0  0  0  0  0
    1.8663    0.6388    1.3281 C   0  0  0  0  0  0  0  0  0  0  0  0
    2.6788   -0.5718    1.7975 C   0  0  0  0  0  0  0  0  0  0  0  0
    3.7498   -0.9195    0.8799 N   0  0  0  0  0  0  0  0  0  0  0  0
    5.0402   -0.4493    0.9346 C   0  0  0  0  0  0  0  0  0  0  0  0
    5.4391    0.4454    1.8813 O   0  0  0  0  0  0  0  0  0  0  0  0
    5.8513   -0.9334   -0.0097 C   0  0  0  0  0  0  0  0  0  0  0  0
    5.0151   -2.0186   -1.0730 S   0  0  0  0  0  0  0  0  0  0  0  0
    3.5036   -1.7926   -0.1762 C   0  0  0  0  0  0  0  0  0  0  0  0
    2.4514   -2.3334   -0.4760 O   0  0  0  0  0  0  0  0  0  0  0  0
   -0.1088    1.8194   -2.5992 H   0  0  0  0  0  0  0  0  0  0  0  0
    0.1527    0.1135   -2.2609 H   0  0  0  0  0  0  0  0  0  0  0  0
   -3.9595    0.0568   -2.4549 H   0  0  0  0  0  0  0  0  0  0  0  0
   -7.1402    0.0862    0.4463 H   0  0  0  0  0  0  0  0  0  0  0  0
   -5.4866   -0.0382    2.2774 H   0  0  0  0  0  0  0  0  0  0  0  0
    0.7607   -0.4913   -0.0853 H   0  0  0  0  0  0  0  0  0  0  0  0
    2.5104    1.5210    1.2380 H   0  0  0  0  0  0  0  0  0  0  0  0
    1.0871    0.8706    2.0626 H   0  0  0  0  0  0  0  0  0  0  0  0
    2.0106   -1.4368    1.8907 H   0  0  0  0  0  0  0  0  0  0  0  0
    3.0980   -0.3876    2.7928 H   0  0  0  0  0  0  0  0  0  0  0  0
    4.6656    0.9613    2.1517 H   0  0  0  0  0  0  0  0  0  0  0  0
    6.8958   -0.6801   -0.1231 H   0  0  0  0  0  0  0  0  0  0  0  0
  1  2  2  0
  2  3  1  0
  3  4  1  0
  4  5  1  0
  5  6  2  0
  5  7  1  0
  7  8  2  0
  8  9  1  0
  9 10  1  0
  9 11  2  0
 11 12  1  0
 12 13  2  0
 13 14  1  0
  2 15  1  0
 15 16  1  0
 16 17  1  0
 17 18  1  0
 18 19  1  0
 19 20  1  0
 19 21  2  0
 21 22  1  0
 22 23  1  0
 23 24  2  0
 13  7  1  0
 23 18  1  0
  3 25  1  0
  3 26  1  0
  8 27  1  0
 11 28  1  0
 12 29  1  0
 15 30  1  0
 16 31  1  0
 16 32  1  0
 17 33  1  0
 17 34  1  0
 20 35  1  0
 21 36  1  0
M  END
$$$$
