
     RDKit          3D

 31 32  0  0  0  0  0  0  0  0999 V2000
    2.5912   -1.5945    1.6069 C   0  0  0  0  0  0  0  0  0  0  0  0
    3.1015   -0.2394    1.1392 C   0  0  0  0  0  0  0  0  0  0  0  0
    2.8350   -0.0221   -0.2808 N   0  0  0  0  0  0  0  0  0  0  0  0
    1.6585    0.3190   -0.8816 C   0  0  0  0  0  0  0  0  0  0  0  0
    0.4633    0.7321   -0.1790 C   0  0  0  0  0  0  0  0  0  0  0  0
    0.4210    1.6721    0.8319 C   0  0  0  0  0  0  0  0  0  0  0  0
   -1.1542    1.9264    1.4428 S   0  0  0  0  0  0  0  0  0  0  0  0
   -1.8377    0.8266    0.3232 C   0  0  0  0  0  0  0  0  0  0  0  0
   -3.3287    0.5819    0.3150 C   0  0  0  0  0  0  0  0  0  0  0  0
   -3.9451    1.0035   -1.0202 C   0  0  0  0  0  0  0  0  0  0  0  0
   -3.6437   -0.8843    0.6174 C   0  0  0  0  0  0  0  0  0  0  0  0
   -0.8635    0.2766   -0.4882 C   0  0  0  0  0  0  0  0  0  0  0  0
    1.6576    0.2235   -2.1816 N   0  0  0  0  0  0  0  0  0  0  0  0
    2.9198   -0.1938   -2.4835 N   0  0  0  0  0  0  0  0  0  0  0  0
    3.6559   -0.3832   -1.3244 C   0  0  0  0  0  0  0  0  0  0  0  0
    5.2106   -0.9569   -1.3156 S   0  0  0  0  0  0  0  0  0  0  0  0
    1.5083   -1.6788    1.4709 H   0  0  0  0  0  0  0  0  0  0  0  0
    3.0612   -2.4093    1.0469 H   0  0  0  0  0  0  0  0  0  0  0  0
    2.8130   -1.7374    2.6690 H   0  0  0  0  0  0  0  0  0  0  0  0
    4.1788   -0.1741    1.3207 H   0  0  0  0  0  0  0  0  0  0  0  0
    2.6303    0.5485    1.7285 H   0  0  0  0  0  0  0  0  0  0  0  0
    1.2391    2.2455    1.2448 H   0  0  0  0  0  0  0  0  0  0  0  0
   -3.8030    1.1864    1.0996 H   0  0  0  0  0  0  0  0  0  0  0  0
   -3.5536    0.4097   -1.8537 H   0  0  0  0  0  0  0  0  0  0  0  0
   -3.7337    2.0573   -1.2340 H   0  0  0  0  0  0  0  0  0  0  0  0
   -5.0329    0.8769   -1.0008 H   0  0  0  0  0  0  0  0  0  0  0  0
   -3.2405   -1.5532   -0.1512 H   0  0  0  0  0  0  0  0  0  0  0  0
   -4.7261   -1.0449    0.6666 H   0  0  0  0  0  0  0  0  0  0  0  0
   -3.2155   -1.1866    1.5797 H   0  0  0  0  0  0  0  0  0  0  0  0
   -1.0808   -0.4367   -1.2759 H   0  0  0  0  0  0  0  0  0  0  0  0
    3.2139   -0.3907   -3.4327 H   0  0  0  0  0  0  0  0  0  0  0  0
  1  2  1  0
  2  3  1  0
  3  4  1  0
  4  5  1  0
  5  6  2  0
  6  7  1  0
  7  8  1  0
  8  9  1  0
  9 10  1  0
  9 11  1  0
  8 12  2  0
  4 13  2  0
 13 14  1  0
 14 15  1  0
 15 16  2  0
 15  3  1  0
 12  5  1  0
  1 17  1  0
  1 18  1  0
  1 19  1  0
  2 20  1  0
  2 21  1  0
  6 22  1  0
  9 23  1  0
 10 24  1  0
 10 25  1  0
 10 26  1  0
 11 27  1  0
 11 28  1  0
 11 29  1  0
 12 30  1  0
 14 31  1  0
M  END
$$$$
