
     RDKit          3D

 71 77  0  0  0  0  0  0  0  0999 V2000
    6.3537    2.0595   -1.7775 C   0  0  0  0  0  0  0  0  0  0  0  0
    6.2520    1.5956   -0.4393 O   0  0  0  0  0  0  0  0  0  0  0  0
    5.1141    0.7571   -0.2257 C   0  0  0  0  0  0  0  0  0  0  0  0
    3.7398    1.5065   -0.2364 C   0  0  0  0  0  0  0  0  0  0  0  0
    3.6878    2.7387   -0.1461 O   0  0  0  0  0  0  0  0  0  0  0  0
    2.5689    0.7592   -0.4105 N   0  0  0  0  0  0  0  0  0  0  0  0
    2.4946   -0.7017   -0.1783 C   0  0  0  0  0  0  0  0  0  0  0  0
    1.2331   -1.3864   -0.7727 C   0  0  0  0  0  0  0  0  0  0  0  0
    0.0576   -0.6110   -0.4223 N   0  0  0  0  0  0  0  0  0  0  0  0
    0.1616    0.7709   -0.9838 C   0  0  2  0  0  0  0  0  0  0  0  0
    1.2930    1.4950   -0.2659 C   0  0  0  0  0  0  0  0  0  0  0  0
   -1.2288    1.2367   -0.8017 C   0  0  0  0  0  0  0  0  0  0  0  0
   -2.0856    0.1288   -0.6885 C   0  0  0  0  0  0  0  0  0  0  0  0
   -3.3688    0.5821   -0.5456 C   0  0  0  0  0  0  0  0  0  0  0  0
   -4.4668   -0.1305   -0.2955 O   0  0  0  0  0  0  0  0  0  0  0  0
   -3.3272    1.9899   -0.6448 N   0  0  0  0  0  0  0  0  0  0  0  0
   -4.4633    2.8608   -0.6738 C   0  0  0  0  0  0  0  0  0  0  0  0
   -4.3890    4.1498   -0.1313 C   0  0  0  0  0  0  0  0  0  0  0  0
   -5.5065    4.9887   -0.1551 C   0  0  0  0  0  0  0  0  0  0  0  0
   -6.6992    4.5527   -0.7279 C   0  0  0  0  0  0  0  0  0  0  0  0
   -6.7765    3.2791   -1.2868 C   0  0  0  0  0  0  0  0  0  0  0  0
   -5.6635    2.4350   -1.2638 C   0  0  0  0  0  0  0  0  0  0  0  0
   -1.9756    2.3826   -0.7468 C   0  0  0  0  0  0  0  0  0  0  0  0
   -1.6052    3.6558   -0.8554 O   0  0  0  0  0  0  0  0  0  0  0  0
   -1.3012   -1.1329   -0.7077 C   0  0  1  0  0  0  0  0  0  0  0  0
   -1.4406   -1.9213   -2.0321 C   0  0  0  0  0  0  0  0  0  0  0  0
   -1.0964   -1.5899   -3.1573 O   0  0  0  0  0  0  0  0  0  0  0  0
   -2.0182   -3.1503   -1.7047 N   0  0  0  0  0  0  0  0  0  0  0  0
   -2.2593   -3.2621   -0.3347 C   0  0  0  0  0  0  0  0  0  0  0  0
   -1.8402   -2.0900    0.3142 C   0  0  0  0  0  0  0  0  0  0  0  0
   -1.9456   -1.9641    1.6896 C   0  0  0  0  0  0  0  0  0  0  0  0
   -2.4980   -3.0272    2.4035 C   0  0  0  0  0  0  0  0  0  0  0  0
   -2.9275   -4.1953    1.7421 C   0  0  0  0  0  0  0  0  0  0  0  0
   -3.6048   -5.4528    2.7205 Cl  0  0  0  0  0  0  0  0  0  0  0  0
   -2.8106   -4.3411    0.3460 C   0  0  0  0  0  0  0  0  0  0  0  0
   -3.2682   -5.5852   -0.3536 C   0  0  0  0  0  0  0  0  0  0  0  0
    5.3677    0.0616    1.1045 C   0  0  0  0  0  0  0  0  0  0  0  0
    5.2133    0.7478    2.3201 C   0  0  0  0  0  0  0  0  0  0  0  0
    5.4496    0.1033    3.5354 C   0  0  0  0  0  0  0  0  0  0  0  0
    5.8551   -1.2297    3.5515 C   0  0  0  0  0  0  0  0  0  0  0  0
    6.0362   -1.9167    2.3529 C   0  0  0  0  0  0  0  0  0  0  0  0
    5.8018   -1.2739    1.1361 C   0  0  0  0  0  0  0  0  0  0  0  0
    5.4846    2.6597   -2.0592 H   0  0  0  0  0  0  0  0  0  0  0  0
    7.2446    2.6887   -1.8539 H   0  0  0  0  0  0  0  0  0  0  0  0
    6.4670    1.2174   -2.4668 H   0  0  0  0  0  0  0  0  0  0  0  0
    5.0931    0.0129   -1.0313 H   0  0  0  0  0  0  0  0  0  0  0  0
    2.5081   -0.8459    0.9090 H   0  0  0  0  0  0  0  0  0  0  0  0
    3.3773   -1.1915   -0.5945 H   0  0  0  0  0  0  0  0  0  0  0  0
    1.3470   -1.4653   -1.8605 H   0  0  0  0  0  0  0  0  0  0  0  0
    1.1675   -2.4032   -0.3702 H   0  0  0  0  0  0  0  0  0  0  0  0
    0.3747    0.7260   -2.0618 H   0  0  0  0  0  0  0  0  0  0  0  0
    1.3975    2.5086   -0.6691 H   0  0  0  0  0  0  0  0  0  0  0  0
    1.0930    1.5952    0.8091 H   0  0  0  0  0  0  0  0  0  0  0  0
   -5.1211    0.4492    0.1355 H   0  0  0  0  0  0  0  0  0  0  0  0
   -3.4819    4.5152    0.3428 H   0  0  0  0  0  0  0  0  0  0  0  0
   -5.4425    5.9850    0.2755 H   0  0  0  0  0  0  0  0  0  0  0  0
   -7.5642    5.2107   -0.7498 H   0  0  0  0  0  0  0  0  0  0  0  0
   -7.6993    2.9484   -1.7570 H   0  0  0  0  0  0  0  0  0  0  0  0
   -5.7402    1.4713   -1.7638 H   0  0  0  0  0  0  0  0  0  0  0  0
   -0.6469    3.6871   -1.0168 H   0  0  0  0  0  0  0  0  0  0  0  0
   -2.2250   -3.8460   -2.4043 H   0  0  0  0  0  0  0  0  0  0  0  0
   -1.6166   -1.0608    2.1945 H   0  0  0  0  0  0  0  0  0  0  0  0
   -2.5992   -2.9452    3.4836 H   0  0  0  0  0  0  0  0  0  0  0  0
   -3.0589   -5.5637   -1.4267 H   0  0  0  0  0  0  0  0  0  0  0  0
   -4.3495   -5.7104   -0.2356 H   0  0  0  0  0  0  0  0  0  0  0  0
   -2.7537   -6.4624    0.0520 H   0  0  0  0  0  0  0  0  0  0  0  0
    4.9199    1.7967    2.3239 H   0  0  0  0  0  0  0  0  0  0  0  0
    5.3274    0.6469    4.4690 H   0  0  0  0  0  0  0  0  0  0  0  0
    6.0445   -1.7281    4.4985 H   0  0  0  0  0  0  0  0  0  0  0  0
    6.3716   -2.9505    2.3661 H   0  0  0  0  0  0  0  0  0  0  0  0
    5.9682   -1.8213    0.2111 H   0  0  0  0  0  0  0  0  0  0  0  0
  1  2  1  0
  2  3  1  0
  3  4  1  0
  4  5  2  0
  4  6  1  0
  6  7  1  0
  7  8  1  0
  8  9  1  0
  9 10  1  0
 10 11  1  0
 10 12  1  0
 12 13  1  0
 13 14  2  0
 14 15  1  0
 14 16  1  0
 16 17  1  0
 17 18  2  0
 18 19  1  0
 19 20  2  0
 20 21  1  0
 21 22  2  0
 16 23  1  0
 23 24  1  0
 13 25  1  0
 25 26  1  0
 26 27  2  0
 26 28  1  0
 28 29  1  0
 29 30  2  0
 30 31  1  0
 31 32  2  0
 32 33  1  0
 33 34  1  0
 33 35  2  0
 35 36  1  0
  3 37  1  0
 37 38  2  0
 38 39  1  0
 39 40  2  0
 40 41  1  0
 41 42  2  0
 11  6  1  0
 23 12  2  0
 30 25  1  0
 42 37  1  0
 25  9  1  1
 35 29  1  0
 22 17  1  0
  1 43  1  0
  1 44  1  0
  1 45  1  0
  3 46  1  0
  7 47  1  0
  7 48  1  0
  8 49  1  0
  8 50  1  0
 10 51  1  6
 11 52  1  0
 11 53  1  0
 15 54  1  0
 18 55  1  0
 19 56  1  0
 20 57  1  0
 21 58  1  0
 22 59  1  0
 24 60  1  0
 28 61  1  0
 31 62  1  0
 32 63  1  0
 36 64  1  0
 36 65  1  0
 36 66  1  0
 38 67  1  0
 39 68  1  0
 40 69  1  0
 41 70  1  0
 42 71  1  0
M  END
$$$$
