
     RDKit          3D

 44 46  0  0  0  0  0  0  0  0999 V2000
   -1.4045   -2.4301    3.9465 C   0  0  0  0  0  0  0  0  0  0  0  0
   -1.4493   -2.2789    2.4545 C   0  0  0  0  0  0  0  0  0  0  0  0
   -2.3959   -1.4490    1.8538 C   0  0  0  0  0  0  0  0  0  0  0  0
   -2.4397   -1.2617    0.4581 C   0  0  0  0  0  0  0  0  0  0  0  0
   -3.5344   -0.3700   -0.0633 C   0  0  0  0  0  0  0  0  0  0  0  0
   -1.4785   -1.9177   -0.3513 C   0  0  0  0  0  0  0  0  0  0  0  0
   -1.4569   -1.6919   -2.1461 S   0  0  0  0  0  6  0  0  0  0  0  0
   -1.1438   -2.9676   -2.7564 O   0  0  0  0  0  0  0  0  0  0  0  0
   -2.6291   -0.9631   -2.5796 O   0  0  0  0  0  0  0  0  0  0  0  0
   -0.1053   -0.7026   -2.3964 N   0  0  0  0  0  0  0  0  0  0  0  0
   -0.0132    0.5304   -1.6957 C   0  0  0  0  0  0  0  0  0  0  0  0
   -0.8421    1.5964   -2.0400 C   0  0  0  0  0  0  0  0  0  0  0  0
   -0.7749    2.7926   -1.3249 C   0  0  0  0  0  0  0  0  0  0  0  0
    0.1221    2.9128   -0.2623 C   0  0  0  0  0  0  0  0  0  0  0  0
    0.1775    4.0850    0.4421 O   0  0  0  0  0  0  0  0  0  0  0  0
    0.9602    1.8457    0.0922 C   0  0  0  0  0  0  0  0  0  0  0  0
    2.1050    1.9465    1.4598 S   0  0  0  0  0  0  0  0  0  0  0  0
    3.4757    2.7443    0.7284 C   0  0  0  0  0  0  0  0  0  0  0  0
    4.3603    3.4930    1.4634 N   0  0  0  0  0  0  0  0  0  0  0  0
    5.2355    3.8867    0.5702 C   0  0  0  0  0  0  0  0  0  0  0  0
    4.9003    3.3797   -0.6433 N   0  0  0  0  0  0  0  0  0  0  0  0
    3.7940    2.6253   -0.5681 N   0  0  0  0  0  0  0  0  0  0  0  0
    0.8816    0.6491   -0.6322 C   0  0  0  0  0  0  0  0  0  0  0  0
   -0.5089   -2.7654    0.2502 C   0  0  0  0  0  0  0  0  0  0  0  0
    0.5239   -3.5532   -0.5133 C   0  0  0  0  0  0  0  0  0  0  0  0
   -0.5135   -2.9260    1.6487 C   0  0  0  0  0  0  0  0  0  0  0  0
   -2.4011   -2.3056    4.3836 H   0  0  0  0  0  0  0  0  0  0  0  0
   -1.0499   -3.4279    4.2270 H   0  0  0  0  0  0  0  0  0  0  0  0
   -0.7331   -1.6807    4.3779 H   0  0  0  0  0  0  0  0  0  0  0  0
   -3.1202   -0.9384    2.4883 H   0  0  0  0  0  0  0  0  0  0  0  0
   -3.1214    0.4817   -0.6078 H   0  0  0  0  0  0  0  0  0  0  0  0
   -4.1326    0.0520    0.7525 H   0  0  0  0  0  0  0  0  0  0  0  0
   -4.2264   -0.9394   -0.6909 H   0  0  0  0  0  0  0  0  0  0  0  0
    0.7497   -1.2376   -2.5310 H   0  0  0  0  0  0  0  0  0  0  0  0
   -1.5434    1.5013   -2.8663 H   0  0  0  0  0  0  0  0  0  0  0  0
   -1.4289    3.6119   -1.6071 H   0  0  0  0  0  0  0  0  0  0  0  0
   -0.4561    4.7170    0.0665 H   0  0  0  0  0  0  0  0  0  0  0  0
    6.0995    4.5128    0.7398 H   0  0  0  0  0  0  0  0  0  0  0  0
    5.3668    3.4921   -1.5361 H   0  0  0  0  0  0  0  0  0  0  0  0
    1.5201   -0.1860   -0.3588 H   0  0  0  0  0  0  0  0  0  0  0  0
    0.0542   -4.3933   -1.0330 H   0  0  0  0  0  0  0  0  0  0  0  0
    1.0693   -2.9246   -1.2196 H   0  0  0  0  0  0  0  0  0  0  0  0
    1.2809   -3.9738    0.1587 H   0  0  0  0  0  0  0  0  0  0  0  0
    0.2265   -3.5714    2.1210 H   0  0  0  0  0  0  0  0  0  0  0  0
  1  2  1  0
  2  3  2  0
  3  4  1  0
  4  5  1  0
  4  6  2  0
  6  7  1  0
  7  8  2  0
  7  9  2  0
  7 10  1  0
 10 11  1  0
 11 12  2  0
 12 13  1  0
 13 14  2  0
 14 15  1  0
 14 16  1  0
 16 17  1  0
 17 18  1  0
 18 19  1  0
 19 20  2  0
 20 21  1  0
 21 22  1  0
 16 23  2  0
  6 24  1  0
 24 25  1  0
 24 26  2  0
 26  2  1  0
 23 11  1  0
 22 18  2  0
  1 27  1  0
  1 28  1  0
  1 29  1  0
  3 30  1  0
  5 31  1  0
  5 32  1  0
  5 33  1  0
 10 34  1  0
 12 35  1  0
 13 36  1  0
 15 37  1  0
 20 38  1  0
 21 39  1  0
 23 40  1  0
 25 41  1  0
 25 42  1  0
 25 43  1  0
 26 44  1  0
M  END
$$$$
