
     RDKit          3D

 43 45  0  0  0  0  0  0  0  0999 V2000
   -0.5765   -3.5936    0.7327 C   0  0  0  0  0  0  0  0  0  0  0  0
   -0.6436   -2.2074    0.1673 C   0  0  0  0  0  0  0  0  0  0  0  0
    0.5145   -1.5267   -0.1369 C   0  0  0  0  0  0  0  0  0  0  0  0
    0.3746   -0.2598   -0.6655 C   0  0  0  0  0  0  0  0  0  0  0  0
    1.5028    0.5387   -0.9774 N   0  0  0  0  0  0  0  0  0  0  0  0
    2.5538   -0.0971   -1.5729 N   0  0  0  0  0  0  0  0  0  0  0  0
    3.6922   -0.0427   -0.9458 C   0  0  0  0  0  0  0  0  0  0  0  0
    4.0095    0.6860    0.3008 C   0  0  0  0  0  0  0  0  0  0  0  0
    3.7066    2.0499    0.3949 C   0  0  0  0  0  0  0  0  0  0  0  0
    4.0675    2.7750    1.5349 C   0  0  0  0  0  0  0  0  0  0  0  0
    4.7466    2.1508    2.5829 C   0  0  0  0  0  0  0  0  0  0  0  0
    5.0665    0.7961    2.4977 C   0  0  0  0  0  0  0  0  0  0  0  0
    4.6933    0.0741    1.3547 C   0  0  0  0  0  0  0  0  0  0  0  0
    5.0142   -1.3395    1.3113 N   0  0  0  0  0  4  0  0  0  0  0  0
    6.1821   -1.6581    1.5699 O   0  0  0  0  0  0  0  0  0  0  0  0
    4.1005   -2.1267    1.0340 O   0  0  0  0  0  1  0  0  0  0  0  0
   -0.8252    0.3075   -0.8548 N   0  0  0  0  0  0  0  0  0  0  0  0
   -1.9177   -0.4201   -0.5340 C   0  0  0  0  0  0  0  0  0  0  0  0
   -3.2145    0.1846   -0.7460 N   0  0  0  0  0  0  0  0  0  0  0  0
   -3.3201    1.4557   -1.2480 N   0  0  0  0  0  0  0  0  0  0  0  0
   -4.6289    1.7018   -1.3187 C   0  0  0  0  0  0  0  0  0  0  0  0
   -5.1121    3.0067   -1.8296 C   0  0  0  0  0  0  0  0  0  0  0  0
   -5.3917    0.6113   -0.8669 C   0  0  0  0  0  0  0  0  0  0  0  0
   -4.4775   -0.3550   -0.5017 C   0  0  0  0  0  0  0  0  0  0  0  0
   -4.7236   -1.7136    0.0440 C   0  0  0  0  0  0  0  0  0  0  0  0
   -1.8642   -1.6710   -0.0242 N   0  0  0  0  0  0  0  0  0  0  0  0
   -1.5811   -3.9846    0.9246 H   0  0  0  0  0  0  0  0  0  0  0  0
   -0.0780   -4.2662    0.0278 H   0  0  0  0  0  0  0  0  0  0  0  0
   -0.0259   -3.5908    1.6786 H   0  0  0  0  0  0  0  0  0  0  0  0
    1.4903   -1.9664    0.0223 H   0  0  0  0  0  0  0  0  0  0  0  0
    1.0867    1.2988   -1.5254 H   0  0  0  0  0  0  0  0  0  0  0  0
    4.5239   -0.6205   -1.3858 H   0  0  0  0  0  0  0  0  0  0  0  0
    3.1983    2.5602   -0.4207 H   0  0  0  0  0  0  0  0  0  0  0  0
    3.8217    3.8334    1.6017 H   0  0  0  0  0  0  0  0  0  0  0  0
    5.0259    2.7234    3.4652 H   0  0  0  0  0  0  0  0  0  0  0  0
    5.5957    0.3149    3.3180 H   0  0  0  0  0  0  0  0  0  0  0  0
   -4.7771    3.1638   -2.8598 H   0  0  0  0  0  0  0  0  0  0  0  0
   -6.2056    3.0547   -1.8182 H   0  0  0  0  0  0  0  0  0  0  0  0
   -4.7311    3.8262   -1.2118 H   0  0  0  0  0  0  0  0  0  0  0  0
   -6.4689    0.5341   -0.8132 H   0  0  0  0  0  0  0  0  0  0  0  0
   -4.2870   -1.8229    1.0415 H   0  0  0  0  0  0  0  0  0  0  0  0
   -4.3183   -2.4843   -0.6189 H   0  0  0  0  0  0  0  0  0  0  0  0
   -5.7989   -1.9004    0.1387 H   0  0  0  0  0  0  0  0  0  0  0  0
  1  2  1  0
  2  3  2  0
  3  4  1  0
  4  5  1  0
  5  6  1  0
  6  7  2  3
  7  8  1  0
  8  9  2  0
  9 10  1  0
 10 11  2  0
 11 12  1  0
 12 13  2  0
 13 14  1  0
 14 15  2  0
 14 16  1  0
  4 17  2  0
 17 18  1  0
 18 19  1  0
 19 20  1  0
 20 21  2  0
 21 22  1  0
 21 23  1  0
 23 24  2  0
 24 25  1  0
 18 26  2  0
 26  2  1  0
 13  8  1  0
 24 19  1  0
  1 27  1  0
  1 28  1  0
  1 29  1  0
  3 30  1  0
  5 31  1  0
  7 32  1  0
  9 33  1  0
 10 34  1  0
 11 35  1  0
 12 36  1  0
 22 37  1  0
 22 38  1  0
 22 39  1  0
 23 40  1  0
 25 41  1  0
 25 42  1  0
 25 43  1  0
M  CHG  2  14   1  16  -1
M  END
$$$$
