
     RDKit          3D

 40 41  0  0  0  0  0  0  0  0999 V2000
   -4.9128   -4.0709   -1.5388 C   0  0  0  0  0  0  0  0  0  0  0  0
   -3.8636   -3.5640   -2.5122 C   0  0  0  0  0  0  0  0  0  0  0  0
   -3.1777   -2.4779   -1.8899 O   0  0  0  0  0  0  0  0  0  0  0  0
   -2.2371   -1.8720   -2.6951 C   0  0  0  0  0  0  0  0  0  0  0  0
   -1.9376   -2.4530   -3.8859 N   0  0  0  0  0  0  0  0  0  0  0  0
   -0.9744   -1.8730   -4.6346 C   0  0  0  0  0  0  0  0  0  0  0  0
   -0.2822   -0.7371   -4.2522 C   0  0  0  0  0  0  0  0  0  0  0  0
   -0.5987   -0.1564   -3.0277 C   0  0  0  0  0  0  0  0  0  0  0  0
   -1.5949   -0.7305   -2.2272 C   0  0  0  0  0  0  0  0  0  0  0  0
   -1.9684   -0.1213   -0.9355 C   0  0  0  0  0  0  0  0  0  0  0  0
   -3.0995   -0.0400   -0.4906 O   0  0  0  0  0  0  0  0  0  0  0  0
   -0.8434    0.3378   -0.3315 O   0  0  0  0  0  0  0  0  0  0  0  0
   -1.0836    0.9398    0.9425 C   0  0  0  0  0  0  0  0  0  0  0  0
    0.2405    1.4295    1.4718 C   0  0  0  0  0  0  0  0  0  0  0  0
    1.1337    0.5355    2.0791 C   0  0  0  0  0  0  0  0  0  0  0  0
    2.3722    0.9784    2.5535 C   0  0  0  0  0  0  0  0  0  0  0  0
    2.7374    2.3238    2.4195 C   0  0  0  0  0  0  0  0  0  0  0  0
    4.0429    2.8508    2.9030 C   0  0  0  0  0  0  0  0  0  0  0  0
    4.3874    4.0157    2.7792 O   0  0  0  0  0  0  0  0  0  0  0  0
    4.7715    1.8666    3.4871 O   0  0  0  0  0  0  0  0  0  0  0  0
    6.0402    2.2996    3.9798 C   0  0  0  0  0  0  0  0  0  0  0  0
    1.8512    3.2171    1.8036 C   0  0  0  0  0  0  0  0  0  0  0  0
    0.6136    2.7725    1.3301 C   0  0  0  0  0  0  0  0  0  0  0  0
   -5.4701   -4.9086   -1.9673 H   0  0  0  0  0  0  0  0  0  0  0  0
   -5.6168   -3.2727   -1.2808 H   0  0  0  0  0  0  0  0  0  0  0  0
   -4.4454   -4.3981   -0.6041 H   0  0  0  0  0  0  0  0  0  0  0  0
   -3.1641   -4.3775   -2.7386 H   0  0  0  0  0  0  0  0  0  0  0  0
   -4.3606   -3.2297   -3.4310 H   0  0  0  0  0  0  0  0  0  0  0  0
   -0.7654   -2.3641   -5.5813 H   0  0  0  0  0  0  0  0  0  0  0  0
    0.4838   -0.3128   -4.8923 H   0  0  0  0  0  0  0  0  0  0  0  0
   -0.0746    0.7401   -2.7058 H   0  0  0  0  0  0  0  0  0  0  0  0
   -1.7846    1.7775    0.8414 H   0  0  0  0  0  0  0  0  0  0  0  0
   -1.5112    0.2050    1.6359 H   0  0  0  0  0  0  0  0  0  0  0  0
    0.8694   -0.5156    2.1819 H   0  0  0  0  0  0  0  0  0  0  0  0
    3.0417    0.2608    3.0213 H   0  0  0  0  0  0  0  0  0  0  0  0
    6.5416    1.4373    4.4279 H   0  0  0  0  0  0  0  0  0  0  0  0
    6.6620    2.6746    3.1608 H   0  0  0  0  0  0  0  0  0  0  0  0
    5.9112    3.0648    4.7516 H   0  0  0  0  0  0  0  0  0  0  0  0
    2.1222    4.2651    1.6873 H   0  0  0  0  0  0  0  0  0  0  0  0
   -0.0557    3.4828    0.8486 H   0  0  0  0  0  0  0  0  0  0  0  0
  1  2  1  0
  2  3  1  0
  3  4  1  0
  4  5  2  0
  5  6  1  0
  6  7  2  0
  7  8  1  0
  8  9  2  0
  9 10  1  0
 10 11  2  0
 10 12  1  0
 12 13  1  0
 13 14  1  0
 14 15  2  0
 15 16  1  0
 16 17  2  0
 17 18  1  0
 18 19  2  0
 18 20  1  0
 20 21  1  0
 17 22  1  0
 22 23  2  0
  9  4  1  0
 23 14  1  0
  1 24  1  0
  1 25  1  0
  1 26  1  0
  2 27  1  0
  2 28  1  0
  6 29  1  0
  7 30  1  0
  8 31  1  0
 13 32  1  0
 13 33  1  0
 15 34  1  0
 16 35  1  0
 21 36  1  0
 21 37  1  0
 21 38  1  0
 22 39  1  0
 23 40  1  0
M  END
$$$$
