
     RDKit          3D

 57 59  0  0  0  0  0  0  0  0999 V2000
    5.6473   -0.3455    3.3628 C   0  0  0  0  0  0  0  0  0  0  0  0
    4.8430   -1.3779    2.5839 C   0  0  0  0  0  0  0  0  0  0  0  0
    5.8633   -2.2453    1.3197 S   0  0  0  0  0  0  0  0  0  0  0  0
    5.8610   -1.0611   -0.0709 C   0  0  0  0  0  0  0  0  0  0  0  0
    6.7472    0.1400    0.1241 C   0  0  0  0  0  0  0  0  0  0  0  0
    8.1370   -0.0031    0.2563 C   0  0  0  0  0  0  0  0  0  0  0  0
    8.9547    1.1168    0.4174 C   0  0  0  0  0  0  0  0  0  0  0  0
    8.3946    2.3921    0.4417 C   0  0  0  0  0  0  0  0  0  0  0  0
    7.0171    2.5493    0.3037 C   0  0  0  0  0  0  0  0  0  0  0  0
    6.1977    1.4307    0.1419 C   0  0  0  0  0  0  0  0  0  0  0  0
    3.5529   -0.8087    1.9837 C   0  0  0  0  0  0  0  0  0  0  0  0
    3.2866    0.3910    2.0125 O   0  0  0  0  0  0  0  0  0  0  0  0
    2.7420   -1.8058    1.4361 N   0  0  0  0  0  0  0  0  0  0  0  0
    1.4648   -1.6486    0.9675 N   0  0  0  0  0  0  0  0  0  0  0  0
    1.1339   -0.5208    0.4231 C   0  0  0  0  0  0  0  0  0  0  0  0
   -0.2407   -0.2700   -0.0594 C   0  0  0  0  0  0  0  0  0  0  0  0
   -1.2313   -1.2475    0.0445 C   0  0  0  0  0  0  0  0  0  0  0  0
   -2.5195   -0.9788   -0.4242 C   0  0  0  0  0  0  0  0  0  0  0  0
   -2.8278    0.2600   -0.9948 C   0  0  0  0  0  0  0  0  0  0  0  0
   -4.1237    0.3872   -1.4110 O   0  0  0  0  0  0  0  0  0  0  0  0
   -4.5014    1.6381   -1.9811 C   0  0  0  0  0  0  0  0  0  0  0  0
   -5.9764    1.6271   -2.3819 C   0  0  0  0  0  0  0  0  0  0  0  0
   -6.4512    2.4604   -3.1501 O   0  0  0  0  0  0  0  0  0  0  0  0
   -6.7251    0.6429   -1.7818 N   0  0  0  0  0  0  0  0  0  0  0  0
   -8.0885    0.3994   -2.1817 C   0  0  0  0  0  0  0  0  0  0  0  0
   -8.7044   -0.5396   -1.2158 C   0  0  0  0  0  0  0  0  0  0  0  0
   -9.7140   -0.4152   -0.2838 C   0  0  0  0  0  0  0  0  0  0  0  0
   -9.8396   -1.6796    0.3406 C   0  0  0  0  0  0  0  0  0  0  0  0
   -8.9000   -2.4931   -0.2471 C   0  0  0  0  0  0  0  0  0  0  0  0
   -8.2039   -1.8107   -1.1921 O   0  0  0  0  0  0  0  0  0  0  0  0
   -1.8330    1.2349   -1.0949 C   0  0  0  0  0  0  0  0  0  0  0  0
   -0.5398    0.9710   -0.6276 C   0  0  0  0  0  0  0  0  0  0  0  0
    5.9079    0.5296    2.7655 H   0  0  0  0  0  0  0  0  0  0  0  0
    5.0568    0.0249    4.2089 H   0  0  0  0  0  0  0  0  0  0  0  0
    6.5675   -0.7765    3.7714 H   0  0  0  0  0  0  0  0  0  0  0  0
    4.5408   -2.1510    3.3016 H   0  0  0  0  0  0  0  0  0  0  0  0
    4.8358   -0.7683   -0.3178 H   0  0  0  0  0  0  0  0  0  0  0  0
    6.2253   -1.6038   -0.9516 H   0  0  0  0  0  0  0  0  0  0  0  0
    8.5911   -0.9919    0.2365 H   0  0  0  0  0  0  0  0  0  0  0  0
   10.0292    0.9928    0.5235 H   0  0  0  0  0  0  0  0  0  0  0  0
    9.0313    3.2636    0.5689 H   0  0  0  0  0  0  0  0  0  0  0  0
    6.5785    3.5435    0.3259 H   0  0  0  0  0  0  0  0  0  0  0  0
    5.1230    1.5751    0.0455 H   0  0  0  0  0  0  0  0  0  0  0  0
    2.9833   -2.7731    1.6391 H   0  0  0  0  0  0  0  0  0  0  0  0
    1.8514    0.2995    0.2563 H   0  0  0  0  0  0  0  0  0  0  0  0
   -1.0109   -2.2161    0.4863 H   0  0  0  0  0  0  0  0  0  0  0  0
   -3.2885   -1.7437   -0.3421 H   0  0  0  0  0  0  0  0  0  0  0  0
   -3.9208    1.8241   -2.8920 H   0  0  0  0  0  0  0  0  0  0  0  0
   -4.3703    2.4482   -1.2547 H   0  0  0  0  0  0  0  0  0  0  0  0
   -6.2094   -0.1292   -1.3693 H   0  0  0  0  0  0  0  0  0  0  0  0
   -8.0801   -0.0283   -3.1899 H   0  0  0  0  0  0  0  0  0  0  0  0
   -8.6316    1.3497   -2.2173 H   0  0  0  0  0  0  0  0  0  0  0  0
  -10.2860    0.4797   -0.0815 H   0  0  0  0  0  0  0  0  0  0  0  0
  -10.5290   -1.9639    1.1230 H   0  0  0  0  0  0  0  0  0  0  0  0
   -8.6154   -3.5274   -0.1131 H   0  0  0  0  0  0  0  0  0  0  0  0
   -2.0257    2.2105   -1.5299 H   0  0  0  0  0  0  0  0  0  0  0  0
    0.2228    1.7420   -0.7094 H   0  0  0  0  0  0  0  0  0  0  0  0
  1  2  1  0
  2  3  1  0
  3  4  1  0
  4  5  1  0
  5  6  2  0
  6  7  1  0
  7  8  2  0
  8  9  1  0
  9 10  2  0
  2 11  1  0
 11 12  2  0
 11 13  1  0
 13 14  1  0
 14 15  2  3
 15 16  1  0
 16 17  2  0
 17 18  1  0
 18 19  2  0
 19 20  1  0
 20 21  1  0
 21 22  1  0
 22 23  2  0
 22 24  1  0
 24 25  1  0
 25 26  1  0
 26 27  2  0
 27 28  1  0
 28 29  2  0
 29 30  1  0
 19 31  1  0
 31 32  2  0
 10  5  1  0
 32 16  1  0
 30 26  1  0
  1 33  1  0
  1 34  1  0
  1 35  1  0
  2 36  1  0
  4 37  1  0
  4 38  1  0
  6 39  1  0
  7 40  1  0
  8 41  1  0
  9 42  1  0
 10 43  1  0
 13 44  1  0
 15 45  1  0
 17 46  1  0
 18 47  1  0
 21 48  1  0
 21 49  1  0
 24 50  1  0
 25 51  1  0
 25 52  1  0
 27 53  1  0
 28 54  1  0
 29 55  1  0
 31 56  1  0
 32 57  1  0
M  END
$$$$
