
     RDKit          3D

 45 44  0  0  0  0  0  0  0  0999 V2000
    6.8756   -2.9640   -0.3237 C   0  0  0  0  0  0  0  0  0  0  0  0
    5.3935   -2.6422   -0.4396 C   0  0  0  0  0  0  0  0  0  0  0  0
    4.5688   -3.4392    0.5739 C   0  0  0  0  0  0  0  0  0  0  0  0
    3.0688   -3.1870    0.4444 C   0  0  0  0  0  0  0  0  0  0  0  0
    2.6913   -1.8579    0.8659 N   0  0  0  0  0  0  0  0  0  0  0  0
    1.3946   -1.5372    1.1319 C   0  0  0  0  0  0  0  0  0  0  0  0
    0.4665   -2.3258    1.2053 O   0  0  0  0  0  0  0  0  0  0  0  0
    1.2968   -0.1939    1.2787 O   0  0  0  0  0  0  0  0  0  0  0  0
   -0.0239    0.2992    1.5501 C   0  0  0  0  0  0  0  0  0  0  0  0
   -0.8625    0.4598    0.2677 C   0  0  0  0  0  0  0  0  0  0  0  0
   -0.1314    1.2350   -0.8483 C   0  0  0  0  0  0  0  0  0  0  0  0
    0.2758    2.6530   -0.4685 C   0  0  0  0  0  0  0  0  0  0  0  0
   -2.1524    1.0683    0.5704 N   0  0  0  0  0  0  0  0  0  0  0  0
   -3.2509    0.8989   -0.2160 C   0  0  0  0  0  0  0  0  0  0  0  0
   -3.3312    0.1476   -1.1742 O   0  0  0  0  0  0  0  0  0  0  0  0
   -4.2328    1.7192    0.2297 O   0  0  0  0  0  0  0  0  0  0  0  0
   -5.4732    1.6714   -0.4996 C   0  0  0  0  0  0  0  0  0  0  0  0
   -6.5709    2.1328    0.4515 C   0  0  0  0  0  0  0  0  0  0  0  0
   -5.3884    2.5923   -1.7118 C   0  0  0  0  0  0  0  0  0  0  0  0
    7.0625   -4.0264   -0.5101 H   0  0  0  0  0  0  0  0  0  0  0  0
    7.4473   -2.3853   -1.0560 H   0  0  0  0  0  0  0  0  0  0  0  0
    7.2534   -2.7178    0.6738 H   0  0  0  0  0  0  0  0  0  0  0  0
    5.0553   -2.8717   -1.4567 H   0  0  0  0  0  0  0  0  0  0  0  0
    5.2528   -1.5669   -0.2856 H   0  0  0  0  0  0  0  0  0  0  0  0
    4.8999   -3.1982    1.5915 H   0  0  0  0  0  0  0  0  0  0  0  0
    4.7544   -4.5091    0.4189 H   0  0  0  0  0  0  0  0  0  0  0  0
    2.5212   -3.9109    1.0589 H   0  0  0  0  0  0  0  0  0  0  0  0
    2.7353   -3.3184   -0.5911 H   0  0  0  0  0  0  0  0  0  0  0  0
    3.2821   -1.0665    0.6547 H   0  0  0  0  0  0  0  0  0  0  0  0
   -0.5375   -0.3436    2.2771 H   0  0  0  0  0  0  0  0  0  0  0  0
    0.0967    1.2673    2.0498 H   0  0  0  0  0  0  0  0  0  0  0  0
   -1.0644   -0.5404   -0.1366 H   0  0  0  0  0  0  0  0  0  0  0  0
   -0.7744    1.2884   -1.7357 H   0  0  0  0  0  0  0  0  0  0  0  0
    0.7650    0.6816   -1.1526 H   0  0  0  0  0  0  0  0  0  0  0  0
    0.7424    3.1487   -1.3260 H   0  0  0  0  0  0  0  0  0  0  0  0
    1.0021    2.6567    0.3493 H   0  0  0  0  0  0  0  0  0  0  0  0
   -0.5897    3.2510   -0.1676 H   0  0  0  0  0  0  0  0  0  0  0  0
   -2.2173    1.8375    1.2226 H   0  0  0  0  0  0  0  0  0  0  0  0
   -5.6963    0.6444   -0.8136 H   0  0  0  0  0  0  0  0  0  0  0  0
   -6.6123    1.4795    1.3298 H   0  0  0  0  0  0  0  0  0  0  0  0
   -7.5504    2.1232   -0.0364 H   0  0  0  0  0  0  0  0  0  0  0  0
   -6.3719    3.1447    0.8217 H   0  0  0  0  0  0  0  0  0  0  0  0
   -5.1321    3.6139   -1.4100 H   0  0  0  0  0  0  0  0  0  0  0  0
   -6.3358    2.6148   -2.2590 H   0  0  0  0  0  0  0  0  0  0  0  0
   -4.6024    2.2625   -2.3988 H   0  0  0  0  0  0  0  0  0  0  0  0
  1  2  1  0
  2  3  1  0
  3  4  1  0
  4  5  1  0
  5  6  1  0
  6  7  2  0
  6  8  1  0
  8  9  1  0
  9 10  1  0
 10 11  1  0
 11 12  1  0
 10 13  1  0
 13 14  1  0
 14 15  2  0
 14 16  1  0
 16 17  1  0
 17 18  1  0
 17 19  1  0
  1 20  1  0
  1 21  1  0
  1 22  1  0
  2 23  1  0
  2 24  1  0
  3 25  1  0
  3 26  1  0
  4 27  1  0
  4 28  1  0
  5 29  1  0
  9 30  1  0
  9 31  1  0
 10 32  1  0
 11 33  1  0
 11 34  1  0
 12 35  1  0
 12 36  1  0
 12 37  1  0
 13 38  1  0
 17 39  1  0
 18 40  1  0
 18 41  1  0
 18 42  1  0
 19 43  1  0
 19 44  1  0
 19 45  1  0
M  END
$$$$
