
     RDKit          3D

 57 61  0  0  0  0  0  0  0  0999 V2000
    3.0737   -3.9208    3.1228 O   0  0  0  0  0  0  0  0  0  0  0  0
    2.9168   -2.8828    2.4902 C   0  0  0  0  0  0  0  0  0  0  0  0
    1.6558   -2.4072    2.1520 N   0  0  0  0  0  0  0  0  0  0  0  0
    1.4254   -1.2385    1.4279 C   0  0  0  0  0  0  0  0  0  0  0  0
   -0.0438   -0.9235    1.1990 C   0  0  0  0  0  0  0  0  0  0  0  0
   -0.2570    0.0883    0.0696 C   0  0  0  0  0  0  0  0  0  0  0  0
   -1.7437    0.3503   -0.1555 C   0  0  0  0  0  0  0  0  0  0  0  0
   -2.4917    0.5264    1.1229 N   0  0  0  0  0  0  0  0  0  0  0  0
   -3.8220   -0.5024    1.3771 S   0  0  0  0  0  6  0  0  0  0  0  0
   -4.4501   -0.1970    2.6406 O   0  0  0  0  0  0  0  0  0  0  0  0
   -3.3574   -1.8451    1.0896 O   0  0  0  0  0  0  0  0  0  0  0  0
   -4.9615   -0.0169    0.0953 C   0  0  0  0  0  0  0  0  0  0  0  0
   -5.4943   -1.0418   -0.7057 C   0  0  0  0  0  0  0  0  0  0  0  0
   -6.3823   -0.7406   -1.7359 C   0  0  0  0  0  0  0  0  0  0  0  0
   -6.7405    0.5809   -1.9746 C   0  0  0  0  0  0  0  0  0  0  0  0
   -6.2132    1.6017   -1.1809 C   0  0  0  0  0  0  0  0  0  0  0  0
   -5.3197    1.3271   -0.1230 C   0  0  0  0  0  0  0  0  0  0  0  0
   -4.7707    2.4987    0.6603 C   0  0  0  0  0  0  0  0  0  0  0  0
   -3.5724    2.9268    0.1733 F   0  0  0  0  0  0  0  0  0  0  0  0
   -5.5872    3.5935    0.5826 F   0  0  0  0  0  0  0  0  0  0  0  0
   -4.6009    2.2902    1.9875 F   0  0  0  0  0  0  0  0  0  0  0  0
   -1.6253    0.7433    2.3053 C   0  0  0  0  0  0  0  0  0  0  0  0
   -0.6840   -0.4386    2.5124 C   0  0  0  0  0  0  0  0  0  0  0  0
    2.3683   -0.4415    1.0055 N   0  0  0  0  0  0  0  0  0  0  0  0
    3.6103   -0.8880    1.3174 C   0  0  0  0  0  0  0  0  0  0  0  0
    3.9627   -2.0199    2.0125 C   0  0  0  0  0  0  0  0  0  0  0  0
    5.3155   -2.1119    2.1253 N   0  0  0  0  0  0  0  0  0  0  0  0
    5.8377   -1.0525    1.5069 N   0  0  0  0  0  0  0  0  0  0  0  0
    4.8125   -0.3214    1.0038 N   0  0  0  0  0  0  0  0  0  0  0  0
    5.0608    0.9139    0.2913 C   0  0  0  0  0  0  0  0  0  0  0  0
    5.0434    0.7042   -1.2022 C   0  0  0  0  0  0  0  0  0  0  0  0
    3.8770    0.9509   -1.9456 C   0  0  0  0  0  0  0  0  0  0  0  0
    3.8564    0.7458   -3.3277 C   0  0  0  0  0  0  0  0  0  0  0  0
    4.9993    0.2877   -3.9798 C   0  0  0  0  0  0  0  0  0  0  0  0
    6.1514    0.0342   -3.2453 C   0  0  0  0  0  0  0  0  0  0  0  0
    7.2479   -0.4100   -3.8731 F   0  0  0  0  0  0  0  0  0  0  0  0
    6.1843    0.2341   -1.8688 C   0  0  0  0  0  0  0  0  0  0  0  0
    0.8879   -2.9890    2.4568 H   0  0  0  0  0  0  0  0  0  0  0  0
   -0.5279   -1.8660    0.9072 H   0  0  0  0  0  0  0  0  0  0  0  0
    0.1951   -0.2734   -0.8622 H   0  0  0  0  0  0  0  0  0  0  0  0
    0.2506    1.0336    0.3031 H   0  0  0  0  0  0  0  0  0  0  0  0
   -1.8706    1.2561   -0.7582 H   0  0  0  0  0  0  0  0  0  0  0  0
   -2.1628   -0.4738   -0.7431 H   0  0  0  0  0  0  0  0  0  0  0  0
   -5.2267   -2.0830   -0.5304 H   0  0  0  0  0  0  0  0  0  0  0  0
   -6.7952   -1.5376   -2.3504 H   0  0  0  0  0  0  0  0  0  0  0  0
   -7.4332    0.8200   -2.7789 H   0  0  0  0  0  0  0  0  0  0  0  0
   -6.5093    2.6300   -1.3935 H   0  0  0  0  0  0  0  0  0  0  0  0
   -2.2250    0.9207    3.2041 H   0  0  0  0  0  0  0  0  0  0  0  0
   -1.0549    1.6680    2.1524 H   0  0  0  0  0  0  0  0  0  0  0  0
   -1.2365   -1.2742    2.9607 H   0  0  0  0  0  0  0  0  0  0  0  0
    0.0761   -0.1542    3.2507 H   0  0  0  0  0  0  0  0  0  0  0  0
    6.0297    1.3114    0.6159 H   0  0  0  0  0  0  0  0  0  0  0  0
    4.2993    1.6400    0.5986 H   0  0  0  0  0  0  0  0  0  0  0  0
    2.9723    1.2985   -1.4489 H   0  0  0  0  0  0  0  0  0  0  0  0
    2.9491    0.9401   -3.8941 H   0  0  0  0  0  0  0  0  0  0  0  0
    4.9998    0.1222   -5.0524 H   0  0  0  0  0  0  0  0  0  0  0  0
    7.1012    0.0130   -1.3280 H   0  0  0  0  0  0  0  0  0  0  0  0
  1  2  2  0
  2  3  1  0
  3  4  1  0
  4  5  1  0
  5  6  1  0
  6  7  1  0
  7  8  1  0
  8  9  1  0
  9 10  2  0
  9 11  2  0
  9 12  1  0
 12 13  2  0
 13 14  1  0
 14 15  2  0
 15 16  1  0
 16 17  2  0
 17 18  1  0
 18 19  1  0
 18 20  1  0
 18 21  1  0
  8 22  1  0
 22 23  1  0
  4 24  2  0
 24 25  1  0
 25 26  2  0
 26 27  1  0
 27 28  2  0
 28 29  1  0
 29 30  1  0
 30 31  1  0
 31 32  2  0
 32 33  1  0
 33 34  2  0
 34 35  1  0
 35 36  1  0
 35 37  2  0
 26  2  1  0
 37 31  1  0
 23  5  1  0
 29 25  1  0
 17 12  1  0
  3 38  1  0
  5 39  1  0
  6 40  1  0
  6 41  1  0
  7 42  1  0
  7 43  1  0
 13 44  1  0
 14 45  1  0
 15 46  1  0
 16 47  1  0
 22 48  1  0
 22 49  1  0
 23 50  1  0
 23 51  1  0
 30 52  1  0
 30 53  1  0
 32 54  1  0
 33 55  1  0
 34 56  1  0
 37 57  1  0
M  END
$$$$
