
     RDKit          3D

 51 53  0  0  0  0  0  0  0  0999 V2000
    0.6653   -2.0665    3.4909 N   0  0  0  0  0  0  0  0  0  0  0  0
    1.4434   -1.4713    2.8653 C   0  0  0  0  0  0  0  0  0  0  0  0
    2.3769   -0.7708    2.0517 C   0  0  0  0  0  0  0  0  0  0  0  0
    2.2773   -0.6225    0.7135 C   0  0  0  0  0  0  0  0  0  0  0  0
    1.2928   -1.2489   -0.0991 C   0  0  0  0  0  0  0  0  0  0  0  0
    0.7225   -2.5168   -0.0437 C   0  0  0  0  0  0  0  0  0  0  0  0
   -0.2042   -2.6279   -1.1083 C   0  0  0  0  0  0  0  0  0  0  0  0
   -0.1632   -1.4258   -1.7763 C   0  0  0  0  0  0  0  0  0  0  0  0
   -0.8918   -0.8827   -2.9512 C   0  0  0  0  0  0  0  0  0  0  0  0
   -2.3082   -1.0245   -2.7226 N   0  0  0  0  0  0  0  0  0  0  0  0
   -3.0732   -0.0038   -2.2124 C   0  0  0  0  0  0  0  0  0  0  0  0
   -2.7433    1.1676   -2.0841 O   0  0  0  0  0  0  0  0  0  0  0  0
   -4.4811   -0.4540   -1.7652 C   0  0  0  0  0  0  0  0  0  0  0  0
   -4.7838   -1.6315   -1.8799 O   0  0  0  0  0  0  0  0  0  0  0  0
   -5.2233    0.5920   -1.2613 N   0  0  0  0  0  0  0  0  0  0  0  0
   -6.5334    0.5532   -0.7519 C   0  0  0  0  0  0  0  0  0  0  0  0
   -7.0580    1.7481   -0.2425 C   0  0  0  0  0  0  0  0  0  0  0  0
   -8.3525    1.7825    0.2842 C   0  0  0  0  0  0  0  0  0  0  0  0
   -8.9806    3.2633    0.9120 Cl  0  0  0  0  0  0  0  0  0  0  0  0
   -9.1385    0.6339    0.3075 C   0  0  0  0  0  0  0  0  0  0  0  0
   -8.6167   -0.5527   -0.2011 C   0  0  0  0  0  0  0  0  0  0  0  0
   -9.5788   -1.9821   -0.1762 Cl  0  0  0  0  0  0  0  0  0  0  0  0
   -7.3209   -0.6019   -0.7266 C   0  0  0  0  0  0  0  0  0  0  0  0
    0.7582   -0.6095   -1.1963 O   0  0  0  0  0  0  0  0  0  0  0  0
    3.4473   -0.0058    2.7457 C   0  0  0  0  0  0  0  0  0  0  0  0
    3.2053    0.6882    3.7261 O   0  0  0  0  0  0  0  0  0  0  0  0
    4.6993   -0.1560    2.2090 N   0  0  0  0  0  0  0  0  0  0  0  0
    5.8430    0.5707    2.7187 C   0  0  0  0  0  0  0  0  0  0  0  0
    6.6301    1.1463    1.5793 C   0  0  0  0  0  0  0  0  0  0  0  0
    7.8129    0.5560    1.1231 C   0  0  0  0  0  0  0  0  0  0  0  0
    8.4763    1.1054    0.0277 C   0  0  0  0  0  0  0  0  0  0  0  0
    7.9293    2.2247   -0.5814 C   0  0  0  0  0  0  0  0  0  0  0  0
    6.7882    2.8195   -0.1715 N   0  0  0  0  0  0  0  0  0  0  0  0
    6.1697    2.2728    0.8995 C   0  0  0  0  0  0  0  0  0  0  0  0
    2.9532    0.0499    0.1848 H   0  0  0  0  0  0  0  0  0  0  0  0
    0.9485   -3.2882    0.6806 H   0  0  0  0  0  0  0  0  0  0  0  0
   -0.8276   -3.4770   -1.3495 H   0  0  0  0  0  0  0  0  0  0  0  0
   -0.6410    0.1691   -3.1241 H   0  0  0  0  0  0  0  0  0  0  0  0
   -0.6414   -1.4553   -3.8487 H   0  0  0  0  0  0  0  0  0  0  0  0
   -2.7127   -1.9533   -2.6581 H   0  0  0  0  0  0  0  0  0  0  0  0
   -4.7293    1.4835   -1.2508 H   0  0  0  0  0  0  0  0  0  0  0  0
   -6.4651    2.6621   -0.2470 H   0  0  0  0  0  0  0  0  0  0  0  0
  -10.1479    0.6679    0.7152 H   0  0  0  0  0  0  0  0  0  0  0  0
   -6.9556   -1.5494   -1.1141 H   0  0  0  0  0  0  0  0  0  0  0  0
    4.8671   -0.8137    1.4538 H   0  0  0  0  0  0  0  0  0  0  0  0
    6.4496   -0.1393    3.2912 H   0  0  0  0  0  0  0  0  0  0  0  0
    5.5349    1.3654    3.4074 H   0  0  0  0  0  0  0  0  0  0  0  0
    8.2224   -0.3268    1.6114 H   0  0  0  0  0  0  0  0  0  0  0  0
    9.3980    0.6708   -0.3437 H   0  0  0  0  0  0  0  0  0  0  0  0
    8.4070    2.6873   -1.4425 H   0  0  0  0  0  0  0  0  0  0  0  0
    5.2534    2.7778    1.1994 H   0  0  0  0  0  0  0  0  0  0  0  0
  1  2  3  0
  2  3  1  0
  3  4  2  3
  4  5  1  0
  5  6  2  0
  6  7  1  0
  7  8  2  0
  8  9  1  0
  9 10  1  0
 10 11  1  0
 11 12  2  0
 11 13  1  0
 13 14  2  0
 13 15  1  0
 15 16  1  0
 16 17  2  0
 17 18  1  0
 18 19  1  0
 18 20  2  0
 20 21  1  0
 21 22  1  0
 21 23  2  0
  8 24  1  0
  3 25  1  0
 25 26  2  0
 25 27  1  0
 27 28  1  0
 28 29  1  0
 29 30  2  0
 30 31  1  0
 31 32  2  0
 32 33  1  0
 33 34  2  0
 24  5  1  0
 34 29  1  0
 23 16  1  0
  4 35  1  0
  6 36  1  0
  7 37  1  0
  9 38  1  0
  9 39  1  0
 10 40  1  0
 15 41  1  0
 17 42  1  0
 20 43  1  0
 23 44  1  0
 27 45  1  0
 28 46  1  0
 28 47  1  0
 30 48  1  0
 31 49  1  0
 32 50  1  0
 34 51  1  0
M  END
$$$$
