
     RDKit          3D

 70 76  0  0  0  0  0  0  0  0999 V2000
   -6.2130   -4.1455    0.4184 C   0  0  0  0  0  0  0  0  0  0  0  0
   -4.9640   -3.4953    0.9342 C   0  0  0  0  0  0  0  0  0  0  0  0
   -4.5973   -3.5790    2.2903 C   0  0  0  0  0  0  0  0  0  0  0  0
   -5.5647   -4.4501    3.4308 Cl  0  0  0  0  0  0  0  0  0  0  0  0
   -3.4419   -2.9411    2.7813 C   0  0  0  0  0  0  0  0  0  0  0  0
   -2.6160   -2.2025    1.9325 C   0  0  0  0  0  0  0  0  0  0  0  0
   -2.9561   -2.1202    0.5897 C   0  0  0  0  0  0  0  0  0  0  0  0
   -4.1218   -2.7468    0.1186 C   0  0  0  0  0  0  0  0  0  0  0  0
   -4.2934   -2.4611   -1.2326 N   0  0  0  0  0  0  0  0  0  0  0  0
   -3.2783   -1.6424   -1.7283 C   0  0  0  0  0  0  0  0  0  0  0  0
   -3.2280   -1.2281   -2.8774 O   0  0  0  0  0  0  0  0  0  0  0  0
   -2.2888   -1.3870   -0.5493 C   0  0  1  0  0  0  0  0  0  0  0  0
   -2.1899    0.0446   -0.1906 C   0  0  0  0  0  0  0  0  0  0  0  0
   -0.9350    0.5412   -0.5372 C   0  0  0  0  0  0  0  0  0  0  0  0
   -0.8486    1.8490   -0.1505 C   0  0  0  0  0  0  0  0  0  0  0  0
    0.2291    2.6326   -0.1598 O   0  0  0  0  0  0  0  0  0  0  0  0
   -2.1172    2.2188    0.3401 N   0  0  0  0  0  0  0  0  0  0  0  0
   -2.5176    3.5399    0.7144 C   0  0  0  0  0  0  0  0  0  0  0  0
   -3.4330    3.7425    1.7543 C   0  0  0  0  0  0  0  0  0  0  0  0
   -3.8113    5.0382    2.1159 C   0  0  0  0  0  0  0  0  0  0  0  0
   -3.2901    6.1367    1.4353 C   0  0  0  0  0  0  0  0  0  0  0  0
   -2.3926    5.9428    0.3877 C   0  0  0  0  0  0  0  0  0  0  0  0
   -2.0063    4.6503    0.0249 C   0  0  0  0  0  0  0  0  0  0  0  0
   -2.9186    1.0601    0.3794 C   0  0  0  0  0  0  0  0  0  0  0  0
   -4.1671    1.0685    0.8410 O   0  0  0  0  0  0  0  0  0  0  0  0
   -0.0708   -0.4972   -1.1404 C   0  0  1  0  0  0  0  0  0  0  0  0
    1.3421   -0.5452   -0.5174 C   0  0  0  0  0  0  0  0  0  0  0  0
    2.0429   -1.8151   -0.7555 N   0  0  0  0  0  0  0  0  0  0  0  0
    3.4198   -1.9612   -0.8463 C   0  0  0  0  0  0  0  0  0  0  0  0
    3.9453   -3.0665   -0.9834 O   0  0  0  0  0  0  0  0  0  0  0  0
    4.2482   -0.6885   -0.7768 C   0  0  0  0  0  0  0  0  0  0  0  0
    5.7468   -0.9828   -0.7530 C   0  0  0  0  0  0  0  0  0  0  0  0
    6.5523    0.2928   -0.6883 C   0  0  0  0  0  0  0  0  0  0  0  0
    6.8567    0.8811    0.5465 C   0  0  0  0  0  0  0  0  0  0  0  0
    7.5754    2.0766    0.6021 C   0  0  0  0  0  0  0  0  0  0  0  0
    7.9917    2.6955   -0.5755 C   0  0  0  0  0  0  0  0  0  0  0  0
    7.6924    2.1194   -1.8086 C   0  0  0  0  0  0  0  0  0  0  0  0
    6.9737    0.9244   -1.8663 C   0  0  0  0  0  0  0  0  0  0  0  0
    1.2152   -3.0247   -0.7806 C   0  0  0  0  0  0  0  0  0  0  0  0
   -0.2076   -2.7959   -0.2358 C   0  0  0  0  0  0  0  0  0  0  0  0
   -0.9015   -1.7490   -0.9806 N   0  0  0  0  0  0  0  0  0  0  0  0
   -7.0955   -3.6469    0.8313 H   0  0  0  0  0  0  0  0  0  0  0  0
   -6.2344   -5.2064    0.6895 H   0  0  0  0  0  0  0  0  0  0  0  0
   -6.2873   -4.1018   -0.6713 H   0  0  0  0  0  0  0  0  0  0  0  0
   -3.1896   -3.0130    3.8382 H   0  0  0  0  0  0  0  0  0  0  0  0
   -1.7392   -1.6947    2.3252 H   0  0  0  0  0  0  0  0  0  0  0  0
   -5.0539   -2.7676   -1.8208 H   0  0  0  0  0  0  0  0  0  0  0  0
    0.0779    3.3830    0.4444 H   0  0  0  0  0  0  0  0  0  0  0  0
   -3.8440    2.9109    2.3201 H   0  0  0  0  0  0  0  0  0  0  0  0
   -4.5163    5.1882    2.9306 H   0  0  0  0  0  0  0  0  0  0  0  0
   -3.5943    7.1425    1.7135 H   0  0  0  0  0  0  0  0  0  0  0  0
   -2.0088    6.7986   -0.1632 H   0  0  0  0  0  0  0  0  0  0  0  0
   -1.3519    4.5328   -0.8366 H   0  0  0  0  0  0  0  0  0  0  0  0
   -4.5459    0.1804    0.7207 H   0  0  0  0  0  0  0  0  0  0  0  0
    0.0236   -0.3191   -2.2188 H   0  0  0  0  0  0  0  0  0  0  0  0
    1.9299    0.2965   -0.8953 H   0  0  0  0  0  0  0  0  0  0  0  0
    1.2905   -0.4290    0.5733 H   0  0  0  0  0  0  0  0  0  0  0  0
    3.9709   -0.1347    0.1280 H   0  0  0  0  0  0  0  0  0  0  0  0
    4.0071   -0.0753   -1.6532 H   0  0  0  0  0  0  0  0  0  0  0  0
    6.0424   -1.5561   -1.6412 H   0  0  0  0  0  0  0  0  0  0  0  0
    5.9971   -1.6183    0.1063 H   0  0  0  0  0  0  0  0  0  0  0  0
    6.5366    0.4099    1.4735 H   0  0  0  0  0  0  0  0  0  0  0  0
    7.8085    2.5263    1.5635 H   0  0  0  0  0  0  0  0  0  0  0  0
    8.5501    3.6267   -0.5324 H   0  0  0  0  0  0  0  0  0  0  0  0
    8.0174    2.6017   -2.7269 H   0  0  0  0  0  0  0  0  0  0  0  0
    6.7445    0.4877   -2.8358 H   0  0  0  0  0  0  0  0  0  0  0  0
    1.7081   -3.8092   -0.1938 H   0  0  0  0  0  0  0  0  0  0  0  0
    1.1767   -3.3694   -1.8219 H   0  0  0  0  0  0  0  0  0  0  0  0
   -0.7608   -3.7396   -0.3083 H   0  0  0  0  0  0  0  0  0  0  0  0
   -0.1204   -2.5340    0.8246 H   0  0  0  0  0  0  0  0  0  0  0  0
  1  2  1  0
  2  3  2  0
  3  4  1  0
  3  5  1  0
  5  6  2  0
  6  7  1  0
  7  8  2  0
  8  9  1  0
  9 10  1  0
 10 11  2  0
 10 12  1  0
 12 13  1  0
 13 14  1  0
 14 15  2  0
 15 16  1  0
 15 17  1  0
 17 18  1  0
 18 19  2  0
 19 20  1  0
 20 21  2  0
 21 22  1  0
 22 23  2  0
 17 24  1  0
 24 25  1  0
 14 26  1  0
 26 27  1  0
 27 28  1  0
 28 29  1  0
 29 30  2  0
 29 31  1  0
 31 32  1  0
 32 33  1  0
 33 34  2  0
 34 35  1  0
 35 36  2  0
 36 37  1  0
 37 38  2  0
 28 39  1  0
 39 40  1  0
 40 41  1  0
  8  2  1  0
 12 41  1  6
 12  7  1  0
 24 13  2  0
 41 26  1  0
 23 18  1  0
 38 33  1  0
  1 42  1  0
  1 43  1  0
  1 44  1  0
  5 45  1  0
  6 46  1  0
  9 47  1  0
 16 48  1  0
 19 49  1  0
 20 50  1  0
 21 51  1  0
 22 52  1  0
 23 53  1  0
 25 54  1  0
 26 55  1  6
 27 56  1  0
 27 57  1  0
 31 58  1  0
 31 59  1  0
 32 60  1  0
 32 61  1  0
 34 62  1  0
 35 63  1  0
 36 64  1  0
 37 65  1  0
 38 66  1  0
 39 67  1  0
 39 68  1  0
 40 69  1  0
 40 70  1  0
M  END
$$$$
