
     RDKit          3D

 42 46  0  0  0  0  0  0  0  0999 V2000
    4.9793    2.1886    0.5630 C   0  0  0  0  0  0  0  0  0  0  0  0
    5.1678    1.1463   -0.3419 C   0  0  0  0  0  0  0  0  0  0  0  0
    4.1236    0.2568   -0.6351 C   0  0  0  0  0  0  0  0  0  0  0  0
    4.3054   -0.7904   -1.5437 C   0  0  0  0  0  0  0  0  0  0  0  0
    3.2613   -1.6690   -1.8309 C   0  0  0  0  0  0  0  0  0  0  0  0
    2.0111   -1.5237   -1.2160 C   0  0  0  0  0  0  0  0  0  0  0  0
    0.9730   -2.4077   -1.5142 C   0  0  0  0  0  0  0  0  0  0  0  0
   -0.2683   -2.2661   -0.9033 C   0  0  0  0  0  0  0  0  0  0  0  0
   -0.5105   -1.2381    0.0269 C   0  0  0  0  0  0  0  0  0  0  0  0
   -1.9031   -1.1844    0.6377 C   0  0  0  0  0  0  0  0  0  0  0  0
   -2.9501   -0.8346   -0.3365 N   0  0  0  0  0  0  0  0  0  0  0  0
   -4.3057   -1.0016    0.2284 C   0  0  0  0  0  0  0  0  0  0  0  0
   -4.9489    0.3187    0.6797 C   0  0  0  0  0  0  0  0  0  0  0  0
   -5.0782    1.2750   -0.3805 O   0  0  0  0  0  0  0  0  0  0  0  0
   -4.0867    1.1157   -1.4060 C   0  0  0  0  0  0  0  0  0  0  0  0
   -2.7704    0.5358   -0.8678 C   0  0  0  0  0  0  0  0  0  0  0  0
    0.5301   -0.3176    0.3415 C   0  0  0  0  0  0  0  0  0  0  0  0
    0.3891    0.7576    1.2465 C   0  0  0  0  0  0  0  0  0  0  0  0
    1.4405    1.6356    1.5260 C   0  0  0  0  0  0  0  0  0  0  0  0
    2.6827    1.4784    0.9104 C   0  0  0  0  0  0  0  0  0  0  0  0
    3.7440    2.3540    1.1852 C   0  0  0  0  0  0  0  0  0  0  0  0
    2.8656    0.4189   -0.0047 C   0  0  0  0  0  0  0  0  0  0  0  0
    1.7954   -0.4741   -0.2894 C   0  0  0  0  0  0  0  0  0  0  0  0
    5.7951    2.8723    0.7827 H   0  0  0  0  0  0  0  0  0  0  0  0
    6.1389    1.0331   -0.8187 H   0  0  0  0  0  0  0  0  0  0  0  0
    5.2630   -0.9326   -2.0393 H   0  0  0  0  0  0  0  0  0  0  0  0
    3.4352   -2.4721   -2.5439 H   0  0  0  0  0  0  0  0  0  0  0  0
    1.1174   -3.2152   -2.2282 H   0  0  0  0  0  0  0  0  0  0  0  0
   -1.0662   -2.9615   -1.1597 H   0  0  0  0  0  0  0  0  0  0  0  0
   -2.0991   -2.1931    1.0289 H   0  0  0  0  0  0  0  0  0  0  0  0
   -1.9538   -0.5322    1.5142 H   0  0  0  0  0  0  0  0  0  0  0  0
   -4.9287   -1.4323   -0.5658 H   0  0  0  0  0  0  0  0  0  0  0  0
   -4.3177   -1.7262    1.0511 H   0  0  0  0  0  0  0  0  0  0  0  0
   -5.9529    0.1316    1.0741 H   0  0  0  0  0  0  0  0  0  0  0  0
   -4.3645    0.7790    1.4849 H   0  0  0  0  0  0  0  0  0  0  0  0
   -3.9113    2.1026   -1.8461 H   0  0  0  0  0  0  0  0  0  0  0  0
   -4.5046    0.4778   -2.1938 H   0  0  0  0  0  0  0  0  0  0  0  0
   -2.4083    1.2082   -0.0796 H   0  0  0  0  0  0  0  0  0  0  0  0
   -2.0272    0.5206   -1.6723 H   0  0  0  0  0  0  0  0  0  0  0  0
   -0.5505    0.9459    1.7567 H   0  0  0  0  0  0  0  0  0  0  0  0
    1.2732    2.4462    2.2320 H   0  0  0  0  0  0  0  0  0  0  0  0
    3.6148    3.1739    1.8882 H   0  0  0  0  0  0  0  0  0  0  0  0
  1  2  2  0
  2  3  1  0
  3  4  2  0
  4  5  1  0
  5  6  2  0
  6  7  1  0
  7  8  2  0
  8  9  1  0
  9 10  1  0
 10 11  1  0
 11 12  1  0
 12 13  1  0
 13 14  1  0
 14 15  1  0
 15 16  1  0
  9 17  2  0
 17 18  1  0
 18 19  2  0
 19 20  1  0
 20 21  2  0
 20 22  1  0
 22 23  2  0
 21  1  1  0
 22  3  1  0
 23  6  1  0
 16 11  1  0
 23 17  1  0
  1 24  1  0
  2 25  1  0
  4 26  1  0
  5 27  1  0
  7 28  1  0
  8 29  1  0
 10 30  1  0
 10 31  1  0
 12 32  1  0
 12 33  1  0
 13 34  1  0
 13 35  1  0
 15 36  1  0
 15 37  1  0
 16 38  1  0
 16 39  1  0
 18 40  1  0
 19 41  1  0
 21 42  1  0
M  END
$$$$
