
     RDKit          3D

 39 41  0  0  0  0  0  0  0  0999 V2000
   -2.5817    1.2496   -2.3207 C   0  0  0  0  0  0  0  0  0  0  0  0
   -2.0374    0.2567   -1.4549 O   0  0  0  0  0  0  0  0  0  0  0  0
   -2.9314   -0.3758   -0.6211 C   0  0  0  0  0  0  0  0  0  0  0  0
   -4.2957   -0.5170   -0.8910 C   0  0  0  0  0  0  0  0  0  0  0  0
   -5.1341   -1.1990    0.0031 C   0  0  0  0  0  0  0  0  0  0  0  0
   -6.6004   -1.3252   -0.2940 C   0  0  0  0  0  0  0  0  0  0  0  0
   -4.5929   -1.7399    1.1757 C   0  0  0  0  0  0  0  0  0  0  0  0
   -3.2308   -1.6139    1.4485 C   0  0  0  0  0  0  0  0  0  0  0  0
   -2.4051   -0.9233    0.5599 C   0  0  0  0  0  0  0  0  0  0  0  0
   -1.0572   -0.7912    0.7695 O   0  0  0  0  0  0  0  0  0  0  0  0
   -0.7197   -0.3733    2.1019 C   0  0  0  0  0  0  0  0  0  0  0  0
    0.6321    0.3428    2.0911 C   0  0  0  0  0  0  0  0  0  0  0  0
    0.9779    1.0565    3.0339 O   0  0  0  0  0  0  0  0  0  0  0  0
    1.3798    0.0234    0.9800 N   0  0  0  0  0  0  0  0  0  0  0  0
    2.6206    0.5364    0.7436 C   0  0  0  0  0  0  0  0  0  0  0  0
    3.3061    1.4421    1.3955 N   0  0  0  0  0  0  0  0  0  0  0  0
    4.5565    1.6409    0.8295 N   0  0  0  0  0  0  0  0  0  0  0  0
    4.7460    0.8649   -0.2171 C   0  0  0  0  0  0  0  0  0  0  0  0
    6.1088    0.7966   -0.9706 C   0  0  0  0  0  0  0  0  0  0  0  0
    7.2917    0.2004   -0.2388 C   0  0  0  0  0  0  0  0  0  0  0  0
    7.2722    1.6661   -0.5590 C   0  0  0  0  0  0  0  0  0  0  0  0
    3.3988   -0.1012   -0.6430 S   0  0  0  0  0  0  0  0  0  0  0  0
   -1.7471    1.8331   -2.7297 H   0  0  0  0  0  0  0  0  0  0  0  0
   -3.2332    1.9358   -1.7753 H   0  0  0  0  0  0  0  0  0  0  0  0
   -3.1083    0.7818   -3.1567 H   0  0  0  0  0  0  0  0  0  0  0  0
   -4.7273   -0.1183   -1.8038 H   0  0  0  0  0  0  0  0  0  0  0  0
   -7.0902   -2.0208    0.3973 H   0  0  0  0  0  0  0  0  0  0  0  0
   -6.7544   -1.7077   -1.3088 H   0  0  0  0  0  0  0  0  0  0  0  0
   -7.0883   -0.3508   -0.1965 H   0  0  0  0  0  0  0  0  0  0  0  0
   -5.2255   -2.2746    1.8796 H   0  0  0  0  0  0  0  0  0  0  0  0
   -2.8303   -2.0720    2.3505 H   0  0  0  0  0  0  0  0  0  0  0  0
   -1.4673    0.3232    2.5177 H   0  0  0  0  0  0  0  0  0  0  0  0
   -0.6127   -1.2607    2.7463 H   0  0  0  0  0  0  0  0  0  0  0  0
    0.9760   -0.5928    0.2860 H   0  0  0  0  0  0  0  0  0  0  0  0
    6.0164    0.5640   -2.0129 H   0  0  0  0  0  0  0  0  0  0  0  0
    7.9670   -0.4363   -0.7991 H   0  0  0  0  0  0  0  0  0  0  0  0
    7.1413   -0.1189    0.7933 H   0  0  0  0  0  0  0  0  0  0  0  0
    7.1365    2.3715    0.2541 H   0  0  0  0  0  0  0  0  0  0  0  0
    7.9434    2.0271   -1.3366 H   0  0  0  0  0  0  0  0  0  0  0  0
  1  2  1  0
  2  3  1  0
  3  4  2  0
  4  5  1  0
  5  6  1  0
  5  7  2  0
  7  8  1  0
  8  9  2  0
  9 10  1  0
 10 11  1  0
 11 12  1  0
 12 13  2  0
 12 14  1  0
 14 15  1  0
 15 16  2  0
 16 17  1  0
 17 18  2  0
 18 19  1  0
 19 20  1  0
 20 21  1  0
 18 22  1  0
  9  3  1  0
 22 15  1  0
 21 19  1  0
  1 23  1  0
  1 24  1  0
  1 25  1  0
  4 26  1  0
  6 27  1  0
  6 28  1  0
  6 29  1  0
  7 30  1  0
  8 31  1  0
 11 32  1  0
 11 33  1  0
 14 34  1  0
 19 35  1  0
 20 36  1  0
 20 37  1  0
 21 38  1  0
 21 39  1  0
M  END
$$$$
