
     RDKit          3D

 33 34  0  0  0  0  0  0  0  0999 V2000
   -6.2703    0.3909    0.1317 C   0  0  0  0  0  0  0  0  0  0  0  0
   -4.8570    0.7350   -0.3031 C   0  0  0  0  0  0  0  0  0  0  0  0
   -4.0315   -0.4020   -0.0553 O   0  0  0  0  0  0  0  0  0  0  0  0
   -2.7092   -0.2954   -0.3854 C   0  0  0  0  0  0  0  0  0  0  0  0
   -1.9524   -1.4437   -0.1343 C   0  0  0  0  0  0  0  0  0  0  0  0
   -0.5845   -1.4781   -0.4223 C   0  0  0  0  0  0  0  0  0  0  0  0
    0.0419   -0.3494   -0.9606 C   0  0  0  0  0  0  0  0  0  0  0  0
    1.4949   -0.3279   -1.2892 C   0  0  0  0  0  0  0  0  0  0  0  0
    1.9208    0.4416   -2.1435 O   0  0  0  0  0  0  0  0  0  0  0  0
    2.2988   -1.1796   -0.5632 N   0  0  0  0  0  0  0  0  0  0  0  0
    3.7392   -1.1223   -0.6770 C   0  0  0  0  0  0  0  0  0  0  0  0
    4.2580   -0.2261    0.3845 C   0  0  0  0  0  0  0  0  0  0  0  0
    4.5354    1.1246    0.4288 C   0  0  0  0  0  0  0  0  0  0  0  0
    4.9981    1.3942    1.7386 C   0  0  0  0  0  0  0  0  0  0  0  0
    4.9693    0.1945    2.4100 C   0  0  0  0  0  0  0  0  0  0  0  0
    4.5173   -0.7959    1.5979 O   0  0  0  0  0  0  0  0  0  0  0  0
   -0.7182    0.7961   -1.2265 C   0  0  0  0  0  0  0  0  0  0  0  0
   -2.0873    0.8250   -0.9361 C   0  0  0  0  0  0  0  0  0  0  0  0
   -6.6428   -0.4783   -0.4206 H   0  0  0  0  0  0  0  0  0  0  0  0
   -6.2934    0.1272    1.1943 H   0  0  0  0  0  0  0  0  0  0  0  0
   -6.9465    1.2335   -0.0379 H   0  0  0  0  0  0  0  0  0  0  0  0
   -4.5038    1.5952    0.2772 H   0  0  0  0  0  0  0  0  0  0  0  0
   -4.8606    0.9769   -1.3722 H   0  0  0  0  0  0  0  0  0  0  0  0
   -2.4374   -2.3239    0.2820 H   0  0  0  0  0  0  0  0  0  0  0  0
   -0.0367   -2.3985   -0.2444 H   0  0  0  0  0  0  0  0  0  0  0  0
    1.9400   -1.5770    0.2936 H   0  0  0  0  0  0  0  0  0  0  0  0
    4.0356   -0.7689   -1.6695 H   0  0  0  0  0  0  0  0  0  0  0  0
    4.1199   -2.1398   -0.5436 H   0  0  0  0  0  0  0  0  0  0  0  0
    4.4077    1.8222   -0.3882 H   0  0  0  0  0  0  0  0  0  0  0  0
    5.3102    2.3458    2.1450 H   0  0  0  0  0  0  0  0  0  0  0  0
    5.2227   -0.1062    3.4170 H   0  0  0  0  0  0  0  0  0  0  0  0
   -0.2440    1.6747   -1.6605 H   0  0  0  0  0  0  0  0  0  0  0  0
   -2.6341    1.7360   -1.1556 H   0  0  0  0  0  0  0  0  0  0  0  0
  1  2  1  0
  2  3  1  0
  3  4  1  0
  4  5  2  0
  5  6  1  0
  6  7  2  0
  7  8  1  0
  8  9  2  0
  8 10  1  0
 10 11  1  0
 11 12  1  0
 12 13  2  0
 13 14  1  0
 14 15  2  0
 15 16  1  0
  7 17  1  0
 17 18  2  0
 18  4  1  0
 16 12  1  0
  1 19  1  0
  1 20  1  0
  1 21  1  0
  2 22  1  0
  2 23  1  0
  5 24  1  0
  6 25  1  0
 10 26  1  0
 11 27  1  0
 11 28  1  0
 13 29  1  0
 14 30  1  0
 15 31  1  0
 17 32  1  0
 18 33  1  0
M  END
$$$$
