
     RDKit          3D

 39 40  0  0  0  0  0  0  0  0999 V2000
   -1.8194    0.0803   -2.7623 C   0  0  0  0  0  0  0  0  0  0  0  0
   -2.5020    0.0800   -1.4092 C   0  0  0  0  0  0  0  0  0  0  0  0
   -1.8307    0.2713   -0.2550 C   0  0  0  0  0  0  0  0  0  0  0  0
   -0.3455    0.4049   -0.1692 C   0  0  0  0  0  0  0  0  0  0  0  0
    0.4830   -0.2212   -0.9476 N   0  0  0  0  0  0  0  0  0  0  0  0
    1.8264   -0.0599   -0.7132 N   0  0  0  0  0  0  0  0  0  0  0  0
    2.3976   -0.0864    0.5554 C   0  0  0  0  0  0  0  0  0  0  0  0
    1.7809   -0.1662    1.6158 O   0  0  0  0  0  0  0  0  0  0  0  0
    3.8869   -0.0758    0.6078 C   0  0  0  0  0  0  0  0  0  0  0  0
    4.6520    0.4530   -0.4424 C   0  0  0  0  0  0  0  0  0  0  0  0
    6.0464    0.4332   -0.3622 C   0  0  0  0  0  0  0  0  0  0  0  0
    7.0721    1.1423   -1.7841 Br  0  0  0  0  0  0  0  0  0  0  0  0
    6.6911   -0.0986    0.7531 C   0  0  0  0  0  0  0  0  0  0  0  0
    5.9351   -0.6048    1.8095 C   0  0  0  0  0  0  0  0  0  0  0  0
    4.5430   -0.5834    1.7411 C   0  0  0  0  0  0  0  0  0  0  0  0
    3.8810   -1.0815    2.8316 O   0  0  0  0  0  0  0  0  0  0  0  0
   -2.5994    0.4128    1.0060 C   0  0  0  0  0  0  0  0  0  0  0  0
   -2.0335    0.8032    2.0266 O   0  0  0  0  0  0  0  0  0  0  0  0
   -3.9421    0.1081    0.9573 N   0  0  0  0  0  0  0  0  0  0  0  0
   -4.7007    0.1813    2.1920 C   0  0  0  0  0  0  0  0  0  0  0  0
   -4.6494   -0.0755   -0.2186 C   0  0  0  0  0  0  0  0  0  0  0  0
   -5.8770   -0.1877   -0.2237 O   0  0  0  0  0  0  0  0  0  0  0  0
   -3.8914   -0.1031   -1.3920 N   0  0  0  0  0  0  0  0  0  0  0  0
   -4.6253   -0.3373   -2.6358 C   0  0  0  0  0  0  0  0  0  0  0  0
   -2.4141    0.6103   -3.5133 H   0  0  0  0  0  0  0  0  0  0  0  0
   -0.8637    0.6099   -2.7633 H   0  0  0  0  0  0  0  0  0  0  0  0
   -1.6545   -0.9456   -3.1066 H   0  0  0  0  0  0  0  0  0  0  0  0
    0.0027    1.0818    0.6314 H   0  0  0  0  0  0  0  0  0  0  0  0
    2.3982   -0.3926   -1.4845 H   0  0  0  0  0  0  0  0  0  0  0  0
    4.1796    0.9035   -1.3104 H   0  0  0  0  0  0  0  0  0  0  0  0
    7.7763   -0.1145    0.8162 H   0  0  0  0  0  0  0  0  0  0  0  0
    6.4273   -1.0096    2.6905 H   0  0  0  0  0  0  0  0  0  0  0  0
    2.9243   -0.8688    2.7345 H   0  0  0  0  0  0  0  0  0  0  0  0
   -5.1073    1.1933    2.2876 H   0  0  0  0  0  0  0  0  0  0  0  0
   -4.0692   -0.0324    3.0593 H   0  0  0  0  0  0  0  0  0  0  0  0
   -5.5298   -0.5328    2.1786 H   0  0  0  0  0  0  0  0  0  0  0  0
   -5.6515   -0.6702   -2.4562 H   0  0  0  0  0  0  0  0  0  0  0  0
   -4.1302   -1.1185   -3.2209 H   0  0  0  0  0  0  0  0  0  0  0  0
   -4.6678    0.5972   -3.2037 H   0  0  0  0  0  0  0  0  0  0  0  0
  1  2  1  0
  2  3  2  0
  3  4  1  0
  4  5  2  3
  5  6  1  0
  6  7  1  0
  7  8  2  0
  7  9  1  0
  9 10  2  0
 10 11  1  0
 11 12  1  0
 11 13  2  0
 13 14  1  0
 14 15  2  0
 15 16  1  0
  3 17  1  0
 17 18  2  0
 17 19  1  0
 19 20  1  0
 19 21  1  0
 21 22  2  0
 21 23  1  0
 23 24  1  0
 23  2  1  0
 15  9  1  0
  1 25  1  0
  1 26  1  0
  1 27  1  0
  4 28  1  0
  6 29  1  0
 10 30  1  0
 13 31  1  0
 14 32  1  0
 16 33  1  0
 20 34  1  0
 20 35  1  0
 20 36  1  0
 24 37  1  0
 24 38  1  0
 24 39  1  0
M  END
$$$$
