
     RDKit          3D

 69 75  0  0  0  0  0  0  0  0999 V2000
   -3.5457    5.4431    0.9388 C   0  0  0  0  0  0  0  0  0  0  0  0
   -3.1404    4.2341    0.1477 C   0  0  0  0  0  0  0  0  0  0  0  0
   -3.4230    4.1245   -1.2271 C   0  0  0  0  0  0  0  0  0  0  0  0
   -4.2317    5.3963   -2.0820 Cl  0  0  0  0  0  0  0  0  0  0  0  0
   -3.0728    2.9759   -1.9636 C   0  0  0  0  0  0  0  0  0  0  0  0
   -2.4179    1.9057   -1.3515 C   0  0  0  0  0  0  0  0  0  0  0  0
   -2.1083    2.0081   -0.0020 C   0  0  0  0  0  0  0  0  0  0  0  0
   -2.4873    3.1496    0.7250 C   0  0  0  0  0  0  0  0  0  0  0  0
   -2.1349    2.9923    2.0638 N   0  0  0  0  0  0  0  0  0  0  0  0
   -1.5352    1.7555    2.3027 C   0  0  0  0  0  0  0  0  0  0  0  0
   -1.1706    1.3685    3.4056 O   0  0  0  0  0  0  0  0  0  0  0  0
   -1.4217    1.0350    0.9268 C   0  0  1  0  0  0  0  0  0  0  0  0
   -2.1410   -0.2526    0.8814 C   0  0  0  0  0  0  0  0  0  0  0  0
   -1.2578   -1.3218    0.7458 C   0  0  0  0  0  0  0  0  0  0  0  0
   -1.9723   -2.4913    0.7654 C   0  0  0  0  0  0  0  0  0  0  0  0
   -1.5555   -3.7501    0.6634 O   0  0  0  0  0  0  0  0  0  0  0  0
   -3.3356   -2.1442    0.8497 N   0  0  0  0  0  0  0  0  0  0  0  0
   -4.4501   -3.0390    0.7611 C   0  0  0  0  0  0  0  0  0  0  0  0
   -4.3537   -4.3577    1.2235 C   0  0  0  0  0  0  0  0  0  0  0  0
   -5.4491   -5.2228    1.1229 C   0  0  0  0  0  0  0  0  0  0  0  0
   -6.6428   -4.7824    0.5518 C   0  0  0  0  0  0  0  0  0  0  0  0
   -6.7440   -3.4760    0.0787 C   0  0  0  0  0  0  0  0  0  0  0  0
   -5.6537   -2.6063    0.1803 C   0  0  0  0  0  0  0  0  0  0  0  0
   -3.4114   -0.7458    1.0148 C   0  0  0  0  0  0  0  0  0  0  0  0
   -4.5230   -0.0729    1.3099 O   0  0  0  0  0  0  0  0  0  0  0  0
    0.1457   -0.8577    0.6717 C   0  0  1  0  0  0  0  0  0  0  0  0
    0.9153   -1.4001   -0.5472 C   0  0  0  0  0  0  0  0  0  0  0  0
    2.1940   -0.7049   -0.7158 N   0  0  0  0  0  0  0  0  0  0  0  0
    3.3663   -1.4307   -0.6034 C   0  0  0  0  0  0  0  0  0  0  0  0
    3.3908   -2.6355   -0.3656 O   0  0  0  0  0  0  0  0  0  0  0  0
    4.5085   -0.6937   -0.7677 N   0  0  0  0  0  0  0  0  0  0  0  0
    5.7956   -1.3471   -0.7029 C   0  0  0  0  0  0  0  0  0  0  0  0
    6.8987   -0.3670   -1.0048 C   0  0  0  0  0  0  0  0  0  0  0  0
    7.4569   -0.2979   -2.2895 C   0  0  0  0  0  0  0  0  0  0  0  0
    8.4574    0.6337   -2.5788 C   0  0  0  0  0  0  0  0  0  0  0  0
    8.9041    1.5101   -1.5893 C   0  0  0  0  0  0  0  0  0  0  0  0
    8.3505    1.4551   -0.3102 C   0  0  0  0  0  0  0  0  0  0  0  0
    7.3498    0.5239   -0.0192 C   0  0  0  0  0  0  0  0  0  0  0  0
    2.1394    0.7606   -0.6002 C   0  0  0  0  0  0  0  0  0  0  0  0
    0.7042    1.3008   -0.4248 C   0  0  0  0  0  0  0  0  0  0  0  0
    0.0083    0.6481    0.6826 N   0  0  0  0  0  0  0  0  0  0  0  0
   -3.0967    6.3483    0.5157 H   0  0  0  0  0  0  0  0  0  0  0  0
   -3.2186    5.3897    1.9800 H   0  0  0  0  0  0  0  0  0  0  0  0
   -4.6349    5.5451    0.9454 H   0  0  0  0  0  0  0  0  0  0  0  0
   -3.3266    2.9092   -3.0195 H   0  0  0  0  0  0  0  0  0  0  0  0
   -2.1770    1.0103   -1.9161 H   0  0  0  0  0  0  0  0  0  0  0  0
   -2.3336    3.6337    2.8160 H   0  0  0  0  0  0  0  0  0  0  0  0
   -0.5805   -3.7562    0.6701 H   0  0  0  0  0  0  0  0  0  0  0  0
   -3.4474   -4.7308    1.6935 H   0  0  0  0  0  0  0  0  0  0  0  0
   -5.3653   -6.2427    1.4904 H   0  0  0  0  0  0  0  0  0  0  0  0
   -7.4890   -5.4615    0.4651 H   0  0  0  0  0  0  0  0  0  0  0  0
   -7.6664   -3.1388   -0.3883 H   0  0  0  0  0  0  0  0  0  0  0  0
   -5.7484   -1.6141   -0.2568 H   0  0  0  0  0  0  0  0  0  0  0  0
   -5.1614   -0.6896    1.7137 H   0  0  0  0  0  0  0  0  0  0  0  0
    0.6780   -1.1361    1.5904 H   0  0  0  0  0  0  0  0  0  0  0  0
    0.3437   -1.2548   -1.4761 H   0  0  0  0  0  0  0  0  0  0  0  0
    1.0635   -2.4834   -0.4450 H   0  0  0  0  0  0  0  0  0  0  0  0
    4.4375    0.0610   -1.4307 H   0  0  0  0  0  0  0  0  0  0  0  0
    5.8067   -2.1816   -1.4156 H   0  0  0  0  0  0  0  0  0  0  0  0
    5.9263   -1.7790    0.2978 H   0  0  0  0  0  0  0  0  0  0  0  0
    7.1162   -0.9740   -3.0712 H   0  0  0  0  0  0  0  0  0  0  0  0
    8.8873    0.6769   -3.5762 H   0  0  0  0  0  0  0  0  0  0  0  0
    9.6829    2.2372   -1.8160 H   0  0  0  0  0  0  0  0  0  0  0  0
    8.6956    2.1401    0.4611 H   0  0  0  0  0  0  0  0  0  0  0  0
    6.9194    0.4958    0.9803 H   0  0  0  0  0  0  0  0  0  0  0  0
    2.5846    1.1897   -1.5055 H   0  0  0  0  0  0  0  0  0  0  0  0
    2.7602    1.0619    0.2532 H   0  0  0  0  0  0  0  0  0  0  0  0
    0.7601    2.3807   -0.2495 H   0  0  0  0  0  0  0  0  0  0  0  0
    0.1776    1.1398   -1.3702 H   0  0  0  0  0  0  0  0  0  0  0  0
  1  2  1  0
  2  3  2  0
  3  4  1  0
  3  5  1  0
  5  6  2  0
  6  7  1  0
  7  8  2  0
  8  9  1  0
  9 10  1  0
 10 11  2  0
 10 12  1  0
 12 13  1  0
 13 14  1  0
 14 15  2  0
 15 16  1  0
 15 17  1  0
 17 18  1  0
 18 19  2  0
 19 20  1  0
 20 21  2  0
 21 22  1  0
 22 23  2  0
 17 24  1  0
 24 25  1  0
 14 26  1  0
 26 27  1  0
 27 28  1  0
 28 29  1  0
 29 30  2  0
 29 31  1  0
 31 32  1  0
 32 33  1  0
 33 34  2  0
 34 35  1  0
 35 36  2  0
 36 37  1  0
 37 38  2  0
 28 39  1  0
 39 40  1  0
 40 41  1  0
  8  2  1  0
 12 41  1  6
 12  7  1  0
 24 13  2  0
 41 26  1  0
 23 18  1  0
 38 33  1  0
  1 42  1  0
  1 43  1  0
  1 44  1  0
  5 45  1  0
  6 46  1  0
  9 47  1  0
 16 48  1  0
 19 49  1  0
 20 50  1  0
 21 51  1  0
 22 52  1  0
 23 53  1  0
 25 54  1  0
 26 55  1  1
 27 56  1  0
 27 57  1  0
 31 58  1  0
 32 59  1  0
 32 60  1  0
 34 61  1  0
 35 62  1  0
 36 63  1  0
 37 64  1  0
 38 65  1  0
 39 66  1  0
 39 67  1  0
 40 68  1  0
 40 69  1  0
M  END
$$$$
