
     RDKit          3D

 72 77  0  0  0  0  0  0  0  0999 V2000
   -6.5387   -1.2658   -2.8823 C   0  0  0  0  0  0  0  0  0  0  0  0
   -7.1177   -0.6788   -1.6300 C   0  0  0  0  0  0  0  0  0  0  0  0
   -8.2386    0.1491   -1.6936 C   0  0  0  0  0  0  0  0  0  0  0  0
   -8.7545    0.7279   -0.5338 C   0  0  0  0  0  0  0  0  0  0  0  0
   -8.1658    0.4923    0.7191 C   0  0  0  0  0  0  0  0  0  0  0  0
   -8.7523    1.1800    1.9224 C   0  0  0  0  0  0  0  0  0  0  0  0
   -7.0222   -0.3297    0.7956 C   0  0  0  0  0  0  0  0  0  0  0  0
   -6.2952   -0.6066    2.0943 C   0  0  0  0  0  0  0  0  0  0  0  0
   -5.3290    0.4268    2.4048 N   0  0  0  0  0  0  0  0  0  0  0  0
   -5.6189    1.4063    3.2977 N   0  0  0  0  0  0  0  0  0  0  0  0
   -4.5526    2.2011    3.3898 N   0  0  0  0  0  0  0  0  0  0  0  0
   -3.5916    1.6834    2.5772 C   0  0  0  0  0  0  0  0  0  0  0  0
   -2.2544    2.1314    2.2967 C   0  0  0  0  0  0  0  0  0  0  0  0
   -1.7238    3.1304    2.7666 O   0  0  0  0  0  0  0  0  0  0  0  0
   -1.6021    1.2862    1.4067 N   0  0  0  0  0  0  0  0  0  0  0  0
   -2.1635    0.1426    0.8526 C   0  0  0  0  0  0  0  0  0  0  0  0
   -1.2844   -0.6693   -0.0964 C   0  0  0  0  0  0  0  0  0  0  0  0
   -0.7383    0.1899   -1.2477 C   0  0  0  0  0  0  0  0  0  0  0  0
    0.7541    0.4872   -1.1164 C   0  0  0  0  0  0  0  0  0  0  0  0
    1.0627    0.7270    0.3098 N   0  0  0  0  0  0  0  0  0  0  0  0
    2.3874    1.7593    0.6469 S   0  0  0  0  0  6  0  0  0  0  0  0
    2.4983    1.8543    2.0856 O   0  0  0  0  0  0  0  0  0  0  0  0
    2.2413    2.9378   -0.1786 O   0  0  0  0  0  0  0  0  0  0  0  0
    3.7995    0.8543    0.0474 C   0  0  0  0  0  0  0  0  0  0  0  0
    4.1752    0.9750   -1.2968 C   0  0  0  0  0  0  0  0  0  0  0  0
    5.2984    0.2905   -1.7643 C   0  0  0  0  0  0  0  0  0  0  0  0
    6.0522   -0.4838   -0.8755 C   0  0  0  0  0  0  0  0  0  0  0  0
    7.4663   -1.3848   -1.4663 S   0  0  0  0  0  6  0  0  0  0  0  0
    7.5745   -2.5920   -0.6771 O   0  0  0  0  0  0  0  0  0  0  0  0
    7.4053   -1.4178   -2.9115 O   0  0  0  0  0  0  0  0  0  0  0  0
    8.7207   -0.3087   -1.0679 N   0  0  0  0  0  0  0  0  0  0  0  0
    9.8601   -0.9185   -0.3659 C   0  0  0  0  0  0  0  0  0  0  0  0
   11.2006   -0.2409   -0.3606 C   0  0  0  0  0  0  0  0  0  0  0  0
   11.0099   -1.5232   -1.1178 C   0  0  0  0  0  0  0  0  0  0  0  0
    5.6884   -0.5906    0.4722 C   0  0  0  0  0  0  0  0  0  0  0  0
    4.5625    0.0902    0.9382 C   0  0  0  0  0  0  0  0  0  0  0  0
    0.9599   -0.4975    1.1491 C   0  0  0  0  0  0  0  0  0  0  0  0
   -0.1746   -1.4042    0.6633 C   0  0  0  0  0  0  0  0  0  0  0  0
   -3.3739   -0.2747    1.1078 N   0  0  0  0  0  0  0  0  0  0  0  0
   -4.0411    0.5398    1.9625 C   0  0  0  0  0  0  0  0  0  0  0  0
   -6.5105   -0.8996   -0.3887 C   0  0  0  0  0  0  0  0  0  0  0  0
   -5.9028   -0.5279   -3.3826 H   0  0  0  0  0  0  0  0  0  0  0  0
   -7.3353   -1.5745   -3.5681 H   0  0  0  0  0  0  0  0  0  0  0  0
   -5.9380   -2.1546   -2.6607 H   0  0  0  0  0  0  0  0  0  0  0  0
   -8.7159    0.3585   -2.6484 H   0  0  0  0  0  0  0  0  0  0  0  0
   -9.6239    1.3775   -0.6165 H   0  0  0  0  0  0  0  0  0  0  0  0
   -8.8327    0.4951    2.7708 H   0  0  0  0  0  0  0  0  0  0  0  0
   -9.7669    1.5400    1.7179 H   0  0  0  0  0  0  0  0  0  0  0  0
   -8.1398    2.0425    2.1994 H   0  0  0  0  0  0  0  0  0  0  0  0
   -5.7537   -1.5592    2.0408 H   0  0  0  0  0  0  0  0  0  0  0  0
   -6.9872   -0.7020    2.9371 H   0  0  0  0  0  0  0  0  0  0  0  0
   -0.6559    1.5631    1.1662 H   0  0  0  0  0  0  0  0  0  0  0  0
   -1.9440   -1.4298   -0.5380 H   0  0  0  0  0  0  0  0  0  0  0  0
   -0.8999   -0.3278   -2.2018 H   0  0  0  0  0  0  0  0  0  0  0  0
   -1.2949    1.1326   -1.3230 H   0  0  0  0  0  0  0  0  0  0  0  0
    0.9910    1.3573   -1.7360 H   0  0  0  0  0  0  0  0  0  0  0  0
    1.3464   -0.3571   -1.4884 H   0  0  0  0  0  0  0  0  0  0  0  0
    3.6065    1.6024   -1.9804 H   0  0  0  0  0  0  0  0  0  0  0  0
    5.5830    0.3733   -2.8117 H   0  0  0  0  0  0  0  0  0  0  0  0
    9.0039    0.1755   -1.9242 H   0  0  0  0  0  0  0  0  0  0  0  0
    9.5628   -1.3981    0.5659 H   0  0  0  0  0  0  0  0  0  0  0  0
   11.7685   -0.2669    0.5642 H   0  0  0  0  0  0  0  0  0  0  0  0
   11.3231    0.6750   -0.9275 H   0  0  0  0  0  0  0  0  0  0  0  0
   11.4517   -2.4277   -0.7163 H   0  0  0  0  0  0  0  0  0  0  0  0
   11.0039   -1.4820   -2.2012 H   0  0  0  0  0  0  0  0  0  0  0  0
    6.2806   -1.1922    1.1595 H   0  0  0  0  0  0  0  0  0  0  0  0
    4.2925    0.0249    1.9911 H   0  0  0  0  0  0  0  0  0  0  0  0
    1.8963   -1.0630    1.1439 H   0  0  0  0  0  0  0  0  0  0  0  0
    0.7541   -0.1937    2.1821 H   0  0  0  0  0  0  0  0  0  0  0  0
   -0.5850   -1.9586    1.5161 H   0  0  0  0  0  0  0  0  0  0  0  0
    0.2528   -2.1599   -0.0094 H   0  0  0  0  0  0  0  0  0  0  0  0
   -5.6152   -1.5193   -0.3414 H   0  0  0  0  0  0  0  0  0  0  0  0
  1  2  1  0
  2  3  2  0
  3  4  1  0
  4  5  2  0
  5  6  1  0
  5  7  1  0
  7  8  1  0
  8  9  1  0
  9 10  1  0
 10 11  2  0
 11 12  1  0
 12 13  1  0
 13 14  2  0
 13 15  1  0
 15 16  1  0
 16 17  1  0
 17 18  1  0
 18 19  1  0
 19 20  1  0
 20 21  1  0
 21 22  2  0
 21 23  2  0
 21 24  1  0
 24 25  2  0
 25 26  1  0
 26 27  2  0
 27 28  1  0
 28 29  2  0
 28 30  2  0
 28 31  1  0
 31 32  1  0
 32 33  1  0
 33 34  1  0
 27 35  1  0
 35 36  2  0
 20 37  1  0
 37 38  1  0
 16 39  2  0
 39 40  1  0
  7 41  2  0
 41  2  1  0
 40  9  1  0
 40 12  2  0
 38 17  1  0
 36 24  1  0
 34 32  1  0
  1 42  1  0
  1 43  1  0
  1 44  1  0
  3 45  1  0
  4 46  1  0
  6 47  1  0
  6 48  1  0
  6 49  1  0
  8 50  1  0
  8 51  1  0
 15 52  1  0
 17 53  1  0
 18 54  1  0
 18 55  1  0
 19 56  1  0
 19 57  1  0
 25 58  1  0
 26 59  1  0
 31 60  1  0
 32 61  1  0
 33 62  1  0
 33 63  1  0
 34 64  1  0
 34 65  1  0
 35 66  1  0
 36 67  1  0
 37 68  1  0
 37 69  1  0
 38 70  1  0
 38 71  1  0
 41 72  1  0
M  END
$$$$
