
     RDKit          3D

 27 27  0  0  0  0  0  0  0  0999 V2000
   -0.8296    0.3217   -1.7541 C   0  0  0  0  0  0  0  0  0  0  0  0
   -1.4749    0.1867   -0.3729 C   0  0  0  0  0  0  0  0  0  0  0  0
   -2.8690   -0.4453   -0.5372 C   0  0  0  0  0  0  0  0  0  0  0  0
   -1.6339    1.5790    0.2549 C   0  0  0  0  0  0  0  0  0  0  0  0
   -0.5048   -0.9016    0.7170 S   0  0  0  0  0  6  0  0  0  0  0  0
   -1.0847   -0.8691    2.0470 O   0  0  0  0  0  0  0  0  0  0  0  0
   -0.2221   -2.1653    0.0707 O   0  0  0  0  0  0  0  0  0  0  0  0
    1.0545   -0.1606    0.9483 C   0  0  0  0  0  0  0  0  0  0  0  0
    1.2988    0.7919    1.9921 C   0  0  0  0  0  0  0  0  0  0  0  0
    2.6125    1.1972    2.0313 C   0  0  0  0  0  0  0  0  0  0  0  0
    3.5524    0.4245    0.8349 S   0  0  0  0  0  0  0  0  0  0  0  0
    2.2055   -0.4655    0.2428 C   0  0  0  0  0  0  0  0  0  0  0  0
    2.3892   -1.3450   -0.8836 C   0  0  0  0  0  0  0  0  0  0  0  0
    1.7208   -1.3958   -1.9043 O   0  0  0  0  0  0  0  0  0  0  0  0
    3.4530   -2.1617   -0.7238 O   0  0  0  0  0  0  0  0  0  0  0  0
   -0.7261   -0.6526   -2.2421 H   0  0  0  0  0  0  0  0  0  0  0  0
   -1.4387    0.9519   -2.4125 H   0  0  0  0  0  0  0  0  0  0  0  0
    0.1611    0.7818   -1.6934 H   0  0  0  0  0  0  0  0  0  0  0  0
   -3.3728   -0.5548    0.4297 H   0  0  0  0  0  0  0  0  0  0  0  0
   -3.5109    0.1677   -1.1799 H   0  0  0  0  0  0  0  0  0  0  0  0
   -2.8018   -1.4430   -0.9854 H   0  0  0  0  0  0  0  0  0  0  0  0
   -0.6741    2.0996    0.3310 H   0  0  0  0  0  0  0  0  0  0  0  0
   -2.2954    2.2093   -0.3505 H   0  0  0  0  0  0  0  0  0  0  0  0
   -2.0629    1.5222    1.2609 H   0  0  0  0  0  0  0  0  0  0  0  0
    0.5491    1.1453    2.6923 H   0  0  0  0  0  0  0  0  0  0  0  0
    3.0702    1.8994    2.7158 H   0  0  0  0  0  0  0  0  0  0  0  0
    3.4347   -2.7178   -1.5290 H   0  0  0  0  0  0  0  0  0  0  0  0
  1  2  1  0
  2  3  1  0
  2  4  1  0
  2  5  1  0
  5  6  2  0
  5  7  2  0
  5  8  1  0
  8  9  1  0
  9 10  2  0
 10 11  1  0
 11 12  1  0
 12 13  1  0
 13 14  2  0
 13 15  1  0
 12  8  2  0
  1 16  1  0
  1 17  1  0
  1 18  1  0
  3 19  1  0
  3 20  1  0
  3 21  1  0
  4 22  1  0
  4 23  1  0
  4 24  1  0
  9 25  1  0
 10 26  1  0
 15 27  1  0
M  END
$$$$
