
     RDKit          3D

 56 61  0  0  0  0  0  0  0  0999 V2000
    8.0719    2.6104   -1.5839 C   0  0  0  0  0  0  0  0  0  0  0  0
    8.4455    1.2539   -1.3612 O   0  0  0  0  0  0  0  0  0  0  0  0
    7.4734    0.4142   -0.8903 C   0  0  0  0  0  0  0  0  0  0  0  0
    7.8701   -0.9141   -0.7501 C   0  0  0  0  0  0  0  0  0  0  0  0
    6.9719   -1.8706   -0.2802 C   0  0  0  0  0  0  0  0  0  0  0  0
    5.6623   -1.5006    0.0560 C   0  0  0  0  0  0  0  0  0  0  0  0
    4.7455   -2.4540    0.5272 C   0  0  0  0  0  0  0  0  0  0  0  0
    3.4538   -2.0118    0.8383 C   0  0  0  0  0  0  0  0  0  0  0  0
    2.2578   -2.5958    1.3198 C   0  0  0  0  0  0  0  0  0  0  0  0
    1.3135   -1.5838    1.3957 C   0  0  0  0  0  0  0  0  0  0  0  0
   -0.0673   -1.6479    1.8520 C   0  0  0  0  0  0  0  0  0  0  0  0
   -0.4758   -2.6536    2.4385 O   0  0  0  0  0  0  0  0  0  0  0  0
   -0.9320   -0.5737    1.6265 N   0  0  0  0  0  0  0  0  0  0  0  0
   -0.6624    0.5643    0.7380 C   0  0  0  0  0  0  0  0  0  0  0  0
   -1.9533    1.2565    0.2570 C   0  0  0  0  0  0  0  0  0  0  0  0
   -2.8018    1.7117    1.3642 N   0  0  0  0  0  0  0  0  0  0  0  0
   -4.0983    2.2610    0.9616 C   0  0  0  0  0  0  0  0  0  0  0  0
   -5.0766    1.2927    0.3247 C   0  0  0  0  0  0  0  0  0  0  0  0
   -6.0080    0.5803    1.1174 C   0  0  0  0  0  0  0  0  0  0  0  0
   -6.9128   -0.3193    0.5412 C   0  0  0  0  0  0  0  0  0  0  0  0
   -6.8706   -0.4847   -0.8257 C   0  0  0  0  0  0  0  0  0  0  0  0
   -5.9795    0.2080   -1.6093 C   0  0  0  0  0  0  0  0  0  0  0  0
   -5.0780    1.1024   -1.0694 C   0  0  0  0  0  0  0  0  0  0  0  0
   -6.1036   -0.0953   -2.9301 O   0  0  0  0  0  0  0  0  0  0  0  0
   -7.1746   -1.0623   -2.8867 C   0  0  0  0  0  0  0  0  0  0  0  0
   -7.6686   -1.3118   -1.5534 O   0  0  0  0  0  0  0  0  0  0  0  0
   -2.8318    0.7832    2.5033 C   0  0  0  0  0  0  0  0  0  0  0  0
   -2.2747   -0.6222    2.2101 C   0  0  0  0  0  0  0  0  0  0  0  0
    1.8896   -0.4035    1.0122 O   0  0  0  0  0  0  0  0  0  0  0  0
    3.1781   -0.6627    0.6625 C   0  0  0  0  0  0  0  0  0  0  0  0
    4.0161    0.2858    0.2168 N   0  0  0  0  0  0  0  0  0  0  0  0
    5.2467   -0.1523   -0.0794 C   0  0  0  0  0  0  0  0  0  0  0  0
    6.1675    0.7760   -0.5507 C   0  0  0  0  0  0  0  0  0  0  0  0
    7.2698    2.6817   -2.3274 H   0  0  0  0  0  0  0  0  0  0  0  0
    7.7883    3.0992   -0.6467 H   0  0  0  0  0  0  0  0  0  0  0  0
    8.9449    3.1351   -1.9828 H   0  0  0  0  0  0  0  0  0  0  0  0
    8.8842   -1.2061   -1.0119 H   0  0  0  0  0  0  0  0  0  0  0  0
    7.3019   -2.9030   -0.1830 H   0  0  0  0  0  0  0  0  0  0  0  0
    5.0171   -3.4991    0.6460 H   0  0  0  0  0  0  0  0  0  0  0  0
    2.0830   -3.6302    1.5833 H   0  0  0  0  0  0  0  0  0  0  0  0
   -0.1076    0.2174   -0.1395 H   0  0  0  0  0  0  0  0  0  0  0  0
   -0.0401    1.2754    1.2937 H   0  0  0  0  0  0  0  0  0  0  0  0
   -2.4873    0.5387   -0.3754 H   0  0  0  0  0  0  0  0  0  0  0  0
   -1.6820    2.1116   -0.3723 H   0  0  0  0  0  0  0  0  0  0  0  0
   -4.5781    2.7296    1.8315 H   0  0  0  0  0  0  0  0  0  0  0  0
   -3.9322    3.0971    0.2685 H   0  0  0  0  0  0  0  0  0  0  0  0
   -6.0365    0.7329    2.1951 H   0  0  0  0  0  0  0  0  0  0  0  0
   -7.6256   -0.8662    1.1481 H   0  0  0  0  0  0  0  0  0  0  0  0
   -4.3896    1.6384   -1.7145 H   0  0  0  0  0  0  0  0  0  0  0  0
   -8.0026   -0.6953   -3.5059 H   0  0  0  0  0  0  0  0  0  0  0  0
   -6.8122   -2.0083   -3.3092 H   0  0  0  0  0  0  0  0  0  0  0  0
   -2.2081    1.2326    3.2877 H   0  0  0  0  0  0  0  0  0  0  0  0
   -3.8290    0.6916    2.9450 H   0  0  0  0  0  0  0  0  0  0  0  0
   -2.2586   -1.2047    3.1381 H   0  0  0  0  0  0  0  0  0  0  0  0
   -2.9215   -1.1520    1.4996 H   0  0  0  0  0  0  0  0  0  0  0  0
    5.8277    1.8032   -0.6455 H   0  0  0  0  0  0  0  0  0  0  0  0
  1  2  1  0
  2  3  1  0
  3  4  2  0
  4  5  1  0
  5  6  2  0
  6  7  1  0
  7  8  2  0
  8  9  1  0
  9 10  2  0
 10 11  1  0
 11 12  2  0
 11 13  1  0
 13 14  1  0
 14 15  1  0
 15 16  1  0
 16 17  1  0
 17 18  1  0
 18 19  2  0
 19 20  1  0
 20 21  2  0
 21 22  1  0
 22 23  2  0
 22 24  1  0
 24 25  1  0
 25 26  1  0
 16 27  1  0
 27 28  1  0
 10 29  1  0
 29 30  1  0
 30 31  2  0
 31 32  1  0
 32 33  2  0
 33  3  1  0
 32  6  1  0
 30  8  1  0
 28 13  1  0
 23 18  1  0
 26 21  1  0
  1 34  1  0
  1 35  1  0
  1 36  1  0
  4 37  1  0
  5 38  1  0
  7 39  1  0
  9 40  1  0
 14 41  1  0
 14 42  1  0
 15 43  1  0
 15 44  1  0
 17 45  1  0
 17 46  1  0
 19 47  1  0
 20 48  1  0
 23 49  1  0
 25 50  1  0
 25 51  1  0
 27 52  1  0
 27 53  1  0
 28 54  1  0
 28 55  1  0
 33 56  1  0
M  END
$$$$
