
     RDKit          3D

 44 46  0  0  0  0  0  0  0  0999 V2000
    5.4219    1.5608   -2.4096 C   0  0  0  0  0  0  0  0  0  0  0  0
    6.2846    1.4416   -1.2879 O   0  0  0  0  0  0  0  0  0  0  0  0
    5.8008    0.7909   -0.1835 C   0  0  0  0  0  0  0  0  0  0  0  0
    4.5503    0.1698   -0.1014 C   0  0  0  0  0  0  0  0  0  0  0  0
    4.1458   -0.4672    1.0822 C   0  0  0  0  0  0  0  0  0  0  0  0
    2.8420   -1.1328    1.1783 C   0  0  0  0  0  0  0  0  0  0  0  0
    1.6461   -0.5306    1.1282 C   0  0  0  0  0  0  0  0  0  0  0  0
    1.3075    1.1532    0.9567 S   0  0  0  0  0  0  0  0  0  0  0  0
   -0.4377    0.9129    0.9955 C   0  0  0  0  0  0  0  0  0  0  0  0
   -1.5411    2.1559    0.8864 S   0  0  0  0  0  0  0  0  0  0  0  0
   -0.6891   -0.4325    1.1555 N   0  0  0  0  0  0  0  0  0  0  0  0
   -2.0924   -1.0168    1.1133 N   0  0  0  0  0  0  0  0  0  0  0  0
   -2.5351   -1.5570   -0.4512 S   0  0  0  0  0  6  0  0  0  0  0  0
   -2.7145   -2.9885   -0.3537 O   0  0  0  0  0  0  0  0  0  0  0  0
   -1.6246   -0.9642   -1.4089 O   0  0  0  0  0  0  0  0  0  0  0  0
   -4.1325   -0.8143   -0.6394 C   0  0  0  0  0  0  0  0  0  0  0  0
   -5.2536   -1.4529   -0.1022 C   0  0  0  0  0  0  0  0  0  0  0  0
   -6.5164   -0.8810   -0.2671 C   0  0  0  0  0  0  0  0  0  0  0  0
   -6.6666    0.3143   -0.9832 C   0  0  0  0  0  0  0  0  0  0  0  0
   -8.0199    0.9463   -1.1309 C   0  0  0  0  0  0  0  0  0  0  0  0
   -5.5331    0.9417   -1.5181 C   0  0  0  0  0  0  0  0  0  0  0  0
   -4.2676    0.3746   -1.3587 C   0  0  0  0  0  0  0  0  0  0  0  0
    0.3811   -1.3035    1.2447 C   0  0  0  0  0  0  0  0  0  0  0  0
    0.3064   -2.5116    1.4207 O   0  0  0  0  0  0  0  0  0  0  0  0
    5.0094   -0.4997    2.1819 C   0  0  0  0  0  0  0  0  0  0  0  0
    6.2605    0.1127    2.1102 C   0  0  0  0  0  0  0  0  0  0  0  0
    6.6476    0.7531    0.9333 C   0  0  0  0  0  0  0  0  0  0  0  0
    7.8753    1.3560    0.8616 O   0  0  0  0  0  0  0  0  0  0  0  0
    5.9480    2.1369   -3.1768 H   0  0  0  0  0  0  0  0  0  0  0  0
    5.1891    0.5785   -2.8332 H   0  0  0  0  0  0  0  0  0  0  0  0
    4.5088    2.1074   -2.1514 H   0  0  0  0  0  0  0  0  0  0  0  0
    3.8752    0.1649   -0.9510 H   0  0  0  0  0  0  0  0  0  0  0  0
    2.8971   -2.2124    1.3162 H   0  0  0  0  0  0  0  0  0  0  0  0
   -2.1630   -1.8363    1.7301 H   0  0  0  0  0  0  0  0  0  0  0  0
   -5.1566   -2.3904    0.4402 H   0  0  0  0  0  0  0  0  0  0  0  0
   -7.3856   -1.3762    0.1612 H   0  0  0  0  0  0  0  0  0  0  0  0
   -8.0991    1.4777   -2.0852 H   0  0  0  0  0  0  0  0  0  0  0  0
   -8.1930    1.6541   -0.3145 H   0  0  0  0  0  0  0  0  0  0  0  0
   -8.8102    0.1884   -1.1152 H   0  0  0  0  0  0  0  0  0  0  0  0
   -5.6309    1.8772   -2.0659 H   0  0  0  0  0  0  0  0  0  0  0  0
   -3.4015    0.8695   -1.7922 H   0  0  0  0  0  0  0  0  0  0  0  0
    4.7144   -0.9978    3.1029 H   0  0  0  0  0  0  0  0  0  0  0  0
    6.9165    0.0812    2.9743 H   0  0  0  0  0  0  0  0  0  0  0  0
    8.3355    1.2458    1.7075 H   0  0  0  0  0  0  0  0  0  0  0  0
  1  2  1  0
  2  3  1  0
  3  4  2  0
  4  5  1  0
  5  6  1  0
  6  7  2  3
  7  8  1  0
  8  9  1  0
  9 10  2  0
  9 11  1  0
 11 12  1  0
 12 13  1  0
 13 14  2  0
 13 15  2  0
 13 16  1  0
 16 17  2  0
 17 18  1  0
 18 19  2  0
 19 20  1  0
 19 21  1  0
 21 22  2  0
 11 23  1  0
 23 24  2  0
  5 25  2  0
 25 26  1  0
 26 27  2  0
 27 28  1  0
 27  3  1  0
 23  7  1  0
 22 16  1  0
  1 29  1  0
  1 30  1  0
  1 31  1  0
  4 32  1  0
  6 33  1  0
 12 34  1  0
 17 35  1  0
 18 36  1  0
 20 37  1  0
 20 38  1  0
 20 39  1  0
 21 40  1  0
 22 41  1  0
 25 42  1  0
 26 43  1  0
 28 44  1  0
M  END
$$$$
