
     RDKit          3D

 43 45  0  0  0  0  0  0  0  0999 V2000
   -6.0482    0.4554   -1.4814 C   0  0  0  0  0  0  0  0  0  0  0  0
   -4.9056    0.9316   -0.9682 C   0  0  0  0  0  0  0  0  0  0  0  0
   -4.3820    0.5954    0.3985 C   0  0  0  0  0  0  0  0  0  0  0  0
   -3.0148    0.0733    0.3464 N   0  0  0  0  0  0  0  0  0  0  0  0
   -1.8597    0.8166    0.5219 C   0  0  0  0  0  0  0  0  0  0  0  0
   -1.8832    2.2917    0.7450 C   0  0  0  0  0  0  0  0  0  0  0  0
   -0.7938   -0.0638    0.4310 C   0  0  0  0  0  0  0  0  0  0  0  0
    0.5751    0.3298    0.5636 C   0  0  0  0  0  0  0  0  0  0  0  0
    1.5722   -0.1070   -0.2244 C   0  0  0  0  0  0  0  0  0  0  0  0
    2.9753    0.2987   -0.0917 C   0  0  0  0  0  0  0  0  0  0  0  0
    3.3511    1.6036    0.2236 C   0  0  0  0  0  0  0  0  0  0  0  0
    4.6996    1.9330    0.3056 C   0  0  0  0  0  0  0  0  0  0  0  0
    5.6516    1.0033    0.0689 N   0  0  0  0  0  4  0  0  0  0  0  0
    7.0733    1.3728    0.1741 C   0  0  0  0  0  0  0  0  0  0  0  0
    5.3122   -0.2664   -0.2460 C   0  0  0  0  0  0  0  0  0  0  0  0
    3.9761   -0.6390   -0.3409 C   0  0  0  0  0  0  0  0  0  0  0  0
   -1.3127   -1.3767    0.2125 C   0  0  0  0  0  0  0  0  0  0  0  0
   -0.7385   -2.6618    0.0789 C   0  0  0  0  0  0  0  0  0  0  0  0
   -1.5557   -3.7750   -0.1426 C   0  0  0  0  0  0  0  0  0  0  0  0
   -2.9344   -3.6288   -0.2282 C   0  0  0  0  0  0  0  0  0  0  0  0
   -3.5314   -2.3742   -0.0838 C   0  0  0  0  0  0  0  0  0  0  0  0
   -2.7032   -1.2610    0.1453 C   0  0  0  0  0  0  0  0  0  0  0  0
   -6.3679    0.7379   -2.4806 H   0  0  0  0  0  0  0  0  0  0  0  0
   -6.6888   -0.2246   -0.9280 H   0  0  0  0  0  0  0  0  0  0  0  0
   -4.3039    1.6093   -1.5700 H   0  0  0  0  0  0  0  0  0  0  0  0
   -5.0018   -0.1491    0.9106 H   0  0  0  0  0  0  0  0  0  0  0  0
   -4.3812    1.4901    1.0289 H   0  0  0  0  0  0  0  0  0  0  0  0
   -2.2703    2.5192    1.7433 H   0  0  0  0  0  0  0  0  0  0  0  0
   -0.8831    2.7286    0.6667 H   0  0  0  0  0  0  0  0  0  0  0  0
   -2.5115    2.7916    0.0012 H   0  0  0  0  0  0  0  0  0  0  0  0
    0.7826    1.0433    1.3570 H   0  0  0  0  0  0  0  0  0  0  0  0
    1.3520   -0.8137   -1.0235 H   0  0  0  0  0  0  0  0  0  0  0  0
    2.6034    2.3751    0.3970 H   0  0  0  0  0  0  0  0  0  0  0  0
    5.0259    2.9385    0.5562 H   0  0  0  0  0  0  0  0  0  0  0  0
    7.3803    1.2000    1.2085 H   0  0  0  0  0  0  0  0  0  0  0  0
    7.6563    0.7550   -0.5139 H   0  0  0  0  0  0  0  0  0  0  0  0
    7.1913    2.4251   -0.0970 H   0  0  0  0  0  0  0  0  0  0  0  0
    6.1156   -0.9766   -0.4203 H   0  0  0  0  0  0  0  0  0  0  0  0
    3.7236   -1.6661   -0.5996 H   0  0  0  0  0  0  0  0  0  0  0  0
    0.3351   -2.7967    0.1550 H   0  0  0  0  0  0  0  0  0  0  0  0
   -1.1102   -4.7610   -0.2464 H   0  0  0  0  0  0  0  0  0  0  0  0
   -3.5600   -4.5013   -0.4037 H   0  0  0  0  0  0  0  0  0  0  0  0
   -4.6105   -2.2761   -0.1493 H   0  0  0  0  0  0  0  0  0  0  0  0
  1  2  2  0
  2  3  1  0
  3  4  1  0
  4  5  1  0
  5  6  1  0
  5  7  2  0
  7  8  1  0
  8  9  2  3
  9 10  1  0
 10 11  2  0
 11 12  1  0
 12 13  2  0
 13 14  1  0
 13 15  1  0
 15 16  2  0
  7 17  1  0
 17 18  2  0
 18 19  1  0
 19 20  2  0
 20 21  1  0
 21 22  2  0
 22  4  1  0
 16 10  1  0
 22 17  1  0
  1 23  1  0
  1 24  1  0
  2 25  1  0
  3 26  1  0
  3 27  1  0
  6 28  1  0
  6 29  1  0
  6 30  1  0
  8 31  1  0
  9 32  1  0
 11 33  1  0
 12 34  1  0
 14 35  1  0
 14 36  1  0
 14 37  1  0
 15 38  1  0
 16 39  1  0
 18 40  1  0
 19 41  1  0
 20 42  1  0
 21 43  1  0
M  CHG  1  13   1
M  END
$$$$
