
     RDKit          3D

 40 42  0  0  0  0  0  0  0  0999 V2000
    3.9179   -0.1729   -1.1757 N   0  0  0  0  0  0  0  0  0  0  0  0
    4.0852   -0.1442    0.2708 C   0  0  0  0  0  0  0  0  0  0  0  0
    2.9331   -0.8410    0.9943 C   0  0  0  0  0  0  0  0  0  0  0  0
    1.6118   -0.0626    1.0049 C   0  0  0  0  0  0  0  0  0  0  0  0
    0.9468    0.0775   -0.3741 C   0  0  0  0  0  0  0  0  0  0  0  0
   -0.4729    0.4977   -0.2452 N   0  0  0  0  0  0  0  0  0  0  0  0
   -0.7459    1.8962   -0.3052 C   0  0  0  0  0  0  0  0  0  0  0  0
    0.2661    2.8710   -0.1474 C   0  0  0  0  0  0  0  0  0  0  0  0
    0.0053    4.2465   -0.1899 C   0  0  0  0  0  0  0  0  0  0  0  0
   -1.2867    4.7000   -0.3902 C   0  0  0  0  0  0  0  0  0  0  0  0
   -2.3104    3.7735   -0.5456 C   0  0  0  0  0  0  0  0  0  0  0  0
   -2.0525    2.3881   -0.5016 C   0  0  0  0  0  0  0  0  0  0  0  0
   -3.4692    1.3446   -0.7491 S   0  0  0  0  0  0  0  0  0  0  0  0
   -2.8252   -0.2650   -0.3643 C   0  0  0  0  0  0  0  0  0  0  0  0
   -3.7842   -1.2940   -0.2859 C   0  0  0  0  0  0  0  0  0  0  0  0
   -3.4134   -2.6053   -0.0071 C   0  0  0  0  0  0  0  0  0  0  0  0
   -2.0719   -2.9094    0.2073 C   0  0  0  0  0  0  0  0  0  0  0  0
   -1.6339   -4.3225    0.5004 C   0  0  0  0  0  0  0  0  0  0  0  0
   -0.5935   -4.3844    1.3786 F   0  0  0  0  0  0  0  0  0  0  0  0
   -1.2157   -4.9766   -0.6180 F   0  0  0  0  0  0  0  0  0  0  0  0
   -2.6195   -5.0932    1.0390 F   0  0  0  0  0  0  0  0  0  0  0  0
   -1.1177   -1.8759    0.1149 C   0  0  0  0  0  0  0  0  0  0  0  0
   -1.4553   -0.5327   -0.1751 C   0  0  0  0  0  0  0  0  0  0  0  0
    3.9628   -1.1376   -1.5061 H   0  0  0  0  0  0  0  0  0  0  0  0
    4.7074    0.3027   -1.6145 H   0  0  0  0  0  0  0  0  0  0  0  0
    5.0260   -0.6455    0.5241 H   0  0  0  0  0  0  0  0  0  0  0  0
    4.1678    0.8944    0.6086 H   0  0  0  0  0  0  0  0  0  0  0  0
    3.2373   -0.9893    2.0384 H   0  0  0  0  0  0  0  0  0  0  0  0
    2.7718   -1.8439    0.5793 H   0  0  0  0  0  0  0  0  0  0  0  0
    1.7797    0.9247    1.4494 H   0  0  0  0  0  0  0  0  0  0  0  0
    0.9321   -0.5770    1.6952 H   0  0  0  0  0  0  0  0  0  0  0  0
    1.4997    0.7794   -1.0077 H   0  0  0  0  0  0  0  0  0  0  0  0
    1.0204   -0.8620   -0.9365 H   0  0  0  0  0  0  0  0  0  0  0  0
    1.3004    2.5939    0.0277 H   0  0  0  0  0  0  0  0  0  0  0  0
    0.8192    4.9557   -0.0625 H   0  0  0  0  0  0  0  0  0  0  0  0
   -1.4996    5.7644   -0.4257 H   0  0  0  0  0  0  0  0  0  0  0  0
   -3.3236    4.1372   -0.7056 H   0  0  0  0  0  0  0  0  0  0  0  0
   -4.8382   -1.0722   -0.4464 H   0  0  0  0  0  0  0  0  0  0  0  0
   -4.1763   -3.3799    0.0454 H   0  0  0  0  0  0  0  0  0  0  0  0
   -0.0852   -2.1607    0.3016 H   0  0  0  0  0  0  0  0  0  0  0  0
  1  2  1  0
  2  3  1  0
  3  4  1  0
  4  5  1  0
  5  6  1  0
  6  7  1  0
  7  8  2  0
  8  9  1  0
  9 10  2  0
 10 11  1  0
 11 12  2  0
 12 13  1  0
 13 14  1  0
 14 15  2  0
 15 16  1  0
 16 17  2  0
 17 18  1  0
 18 19  1  0
 18 20  1  0
 18 21  1  0
 17 22  1  0
 22 23  2  0
 23  6  1  0
 12  7  1  0
 23 14  1  0
  1 24  1  0
  1 25  1  0
  2 26  1  0
  2 27  1  0
  3 28  1  0
  3 29  1  0
  4 30  1  0
  4 31  1  0
  5 32  1  0
  5 33  1  0
  8 34  1  0
  9 35  1  0
 10 36  1  0
 11 37  1  0
 15 38  1  0
 16 39  1  0
 22 40  1  0
M  END
$$$$
