
     RDKit          3D

 71 77  0  0  0  0  0  0  0  0999 V2000
    4.1679    3.6539   -1.2510 C   0  0  0  0  0  0  0  0  0  0  0  0
    3.4559    2.4227   -1.3114 O   0  0  0  0  0  0  0  0  0  0  0  0
    4.3151    1.2824   -1.2932 C   0  0  0  0  0  0  0  0  0  0  0  0
    3.7892   -0.0024   -2.0189 C   0  0  0  0  0  0  0  0  0  0  0  0
    4.6062   -0.7584   -2.5629 O   0  0  0  0  0  0  0  0  0  0  0  0
    2.4346   -0.3147   -2.0069 N   0  0  0  0  0  0  0  0  0  0  0  0
    1.9899   -1.5751   -2.6287 C   0  0  0  0  0  0  0  0  0  0  0  0
    0.7826   -2.2469   -1.9100 C   0  0  0  0  0  0  0  0  0  0  0  0
   -0.0475   -1.2896   -1.2035 N   0  0  0  0  0  0  0  0  0  0  0  0
   -0.0321    0.0633   -1.8083 C   0  0  2  0  0  0  0  0  0  0  0  0
    1.3740    0.6420   -1.6330 C   0  0  0  0  0  0  0  0  0  0  0  0
   -1.1358    0.7048   -1.0627 C   0  0  0  0  0  0  0  0  0  0  0  0
   -1.9499   -0.2681   -0.4643 C   0  0  0  0  0  0  0  0  0  0  0  0
   -2.9763    0.3673    0.1882 C   0  0  0  0  0  0  0  0  0  0  0  0
   -3.9522   -0.1426    0.9382 O   0  0  0  0  0  0  0  0  0  0  0  0
   -2.8069    1.7598   -0.0032 N   0  0  0  0  0  0  0  0  0  0  0  0
   -3.6632    2.7992    0.5027 C   0  0  0  0  0  0  0  0  0  0  0  0
   -5.0116    2.5421    0.7939 C   0  0  0  0  0  0  0  0  0  0  0  0
   -5.8436    3.5563    1.2798 C   0  0  0  0  0  0  0  0  0  0  0  0
   -5.3432    4.8389    1.4787 C   0  0  0  0  0  0  0  0  0  0  0  0
   -4.0079    5.1086    1.1961 C   0  0  0  0  0  0  0  0  0  0  0  0
   -3.1720    4.0964    0.7127 C   0  0  0  0  0  0  0  0  0  0  0  0
   -1.6460    1.9441   -0.7909 C   0  0  0  0  0  0  0  0  0  0  0  0
   -1.2290    3.1404   -1.2014 O   0  0  0  0  0  0  0  0  0  0  0  0
   -1.4035   -1.6263   -0.7389 C   0  0  1  0  0  0  0  0  0  0  0  0
   -2.2673   -2.4305   -1.7399 C   0  0  0  0  0  0  0  0  0  0  0  0
   -2.4814   -2.2019   -2.9202 O   0  0  0  0  0  0  0  0  0  0  0  0
   -2.7759   -3.5235   -1.0320 N   0  0  0  0  0  0  0  0  0  0  0  0
   -2.3173   -3.5513    0.2853 C   0  0  0  0  0  0  0  0  0  0  0  0
   -1.4805   -2.4481    0.5131 C   0  0  0  0  0  0  0  0  0  0  0  0
   -0.8726   -2.2599    1.7436 C   0  0  0  0  0  0  0  0  0  0  0  0
   -1.1318   -3.1895    2.7495 C   0  0  0  0  0  0  0  0  0  0  0  0
   -1.9842   -4.2869    2.5164 C   0  0  0  0  0  0  0  0  0  0  0  0
   -2.2444   -5.3791    3.8324 Cl  0  0  0  0  0  0  0  0  0  0  0  0
   -2.6014   -4.4924    1.2667 C   0  0  0  0  0  0  0  0  0  0  0  0
   -3.5079   -5.6606    1.0237 C   0  0  0  0  0  0  0  0  0  0  0  0
    4.7619    0.9328    0.1239 C   0  0  0  0  0  0  0  0  0  0  0  0
    6.0178    0.3313    0.3217 C   0  0  0  0  0  0  0  0  0  0  0  0
    6.4534   -0.0057    1.6049 C   0  0  0  0  0  0  0  0  0  0  0  0
    5.6393    0.2495    2.7069 C   0  0  0  0  0  0  0  0  0  0  0  0
    4.3870    0.8358    2.5267 C   0  0  0  0  0  0  0  0  0  0  0  0
    3.9490    1.1744    1.2438 C   0  0  0  0  0  0  0  0  0  0  0  0
    4.7896    3.7815   -2.1423 H   0  0  0  0  0  0  0  0  0  0  0  0
    4.7861    3.7101   -0.3499 H   0  0  0  0  0  0  0  0  0  0  0  0
    3.4375    4.4675   -1.2190 H   0  0  0  0  0  0  0  0  0  0  0  0
    5.2103    1.5571   -1.8718 H   0  0  0  0  0  0  0  0  0  0  0  0
    1.7047   -1.3204   -3.6575 H   0  0  0  0  0  0  0  0  0  0  0  0
    2.8145   -2.2934   -2.6911 H   0  0  0  0  0  0  0  0  0  0  0  0
    0.2228   -2.8157   -2.6598 H   0  0  0  0  0  0  0  0  0  0  0  0
    1.1684   -2.9695   -1.1824 H   0  0  0  0  0  0  0  0  0  0  0  0
   -0.3008    0.0082   -2.8720 H   0  0  0  0  0  0  0  0  0  0  0  0
    1.4711    1.5272   -2.2704 H   0  0  0  0  0  0  0  0  0  0  0  0
    1.5438    0.9393   -0.5936 H   0  0  0  0  0  0  0  0  0  0  0  0
   -3.7962   -1.0974    1.0382 H   0  0  0  0  0  0  0  0  0  0  0  0
   -5.4567    1.5665    0.6233 H   0  0  0  0  0  0  0  0  0  0  0  0
   -6.8847    3.3397    1.4981 H   0  0  0  0  0  0  0  0  0  0  0  0
   -5.9915    5.6262    1.8541 H   0  0  0  0  0  0  0  0  0  0  0  0
   -3.6095    6.1070    1.3527 H   0  0  0  0  0  0  0  0  0  0  0  0
   -2.1293    4.3465    0.5421 H   0  0  0  0  0  0  0  0  0  0  0  0
   -0.5216    3.0143   -1.8549 H   0  0  0  0  0  0  0  0  0  0  0  0
   -3.3716   -4.2092   -1.4715 H   0  0  0  0  0  0  0  0  0  0  0  0
   -0.2134   -1.4148    1.9208 H   0  0  0  0  0  0  0  0  0  0  0  0
   -0.6654   -3.0604    3.7248 H   0  0  0  0  0  0  0  0  0  0  0  0
   -3.9168   -5.6692    0.0088 H   0  0  0  0  0  0  0  0  0  0  0  0
   -2.9619   -6.6000    1.1600 H   0  0  0  0  0  0  0  0  0  0  0  0
   -4.3599   -5.6287    1.7112 H   0  0  0  0  0  0  0  0  0  0  0  0
    6.6629    0.1131   -0.5292 H   0  0  0  0  0  0  0  0  0  0  0  0
    7.4279   -0.4716    1.7436 H   0  0  0  0  0  0  0  0  0  0  0  0
    5.9802   -0.0124    3.7058 H   0  0  0  0  0  0  0  0  0  0  0  0
    3.7513    1.0301    3.3866 H   0  0  0  0  0  0  0  0  0  0  0  0
    2.9698    1.6356    1.1282 H   0  0  0  0  0  0  0  0  0  0  0  0
  1  2  1  0
  2  3  1  0
  3  4  1  0
  4  5  2  0
  4  6  1  0
  6  7  1  0
  7  8  1  0
  8  9  1  0
  9 10  1  0
 10 11  1  0
 10 12  1  0
 12 13  1  0
 13 14  2  0
 14 15  1  0
 14 16  1  0
 16 17  1  0
 17 18  2  0
 18 19  1  0
 19 20  2  0
 20 21  1  0
 21 22  2  0
 16 23  1  0
 23 24  1  0
 13 25  1  0
 25 26  1  0
 26 27  2  0
 26 28  1  0
 28 29  1  0
 29 30  2  0
 30 31  1  0
 31 32  2  0
 32 33  1  0
 33 34  1  0
 33 35  2  0
 35 36  1  0
  3 37  1  0
 37 38  2  0
 38 39  1  0
 39 40  2  0
 40 41  1  0
 41 42  2  0
 11  6  1  0
 23 12  2  0
 30 25  1  0
 42 37  1  0
 25  9  1  6
 35 29  1  0
 22 17  1  0
  1 43  1  0
  1 44  1  0
  1 45  1  0
  3 46  1  0
  7 47  1  0
  7 48  1  0
  8 49  1  0
  8 50  1  0
 10 51  1  6
 11 52  1  0
 11 53  1  0
 15 54  1  0
 18 55  1  0
 19 56  1  0
 20 57  1  0
 21 58  1  0
 22 59  1  0
 24 60  1  0
 28 61  1  0
 31 62  1  0
 32 63  1  0
 36 64  1  0
 36 65  1  0
 36 66  1  0
 38 67  1  0
 39 68  1  0
 40 69  1  0
 41 70  1  0
 42 71  1  0
M  END
$$$$
