
     RDKit          3D

 71 73  0  0  0  0  0  0  0  0999 V2000
   -6.6892   -4.2390    0.5765 C   0  0  0  0  0  0  0  0  0  0  0  0
   -7.0494   -2.9874    1.1527 O   0  0  0  0  0  0  0  0  0  0  0  0
   -6.2532   -1.9080    0.8510 C   0  0  0  0  0  0  0  0  0  0  0  0
   -5.0117   -2.0019    0.2089 C   0  0  0  0  0  0  0  0  0  0  0  0
   -4.2726   -0.8471   -0.0640 C   0  0  0  0  0  0  0  0  0  0  0  0
   -2.9770   -0.9210   -0.7361 C   0  0  0  0  0  0  0  0  0  0  0  0
   -2.2654    0.1883   -1.0138 C   0  0  0  0  0  0  0  0  0  0  0  0
   -0.9352    0.1608   -1.7191 C   0  0  0  0  0  0  0  0  0  0  0  0
    0.1491   -0.1482   -0.7555 N   0  0  0  0  0  0  0  0  0  0  0  0
    0.7299    1.0495   -0.1082 C   0  0  0  0  0  0  0  0  0  0  0  0
    2.0110    1.5099   -0.8166 C   0  0  0  0  0  0  0  0  0  0  0  0
    2.6862    2.6529   -0.0910 C   0  0  0  0  0  0  0  0  0  0  0  0
    3.7083    2.3471    0.8275 C   0  0  0  0  0  0  0  0  0  0  0  0
    4.3570    3.3554    1.5402 C   0  0  0  0  0  0  0  0  0  0  0  0
    3.9965    4.6835    1.3501 C   0  0  0  0  0  0  0  0  0  0  0  0
    2.9810    5.0035    0.4483 C   0  0  0  0  0  0  0  0  0  0  0  0
    2.3196    4.0010   -0.2863 C   0  0  0  0  0  0  0  0  0  0  0  0
    1.2141    4.4049   -1.2269 C   0  0  0  0  0  0  0  0  0  0  0  0
    0.7098   -1.4390   -0.6325 C   0  0  0  0  0  0  0  0  0  0  0  0
    0.3104   -2.7528   -1.6070 S   0  0  0  0  0  0  0  0  0  0  0  0
    1.6633   -1.5406    0.3636 N   0  0  0  0  0  0  0  0  0  0  0  0
    2.5508   -2.6612    0.6721 C   0  0  0  0  0  0  0  0  0  0  0  0
    4.0122   -2.3057    0.3859 C   0  0  0  0  0  0  0  0  0  0  0  0
    4.3012   -2.2189   -1.1217 C   0  0  0  0  0  0  0  0  0  0  0  0
    5.6915   -1.9177   -1.5058 N   0  0  0  0  0  0  0  0  0  0  0  0
    6.1350   -0.5990   -1.0567 C   0  0  0  0  0  0  0  0  0  0  0  0
    6.6362   -2.9570   -1.1131 C   0  0  0  0  0  0  0  0  0  0  0  0
   -2.8393    1.5282   -0.6752 C   0  0  0  0  0  0  0  0  0  0  0  0
   -2.2665    2.5754   -0.9682 O   0  0  0  0  0  0  0  0  0  0  0  0
   -4.0415    1.5501   -0.0154 N   0  0  0  0  0  0  0  0  0  0  0  0
   -4.7778    0.4025    0.3018 C   0  0  0  0  0  0  0  0  0  0  0  0
   -6.0037    0.5124    0.9595 C   0  0  0  0  0  0  0  0  0  0  0  0
   -6.7420   -0.6432    1.2476 C   0  0  0  0  0  0  0  0  0  0  0  0
   -7.9662   -0.6348    1.8717 O   0  0  0  0  0  0  0  0  0  0  0  0
   -8.3018    0.5241    2.6202 C   0  0  0  0  0  0  0  0  0  0  0  0
   -6.6089   -4.1657   -0.5148 H   0  0  0  0  0  0  0  0  0  0  0  0
   -5.7642   -4.6225    1.0167 H   0  0  0  0  0  0  0  0  0  0  0  0
   -7.4876   -4.9568    0.7993 H   0  0  0  0  0  0  0  0  0  0  0  0
   -4.6004   -2.9650   -0.0866 H   0  0  0  0  0  0  0  0  0  0  0  0
   -2.6006   -1.9060   -0.9912 H   0  0  0  0  0  0  0  0  0  0  0  0
   -0.9746   -0.5727   -2.5291 H   0  0  0  0  0  0  0  0  0  0  0  0
   -0.7010    1.1086   -2.2175 H   0  0  0  0  0  0  0  0  0  0  0  0
   -0.0136    1.8512   -0.1133 H   0  0  0  0  0  0  0  0  0  0  0  0
    0.9113    0.8545    0.9525 H   0  0  0  0  0  0  0  0  0  0  0  0
    1.7967    1.7881   -1.8556 H   0  0  0  0  0  0  0  0  0  0  0  0
    2.7187    0.6762   -0.8970 H   0  0  0  0  0  0  0  0  0  0  0  0
    4.0064    1.3140    0.9942 H   0  0  0  0  0  0  0  0  0  0  0  0
    5.1456    3.1047    2.2447 H   0  0  0  0  0  0  0  0  0  0  0  0
    4.4998    5.4710    1.9063 H   0  0  0  0  0  0  0  0  0  0  0  0
    2.7050    6.0480    0.3176 H   0  0  0  0  0  0  0  0  0  0  0  0
    0.2457    4.1310   -0.7961 H   0  0  0  0  0  0  0  0  0  0  0  0
    1.3327    3.9328   -2.2046 H   0  0  0  0  0  0  0  0  0  0  0  0
    1.2121    5.4878   -1.4021 H   0  0  0  0  0  0  0  0  0  0  0  0
    1.6864   -0.8094    1.0571 H   0  0  0  0  0  0  0  0  0  0  0  0
    2.2642   -3.5746    0.1485 H   0  0  0  0  0  0  0  0  0  0  0  0
    2.4373   -2.8465    1.7470 H   0  0  0  0  0  0  0  0  0  0  0  0
    4.6428   -3.0757    0.8417 H   0  0  0  0  0  0  0  0  0  0  0  0
    4.2549   -1.3567    0.8768 H   0  0  0  0  0  0  0  0  0  0  0  0
    3.6562   -1.4603   -1.5765 H   0  0  0  0  0  0  0  0  0  0  0  0
    4.0079   -3.1644   -1.5954 H   0  0  0  0  0  0  0  0  0  0  0  0
    7.1128   -0.3556   -1.4900 H   0  0  0  0  0  0  0  0  0  0  0  0
    5.4439    0.1830   -1.3904 H   0  0  0  0  0  0  0  0  0  0  0  0
    6.2262   -0.5399    0.0328 H   0  0  0  0  0  0  0  0  0  0  0  0
    7.6072   -2.7893   -1.5922 H   0  0  0  0  0  0  0  0  0  0  0  0
    6.7973   -2.9939   -0.0325 H   0  0  0  0  0  0  0  0  0  0  0  0
    6.2892   -3.9410   -1.4449 H   0  0  0  0  0  0  0  0  0  0  0  0
   -4.4023    2.4684    0.2155 H   0  0  0  0  0  0  0  0  0  0  0  0
   -6.3764    1.4965    1.2267 H   0  0  0  0  0  0  0  0  0  0  0  0
   -8.5339    1.3667    1.9599 H   0  0  0  0  0  0  0  0  0  0  0  0
   -9.2033    0.3002    3.2013 H   0  0  0  0  0  0  0  0  0  0  0  0
   -7.5040    0.7860    3.3263 H   0  0  0  0  0  0  0  0  0  0  0  0
  1  2  1  0
  2  3  1  0
  3  4  2  0
  4  5  1  0
  5  6  1  0
  6  7  2  0
  7  8  1  0
  8  9  1  0
  9 10  1  0
 10 11  1  0
 11 12  1  0
 12 13  2  0
 13 14  1  0
 14 15  2  0
 15 16  1  0
 16 17  2  0
 17 18  1  0
  9 19  1  0
 19 20  2  0
 19 21  1  0
 21 22  1  0
 22 23  1  0
 23 24  1  0
 24 25  1  0
 25 26  1  0
 25 27  1  0
  7 28  1  0
 28 29  2  0
 28 30  1  0
 30 31  1  0
 31 32  1  0
 32 33  2  0
 33 34  1  0
 34 35  1  0
 33  3  1  0
 31  5  2  0
 17 12  1  0
  1 36  1  0
  1 37  1  0
  1 38  1  0
  4 39  1  0
  6 40  1  0
  8 41  1  0
  8 42  1  0
 10 43  1  0
 10 44  1  0
 11 45  1  0
 11 46  1  0
 13 47  1  0
 14 48  1  0
 15 49  1  0
 16 50  1  0
 18 51  1  0
 18 52  1  0
 18 53  1  0
 21 54  1  0
 22 55  1  0
 22 56  1  0
 23 57  1  0
 23 58  1  0
 24 59  1  0
 24 60  1  0
 26 61  1  0
 26 62  1  0
 26 63  1  0
 27 64  1  0
 27 65  1  0
 27 66  1  0
 30 67  1  0
 32 68  1  0
 35 69  1  0
 35 70  1  0
 35 71  1  0
M  END
$$$$
