
     RDKit          3D

 45 44  0  0  0  0  0  0  0  0999 V2000
    6.5021   -2.7981   -1.0604 C   0  0  0  0  0  0  0  0  0  0  0  0
    4.9878   -2.7334   -0.9331 C   0  0  0  0  0  0  0  0  0  0  0  0
    4.5343   -3.0461    0.4948 C   0  0  0  0  0  0  0  0  0  0  0  0
    3.0151   -3.0526    0.6451 C   0  0  0  0  0  0  0  0  0  0  0  0
    2.4406   -1.7329    0.5238 N   0  0  0  0  0  0  0  0  0  0  0  0
    1.1727   -1.4679    0.9457 C   0  0  0  0  0  0  0  0  0  0  0  0
    0.4685   -2.2172    1.6038 O   0  0  0  0  0  0  0  0  0  0  0  0
    0.8136   -0.2389    0.5045 O   0  0  0  0  0  0  0  0  0  0  0  0
   -0.5193    0.1496    0.8650 C   0  0  0  0  0  0  0  0  0  0  0  0
   -0.7647    1.6186    0.4654 C   0  0  0  0  0  0  0  0  0  0  0  0
   -0.0964    2.6276    1.4174 C   0  0  0  0  0  0  0  0  0  0  0  0
    1.4220    2.5543    1.4554 C   0  0  0  0  0  0  0  0  0  0  0  0
   -2.1938    1.9071    0.4036 N   0  0  0  0  0  0  0  0  0  0  0  0
   -2.9713    1.5261   -0.6476 C   0  0  0  0  0  0  0  0  0  0  0  0
   -2.5615    1.0297   -1.6847 O   0  0  0  0  0  0  0  0  0  0  0  0
   -4.2679    1.7695   -0.3430 O   0  0  0  0  0  0  0  0  0  0  0  0
   -5.2312    1.4085   -1.3502 C   0  0  0  0  0  0  0  0  0  0  0  0
   -5.5771   -0.0706   -1.2193 C   0  0  0  0  0  0  0  0  0  0  0  0
   -6.4655    2.2726   -1.1211 C   0  0  0  0  0  0  0  0  0  0  0  0
    6.9827   -2.0725   -0.3963 H   0  0  0  0  0  0  0  0  0  0  0  0
    6.8752   -3.7957   -0.8077 H   0  0  0  0  0  0  0  0  0  0  0  0
    6.8060   -2.5722   -2.0873 H   0  0  0  0  0  0  0  0  0  0  0  0
    4.6511   -1.7345   -1.2309 H   0  0  0  0  0  0  0  0  0  0  0  0
    4.5384   -3.4493   -1.6311 H   0  0  0  0  0  0  0  0  0  0  0  0
    4.9142   -4.0350    0.7791 H   0  0  0  0  0  0  0  0  0  0  0  0
    4.9734   -2.3197    1.1897 H   0  0  0  0  0  0  0  0  0  0  0  0
    2.5472   -3.6934   -0.1106 H   0  0  0  0  0  0  0  0  0  0  0  0
    2.7465   -3.4560    1.6282 H   0  0  0  0  0  0  0  0  0  0  0  0
    2.7822   -1.0906   -0.1771 H   0  0  0  0  0  0  0  0  0  0  0  0
   -1.2168   -0.5090    0.3330 H   0  0  0  0  0  0  0  0  0  0  0  0
   -0.6784    0.0241    1.9435 H   0  0  0  0  0  0  0  0  0  0  0  0
   -0.3552    1.7755   -0.5412 H   0  0  0  0  0  0  0  0  0  0  0  0
   -0.3794    3.6423    1.1075 H   0  0  0  0  0  0  0  0  0  0  0  0
   -0.4886    2.5010    2.4345 H   0  0  0  0  0  0  0  0  0  0  0  0
    1.8459    2.5951    0.4473 H   0  0  0  0  0  0  0  0  0  0  0  0
    1.7673    1.6403    1.9465 H   0  0  0  0  0  0  0  0  0  0  0  0
    1.8226    3.3995    2.0248 H   0  0  0  0  0  0  0  0  0  0  0  0
   -2.7019    2.1631    1.2393 H   0  0  0  0  0  0  0  0  0  0  0  0
   -4.8394    1.6230   -2.3520 H   0  0  0  0  0  0  0  0  0  0  0  0
   -5.9370   -0.3006   -0.2104 H   0  0  0  0  0  0  0  0  0  0  0  0
   -4.6931   -0.6948   -1.3860 H   0  0  0  0  0  0  0  0  0  0  0  0
   -6.3453   -0.3630   -1.9417 H   0  0  0  0  0  0  0  0  0  0  0  0
   -7.2472    2.0528   -1.8546 H   0  0  0  0  0  0  0  0  0  0  0  0
   -6.8729    2.1190   -0.1157 H   0  0  0  0  0  0  0  0  0  0  0  0
   -6.2056    3.3341   -1.1959 H   0  0  0  0  0  0  0  0  0  0  0  0
  1  2  1  0
  2  3  1  0
  3  4  1  0
  4  5  1  0
  5  6  1  0
  6  7  2  0
  6  8  1  0
  8  9  1  0
  9 10  1  0
 10 11  1  0
 11 12  1  0
 10 13  1  0
 13 14  1  0
 14 15  2  0
 14 16  1  0
 16 17  1  0
 17 18  1  0
 17 19  1  0
  1 20  1  0
  1 21  1  0
  1 22  1  0
  2 23  1  0
  2 24  1  0
  3 25  1  0
  3 26  1  0
  4 27  1  0
  4 28  1  0
  5 29  1  0
  9 30  1  0
  9 31  1  0
 10 32  1  0
 11 33  1  0
 11 34  1  0
 12 35  1  0
 12 36  1  0
 12 37  1  0
 13 38  1  0
 17 39  1  0
 18 40  1  0
 18 41  1  0
 18 42  1  0
 19 43  1  0
 19 44  1  0
 19 45  1  0
M  END
$$$$
