
     RDKit          3D

 48 50  0  0  0  0  0  0  0  0999 V2000
    8.3634    2.7504    1.0763 C   0  0  0  0  0  0  0  0  0  0  0  0
    7.4556    1.6832    0.5862 C   0  0  0  0  0  0  0  0  0  0  0  0
    7.7552    0.7180   -0.3563 C   0  0  0  0  0  0  0  0  0  0  0  0
    6.3985   -0.2988   -0.5990 S   0  0  0  0  0  0  0  0  0  0  0  0
    5.5281    0.6013    0.5523 C   0  0  0  0  0  0  0  0  0  0  0  0
    4.2344    0.3234    0.9085 N   0  0  0  0  0  0  0  0  0  0  0  0
    3.4391   -0.6972    0.4366 C   0  0  0  0  0  0  0  0  0  0  0  0
    3.7352   -1.5394   -0.4036 O   0  0  0  0  0  0  0  0  0  0  0  0
    2.0579   -0.6593    1.0697 C   0  0  0  0  0  0  0  0  0  0  0  0
    1.2246   -1.8915    0.7355 C   0  0  0  0  0  0  0  0  0  0  0  0
    0.8801   -1.9011   -0.6969 N   0  0  0  0  0  0  0  0  0  0  0  0
   -0.3833   -2.8935   -1.1964 S   0  0  0  0  0  6  0  0  0  0  0  0
   -0.1044   -3.2522   -2.5689 O   0  0  0  0  0  0  0  0  0  0  0  0
   -0.6381   -3.8873   -0.1794 O   0  0  0  0  0  0  0  0  0  0  0  0
   -1.7396   -1.7468   -1.2112 C   0  0  0  0  0  0  0  0  0  0  0  0
   -2.1223   -1.1346   -2.4040 C   0  0  0  0  0  0  0  0  0  0  0  0
   -3.2072   -0.2506   -2.4130 C   0  0  0  0  0  0  0  0  0  0  0  0
   -3.9208    0.0317   -1.2356 C   0  0  0  0  0  0  0  0  0  0  0  0
   -3.5204   -0.5948   -0.0550 C   0  0  0  0  0  0  0  0  0  0  0  0
   -2.4430   -1.4939   -0.0352 C   0  0  0  0  0  0  0  0  0  0  0  0
   -4.2364   -0.3009    1.1956 C   0  0  0  0  0  0  0  0  0  0  0  0
   -3.8621   -0.8404    2.2343 O   0  0  0  0  0  0  0  0  0  0  0  0
   -5.2943    0.5895    1.1147 N   0  0  0  0  0  0  0  0  0  0  0  0
   -6.0326    0.8891    2.3283 C   0  0  0  0  0  0  0  0  0  0  0  0
   -5.7373    1.2016   -0.0523 C   0  0  0  0  0  0  0  0  0  0  0  0
   -6.7114    1.9583   -0.0479 O   0  0  0  0  0  0  0  0  0  0  0  0
   -5.0284    0.9203   -1.2167 N   0  0  0  0  0  0  0  0  0  0  0  0
   -5.4630    1.5559   -2.4549 C   0  0  0  0  0  0  0  0  0  0  0  0
    6.1709    1.6053    1.1021 N   0  0  0  0  0  0  0  0  0  0  0  0
    8.9416    3.1788    0.2515 H   0  0  0  0  0  0  0  0  0  0  0  0
    9.0608    2.3448    1.8157 H   0  0  0  0  0  0  0  0  0  0  0  0
    7.7963    3.5594    1.5474 H   0  0  0  0  0  0  0  0  0  0  0  0
    8.6773    0.5653   -0.8984 H   0  0  0  0  0  0  0  0  0  0  0  0
    3.8778    0.9664    1.6019 H   0  0  0  0  0  0  0  0  0  0  0  0
    1.5484    0.2503    0.7293 H   0  0  0  0  0  0  0  0  0  0  0  0
    2.1806   -0.6010    2.1575 H   0  0  0  0  0  0  0  0  0  0  0  0
    1.7771   -2.8057    0.9781 H   0  0  0  0  0  0  0  0  0  0  0  0
    0.3125   -1.8610    1.3397 H   0  0  0  0  0  0  0  0  0  0  0  0
    1.6892   -1.9967   -1.3239 H   0  0  0  0  0  0  0  0  0  0  0  0
   -1.5872   -1.3390   -3.3301 H   0  0  0  0  0  0  0  0  0  0  0  0
   -3.4716    0.2024   -3.3646 H   0  0  0  0  0  0  0  0  0  0  0  0
   -2.1601   -1.9889    0.8923 H   0  0  0  0  0  0  0  0  0  0  0  0
   -6.1487    1.9733    2.4300 H   0  0  0  0  0  0  0  0  0  0  0  0
   -7.0281    0.4394    2.2492 H   0  0  0  0  0  0  0  0  0  0  0  0
   -5.5387    0.5034    3.2239 H   0  0  0  0  0  0  0  0  0  0  0  0
   -6.3288    2.2074   -2.3060 H   0  0  0  0  0  0  0  0  0  0  0  0
   -5.7477    0.7849   -3.1782 H   0  0  0  0  0  0  0  0  0  0  0  0
   -4.6488    2.1707   -2.8520 H   0  0  0  0  0  0  0  0  0  0  0  0
  1  2  1  0
  2  3  2  0
  3  4  1  0
  4  5  1  0
  5  6  1  0
  6  7  1  0
  7  8  2  0
  7  9  1  0
  9 10  1  0
 10 11  1  0
 11 12  1  0
 12 13  2  0
 12 14  2  0
 12 15  1  0
 15 16  2  0
 16 17  1  0
 17 18  2  0
 18 19  1  0
 19 20  2  0
 19 21  1  0
 21 22  2  0
 21 23  1  0
 23 24  1  0
 23 25  1  0
 25 26  2  0
 25 27  1  0
 27 28  1  0
  5 29  2  0
 29  2  1  0
 20 15  1  0
 27 18  1  0
  1 30  1  0
  1 31  1  0
  1 32  1  0
  3 33  1  0
  6 34  1  0
  9 35  1  0
  9 36  1  0
 10 37  1  0
 10 38  1  0
 11 39  1  0
 16 40  1  0
 17 41  1  0
 20 42  1  0
 24 43  1  0
 24 44  1  0
 24 45  1  0
 28 46  1  0
 28 47  1  0
 28 48  1  0
M  END
$$$$
