
     RDKit          3D

 41 42  0  0  0  0  0  0  0  0999 V2000
   -5.0530   -1.9235   -0.6571 C   0  0  0  0  0  0  0  0  0  0  0  0
   -4.8856   -0.7106    0.2472 C   0  0  0  0  0  0  0  0  0  0  0  0
   -3.7918    0.1508   -0.2220 N   0  0  0  0  0  0  0  0  0  0  0  0
   -4.1791    1.2290   -1.1409 C   0  0  0  0  0  0  0  0  0  0  0  0
   -4.4905    2.5101   -0.3804 C   0  0  0  0  0  0  0  0  0  0  0  0
   -2.4740   -0.0442    0.1780 C   0  0  0  0  0  0  0  0  0  0  0  0
   -2.0771   -1.1480    0.9517 C   0  0  0  0  0  0  0  0  0  0  0  0
   -0.7475   -1.3511    1.3570 C   0  0  0  0  0  0  0  0  0  0  0  0
    0.2538   -0.4548    0.9916 C   0  0  0  0  0  0  0  0  0  0  0  0
    1.6267   -0.6869    1.4546 C   0  0  0  0  0  0  0  0  0  0  0  0
    2.7164   -0.4373    0.7122 C   0  0  0  0  0  0  0  0  0  0  0  0
    4.0646   -0.7412    1.2654 C   0  0  0  0  0  0  0  0  0  0  0  0
    4.2099   -1.3717    2.3074 O   0  0  0  0  0  0  0  0  0  0  0  0
    5.2536   -0.2902    0.5062 C   0  0  0  0  0  0  0  0  0  0  0  0
    5.2541    0.7965   -0.3721 C   0  0  0  0  0  0  0  0  0  0  0  0
    6.4326    1.1419   -1.0336 C   0  0  0  0  0  0  0  0  0  0  0  0
    7.5727    0.3929   -0.7893 C   0  0  0  0  0  0  0  0  0  0  0  0
    7.6108   -0.6537    0.0617 N   0  0  0  0  0  0  0  0  0  0  0  0
    6.4533   -0.9668    0.6972 C   0  0  0  0  0  0  0  0  0  0  0  0
   -0.1106    0.6599    0.2396 C   0  0  0  0  0  0  0  0  0  0  0  0
   -1.4446    0.8514   -0.1587 C   0  0  0  0  0  0  0  0  0  0  0  0
   -5.2668   -1.6194   -1.6871 H   0  0  0  0  0  0  0  0  0  0  0  0
   -5.8845   -2.5433   -0.3073 H   0  0  0  0  0  0  0  0  0  0  0  0
   -4.1521   -2.5440   -0.6755 H   0  0  0  0  0  0  0  0  0  0  0  0
   -4.7471   -1.0146    1.2907 H   0  0  0  0  0  0  0  0  0  0  0  0
   -5.8267   -0.1457    0.2444 H   0  0  0  0  0  0  0  0  0  0  0  0
   -5.0760    0.9326   -1.7000 H   0  0  0  0  0  0  0  0  0  0  0  0
   -3.4176    1.4038   -1.9091 H   0  0  0  0  0  0  0  0  0  0  0  0
   -3.6227    2.8713    0.1795 H   0  0  0  0  0  0  0  0  0  0  0  0
   -5.3048    2.3547    0.3351 H   0  0  0  0  0  0  0  0  0  0  0  0
   -4.7968    3.2974   -1.0763 H   0  0  0  0  0  0  0  0  0  0  0  0
   -2.7942   -1.9017    1.2614 H   0  0  0  0  0  0  0  0  0  0  0  0
   -0.5116   -2.2294    1.9543 H   0  0  0  0  0  0  0  0  0  0  0  0
    1.7256   -1.1113    2.4529 H   0  0  0  0  0  0  0  0  0  0  0  0
    2.6395   -0.0568   -0.2974 H   0  0  0  0  0  0  0  0  0  0  0  0
    4.3664    1.3980   -0.5386 H   0  0  0  0  0  0  0  0  0  0  0  0
    6.4639    1.9822   -1.7192 H   0  0  0  0  0  0  0  0  0  0  0  0
    8.5136    0.6249   -1.2811 H   0  0  0  0  0  0  0  0  0  0  0  0
    6.5242   -1.8091    1.3822 H   0  0  0  0  0  0  0  0  0  0  0  0
    0.6246    1.4098   -0.0388 H   0  0  0  0  0  0  0  0  0  0  0  0
   -1.6516    1.7481   -0.7341 H   0  0  0  0  0  0  0  0  0  0  0  0
  1  2  1  0
  2  3  1  0
  3  4  1  0
  4  5  1  0
  3  6  1  0
  6  7  2  0
  7  8  1  0
  8  9  2  0
  9 10  1  0
 10 11  2  3
 11 12  1  0
 12 13  2  0
 12 14  1  0
 14 15  2  0
 15 16  1  0
 16 17  2  0
 17 18  1  0
 18 19  2  0
  9 20  1  0
 20 21  2  0
 21  6  1  0
 19 14  1  0
  1 22  1  0
  1 23  1  0
  1 24  1  0
  2 25  1  0
  2 26  1  0
  4 27  1  0
  4 28  1  0
  5 29  1  0
  5 30  1  0
  5 31  1  0
  7 32  1  0
  8 33  1  0
 10 34  1  0
 11 35  1  0
 15 36  1  0
 16 37  1  0
 17 38  1  0
 19 39  1  0
 20 40  1  0
 21 41  1  0
M  END
$$$$
