
     RDKit          3D

 37 39  0  0  0  0  0  0  0  0999 V2000
    5.0891   -0.1528   -1.0615 N   0  0  0  0  0  0  0  0  0  0  0  0
    3.7377   -0.4831   -0.6294 C   0  0  0  0  0  0  0  0  0  0  0  0
    3.0587    0.7549   -0.0446 C   0  0  0  0  0  0  0  0  0  0  0  0
    1.6427    0.4777    0.4690 C   0  0  0  0  0  0  0  0  0  0  0  0
    0.6471    0.1571   -0.6578 C   0  0  0  0  0  0  0  0  0  0  0  0
   -0.7358    0.0293   -0.1399 N   0  0  0  0  0  0  0  0  0  0  0  0
   -1.1775   -1.2778    0.2214 C   0  0  0  0  0  0  0  0  0  0  0  0
   -0.2773   -2.3489    0.4276 C   0  0  0  0  0  0  0  0  0  0  0  0
   -0.6998   -3.6328    0.7947 C   0  0  0  0  0  0  0  0  0  0  0  0
   -2.0472   -3.8928    0.9735 C   0  0  0  0  0  0  0  0  0  0  0  0
   -2.9634   -2.8651    0.7864 C   0  0  0  0  0  0  0  0  0  0  0  0
   -2.5423   -1.5709    0.4191 C   0  0  0  0  0  0  0  0  0  0  0  0
   -3.8454   -0.3850    0.1939 S   0  0  0  0  0  0  0  0  0  0  0  0
   -2.9473    1.1361    0.0129 C   0  0  0  0  0  0  0  0  0  0  0  0
   -3.7381    2.3035    0.0115 C   0  0  0  0  0  0  0  0  0  0  0  0
   -3.1627    3.5593   -0.1426 C   0  0  0  0  0  0  0  0  0  0  0  0
   -1.7905    3.6495   -0.2953 C   0  0  0  0  0  0  0  0  0  0  0  0
   -1.0528    5.1945   -0.4780 Cl  0  0  0  0  0  0  0  0  0  0  0  0
   -0.9976    2.4971   -0.2980 C   0  0  0  0  0  0  0  0  0  0  0  0
   -1.5473    1.2027   -0.1506 C   0  0  0  0  0  0  0  0  0  0  0  0
    5.6396    0.1705   -0.2663 H   0  0  0  0  0  0  0  0  0  0  0  0
    5.5538   -0.9929   -1.4049 H   0  0  0  0  0  0  0  0  0  0  0  0
    3.7778   -1.2827    0.1181 H   0  0  0  0  0  0  0  0  0  0  0  0
    3.1816   -0.8591   -1.4930 H   0  0  0  0  0  0  0  0  0  0  0  0
    3.0260    1.5574   -0.7924 H   0  0  0  0  0  0  0  0  0  0  0  0
    3.6572    1.1319    0.7950 H   0  0  0  0  0  0  0  0  0  0  0  0
    1.3054    1.3600    1.0252 H   0  0  0  0  0  0  0  0  0  0  0  0
    1.6744   -0.3343    1.2037 H   0  0  0  0  0  0  0  0  0  0  0  0
    0.9440   -0.7508   -1.1958 H   0  0  0  0  0  0  0  0  0  0  0  0
    0.7035    0.9204   -1.4445 H   0  0  0  0  0  0  0  0  0  0  0  0
    0.7945   -2.2193    0.3252 H   0  0  0  0  0  0  0  0  0  0  0  0
    0.0319   -4.4229    0.9432 H   0  0  0  0  0  0  0  0  0  0  0  0
   -2.3860   -4.8849    1.2580 H   0  0  0  0  0  0  0  0  0  0  0  0
   -4.0216   -3.0775    0.9277 H   0  0  0  0  0  0  0  0  0  0  0  0
   -4.8181    2.2348    0.1309 H   0  0  0  0  0  0  0  0  0  0  0  0
   -3.7857    4.4488   -0.1400 H   0  0  0  0  0  0  0  0  0  0  0  0
    0.0713    2.6481   -0.4022 H   0  0  0  0  0  0  0  0  0  0  0  0
  1  2  1  0
  2  3  1  0
  3  4  1  0
  4  5  1  0
  5  6  1  0
  6  7  1  0
  7  8  2  0
  8  9  1  0
  9 10  2  0
 10 11  1  0
 11 12  2  0
 12 13  1  0
 13 14  1  0
 14 15  2  0
 15 16  1  0
 16 17  2  0
 17 18  1  0
 17 19  1  0
 19 20  2  0
 20  6  1  0
 12  7  1  0
 20 14  1  0
  1 21  1  0
  1 22  1  0
  2 23  1  0
  2 24  1  0
  3 25  1  0
  3 26  1  0
  4 27  1  0
  4 28  1  0
  5 29  1  0
  5 30  1  0
  8 31  1  0
  9 32  1  0
 10 33  1  0
 11 34  1  0
 15 35  1  0
 16 36  1  0
 19 37  1  0
M  END
$$$$
