
     RDKit          3D

 61 64  0  0  0  0  0  0  0  0999 V2000
   -5.2491    0.9034   -4.1795 C   0  0  0  0  0  0  0  0  0  0  0  0
   -6.2772    0.3970   -3.3371 O   0  0  0  0  0  0  0  0  0  0  0  0
   -5.8961   -0.1307   -2.1339 C   0  0  0  0  0  0  0  0  0  0  0  0
   -6.9163   -0.7770   -1.4282 C   0  0  0  0  0  0  0  0  0  0  0  0
   -6.6757   -1.3795   -0.1904 C   0  0  0  0  0  0  0  0  0  0  0  0
   -7.7649   -1.9833    0.3736 O   0  0  0  0  0  0  0  0  0  0  0  0
   -7.5596   -2.6520    1.6142 C   0  0  0  0  0  0  0  0  0  0  0  0
   -5.3977   -1.3183    0.3574 C   0  0  0  0  0  0  0  0  0  0  0  0
   -4.3773   -0.6455   -0.3283 C   0  0  0  0  0  0  0  0  0  0  0  0
   -3.0335   -0.5832    0.3019 C   0  0  0  0  0  0  0  0  0  0  0  0
   -2.6189   -1.5591    0.9195 O   0  0  0  0  0  0  0  0  0  0  0  0
   -2.3755    0.6297    0.1520 N   0  0  0  0  0  0  0  0  0  0  0  0
   -1.1470    0.8011    0.7138 N   0  0  0  0  0  0  0  0  0  0  0  0
   -0.6323    1.9822    0.5987 C   0  0  0  0  0  0  0  0  0  0  0  0
    0.6945    2.3023    1.1606 C   0  0  0  0  0  0  0  0  0  0  0  0
    1.1993    3.5944    1.0182 C   0  0  0  0  0  0  0  0  0  0  0  0
    2.4566    3.9064    1.5410 C   0  0  0  0  0  0  0  0  0  0  0  0
    3.2186    2.9255    2.1875 C   0  0  0  0  0  0  0  0  0  0  0  0
    4.4396    3.1838    2.7531 O   0  0  0  0  0  0  0  0  0  0  0  0
    5.2628    4.0887    2.0198 C   0  0  0  0  0  0  0  0  0  0  0  0
    2.7117    1.6233    2.3399 C   0  0  0  0  0  0  0  0  0  0  0  0
    3.5180    0.5394    3.0221 C   0  0  0  0  0  0  0  0  0  0  0  0
    4.7243    0.2275    2.3189 O   0  0  0  0  0  0  0  0  0  0  0  0
    4.6649   -0.5473    1.1944 C   0  0  0  0  0  0  0  0  0  0  0  0
    5.8379   -0.5538    0.4389 C   0  0  0  0  0  0  0  0  0  0  0  0
    5.9256   -1.2974   -0.7403 C   0  0  0  0  0  0  0  0  0  0  0  0
    4.8342   -2.0550   -1.1855 C   0  0  0  0  0  0  0  0  0  0  0  0
    4.8973   -2.8070   -2.3704 C   0  0  0  0  0  0  0  0  0  0  0  0
    3.8004   -3.5574   -2.7975 C   0  0  0  0  0  0  0  0  0  0  0  0
    2.6283   -3.5647   -2.0469 C   0  0  0  0  0  0  0  0  0  0  0  0
    2.5507   -2.8226   -0.8668 C   0  0  0  0  0  0  0  0  0  0  0  0
    3.6454   -2.0630   -0.4211 C   0  0  0  0  0  0  0  0  0  0  0  0
    3.5794   -1.3125    0.7685 C   0  0  0  0  0  0  0  0  0  0  0  0
    1.4386    1.3249    1.8269 C   0  0  0  0  0  0  0  0  0  0  0  0
   -4.6189   -0.0656   -1.5812 C   0  0  0  0  0  0  0  0  0  0  0  0
   -5.7106    1.2126   -5.1229 H   0  0  0  0  0  0  0  0  0  0  0  0
   -4.5059    0.1308   -4.4076 H   0  0  0  0  0  0  0  0  0  0  0  0
   -4.7773    1.7862   -3.7348 H   0  0  0  0  0  0  0  0  0  0  0  0
   -7.9153   -0.8244   -1.8578 H   0  0  0  0  0  0  0  0  0  0  0  0
   -6.8323   -3.4654    1.5082 H   0  0  0  0  0  0  0  0  0  0  0  0
   -8.5139   -3.0949    1.9189 H   0  0  0  0  0  0  0  0  0  0  0  0
   -7.2563   -1.9466    2.3948 H   0  0  0  0  0  0  0  0  0  0  0  0
   -5.1628   -1.7737    1.3148 H   0  0  0  0  0  0  0  0  0  0  0  0
   -2.8420    1.4251   -0.2681 H   0  0  0  0  0  0  0  0  0  0  0  0
   -1.1608    2.7989    0.0761 H   0  0  0  0  0  0  0  0  0  0  0  0
    0.6273    4.3682    0.5140 H   0  0  0  0  0  0  0  0  0  0  0  0
    2.8177    4.9263    1.4492 H   0  0  0  0  0  0  0  0  0  0  0  0
    5.2544    3.8700    0.9457 H   0  0  0  0  0  0  0  0  0  0  0  0
    4.9611    5.1239    2.2128 H   0  0  0  0  0  0  0  0  0  0  0  0
    6.2901    3.9688    2.3769 H   0  0  0  0  0  0  0  0  0  0  0  0
    2.9286   -0.3617    3.2286 H   0  0  0  0  0  0  0  0  0  0  0  0
    3.8142    0.9095    4.0120 H   0  0  0  0  0  0  0  0  0  0  0  0
    6.6920    0.0314    0.7702 H   0  0  0  0  0  0  0  0  0  0  0  0
    6.8534   -1.2777   -1.3072 H   0  0  0  0  0  0  0  0  0  0  0  0
    5.8054   -2.8137   -2.9693 H   0  0  0  0  0  0  0  0  0  0  0  0
    3.8618   -4.1355   -3.7156 H   0  0  0  0  0  0  0  0  0  0  0  0
    1.7722   -4.1468   -2.3774 H   0  0  0  0  0  0  0  0  0  0  0  0
    1.6231   -2.8393   -0.2960 H   0  0  0  0  0  0  0  0  0  0  0  0
    2.6631   -1.3545    1.3452 H   0  0  0  0  0  0  0  0  0  0  0  0
    1.0262    0.3233    1.9384 H   0  0  0  0  0  0  0  0  0  0  0  0
   -3.8014    0.4046   -2.1152 H   0  0  0  0  0  0  0  0  0  0  0  0
  1  2  1  0
  2  3  1  0
  3  4  2  0
  4  5  1  0
  5  6  1  0
  6  7  1  0
  5  8  2  0
  8  9  1  0
  9 10  1  0
 10 11  2  0
 10 12  1  0
 12 13  1  0
 13 14  2  3
 14 15  1  0
 15 16  2  0
 16 17  1  0
 17 18  2  0
 18 19  1  0
 19 20  1  0
 18 21  1  0
 21 22  1  0
 22 23  1  0
 23 24  1  0
 24 25  2  0
 25 26  1  0
 26 27  2  0
 27 28  1  0
 28 29  2  0
 29 30  1  0
 30 31  2  0
 31 32  1  0
 32 33  2  0
 21 34  2  0
  9 35  2  0
 35  3  1  0
 34 15  1  0
 33 24  1  0
 32 27  1  0
  1 36  1  0
  1 37  1  0
  1 38  1  0
  4 39  1  0
  7 40  1  0
  7 41  1  0
  7 42  1  0
  8 43  1  0
 12 44  1  0
 14 45  1  0
 16 46  1  0
 17 47  1  0
 20 48  1  0
 20 49  1  0
 20 50  1  0
 22 51  1  0
 22 52  1  0
 25 53  1  0
 26 54  1  0
 28 55  1  0
 29 56  1  0
 30 57  1  0
 31 58  1  0
 33 59  1  0
 34 60  1  0
 35 61  1  0
M  END
$$$$
