
     RDKit          3D

 61 64  0  0  0  0  0  0  0  0999 V2000
  -10.0722    1.8386    0.1221 C   0  0  0  0  0  0  0  0  0  0  0  0
   -8.6780    1.9382    0.3897 O   0  0  0  0  0  0  0  0  0  0  0  0
   -7.8800    0.9532   -0.1226 C   0  0  0  0  0  0  0  0  0  0  0  0
   -8.2982   -0.1092   -0.9256 C   0  0  0  0  0  0  0  0  0  0  0  0
   -7.3792   -1.0552   -1.3975 C   0  0  0  0  0  0  0  0  0  0  0  0
   -7.9243   -2.0384   -2.1800 O   0  0  0  0  0  0  0  0  0  0  0  0
   -7.0278   -3.0106   -2.7103 C   0  0  0  0  0  0  0  0  0  0  0  0
   -6.0336   -0.9389   -1.0539 C   0  0  0  0  0  0  0  0  0  0  0  0
   -5.6059    0.1185   -0.2402 C   0  0  0  0  0  0  0  0  0  0  0  0
   -4.1561    0.2088    0.0954 C   0  0  0  0  0  0  0  0  0  0  0  0
   -3.3402   -0.2708   -0.6860 O   0  0  0  0  0  0  0  0  0  0  0  0
   -3.8660    0.8128    1.3157 N   0  0  0  0  0  0  0  0  0  0  0  0
   -2.6202    0.8736    1.8903 N   0  0  0  0  0  0  0  0  0  0  0  0
   -1.5990    1.0376    1.1083 C   0  0  0  0  0  0  0  0  0  0  0  0
   -0.2165    1.0632    1.6283 C   0  0  0  0  0  0  0  0  0  0  0  0
    0.0423    0.9437    2.9951 C   0  0  0  0  0  0  0  0  0  0  0  0
    1.3599    0.9617    3.4553 C   0  0  0  0  0  0  0  0  0  0  0  0
    2.4171    1.0877    2.5479 C   0  0  0  0  0  0  0  0  0  0  0  0
    3.7196    1.1281    2.9718 O   0  0  0  0  0  0  0  0  0  0  0  0
    4.0781   -0.0196    3.7397 C   0  0  0  0  0  0  0  0  0  0  0  0
    2.1676    1.2385    1.1752 C   0  0  0  0  0  0  0  0  0  0  0  0
    3.2991    1.3623    0.1842 C   0  0  0  0  0  0  0  0  0  0  0  0
    3.7450    0.0440   -0.1406 O   0  0  0  0  0  0  0  0  0  0  0  0
    4.9776   -0.0065   -0.7324 C   0  0  0  0  0  0  0  0  0  0  0  0
    5.4391    0.9186   -1.6661 C   0  0  0  0  0  0  0  0  0  0  0  0
    6.7145    0.7710   -2.2198 C   0  0  0  0  0  0  0  0  0  0  0  0
    7.5392   -0.3052   -1.8529 C   0  0  0  0  0  0  0  0  0  0  0  0
    8.8255   -0.4595   -2.3939 C   0  0  0  0  0  0  0  0  0  0  0  0
    9.6326   -1.5376   -2.0201 C   0  0  0  0  0  0  0  0  0  0  0  0
    9.1628   -2.4745   -1.1038 C   0  0  0  0  0  0  0  0  0  0  0  0
    7.8847   -2.3350   -0.5575 C   0  0  0  0  0  0  0  0  0  0  0  0
    7.0614   -1.2559   -0.9220 C   0  0  0  0  0  0  0  0  0  0  0  0
    5.7758   -1.0986   -0.3808 C   0  0  0  0  0  0  0  0  0  0  0  0
    0.8385    1.2082    0.7213 C   0  0  0  0  0  0  0  0  0  0  0  0
   -6.5294    1.0692    0.2109 C   0  0  0  0  0  0  0  0  0  0  0  0
  -10.2750    1.9455   -0.9489 H   0  0  0  0  0  0  0  0  0  0  0  0
  -10.5721    2.6619    0.6403 H   0  0  0  0  0  0  0  0  0  0  0  0
  -10.4837    0.9025    0.5133 H   0  0  0  0  0  0  0  0  0  0  0  0
   -9.3385   -0.2293   -1.2143 H   0  0  0  0  0  0  0  0  0  0  0  0
   -6.2806   -2.5457   -3.3636 H   0  0  0  0  0  0  0  0  0  0  0  0
   -7.6123   -3.7099   -3.3171 H   0  0  0  0  0  0  0  0  0  0  0  0
   -6.5515   -3.5839   -1.9083 H   0  0  0  0  0  0  0  0  0  0  0  0
   -5.2941   -1.6552   -1.4012 H   0  0  0  0  0  0  0  0  0  0  0  0
   -4.6163    0.8800    1.9988 H   0  0  0  0  0  0  0  0  0  0  0  0
   -1.7012    1.1971    0.0212 H   0  0  0  0  0  0  0  0  0  0  0  0
   -0.7745    0.8350    3.7044 H   0  0  0  0  0  0  0  0  0  0  0  0
    1.5500    0.8826    4.5227 H   0  0  0  0  0  0  0  0  0  0  0  0
    5.1685   -0.1112    3.7142 H   0  0  0  0  0  0  0  0  0  0  0  0
    3.7741    0.1084    4.7835 H   0  0  0  0  0  0  0  0  0  0  0  0
    3.6547   -0.9420    3.3244 H   0  0  0  0  0  0  0  0  0  0  0  0
    4.1078    1.9662    0.6125 H   0  0  0  0  0  0  0  0  0  0  0  0
    2.9369    1.8656   -0.7207 H   0  0  0  0  0  0  0  0  0  0  0  0
    4.8222    1.7493   -1.9942 H   0  0  0  0  0  0  0  0  0  0  0  0
    7.0597    1.5040   -2.9470 H   0  0  0  0  0  0  0  0  0  0  0  0
    9.2103    0.2610   -3.1128 H   0  0  0  0  0  0  0  0  0  0  0  0
   10.6274   -1.6433   -2.4438 H   0  0  0  0  0  0  0  0  0  0  0  0
    9.7905   -3.3130   -0.8119 H   0  0  0  0  0  0  0  0  0  0  0  0
    7.5343   -3.0746    0.1591 H   0  0  0  0  0  0  0  0  0  0  0  0
    5.3886   -1.8222    0.3333 H   0  0  0  0  0  0  0  0  0  0  0  0
    0.6332    1.2858   -0.3441 H   0  0  0  0  0  0  0  0  0  0  0  0
   -6.2122    1.9236    0.8027 H   0  0  0  0  0  0  0  0  0  0  0  0
  1  2  1  0
  2  3  1  0
  3  4  2  0
  4  5  1  0
  5  6  1  0
  6  7  1  0
  5  8  2  0
  8  9  1  0
  9 10  1  0
 10 11  2  0
 10 12  1  0
 12 13  1  0
 13 14  2  3
 14 15  1  0
 15 16  2  0
 16 17  1  0
 17 18  2  0
 18 19  1  0
 19 20  1  0
 18 21  1  0
 21 22  1  0
 22 23  1  0
 23 24  1  0
 24 25  2  0
 25 26  1  0
 26 27  2  0
 27 28  1  0
 28 29  2  0
 29 30  1  0
 30 31  2  0
 31 32  1  0
 32 33  2  0
 21 34  2  0
  9 35  2  0
 35  3  1  0
 34 15  1  0
 33 24  1  0
 32 27  1  0
  1 36  1  0
  1 37  1  0
  1 38  1  0
  4 39  1  0
  7 40  1  0
  7 41  1  0
  7 42  1  0
  8 43  1  0
 12 44  1  0
 14 45  1  0
 16 46  1  0
 17 47  1  0
 20 48  1  0
 20 49  1  0
 20 50  1  0
 22 51  1  0
 22 52  1  0
 25 53  1  0
 26 54  1  0
 28 55  1  0
 29 56  1  0
 30 57  1  0
 31 58  1  0
 33 59  1  0
 34 60  1  0
 35 61  1  0
M  END
$$$$
