
     RDKit          3D

 63 66  0  0  0  0  0  0  0  0999 V2000
   -5.4044   -2.5727   -0.6032 C   0  0  0  0  0  0  0  0  0  0  0  0
   -4.1417   -1.7877   -0.3800 C   0  0  0  0  0  0  0  0  0  0  0  0
   -2.9910   -2.4736    0.0338 C   0  0  0  0  0  0  0  0  0  0  0  0
   -1.7715   -1.8089    0.2139 C   0  0  0  0  0  0  0  0  0  0  0  0
   -1.6659   -0.4410   -0.0269 C   0  0  0  0  0  0  0  0  0  0  0  0
   -0.4719    0.2964    0.1191 N   0  0  0  0  0  0  0  0  0  0  0  0
    0.7840   -0.2008    0.4115 C   0  0  0  0  0  0  0  0  0  0  0  0
    1.1063   -1.3745    0.5447 O   0  0  0  0  0  0  0  0  0  0  0  0
    1.8483    0.8282    0.5356 C   0  0  0  0  0  0  0  0  0  0  0  0
    1.6251    2.0282    1.2277 C   0  0  0  0  0  0  0  0  0  0  0  0
    2.6568    2.9607    1.3605 C   0  0  0  0  0  0  0  0  0  0  0  0
    3.9148    2.6937    0.8183 C   0  0  0  0  0  0  0  0  0  0  0  0
    4.1318    1.4910    0.1400 C   0  0  0  0  0  0  0  0  0  0  0  0
    5.7388    1.1309   -0.5335 S   0  0  0  0  0  6  0  0  0  0  0  0
    5.5851    1.1780   -1.9714 O   0  0  0  0  0  0  0  0  0  0  0  0
    6.6963    1.9745    0.1544 O   0  0  0  0  0  0  0  0  0  0  0  0
    6.0070   -0.4857   -0.0285 N   0  0  0  0  0  0  0  0  0  0  0  0
    6.1642   -0.6743    1.4335 C   0  0  0  0  0  0  0  0  0  0  0  0
    6.9834   -1.1943   -0.8141 C   0  0  0  0  0  0  0  0  0  0  0  0
    6.5891   -2.3918   -1.4143 C   0  0  0  0  0  0  0  0  0  0  0  0
    7.5105   -3.1452   -2.1431 C   0  0  0  0  0  0  0  0  0  0  0  0
    8.8320   -2.7118   -2.2556 C   0  0  0  0  0  0  0  0  0  0  0  0
    9.2335   -1.5284   -1.6366 C   0  0  0  0  0  0  0  0  0  0  0  0
    8.3123   -0.7726   -0.9086 C   0  0  0  0  0  0  0  0  0  0  0  0
    3.1060    0.5541   -0.0082 C   0  0  0  0  0  0  0  0  0  0  0  0
   -2.8047    0.2575   -0.4359 C   0  0  0  0  0  0  0  0  0  0  0  0
   -4.0325   -0.4056   -0.6120 C   0  0  0  0  0  0  0  0  0  0  0  0
   -5.4186    0.5641   -1.1822 S   0  0  0  0  0  6  0  0  0  0  0  0
   -6.0048   -0.1240   -2.3117 O   0  0  0  0  0  0  0  0  0  0  0  0
   -4.9980    1.9475   -1.2906 O   0  0  0  0  0  0  0  0  0  0  0  0
   -6.5094    0.4891    0.1243 N   0  0  0  0  0  0  0  0  0  0  0  0
   -7.9156    0.8392   -0.2617 C   0  0  0  0  0  0  0  0  0  0  0  0
   -8.7485    1.1436    0.9869 C   0  0  0  0  0  0  0  0  0  0  0  0
   -8.2679    2.2856    1.7151 O   0  0  0  0  0  0  0  0  0  0  0  0
   -6.8513    2.4853    1.5849 C   0  0  0  0  0  0  0  0  0  0  0  0
   -6.0800    1.1766    1.3852 C   0  0  0  0  0  0  0  0  0  0  0  0
   -5.3250   -3.5811   -0.1822 H   0  0  0  0  0  0  0  0  0  0  0  0
   -5.6007   -2.6765   -1.6747 H   0  0  0  0  0  0  0  0  0  0  0  0
   -6.2587   -2.0990   -0.1193 H   0  0  0  0  0  0  0  0  0  0  0  0
   -3.0242   -3.5470    0.2150 H   0  0  0  0  0  0  0  0  0  0  0  0
   -0.9192   -2.4004    0.5326 H   0  0  0  0  0  0  0  0  0  0  0  0
   -0.5316    1.2833   -0.0999 H   0  0  0  0  0  0  0  0  0  0  0  0
    0.6633    2.2351    1.6921 H   0  0  0  0  0  0  0  0  0  0  0  0
    2.4839    3.8921    1.8941 H   0  0  0  0  0  0  0  0  0  0  0  0
    4.7159    3.4225    0.9269 H   0  0  0  0  0  0  0  0  0  0  0  0
    7.1000   -0.2392    1.7970 H   0  0  0  0  0  0  0  0  0  0  0  0
    5.3285   -0.2278    1.9778 H   0  0  0  0  0  0  0  0  0  0  0  0
    6.1617   -1.7433    1.6728 H   0  0  0  0  0  0  0  0  0  0  0  0
    5.5619   -2.7345   -1.3270 H   0  0  0  0  0  0  0  0  0  0  0  0
    7.1969   -4.0674   -2.6247 H   0  0  0  0  0  0  0  0  0  0  0  0
    9.5491   -3.2977   -2.8272 H   0  0  0  0  0  0  0  0  0  0  0  0
   10.2635   -1.1926   -1.7202 H   0  0  0  0  0  0  0  0  0  0  0  0
    8.6428    0.1426   -0.4246 H   0  0  0  0  0  0  0  0  0  0  0  0
    3.2817   -0.3795   -0.5401 H   0  0  0  0  0  0  0  0  0  0  0  0
   -2.7397    1.3247   -0.6377 H   0  0  0  0  0  0  0  0  0  0  0  0
   -7.9103    1.7203   -0.9160 H   0  0  0  0  0  0  0  0  0  0  0  0
   -8.3561   -0.0032   -0.8040 H   0  0  0  0  0  0  0  0  0  0  0  0
   -9.7856    1.3503    0.7078 H   0  0  0  0  0  0  0  0  0  0  0  0
   -8.7568    0.2863    1.6688 H   0  0  0  0  0  0  0  0  0  0  0  0
   -6.6851    3.1688    0.7445 H   0  0  0  0  0  0  0  0  0  0  0  0
   -6.5099    2.9917    2.4939 H   0  0  0  0  0  0  0  0  0  0  0  0
   -6.2896    0.4876    2.2109 H   0  0  0  0  0  0  0  0  0  0  0  0
   -5.0044    1.3687    1.3920 H   0  0  0  0  0  0  0  0  0  0  0  0
  1  2  1  0
  2  3  2  0
  3  4  1  0
  4  5  2  0
  5  6  1  0
  6  7  1  0
  7  8  2  0
  7  9  1  0
  9 10  2  0
 10 11  1  0
 11 12  2  0
 12 13  1  0
 13 14  1  0
 14 15  2  0
 14 16  2  0
 14 17  1  0
 17 18  1  0
 17 19  1  0
 19 20  2  0
 20 21  1  0
 21 22  2  0
 22 23  1  0
 23 24  2  0
 13 25  2  0
  5 26  1  0
 26 27  2  0
 27 28  1  0
 28 29  2  0
 28 30  2  0
 28 31  1  0
 31 32  1  0
 32 33  1  0
 33 34  1  0
 34 35  1  0
 35 36  1  0
 27  2  1  0
 36 31  1  0
 25  9  1  0
 24 19  1  0
  1 37  1  0
  1 38  1  0
  1 39  1  0
  3 40  1  0
  4 41  1  0
  6 42  1  0
 10 43  1  0
 11 44  1  0
 12 45  1  0
 18 46  1  0
 18 47  1  0
 18 48  1  0
 20 49  1  0
 21 50  1  0
 22 51  1  0
 23 52  1  0
 24 53  1  0
 25 54  1  0
 26 55  1  0
 32 56  1  0
 32 57  1  0
 33 58  1  0
 33 59  1  0
 35 60  1  0
 35 61  1  0
 36 62  1  0
 36 63  1  0
M  END
$$$$
