
     RDKit          3D

 38 38  0  0  0  0  0  0  0  0999 V2000
    4.4494    2.5846    3.2807 C   0  0  0  0  0  0  0  0  0  0  0  0
    4.8703    1.3951    2.6244 O   0  0  0  0  0  0  0  0  0  0  0  0
    4.0069    1.0242    1.5477 C   0  0  0  0  0  0  0  0  0  0  0  0
    2.7630    0.2839    2.0487 C   0  0  0  0  0  0  0  0  0  0  0  0
    1.9436   -0.2455    0.9729 N   0  0  0  0  0  0  0  0  0  0  0  0
    1.1282    0.5753    0.2248 C   0  0  0  0  0  0  0  0  0  0  0  0
    1.0705    1.7869    0.4239 O   0  0  0  0  0  0  0  0  0  0  0  0
    0.3222   -0.0864   -0.8520 C   0  0  0  0  0  0  0  0  0  0  0  0
    0.4671   -1.4790   -1.0954 C   0  0  0  0  0  0  0  0  0  0  0  0
    0.6494   -2.6141   -1.2611 N   0  0  0  0  0  0  0  0  0  0  0  0
   -0.4984    0.7004   -1.5770 C   0  0  0  0  0  0  0  0  0  0  0  0
   -1.3799    0.2720   -2.6553 C   0  0  0  0  0  0  0  0  0  0  0  0
   -1.0089    0.8078   -4.0122 C   0  0  0  0  0  0  0  0  0  0  0  0
   -2.4571   -0.5203   -2.4864 C   0  0  0  0  0  0  0  0  0  0  0  0
   -2.9520   -1.0534   -1.2102 C   0  0  0  0  0  0  0  0  0  0  0  0
   -3.0329   -2.4384   -1.0294 C   0  0  0  0  0  0  0  0  0  0  0  0
   -3.5025   -2.9654    0.1752 C   0  0  0  0  0  0  0  0  0  0  0  0
   -3.9036   -2.1121    1.2018 C   0  0  0  0  0  0  0  0  0  0  0  0
   -3.8387   -0.7313    1.0248 C   0  0  0  0  0  0  0  0  0  0  0  0
   -3.3670   -0.2030   -0.1785 C   0  0  0  0  0  0  0  0  0  0  0  0
    5.1821    2.8217    4.0571 H   0  0  0  0  0  0  0  0  0  0  0  0
    4.4094    3.4207    2.5755 H   0  0  0  0  0  0  0  0  0  0  0  0
    3.4760    2.4453    3.7586 H   0  0  0  0  0  0  0  0  0  0  0  0
    3.7488    1.9008    0.9424 H   0  0  0  0  0  0  0  0  0  0  0  0
    4.5816    0.3535    0.8989 H   0  0  0  0  0  0  0  0  0  0  0  0
    2.1437    0.9448    2.6650 H   0  0  0  0  0  0  0  0  0  0  0  0
    3.0588   -0.5582    2.6840 H   0  0  0  0  0  0  0  0  0  0  0  0
    2.0050   -1.2413    0.7918 H   0  0  0  0  0  0  0  0  0  0  0  0
   -0.5293    1.7733   -1.3819 H   0  0  0  0  0  0  0  0  0  0  0  0
   -0.0064    0.4696   -4.2969 H   0  0  0  0  0  0  0  0  0  0  0  0
   -1.7029    0.4718   -4.7904 H   0  0  0  0  0  0  0  0  0  0  0  0
   -1.0185    1.9036   -4.0114 H   0  0  0  0  0  0  0  0  0  0  0  0
   -3.0540   -0.8151   -3.3480 H   0  0  0  0  0  0  0  0  0  0  0  0
   -2.7144   -3.1171   -1.8177 H   0  0  0  0  0  0  0  0  0  0  0  0
   -3.5496   -4.0428    0.3144 H   0  0  0  0  0  0  0  0  0  0  0  0
   -4.2702   -2.5236    2.1385 H   0  0  0  0  0  0  0  0  0  0  0  0
   -4.1585   -0.0648    1.8217 H   0  0  0  0  0  0  0  0  0  0  0  0
   -3.3308    0.8763   -0.3054 H   0  0  0  0  0  0  0  0  0  0  0  0
  1  2  1  0
  2  3  1  0
  3  4  1  0
  4  5  1  0
  5  6  1  0
  6  7  2  0
  6  8  1  0
  8  9  1  0
  9 10  3  0
  8 11  2  3
 11 12  1  0
 12 13  1  0
 12 14  2  3
 14 15  1  0
 15 16  2  0
 16 17  1  0
 17 18  2  0
 18 19  1  0
 19 20  2  0
 20 15  1  0
  1 21  1  0
  1 22  1  0
  1 23  1  0
  3 24  1  0
  3 25  1  0
  4 26  1  0
  4 27  1  0
  5 28  1  0
 11 29  1  0
 13 30  1  0
 13 31  1  0
 13 32  1  0
 14 33  1  0
 16 34  1  0
 17 35  1  0
 18 36  1  0
 19 37  1  0
 20 38  1  0
M  END
$$$$
