
     RDKit          3D

 57 59  0  0  0  0  0  0  0  0999 V2000
   -8.4893    2.2432   -2.4639 C   0  0  0  0  0  0  0  0  0  0  0  0
   -7.1992    1.9437   -2.9813 O   0  0  0  0  0  0  0  0  0  0  0  0
   -6.2673    1.4796   -2.0942 C   0  0  0  0  0  0  0  0  0  0  0  0
   -6.4849    1.2155   -0.7389 C   0  0  0  0  0  0  0  0  0  0  0  0
   -5.4421    0.7362    0.0609 C   0  0  0  0  0  0  0  0  0  0  0  0
   -4.1828    0.5181   -0.5027 C   0  0  0  0  0  0  0  0  0  0  0  0
   -2.8496   -0.0898    0.4978 S   0  0  0  0  0  6  0  0  0  0  0  0
   -3.3504   -0.3110    1.8381 O   0  0  0  0  0  0  0  0  0  0  0  0
   -1.7037    0.7586    0.2566 O   0  0  0  0  0  0  0  0  0  0  0  0
   -2.5456   -1.5926   -0.1739 N   0  0  0  0  0  0  0  0  0  0  0  0
   -3.6057   -2.6140   -0.1081 C   0  0  0  0  0  0  0  0  0  0  0  0
   -2.9122   -3.8124    0.4971 C   0  0  0  0  0  0  0  0  0  0  0  0
   -1.5602   -3.6879    0.0517 O   0  0  0  0  0  0  0  0  0  0  0  0
   -1.2585   -2.2767    0.1026 C   0  0  0  0  0  0  0  0  0  0  0  0
   -0.5704   -1.9626    1.4534 C   0  0  0  0  0  0  0  0  0  0  0  0
    0.2820   -0.7866    1.4112 N   0  0  0  0  0  0  0  0  0  0  0  0
    1.6231   -0.8225    1.7116 C   0  0  0  0  0  0  0  0  0  0  0  0
    2.2577   -1.8155    2.0414 O   0  0  0  0  0  0  0  0  0  0  0  0
    2.3358    0.5460    1.5997 C   0  0  0  0  0  0  0  0  0  0  0  0
    1.7390    1.5231    1.1724 O   0  0  0  0  0  0  0  0  0  0  0  0
    3.6464    0.5110    2.0105 N   0  0  0  0  0  0  0  0  0  0  0  0
    4.5525    1.6113    1.7998 C   0  0  0  0  0  0  0  0  0  0  0  0
    5.3620    1.4069    0.5426 C   0  0  0  0  0  0  0  0  0  0  0  0
    4.8657    1.9047   -0.6751 C   0  0  0  0  0  0  0  0  0  0  0  0
    5.5725    1.7172   -1.8609 C   0  0  0  0  0  0  0  0  0  0  0  0
    6.7782    1.0236   -1.8434 C   0  0  0  0  0  0  0  0  0  0  0  0
    7.2768    0.5105   -0.6428 C   0  0  0  0  0  0  0  0  0  0  0  0
    6.5739    0.6911    0.5537 C   0  0  0  0  0  0  0  0  0  0  0  0
    6.9744    0.2118    1.7743 O   0  0  0  0  0  0  0  0  0  0  0  0
    8.1791   -0.5426    1.8182 C   0  0  0  0  0  0  0  0  0  0  0  0
   -3.9506    0.7875   -1.8525 C   0  0  0  0  0  0  0  0  0  0  0  0
   -4.9982    1.2639   -2.6427 C   0  0  0  0  0  0  0  0  0  0  0  0
   -9.1044    2.6105   -3.2912 H   0  0  0  0  0  0  0  0  0  0  0  0
   -8.9727    1.3461   -2.0639 H   0  0  0  0  0  0  0  0  0  0  0  0
   -8.4370    3.0344   -1.7092 H   0  0  0  0  0  0  0  0  0  0  0  0
   -7.4522    1.3755   -0.2733 H   0  0  0  0  0  0  0  0  0  0  0  0
   -5.6223    0.5408    1.1162 H   0  0  0  0  0  0  0  0  0  0  0  0
   -4.4821   -2.3244    0.4767 H   0  0  0  0  0  0  0  0  0  0  0  0
   -3.9307   -2.8275   -1.1321 H   0  0  0  0  0  0  0  0  0  0  0  0
   -2.9289   -3.7819    1.5928 H   0  0  0  0  0  0  0  0  0  0  0  0
   -3.3358   -4.7625    0.1621 H   0  0  0  0  0  0  0  0  0  0  0  0
   -0.5670   -2.0729   -0.7230 H   0  0  0  0  0  0  0  0  0  0  0  0
    0.0357   -2.8263    1.7512 H   0  0  0  0  0  0  0  0  0  0  0  0
   -1.2987   -1.8169    2.2566 H   0  0  0  0  0  0  0  0  0  0  0  0
   -0.1071    0.1203    1.1318 H   0  0  0  0  0  0  0  0  0  0  0  0
    4.0340   -0.4055    2.2162 H   0  0  0  0  0  0  0  0  0  0  0  0
    5.1998    1.6871    2.6803 H   0  0  0  0  0  0  0  0  0  0  0  0
    3.9935    2.5530    1.7407 H   0  0  0  0  0  0  0  0  0  0  0  0
    3.9154    2.4369   -0.6984 H   0  0  0  0  0  0  0  0  0  0  0  0
    5.1789    2.1072   -2.7960 H   0  0  0  0  0  0  0  0  0  0  0  0
    7.3311    0.8737   -2.7676 H   0  0  0  0  0  0  0  0  0  0  0  0
    8.2167   -0.0297   -0.6787 H   0  0  0  0  0  0  0  0  0  0  0  0
    9.0369    0.0669    1.5173 H   0  0  0  0  0  0  0  0  0  0  0  0
    8.1003   -1.4479    1.2078 H   0  0  0  0  0  0  0  0  0  0  0  0
    8.3407   -0.8548    2.8548 H   0  0  0  0  0  0  0  0  0  0  0  0
   -2.9677    0.6311   -2.2907 H   0  0  0  0  0  0  0  0  0  0  0  0
   -4.8245    1.4777   -3.6957 H   0  0  0  0  0  0  0  0  0  0  0  0
  1  2  1  0
  2  3  1  0
  3  4  2  0
  4  5  1  0
  5  6  2  0
  6  7  1  0
  7  8  2  0
  7  9  2  0
  7 10  1  0
 10 11  1  0
 11 12  1  0
 12 13  1  0
 13 14  1  0
 14 15  1  0
 15 16  1  0
 16 17  1  0
 17 18  2  0
 17 19  1  0
 19 20  2  0
 19 21  1  0
 21 22  1  0
 22 23  1  0
 23 24  2  0
 24 25  1  0
 25 26  2  0
 26 27  1  0
 27 28  2  0
 28 29  1  0
 29 30  1  0
  6 31  1  0
 31 32  2  0
 32  3  1  0
 14 10  1  0
 28 23  1  0
  1 33  1  0
  1 34  1  0
  1 35  1  0
  4 36  1  0
  5 37  1  0
 11 38  1  0
 11 39  1  0
 12 40  1  0
 12 41  1  0
 14 42  1  0
 15 43  1  0
 15 44  1  0
 16 45  1  0
 21 46  1  0
 22 47  1  0
 22 48  1  0
 24 49  1  0
 25 50  1  0
 26 51  1  0
 27 52  1  0
 30 53  1  0
 30 54  1  0
 30 55  1  0
 31 56  1  0
 32 57  1  0
M  END
$$$$
