
     RDKit          3D

 46 48  0  0  0  0  0  0  0  0999 V2000
   -7.2593   -2.7465   -0.4487 C   0  0  0  0  0  0  0  0  0  0  0  0
   -6.3105   -2.6638    0.6068 O   0  0  0  0  0  0  0  0  0  0  0  0
   -5.4573   -1.5937    0.5979 C   0  0  0  0  0  0  0  0  0  0  0  0
   -4.5553   -1.5673    1.6618 C   0  0  0  0  0  0  0  0  0  0  0  0
   -3.6270   -0.5336    1.7783 C   0  0  0  0  0  0  0  0  0  0  0  0
   -3.5872    0.4881    0.8221 C   0  0  0  0  0  0  0  0  0  0  0  0
   -2.6075    1.5751    0.9678 C   0  0  0  0  0  0  0  0  0  0  0  0
   -1.2837    1.4669    0.7927 C   0  0  0  0  0  0  0  0  0  0  0  0
   -0.3870    0.0466    0.3545 S   0  0  0  0  0  0  0  0  0  0  0  0
    1.0999    0.9395    0.3634 C   0  0  0  0  0  0  0  0  0  0  0  0
    2.2833    0.3841    0.0805 C   0  0  0  0  0  0  0  0  0  0  0  0
    3.5465    1.1699    0.0955 C   0  0  0  0  0  0  0  0  0  0  0  0
    3.5463    2.3914    0.2210 O   0  0  0  0  0  0  0  0  0  0  0  0
    4.8296    0.4393   -0.0811 C   0  0  0  0  0  0  0  0  0  0  0  0
    5.0134   -0.8775    0.3565 C   0  0  0  0  0  0  0  0  0  0  0  0
    6.2451   -1.5125    0.1681 C   0  0  0  0  0  0  0  0  0  0  0  0
    7.3103   -0.8361   -0.4388 C   0  0  0  0  0  0  0  0  0  0  0  0
    8.6206   -1.5310   -0.6673 C   0  0  0  0  0  0  0  0  0  0  0  0
    7.1232    0.4814   -0.8719 C   0  0  0  0  0  0  0  0  0  0  0  0
    5.8945    1.1190   -0.6847 C   0  0  0  0  0  0  0  0  0  0  0  0
    0.8993    2.2456    0.6924 N   0  0  0  0  0  0  0  0  0  0  0  0
   -0.3861    2.6472    0.9460 C   0  0  0  0  0  0  0  0  0  0  0  0
   -0.7321    3.7765    1.2505 O   0  0  0  0  0  0  0  0  0  0  0  0
   -4.4996    0.4740   -0.2509 C   0  0  0  0  0  0  0  0  0  0  0  0
   -4.3997    1.5199   -1.1355 O   0  0  0  0  0  0  0  0  0  0  0  0
   -5.2913    1.5402   -2.2414 C   0  0  0  0  0  0  0  0  0  0  0  0
   -5.4287   -0.5717   -0.3561 C   0  0  0  0  0  0  0  0  0  0  0  0
   -7.9416   -1.8902   -0.4341 H   0  0  0  0  0  0  0  0  0  0  0  0
   -6.7622   -2.8408   -1.4197 H   0  0  0  0  0  0  0  0  0  0  0  0
   -7.8563   -3.6501   -0.2915 H   0  0  0  0  0  0  0  0  0  0  0  0
   -4.5769   -2.3581    2.4078 H   0  0  0  0  0  0  0  0  0  0  0  0
   -2.9382   -0.5316    2.6198 H   0  0  0  0  0  0  0  0  0  0  0  0
   -3.0431    2.5448    1.2026 H   0  0  0  0  0  0  0  0  0  0  0  0
    2.3414   -0.6631   -0.1896 H   0  0  0  0  0  0  0  0  0  0  0  0
    4.2248   -1.4236    0.8660 H   0  0  0  0  0  0  0  0  0  0  0  0
    6.3726   -2.5385    0.5085 H   0  0  0  0  0  0  0  0  0  0  0  0
    8.8109   -2.2731    0.1151 H   0  0  0  0  0  0  0  0  0  0  0  0
    8.6120   -2.0348   -1.6387 H   0  0  0  0  0  0  0  0  0  0  0  0
    9.4506   -0.8169   -0.6458 H   0  0  0  0  0  0  0  0  0  0  0  0
    7.9346    1.0235   -1.3534 H   0  0  0  0  0  0  0  0  0  0  0  0
    5.7708    2.1485   -1.0164 H   0  0  0  0  0  0  0  0  0  0  0  0
    1.6718    2.9074    0.7235 H   0  0  0  0  0  0  0  0  0  0  0  0
   -6.3315    1.6165   -1.9083 H   0  0  0  0  0  0  0  0  0  0  0  0
   -5.1430    0.6665   -2.8844 H   0  0  0  0  0  0  0  0  0  0  0  0
   -5.0667    2.4314   -2.8354 H   0  0  0  0  0  0  0  0  0  0  0  0
   -6.1297   -0.5889   -1.1795 H   0  0  0  0  0  0  0  0  0  0  0  0
  1  2  1  0
  2  3  1  0
  3  4  2  0
  4  5  1  0
  5  6  2  0
  6  7  1  0
  7  8  2  3
  8  9  1  0
  9 10  1  0
 10 11  2  3
 11 12  1  0
 12 13  2  0
 12 14  1  0
 14 15  2  0
 15 16  1  0
 16 17  2  0
 17 18  1  0
 17 19  1  0
 19 20  2  0
 10 21  1  0
 21 22  1  0
 22 23  2  0
  6 24  1  0
 24 25  1  0
 25 26  1  0
 24 27  2  0
 27  3  1  0
 22  8  1  0
 20 14  1  0
  1 28  1  0
  1 29  1  0
  1 30  1  0
  4 31  1  0
  5 32  1  0
  7 33  1  0
 11 34  1  0
 15 35  1  0
 16 36  1  0
 18 37  1  0
 18 38  1  0
 18 39  1  0
 19 40  1  0
 20 41  1  0
 21 42  1  0
 26 43  1  0
 26 44  1  0
 26 45  1  0
 27 46  1  0
M  END
$$$$
