
     RDKit          3D

 53 55  0  0  0  0  0  0  0  0999 V2000
   -6.6917   -2.4659   -0.7452 C   0  0  0  0  0  0  0  0  0  0  0  0
   -5.7007   -2.2527    0.2498 O   0  0  0  0  0  0  0  0  0  0  0  0
   -5.4793   -0.9628    0.6531 C   0  0  0  0  0  0  0  0  0  0  0  0
   -6.1736    0.1524    0.1737 C   0  0  0  0  0  0  0  0  0  0  0  0
   -5.8554    1.4338    0.6288 C   0  0  0  0  0  0  0  0  0  0  0  0
   -4.8403    1.6124    1.5632 C   0  0  0  0  0  0  0  0  0  0  0  0
   -4.1462    0.5076    2.0512 C   0  0  0  0  0  0  0  0  0  0  0  0
   -4.4657   -0.7880    1.6143 C   0  0  0  0  0  0  0  0  0  0  0  0
   -3.6777   -1.9589    2.1481 C   0  0  0  0  0  0  0  0  0  0  0  0
   -2.6245   -2.3267    1.2380 N   0  0  0  0  0  0  0  0  0  0  0  0
   -1.3455   -1.8432    1.3487 C   0  0  0  0  0  0  0  0  0  0  0  0
   -0.8981   -1.1873    2.2778 O   0  0  0  0  0  0  0  0  0  0  0  0
   -0.4542   -2.2039    0.1367 C   0  0  0  0  0  0  0  0  0  0  0  0
   -0.9455   -2.7508   -0.8421 O   0  0  0  0  0  0  0  0  0  0  0  0
    0.8683   -1.8515    0.2777 N   0  0  0  0  0  0  0  0  0  0  0  0
    1.8145   -1.9671   -0.8186 C   0  0  0  0  0  0  0  0  0  0  0  0
    1.9811   -0.6591   -1.6337 C   0  0  0  0  0  0  0  0  0  0  0  0
    2.3940   -0.9948   -2.9752 O   0  0  0  0  0  0  0  0  0  0  0  0
    3.8188   -0.9062   -2.9770 C   0  0  0  0  0  0  0  0  0  0  0  0
    4.1087    0.2964   -2.1098 C   0  0  0  0  0  0  0  0  0  0  0  0
    2.9951    0.3098   -1.1429 N   0  0  0  0  0  0  0  0  0  0  0  0
    3.3647    0.3585    0.4891 S   0  0  0  0  0  6  0  0  0  0  0  0
    4.3355   -0.6820    0.7429 O   0  0  0  0  0  0  0  0  0  0  0  0
    2.1288    0.4279    1.2370 O   0  0  0  0  0  0  0  0  0  0  0  0
    4.1753    1.9284    0.6571 C   0  0  0  0  0  0  0  0  0  0  0  0
    3.4211    3.0994    0.5302 C   0  0  0  0  0  0  0  0  0  0  0  0
    4.0446    4.3376    0.6893 C   0  0  0  0  0  0  0  0  0  0  0  0
    5.4086    4.3941    0.9780 C   0  0  0  0  0  0  0  0  0  0  0  0
    6.2512    6.0710    1.2015 Br  0  0  0  0  0  0  0  0  0  0  0  0
    6.1581    3.2245    1.1098 C   0  0  0  0  0  0  0  0  0  0  0  0
    5.5403    1.9835    0.9523 C   0  0  0  0  0  0  0  0  0  0  0  0
   -7.6852   -2.1752   -0.3846 H   0  0  0  0  0  0  0  0  0  0  0  0
   -6.7166   -3.5349   -0.9623 H   0  0  0  0  0  0  0  0  0  0  0  0
   -6.4391   -1.9453   -1.6716 H   0  0  0  0  0  0  0  0  0  0  0  0
   -6.9652    0.0624   -0.5625 H   0  0  0  0  0  0  0  0  0  0  0  0
   -6.3978    2.2950    0.2452 H   0  0  0  0  0  0  0  0  0  0  0  0
   -4.5840    2.6111    1.9066 H   0  0  0  0  0  0  0  0  0  0  0  0
   -3.3430    0.6572    2.7717 H   0  0  0  0  0  0  0  0  0  0  0  0
   -3.2549   -1.7225    3.1305 H   0  0  0  0  0  0  0  0  0  0  0  0
   -4.3241   -2.8305    2.2864 H   0  0  0  0  0  0  0  0  0  0  0  0
   -2.8759   -2.7631    0.3552 H   0  0  0  0  0  0  0  0  0  0  0  0
    1.0881   -1.2474    1.0766 H   0  0  0  0  0  0  0  0  0  0  0  0
    1.4664   -2.7624   -1.4892 H   0  0  0  0  0  0  0  0  0  0  0  0
    2.7661   -2.3163   -0.4054 H   0  0  0  0  0  0  0  0  0  0  0  0
    1.0184   -0.1435   -1.7176 H   0  0  0  0  0  0  0  0  0  0  0  0
    4.2347   -1.8264   -2.5484 H   0  0  0  0  0  0  0  0  0  0  0  0
    4.1891   -0.7912   -3.9993 H   0  0  0  0  0  0  0  0  0  0  0  0
    4.0528    1.2215   -2.6953 H   0  0  0  0  0  0  0  0  0  0  0  0
    5.1018    0.2327   -1.6594 H   0  0  0  0  0  0  0  0  0  0  0  0
    2.3548    3.0513    0.3175 H   0  0  0  0  0  0  0  0  0  0  0  0
    3.4582    5.2488    0.5965 H   0  0  0  0  0  0  0  0  0  0  0  0
    7.2194    3.2693    1.3424 H   0  0  0  0  0  0  0  0  0  0  0  0
    6.1256    1.0731    1.0700 H   0  0  0  0  0  0  0  0  0  0  0  0
  1  2  1  0
  2  3  1  0
  3  4  2  0
  4  5  1  0
  5  6  2  0
  6  7  1  0
  7  8  2  0
  8  9  1  0
  9 10  1  0
 10 11  1  0
 11 12  2  0
 11 13  1  0
 13 14  2  0
 13 15  1  0
 15 16  1  0
 16 17  1  0
 17 18  1  0
 18 19  1  0
 19 20  1  0
 20 21  1  0
 21 22  1  0
 22 23  2  0
 22 24  2  0
 22 25  1  0
 25 26  2  0
 26 27  1  0
 27 28  2  0
 28 29  1  0
 28 30  1  0
 30 31  2  0
  8  3  1  0
 21 17  1  0
 31 25  1  0
  1 32  1  0
  1 33  1  0
  1 34  1  0
  4 35  1  0
  5 36  1  0
  6 37  1  0
  7 38  1  0
  9 39  1  0
  9 40  1  0
 10 41  1  0
 15 42  1  0
 16 43  1  0
 16 44  1  0
 17 45  1  0
 19 46  1  0
 19 47  1  0
 20 48  1  0
 20 49  1  0
 26 50  1  0
 27 51  1  0
 30 52  1  0
 31 53  1  0
M  END
$$$$
