
     RDKit          3D

 57 61  0  0  0  0  0  0  0  0999 V2000
    1.7509   -2.2576    3.5007 O   0  0  0  0  0  0  0  0  0  0  0  0
    2.0268   -1.9654    2.3423 C   0  0  0  0  0  0  0  0  0  0  0  0
    1.0431   -1.6434    1.4141 N   0  0  0  0  0  0  0  0  0  0  0  0
    1.2928   -1.3463    0.0793 C   0  0  0  0  0  0  0  0  0  0  0  0
    0.0853   -1.0214   -0.7918 C   0  0  0  0  0  0  0  0  0  0  0  0
   -0.5805    0.2963   -0.3681 C   0  0  0  0  0  0  0  0  0  0  0  0
   -1.8458    0.0904    0.4548 C   0  0  0  0  0  0  0  0  0  0  0  0
   -2.8395   -0.7817   -0.2342 N   0  0  0  0  0  0  0  0  0  0  0  0
   -4.2780    0.0060   -0.7571 S   0  0  0  0  0  6  0  0  0  0  0  0
   -5.1348   -0.9829   -1.3699 O   0  0  0  0  0  0  0  0  0  0  0  0
   -3.8340    1.1879   -1.4593 O   0  0  0  0  0  0  0  0  0  0  0  0
   -5.0656    0.4912    0.7674 C   0  0  0  0  0  0  0  0  0  0  0  0
   -4.9501   -0.3799    1.8641 C   0  0  0  0  0  0  0  0  0  0  0  0
   -5.5031   -0.0358    3.0957 C   0  0  0  0  0  0  0  0  0  0  0  0
   -6.1751    1.1739    3.2375 C   0  0  0  0  0  0  0  0  0  0  0  0
   -6.3112    2.0316    2.1438 C   0  0  0  0  0  0  0  0  0  0  0  0
   -5.7731    1.7010    0.8835 C   0  0  0  0  0  0  0  0  0  0  0  0
   -5.9943    2.6465   -0.2738 C   0  0  0  0  0  0  0  0  0  0  0  0
   -7.0126    3.5270   -0.0345 F   0  0  0  0  0  0  0  0  0  0  0  0
   -4.9111    3.4239   -0.5333 F   0  0  0  0  0  0  0  0  0  0  0  0
   -6.3407    2.0194   -1.4274 F   0  0  0  0  0  0  0  0  0  0  0  0
   -2.2806   -1.6897   -1.2738 C   0  0  0  0  0  0  0  0  0  0  0  0
   -0.9057   -2.1870   -0.8537 C   0  0  0  0  0  0  0  0  0  0  0  0
    2.4857   -1.3134   -0.4499 N   0  0  0  0  0  0  0  0  0  0  0  0
    3.4668   -1.5985    0.4415 C   0  0  0  0  0  0  0  0  0  0  0  0
    3.3444   -1.9184    1.7721 C   0  0  0  0  0  0  0  0  0  0  0  0
    4.5648   -2.1515    2.3253 N   0  0  0  0  0  0  0  0  0  0  0  0
    5.4734   -1.9794    1.3651 N   0  0  0  0  0  0  0  0  0  0  0  0
    4.8158   -1.6279    0.2316 N   0  0  0  0  0  0  0  0  0  0  0  0
    5.5352   -1.3973   -1.0029 C   0  0  0  0  0  0  0  0  0  0  0  0
    5.7759    0.0730   -1.2370 C   0  0  0  0  0  0  0  0  0  0  0  0
    4.9259    0.8112   -2.0772 C   0  0  0  0  0  0  0  0  0  0  0  0
    5.1424    2.1755   -2.2890 C   0  0  0  0  0  0  0  0  0  0  0  0
    6.2073    2.8165   -1.6594 C   0  0  0  0  0  0  0  0  0  0  0  0
    7.0431    2.0908   -0.8197 C   0  0  0  0  0  0  0  0  0  0  0  0
    8.0637    2.7092   -0.2113 F   0  0  0  0  0  0  0  0  0  0  0  0
    6.8378    0.7322   -0.6009 C   0  0  0  0  0  0  0  0  0  0  0  0
    0.1050   -1.6978    1.7788 H   0  0  0  0  0  0  0  0  0  0  0  0
    0.4762   -0.8626   -1.8078 H   0  0  0  0  0  0  0  0  0  0  0  0
   -0.8474    0.8569   -1.2743 H   0  0  0  0  0  0  0  0  0  0  0  0
    0.1209    0.9302    0.1879 H   0  0  0  0  0  0  0  0  0  0  0  0
   -1.6085   -0.3794    1.4155 H   0  0  0  0  0  0  0  0  0  0  0  0
   -2.2751    1.0677    0.7003 H   0  0  0  0  0  0  0  0  0  0  0  0
   -4.4368   -1.3347    1.7636 H   0  0  0  0  0  0  0  0  0  0  0  0
   -5.4137   -0.7120    3.9433 H   0  0  0  0  0  0  0  0  0  0  0  0
   -6.6085    1.4461    4.1980 H   0  0  0  0  0  0  0  0  0  0  0  0
   -6.8588    2.9656    2.2773 H   0  0  0  0  0  0  0  0  0  0  0  0
   -2.2180   -1.1760   -2.2402 H   0  0  0  0  0  0  0  0  0  0  0  0
   -2.9484   -2.5510   -1.3829 H   0  0  0  0  0  0  0  0  0  0  0  0
   -0.5426   -2.9327   -1.5716 H   0  0  0  0  0  0  0  0  0  0  0  0
   -0.9855   -2.7062    0.1089 H   0  0  0  0  0  0  0  0  0  0  0  0
    4.9527   -1.8397   -1.8195 H   0  0  0  0  0  0  0  0  0  0  0  0
    6.4857   -1.9422   -0.9569 H   0  0  0  0  0  0  0  0  0  0  0  0
    4.0816    0.3279   -2.5678 H   0  0  0  0  0  0  0  0  0  0  0  0
    4.4801    2.7369   -2.9432 H   0  0  0  0  0  0  0  0  0  0  0  0
    6.3885    3.8753   -1.8133 H   0  0  0  0  0  0  0  0  0  0  0  0
    7.5073    0.2017    0.0716 H   0  0  0  0  0  0  0  0  0  0  0  0
  1  2  2  0
  2  3  1  0
  3  4  1  0
  4  5  1  0
  5  6  1  0
  6  7  1  0
  7  8  1  0
  8  9  1  0
  9 10  2  0
  9 11  2  0
  9 12  1  0
 12 13  2  0
 13 14  1  0
 14 15  2  0
 15 16  1  0
 16 17  2  0
 17 18  1  0
 18 19  1  0
 18 20  1  0
 18 21  1  0
  8 22  1  0
 22 23  1  0
  4 24  2  0
 24 25  1  0
 25 26  2  0
 26 27  1  0
 27 28  2  0
 28 29  1  0
 29 30  1  0
 30 31  1  0
 31 32  2  0
 32 33  1  0
 33 34  2  0
 34 35  1  0
 35 36  1  0
 35 37  2  0
 26  2  1  0
 37 31  1  0
 23  5  1  0
 29 25  1  0
 17 12  1  0
  3 38  1  0
  5 39  1  0
  6 40  1  0
  6 41  1  0
  7 42  1  0
  7 43  1  0
 13 44  1  0
 14 45  1  0
 15 46  1  0
 16 47  1  0
 22 48  1  0
 22 49  1  0
 23 50  1  0
 23 51  1  0
 30 52  1  0
 30 53  1  0
 32 54  1  0
 33 55  1  0
 34 56  1  0
 37 57  1  0
M  END
$$$$
