
     RDKit          3D

 39 41  0  0  0  0  0  0  0  0999 V2000
    4.4840    0.5505    0.2984 C   0  0  0  0  0  0  0  0  0  0  0  0
    3.3873   -0.0856   -0.4364 N   0  0  0  0  0  0  0  0  0  0  0  0
    3.9298   -0.8892   -1.5339 C   0  0  0  0  0  0  0  0  0  0  0  0
    2.5657   -0.8951    0.4864 C   0  0  0  0  0  0  0  0  0  0  0  0
    1.2432   -1.4215   -0.1073 C   0  0  0  0  0  0  0  0  0  0  0  0
    0.3398   -0.3226   -0.6107 C   0  0  0  0  0  0  0  0  0  0  0  0
   -0.8784    0.0695   -0.1722 C   0  0  0  0  0  0  0  0  0  0  0  0
   -1.6153    1.0633   -1.0040 C   0  0  0  0  0  0  0  0  0  0  0  0
   -1.0047    2.2346   -1.4808 C   0  0  0  0  0  0  0  0  0  0  0  0
   -1.7254    3.1461   -2.2548 C   0  0  0  0  0  0  0  0  0  0  0  0
   -3.0638    2.9027   -2.5537 C   0  0  0  0  0  0  0  0  0  0  0  0
   -3.6888    1.7524   -2.0702 C   0  0  0  0  0  0  0  0  0  0  0  0
   -2.9766    0.8354   -1.2863 C   0  0  0  0  0  0  0  0  0  0  0  0
   -3.8418   -0.6128   -0.6743 S   0  0  0  0  0  0  0  0  0  0  0  0
   -2.9269   -0.9341    0.8338 C   0  0  0  0  0  0  0  0  0  0  0  0
   -3.6044   -1.5391    1.9012 C   0  0  0  0  0  0  0  0  0  0  0  0
   -2.9548   -1.7514    3.1182 C   0  0  0  0  0  0  0  0  0  0  0  0
   -1.6329   -1.3439    3.2734 C   0  0  0  0  0  0  0  0  0  0  0  0
   -0.8406   -1.5740    4.7835 Cl  0  0  0  0  0  0  0  0  0  0  0  0
   -0.9459   -0.7468    2.2173 C   0  0  0  0  0  0  0  0  0  0  0  0
   -1.5718   -0.5725    0.9743 C   0  0  0  0  0  0  0  0  0  0  0  0
    5.1543   -0.1844    0.7589 H   0  0  0  0  0  0  0  0  0  0  0  0
    5.0756    1.1885   -0.3677 H   0  0  0  0  0  0  0  0  0  0  0  0
    4.0927    1.2036    1.0865 H   0  0  0  0  0  0  0  0  0  0  0  0
    4.5353   -1.7280   -1.1722 H   0  0  0  0  0  0  0  0  0  0  0  0
    3.1315   -1.2844   -2.1694 H   0  0  0  0  0  0  0  0  0  0  0  0
    4.5568   -0.2719   -2.1877 H   0  0  0  0  0  0  0  0  0  0  0  0
    2.3081   -0.2815    1.3598 H   0  0  0  0  0  0  0  0  0  0  0  0
    3.1469   -1.7463    0.8653 H   0  0  0  0  0  0  0  0  0  0  0  0
    0.7467   -2.0457    0.6413 H   0  0  0  0  0  0  0  0  0  0  0  0
    1.4495   -2.1011   -0.9427 H   0  0  0  0  0  0  0  0  0  0  0  0
    0.7519    0.1554   -1.5011 H   0  0  0  0  0  0  0  0  0  0  0  0
    0.0360    2.4485   -1.2467 H   0  0  0  0  0  0  0  0  0  0  0  0
   -1.2405    4.0472   -2.6221 H   0  0  0  0  0  0  0  0  0  0  0  0
   -3.6242    3.6117   -3.1579 H   0  0  0  0  0  0  0  0  0  0  0  0
   -4.7368    1.5802   -2.3037 H   0  0  0  0  0  0  0  0  0  0  0  0
   -4.6461   -1.8344    1.7965 H   0  0  0  0  0  0  0  0  0  0  0  0
   -3.4903   -2.2163    3.9417 H   0  0  0  0  0  0  0  0  0  0  0  0
    0.0747   -0.4071    2.3679 H   0  0  0  0  0  0  0  0  0  0  0  0
  1  2  1  0
  2  3  1  0
  2  4  1  0
  4  5  1  0
  5  6  1  0
  6  7  2  3
  7  8  1  0
  8  9  2  0
  9 10  1  0
 10 11  2  0
 11 12  1  0
 12 13  2  0
 13 14  1  0
 14 15  1  0
 15 16  2  0
 16 17  1  0
 17 18  2  0
 18 19  1  0
 18 20  1  0
 20 21  2  0
 21  7  1  0
 13  8  1  0
 21 15  1  0
  1 22  1  0
  1 23  1  0
  1 24  1  0
  3 25  1  0
  3 26  1  0
  3 27  1  0
  4 28  1  0
  4 29  1  0
  5 30  1  0
  5 31  1  0
  6 32  1  0
  9 33  1  0
 10 34  1  0
 11 35  1  0
 12 36  1  0
 16 37  1  0
 17 38  1  0
 20 39  1  0
M  END
$$$$
