
     RDKit          3D

 45 46  0  0  0  0  0  0  0  0999 V2000
    6.9011   -2.6756    0.9368 C   0  0  0  0  0  0  0  0  0  0  0  0
    5.5412   -2.7311    1.3520 O   0  0  0  0  0  0  0  0  0  0  0  0
    4.8024   -1.5911    1.1962 C   0  0  0  0  0  0  0  0  0  0  0  0
    3.4765   -1.6933    1.6277 C   0  0  0  0  0  0  0  0  0  0  0  0
    2.6022   -0.6068    1.5237 C   0  0  0  0  0  0  0  0  0  0  0  0
    3.0478    0.5979    0.9684 C   0  0  0  0  0  0  0  0  0  0  0  0
    2.1524    1.7734    0.8317 C   0  0  0  0  0  0  0  0  0  0  0  0
    2.6378    2.9038    0.8572 O   0  0  0  0  0  0  0  0  0  0  0  0
    0.6880    1.6174    0.6478 C   0  0  0  0  0  0  0  0  0  0  0  0
    0.1378    0.6632   -0.1186 C   0  0  0  0  0  0  0  0  0  0  0  0
   -1.3112    0.5361   -0.3358 C   0  0  0  0  0  0  0  0  0  0  0  0
   -1.8763   -0.7482   -0.3538 C   0  0  0  0  0  0  0  0  0  0  0  0
   -3.2448   -0.9218   -0.5753 C   0  0  0  0  0  0  0  0  0  0  0  0
   -3.8867   -2.1331   -0.5975 O   0  0  0  0  0  0  0  0  0  0  0  0
   -3.0790   -3.3017   -0.6210 C   0  0  0  0  0  0  0  0  0  0  0  0
   -4.0488    0.2130   -0.7722 C   0  0  0  0  0  0  0  0  0  0  0  0
   -5.3924    0.0491   -1.0315 O   0  0  0  0  0  0  0  0  0  0  0  0
   -6.1285    0.0953    0.1893 C   0  0  0  0  0  0  0  0  0  0  0  0
   -3.4956    1.5041   -0.7981 C   0  0  0  0  0  0  0  0  0  0  0  0
   -4.3691    2.5346   -1.0326 O   0  0  0  0  0  0  0  0  0  0  0  0
   -3.8171    3.8259   -1.2488 C   0  0  0  0  0  0  0  0  0  0  0  0
   -2.1245    1.6548   -0.5749 C   0  0  0  0  0  0  0  0  0  0  0  0
    4.3888    0.7057    0.5725 C   0  0  0  0  0  0  0  0  0  0  0  0
    4.9261    1.8653    0.0752 O   0  0  0  0  0  0  0  0  0  0  0  0
    5.2581   -0.3829    0.6706 C   0  0  0  0  0  0  0  0  0  0  0  0
    7.4618   -1.9378    1.5202 H   0  0  0  0  0  0  0  0  0  0  0  0
    6.9781   -2.4739   -0.1367 H   0  0  0  0  0  0  0  0  0  0  0  0
    7.3476   -3.6569    1.1240 H   0  0  0  0  0  0  0  0  0  0  0  0
    3.1247   -2.6297    2.0564 H   0  0  0  0  0  0  0  0  0  0  0  0
    1.5874   -0.7192    1.8953 H   0  0  0  0  0  0  0  0  0  0  0  0
    0.0968    2.3963    1.1189 H   0  0  0  0  0  0  0  0  0  0  0  0
    0.7510   -0.0777   -0.6271 H   0  0  0  0  0  0  0  0  0  0  0  0
   -1.2304   -1.6030   -0.1800 H   0  0  0  0  0  0  0  0  0  0  0  0
   -2.3825   -3.2887   -1.4660 H   0  0  0  0  0  0  0  0  0  0  0  0
   -3.7411   -4.1635   -0.7487 H   0  0  0  0  0  0  0  0  0  0  0  0
   -2.5477   -3.4288    0.3278 H   0  0  0  0  0  0  0  0  0  0  0  0
   -6.0195    1.0657    0.6858 H   0  0  0  0  0  0  0  0  0  0  0  0
   -5.8303   -0.7121    0.8670 H   0  0  0  0  0  0  0  0  0  0  0  0
   -7.1867   -0.0419   -0.0529 H   0  0  0  0  0  0  0  0  0  0  0  0
   -3.1127    3.8227   -2.0874 H   0  0  0  0  0  0  0  0  0  0  0  0
   -4.6382    4.5016   -1.5069 H   0  0  0  0  0  0  0  0  0  0  0  0
   -3.3464    4.2083   -0.3373 H   0  0  0  0  0  0  0  0  0  0  0  0
   -1.6678    2.6389   -0.5928 H   0  0  0  0  0  0  0  0  0  0  0  0
    4.2878    2.5937    0.2491 H   0  0  0  0  0  0  0  0  0  0  0  0
    6.2818   -0.2485    0.3381 H   0  0  0  0  0  0  0  0  0  0  0  0
  1  2  1  0
  2  3  1  0
  3  4  2  0
  4  5  1  0
  5  6  2  0
  6  7  1  0
  7  8  2  0
  7  9  1  0
  9 10  2  0
 10 11  1  0
 11 12  2  0
 12 13  1  0
 13 14  1  0
 14 15  1  0
 13 16  2  0
 16 17  1  0
 17 18  1  0
 16 19  1  0
 19 20  1  0
 20 21  1  0
 19 22  2  0
  6 23  1  0
 23 24  1  0
 23 25  2  0
 25  3  1  0
 22 11  1  0
  1 26  1  0
  1 27  1  0
  1 28  1  0
  4 29  1  0
  5 30  1  0
  9 31  1  0
 10 32  1  0
 12 33  1  0
 15 34  1  0
 15 35  1  0
 15 36  1  0
 18 37  1  0
 18 38  1  0
 18 39  1  0
 21 40  1  0
 21 41  1  0
 21 42  1  0
 22 43  1  0
 24 44  1  0
 25 45  1  0
M  END
$$$$
