
     RDKit          3D

 70 75  0  0  0  0  0  0  0  0999 V2000
   -5.2136   -3.5339    2.4478 C   0  0  0  0  0  0  0  0  0  0  0  0
   -4.1476   -2.9770    1.5415 C   0  0  0  0  0  0  0  0  0  0  0  0
   -3.3025   -1.9602    2.0401 C   0  0  0  0  0  0  0  0  0  0  0  0
   -2.2964   -1.3950    1.2523 C   0  0  0  0  0  0  0  0  0  0  0  0
   -2.1187   -1.8599   -0.0423 C   0  0  0  0  0  0  0  0  0  0  0  0
   -2.9757   -2.8522   -0.5392 C   0  0  0  0  0  0  0  0  0  0  0  0
   -3.9780   -3.4512    0.2217 C   0  0  0  0  0  0  0  0  0  0  0  0
   -4.8828   -4.4952   -0.3662 C   0  0  0  0  0  0  0  0  0  0  0  0
   -2.6959   -3.0940   -1.8799 N   0  0  0  0  0  0  0  0  0  0  0  0
   -1.6717   -2.2764   -2.3484 C   0  0  0  0  0  0  0  0  0  0  0  0
   -1.2823   -2.2615   -3.5083 O   0  0  0  0  0  0  0  0  0  0  0  0
   -1.1486   -1.4478   -1.1235 C   0  0  1  0  0  0  0  0  0  0  0  0
   -1.2024    0.0108   -1.3676 C   0  0  0  0  0  0  0  0  0  0  0  0
    0.0691    0.4818   -1.7123 C   0  0  0  0  0  0  0  0  0  0  0  0
   -0.0069    1.8219   -1.9697 C   0  0  0  0  0  0  0  0  0  0  0  0
    0.9443    2.6231   -2.4463 O   0  0  0  0  0  0  0  0  0  0  0  0
   -1.3384    2.2089   -1.7288 N   0  0  0  0  0  0  0  0  0  0  0  0
   -1.8535    3.5322   -1.8471 C   0  0  0  0  0  0  0  0  0  0  0  0
   -3.1163    3.7485   -2.4146 C   0  0  0  0  0  0  0  0  0  0  0  0
   -3.6166    5.0471   -2.5235 C   0  0  0  0  0  0  0  0  0  0  0  0
   -2.8636    6.1277   -2.0647 C   0  0  0  0  0  0  0  0  0  0  0  0
   -1.6057    5.9148   -1.5013 C   0  0  0  0  0  0  0  0  0  0  0  0
   -1.0956    4.6199   -1.3932 C   0  0  0  0  0  0  0  0  0  0  0  0
   -2.0749    1.0666   -1.3596 C   0  0  0  0  0  0  0  0  0  0  0  0
   -3.3603    1.0718   -1.0103 O   0  0  0  0  0  0  0  0  0  0  0  0
    1.0440   -0.6389   -1.7915 C   0  0  1  0  0  0  0  0  0  0  0  0
    2.5125   -0.3049   -1.4515 C   0  0  0  0  0  0  0  0  0  0  0  0
    2.8785   -0.4652   -0.0479 N   0  0  0  0  0  0  0  0  0  0  0  0
    4.0105    0.1798    0.4176 C   0  0  0  0  0  0  0  0  0  0  0  0
    4.6389    1.0054   -0.2319 O   0  0  0  0  0  0  0  0  0  0  0  0
    4.3394   -0.2098    1.6763 O   0  0  0  0  0  0  0  0  0  0  0  0
    5.4894    0.3516    2.3596 C   0  0  0  0  0  0  0  0  0  0  0  0
    5.3163    1.8567    2.5915 C   0  0  0  0  0  0  0  0  0  0  0  0
    6.7941    0.0277    1.6230 C   0  0  0  0  0  0  0  0  0  0  0  0
    5.5103   -0.3554    3.7240 C   0  0  0  0  0  0  0  0  0  0  0  0
    2.3064   -1.6305    0.6125 C   0  0  0  0  0  0  0  0  0  0  0  0
    0.7846   -1.6487    0.4416 C   0  0  0  0  0  0  0  0  0  0  0  0
    0.3468   -1.7224   -0.9663 N   0  0  0  0  0  0  0  0  0  0  0  0
   -6.1904   -3.5109    1.9532 H   0  0  0  0  0  0  0  0  0  0  0  0
   -5.3054   -2.9472    3.3683 H   0  0  0  0  0  0  0  0  0  0  0  0
   -4.9688   -4.5633    2.7291 H   0  0  0  0  0  0  0  0  0  0  0  0
   -3.4373   -1.5887    3.0551 H   0  0  0  0  0  0  0  0  0  0  0  0
   -1.6904   -0.5886    1.6519 H   0  0  0  0  0  0  0  0  0  0  0  0
   -5.7754   -4.0213   -0.7862 H   0  0  0  0  0  0  0  0  0  0  0  0
   -5.1888   -5.2300    0.3845 H   0  0  0  0  0  0  0  0  0  0  0  0
   -4.3814   -5.0634   -1.1563 H   0  0  0  0  0  0  0  0  0  0  0  0
   -3.1998   -3.7181   -2.4890 H   0  0  0  0  0  0  0  0  0  0  0  0
    0.5312    3.3982   -2.8664 H   0  0  0  0  0  0  0  0  0  0  0  0
   -3.7038    2.9274   -2.8226 H   0  0  0  0  0  0  0  0  0  0  0  0
   -4.5904    5.2185   -2.9769 H   0  0  0  0  0  0  0  0  0  0  0  0
   -3.2563    7.1383   -2.1488 H   0  0  0  0  0  0  0  0  0  0  0  0
   -1.0257    6.7597   -1.1360 H   0  0  0  0  0  0  0  0  0  0  0  0
   -0.1287    4.4764   -0.9134 H   0  0  0  0  0  0  0  0  0  0  0  0
   -3.6169    1.9717   -0.7430 H   0  0  0  0  0  0  0  0  0  0  0  0
    1.0384   -0.9811   -2.8363 H   0  0  0  0  0  0  0  0  0  0  0  0
    2.7809    0.7001   -1.7947 H   0  0  0  0  0  0  0  0  0  0  0  0
    3.1592   -1.0066   -1.9957 H   0  0  0  0  0  0  0  0  0  0  0  0
    5.3739    2.4235    1.6567 H   0  0  0  0  0  0  0  0  0  0  0  0
    6.0898    2.2494    3.2609 H   0  0  0  0  0  0  0  0  0  0  0  0
    4.3337    2.0712    3.0289 H   0  0  0  0  0  0  0  0  0  0  0  0
    7.6690    0.2855    2.2297 H   0  0  0  0  0  0  0  0  0  0  0  0
    6.8446   -1.0383    1.3736 H   0  0  0  0  0  0  0  0  0  0  0  0
    6.8800    0.5760    0.6798 H   0  0  0  0  0  0  0  0  0  0  0  0
    6.3433   -0.0129    4.3471 H   0  0  0  0  0  0  0  0  0  0  0  0
    5.5946   -1.4413    3.5991 H   0  0  0  0  0  0  0  0  0  0  0  0
    4.5752   -0.1795    4.2681 H   0  0  0  0  0  0  0  0  0  0  0  0
    2.5428   -1.6321    1.6811 H   0  0  0  0  0  0  0  0  0  0  0  0
    2.7641   -2.5254    0.1742 H   0  0  0  0  0  0  0  0  0  0  0  0
    0.4028   -0.7435    0.9279 H   0  0  0  0  0  0  0  0  0  0  0  0
    0.3989   -2.5201    0.9824 H   0  0  0  0  0  0  0  0  0  0  0  0
  1  2  1  0
  2  3  2  0
  3  4  1  0
  4  5  2  0
  5  6  1  0
  6  7  2  0
  7  8  1  0
  6  9  1  0
  9 10  1  0
 10 11  2  0
 10 12  1  0
 12 13  1  0
 13 14  1  0
 14 15  2  0
 15 16  1  0
 15 17  1  0
 17 18  1  0
 18 19  2  0
 19 20  1  0
 20 21  2  0
 21 22  1  0
 22 23  2  0
 17 24  1  0
 24 25  1  0
 14 26  1  0
 26 27  1  0
 27 28  1  0
 28 29  1  0
 29 30  2  0
 29 31  1  0
 31 32  1  0
 32 33  1  0
 32 34  1  0
 32 35  1  0
 28 36  1  0
 36 37  1  0
 37 38  1  0
  7  2  1  0
 12 38  1  1
 12  5  1  0
 24 13  2  0
 38 26  1  0
 23 18  1  0
  1 39  1  0
  1 40  1  0
  1 41  1  0
  3 42  1  0
  4 43  1  0
  8 44  1  0
  8 45  1  0
  8 46  1  0
  9 47  1  0
 16 48  1  0
 19 49  1  0
 20 50  1  0
 21 51  1  0
 22 52  1  0
 23 53  1  0
 25 54  1  0
 26 55  1  6
 27 56  1  0
 27 57  1  0
 33 58  1  0
 33 59  1  0
 33 60  1  0
 34 61  1  0
 34 62  1  0
 34 63  1  0
 35 64  1  0
 35 65  1  0
 35 66  1  0
 36 67  1  0
 36 68  1  0
 37 69  1  0
 37 70  1  0
M  END
$$$$
