
     RDKit          3D

 67 72  0  0  0  0  0  0  0  0999 V2000
    3.5542   -1.3624   -1.3443 O   0  0  0  0  0  0  0  0  0  0  0  0
    3.0030   -1.2247   -0.2462 C   0  0  0  0  0  0  0  0  0  0  0  0
    3.6466   -1.7861    1.0340 C   0  0  0  0  0  0  0  0  0  0  0  0
    5.1862   -1.8257    0.9389 C   0  0  0  0  0  0  0  0  0  0  0  0
    5.8818   -0.4905    0.7628 C   0  0  0  0  0  0  0  0  0  0  0  0
    6.0290    0.3942    1.8381 C   0  0  0  0  0  0  0  0  0  0  0  0
    6.6843    1.6145    1.6709 C   0  0  0  0  0  0  0  0  0  0  0  0
    7.2031    1.9643    0.4282 C   0  0  0  0  0  0  0  0  0  0  0  0
    7.0628    1.0954   -0.6499 C   0  0  0  0  0  0  0  0  0  0  0  0
    6.4074   -0.1245   -0.4838 C   0  0  0  0  0  0  0  0  0  0  0  0
    3.2255   -1.0842    2.2395 N   0  0  0  0  0  0  0  0  0  0  0  0
    1.8633   -0.8263    2.3211 C   0  0  0  0  0  0  0  0  0  0  0  0
    1.3981   -0.7852    3.5799 N   0  0  0  0  0  0  0  0  0  0  0  0
    0.1243   -0.4245    3.7175 C   0  0  0  0  0  0  0  0  0  0  0  0
   -0.7115   -0.1125    2.7251 N   0  0  0  0  0  0  0  0  0  0  0  0
   -0.2326   -0.1818    1.4595 C   0  0  0  0  0  0  0  0  0  0  0  0
   -1.1417    0.1768    0.4422 N   0  0  0  0  0  0  0  0  0  0  0  0
   -2.3180   -0.7345    0.4356 C   0  0  0  0  0  0  0  0  0  0  0  0
   -3.4966   -0.1273   -0.3597 C   0  0  0  0  0  0  0  0  0  0  0  0
   -3.9466    1.1370    0.2507 N   0  0  0  0  0  0  0  0  0  0  0  0
   -5.1747    1.6984   -0.0471 C   0  0  0  0  0  0  0  0  0  0  0  0
   -5.7647    2.6672    0.7819 C   0  0  0  0  0  0  0  0  0  0  0  0
   -7.0073    3.2395    0.4890 C   0  0  0  0  0  0  0  0  0  0  0  0
   -7.7026    2.8528   -0.6491 C   0  0  0  0  0  0  0  0  0  0  0  0
   -7.1537    1.8896   -1.4859 C   0  0  0  0  0  0  0  0  0  0  0  0
   -5.9085    1.3236   -1.1839 C   0  0  0  0  0  0  0  0  0  0  0  0
   -2.9602    1.8307    1.1029 C   0  0  0  0  0  0  0  0  0  0  0  0
   -1.5228    1.6108    0.5778 C   0  0  0  0  0  0  0  0  0  0  0  0
    1.0950   -0.5534    1.1821 C   0  0  0  0  0  0  0  0  0  0  0  0
    1.7184   -0.6779   -0.1163 N   0  0  0  0  0  0  0  0  0  0  0  0
    1.0690   -0.2312   -1.3420 C   0  0  0  0  0  0  0  0  0  0  0  0
    0.1994   -1.2551   -2.0535 C   0  0  0  0  0  0  0  0  0  0  0  0
   -0.5367   -0.8360   -3.1789 C   0  0  0  0  0  0  0  0  0  0  0  0
   -1.3654   -1.7244   -3.8674 C   0  0  0  0  0  0  0  0  0  0  0  0
   -1.4647   -3.0465   -3.4391 C   0  0  0  0  0  0  0  0  0  0  0  0
   -2.4955   -4.1401   -4.2764 Cl  0  0  0  0  0  0  0  0  0  0  0  0
   -0.7307   -3.4884   -2.3374 C   0  0  0  0  0  0  0  0  0  0  0  0
    0.1019   -2.5980   -1.6536 C   0  0  0  0  0  0  0  0  0  0  0  0
    3.2981   -2.8258    1.1060 H   0  0  0  0  0  0  0  0  0  0  0  0
    5.5954   -2.3006    1.8422 H   0  0  0  0  0  0  0  0  0  0  0  0
    5.4779   -2.4846    0.1105 H   0  0  0  0  0  0  0  0  0  0  0  0
    5.6343    0.1450    2.8187 H   0  0  0  0  0  0  0  0  0  0  0  0
    6.7897    2.2901    2.5153 H   0  0  0  0  0  0  0  0  0  0  0  0
    7.7172    2.9129    0.3005 H   0  0  0  0  0  0  0  0  0  0  0  0
    7.4659    1.3653   -1.6207 H   0  0  0  0  0  0  0  0  0  0  0  0
    6.3065   -0.7875   -1.3400 H   0  0  0  0  0  0  0  0  0  0  0  0
    3.5515   -1.4474    3.1281 H   0  0  0  0  0  0  0  0  0  0  0  0
   -0.2687   -0.3684    4.7291 H   0  0  0  0  0  0  0  0  0  0  0  0
   -2.0339   -1.6868   -0.0212 H   0  0  0  0  0  0  0  0  0  0  0  0
   -2.6718   -0.9575    1.4519 H   0  0  0  0  0  0  0  0  0  0  0  0
   -4.3095   -0.8615   -0.3625 H   0  0  0  0  0  0  0  0  0  0  0  0
   -3.1862    0.0568   -1.3953 H   0  0  0  0  0  0  0  0  0  0  0  0
   -5.2743    2.9823    1.6988 H   0  0  0  0  0  0  0  0  0  0  0  0
   -7.4304    3.9819    1.1605 H   0  0  0  0  0  0  0  0  0  0  0  0
   -8.6670    3.2962   -0.8764 H   0  0  0  0  0  0  0  0  0  0  0  0
   -7.6918    1.5684   -2.3751 H   0  0  0  0  0  0  0  0  0  0  0  0
   -5.5152    0.5846   -1.8775 H   0  0  0  0  0  0  0  0  0  0  0  0
   -3.1321    2.9118    1.1169 H   0  0  0  0  0  0  0  0  0  0  0  0
   -3.0534    1.4611    2.1293 H   0  0  0  0  0  0  0  0  0  0  0  0
   -0.8097    2.1717    1.1987 H   0  0  0  0  0  0  0  0  0  0  0  0
   -1.4549    2.0469   -0.4272 H   0  0  0  0  0  0  0  0  0  0  0  0
    1.8511    0.0571   -2.0580 H   0  0  0  0  0  0  0  0  0  0  0  0
    0.5271    0.6997   -1.1586 H   0  0  0  0  0  0  0  0  0  0  0  0
   -0.4689    0.1977   -3.5218 H   0  0  0  0  0  0  0  0  0  0  0  0
   -1.9216   -1.3808   -4.7381 H   0  0  0  0  0  0  0  0  0  0  0  0
   -0.8013   -4.5222   -2.0047 H   0  0  0  0  0  0  0  0  0  0  0  0
    0.6573   -2.9601   -0.7928 H   0  0  0  0  0  0  0  0  0  0  0  0
  1  2  2  0
  2  3  1  0
  3  4  1  0
  4  5  1  0
  5  6  2  0
  6  7  1  0
  7  8  2  0
  8  9  1  0
  9 10  2  0
  3 11  1  0
 11 12  1  0
 12 13  2  0
 13 14  1  0
 14 15  2  0
 15 16  1  0
 16 17  1  0
 17 18  1  0
 18 19  1  0
 19 20  1  0
 20 21  1  0
 21 22  2  0
 22 23  1  0
 23 24  2  0
 24 25  1  0
 25 26  2  0
 20 27  1  0
 27 28  1  0
 16 29  2  0
 29 30  1  0
 30 31  1  0
 31 32  1  0
 32 33  2  0
 33 34  1  0
 34 35  2  0
 35 36  1  0
 35 37  1  0
 37 38  2  0
 30  2  1  0
 38 32  1  0
 10  5  1  0
 29 12  1  0
 28 17  1  0
 26 21  1  0
  3 39  1  0
  4 40  1  0
  4 41  1  0
  6 42  1  0
  7 43  1  0
  8 44  1  0
  9 45  1  0
 10 46  1  0
 11 47  1  0
 14 48  1  0
 18 49  1  0
 18 50  1  0
 19 51  1  0
 19 52  1  0
 22 53  1  0
 23 54  1  0
 24 55  1  0
 25 56  1  0
 26 57  1  0
 27 58  1  0
 27 59  1  0
 28 60  1  0
 28 61  1  0
 31 62  1  0
 31 63  1  0
 33 64  1  0
 34 65  1  0
 37 66  1  0
 38 67  1  0
M  END
$$$$
