
     RDKit          3D

 54 57  0  0  0  0  0  0  0  0999 V2000
   -5.0570   -0.0862   -3.6695 C   0  0  0  0  0  0  0  0  0  0  0  0
   -4.0922   -0.9448   -3.0738 O   0  0  0  0  0  0  0  0  0  0  0  0
   -3.3287   -0.4187   -2.0694 C   0  0  0  0  0  0  0  0  0  0  0  0
   -3.3978    0.8865   -1.5827 C   0  0  0  0  0  0  0  0  0  0  0  0
   -2.5532    1.2984   -0.5443 C   0  0  0  0  0  0  0  0  0  0  0  0
   -1.6315    0.4031    0.0115 C   0  0  0  0  0  0  0  0  0  0  0  0
   -0.7772    0.8263    1.0623 N   0  0  0  0  0  0  0  0  0  0  0  0
   -1.1250    1.5439    2.2026 C   0  0  0  0  0  0  0  0  0  0  0  0
   -2.5130    1.8313    2.6753 C   0  0  0  0  0  0  0  0  0  0  0  0
   -3.2630    0.5919    3.0666 C   0  0  0  0  0  0  0  0  0  0  0  0
   -4.3520   -0.0000    2.4486 C   0  0  0  0  0  0  0  0  0  0  0  0
   -4.6953   -1.1566    3.1836 C   0  0  0  0  0  0  0  0  0  0  0  0
   -3.8176   -1.2438    4.2390 C   0  0  0  0  0  0  0  0  0  0  0  0
   -2.9553   -0.1789    4.1698 N   0  0  0  0  0  0  0  0  0  0  0  0
   -1.8830    0.0518    5.1162 C   0  0  0  0  0  0  0  0  0  0  0  0
   -0.0380    1.8125    2.9030 N   0  0  0  0  0  0  0  0  0  0  0  0
    1.0294    1.2386    2.2768 N   0  0  0  0  0  0  0  0  0  0  0  0
    0.5893    0.6387    1.1953 C   0  0  0  0  0  0  0  0  0  0  0  0
    1.6213   -0.1067    0.0148 S   0  0  0  0  0  0  0  0  0  0  0  0
    3.2392    0.0776    0.8293 C   0  0  0  0  0  0  0  0  0  0  0  0
    4.3552   -0.4945   -0.0343 C   0  0  0  0  0  0  0  0  0  0  0  0
    5.1893   -1.2560    0.4480 O   0  0  0  0  0  0  0  0  0  0  0  0
    4.3481   -0.0155   -1.3356 N   0  0  0  0  0  0  0  0  0  0  0  0
    5.2651   -0.3004   -2.3670 C   0  0  0  0  0  0  0  0  0  0  0  0
    4.9909    0.2450   -3.6307 C   0  0  0  0  0  0  0  0  0  0  0  0
    5.8481    0.0170   -4.7117 C   0  0  0  0  0  0  0  0  0  0  0  0
    6.9905   -0.7578   -4.5360 C   0  0  0  0  0  0  0  0  0  0  0  0
    7.2607   -1.2958   -3.2846 C   0  0  0  0  0  0  0  0  0  0  0  0
    8.3634   -2.0386   -3.1178 F   0  0  0  0  0  0  0  0  0  0  0  0
    6.4131   -1.0750   -2.2015 C   0  0  0  0  0  0  0  0  0  0  0  0
   -1.5565   -0.9039   -0.4778 C   0  0  0  0  0  0  0  0  0  0  0  0
   -2.4062   -1.3068   -1.5117 C   0  0  0  0  0  0  0  0  0  0  0  0
   -5.8010    0.2420   -2.9353 H   0  0  0  0  0  0  0  0  0  0  0  0
   -4.5768    0.7695   -4.1564 H   0  0  0  0  0  0  0  0  0  0  0  0
   -5.5810   -0.6576   -4.4421 H   0  0  0  0  0  0  0  0  0  0  0  0
   -4.0916    1.6122   -1.9943 H   0  0  0  0  0  0  0  0  0  0  0  0
   -2.6051    2.3354   -0.2225 H   0  0  0  0  0  0  0  0  0  0  0  0
   -2.4608    2.5010    3.5437 H   0  0  0  0  0  0  0  0  0  0  0  0
   -3.0749    2.3930    1.9238 H   0  0  0  0  0  0  0  0  0  0  0  0
   -4.8432    0.3580    1.5526 H   0  0  0  0  0  0  0  0  0  0  0  0
   -5.4946   -1.8529    2.9666 H   0  0  0  0  0  0  0  0  0  0  0  0
   -3.7386   -1.9789    5.0300 H   0  0  0  0  0  0  0  0  0  0  0  0
   -1.8327    1.1169    5.3514 H   0  0  0  0  0  0  0  0  0  0  0  0
   -0.9518   -0.2985    4.6663 H   0  0  0  0  0  0  0  0  0  0  0  0
   -2.0869   -0.5075    6.0332 H   0  0  0  0  0  0  0  0  0  0  0  0
    3.4582    1.1336    1.0165 H   0  0  0  0  0  0  0  0  0  0  0  0
    3.2261   -0.4608    1.7819 H   0  0  0  0  0  0  0  0  0  0  0  0
    3.5457    0.5499   -1.5899 H   0  0  0  0  0  0  0  0  0  0  0  0
    4.1042    0.8533   -3.7929 H   0  0  0  0  0  0  0  0  0  0  0  0
    5.6235    0.4434   -5.6855 H   0  0  0  0  0  0  0  0  0  0  0  0
    7.6699   -0.9468   -5.3607 H   0  0  0  0  0  0  0  0  0  0  0  0
    6.6868   -1.5178   -1.2508 H   0  0  0  0  0  0  0  0  0  0  0  0
   -0.8822   -1.6410   -0.0485 H   0  0  0  0  0  0  0  0  0  0  0  0
   -2.3542   -2.3288   -1.8813 H   0  0  0  0  0  0  0  0  0  0  0  0
  1  2  1  0
  2  3  1  0
  3  4  2  0
  4  5  1  0
  5  6  2  0
  6  7  1  0
  7  8  1  0
  8  9  1  0
  9 10  1  0
 10 11  2  0
 11 12  1  0
 12 13  2  0
 13 14  1  0
 14 15  1  0
  8 16  2  0
 16 17  1  0
 17 18  2  0
 18 19  1  0
 19 20  1  0
 20 21  1  0
 21 22  2  0
 21 23  1  0
 23 24  1  0
 24 25  2  0
 25 26  1  0
 26 27  2  0
 27 28  1  0
 28 29  1  0
 28 30  2  0
  6 31  1  0
 31 32  2  0
 32  3  1  0
 18  7  1  0
 30 24  1  0
 14 10  1  0
  1 33  1  0
  1 34  1  0
  1 35  1  0
  4 36  1  0
  5 37  1  0
  9 38  1  0
  9 39  1  0
 11 40  1  0
 12 41  1  0
 13 42  1  0
 15 43  1  0
 15 44  1  0
 15 45  1  0
 20 46  1  0
 20 47  1  0
 23 48  1  0
 25 49  1  0
 26 50  1  0
 27 51  1  0
 30 52  1  0
 31 53  1  0
 32 54  1  0
M  END
$$$$
