
     RDKit          3D

 42 46  0  0  0  0  0  0  0  0999 V2000
    5.3485    1.3690    0.5666 C   0  0  0  0  0  0  0  0  0  0  0  0
    5.2906    0.7099   -0.6593 C   0  0  0  0  0  0  0  0  0  0  0  0
    4.0557    0.3572   -1.2235 C   0  0  0  0  0  0  0  0  0  0  0  0
    3.9907   -0.3054   -2.4530 C   0  0  0  0  0  0  0  0  0  0  0  0
    2.7590   -0.6531   -3.0064 C   0  0  0  0  0  0  0  0  0  0  0  0
    1.5626   -0.3464   -2.3454 C   0  0  0  0  0  0  0  0  0  0  0  0
    0.3366   -0.7011   -2.9096 C   0  0  0  0  0  0  0  0  0  0  0  0
   -0.8524   -0.3964   -2.2559 C   0  0  0  0  0  0  0  0  0  0  0  0
   -0.8544    0.2710   -1.0167 C   0  0  0  0  0  0  0  0  0  0  0  0
   -2.2146    0.5674   -0.4019 C   0  0  0  0  0  0  0  0  0  0  0  0
   -2.9970   -0.6467   -0.1134 N   0  0  0  0  0  0  0  0  0  0  0  0
   -4.4091   -0.2962    0.1533 C   0  0  0  0  0  0  0  0  0  0  0  0
   -5.1184   -1.3704    0.9894 C   0  0  0  0  0  0  0  0  0  0  0  0
   -4.5526   -1.5025    2.3008 O   0  0  0  0  0  0  0  0  0  0  0  0
   -3.1484   -1.2112    2.3400 C   0  0  0  0  0  0  0  0  0  0  0  0
   -2.4386   -1.4480    0.9977 C   0  0  0  0  0  0  0  0  0  0  0  0
    0.3850    0.6416   -0.4185 C   0  0  0  0  0  0  0  0  0  0  0  0
    0.4991    1.3065    0.8229 C   0  0  0  0  0  0  0  0  0  0  0  0
    1.7389    1.6500    1.3706 C   0  0  0  0  0  0  0  0  0  0  0  0
    2.9235    1.3420    0.7012 C   0  0  0  0  0  0  0  0  0  0  0  0
    4.1719    1.6830    1.2430 C   0  0  0  0  0  0  0  0  0  0  0  0
    2.8557    0.6745   -0.5411 C   0  0  0  0  0  0  0  0  0  0  0  0
    1.5941    0.3251   -1.0984 C   0  0  0  0  0  0  0  0  0  0  0  0
    6.3106    1.6375    0.9948 H   0  0  0  0  0  0  0  0  0  0  0  0
    6.2195    0.4722   -1.1729 H   0  0  0  0  0  0  0  0  0  0  0  0
    4.8998   -0.5589   -2.9934 H   0  0  0  0  0  0  0  0  0  0  0  0
    2.7433   -1.1691   -3.9641 H   0  0  0  0  0  0  0  0  0  0  0  0
    0.2923   -1.2209   -3.8637 H   0  0  0  0  0  0  0  0  0  0  0  0
   -1.7965   -0.6897   -2.7127 H   0  0  0  0  0  0  0  0  0  0  0  0
   -2.1493    1.1951    0.4904 H   0  0  0  0  0  0  0  0  0  0  0  0
   -2.7521    1.1766   -1.1429 H   0  0  0  0  0  0  0  0  0  0  0  0
   -4.4705    0.6531    0.7023 H   0  0  0  0  0  0  0  0  0  0  0  0
   -4.9300   -0.1672   -0.8016 H   0  0  0  0  0  0  0  0  0  0  0  0
   -5.0776   -2.3475    0.4938 H   0  0  0  0  0  0  0  0  0  0  0  0
   -6.1752   -1.1134    1.1142 H   0  0  0  0  0  0  0  0  0  0  0  0
   -2.7061   -1.8450    3.1154 H   0  0  0  0  0  0  0  0  0  0  0  0
   -3.0264   -0.1707    2.6628 H   0  0  0  0  0  0  0  0  0  0  0  0
   -2.5710   -2.5023    0.7228 H   0  0  0  0  0  0  0  0  0  0  0  0
   -1.3604   -1.3022    1.1193 H   0  0  0  0  0  0  0  0  0  0  0  0
   -0.3779    1.5732    1.4040 H   0  0  0  0  0  0  0  0  0  0  0  0
    1.7646    2.1619    2.3301 H   0  0  0  0  0  0  0  0  0  0  0  0
    4.2365    2.1974    2.1993 H   0  0  0  0  0  0  0  0  0  0  0  0
  1  2  2  0
  2  3  1  0
  3  4  2  0
  4  5  1  0
  5  6  2  0
  6  7  1  0
  7  8  2  0
  8  9  1  0
  9 10  1  0
 10 11  1  0
 11 12  1  0
 12 13  1  0
 13 14  1  0
 14 15  1  0
 15 16  1  0
  9 17  2  0
 17 18  1  0
 18 19  2  0
 19 20  1  0
 20 21  2  0
 20 22  1  0
 22 23  2  0
 21  1  1  0
 22  3  1  0
 23  6  1  0
 16 11  1  0
 23 17  1  0
  1 24  1  0
  2 25  1  0
  4 26  1  0
  5 27  1  0
  7 28  1  0
  8 29  1  0
 10 30  1  0
 10 31  1  0
 12 32  1  0
 12 33  1  0
 13 34  1  0
 13 35  1  0
 15 36  1  0
 15 37  1  0
 16 38  1  0
 16 39  1  0
 18 40  1  0
 19 41  1  0
 21 42  1  0
M  END
$$$$
