
     RDKit          3D

 41 42  0  0  0  0  0  0  0  0999 V2000
    6.9269    2.0292    0.8553 C   0  0  0  0  0  0  0  0  0  0  0  0
    5.5788    1.7820    0.4574 O   0  0  0  0  0  0  0  0  0  0  0  0
    5.2727    0.4600    0.3216 C   0  0  0  0  0  0  0  0  0  0  0  0
    6.0607   -0.4555    0.5204 O   0  0  0  0  0  0  0  0  0  0  0  0
    3.8853    0.3130   -0.0816 C   0  0  0  0  0  0  0  0  0  0  0  0
    2.9308    1.3030   -0.2613 C   0  0  0  0  0  0  0  0  0  0  0  0
    1.7147    0.6864   -0.6139 C   0  0  0  0  0  0  0  0  0  0  0  0
    1.9131   -0.6849   -0.6422 C   0  0  0  0  0  0  0  0  0  0  0  0
    0.7697   -2.0040   -0.9709 S   0  0  0  0  0  6  0  0  0  0  0  0
    0.8869   -2.8988    0.1570 O   0  0  0  0  0  0  0  0  0  0  0  0
    1.0648   -2.4181   -2.3217 O   0  0  0  0  0  0  0  0  0  0  0  0
   -0.7749   -1.3502   -0.9743 N   0  0  0  0  0  0  0  0  0  0  0  0
   -1.3577   -1.0774    0.3471 C   0  0  0  0  0  0  0  0  0  0  0  0
   -2.6876   -0.3706    0.2256 C   0  0  0  0  0  0  0  0  0  0  0  0
   -3.8237   -0.8660    0.8799 C   0  0  0  0  0  0  0  0  0  0  0  0
   -5.0533   -0.2028    0.7827 C   0  0  0  0  0  0  0  0  0  0  0  0
   -5.1628    0.9680    0.0333 C   0  0  0  0  0  0  0  0  0  0  0  0
   -6.2982    1.7094   -0.1423 O   0  0  0  0  0  0  0  0  0  0  0  0
   -7.4795    1.2371    0.4926 C   0  0  0  0  0  0  0  0  0  0  0  0
   -4.0325    1.4688   -0.6149 C   0  0  0  0  0  0  0  0  0  0  0  0
   -2.8044    0.8098   -0.5196 C   0  0  0  0  0  0  0  0  0  0  0  0
    3.2558   -0.8928   -0.3694 N   0  0  0  0  0  0  0  0  0  0  0  0
    3.9309   -2.1785   -0.3790 C   0  0  0  0  0  0  0  0  0  0  0  0
    7.6255    1.6437    0.1060 H   0  0  0  0  0  0  0  0  0  0  0  0
    7.1252    1.5859    1.8362 H   0  0  0  0  0  0  0  0  0  0  0  0
    7.0646    3.1114    0.9312 H   0  0  0  0  0  0  0  0  0  0  0  0
    3.0995    2.3661   -0.1357 H   0  0  0  0  0  0  0  0  0  0  0  0
    0.7729    1.1807   -0.8158 H   0  0  0  0  0  0  0  0  0  0  0  0
   -1.3862   -1.8979   -1.5802 H   0  0  0  0  0  0  0  0  0  0  0  0
   -1.5018   -2.0283    0.8730 H   0  0  0  0  0  0  0  0  0  0  0  0
   -0.6893   -0.4501    0.9464 H   0  0  0  0  0  0  0  0  0  0  0  0
   -3.7650   -1.7758    1.4744 H   0  0  0  0  0  0  0  0  0  0  0  0
   -5.9036   -0.6273    1.3060 H   0  0  0  0  0  0  0  0  0  0  0  0
   -8.2892    1.9329    0.2524 H   0  0  0  0  0  0  0  0  0  0  0  0
   -7.7647    0.2505    0.1126 H   0  0  0  0  0  0  0  0  0  0  0  0
   -7.3641    1.2240    1.5815 H   0  0  0  0  0  0  0  0  0  0  0  0
   -4.1090    2.3817   -1.2009 H   0  0  0  0  0  0  0  0  0  0  0  0
   -1.9405    1.2216   -1.0366 H   0  0  0  0  0  0  0  0  0  0  0  0
    4.1323   -2.4646    0.6561 H   0  0  0  0  0  0  0  0  0  0  0  0
    3.3197   -2.9381   -0.8653 H   0  0  0  0  0  0  0  0  0  0  0  0
    4.8573   -2.0835   -0.9510 H   0  0  0  0  0  0  0  0  0  0  0  0
  1  2  1  0
  2  3  1  0
  3  4  2  0
  3  5  1  0
  5  6  2  0
  6  7  1  0
  7  8  2  0
  8  9  1  0
  9 10  2  0
  9 11  2  0
  9 12  1  0
 12 13  1  0
 13 14  1  0
 14 15  2  0
 15 16  1  0
 16 17  2  0
 17 18  1  0
 18 19  1  0
 17 20  1  0
 20 21  2  0
  8 22  1  0
 22 23  1  0
 22  5  1  0
 21 14  1  0
  1 24  1  0
  1 25  1  0
  1 26  1  0
  6 27  1  0
  7 28  1  0
 12 29  1  0
 13 30  1  0
 13 31  1  0
 15 32  1  0
 16 33  1  0
 19 34  1  0
 19 35  1  0
 19 36  1  0
 20 37  1  0
 21 38  1  0
 23 39  1  0
 23 40  1  0
 23 41  1  0
M  END
$$$$
