
     RDKit          3D

 46 47  0  0  0  0  0  0  0  0999 V2000
    8.6473    0.7077   -0.1549 C   0  0  0  0  0  0  0  0  0  0  0  0
    7.8983   -0.5012   -0.1556 O   0  0  0  0  0  0  0  0  0  0  0  0
    6.5660   -0.4016   -0.4481 C   0  0  0  0  0  0  0  0  0  0  0  0
    5.8783    0.7708   -0.7592 C   0  0  0  0  0  0  0  0  0  0  0  0
    4.5081    0.7300   -1.0413 C   0  0  0  0  0  0  0  0  0  0  0  0
    3.8087   -0.4835   -1.0171 C   0  0  0  0  0  0  0  0  0  0  0  0
    2.3283   -0.5206   -1.3039 C   0  0  0  0  0  0  0  0  0  0  0  0
    1.5091   -0.1874   -0.0600 C   0  0  0  0  0  0  0  0  0  0  0  0
    0.0239   -0.2238   -0.3460 C   0  0  0  0  0  0  0  0  0  0  0  0
   -0.4606   -0.5082   -1.4373 O   0  0  0  0  0  0  0  0  0  0  0  0
   -0.7419    0.0889    0.7646 N   0  0  0  0  0  0  0  0  0  0  0  0
   -2.1080    0.3344    0.5493 N   0  0  0  0  0  0  0  0  0  0  0  0
   -2.6479    1.4844    1.0916 C   0  0  0  0  0  0  0  0  0  0  0  0
   -2.0181    2.1879    1.8853 O   0  0  0  0  0  0  0  0  0  0  0  0
   -4.0210    1.8681    0.5952 C   0  0  0  0  0  0  0  0  0  0  0  0
   -4.9014    0.7220    0.4737 N   0  0  0  0  0  0  0  0  0  0  0  0
   -4.8063   -0.0423   -0.6348 N   0  0  0  0  0  0  0  0  0  0  0  0
   -5.7138   -1.0069   -0.4486 C   0  0  0  0  0  0  0  0  0  0  0  0
   -5.9135   -2.0596   -1.4737 C   0  0  0  0  0  0  0  0  0  0  0  0
   -6.3772   -0.8620    0.7893 C   0  0  0  0  0  0  0  0  0  0  0  0
   -5.8298    0.2618    1.3716 C   0  0  0  0  0  0  0  0  0  0  0  0
   -6.1107    0.9040    2.6785 C   0  0  0  0  0  0  0  0  0  0  0  0
    4.5013   -1.6563   -0.6982 C   0  0  0  0  0  0  0  0  0  0  0  0
    5.8693   -1.6124   -0.4190 C   0  0  0  0  0  0  0  0  0  0  0  0
    8.6471    1.1737   -1.1462 H   0  0  0  0  0  0  0  0  0  0  0  0
    9.6832    0.4597    0.0954 H   0  0  0  0  0  0  0  0  0  0  0  0
    8.2771    1.4000    0.6081 H   0  0  0  0  0  0  0  0  0  0  0  0
    6.3765    1.7348   -0.7935 H   0  0  0  0  0  0  0  0  0  0  0  0
    3.9898    1.6558   -1.2831 H   0  0  0  0  0  0  0  0  0  0  0  0
    2.0993    0.1844   -2.1139 H   0  0  0  0  0  0  0  0  0  0  0  0
    2.0513   -1.5115   -1.6870 H   0  0  0  0  0  0  0  0  0  0  0  0
    1.7642    0.8141    0.3070 H   0  0  0  0  0  0  0  0  0  0  0  0
    1.7232   -0.9056    0.7410 H   0  0  0  0  0  0  0  0  0  0  0  0
   -0.3282    0.6228    1.5291 H   0  0  0  0  0  0  0  0  0  0  0  0
   -2.5368   -0.1075   -0.2732 H   0  0  0  0  0  0  0  0  0  0  0  0
   -4.4769    2.5833    1.2870 H   0  0  0  0  0  0  0  0  0  0  0  0
   -3.9347    2.3417   -0.3881 H   0  0  0  0  0  0  0  0  0  0  0  0
   -6.7431   -2.7207   -1.1994 H   0  0  0  0  0  0  0  0  0  0  0  0
   -6.1450   -1.6147   -2.4475 H   0  0  0  0  0  0  0  0  0  0  0  0
   -5.0110   -2.6712   -1.5766 H   0  0  0  0  0  0  0  0  0  0  0  0
   -7.1473   -1.4991    1.2014 H   0  0  0  0  0  0  0  0  0  0  0  0
   -6.5493    1.8963    2.5341 H   0  0  0  0  0  0  0  0  0  0  0  0
   -6.8176    0.3066    3.2637 H   0  0  0  0  0  0  0  0  0  0  0  0
   -5.1932    1.0081    3.2675 H   0  0  0  0  0  0  0  0  0  0  0  0
    3.9849   -2.6134   -0.6682 H   0  0  0  0  0  0  0  0  0  0  0  0
    6.3981   -2.5314   -0.1770 H   0  0  0  0  0  0  0  0  0  0  0  0
  1  2  1  0
  2  3  1  0
  3  4  2  0
  4  5  1  0
  5  6  2  0
  6  7  1  0
  7  8  1  0
  8  9  1  0
  9 10  2  0
  9 11  1  0
 11 12  1  0
 12 13  1  0
 13 14  2  0
 13 15  1  0
 15 16  1  0
 16 17  1  0
 17 18  2  0
 18 19  1  0
 18 20  1  0
 20 21  2  0
 21 22  1  0
  6 23  1  0
 23 24  2  0
 24  3  1  0
 21 16  1  0
  1 25  1  0
  1 26  1  0
  1 27  1  0
  4 28  1  0
  5 29  1  0
  7 30  1  0
  7 31  1  0
  8 32  1  0
  8 33  1  0
 11 34  1  0
 12 35  1  0
 15 36  1  0
 15 37  1  0
 19 38  1  0
 19 39  1  0
 19 40  1  0
 20 41  1  0
 22 42  1  0
 22 43  1  0
 22 44  1  0
 23 45  1  0
 24 46  1  0
M  END
$$$$
