
     RDKit          3D

 54 57  0  0  0  0  0  0  0  0999 V2000
   -2.3618   -6.4742    1.1617 C   0  0  0  0  0  0  0  0  0  0  0  0
   -3.2045   -5.3312    1.0680 O   0  0  0  0  0  0  0  0  0  0  0  0
   -2.6922   -4.2320    0.4349 C   0  0  0  0  0  0  0  0  0  0  0  0
   -3.5721   -3.1469    0.3531 C   0  0  0  0  0  0  0  0  0  0  0  0
   -3.1820   -1.9583   -0.2661 C   0  0  0  0  0  0  0  0  0  0  0  0
   -1.8930   -1.8520   -0.7887 C   0  0  0  0  0  0  0  0  0  0  0  0
   -1.4703   -0.6076   -1.4688 C   0  0  0  0  0  0  0  0  0  0  0  0
   -1.3555   -0.6520   -2.7589 N   0  0  0  0  0  0  0  0  0  0  0  0
   -0.9714    0.5073   -3.4399 C   0  0  0  0  0  0  0  0  0  0  0  0
   -0.8188    0.4538   -4.8285 C   0  0  0  0  0  0  0  0  0  0  0  0
   -0.4382    1.5900   -5.5490 C   0  0  0  0  0  0  0  0  0  0  0  0
   -0.2086    2.7938   -4.8840 C   0  0  0  0  0  0  0  0  0  0  0  0
   -0.3602    2.8598   -3.4992 C   0  0  0  0  0  0  0  0  0  0  0  0
   -0.7416    1.7142   -2.7879 C   0  0  0  0  0  0  0  0  0  0  0  0
   -0.9002    1.7440   -1.3241 C   0  0  0  0  0  0  0  0  0  0  0  0
   -0.7581    2.8102   -0.7278 O   0  0  0  0  0  0  0  0  0  0  0  0
   -1.2278    0.5337   -0.7064 N   0  0  0  0  0  0  0  0  0  0  0  0
   -1.1761    0.5264    0.7654 C   0  0  0  0  0  0  0  0  0  0  0  0
    0.1655    0.0121    1.3051 C   0  0  0  0  0  0  0  0  0  0  0  0
    1.2567    0.7862    0.7910 O   0  0  0  0  0  0  0  0  0  0  0  0
    1.9767    1.4645    1.7386 C   0  0  0  0  0  0  0  0  0  0  0  0
    1.3676    2.3158    2.6663 C   0  0  0  0  0  0  0  0  0  0  0  0
    2.1375    3.0085    3.6111 C   0  0  0  0  0  0  0  0  0  0  0  0
    1.4810    3.9413    4.5857 C   0  0  0  0  0  0  0  0  0  0  0  0
    3.5288    2.8705    3.5868 C   0  0  0  0  0  0  0  0  0  0  0  0
    4.1407    2.0487    2.6371 C   0  0  0  0  0  0  0  0  0  0  0  0
    3.3722    1.3453    1.6977 C   0  0  0  0  0  0  0  0  0  0  0  0
    4.0386    0.4732    0.6706 C   0  0  0  0  0  0  0  0  0  0  0  0
   -1.0160   -2.9370   -0.7414 C   0  0  0  0  0  0  0  0  0  0  0  0
   -1.4142   -4.1256   -0.1200 C   0  0  0  0  0  0  0  0  0  0  0  0
   -2.9138   -7.2540    1.6952 H   0  0  0  0  0  0  0  0  0  0  0  0
   -2.1151   -6.8634    0.1677 H   0  0  0  0  0  0  0  0  0  0  0  0
   -1.4555   -6.2552    1.7366 H   0  0  0  0  0  0  0  0  0  0  0  0
   -4.5746   -3.2369    0.7648 H   0  0  0  0  0  0  0  0  0  0  0  0
   -3.8821   -1.1320   -0.3465 H   0  0  0  0  0  0  0  0  0  0  0  0
   -1.0002   -0.4834   -5.3482 H   0  0  0  0  0  0  0  0  0  0  0  0
   -0.3213    1.5329   -6.6288 H   0  0  0  0  0  0  0  0  0  0  0  0
    0.0894    3.6789   -5.4417 H   0  0  0  0  0  0  0  0  0  0  0  0
   -0.1777    3.7951   -2.9749 H   0  0  0  0  0  0  0  0  0  0  0  0
   -1.9843   -0.0889    1.1658 H   0  0  0  0  0  0  0  0  0  0  0  0
   -1.3473    1.5419    1.1381 H   0  0  0  0  0  0  0  0  0  0  0  0
    0.1420   -0.0232    2.4015 H   0  0  0  0  0  0  0  0  0  0  0  0
    0.3381   -1.0167    0.9697 H   0  0  0  0  0  0  0  0  0  0  0  0
    0.2920    2.4649    2.6431 H   0  0  0  0  0  0  0  0  0  0  0  0
    2.0777    4.0441    5.4916 H   0  0  0  0  0  0  0  0  0  0  0  0
    1.3520    4.9252    4.1352 H   0  0  0  0  0  0  0  0  0  0  0  0
    0.5038    3.5609    4.8881 H   0  0  0  0  0  0  0  0  0  0  0  0
    4.1486    3.4174    4.2976 H   0  0  0  0  0  0  0  0  0  0  0  0
    5.2259    1.9698    2.6294 H   0  0  0  0  0  0  0  0  0  0  0  0
    3.7748    0.8028   -0.3390 H   0  0  0  0  0  0  0  0  0  0  0  0
    5.1297    0.5166    0.7563 H   0  0  0  0  0  0  0  0  0  0  0  0
    3.7326   -0.5697    0.8043 H   0  0  0  0  0  0  0  0  0  0  0  0
   -0.0281   -2.8591   -1.1894 H   0  0  0  0  0  0  0  0  0  0  0  0
   -0.7093   -4.9505   -0.0968 H   0  0  0  0  0  0  0  0  0  0  0  0
  1  2  1  0
  2  3  1  0
  3  4  2  0
  4  5  1  0
  5  6  2  0
  6  7  1  0
  7  8  2  0
  8  9  1  0
  9 10  2  0
 10 11  1  0
 11 12  2  0
 12 13  1  0
 13 14  2  0
 14 15  1  0
 15 16  2  0
 15 17  1  0
 17 18  1  0
 18 19  1  0
 19 20  1  0
 20 21  1  0
 21 22  2  0
 22 23  1  0
 23 24  1  0
 23 25  2  0
 25 26  1  0
 26 27  2  0
 27 28  1  0
  6 29  1  0
 29 30  2  0
 30  3  1  0
 17  7  1  0
 27 21  1  0
 14  9  1  0
  1 31  1  0
  1 32  1  0
  1 33  1  0
  4 34  1  0
  5 35  1  0
 10 36  1  0
 11 37  1  0
 12 38  1  0
 13 39  1  0
 18 40  1  0
 18 41  1  0
 19 42  1  0
 19 43  1  0
 22 44  1  0
 24 45  1  0
 24 46  1  0
 24 47  1  0
 25 48  1  0
 26 49  1  0
 28 50  1  0
 28 51  1  0
 28 52  1  0
 29 53  1  0
 30 54  1  0
M  END
$$$$
