
     RDKit          3D

 45 48  0  0  0  0  0  0  0  0999 V2000
   -0.0863   -3.3349   -0.0109 C   0  0  0  0  0  0  0  0  0  0  0  0
    1.0816   -2.7034   -0.7464 C   0  0  0  0  0  0  0  0  0  0  0  0
    1.8057   -1.8957    0.1887 O   0  0  0  0  0  0  0  0  0  0  0  0
    2.6698   -1.0358   -0.4450 C   0  0  0  0  0  0  0  0  0  0  0  0
    3.7852   -1.5516   -1.1158 C   0  0  0  0  0  0  0  0  0  0  0  0
    4.7154   -0.6881   -1.6912 C   0  0  0  0  0  0  0  0  0  0  0  0
    4.5451    0.6889   -1.5794 C   0  0  0  0  0  0  0  0  0  0  0  0
    3.4434    1.2025   -0.8897 C   0  0  0  0  0  0  0  0  0  0  0  0
    2.4818    0.3517   -0.3100 C   0  0  0  0  0  0  0  0  0  0  0  0
    1.3327    0.9194    0.3996 C   0  0  0  0  0  0  0  0  0  0  0  0
    1.5975    1.8263    1.3690 N   0  0  0  0  0  0  0  0  0  0  0  0
    0.5213    2.3356    2.0185 C   0  0  0  0  0  0  0  0  0  0  0  0
    0.7927    3.3025    3.1179 C   0  0  0  0  0  0  0  0  0  0  0  0
    2.1138    3.5617    3.3647 N   0  0  0  0  0  0  0  0  0  0  0  0
   -0.1033    3.8304    3.7646 O   0  0  0  0  0  0  0  0  0  0  0  0
   -0.7541    1.9808    1.6931 C   0  0  0  0  0  0  0  0  0  0  0  0
   -1.9904    2.3369    2.2088 N   0  0  0  0  0  0  0  0  0  0  0  0
   -2.9856    1.6530    1.4976 C   0  0  0  0  0  0  0  0  0  0  0  0
   -4.1774    1.7736    1.7286 O   0  0  0  0  0  0  0  0  0  0  0  0
   -2.3134    0.8692    0.5111 N   0  0  0  0  0  0  0  0  0  0  0  0
   -2.9081    0.0077   -0.4476 C   0  0  0  0  0  0  0  0  0  0  0  0
   -2.2025   -0.5005   -1.5526 C   0  0  0  0  0  0  0  0  0  0  0  0
   -2.8114   -1.3520   -2.4836 C   0  0  0  0  0  0  0  0  0  0  0  0
   -4.1412   -1.7041   -2.3246 C   0  0  0  0  0  0  0  0  0  0  0  0
   -4.7235   -2.5184   -3.2136 F   0  0  0  0  0  0  0  0  0  0  0  0
   -4.8729   -1.2158   -1.2554 C   0  0  0  0  0  0  0  0  0  0  0  0
   -4.2598   -0.3643   -0.3276 C   0  0  0  0  0  0  0  0  0  0  0  0
   -0.9203    1.0860    0.6634 C   0  0  0  0  0  0  0  0  0  0  0  0
    0.1002    0.5361   -0.0006 N   0  0  0  0  0  0  0  0  0  0  0  0
    0.2717   -3.9584    0.8151 H   0  0  0  0  0  0  0  0  0  0  0  0
   -0.6843   -3.9532   -0.6861 H   0  0  0  0  0  0  0  0  0  0  0  0
   -0.7292   -2.5655    0.4286 H   0  0  0  0  0  0  0  0  0  0  0  0
    1.7297   -3.4942   -1.1402 H   0  0  0  0  0  0  0  0  0  0  0  0
    0.7038   -2.0966   -1.5784 H   0  0  0  0  0  0  0  0  0  0  0  0
    3.9462   -2.6245   -1.1715 H   0  0  0  0  0  0  0  0  0  0  0  0
    5.5805   -1.0898   -2.2128 H   0  0  0  0  0  0  0  0  0  0  0  0
    5.2732    1.3650   -2.0211 H   0  0  0  0  0  0  0  0  0  0  0  0
    3.3314    2.2826   -0.8072 H   0  0  0  0  0  0  0  0  0  0  0  0
    2.3659    4.1710    4.1302 H   0  0  0  0  0  0  0  0  0  0  0  0
    2.8363    3.0669    2.8531 H   0  0  0  0  0  0  0  0  0  0  0  0
   -2.1516    2.9796    2.9758 H   0  0  0  0  0  0  0  0  0  0  0  0
   -1.1692   -0.2327   -1.7449 H   0  0  0  0  0  0  0  0  0  0  0  0
   -2.2522   -1.7313   -3.3329 H   0  0  0  0  0  0  0  0  0  0  0  0
   -5.9153   -1.4960   -1.1409 H   0  0  0  0  0  0  0  0  0  0  0  0
   -4.8728   -0.0204    0.5013 H   0  0  0  0  0  0  0  0  0  0  0  0
  1  2  1  0
  2  3  1  0
  3  4  1  0
  4  5  2  0
  5  6  1  0
  6  7  2  0
  7  8  1  0
  8  9  2  0
  9 10  1  0
 10 11  2  0
 11 12  1  0
 12 13  1  0
 13 14  1  0
 13 15  2  0
 12 16  2  0
 16 17  1  0
 17 18  1  0
 18 19  2  0
 18 20  1  0
 20 21  1  0
 21 22  2  0
 22 23  1  0
 23 24  2  0
 24 25  1  0
 24 26  1  0
 26 27  2  0
 20 28  1  0
 28 29  2  0
  9  4  1  0
 29 10  1  0
 28 16  1  0
 27 21  1  0
  1 30  1  0
  1 31  1  0
  1 32  1  0
  2 33  1  0
  2 34  1  0
  5 35  1  0
  6 36  1  0
  7 37  1  0
  8 38  1  0
 14 39  1  0
 14 40  1  0
 17 41  1  0
 22 42  1  0
 23 43  1  0
 26 44  1  0
 27 45  1  0
M  END
$$$$
