
     RDKit          3D

 43 45  0  0  0  0  0  0  0  0999 V2000
   -1.1230    2.3267    2.3494 C   0  0  0  0  0  0  0  0  0  0  0  0
   -1.8743    2.6199    1.0846 C   0  0  0  0  0  0  0  0  0  0  0  0
   -1.8118    3.6806    0.4768 O   0  0  0  0  0  0  0  0  0  0  0  0
   -2.6427    1.5089    0.7577 O   0  0  0  0  0  0  0  0  0  0  0  0
   -3.2847    1.6242   -0.4814 C   0  0  0  0  0  0  0  0  0  0  0  0
   -4.6508    1.9136   -0.4680 C   0  0  0  0  0  0  0  0  0  0  0  0
   -5.3397    2.0179   -1.6743 C   0  0  0  0  0  0  0  0  0  0  0  0
   -4.6652    1.8253   -2.8804 C   0  0  0  0  0  0  0  0  0  0  0  0
   -3.3002    1.5181   -2.8850 C   0  0  0  0  0  0  0  0  0  0  0  0
   -2.5926    1.3948   -1.6827 C   0  0  0  0  0  0  0  0  0  0  0  0
   -1.1585    1.0782   -1.7443 C   0  0  0  0  0  0  0  0  0  0  0  0
   -0.6087    0.0689   -1.0501 C   0  0  0  0  0  0  0  0  0  0  0  0
    0.8195   -0.2551   -1.0181 C   0  0  0  0  0  0  0  0  0  0  0  0
    1.6639   -0.0768   -2.1035 C   0  0  0  0  0  0  0  0  0  0  0  0
    3.0017   -0.4349   -1.9712 C   0  0  0  0  0  0  0  0  0  0  0  0
    3.4648   -0.9729   -0.7653 C   0  0  0  0  0  0  0  0  0  0  0  0
    4.8150   -1.3365   -0.5935 C   0  0  0  0  0  0  0  0  0  0  0  0
    5.2631   -1.8638    0.6179 C   0  0  0  0  0  0  0  0  0  0  0  0
    4.3656   -2.0399    1.6628 C   0  0  0  0  0  0  0  0  0  0  0  0
    3.0248   -1.6946    1.4714 C   0  0  0  0  0  0  0  0  0  0  0  0
    2.1508   -1.8626    2.5556 O   0  0  0  0  0  0  0  0  0  0  0  0
    1.3734   -3.0043    2.4168 C   0  0  0  0  0  0  0  0  0  0  0  0
    0.3123   -2.9949    3.4766 C   0  0  0  0  0  0  0  0  0  0  0  0
    1.5292   -3.9113    1.6092 O   0  0  0  0  0  0  0  0  0  0  0  0
    2.5376   -1.1420    0.2822 C   0  0  0  0  0  0  0  0  0  0  0  0
    1.2388   -0.7842    0.1537 N   0  0  0  0  0  0  0  0  0  0  0  0
   -0.4784    3.1761    2.5925 H   0  0  0  0  0  0  0  0  0  0  0  0
   -1.8267    2.1732    3.1711 H   0  0  0  0  0  0  0  0  0  0  0  0
   -0.4931    1.4440    2.2108 H   0  0  0  0  0  0  0  0  0  0  0  0
   -5.1707    2.0663    0.4728 H   0  0  0  0  0  0  0  0  0  0  0  0
   -6.4009    2.2533   -1.6761 H   0  0  0  0  0  0  0  0  0  0  0  0
   -5.2027    1.9125   -3.8216 H   0  0  0  0  0  0  0  0  0  0  0  0
   -2.7974    1.3666   -3.8375 H   0  0  0  0  0  0  0  0  0  0  0  0
   -0.5653    1.7345   -2.3747 H   0  0  0  0  0  0  0  0  0  0  0  0
   -1.2197   -0.5618   -0.4084 H   0  0  0  0  0  0  0  0  0  0  0  0
    1.3013    0.3238   -3.0434 H   0  0  0  0  0  0  0  0  0  0  0  0
    3.6751   -0.2954   -2.8130 H   0  0  0  0  0  0  0  0  0  0  0  0
    5.5268   -1.2065   -1.4063 H   0  0  0  0  0  0  0  0  0  0  0  0
    6.3076   -2.1379    0.7416 H   0  0  0  0  0  0  0  0  0  0  0  0
    4.6974   -2.4507    2.6113 H   0  0  0  0  0  0  0  0  0  0  0  0
    0.7730   -3.0917    4.4626 H   0  0  0  0  0  0  0  0  0  0  0  0
   -0.2691   -2.0714    3.4115 H   0  0  0  0  0  0  0  0  0  0  0  0
   -0.3657   -3.8383    3.3173 H   0  0  0  0  0  0  0  0  0  0  0  0
  1  2  1  0
  2  3  2  0
  2  4  1  0
  4  5  1  0
  5  6  2  0
  6  7  1  0
  7  8  2  0
  8  9  1  0
  9 10  2  0
 10 11  1  0
 11 12  2  0
 12 13  1  0
 13 14  2  0
 14 15  1  0
 15 16  2  0
 16 17  1  0
 17 18  2  0
 18 19  1  0
 19 20  2  0
 20 21  1  0
 21 22  1  0
 22 23  1  0
 22 24  2  0
 20 25  1  0
 25 26  2  0
 10  5  1  0
 26 13  1  0
 25 16  1  0
  1 27  1  0
  1 28  1  0
  1 29  1  0
  6 30  1  0
  7 31  1  0
  8 32  1  0
  9 33  1  0
 11 34  1  0
 12 35  1  0
 14 36  1  0
 15 37  1  0
 17 38  1  0
 18 39  1  0
 19 40  1  0
 23 41  1  0
 23 42  1  0
 23 43  1  0
M  END
$$$$
