
     RDKit          3D

 34 35  0  0  0  0  0  0  0  0999 V2000
    5.1159    1.8939    0.2921 C   0  0  0  0  0  0  0  0  0  0  0  0
    4.5645    0.7302   -0.5124 C   0  0  0  0  0  0  0  0  0  0  0  0
    3.1162    0.7709   -0.6160 N   0  0  0  0  0  0  0  0  0  0  0  0
    2.5667    1.4884   -1.6156 N   0  0  0  0  0  0  0  0  0  0  0  0
    1.2571    1.3042   -1.4570 C   0  0  0  0  0  0  0  0  0  0  0  0
    0.9594    0.4607   -0.3671 C   0  0  0  0  0  0  0  0  0  0  0  0
   -0.3471    0.0673    0.0488 C   0  0  0  0  0  0  0  0  0  0  0  0
   -0.6660   -1.0892    0.6504 C   0  0  0  0  0  0  0  0  0  0  0  0
   -2.0378   -1.4576    1.0862 C   0  0  0  0  0  0  0  0  0  0  0  0
   -2.1817   -2.1723    2.0740 O   0  0  0  0  0  0  0  0  0  0  0  0
   -3.2244   -0.9763    0.3392 C   0  0  0  0  0  0  0  0  0  0  0  0
   -3.2413   -0.9195   -1.0601 C   0  0  0  0  0  0  0  0  0  0  0  0
   -4.3862   -0.4741   -1.7238 C   0  0  0  0  0  0  0  0  0  0  0  0
   -5.5157   -0.0997   -0.9953 C   0  0  0  0  0  0  0  0  0  0  0  0
   -5.5092   -0.1783    0.3974 C   0  0  0  0  0  0  0  0  0  0  0  0
   -4.3675   -0.6229    1.0655 C   0  0  0  0  0  0  0  0  0  0  0  0
    2.1873    0.1535    0.1937 C   0  0  0  0  0  0  0  0  0  0  0  0
    2.5636   -0.6321    1.3990 C   0  0  0  0  0  0  0  0  0  0  0  0
    4.7184    1.8955    1.3123 H   0  0  0  0  0  0  0  0  0  0  0  0
    4.8529    2.8519   -0.1686 H   0  0  0  0  0  0  0  0  0  0  0  0
    6.2069    1.8318    0.3505 H   0  0  0  0  0  0  0  0  0  0  0  0
    4.9682    0.7436   -1.5314 H   0  0  0  0  0  0  0  0  0  0  0  0
    4.8494   -0.2264   -0.0634 H   0  0  0  0  0  0  0  0  0  0  0  0
    0.5766    1.7831   -2.1492 H   0  0  0  0  0  0  0  0  0  0  0  0
   -1.1373    0.7821   -0.1742 H   0  0  0  0  0  0  0  0  0  0  0  0
    0.0852   -1.8235    0.9190 H   0  0  0  0  0  0  0  0  0  0  0  0
   -2.3809   -1.2346   -1.6447 H   0  0  0  0  0  0  0  0  0  0  0  0
   -4.4024   -0.4284   -2.8102 H   0  0  0  0  0  0  0  0  0  0  0  0
   -6.4080    0.2426   -1.5145 H   0  0  0  0  0  0  0  0  0  0  0  0
   -6.3952    0.0998    0.9631 H   0  0  0  0  0  0  0  0  0  0  0  0
   -4.3700   -0.6949    2.1513 H   0  0  0  0  0  0  0  0  0  0  0  0
    1.7811   -0.5830    2.1624 H   0  0  0  0  0  0  0  0  0  0  0  0
    2.7238   -1.6814    1.1324 H   0  0  0  0  0  0  0  0  0  0  0  0
    3.4772   -0.2520    1.8658 H   0  0  0  0  0  0  0  0  0  0  0  0
  1  2  1  0
  2  3  1  0
  3  4  1  0
  4  5  2  0
  5  6  1  0
  6  7  1  0
  7  8  2  3
  8  9  1  0
  9 10  2  0
  9 11  1  0
 11 12  2  0
 12 13  1  0
 13 14  2  0
 14 15  1  0
 15 16  2  0
  6 17  2  0
 17 18  1  0
 17  3  1  0
 16 11  1  0
  1 19  1  0
  1 20  1  0
  1 21  1  0
  2 22  1  0
  2 23  1  0
  5 24  1  0
  7 25  1  0
  8 26  1  0
 12 27  1  0
 13 28  1  0
 14 29  1  0
 15 30  1  0
 16 31  1  0
 18 32  1  0
 18 33  1  0
 18 34  1  0
M  END
$$$$
