
     RDKit          3D

 40 42  0  0  0  0  0  0  0  0999 V2000
    3.3418    0.5548   -1.6178 O   0  0  0  0  0  0  0  0  0  0  0  0
    3.2545    0.3886   -0.4078 C   0  0  0  0  0  0  0  0  0  0  0  0
    2.2121   -0.2055    0.2801 N   0  0  0  0  0  0  0  0  0  0  0  0
    0.9972   -0.6847   -0.2537 C   0  0  0  0  0  0  0  0  0  0  0  0
    0.1146   -1.3153    0.6359 C   0  0  0  0  0  0  0  0  0  0  0  0
   -1.1132   -1.8146    0.1922 C   0  0  0  0  0  0  0  0  0  0  0  0
   -1.4677   -1.6732   -1.1493 C   0  0  0  0  0  0  0  0  0  0  0  0
   -3.0030   -2.3379   -1.7402 S   0  0  0  0  0  6  0  0  0  0  0  0
   -3.6403   -3.1017   -0.6881 O   0  0  0  0  0  0  0  0  0  0  0  0
   -2.7186   -2.9644   -3.0175 O   0  0  0  0  0  0  0  0  0  0  0  0
   -3.9232   -0.9952   -2.1067 N   0  0  0  0  0  0  0  0  0  0  0  0
   -4.5554   -0.2744   -1.0798 C   0  0  0  0  0  0  0  0  0  0  0  0
   -5.7740    0.3391   -1.3322 C   0  0  0  0  0  0  0  0  0  0  0  0
   -6.3402    1.1263   -0.3329 C   0  0  0  0  0  0  0  0  0  0  0  0
   -5.6604    1.2903    0.8675 C   0  0  0  0  0  0  0  0  0  0  0  0
   -4.4339    0.6641    1.0120 C   0  0  0  0  0  0  0  0  0  0  0  0
   -3.8623   -0.1005    0.0564 N   0  0  0  0  0  0  0  0  0  0  0  0
   -0.5955   -1.0578   -2.0492 C   0  0  0  0  0  0  0  0  0  0  0  0
    0.6315   -0.5597   -1.5969 C   0  0  0  0  0  0  0  0  0  0  0  0
    4.3948    0.8288    0.4437 C   0  0  0  0  0  0  0  0  0  0  0  0
    4.1916    1.3851    1.7148 C   0  0  0  0  0  0  0  0  0  0  0  0
    5.2863    1.7901    2.4816 C   0  0  0  0  0  0  0  0  0  0  0  0
    6.5808    1.6491    1.9795 C   0  0  0  0  0  0  0  0  0  0  0  0
    6.7774    1.1124    0.7071 C   0  0  0  0  0  0  0  0  0  0  0  0
    8.5328    0.9364    0.0278 Br  0  0  0  0  0  0  0  0  0  0  0  0
    5.6926    0.7061   -0.0668 C   0  0  0  0  0  0  0  0  0  0  0  0
    2.3522   -0.3797    1.2664 H   0  0  0  0  0  0  0  0  0  0  0  0
    0.3678   -1.4296    1.6867 H   0  0  0  0  0  0  0  0  0  0  0  0
   -1.7890   -2.2980    0.8941 H   0  0  0  0  0  0  0  0  0  0  0  0
   -4.3539   -1.0465   -3.0229 H   0  0  0  0  0  0  0  0  0  0  0  0
   -6.2857    0.2092   -2.2784 H   0  0  0  0  0  0  0  0  0  0  0  0
   -7.3003    1.6093   -0.4915 H   0  0  0  0  0  0  0  0  0  0  0  0
   -6.0718    1.8953    1.6680 H   0  0  0  0  0  0  0  0  0  0  0  0
   -3.8576    0.7671    1.9271 H   0  0  0  0  0  0  0  0  0  0  0  0
   -0.8581   -0.9628   -3.1001 H   0  0  0  0  0  0  0  0  0  0  0  0
    1.2811   -0.0799   -2.3226 H   0  0  0  0  0  0  0  0  0  0  0  0
    3.1894    1.5384    2.1066 H   0  0  0  0  0  0  0  0  0  0  0  0
    5.1318    2.2270    3.4656 H   0  0  0  0  0  0  0  0  0  0  0  0
    7.4278    1.9697    2.5814 H   0  0  0  0  0  0  0  0  0  0  0  0
    5.8462    0.2940   -1.0620 H   0  0  0  0  0  0  0  0  0  0  0  0
  1  2  2  0
  2  3  1  0
  3  4  1  0
  4  5  2  0
  5  6  1  0
  6  7  2  0
  7  8  1  0
  8  9  2  0
  8 10  2  0
  8 11  1  0
 11 12  1  0
 12 13  2  0
 13 14  1  0
 14 15  2  0
 15 16  1  0
 16 17  2  0
  7 18  1  0
 18 19  2  0
  2 20  1  0
 20 21  2  0
 21 22  1  0
 22 23  2  0
 23 24  1  0
 24 25  1  0
 24 26  2  0
 19  4  1  0
 26 20  1  0
 17 12  1  0
  3 27  1  0
  5 28  1  0
  6 29  1  0
 11 30  1  0
 13 31  1  0
 14 32  1  0
 15 33  1  0
 16 34  1  0
 18 35  1  0
 19 36  1  0
 21 37  1  0
 22 38  1  0
 23 39  1  0
 26 40  1  0
M  END
$$$$
