
     RDKit          3D

 54 57  0  0  0  0  0  0  0  0999 V2000
    6.1192    0.6280    4.0783 C   0  0  0  0  0  0  0  0  0  0  0  0
    5.3557    0.3752    2.7885 C   0  0  0  0  0  0  0  0  0  0  0  0
    3.8627    0.2044    3.0225 C   0  0  0  0  0  0  0  0  0  0  0  0
    3.3580    0.3900    4.1296 O   0  0  0  0  0  0  0  0  0  0  0  0
    3.0997   -0.1655    1.9247 N   0  0  0  0  0  0  0  0  0  0  0  0
    3.6224   -0.3945    0.5713 C   0  0  0  0  0  0  0  0  0  0  0  0
    2.5636   -0.1859   -0.5274 C   0  0  0  0  0  0  0  0  0  0  0  0
    1.3090   -0.9410   -0.2912 N   0  0  0  0  0  0  0  0  0  0  0  0
    1.0538   -1.9758   -1.2288 C   0  0  0  0  0  0  0  0  0  0  0  0
    1.9755   -2.9997   -1.4882 C   0  0  0  0  0  0  0  0  0  0  0  0
    1.6707   -4.0083   -2.4037 C   0  0  0  0  0  0  0  0  0  0  0  0
    0.4427   -4.0004   -3.0631 C   0  0  0  0  0  0  0  0  0  0  0  0
    0.0829   -5.2509   -4.1909 Cl  0  0  0  0  0  0  0  0  0  0  0  0
   -0.4919   -2.9952   -2.8204 C   0  0  0  0  0  0  0  0  0  0  0  0
   -0.1929   -1.9851   -1.9060 C   0  0  0  0  0  0  0  0  0  0  0  0
   -1.0580   -0.9128   -1.6003 N   0  0  0  0  0  0  0  0  0  0  0  0
   -2.3417   -0.6941   -2.0474 C   0  0  0  0  0  0  0  0  0  0  0  0
   -2.9984   -1.4386   -2.7652 O   0  0  0  0  0  0  0  0  0  0  0  0
   -2.9731    0.5654   -1.5577 C   0  0  0  0  0  0  0  0  0  0  0  0
   -2.2225    1.7258   -1.3146 C   0  0  0  0  0  0  0  0  0  0  0  0
   -2.8556    2.8857   -0.8598 C   0  0  0  0  0  0  0  0  0  0  0  0
   -4.2347    2.8925   -0.6601 C   0  0  0  0  0  0  0  0  0  0  0  0
   -4.9838    1.7344   -0.8918 C   0  0  0  0  0  0  0  0  0  0  0  0
   -4.3596    0.5792   -1.3585 C   0  0  0  0  0  0  0  0  0  0  0  0
   -6.3383    1.6644   -0.6898 O   0  0  0  0  0  0  0  0  0  0  0  0
   -6.8103    2.7679    0.0913 C   0  0  0  0  0  0  0  0  0  0  0  0
   -6.2104    4.0727   -0.4054 C   0  0  0  0  0  0  0  0  0  0  0  0
   -4.7881    4.0724   -0.2338 O   0  0  0  0  0  0  0  0  0  0  0  0
    1.1037   -1.4165    1.1018 C   0  0  0  0  0  0  0  0  0  0  0  0
    1.6642   -0.4073    2.1162 C   0  0  0  0  0  0  0  0  0  0  0  0
    7.1886    0.7345    3.8728 H   0  0  0  0  0  0  0  0  0  0  0  0
    5.7727    1.5437    4.5690 H   0  0  0  0  0  0  0  0  0  0  0  0
    5.9865   -0.2005    4.7817 H   0  0  0  0  0  0  0  0  0  0  0  0
    5.5084    1.2261    2.1164 H   0  0  0  0  0  0  0  0  0  0  0  0
    5.7496   -0.5307    2.3158 H   0  0  0  0  0  0  0  0  0  0  0  0
    4.4735    0.2644    0.3795 H   0  0  0  0  0  0  0  0  0  0  0  0
    3.9920   -1.4259    0.5503 H   0  0  0  0  0  0  0  0  0  0  0  0
    2.2899    0.8768   -0.5425 H   0  0  0  0  0  0  0  0  0  0  0  0
    2.9984   -0.4003   -1.5114 H   0  0  0  0  0  0  0  0  0  0  0  0
    2.9302   -3.0322   -0.9732 H   0  0  0  0  0  0  0  0  0  0  0  0
    2.3910   -4.7991   -2.5958 H   0  0  0  0  0  0  0  0  0  0  0  0
   -1.4365   -3.0145   -3.3531 H   0  0  0  0  0  0  0  0  0  0  0  0
   -0.6488   -0.2816   -0.9175 H   0  0  0  0  0  0  0  0  0  0  0  0
   -1.1528    1.7551   -1.5032 H   0  0  0  0  0  0  0  0  0  0  0  0
   -2.2787    3.7890   -0.6804 H   0  0  0  0  0  0  0  0  0  0  0  0
   -4.9510   -0.3124   -1.5544 H   0  0  0  0  0  0  0  0  0  0  0  0
   -7.9008    2.7946    0.0023 H   0  0  0  0  0  0  0  0  0  0  0  0
   -6.5573    2.5838    1.1426 H   0  0  0  0  0  0  0  0  0  0  0  0
   -6.4336    4.2395   -1.4665 H   0  0  0  0  0  0  0  0  0  0  0  0
   -6.6128    4.9160    0.1645 H   0  0  0  0  0  0  0  0  0  0  0  0
    0.0310   -1.5520    1.2839 H   0  0  0  0  0  0  0  0  0  0  0  0
    1.5975   -2.3843    1.2614 H   0  0  0  0  0  0  0  0  0  0  0  0
    1.1626    0.5615    2.0032 H   0  0  0  0  0  0  0  0  0  0  0  0
    1.4759   -0.7639    3.1345 H   0  0  0  0  0  0  0  0  0  0  0  0
  1  2  1  0
  2  3  1  0
  3  4  2  0
  3  5  1  0
  5  6  1  0
  6  7  1  0
  7  8  1  0
  8  9  1  0
  9 10  2  0
 10 11  1  0
 11 12  2  0
 12 13  1  0
 12 14  1  0
 14 15  2  0
 15 16  1  0
 16 17  1  0
 17 18  2  0
 17 19  1  0
 19 20  2  0
 20 21  1  0
 21 22  2  0
 22 23  1  0
 23 24  2  0
 23 25  1  0
 25 26  1  0
 26 27  1  0
 27 28  1  0
  8 29  1  0
 29 30  1  0
 30  5  1  0
 15  9  1  0
 24 19  1  0
 28 22  1  0
  1 31  1  0
  1 32  1  0
  1 33  1  0
  2 34  1  0
  2 35  1  0
  6 36  1  0
  6 37  1  0
  7 38  1  0
  7 39  1  0
 10 40  1  0
 11 41  1  0
 14 42  1  0
 16 43  1  0
 20 44  1  0
 21 45  1  0
 24 46  1  0
 26 47  1  0
 26 48  1  0
 27 49  1  0
 27 50  1  0
 29 51  1  0
 29 52  1  0
 30 53  1  0
 30 54  1  0
M  END
$$$$
