
     RDKit          3D

 46 49  0  0  0  0  0  0  0  0999 V2000
    3.7604    1.1373   -0.0765 O   0  0  0  0  0  0  0  0  0  0  0  0
    2.9788    1.3911    0.8347 C   0  0  0  0  0  0  0  0  0  0  0  0
    2.6911    2.8310    1.2343 C   0  0  0  0  0  0  0  0  0  0  0  0
    1.3284    3.5053    0.2411 S   0  0  0  0  0  0  0  0  0  0  0  0
    0.0004    2.5933    0.8677 C   0  0  0  0  0  0  0  0  0  0  0  0
   -0.0335    2.0225    2.0501 N   0  0  0  0  0  0  0  0  0  0  0  0
   -1.1966    1.3055    2.1325 N   0  0  0  0  0  0  0  0  0  0  0  0
   -1.8511    1.4442    0.9939 C   0  0  0  0  0  0  0  0  0  0  0  0
   -3.1467    0.7861    0.6513 C   0  0  0  0  0  0  0  0  0  0  0  0
   -2.9778   -0.4546   -0.1789 C   0  0  0  0  0  0  0  0  0  0  0  0
   -1.9857   -1.4159   -0.1233 C   0  0  0  0  0  0  0  0  0  0  0  0
   -2.1660   -2.4430   -1.0909 C   0  0  0  0  0  0  0  0  0  0  0  0
   -3.3001   -2.2468   -1.8443 C   0  0  0  0  0  0  0  0  0  0  0  0
   -4.1480   -0.8405   -1.3714 S   0  0  0  0  0  0  0  0  0  0  0  0
   -1.1265    2.2714    0.1607 N   0  0  0  0  0  0  0  0  0  0  0  0
   -1.4783    2.6983   -1.1805 C   0  0  0  0  0  0  0  0  0  0  0  0
   -1.0618    1.7064   -2.2025 C   0  0  0  0  0  0  0  0  0  0  0  0
    0.0306    0.8763   -2.3664 C   0  0  0  0  0  0  0  0  0  0  0  0
   -0.1920    0.1585   -3.5615 C   0  0  0  0  0  0  0  0  0  0  0  0
   -1.3902    0.6061   -4.0631 C   0  0  0  0  0  0  0  0  0  0  0  0
   -1.9176    1.5554   -3.2532 O   0  0  0  0  0  0  0  0  0  0  0  0
    2.2627    0.4623    1.5711 N   0  0  0  0  0  0  0  0  0  0  0  0
    2.3024   -0.9431    1.4684 C   0  0  0  0  0  0  0  0  0  0  0  0
    1.3695   -1.6597    2.2325 C   0  0  0  0  0  0  0  0  0  0  0  0
    1.3381   -3.0562    2.1970 C   0  0  0  0  0  0  0  0  0  0  0  0
    2.2414   -3.7493    1.3970 C   0  0  0  0  0  0  0  0  0  0  0  0
    3.1711   -3.0393    0.6390 C   0  0  0  0  0  0  0  0  0  0  0  0
    4.2880   -3.9005   -0.3465 Cl  0  0  0  0  0  0  0  0  0  0  0  0
    3.2078   -1.6439    0.6714 C   0  0  0  0  0  0  0  0  0  0  0  0
    3.5882    3.4254    1.0394 H   0  0  0  0  0  0  0  0  0  0  0  0
    2.4777    2.9085    2.3060 H   0  0  0  0  0  0  0  0  0  0  0  0
   -3.6561    0.5065    1.5807 H   0  0  0  0  0  0  0  0  0  0  0  0
   -3.8014    1.5086    0.1527 H   0  0  0  0  0  0  0  0  0  0  0  0
   -1.1544   -1.3759    0.5714 H   0  0  0  0  0  0  0  0  0  0  0  0
   -1.4904   -3.2793   -1.2289 H   0  0  0  0  0  0  0  0  0  0  0  0
   -3.6809   -2.8636   -2.6473 H   0  0  0  0  0  0  0  0  0  0  0  0
   -1.0173    3.6706   -1.3770 H   0  0  0  0  0  0  0  0  0  0  0  0
   -2.5619    2.8589   -1.2025 H   0  0  0  0  0  0  0  0  0  0  0  0
    0.8793    0.7806   -1.7032 H   0  0  0  0  0  0  0  0  0  0  0  0
    0.4433   -0.5944   -4.0041 H   0  0  0  0  0  0  0  0  0  0  0  0
   -1.9766    0.3603   -4.9364 H   0  0  0  0  0  0  0  0  0  0  0  0
    1.5178    0.8379    2.1628 H   0  0  0  0  0  0  0  0  0  0  0  0
    0.6470   -1.1363    2.8605 H   0  0  0  0  0  0  0  0  0  0  0  0
    0.6098   -3.6001    2.7946 H   0  0  0  0  0  0  0  0  0  0  0  0
    2.2229   -4.8356    1.3734 H   0  0  0  0  0  0  0  0  0  0  0  0
    3.9543   -1.1304    0.0755 H   0  0  0  0  0  0  0  0  0  0  0  0
  1  2  2  0
  2  3  1  0
  3  4  1  0
  4  5  1  0
  5  6  2  0
  6  7  1  0
  7  8  2  0
  8  9  1  0
  9 10  1  0
 10 11  2  0
 11 12  1  0
 12 13  2  0
 13 14  1  0
  8 15  1  0
 15 16  1  0
 16 17  1  0
 17 18  2  0
 18 19  1  0
 19 20  2  0
 20 21  1  0
  2 22  1  0
 22 23  1  0
 23 24  2  0
 24 25  1  0
 25 26  2  0
 26 27  1  0
 27 28  1  0
 27 29  2  0
 15  5  1  0
 21 17  1  0
 29 23  1  0
 14 10  1  0
  3 30  1  0
  3 31  1  0
  9 32  1  0
  9 33  1  0
 11 34  1  0
 12 35  1  0
 13 36  1  0
 16 37  1  0
 16 38  1  0
 18 39  1  0
 19 40  1  0
 20 41  1  0
 22 42  1  0
 24 43  1  0
 25 44  1  0
 26 45  1  0
 29 46  1  0
M  END
$$$$
