
     RDKit          3D

 61 67  0  0  0  0  0  0  0  0999 V2000
    2.9852    0.8294    2.9691 O   0  0  0  0  0  0  0  0  0  0  0  0
    2.8204    0.5402    1.7869 C   0  0  0  0  0  0  0  0  0  0  0  0
    3.9690    0.7257    0.8710 C   0  0  0  0  0  0  0  0  0  0  0  0
    3.8242    1.4923   -0.3065 C   0  0  0  0  0  0  0  0  0  0  0  0
    4.9157    1.6881   -1.1576 C   0  0  0  0  0  0  0  0  0  0  0  0
    6.1207    1.1247   -0.7909 C   0  0  0  0  0  0  0  0  0  0  0  0
    6.2641    0.3985    0.3704 C   0  0  0  0  0  0  0  0  0  0  0  0
    5.2099    0.1868    1.2319 C   0  0  0  0  0  0  0  0  0  0  0  0
    7.5332   -0.0588    0.5409 O   0  0  0  0  0  0  0  0  0  0  0  0
    8.1763    0.4734   -0.6363 C   0  0  0  0  0  0  0  0  0  0  0  0
    7.2809    1.2118   -1.4946 O   0  0  0  0  0  0  0  0  0  0  0  0
    1.6030    0.0862    1.2594 N   0  0  0  0  0  0  0  0  0  0  0  0
    1.5562   -0.8583    0.1448 C   0  0  0  0  0  0  0  0  0  0  0  0
    0.2340   -0.7551   -0.6115 C   0  0  0  0  0  0  0  0  0  0  0  0
   -0.9892   -0.9336    0.3259 C   0  0  0  0  0  0  0  0  0  0  0  0
   -0.8552    0.0711    1.4972 C   0  0  0  0  0  0  0  0  0  0  0  0
    0.4952   -0.0283    2.2025 C   0  0  0  0  0  0  0  0  0  0  0  0
   -0.9005   -2.2426    0.9511 O   0  0  0  0  0  0  0  0  0  0  0  0
   -1.3493   -3.3152    0.2375 C   0  0  0  0  0  0  0  0  0  0  0  0
   -1.0038   -4.5717    0.7381 C   0  0  0  0  0  0  0  0  0  0  0  0
   -1.3989   -5.7265    0.0597 C   0  0  0  0  0  0  0  0  0  0  0  0
   -2.1398   -5.6159   -1.1130 C   0  0  0  0  0  0  0  0  0  0  0  0
   -2.5132   -6.7259   -1.7628 F   0  0  0  0  0  0  0  0  0  0  0  0
   -2.5012   -4.3737   -1.6174 C   0  0  0  0  0  0  0  0  0  0  0  0
   -2.1101   -3.2243   -0.9261 C   0  0  0  0  0  0  0  0  0  0  0  0
   -2.4917   -1.8913   -1.4164 C   0  0  0  0  0  0  0  0  0  0  0  0
   -2.8719   -1.7583   -2.5761 O   0  0  0  0  0  0  0  0  0  0  0  0
   -2.3480   -0.7548   -0.4168 C   0  0  0  0  0  0  0  0  0  0  0  0
   -2.6050    0.6037   -1.0546 C   0  0  0  0  0  0  0  0  0  0  0  0
   -3.6093    1.1463   -0.0988 C   0  0  0  0  0  0  0  0  0  0  0  0
   -4.0487    2.5604   -0.1455 C   0  0  0  0  0  0  0  0  0  0  0  0
   -3.6779    3.4062   -1.1973 C   0  0  0  0  0  0  0  0  0  0  0  0
   -4.1073    4.7357   -1.2091 C   0  0  0  0  0  0  0  0  0  0  0  0
   -4.9036    5.2243   -0.1735 C   0  0  0  0  0  0  0  0  0  0  0  0
   -5.2779    4.3851    0.8742 C   0  0  0  0  0  0  0  0  0  0  0  0
   -4.8544    3.0551    0.8875 C   0  0  0  0  0  0  0  0  0  0  0  0
   -4.0573    0.2948    0.7656 N   0  0  0  0  0  0  0  0  0  0  0  0
   -3.4402   -0.9470    0.5071 O   0  0  0  0  0  0  0  0  0  0  0  0
    2.8644    1.9423   -0.5481 H   0  0  0  0  0  0  0  0  0  0  0  0
    4.8259    2.2700   -2.0688 H   0  0  0  0  0  0  0  0  0  0  0  0
    5.3384   -0.3703    2.1540 H   0  0  0  0  0  0  0  0  0  0  0  0
    8.9892    1.1392   -0.3226 H   0  0  0  0  0  0  0  0  0  0  0  0
    8.6029   -0.3579   -1.2089 H   0  0  0  0  0  0  0  0  0  0  0  0
    1.6967   -1.8641    0.5598 H   0  0  0  0  0  0  0  0  0  0  0  0
    2.3812   -0.7001   -0.5529 H   0  0  0  0  0  0  0  0  0  0  0  0
    0.1959    0.2212   -1.1068 H   0  0  0  0  0  0  0  0  0  0  0  0
    0.2398   -1.5152   -1.4004 H   0  0  0  0  0  0  0  0  0  0  0  0
   -1.6353   -0.1077    2.2467 H   0  0  0  0  0  0  0  0  0  0  0  0
   -0.9743    1.0976    1.1315 H   0  0  0  0  0  0  0  0  0  0  0  0
    0.5621    0.7673    2.9537 H   0  0  0  0  0  0  0  0  0  0  0  0
    0.6002   -0.9824    2.7333 H   0  0  0  0  0  0  0  0  0  0  0  0
   -0.4229   -4.6532    1.6543 H   0  0  0  0  0  0  0  0  0  0  0  0
   -1.1342   -6.7099    0.4373 H   0  0  0  0  0  0  0  0  0  0  0  0
   -3.0888   -4.3119   -2.5291 H   0  0  0  0  0  0  0  0  0  0  0  0
   -1.7222    1.2436   -1.1070 H   0  0  0  0  0  0  0  0  0  0  0  0
   -3.0632    0.5542   -2.0468 H   0  0  0  0  0  0  0  0  0  0  0  0
   -3.0678    3.0538   -2.0234 H   0  0  0  0  0  0  0  0  0  0  0  0
   -3.8249    5.3919   -2.0291 H   0  0  0  0  0  0  0  0  0  0  0  0
   -5.2369    6.2594   -0.1845 H   0  0  0  0  0  0  0  0  0  0  0  0
   -5.9019    4.7641    1.6805 H   0  0  0  0  0  0  0  0  0  0  0  0
   -5.1578    2.4096    1.7093 H   0  0  0  0  0  0  0  0  0  0  0  0
  1  2  2  0
  2  3  1  0
  3  4  2  0
  4  5  1  0
  5  6  2  0
  6  7  1  0
  7  8  2  0
  7  9  1  0
  9 10  1  0
 10 11  1  0
  2 12  1  0
 12 13  1  0
 13 14  1  0
 14 15  1  0
 15 16  1  0
 16 17  1  0
 15 18  1  0
 18 19  1  0
 19 20  2  0
 20 21  1  0
 21 22  2  0
 22 23  1  0
 22 24  1  0
 24 25  2  0
 25 26  1  0
 26 27  2  0
 26 28  1  0
 28 29  1  0
 29 30  1  0
 30 31  1  0
 31 32  2  0
 32 33  1  0
 33 34  2  0
 34 35  1  0
 35 36  2  0
 30 37  2  0
 37 38  1  0
  8  3  1  0
 17 12  1  0
 25 19  1  0
 38 28  1  0
 11  6  1  0
 28 15  1  0
 36 31  1  0
  4 39  1  0
  5 40  1  0
  8 41  1  0
 10 42  1  0
 10 43  1  0
 13 44  1  0
 13 45  1  0
 14 46  1  0
 14 47  1  0
 16 48  1  0
 16 49  1  0
 17 50  1  0
 17 51  1  0
 20 52  1  0
 21 53  1  0
 24 54  1  0
 29 55  1  0
 29 56  1  0
 32 57  1  0
 33 58  1  0
 34 59  1  0
 35 60  1  0
 36 61  1  0
M  END
$$$$
