
     RDKit          3D

 45 46  0  0  0  0  0  0  0  0999 V2000
    6.4404    1.6987    1.6656 C   0  0  0  0  0  0  0  0  0  0  0  0
    6.3963    0.4457    0.9952 O   0  0  0  0  0  0  0  0  0  0  0  0
    5.1949   -0.2064    0.9695 C   0  0  0  0  0  0  0  0  0  0  0  0
    4.0015    0.2518    1.5306 C   0  0  0  0  0  0  0  0  0  0  0  0
    2.8327   -0.5147    1.4297 C   0  0  0  0  0  0  0  0  0  0  0  0
    2.8468   -1.7428    0.7551 C   0  0  0  0  0  0  0  0  0  0  0  0
    1.6257   -2.5761    0.6267 C   0  0  0  0  0  0  0  0  0  0  0  0
    1.7373   -3.7984    0.5426 O   0  0  0  0  0  0  0  0  0  0  0  0
    0.2736   -1.9661    0.5815 C   0  0  0  0  0  0  0  0  0  0  0  0
   -0.0011   -0.8359   -0.0878 C   0  0  0  0  0  0  0  0  0  0  0  0
   -1.3484   -0.2514   -0.1739 C   0  0  0  0  0  0  0  0  0  0  0  0
   -2.4902   -1.0455   -0.3644 C   0  0  0  0  0  0  0  0  0  0  0  0
   -3.7558   -0.4620   -0.4649 C   0  0  0  0  0  0  0  0  0  0  0  0
   -4.9260   -1.1541   -0.6423 O   0  0  0  0  0  0  0  0  0  0  0  0
   -4.8698   -2.5715   -0.5604 C   0  0  0  0  0  0  0  0  0  0  0  0
   -3.8638    0.9374   -0.4030 C   0  0  0  0  0  0  0  0  0  0  0  0
   -5.1110    1.5213   -0.4570 O   0  0  0  0  0  0  0  0  0  0  0  0
   -5.4471    1.8193   -1.8110 C   0  0  0  0  0  0  0  0  0  0  0  0
   -2.7336    1.7497   -0.2119 C   0  0  0  0  0  0  0  0  0  0  0  0
   -2.9603    3.1005   -0.1533 O   0  0  0  0  0  0  0  0  0  0  0  0
   -1.8618    3.9385    0.1761 C   0  0  0  0  0  0  0  0  0  0  0  0
   -1.4782    1.1448   -0.1126 C   0  0  0  0  0  0  0  0  0  0  0  0
    4.0563   -2.2120    0.2281 C   0  0  0  0  0  0  0  0  0  0  0  0
    4.1763   -3.4265   -0.3945 O   0  0  0  0  0  0  0  0  0  0  0  0
    5.2152   -1.4432    0.3207 C   0  0  0  0  0  0  0  0  0  0  0  0
    5.7814    2.4277    1.1827 H   0  0  0  0  0  0  0  0  0  0  0  0
    7.4642    2.0788    1.5974 H   0  0  0  0  0  0  0  0  0  0  0  0
    6.1964    1.5870    2.7272 H   0  0  0  0  0  0  0  0  0  0  0  0
    3.9475    1.1982    2.0594 H   0  0  0  0  0  0  0  0  0  0  0  0
    1.9260   -0.1422    1.8996 H   0  0  0  0  0  0  0  0  0  0  0  0
   -0.4966   -2.5584    1.0650 H   0  0  0  0  0  0  0  0  0  0  0  0
    0.7788   -0.2873   -0.6118 H   0  0  0  0  0  0  0  0  0  0  0  0
   -2.3716   -2.1209   -0.4475 H   0  0  0  0  0  0  0  0  0  0  0  0
   -5.8927   -2.9518   -0.6407 H   0  0  0  0  0  0  0  0  0  0  0  0
   -4.2939   -2.9895   -1.3924 H   0  0  0  0  0  0  0  0  0  0  0  0
   -4.4678   -2.8990    0.4041 H   0  0  0  0  0  0  0  0  0  0  0  0
   -5.4991    0.9103   -2.4200 H   0  0  0  0  0  0  0  0  0  0  0  0
   -4.7395    2.5300   -2.2517 H   0  0  0  0  0  0  0  0  0  0  0  0
   -6.4376    2.2841   -1.8148 H   0  0  0  0  0  0  0  0  0  0  0  0
   -1.4338    3.6696    1.1476 H   0  0  0  0  0  0  0  0  0  0  0  0
   -1.1015    3.9164   -0.6113 H   0  0  0  0  0  0  0  0  0  0  0  0
   -2.2340    4.9649    0.2494 H   0  0  0  0  0  0  0  0  0  0  0  0
   -0.5831    1.7442    0.0189 H   0  0  0  0  0  0  0  0  0  0  0  0
    3.3637   -3.9467   -0.2043 H   0  0  0  0  0  0  0  0  0  0  0  0
    6.1431   -1.8168   -0.1055 H   0  0  0  0  0  0  0  0  0  0  0  0
  1  2  1  0
  2  3  1  0
  3  4  2  0
  4  5  1  0
  5  6  2  0
  6  7  1  0
  7  8  2  0
  7  9  1  0
  9 10  2  0
 10 11  1  0
 11 12  2  0
 12 13  1  0
 13 14  1  0
 14 15  1  0
 13 16  2  0
 16 17  1  0
 17 18  1  0
 16 19  1  0
 19 20  1  0
 20 21  1  0
 19 22  2  0
  6 23  1  0
 23 24  1  0
 23 25  2  0
 25  3  1  0
 22 11  1  0
  1 26  1  0
  1 27  1  0
  1 28  1  0
  4 29  1  0
  5 30  1  0
  9 31  1  0
 10 32  1  0
 12 33  1  0
 15 34  1  0
 15 35  1  0
 15 36  1  0
 18 37  1  0
 18 38  1  0
 18 39  1  0
 21 40  1  0
 21 41  1  0
 21 42  1  0
 22 43  1  0
 24 44  1  0
 25 45  1  0
M  END
$$$$
