
     RDKit          3D

 58 59  0  0  0  0  0  0  0  0999 V2000
    8.8603   -0.0454   -3.1587 C   0  0  0  0  0  0  0  0  0  0  0  0
    7.6208   -0.0007   -2.2792 C   0  0  0  0  0  0  0  0  0  0  0  0
    7.9709   -0.2315   -0.8073 C   0  0  0  0  0  0  0  0  0  0  0  0
    6.7407   -0.1602    0.0971 C   0  0  0  0  0  0  0  0  0  0  0  0
    5.8566   -1.2274   -0.2424 O   0  0  0  0  0  0  0  0  0  0  0  0
    4.6890   -1.3231    0.4616 C   0  0  0  0  0  0  0  0  0  0  0  0
    3.8719   -2.3936    0.0897 C   0  0  0  0  0  0  0  0  0  0  0  0
    2.6476   -2.6110    0.7265 C   0  0  0  0  0  0  0  0  0  0  0  0
    2.2229   -1.7467    1.7398 C   0  0  0  0  0  0  0  0  0  0  0  0
    0.9114   -2.0088    2.3946 C   0  0  0  0  0  0  0  0  0  0  0  0
    0.4316   -3.1364    2.3982 O   0  0  0  0  0  0  0  0  0  0  0  0
    0.2697   -0.9151    2.9406 N   0  0  0  0  0  0  0  0  0  0  0  0
   -1.0992   -1.0489    3.4180 C   0  0  0  0  0  0  0  0  0  0  0  0
   -2.0884   -0.8318    2.2807 C   0  0  0  0  0  0  0  0  0  0  0  0
   -1.8434   -0.2283    1.2405 O   0  0  0  0  0  0  0  0  0  0  0  0
   -3.3081   -1.3446    2.6111 O   0  0  0  0  0  0  0  0  0  0  0  0
   -4.3198   -1.1196    1.6228 C   0  0  0  0  0  0  0  0  0  0  0  0
   -4.7135    0.3580    1.5208 C   0  0  0  0  0  0  0  0  0  0  0  0
   -4.4706    1.1390    2.4490 O   0  0  0  0  0  0  0  0  0  0  0  0
   -5.3333    0.8490    0.2411 C   0  0  0  0  0  0  0  0  0  0  0  0
   -5.2493    2.1521   -0.1139 C   0  0  0  0  0  0  0  0  0  0  0  0
   -4.6710    3.1164    0.7046 N   0  0  0  0  0  0  0  0  0  0  0  0
   -5.7736    2.5603   -1.3378 N   0  0  0  0  0  0  0  0  0  0  0  0
   -5.7901    3.9869   -1.6624 C   0  0  0  0  0  0  0  0  0  0  0  0
   -6.3103    1.6883   -2.2809 C   0  0  0  0  0  0  0  0  0  0  0  0
   -6.7709    2.0748   -3.3569 O   0  0  0  0  0  0  0  0  0  0  0  0
   -6.3135    0.3499   -1.9328 N   0  0  0  0  0  0  0  0  0  0  0  0
   -6.9129   -0.5856   -2.8668 C   0  0  0  0  0  0  0  0  0  0  0  0
   -6.0201   -0.0965   -0.6663 C   0  0  0  0  0  0  0  0  0  0  0  0
   -6.3112   -1.2239   -0.2682 O   0  0  0  0  0  0  0  0  0  0  0  0
    3.0457   -0.6814    2.1255 C   0  0  0  0  0  0  0  0  0  0  0  0
    4.2739   -0.4702    1.4853 C   0  0  0  0  0  0  0  0  0  0  0  0
    8.5894    0.1319   -4.2041 H   0  0  0  0  0  0  0  0  0  0  0  0
    9.3505   -1.0221   -3.0955 H   0  0  0  0  0  0  0  0  0  0  0  0
    9.5818    0.7217   -2.8602 H   0  0  0  0  0  0  0  0  0  0  0  0
    6.9116   -0.7617   -2.6244 H   0  0  0  0  0  0  0  0  0  0  0  0
    7.1328    0.9741   -2.3959 H   0  0  0  0  0  0  0  0  0  0  0  0
    8.6993    0.5192   -0.4796 H   0  0  0  0  0  0  0  0  0  0  0  0
    8.4395   -1.2178   -0.7041 H   0  0  0  0  0  0  0  0  0  0  0  0
    6.2430    0.8076   -0.0386 H   0  0  0  0  0  0  0  0  0  0  0  0
    7.0663   -0.2660    1.1389 H   0  0  0  0  0  0  0  0  0  0  0  0
    4.1926   -3.0674   -0.7015 H   0  0  0  0  0  0  0  0  0  0  0  0
    2.0273   -3.4531    0.4266 H   0  0  0  0  0  0  0  0  0  0  0  0
    0.5314   -0.0030    2.5876 H   0  0  0  0  0  0  0  0  0  0  0  0
   -1.2439   -2.0430    3.8514 H   0  0  0  0  0  0  0  0  0  0  0  0
   -1.2647   -0.2797    4.1771 H   0  0  0  0  0  0  0  0  0  0  0  0
   -5.1997   -1.6865    1.9412 H   0  0  0  0  0  0  0  0  0  0  0  0
   -3.9702   -1.5077    0.6600 H   0  0  0  0  0  0  0  0  0  0  0  0
   -4.2970    2.7211    1.5774 H   0  0  0  0  0  0  0  0  0  0  0  0
   -3.9453    3.6402    0.2234 H   0  0  0  0  0  0  0  0  0  0  0  0
   -4.7608    4.3334   -1.8009 H   0  0  0  0  0  0  0  0  0  0  0  0
   -6.3442    4.1993   -2.5807 H   0  0  0  0  0  0  0  0  0  0  0  0
   -6.2689    4.5442   -0.8501 H   0  0  0  0  0  0  0  0  0  0  0  0
   -6.5648   -1.6055   -2.6780 H   0  0  0  0  0  0  0  0  0  0  0  0
   -8.0000   -0.5511   -2.7423 H   0  0  0  0  0  0  0  0  0  0  0  0
   -6.6652   -0.3145   -3.8974 H   0  0  0  0  0  0  0  0  0  0  0  0
    2.7609   -0.0210    2.9398 H   0  0  0  0  0  0  0  0  0  0  0  0
    4.8846    0.3634    1.8161 H   0  0  0  0  0  0  0  0  0  0  0  0
  1  2  1  0
  2  3  1  0
  3  4  1  0
  4  5  1  0
  5  6  1  0
  6  7  2  0
  7  8  1  0
  8  9  2  0
  9 10  1  0
 10 11  2  0
 10 12  1  0
 12 13  1  0
 13 14  1  0
 14 15  2  0
 14 16  1  0
 16 17  1  0
 17 18  1  0
 18 19  2  0
 18 20  1  0
 20 21  2  0
 21 22  1  0
 21 23  1  0
 23 24  1  0
 23 25  1  0
 25 26  2  0
 25 27  1  0
 27 28  1  0
 27 29  1  0
 29 30  2  0
  9 31  1  0
 31 32  2  0
 32  6  1  0
 29 20  1  0
  1 33  1  0
  1 34  1  0
  1 35  1  0
  2 36  1  0
  2 37  1  0
  3 38  1  0
  3 39  1  0
  4 40  1  0
  4 41  1  0
  7 42  1  0
  8 43  1  0
 12 44  1  0
 13 45  1  0
 13 46  1  0
 17 47  1  0
 17 48  1  0
 22 49  1  0
 22 50  1  0
 24 51  1  0
 24 52  1  0
 24 53  1  0
 28 54  1  0
 28 55  1  0
 28 56  1  0
 31 57  1  0
 32 58  1  0
M  END
$$$$
