
     RDKit          3D

 46 48  0  0  0  0  0  0  0  0999 V2000
   -5.9033   -2.4360   -2.3780 C   0  0  0  0  0  0  0  0  0  0  0  0
   -6.2203   -2.2091   -1.0107 O   0  0  0  0  0  0  0  0  0  0  0  0
   -5.4335   -1.3091   -0.3378 C   0  0  0  0  0  0  0  0  0  0  0  0
   -4.3492   -0.6059   -0.8642 C   0  0  0  0  0  0  0  0  0  0  0  0
   -3.6232    0.2849   -0.0555 C   0  0  0  0  0  0  0  0  0  0  0  0
   -2.4989    1.0219   -0.6406 C   0  0  0  0  0  0  0  0  0  0  0  0
   -1.2445    0.9849   -0.1702 C   0  0  0  0  0  0  0  0  0  0  0  0
   -0.6611    0.2224    0.9805 C   0  0  0  0  0  0  0  0  0  0  0  0
    0.8385    0.1506    0.6922 C   0  0  0  0  0  0  0  0  0  0  0  0
    1.1161    1.3140   -0.2096 C   0  0  0  0  0  0  0  0  0  0  0  0
    2.2653    1.9562   -0.4577 C   0  0  0  0  0  0  0  0  0  0  0  0
    3.5388    1.5692    0.1481 C   0  0  0  0  0  0  0  0  0  0  0  0
    4.0396    2.3018    1.2330 C   0  0  0  0  0  0  0  0  0  0  0  0
    5.2451    1.9331    1.8268 C   0  0  0  0  0  0  0  0  0  0  0  0
    5.9401    0.8390    1.3265 C   0  0  0  0  0  0  0  0  0  0  0  0
    7.1228    0.4983    1.9251 O   0  0  0  0  0  0  0  0  0  0  0  0
    5.4608    0.0945    0.2397 C   0  0  0  0  0  0  0  0  0  0  0  0
    6.2599   -0.9525   -0.1428 O   0  0  0  0  0  0  0  0  0  0  0  0
    5.8368   -1.6958   -1.2814 C   0  0  0  0  0  0  0  0  0  0  0  0
    4.2503    0.4635   -0.3469 C   0  0  0  0  0  0  0  0  0  0  0  0
   -0.1568    1.7435   -0.8385 C   0  0  0  0  0  0  0  0  0  0  0  0
   -0.2828    2.5522   -1.7387 O   0  0  0  0  0  0  0  0  0  0  0  0
   -4.0053    0.4829    1.2788 C   0  0  0  0  0  0  0  0  0  0  0  0
   -5.0863   -0.2183    1.8115 C   0  0  0  0  0  0  0  0  0  0  0  0
   -5.7846   -1.1043    1.0019 C   0  0  0  0  0  0  0  0  0  0  0  0
   -6.8428   -1.7796    1.5478 O   0  0  0  0  0  0  0  0  0  0  0  0
   -4.9010   -2.8616   -2.4845 H   0  0  0  0  0  0  0  0  0  0  0  0
   -6.0086   -1.5186   -2.9652 H   0  0  0  0  0  0  0  0  0  0  0  0
   -6.6184   -3.1660   -2.7689 H   0  0  0  0  0  0  0  0  0  0  0  0
   -4.0434   -0.7345   -1.8977 H   0  0  0  0  0  0  0  0  0  0  0  0
   -2.7333    1.6138   -1.5255 H   0  0  0  0  0  0  0  0  0  0  0  0
   -0.8359    0.7731    1.9132 H   0  0  0  0  0  0  0  0  0  0  0  0
   -1.0836   -0.7825    1.0847 H   0  0  0  0  0  0  0  0  0  0  0  0
    1.4132    0.1845    1.6229 H   0  0  0  0  0  0  0  0  0  0  0  0
    1.0771   -0.7843    0.1699 H   0  0  0  0  0  0  0  0  0  0  0  0
    2.2956    2.8126   -1.1293 H   0  0  0  0  0  0  0  0  0  0  0  0
    3.4948    3.1599    1.6225 H   0  0  0  0  0  0  0  0  0  0  0  0
    5.6420    2.4935    2.6697 H   0  0  0  0  0  0  0  0  0  0  0  0
    7.4450   -0.2766    1.4199 H   0  0  0  0  0  0  0  0  0  0  0  0
    4.8887   -2.2077   -1.0865 H   0  0  0  0  0  0  0  0  0  0  0  0
    5.7688   -1.0567   -2.1684 H   0  0  0  0  0  0  0  0  0  0  0  0
    6.5943   -2.4604   -1.4815 H   0  0  0  0  0  0  0  0  0  0  0  0
    3.8390   -0.0843   -1.1903 H   0  0  0  0  0  0  0  0  0  0  0  0
   -3.4728    1.1907    1.9098 H   0  0  0  0  0  0  0  0  0  0  0  0
   -5.3871   -0.0711    2.8447 H   0  0  0  0  0  0  0  0  0  0  0  0
   -7.1959   -2.3258    0.8185 H   0  0  0  0  0  0  0  0  0  0  0  0
  1  2  1  0
  2  3  1  0
  3  4  2  0
  4  5  1  0
  5  6  1  0
  6  7  2  3
  7  8  1  0
  8  9  1  0
  9 10  1  0
 10 11  2  3
 11 12  1  0
 12 13  2  0
 13 14  1  0
 14 15  2  0
 15 16  1  0
 15 17  1  0
 17 18  1  0
 18 19  1  0
 17 20  2  0
 10 21  1  0
 21 22  2  0
  5 23  2  0
 23 24  1  0
 24 25  2  0
 25 26  1  0
 25  3  1  0
 21  7  1  0
 20 12  1  0
  1 27  1  0
  1 28  1  0
  1 29  1  0
  4 30  1  0
  6 31  1  0
  8 32  1  0
  8 33  1  0
  9 34  1  0
  9 35  1  0
 11 36  1  0
 13 37  1  0
 14 38  1  0
 16 39  1  0
 19 40  1  0
 19 41  1  0
 19 42  1  0
 20 43  1  0
 23 44  1  0
 24 45  1  0
 26 46  1  0
M  END
$$$$
