
     RDKit          3D

 68 71  0  0  0  0  0  0  0  0999 V2000
    8.1490    3.1933    0.4839 C   0  0  0  0  0  0  0  0  0  0  0  0
    6.8513    3.5093    1.1044 C   0  0  0  0  0  0  0  0  0  0  0  0
    5.7223    2.7797    1.3823 C   0  0  0  0  0  0  0  0  0  0  0  0
    4.8415    3.7031    1.9865 C   0  0  0  0  0  0  0  0  0  0  0  0
    3.5638    3.5165    2.4633 N   0  0  0  0  0  0  0  0  0  0  0  0
    2.8710    2.3264    2.4427 C   0  0  0  0  0  0  0  0  0  0  0  0
    3.2987    1.2539    2.0252 O   0  0  0  0  0  0  0  0  0  0  0  0
    1.4866    2.4732    3.0529 C   0  0  0  0  0  0  0  0  0  0  0  0
    0.6616    1.1980    2.9063 C   0  0  0  0  0  0  0  0  0  0  0  0
    0.2283    0.9720    1.4634 C   0  0  0  0  0  0  0  0  0  0  0  0
    0.3021    1.8888    0.6420 O   0  0  0  0  0  0  0  0  0  0  0  0
   -0.2670   -0.2805    1.1266 N   0  0  0  0  0  0  0  0  0  0  0  0
   -0.5443   -1.3296    2.1135 C   0  0  0  0  0  0  0  0  0  0  0  0
    0.6253   -2.2315    2.3076 C   0  0  0  0  0  0  0  0  0  0  0  0
    1.9528   -2.2041    1.9270 C   0  0  0  0  0  0  0  0  0  0  0  0
    2.5410   -3.3917    2.4237 C   0  0  0  0  0  0  0  0  0  0  0  0
    1.5457   -4.0583    3.0958 C   0  0  0  0  0  0  0  0  0  0  0  0
    0.3828   -3.3617    3.0365 O   0  0  0  0  0  0  0  0  0  0  0  0
   -0.7672   -0.4718   -0.2493 C   0  0  0  0  0  0  0  0  0  0  0  0
   -2.3204   -0.3749   -0.3241 C   0  0  0  0  0  0  0  0  0  0  0  0
   -3.0405   -0.2635    0.6670 O   0  0  0  0  0  0  0  0  0  0  0  0
   -2.8317   -0.4212   -1.6113 N   0  0  0  0  0  0  0  0  0  0  0  0
   -4.2430   -0.2190   -1.8995 C   0  0  0  0  0  0  0  0  0  0  0  0
   -4.6513   -1.0190   -3.1468 C   0  0  0  0  0  0  0  0  0  0  0  0
   -5.8464   -0.4250   -3.8969 C   0  0  0  0  0  0  0  0  0  0  0  0
   -6.7711    0.3598   -2.9759 C   0  0  0  0  0  0  0  0  0  0  0  0
   -6.0479    1.5207   -2.2932 C   0  0  0  0  0  0  0  0  0  0  0  0
   -4.5550    1.2694   -2.0690 C   0  0  0  0  0  0  0  0  0  0  0  0
   -0.1817   -1.7072   -0.9279 C   0  0  0  0  0  0  0  0  0  0  0  0
    1.0555   -1.5985   -1.5862 C   0  0  0  0  0  0  0  0  0  0  0  0
    1.6263   -2.7028   -2.2188 C   0  0  0  0  0  0  0  0  0  0  0  0
    0.9736   -3.9328   -2.1951 C   0  0  0  0  0  0  0  0  0  0  0  0
   -0.2441   -4.0616   -1.5323 C   0  0  0  0  0  0  0  0  0  0  0  0
   -0.8190   -2.9577   -0.9006 C   0  0  0  0  0  0  0  0  0  0  0  0
    5.4056    4.9128    2.0753 N   0  0  0  0  0  0  0  0  0  0  0  0
    6.6629    4.7908    1.5145 O   0  0  0  0  0  0  0  0  0  0  0  0
    8.0387    3.0784   -0.5980 H   0  0  0  0  0  0  0  0  0  0  0  0
    8.5510    2.2598    0.8892 H   0  0  0  0  0  0  0  0  0  0  0  0
    8.8827    3.9846    0.6694 H   0  0  0  0  0  0  0  0  0  0  0  0
    5.5595    1.7332    1.1733 H   0  0  0  0  0  0  0  0  0  0  0  0
    3.1377    4.3565    2.8316 H   0  0  0  0  0  0  0  0  0  0  0  0
    1.6196    2.6903    4.1190 H   0  0  0  0  0  0  0  0  0  0  0  0
    0.9775    3.3294    2.5950 H   0  0  0  0  0  0  0  0  0  0  0  0
    1.2358    0.3446    3.2760 H   0  0  0  0  0  0  0  0  0  0  0  0
   -0.2463    1.2976    3.5120 H   0  0  0  0  0  0  0  0  0  0  0  0
   -1.4139   -1.9158    1.8005 H   0  0  0  0  0  0  0  0  0  0  0  0
   -0.8104   -0.8735    3.0724 H   0  0  0  0  0  0  0  0  0  0  0  0
    2.4350   -1.4230    1.3538 H   0  0  0  0  0  0  0  0  0  0  0  0
    3.5657   -3.7168    2.3112 H   0  0  0  0  0  0  0  0  0  0  0  0
    1.5027   -4.9969    3.6323 H   0  0  0  0  0  0  0  0  0  0  0  0
   -0.4415    0.3821   -0.8602 H   0  0  0  0  0  0  0  0  0  0  0  0
   -2.1752   -0.3750   -2.3822 H   0  0  0  0  0  0  0  0  0  0  0  0
   -4.8178   -0.5938   -1.0420 H   0  0  0  0  0  0  0  0  0  0  0  0
   -3.8139   -1.1071   -3.8513 H   0  0  0  0  0  0  0  0  0  0  0  0
   -4.8849   -2.0462   -2.8386 H   0  0  0  0  0  0  0  0  0  0  0  0
   -5.4817    0.2410   -4.6904 H   0  0  0  0  0  0  0  0  0  0  0  0
   -6.4020   -1.2280   -4.3969 H   0  0  0  0  0  0  0  0  0  0  0  0
   -7.6308    0.7415   -3.5379 H   0  0  0  0  0  0  0  0  0  0  0  0
   -7.1744   -0.3175   -2.2124 H   0  0  0  0  0  0  0  0  0  0  0  0
   -6.5386    1.7249   -1.3331 H   0  0  0  0  0  0  0  0  0  0  0  0
   -6.1631    2.4326   -2.8911 H   0  0  0  0  0  0  0  0  0  0  0  0
   -4.2157    1.8432   -1.1975 H   0  0  0  0  0  0  0  0  0  0  0  0
   -3.9901    1.6618   -2.9257 H   0  0  0  0  0  0  0  0  0  0  0  0
    1.5872   -0.6473   -1.5990 H   0  0  0  0  0  0  0  0  0  0  0  0
    2.5828   -2.6051   -2.7243 H   0  0  0  0  0  0  0  0  0  0  0  0
    1.4195   -4.7943   -2.6842 H   0  0  0  0  0  0  0  0  0  0  0  0
   -0.7459   -5.0258   -1.5019 H   0  0  0  0  0  0  0  0  0  0  0  0
   -1.7665   -3.0905   -0.3829 H   0  0  0  0  0  0  0  0  0  0  0  0
  1  2  1  0
  2  3  2  0
  3  4  1  0
  4  5  1  0
  5  6  1  0
  6  7  2  0
  6  8  1  0
  8  9  1  0
  9 10  1  0
 10 11  2  0
 10 12  1  0
 12 13  1  0
 13 14  1  0
 14 15  2  0
 15 16  1  0
 16 17  2  0
 17 18  1  0
 12 19  1  0
 19 20  1  0
 20 21  2  0
 20 22  1  0
 22 23  1  0
 23 24  1  0
 24 25  1  0
 25 26  1  0
 26 27  1  0
 27 28  1  0
 19 29  1  0
 29 30  2  0
 30 31  1  0
 31 32  2  0
 32 33  1  0
 33 34  2  0
  4 35  2  0
 35 36  1  0
 36  2  1  0
 18 14  1  0
 28 23  1  0
 34 29  1  0
  1 37  1  0
  1 38  1  0
  1 39  1  0
  3 40  1  0
  5 41  1  0
  8 42  1  0
  8 43  1  0
  9 44  1  0
  9 45  1  0
 13 46  1  0
 13 47  1  0
 15 48  1  0
 16 49  1  0
 17 50  1  0
 19 51  1  0
 22 52  1  0
 23 53  1  0
 24 54  1  0
 24 55  1  0
 25 56  1  0
 25 57  1  0
 26 58  1  0
 26 59  1  0
 27 60  1  0
 27 61  1  0
 28 62  1  0
 28 63  1  0
 30 64  1  0
 31 65  1  0
 32 66  1  0
 33 67  1  0
 34 68  1  0
M  END
$$$$
