
     RDKit          3D

 41 44  0  0  0  0  0  0  0  0999 V2000
   -2.1321    2.7865   -2.7911 O   0  0  0  0  0  0  0  0  0  0  0  0
   -1.7346    1.5182   -2.2152 S   0  0  0  0  0  6  0  0  0  0  0  0
   -1.3668    0.4021   -3.0579 O   0  0  0  0  0  0  0  0  0  0  0  0
   -0.4670    1.8736   -1.1543 N   0  0  0  0  0  0  0  0  0  0  0  0
    0.3399    0.7934   -0.6778 C   0  0  0  0  0  0  0  0  0  0  0  0
   -0.0899    0.1397    0.4804 C   0  0  0  0  0  0  0  0  0  0  0  0
    0.6338   -0.9325    1.0031 C   0  0  0  0  0  0  0  0  0  0  0  0
   -0.0346   -1.7548    2.4434 S   0  0  0  0  0  0  0  0  0  0  0  0
    1.1607   -1.3831    3.6516 C   0  0  0  0  0  0  0  0  0  0  0  0
    0.9347   -0.5554    4.7135 N   0  0  0  0  0  0  0  0  0  0  0  0
    2.0802   -0.5768    5.3531 C   0  0  0  0  0  0  0  0  0  0  0  0
    2.9510   -1.3899    4.6991 N   0  0  0  0  0  0  0  0  0  0  0  0
    2.3845   -1.9254    3.6027 N   0  0  0  0  0  0  0  0  0  0  0  0
    1.8018   -1.3427    0.3421 C   0  0  0  0  0  0  0  0  0  0  0  0
    2.5549   -2.3894    0.8262 O   0  0  0  0  0  0  0  0  0  0  0  0
    2.2492   -0.7070   -0.8399 C   0  0  0  0  0  0  0  0  0  0  0  0
    3.4182   -1.1235   -1.5130 C   0  0  0  0  0  0  0  0  0  0  0  0
    3.8538   -0.4968   -2.6798 C   0  0  0  0  0  0  0  0  0  0  0  0
    3.1265    0.5615   -3.2030 C   0  0  0  0  0  0  0  0  0  0  0  0
    1.9680    0.9939   -2.5558 C   0  0  0  0  0  0  0  0  0  0  0  0
    1.5066    0.3791   -1.3666 C   0  0  0  0  0  0  0  0  0  0  0  0
   -3.0287    1.0062   -1.1152 C   0  0  0  0  0  0  0  0  0  0  0  0
   -3.3341   -0.3522   -0.9864 C   0  0  0  0  0  0  0  0  0  0  0  0
   -4.3520   -0.7458   -0.1183 C   0  0  0  0  0  0  0  0  0  0  0  0
   -5.0642    0.2134    0.6041 C   0  0  0  0  0  0  0  0  0  0  0  0
   -4.7659    1.5698    0.4593 C   0  0  0  0  0  0  0  0  0  0  0  0
   -3.7481    1.9721   -0.4051 C   0  0  0  0  0  0  0  0  0  0  0  0
    0.0069    2.7359   -1.4186 H   0  0  0  0  0  0  0  0  0  0  0  0
   -0.9923    0.4791    0.9844 H   0  0  0  0  0  0  0  0  0  0  0  0
    2.3272   -0.0451    6.2611 H   0  0  0  0  0  0  0  0  0  0  0  0
    3.9111   -1.6208    4.9320 H   0  0  0  0  0  0  0  0  0  0  0  0
    2.3705   -2.4787    1.7856 H   0  0  0  0  0  0  0  0  0  0  0  0
    3.9985   -1.9593   -1.1245 H   0  0  0  0  0  0  0  0  0  0  0  0
    4.7535   -0.8447   -3.1799 H   0  0  0  0  0  0  0  0  0  0  0  0
    3.4508    1.0465   -4.1201 H   0  0  0  0  0  0  0  0  0  0  0  0
    1.4144    1.8126   -3.0091 H   0  0  0  0  0  0  0  0  0  0  0  0
   -2.7838   -1.1039   -1.5485 H   0  0  0  0  0  0  0  0  0  0  0  0
   -4.5925   -1.8004   -0.0058 H   0  0  0  0  0  0  0  0  0  0  0  0
   -5.8587   -0.0974    1.2788 H   0  0  0  0  0  0  0  0  0  0  0  0
   -5.3300    2.3122    1.0188 H   0  0  0  0  0  0  0  0  0  0  0  0
   -3.5215    3.0295   -0.5201 H   0  0  0  0  0  0  0  0  0  0  0  0
  1  2  2  0
  2  3  2  0
  2  4  1  0
  4  5  1  0
  5  6  2  0
  6  7  1  0
  7  8  1  0
  8  9  1  0
  9 10  1  0
 10 11  2  0
 11 12  1  0
 12 13  1  0
  7 14  2  0
 14 15  1  0
 14 16  1  0
 16 17  2  0
 17 18  1  0
 18 19  2  0
 19 20  1  0
 20 21  2  0
  2 22  1  0
 22 23  2  0
 23 24  1  0
 24 25  2  0
 25 26  1  0
 26 27  2  0
 21  5  1  0
 27 22  1  0
 13  9  2  0
 21 16  1  0
  4 28  1  0
  6 29  1  0
 11 30  1  0
 12 31  1  0
 15 32  1  0
 17 33  1  0
 18 34  1  0
 19 35  1  0
 20 36  1  0
 23 37  1  0
 24 38  1  0
 25 39  1  0
 26 40  1  0
 27 41  1  0
M  END
$$$$
