
     RDKit          3D

 49 51  0  0  0  0  0  0  0  0999 V2000
   -0.7397   -2.8587    0.6555 C   0  0  0  0  0  0  0  0  0  0  0  0
   -1.0449   -1.6627   -0.2075 C   0  0  0  0  0  0  0  0  0  0  0  0
   -2.3306   -1.5057   -0.7466 C   0  0  0  0  0  0  0  0  0  0  0  0
   -2.6212   -0.3974   -1.5463 C   0  0  0  0  0  0  0  0  0  0  0  0
   -4.2476   -0.2201   -2.2504 S   0  0  0  0  0  6  0  0  0  0  0  0
   -4.8375   -1.5394   -2.3240 O   0  0  0  0  0  0  0  0  0  0  0  0
   -4.1194    0.6068   -3.4311 O   0  0  0  0  0  0  0  0  0  0  0  0
   -5.0959    0.6679   -1.0825 N   0  0  0  0  0  0  0  0  0  0  0  0
   -4.6805    2.0826   -0.8716 C   0  0  0  0  0  0  0  0  0  0  0  0
   -5.7504    2.8075   -0.0461 C   0  0  0  0  0  0  0  0  0  0  0  0
   -5.9660    2.1483    1.2118 O   0  0  0  0  0  0  0  0  0  0  0  0
   -6.4173    0.8010    0.9964 C   0  0  0  0  0  0  0  0  0  0  0  0
   -5.3776   -0.0109    0.2137 C   0  0  0  0  0  0  0  0  0  0  0  0
   -1.6279    0.5349   -1.8532 C   0  0  0  0  0  0  0  0  0  0  0  0
   -0.3434    0.3785   -1.3245 C   0  0  0  0  0  0  0  0  0  0  0  0
   -0.0451   -0.7129   -0.5002 C   0  0  0  0  0  0  0  0  0  0  0  0
    1.1778   -0.9564    0.0643 O   0  0  0  0  0  0  0  0  0  0  0  0
    2.2329   -0.0494   -0.2097 C   0  0  0  0  0  0  0  0  0  0  0  0
    3.5275   -0.4696    0.5007 C   0  0  0  0  0  0  0  0  0  0  0  0
    3.6084   -1.4819    1.1887 O   0  0  0  0  0  0  0  0  0  0  0  0
    4.5585    0.4309    0.2661 N   0  0  0  0  0  0  0  0  0  0  0  0
    5.8823    0.3737    0.7554 C   0  0  0  0  0  0  0  0  0  0  0  0
    6.3889   -0.6521    1.5535 C   0  0  0  0  0  0  0  0  0  0  0  0
    7.7206   -0.6127    1.9888 C   0  0  0  0  0  0  0  0  0  0  0  0
    8.5468    0.4525    1.6270 C   0  0  0  0  0  0  0  0  0  0  0  0
   10.3405    0.4947    2.2213 Br  0  0  0  0  0  0  0  0  0  0  0  0
    8.0588    1.4838    0.8323 C   0  0  0  0  0  0  0  0  0  0  0  0
    6.7355    1.4325    0.4062 C   0  0  0  0  0  0  0  0  0  0  0  0
    6.2637    2.4288   -0.3622 F   0  0  0  0  0  0  0  0  0  0  0  0
   -1.6400   -3.4503    0.8553 H   0  0  0  0  0  0  0  0  0  0  0  0
   -0.3383   -2.5381    1.6226 H   0  0  0  0  0  0  0  0  0  0  0  0
   -0.0137   -3.5084    0.1554 H   0  0  0  0  0  0  0  0  0  0  0  0
   -3.0997   -2.2503   -0.5456 H   0  0  0  0  0  0  0  0  0  0  0  0
   -4.5622    2.5978   -1.8291 H   0  0  0  0  0  0  0  0  0  0  0  0
   -3.7282    2.1020   -0.3307 H   0  0  0  0  0  0  0  0  0  0  0  0
   -5.4251    3.8308    0.1682 H   0  0  0  0  0  0  0  0  0  0  0  0
   -6.7014    2.8634   -0.5893 H   0  0  0  0  0  0  0  0  0  0  0  0
   -7.3796    0.8254    0.4717 H   0  0  0  0  0  0  0  0  0  0  0  0
   -6.5821    0.3469    1.9780 H   0  0  0  0  0  0  0  0  0  0  0  0
   -5.7676   -1.0190    0.0454 H   0  0  0  0  0  0  0  0  0  0  0  0
   -4.4523   -0.0731    0.7968 H   0  0  0  0  0  0  0  0  0  0  0  0
   -1.8406    1.3778   -2.5080 H   0  0  0  0  0  0  0  0  0  0  0  0
    0.4022    1.1225   -1.5856 H   0  0  0  0  0  0  0  0  0  0  0  0
    2.4421   -0.0296   -1.2860 H   0  0  0  0  0  0  0  0  0  0  0  0
    1.9709    0.9518    0.1532 H   0  0  0  0  0  0  0  0  0  0  0  0
    4.3564    1.2473   -0.3040 H   0  0  0  0  0  0  0  0  0  0  0  0
    5.7796   -1.5001    1.8548 H   0  0  0  0  0  0  0  0  0  0  0  0
    8.0986   -1.4225    2.6100 H   0  0  0  0  0  0  0  0  0  0  0  0
    8.6837    2.3219    0.5410 H   0  0  0  0  0  0  0  0  0  0  0  0
  1  2  1  0
  2  3  2  0
  3  4  1  0
  4  5  1  0
  5  6  2  0
  5  7  2  0
  5  8  1  0
  8  9  1  0
  9 10  1  0
 10 11  1  0
 11 12  1  0
 12 13  1  0
  4 14  2  0
 14 15  1  0
 15 16  2  0
 16 17  1  0
 17 18  1  0
 18 19  1  0
 19 20  2  0
 19 21  1  0
 21 22  1  0
 22 23  2  0
 23 24  1  0
 24 25  2  0
 25 26  1  0
 25 27  1  0
 27 28  2  0
 28 29  1  0
 16  2  1  0
 28 22  1  0
 13  8  1  0
  1 30  1  0
  1 31  1  0
  1 32  1  0
  3 33  1  0
  9 34  1  0
  9 35  1  0
 10 36  1  0
 10 37  1  0
 12 38  1  0
 12 39  1  0
 13 40  1  0
 13 41  1  0
 14 42  1  0
 15 43  1  0
 18 44  1  0
 18 45  1  0
 21 46  1  0
 23 47  1  0
 24 48  1  0
 27 49  1  0
M  END
$$$$
