
     RDKit          3D

 42 45  0  0  0  0  0  0  0  0999 V2000
    2.5801    1.8833    1.9556 O   0  0  0  0  0  0  0  0  0  0  0  0
    2.7158    0.9081    1.2230 C   0  0  0  0  0  0  0  0  0  0  0  0
    4.0051    0.7607    0.5222 C   0  0  0  0  0  0  0  0  0  0  0  0
    4.3438    1.6809   -0.4768 C   0  0  0  0  0  0  0  0  0  0  0  0
    5.5726    1.5706   -1.1304 C   0  0  0  0  0  0  0  0  0  0  0  0
    6.4587    0.5539   -0.7711 C   0  0  0  0  0  0  0  0  0  0  0  0
    6.1150   -0.3377    0.2430 C   0  0  0  0  0  0  0  0  0  0  0  0
    6.9795   -1.2976    0.5945 F   0  0  0  0  0  0  0  0  0  0  0  0
    4.8963   -0.2440    0.9023 C   0  0  0  0  0  0  0  0  0  0  0  0
    1.7303   -0.0473    1.0017 N   0  0  0  0  0  0  0  0  0  0  0  0
    0.4295    0.1190    1.6551 C   0  0  0  0  0  0  0  0  0  0  0  0
   -0.7348   -0.0134    0.6622 C   0  0  0  0  0  0  0  0  0  0  0  0
   -0.6798   -1.2545   -0.1240 N   0  0  0  0  0  0  0  0  0  0  0  0
   -1.7784   -1.8413   -0.7630 C   0  0  0  0  0  0  0  0  0  0  0  0
   -1.7118   -3.0005   -1.1779 O   0  0  0  0  0  0  0  0  0  0  0  0
   -3.0300   -1.0699   -0.9486 C   0  0  0  0  0  0  0  0  0  0  0  0
   -4.2794   -1.6364   -1.3178 C   0  0  0  0  0  0  0  0  0  0  0  0
   -5.1590   -0.5883   -1.4204 C   0  0  0  0  0  0  0  0  0  0  0  0
   -6.4882   -0.5400   -1.7391 N   0  0  0  0  0  0  0  0  0  0  0  0
   -7.0183    0.6491   -1.7596 C   0  0  0  0  0  0  0  0  0  0  0  0
   -6.3108    1.9341   -1.4685 C   0  0  0  0  0  0  0  0  0  0  0  0
   -7.2373    3.5303   -1.5531 Br  0  0  0  0  0  0  0  0  0  0  0  0
   -5.0132    1.8126   -1.1609 C   0  0  0  0  0  0  0  0  0  0  0  0
   -4.4177    0.5582   -1.1319 N   0  0  0  0  0  0  0  0  0  0  0  0
   -3.1277    0.2696   -0.8444 N   0  0  0  0  0  0  0  0  0  0  0  0
    0.5783   -2.0015   -0.0760 C   0  0  0  0  0  0  0  0  0  0  0  0
    1.8040   -1.0784   -0.0450 C   0  0  0  0  0  0  0  0  0  0  0  0
    3.6562    2.4831   -0.7365 H   0  0  0  0  0  0  0  0  0  0  0  0
    5.8444    2.2818   -1.9070 H   0  0  0  0  0  0  0  0  0  0  0  0
    7.4215    0.4593   -1.2649 H   0  0  0  0  0  0  0  0  0  0  0  0
    4.6578   -0.9362    1.7033 H   0  0  0  0  0  0  0  0  0  0  0  0
    0.3611   -0.6685    2.4151 H   0  0  0  0  0  0  0  0  0  0  0  0
    0.3645    1.0794    2.1758 H   0  0  0  0  0  0  0  0  0  0  0  0
   -0.6969    0.8192   -0.0494 H   0  0  0  0  0  0  0  0  0  0  0  0
   -1.6776    0.0264    1.2159 H   0  0  0  0  0  0  0  0  0  0  0  0
   -4.5003   -2.6811   -1.4912 H   0  0  0  0  0  0  0  0  0  0  0  0
   -8.0897    0.7369   -2.0098 H   0  0  0  0  0  0  0  0  0  0  0  0
   -4.3666    2.6500   -0.9330 H   0  0  0  0  0  0  0  0  0  0  0  0
    0.5470   -2.6212    0.8292 H   0  0  0  0  0  0  0  0  0  0  0  0
    0.6536   -2.6797   -0.9322 H   0  0  0  0  0  0  0  0  0  0  0  0
    1.8940   -0.5523   -1.0038 H   0  0  0  0  0  0  0  0  0  0  0  0
    2.7082   -1.6767    0.0986 H   0  0  0  0  0  0  0  0  0  0  0  0
  1  2  2  0
  2  3  1  0
  3  4  2  0
  4  5  1  0
  5  6  2  0
  6  7  1  0
  7  8  1  0
  7  9  2  0
  2 10  1  0
 10 11  1  0
 11 12  1  0
 12 13  1  0
 13 14  1  0
 14 15  2  0
 14 16  1  0
 16 17  1  0
 17 18  2  0
 18 19  1  0
 19 20  2  0
 20 21  1  0
 21 22  1  0
 21 23  2  0
 23 24  1  0
 24 25  1  0
 13 26  1  0
 26 27  1  0
  9  3  1  0
 27 10  1  0
 25 16  2  0
 24 18  1  0
  4 28  1  0
  5 29  1  0
  6 30  1  0
  9 31  1  0
 11 32  1  0
 11 33  1  0
 12 34  1  0
 12 35  1  0
 17 36  1  0
 20 37  1  0
 23 38  1  0
 26 39  1  0
 26 40  1  0
 27 41  1  0
 27 42  1  0
M  END
$$$$
