
     RDKit          3D

 30 32  0  0  0  0  0  0  0  0999 V2000
   -0.0537    1.2989    1.8182 C   0  0  0  0  0  0  0  0  0  0  0  0
   -0.5628    0.4005    0.8007 N   0  0  0  0  0  0  0  0  0  0  0  0
    0.2120   -0.3333   -0.0778 C   0  0  0  0  0  0  0  0  0  0  0  0
    1.6715   -0.2688   -0.1460 C   0  0  0  0  0  0  0  0  0  0  0  0
    2.4285   -1.3438    0.3368 C   0  0  0  0  0  0  0  0  0  0  0  0
    3.8247   -1.2940    0.3118 C   0  0  0  0  0  0  0  0  0  0  0  0
    4.4755   -0.1702   -0.1972 C   0  0  0  0  0  0  0  0  0  0  0  0
    3.7326    0.9021   -0.6896 C   0  0  0  0  0  0  0  0  0  0  0  0
    2.3412    0.8464   -0.6713 C   0  0  0  0  0  0  0  0  0  0  0  0
    1.6759    1.9228   -1.1947 O   0  0  0  0  0  0  0  0  0  0  0  0
   -0.6541   -1.1002   -0.8344 C   0  0  0  0  0  0  0  0  0  0  0  0
   -1.9834   -0.7909   -0.4464 C   0  0  0  0  0  0  0  0  0  0  0  0
   -3.2493   -1.2338   -0.8773 C   0  0  0  0  0  0  0  0  0  0  0  0
   -4.4013   -0.7087   -0.2835 C   0  0  0  0  0  0  0  0  0  0  0  0
   -4.3043    0.2448    0.7251 C   0  0  0  0  0  0  0  0  0  0  0  0
   -3.0585    0.6975    1.1706 C   0  0  0  0  0  0  0  0  0  0  0  0
   -1.9060    0.1624    0.5710 C   0  0  0  0  0  0  0  0  0  0  0  0
    0.9287    0.9602    2.1545 H   0  0  0  0  0  0  0  0  0  0  0  0
   -0.7304    1.2967    2.6760 H   0  0  0  0  0  0  0  0  0  0  0  0
    0.0110    2.2996    1.3842 H   0  0  0  0  0  0  0  0  0  0  0  0
    1.9330   -2.2225    0.7438 H   0  0  0  0  0  0  0  0  0  0  0  0
    4.4038   -2.1319    0.6918 H   0  0  0  0  0  0  0  0  0  0  0  0
    5.5615   -0.1311   -0.2158 H   0  0  0  0  0  0  0  0  0  0  0  0
    4.2351    1.7753   -1.0961 H   0  0  0  0  0  0  0  0  0  0  0  0
    0.7480    1.6575   -1.3287 H   0  0  0  0  0  0  0  0  0  0  0  0
   -0.3590   -1.7976   -1.6081 H   0  0  0  0  0  0  0  0  0  0  0  0
   -3.3322   -1.9752   -1.6666 H   0  0  0  0  0  0  0  0  0  0  0  0
   -5.3792   -1.0485   -0.6154 H   0  0  0  0  0  0  0  0  0  0  0  0
   -5.2103    0.6442    1.1754 H   0  0  0  0  0  0  0  0  0  0  0  0
   -2.9983    1.4416    1.9580 H   0  0  0  0  0  0  0  0  0  0  0  0
  1  2  1  0
  2  3  1  0
  3  4  1  0
  4  5  2  0
  5  6  1  0
  6  7  2  0
  7  8  1  0
  8  9  2  0
  9 10  1  0
  3 11  2  0
 11 12  1  0
 12 13  2  0
 13 14  1  0
 14 15  2  0
 15 16  1  0
 16 17  2  0
 17  2  1  0
  9  4  1  0
 17 12  1  0
  1 18  1  0
  1 19  1  0
  1 20  1  0
  5 21  1  0
  6 22  1  0
  7 23  1  0
  8 24  1  0
 10 25  1  0
 11 26  1  0
 13 27  1  0
 14 28  1  0
 15 29  1  0
 16 30  1  0
M  END
$$$$
