
     RDKit          3D

 54 57  0  0  0  0  0  0  0  0999 V2000
   -4.1564    4.6448   -0.4703 C   0  0  0  0  0  0  0  0  0  0  0  0
   -4.4997    3.1878   -0.3798 C   0  0  0  0  0  0  0  0  0  0  0  0
   -5.8284    2.7714   -0.2971 C   0  0  0  0  0  0  0  0  0  0  0  0
   -6.1378    1.4132   -0.2370 C   0  0  0  0  0  0  0  0  0  0  0  0
   -5.1260    0.4381   -0.2665 C   0  0  0  0  0  0  0  0  0  0  0  0
   -5.5245   -1.0131   -0.2051 C   0  0  0  0  0  0  0  0  0  0  0  0
   -3.7744    0.8362   -0.3832 C   0  0  0  0  0  0  0  0  0  0  0  0
   -2.6648   -0.1309   -0.4512 C   0  0  0  0  0  0  0  0  0  0  0  0
   -1.6044   -0.0933    0.4357 C   0  0  0  0  0  0  0  0  0  0  0  0
   -0.5841   -1.0294    0.2788 C   0  0  0  0  0  0  0  0  0  0  0  0
    0.5607   -0.9146    1.2092 C   0  0  0  0  0  0  0  0  0  0  0  0
    0.3402   -1.0810    2.4003 O   0  0  0  0  0  0  0  0  0  0  0  0
    1.7406   -0.5835    0.5765 N   0  0  0  0  0  0  0  0  0  0  0  0
    2.9776   -0.3505    1.1609 C   0  0  0  0  0  0  0  0  0  0  0  0
    3.2077   -0.4916    2.8278 S   0  0  0  0  0  0  0  0  0  0  0  0
    4.8391   -0.0047    2.7306 C   0  0  0  0  0  0  0  0  0  0  0  0
    5.6317    0.0763    3.9960 C   0  0  0  0  0  0  0  0  0  0  0  0
    5.2281    0.2642    1.4246 C   0  0  0  0  0  0  0  0  0  0  0  0
    6.5873    0.7729    1.0496 C   0  0  0  0  0  0  0  0  0  0  0  0
    4.1435   -0.0086    0.4866 C   0  0  0  0  0  0  0  0  0  0  0  0
    4.1593    0.0744   -0.9758 C   0  0  0  0  0  0  0  0  0  0  0  0
    5.3555   -0.1517   -1.5920 N   0  0  0  0  0  0  0  0  0  0  0  0
    3.1453    0.2468   -1.6482 O   0  0  0  0  0  0  0  0  0  0  0  0
   -0.6414   -2.0175   -0.7266 C   0  0  0  0  0  0  0  0  0  0  0  0
    0.3212   -3.0415   -0.9162 C   0  0  0  0  0  0  0  0  0  0  0  0
    0.1837   -3.9735   -1.9424 C   0  0  0  0  0  0  0  0  0  0  0  0
   -0.9142   -3.9007   -2.7877 C   0  0  0  0  0  0  0  0  0  0  0  0
   -1.8715   -2.9020   -2.5944 C   0  0  0  0  0  0  0  0  0  0  0  0
   -1.7605   -1.9638   -1.5772 C   0  0  0  0  0  0  0  0  0  0  0  0
   -2.7320   -1.0453   -1.4497 N   0  0  0  0  0  0  0  0  0  0  0  0
   -3.4888    2.2186   -0.4370 C   0  0  0  0  0  0  0  0  0  0  0  0
   -3.2230    4.8566    0.0640 H   0  0  0  0  0  0  0  0  0  0  0  0
   -4.9391    5.2621   -0.0161 H   0  0  0  0  0  0  0  0  0  0  0  0
   -4.0407    4.9368   -1.5192 H   0  0  0  0  0  0  0  0  0  0  0  0
   -6.6347    3.5015   -0.2752 H   0  0  0  0  0  0  0  0  0  0  0  0
   -7.1821    1.1150   -0.1679 H   0  0  0  0  0  0  0  0  0  0  0  0
   -6.5482   -1.1269    0.1681 H   0  0  0  0  0  0  0  0  0  0  0  0
   -4.8780   -1.5684    0.4817 H   0  0  0  0  0  0  0  0  0  0  0  0
   -5.4751   -1.4614   -1.2031 H   0  0  0  0  0  0  0  0  0  0  0  0
   -1.5630    0.6424    1.2331 H   0  0  0  0  0  0  0  0  0  0  0  0
    1.7127   -0.4211   -0.4316 H   0  0  0  0  0  0  0  0  0  0  0  0
    6.4287    0.8222    3.9262 H   0  0  0  0  0  0  0  0  0  0  0  0
    5.0043    0.3572    4.8491 H   0  0  0  0  0  0  0  0  0  0  0  0
    6.0926   -0.8936    4.2098 H   0  0  0  0  0  0  0  0  0  0  0  0
    7.2482   -0.0639    0.8034 H   0  0  0  0  0  0  0  0  0  0  0  0
    6.5350    1.4512    0.1917 H   0  0  0  0  0  0  0  0  0  0  0  0
    7.0486    1.3408    1.8633 H   0  0  0  0  0  0  0  0  0  0  0  0
    5.3152   -0.2673   -2.5963 H   0  0  0  0  0  0  0  0  0  0  0  0
    6.1032   -0.6212   -1.1026 H   0  0  0  0  0  0  0  0  0  0  0  0
    1.1794   -3.1300   -0.2525 H   0  0  0  0  0  0  0  0  0  0  0  0
    0.9286   -4.7542   -2.0774 H   0  0  0  0  0  0  0  0  0  0  0  0
   -1.0363   -4.6204   -3.5935 H   0  0  0  0  0  0  0  0  0  0  0  0
   -2.7343   -2.8560   -3.2555 H   0  0  0  0  0  0  0  0  0  0  0  0
   -2.4543    2.5456   -0.5390 H   0  0  0  0  0  0  0  0  0  0  0  0
  1  2  1  0
  2  3  2  0
  3  4  1  0
  4  5  2  0
  5  6  1  0
  5  7  1  0
  7  8  1  0
  8  9  2  0
  9 10  1  0
 10 11  1  0
 11 12  2  0
 11 13  1  0
 13 14  1  0
 14 15  1  0
 15 16  1  0
 16 17  1  0
 16 18  2  0
 18 19  1  0
 18 20  1  0
 20 21  1  0
 21 22  1  0
 21 23  2  0
 10 24  2  0
 24 25  1  0
 25 26  2  0
 26 27  1  0
 27 28  2  0
 28 29  1  0
 29 30  2  0
  7 31  2  0
 31  2  1  0
 30  8  1  0
 20 14  2  0
 29 24  1  0
  1 32  1  0
  1 33  1  0
  1 34  1  0
  3 35  1  0
  4 36  1  0
  6 37  1  0
  6 38  1  0
  6 39  1  0
  9 40  1  0
 13 41  1  0
 17 42  1  0
 17 43  1  0
 17 44  1  0
 19 45  1  0
 19 46  1  0
 19 47  1  0
 22 48  1  0
 22 49  1  0
 25 50  1  0
 26 51  1  0
 27 52  1  0
 28 53  1  0
 31 54  1  0
M  END
$$$$
