
     RDKit          3D

 42 44  0  0  0  0  0  0  0  0999 V2000
   -4.1958   -1.8476   -1.1963 C   0  0  0  0  0  0  0  0  0  0  0  0
   -4.1047   -0.9564    0.0433 C   0  0  0  0  0  0  0  0  0  0  0  0
   -4.1802   -1.7781    1.3310 C   0  0  0  0  0  0  0  0  0  0  0  0
   -2.9091   -0.1103    0.0123 N   0  0  0  0  0  0  0  0  0  0  0  0
   -1.6185   -0.5890    0.0178 C   0  0  0  0  0  0  0  0  0  0  0  0
   -0.7559    0.4836   -0.0179 C   0  0  0  0  0  0  0  0  0  0  0  0
    0.6738    0.4211   -0.0202 C   0  0  0  0  0  0  0  0  0  0  0  0
    1.4164   -0.6984   -0.0715 C   0  0  0  0  0  0  0  0  0  0  0  0
    2.8830   -0.6993   -0.0757 C   0  0  0  0  0  0  0  0  0  0  0  0
    3.5610   -1.5620   -0.9344 C   0  0  0  0  0  0  0  0  0  0  0  0
    4.9511   -1.5873   -0.9305 C   0  0  0  0  0  0  0  0  0  0  0  0
    5.6517   -0.7877   -0.0957 N   0  0  0  0  0  4  0  0  0  0  0  0
    7.1236   -0.8371   -0.0995 C   0  0  0  0  0  0  0  0  0  0  0  0
    5.0154    0.0395    0.7633 C   0  0  0  0  0  0  0  0  0  0  0  0
    3.6268    0.0993    0.7918 C   0  0  0  0  0  0  0  0  0  0  0  0
   -1.5532    1.6700   -0.0450 C   0  0  0  0  0  0  0  0  0  0  0  0
   -1.2584    3.0521   -0.0860 C   0  0  0  0  0  0  0  0  0  0  0  0
   -2.2963    3.9885   -0.1048 C   0  0  0  0  0  0  0  0  0  0  0  0
   -3.6206    3.5702   -0.0836 C   0  0  0  0  0  0  0  0  0  0  0  0
   -3.9436    2.2111   -0.0438 C   0  0  0  0  0  0  0  0  0  0  0  0
   -2.8966    1.2723   -0.0253 C   0  0  0  0  0  0  0  0  0  0  0  0
   -4.1474   -1.2482   -2.1121 H   0  0  0  0  0  0  0  0  0  0  0  0
   -5.1410   -2.4006   -1.2048 H   0  0  0  0  0  0  0  0  0  0  0  0
   -3.3806   -2.5783   -1.2328 H   0  0  0  0  0  0  0  0  0  0  0  0
   -4.9733   -0.2905    0.0304 H   0  0  0  0  0  0  0  0  0  0  0  0
   -4.1215   -1.1289    2.2115 H   0  0  0  0  0  0  0  0  0  0  0  0
   -3.3642   -2.5057    1.3979 H   0  0  0  0  0  0  0  0  0  0  0  0
   -5.1250   -2.3298    1.3812 H   0  0  0  0  0  0  0  0  0  0  0  0
   -1.4341   -1.6541    0.0499 H   0  0  0  0  0  0  0  0  0  0  0  0
    1.1801    1.3834    0.0086 H   0  0  0  0  0  0  0  0  0  0  0  0
    0.9392   -1.6735   -0.1368 H   0  0  0  0  0  0  0  0  0  0  0  0
    3.0138   -2.2104   -1.6167 H   0  0  0  0  0  0  0  0  0  0  0  0
    5.5103   -2.2456   -1.5895 H   0  0  0  0  0  0  0  0  0  0  0  0
    7.4724   -1.1553   -1.0854 H   0  0  0  0  0  0  0  0  0  0  0  0
    7.4290   -1.5508    0.6697 H   0  0  0  0  0  0  0  0  0  0  0  0
    7.5126    0.1616    0.1165 H   0  0  0  0  0  0  0  0  0  0  0  0
    5.6258    0.6449    1.4277 H   0  0  0  0  0  0  0  0  0  0  0  0
    3.1345    0.7617    1.5016 H   0  0  0  0  0  0  0  0  0  0  0  0
   -0.2299    3.3977   -0.1050 H   0  0  0  0  0  0  0  0  0  0  0  0
   -2.0658    5.0504   -0.1371 H   0  0  0  0  0  0  0  0  0  0  0  0
   -4.4191    4.3090   -0.0990 H   0  0  0  0  0  0  0  0  0  0  0  0
   -4.9856    1.9083   -0.0286 H   0  0  0  0  0  0  0  0  0  0  0  0
  1  2  1  0
  2  3  1  0
  2  4  1  0
  4  5  1  0
  5  6  2  0
  6  7  1  0
  7  8  2  3
  8  9  1  0
  9 10  2  0
 10 11  1  0
 11 12  2  0
 12 13  1  0
 12 14  1  0
 14 15  2  0
  6 16  1  0
 16 17  2  0
 17 18  1  0
 18 19  2  0
 19 20  1  0
 20 21  2  0
 21  4  1  0
 15  9  1  0
 21 16  1  0
  1 22  1  0
  1 23  1  0
  1 24  1  0
  2 25  1  0
  3 26  1  0
  3 27  1  0
  3 28  1  0
  5 29  1  0
  7 30  1  0
  8 31  1  0
 10 32  1  0
 11 33  1  0
 13 34  1  0
 13 35  1  0
 13 36  1  0
 14 37  1  0
 15 38  1  0
 17 39  1  0
 18 40  1  0
 19 41  1  0
 20 42  1  0
M  CHG  1  12   1
M  END
$$$$
