
     RDKit          3D

 42 44  0  0  0  0  0  0  0  0999 V2000
    0.6767   -1.7346    1.8535 C   0  0  0  0  0  0  0  0  0  0  0  0
   -0.1602   -0.6731    1.2094 C   0  0  0  0  0  0  0  0  0  0  0  0
    0.2762    0.4260    0.5674 C   0  0  0  0  0  0  0  0  0  0  0  0
    1.5787    0.7842    0.3483 N   0  0  0  0  0  0  0  0  0  0  0  0
    2.0518    2.0328   -0.0062 C   0  0  0  0  0  0  0  0  0  0  0  0
    1.4061    3.0761    0.0618 O   0  0  0  0  0  0  0  0  0  0  0  0
    3.5260    2.0877   -0.3590 C   0  0  0  0  0  0  0  0  0  0  0  0
    4.0044    0.9028   -1.0530 N   0  0  0  0  0  0  0  0  0  0  0  0
    4.4436    0.8221   -2.3446 C   0  0  0  0  0  0  0  0  0  0  0  0
    4.8078   -0.4900   -2.5488 C   0  0  0  0  0  0  0  0  0  0  0  0
    4.5507   -1.1285   -1.3164 C   0  0  0  0  0  0  0  0  0  0  0  0
    4.7344   -2.5254   -0.9644 N   0  0  0  0  0  4  0  0  0  0  0  0
    5.2938   -3.2356   -1.8130 O   0  0  0  0  0  0  0  0  0  0  0  0
    4.3153   -2.9134    0.1366 O   0  0  0  0  0  1  0  0  0  0  0  0
    4.0703   -0.2765   -0.3898 N   0  0  0  0  0  0  0  0  0  0  0  0
   -0.9583    1.1181    0.0605 C   0  0  0  0  0  0  0  0  0  0  0  0
   -0.9632    2.0439   -0.7354 O   0  0  0  0  0  0  0  0  0  0  0  0
   -2.0485    0.3746    0.5531 N   0  0  0  0  0  0  0  0  0  0  0  0
   -3.3432    0.3552   -0.0348 C   0  0  0  0  0  0  0  0  0  0  0  0
   -4.1349   -0.8041   -0.0218 C   0  0  0  0  0  0  0  0  0  0  0  0
   -5.4113   -0.8144   -0.5938 C   0  0  0  0  0  0  0  0  0  0  0  0
   -5.9174    0.3369   -1.1892 C   0  0  0  0  0  0  0  0  0  0  0  0
   -5.1463    1.4951   -1.2158 C   0  0  0  0  0  0  0  0  0  0  0  0
   -3.8695    1.5025   -0.6443 C   0  0  0  0  0  0  0  0  0  0  0  0
   -1.5596   -0.7455    1.2885 N   0  0  0  0  0  0  0  0  0  0  0  0
   -2.1693   -0.8783    2.6241 C   0  0  0  0  0  0  0  0  0  0  0  0
    0.3447   -2.7256    1.5262 H   0  0  0  0  0  0  0  0  0  0  0  0
    0.5918   -1.6841    2.9436 H   0  0  0  0  0  0  0  0  0  0  0  0
    1.7367   -1.6493    1.6003 H   0  0  0  0  0  0  0  0  0  0  0  0
    2.2881    0.0738    0.5278 H   0  0  0  0  0  0  0  0  0  0  0  0
    4.1174    2.1979    0.5556 H   0  0  0  0  0  0  0  0  0  0  0  0
    3.7066    2.9485   -1.0112 H   0  0  0  0  0  0  0  0  0  0  0  0
    4.4557    1.6833   -3.0005 H   0  0  0  0  0  0  0  0  0  0  0  0
    5.1962   -0.9299   -3.4575 H   0  0  0  0  0  0  0  0  0  0  0  0
   -3.7567   -1.7289    0.4046 H   0  0  0  0  0  0  0  0  0  0  0  0
   -6.0035   -1.7256   -0.5811 H   0  0  0  0  0  0  0  0  0  0  0  0
   -6.9076    0.3311   -1.6369 H   0  0  0  0  0  0  0  0  0  0  0  0
   -5.5330    2.3982   -1.6810 H   0  0  0  0  0  0  0  0  0  0  0  0
   -3.3030    2.4306   -0.6713 H   0  0  0  0  0  0  0  0  0  0  0  0
   -1.8360   -0.0708    3.2863 H   0  0  0  0  0  0  0  0  0  0  0  0
   -1.8892   -1.8371    3.0728 H   0  0  0  0  0  0  0  0  0  0  0  0
   -3.2619   -0.8510    2.5821 H   0  0  0  0  0  0  0  0  0  0  0  0
  1  2  1  0
  2  3  2  0
  3  4  1  0
  4  5  1  0
  5  6  2  0
  5  7  1  0
  7  8  1  0
  8  9  1  0
  9 10  2  0
 10 11  1  0
 11 12  1  0
 12 13  2  0
 12 14  1  0
 11 15  2  0
  3 16  1  0
 16 17  2  0
 16 18  1  0
 18 19  1  0
 19 20  2  0
 20 21  1  0
 21 22  2  0
 22 23  1  0
 23 24  2  0
 18 25  1  0
 25 26  1  0
 25  2  1  0
 15  8  1  0
 24 19  1  0
  1 27  1  0
  1 28  1  0
  1 29  1  0
  4 30  1  0
  7 31  1  0
  7 32  1  0
  9 33  1  0
 10 34  1  0
 20 35  1  0
 21 36  1  0
 22 37  1  0
 23 38  1  0
 24 39  1  0
 26 40  1  0
 26 41  1  0
 26 42  1  0
M  CHG  2  12   1  14  -1
M  END
$$$$
