
     RDKit          3D

 44 46  0  0  0  0  0  0  0  0999 V2000
    5.3264    2.6645   -1.6991 C   0  0  0  0  0  0  0  0  0  0  0  0
    6.2417    1.8748   -0.9478 O   0  0  0  0  0  0  0  0  0  0  0  0
    5.7830    0.6634   -0.4981 C   0  0  0  0  0  0  0  0  0  0  0  0
    4.5000    0.1463   -0.6828 C   0  0  0  0  0  0  0  0  0  0  0  0
    4.1645   -1.1131   -0.1592 C   0  0  0  0  0  0  0  0  0  0  0  0
    2.8225   -1.6749   -0.3475 C   0  0  0  0  0  0  0  0  0  0  0  0
    1.6947   -1.2047    0.2020 C   0  0  0  0  0  0  0  0  0  0  0  0
    1.5125    0.1437    1.2643 S   0  0  0  0  0  0  0  0  0  0  0  0
   -0.2307   -0.0698    1.4053 C   0  0  0  0  0  0  0  0  0  0  0  0
   -1.2042    0.9036    2.3444 S   0  0  0  0  0  0  0  0  0  0  0  0
   -0.5993   -1.1597    0.6471 N   0  0  0  0  0  0  0  0  0  0  0  0
   -2.0499   -1.5619    0.4379 N   0  0  0  0  0  0  0  0  0  0  0  0
   -2.7331   -0.8673   -0.9711 S   0  0  0  0  0  6  0  0  0  0  0  0
   -3.0783   -1.9667   -1.8446 O   0  0  0  0  0  0  0  0  0  0  0  0
   -1.8712    0.2120   -1.4063 O   0  0  0  0  0  0  0  0  0  0  0  0
   -4.2360   -0.1822   -0.3311 C   0  0  0  0  0  0  0  0  0  0  0  0
   -4.3133    1.1825   -0.0458 C   0  0  0  0  0  0  0  0  0  0  0  0
   -5.5066    1.7154    0.4437 C   0  0  0  0  0  0  0  0  0  0  0  0
   -6.6296    0.8964    0.6258 C   0  0  0  0  0  0  0  0  0  0  0  0
   -7.8991    1.4737    1.1799 C   0  0  0  0  0  0  0  0  0  0  0  0
   -6.5388   -0.4708    0.3305 C   0  0  0  0  0  0  0  0  0  0  0  0
   -5.3477   -1.0115   -0.1564 C   0  0  0  0  0  0  0  0  0  0  0  0
    0.3785   -1.8514   -0.0438 C   0  0  0  0  0  0  0  0  0  0  0  0
    0.1995   -2.8504   -0.7257 O   0  0  0  0  0  0  0  0  0  0  0  0
    5.1261   -1.8605    0.5330 C   0  0  0  0  0  0  0  0  0  0  0  0
    6.4090   -1.3487    0.7214 C   0  0  0  0  0  0  0  0  0  0  0  0
    6.7217   -0.0969    0.2088 C   0  0  0  0  0  0  0  0  0  0  0  0
    7.9873    0.3839    0.4090 O   0  0  0  0  0  0  0  0  0  0  0  0
    4.4585    2.9468   -1.0934 H   0  0  0  0  0  0  0  0  0  0  0  0
    5.0197    2.1494   -2.6156 H   0  0  0  0  0  0  0  0  0  0  0  0
    5.8420    3.5841   -1.9911 H   0  0  0  0  0  0  0  0  0  0  0  0
    3.7447    0.7016   -1.2289 H   0  0  0  0  0  0  0  0  0  0  0  0
    2.7881   -2.5589   -0.9834 H   0  0  0  0  0  0  0  0  0  0  0  0
   -2.1338   -2.5804    0.3268 H   0  0  0  0  0  0  0  0  0  0  0  0
   -3.4563    1.8363   -0.1920 H   0  0  0  0  0  0  0  0  0  0  0  0
   -5.5564    2.7766    0.6811 H   0  0  0  0  0  0  0  0  0  0  0  0
   -8.0661    2.4838    0.7909 H   0  0  0  0  0  0  0  0  0  0  0  0
   -8.7658    0.8683    0.8932 H   0  0  0  0  0  0  0  0  0  0  0  0
   -7.8451    1.5166    2.2716 H   0  0  0  0  0  0  0  0  0  0  0  0
   -7.3993   -1.1218    0.4744 H   0  0  0  0  0  0  0  0  0  0  0  0
   -5.2995   -2.0709   -0.3979 H   0  0  0  0  0  0  0  0  0  0  0  0
    4.8846   -2.8412    0.9353 H   0  0  0  0  0  0  0  0  0  0  0  0
    7.1590   -1.9186    1.2620 H   0  0  0  0  0  0  0  0  0  0  0  0
    7.9961    1.2586   -0.0268 H   0  0  0  0  0  0  0  0  0  0  0  0
  1  2  1  0
  2  3  1  0
  3  4  2  0
  4  5  1  0
  5  6  1  0
  6  7  2  3
  7  8  1  0
  8  9  1  0
  9 10  2  0
  9 11  1  0
 11 12  1  0
 12 13  1  0
 13 14  2  0
 13 15  2  0
 13 16  1  0
 16 17  2  0
 17 18  1  0
 18 19  2  0
 19 20  1  0
 19 21  1  0
 21 22  2  0
 11 23  1  0
 23 24  2  0
  5 25  2  0
 25 26  1  0
 26 27  2  0
 27 28  1  0
 27  3  1  0
 23  7  1  0
 22 16  1  0
  1 29  1  0
  1 30  1  0
  1 31  1  0
  4 32  1  0
  6 33  1  0
 12 34  1  0
 17 35  1  0
 18 36  1  0
 20 37  1  0
 20 38  1  0
 20 39  1  0
 21 40  1  0
 22 41  1  0
 25 42  1  0
 26 43  1  0
 28 44  1  0
M  END
$$$$
