
     RDKit          3D

 60 63  0  0  0  0  0  0  0  0999 V2000
   -7.3892   -1.4089   -1.7716 C   0  0  0  0  0  0  0  0  0  0  0  0
   -7.3607   -0.8107   -0.4836 O   0  0  0  0  0  0  0  0  0  0  0  0
   -6.3040    0.0125   -0.1839 C   0  0  0  0  0  0  0  0  0  0  0  0
   -5.2704    0.3273   -1.0744 C   0  0  0  0  0  0  0  0  0  0  0  0
   -4.2315    1.1730   -0.6803 C   0  0  0  0  0  0  0  0  0  0  0  0
   -4.2146    1.6865    0.6170 C   0  0  0  0  0  0  0  0  0  0  0  0
   -2.9075    2.7868    1.1183 S   0  0  0  0  0  6  0  0  0  0  0  0
   -3.4304    3.6211    2.1793 O   0  0  0  0  0  0  0  0  0  0  0  0
   -2.3447    3.3673   -0.0825 O   0  0  0  0  0  0  0  0  0  0  0  0
   -1.7485    1.7875    1.7841 N   0  0  0  0  0  0  0  0  0  0  0  0
   -2.0113    1.0594    3.0257 C   0  0  0  0  0  0  0  0  0  0  0  0
   -0.9092    0.0224    3.0207 C   0  0  0  0  0  0  0  0  0  0  0  0
   -0.7738   -0.3137    1.6357 O   0  0  0  0  0  0  0  0  0  0  0  0
   -0.9756    0.9081    0.8993 C   0  0  0  0  0  0  0  0  0  0  0  0
    0.3766    1.5699    0.5371 C   0  0  0  0  0  0  0  0  0  0  0  0
    1.2267    0.7229   -0.2802 N   0  0  0  0  0  0  0  0  0  0  0  0
    2.1119   -0.1739    0.2741 C   0  0  0  0  0  0  0  0  0  0  0  0
    2.4086   -0.2670    1.4569 O   0  0  0  0  0  0  0  0  0  0  0  0
    2.7613   -1.1170   -0.7642 C   0  0  0  0  0  0  0  0  0  0  0  0
    2.4292   -1.0521   -1.9398 O   0  0  0  0  0  0  0  0  0  0  0  0
    3.6961   -1.9660   -0.2231 N   0  0  0  0  0  0  0  0  0  0  0  0
    4.5388   -2.8047   -1.0335 C   0  0  0  0  0  0  0  0  0  0  0  0
    5.8754   -2.1495   -1.2702 C   0  0  0  0  0  0  0  0  0  0  0  0
    6.9581   -2.3951   -0.3937 C   0  0  0  0  0  0  0  0  0  0  0  0
    8.1958   -1.7727   -0.5872 C   0  0  0  0  0  0  0  0  0  0  0  0
    8.3195   -0.9091   -1.6533 C   0  0  0  0  0  0  0  0  0  0  0  0
    7.2714   -0.6562   -2.5058 C   0  0  0  0  0  0  0  0  0  0  0  0
    6.0402   -1.2547   -2.3415 C   0  0  0  0  0  0  0  0  0  0  0  0
    7.6006    0.2278   -3.4852 O   0  0  0  0  0  0  0  0  0  0  0  0
    8.9756    0.5049   -3.1487 C   0  0  0  0  0  0  0  0  0  0  0  0
    9.4409   -0.2173   -1.9894 O   0  0  0  0  0  0  0  0  0  0  0  0
   -5.2586    1.4108    1.5067 C   0  0  0  0  0  0  0  0  0  0  0  0
   -6.3041    0.5706    1.1128 C   0  0  0  0  0  0  0  0  0  0  0  0
   -7.3592    0.2233    1.9199 O   0  0  0  0  0  0  0  0  0  0  0  0
   -7.5167    0.9337    3.1405 C   0  0  0  0  0  0  0  0  0  0  0  0
   -6.5181   -2.0538   -1.9273 H   0  0  0  0  0  0  0  0  0  0  0  0
   -7.4668   -0.6504   -2.5574 H   0  0  0  0  0  0  0  0  0  0  0  0
   -8.2825   -2.0380   -1.8284 H   0  0  0  0  0  0  0  0  0  0  0  0
   -5.2502   -0.0637   -2.0867 H   0  0  0  0  0  0  0  0  0  0  0  0
   -3.4491    1.4255   -1.3927 H   0  0  0  0  0  0  0  0  0  0  0  0
   -2.9829    0.5597    2.9869 H   0  0  0  0  0  0  0  0  0  0  0  0
   -1.9614    1.7042    3.9058 H   0  0  0  0  0  0  0  0  0  0  0  0
   -1.1591   -0.8683    3.6029 H   0  0  0  0  0  0  0  0  0  0  0  0
    0.0417    0.4314    3.3800 H   0  0  0  0  0  0  0  0  0  0  0  0
   -1.5140    0.6356   -0.0115 H   0  0  0  0  0  0  0  0  0  0  0  0
    0.9268    1.8261    1.4501 H   0  0  0  0  0  0  0  0  0  0  0  0
    0.2128    2.4944   -0.0252 H   0  0  0  0  0  0  0  0  0  0  0  0
    1.0539    0.6263   -1.2778 H   0  0  0  0  0  0  0  0  0  0  0  0
    3.9223   -1.8178    0.7560 H   0  0  0  0  0  0  0  0  0  0  0  0
    4.0504   -3.0295   -1.9887 H   0  0  0  0  0  0  0  0  0  0  0  0
    4.6682   -3.7542   -0.5027 H   0  0  0  0  0  0  0  0  0  0  0  0
    6.8363   -3.0753    0.4472 H   0  0  0  0  0  0  0  0  0  0  0  0
    9.0300   -1.9582    0.0798 H   0  0  0  0  0  0  0  0  0  0  0  0
    5.2240   -1.0307   -3.0219 H   0  0  0  0  0  0  0  0  0  0  0  0
    9.6065    0.2379   -4.0042 H   0  0  0  0  0  0  0  0  0  0  0  0
    9.0800    1.5791   -2.9573 H   0  0  0  0  0  0  0  0  0  0  0  0
   -5.2357    1.8559    2.4963 H   0  0  0  0  0  0  0  0  0  0  0  0
   -8.4564    0.6091    3.5974 H   0  0  0  0  0  0  0  0  0  0  0  0
   -6.7080    0.6951    3.8389 H   0  0  0  0  0  0  0  0  0  0  0  0
   -7.5857    2.0129    2.9680 H   0  0  0  0  0  0  0  0  0  0  0  0
  1  2  1  0
  2  3  1  0
  3  4  2  0
  4  5  1  0
  5  6  2  0
  6  7  1  0
  7  8  2  0
  7  9  2  0
  7 10  1  0
 10 11  1  0
 11 12  1  0
 12 13  1  0
 13 14  1  0
 14 15  1  0
 15 16  1  0
 16 17  1  0
 17 18  2  0
 17 19  1  0
 19 20  2  0
 19 21  1  0
 21 22  1  0
 22 23  1  0
 23 24  2  0
 24 25  1  0
 25 26  2  0
 26 27  1  0
 27 28  2  0
 27 29  1  0
 29 30  1  0
 30 31  1  0
  6 32  1  0
 32 33  2  0
 33 34  1  0
 34 35  1  0
 33  3  1  0
 14 10  1  0
 28 23  1  0
 31 26  1  0
  1 36  1  0
  1 37  1  0
  1 38  1  0
  4 39  1  0
  5 40  1  0
 11 41  1  0
 11 42  1  0
 12 43  1  0
 12 44  1  0
 14 45  1  0
 15 46  1  0
 15 47  1  0
 16 48  1  0
 21 49  1  0
 22 50  1  0
 22 51  1  0
 24 52  1  0
 25 53  1  0
 28 54  1  0
 30 55  1  0
 30 56  1  0
 32 57  1  0
 35 58  1  0
 35 59  1  0
 35 60  1  0
M  END
$$$$
