
     RDKit          3D

 43 45  0  0  0  0  0  0  0  0999 V2000
   -5.7960    1.5883    0.9869 C   0  0  0  0  0  0  0  0  0  0  0  0
   -5.1668    0.4888    0.5503 C   0  0  0  0  0  0  0  0  0  0  0  0
   -4.3643    0.4111   -0.7166 C   0  0  0  0  0  0  0  0  0  0  0  0
   -3.0077   -0.0837   -0.4735 N   0  0  0  0  0  0  0  0  0  0  0  0
   -1.9049    0.7017   -0.1830 C   0  0  0  0  0  0  0  0  0  0  0  0
   -1.9938    2.1863   -0.0638 C   0  0  0  0  0  0  0  0  0  0  0  0
   -0.8205   -0.1517   -0.0614 C   0  0  0  0  0  0  0  0  0  0  0  0
    0.5086    0.2868    0.2331 C   0  0  0  0  0  0  0  0  0  0  0  0
    1.6138   -0.1688   -0.3810 C   0  0  0  0  0  0  0  0  0  0  0  0
    2.9764    0.2818   -0.0789 C   0  0  0  0  0  0  0  0  0  0  0  0
    3.2790    1.6125    0.2061 C   0  0  0  0  0  0  0  0  0  0  0  0
    4.5957    1.9828    0.4568 C   0  0  0  0  0  0  0  0  0  0  0  0
    5.5876    1.0655    0.4234 N   0  0  0  0  0  4  0  0  0  0  0  0
    6.9756    1.4830    0.6840 C   0  0  0  0  0  0  0  0  0  0  0  0
    5.3227   -0.2259    0.1258 C   0  0  0  0  0  0  0  0  0  0  0  0
    4.0209   -0.6398   -0.1334 C   0  0  0  0  0  0  0  0  0  0  0  0
   -1.2800   -1.4913   -0.2487 C   0  0  0  0  0  0  0  0  0  0  0  0
   -0.6686   -2.7652   -0.1998 C   0  0  0  0  0  0  0  0  0  0  0  0
   -1.4277   -3.9164   -0.4325 C   0  0  0  0  0  0  0  0  0  0  0  0
   -2.7863   -3.8190   -0.7046 C   0  0  0  0  0  0  0  0  0  0  0  0
   -3.4209   -2.5751   -0.7458 C   0  0  0  0  0  0  0  0  0  0  0  0
   -2.6504   -1.4215   -0.5124 C   0  0  0  0  0  0  0  0  0  0  0  0
   -5.7668    2.5249    0.4387 H   0  0  0  0  0  0  0  0  0  0  0  0
   -6.3628    1.5703    1.9137 H   0  0  0  0  0  0  0  0  0  0  0  0
   -5.2355   -0.4240    1.1397 H   0  0  0  0  0  0  0  0  0  0  0  0
   -4.8479   -0.2668   -1.4275 H   0  0  0  0  0  0  0  0  0  0  0  0
   -4.2843    1.3822   -1.2161 H   0  0  0  0  0  0  0  0  0  0  0  0
   -2.7187    2.4712    0.7047 H   0  0  0  0  0  0  0  0  0  0  0  0
   -1.0331    2.6306    0.2127 H   0  0  0  0  0  0  0  0  0  0  0  0
   -2.2962    2.6313   -1.0171 H   0  0  0  0  0  0  0  0  0  0  0  0
    0.5905    1.0494    1.0034 H   0  0  0  0  0  0  0  0  0  0  0  0
    1.5205   -0.9275   -1.1569 H   0  0  0  0  0  0  0  0  0  0  0  0
    2.5002    2.3724    0.2229 H   0  0  0  0  0  0  0  0  0  0  0  0
    4.8655    3.0116    0.6787 H   0  0  0  0  0  0  0  0  0  0  0  0
    6.9715    2.3269    1.3788 H   0  0  0  0  0  0  0  0  0  0  0  0
    7.4166    1.7689   -0.2740 H   0  0  0  0  0  0  0  0  0  0  0  0
    7.5224    0.6492    1.1318 H   0  0  0  0  0  0  0  0  0  0  0  0
    6.1582   -0.9196    0.0944 H   0  0  0  0  0  0  0  0  0  0  0  0
    3.8282   -1.6851   -0.3695 H   0  0  0  0  0  0  0  0  0  0  0  0
    0.3872   -2.8613    0.0296 H   0  0  0  0  0  0  0  0  0  0  0  0
   -0.9538   -4.8939   -0.3931 H   0  0  0  0  0  0  0  0  0  0  0  0
   -3.3674   -4.7219   -0.8797 H   0  0  0  0  0  0  0  0  0  0  0  0
   -4.4864   -2.5188   -0.9460 H   0  0  0  0  0  0  0  0  0  0  0  0
  1  2  2  0
  2  3  1  0
  3  4  1  0
  4  5  1  0
  5  6  1  0
  5  7  2  0
  7  8  1  0
  8  9  2  3
  9 10  1  0
 10 11  2  0
 11 12  1  0
 12 13  2  0
 13 14  1  0
 13 15  1  0
 15 16  2  0
  7 17  1  0
 17 18  2  0
 18 19  1  0
 19 20  2  0
 20 21  1  0
 21 22  2  0
 22  4  1  0
 16 10  1  0
 22 17  1  0
  1 23  1  0
  1 24  1  0
  2 25  1  0
  3 26  1  0
  3 27  1  0
  6 28  1  0
  6 29  1  0
  6 30  1  0
  8 31  1  0
  9 32  1  0
 11 33  1  0
 12 34  1  0
 14 35  1  0
 14 36  1  0
 14 37  1  0
 15 38  1  0
 16 39  1  0
 18 40  1  0
 19 41  1  0
 20 42  1  0
 21 43  1  0
M  CHG  1  13   1
M  END
$$$$
