
     RDKit          3D

 53 56  0  0  0  0  0  0  0  0999 V2000
   -9.3293    0.3561   -1.7087 C   0  0  0  0  0  0  0  0  0  0  0  0
   -8.0295    0.9258   -1.6198 O   0  0  0  0  0  0  0  0  0  0  0  0
   -7.2718    0.5820   -0.5350 C   0  0  0  0  0  0  0  0  0  0  0  0
   -7.6473   -0.2947    0.4816 C   0  0  0  0  0  0  0  0  0  0  0  0
   -6.7714   -0.5600    1.5372 C   0  0  0  0  0  0  0  0  0  0  0  0
   -5.5145    0.0478    1.5840 C   0  0  0  0  0  0  0  0  0  0  0  0
   -5.1259    0.9293    0.5691 C   0  0  0  0  0  0  0  0  0  0  0  0
   -3.7928    1.6089    0.5587 C   0  0  0  0  0  0  0  0  0  0  0  0
   -3.5217    2.3767   -0.3628 O   0  0  0  0  0  0  0  0  0  0  0  0
   -2.8127    1.2999    1.6928 C   0  0  0  0  0  0  0  0  0  0  0  0
   -1.5981    2.0372    1.6707 O   0  0  0  0  0  0  0  0  0  0  0  0
   -0.5542    1.5220    0.9571 C   0  0  0  0  0  0  0  0  0  0  0  0
   -0.6508    0.6140   -0.0943 C   0  0  0  0  0  0  0  0  0  0  0  0
    0.5043    0.1712   -0.7591 C   0  0  0  0  0  0  0  0  0  0  0  0
    1.7780    0.6294   -0.3927 C   0  0  0  0  0  0  0  0  0  0  0  0
    3.0318    0.1963   -1.0443 C   0  0  0  0  0  0  0  0  0  0  0  0
    2.9004   -0.7964   -2.1716 C   0  0  0  0  0  0  0  0  0  0  0  0
    4.2103    0.6894   -0.5970 C   0  0  0  0  0  0  0  0  0  0  0  0
    5.5781    0.3308   -1.1454 C   0  0  0  0  0  0  0  0  0  0  0  0
    6.2574   -0.7873   -0.3803 C   0  0  0  0  0  0  0  0  0  0  0  0
    6.0880   -2.1271   -0.7585 C   0  0  0  0  0  0  0  0  0  0  0  0
    6.7044   -3.1534   -0.0391 C   0  0  0  0  0  0  0  0  0  0  0  0
    7.4959   -2.8537    1.0671 C   0  0  0  0  0  0  0  0  0  0  0  0
    7.6729   -1.5278    1.4542 C   0  0  0  0  0  0  0  0  0  0  0  0
    7.0580   -0.5010    0.7355 C   0  0  0  0  0  0  0  0  0  0  0  0
    4.2581    1.7152    0.4870 C   0  0  0  0  0  0  0  0  0  0  0  0
    5.3075    2.2459    0.8381 O   0  0  0  0  0  0  0  0  0  0  0  0
    3.0639    2.0689    1.0876 O   0  0  0  0  0  0  0  0  0  0  0  0
    1.8407    1.5438    0.6518 C   0  0  0  0  0  0  0  0  0  0  0  0
    0.7019    1.9981    1.3212 C   0  0  0  0  0  0  0  0  0  0  0  0
   -6.0133    1.1889   -0.4856 C   0  0  0  0  0  0  0  0  0  0  0  0
   -9.8006    0.7388   -2.6191 H   0  0  0  0  0  0  0  0  0  0  0  0
   -9.2767   -0.7343   -1.7938 H   0  0  0  0  0  0  0  0  0  0  0  0
   -9.9514    0.6573   -0.8594 H   0  0  0  0  0  0  0  0  0  0  0  0
   -8.6141   -0.7879    0.4833 H   0  0  0  0  0  0  0  0  0  0  0  0
   -7.0731   -1.2443    2.3276 H   0  0  0  0  0  0  0  0  0  0  0  0
   -4.8688   -0.1870    2.4246 H   0  0  0  0  0  0  0  0  0  0  0  0
   -3.3068    1.5849    2.6288 H   0  0  0  0  0  0  0  0  0  0  0  0
   -2.6144    0.2222    1.7396 H   0  0  0  0  0  0  0  0  0  0  0  0
   -1.6100    0.2498   -0.4473 H   0  0  0  0  0  0  0  0  0  0  0  0
    0.3703   -0.5336   -1.5755 H   0  0  0  0  0  0  0  0  0  0  0  0
    3.8470   -1.0575   -2.6460 H   0  0  0  0  0  0  0  0  0  0  0  0
    2.2662   -0.3918   -2.9685 H   0  0  0  0  0  0  0  0  0  0  0  0
    2.4620   -1.7331   -1.8099 H   0  0  0  0  0  0  0  0  0  0  0  0
    5.5256    0.0584   -2.2056 H   0  0  0  0  0  0  0  0  0  0  0  0
    6.2357    1.2105   -1.1572 H   0  0  0  0  0  0  0  0  0  0  0  0
    5.4795   -2.3867   -1.6201 H   0  0  0  0  0  0  0  0  0  0  0  0
    6.5671   -4.1877   -0.3430 H   0  0  0  0  0  0  0  0  0  0  0  0
    7.9751   -3.6520    1.6272 H   0  0  0  0  0  0  0  0  0  0  0  0
    8.2893   -1.2891    2.3171 H   0  0  0  0  0  0  0  0  0  0  0  0
    7.2096    0.5289    1.0551 H   0  0  0  0  0  0  0  0  0  0  0  0
    0.7980    2.7213    2.1264 H   0  0  0  0  0  0  0  0  0  0  0  0
   -5.7283    1.8736   -1.2836 H   0  0  0  0  0  0  0  0  0  0  0  0
  1  2  1  0
  2  3  1  0
  3  4  2  0
  4  5  1  0
  5  6  2  0
  6  7  1  0
  7  8  1  0
  8  9  2  0
  8 10  1  0
 10 11  1  0
 11 12  1  0
 12 13  2  0
 13 14  1  0
 14 15  2  0
 15 16  1  0
 16 17  1  0
 16 18  2  0
 18 19  1  0
 19 20  1  0
 20 21  2  0
 21 22  1  0
 22 23  2  0
 23 24  1  0
 24 25  2  0
 18 26  1  0
 26 27  2  0
 26 28  1  0
 28 29  1  0
 29 30  2  0
  7 31  2  0
 31  3  1  0
 30 12  1  0
 29 15  1  0
 25 20  1  0
  1 32  1  0
  1 33  1  0
  1 34  1  0
  4 35  1  0
  5 36  1  0
  6 37  1  0
 10 38  1  0
 10 39  1  0
 13 40  1  0
 14 41  1  0
 17 42  1  0
 17 43  1  0
 17 44  1  0
 19 45  1  0
 19 46  1  0
 21 47  1  0
 22 48  1  0
 23 49  1  0
 24 50  1  0
 25 51  1  0
 30 52  1  0
 31 53  1  0
M  END
$$$$
