
     RDKit          3D

 69 74  0  0  0  0  0  0  0  0999 V2000
    1.1121   -2.8933   -1.5672 O   0  0  0  0  0  0  0  0  0  0  0  0
    1.8415   -1.8041   -0.9850 C   0  0  0  0  0  0  0  0  0  0  0  0
    3.3160   -1.9104   -1.3843 C   0  0  0  0  0  0  0  0  0  0  0  0
    4.0911   -0.8793   -0.7701 O   0  0  0  0  0  0  0  0  0  0  0  0
    4.8268   -1.1700    0.3438 C   0  0  0  0  0  0  0  0  0  0  0  0
    4.5538   -2.2739    1.1644 C   0  0  0  0  0  0  0  0  0  0  0  0
    5.3248   -2.5374    2.2979 C   0  0  0  0  0  0  0  0  0  0  0  0
    6.3760   -1.6922    2.6356 C   0  0  0  0  0  0  0  0  0  0  0  0
    6.6653   -0.5720    1.8554 C   0  0  0  0  0  0  0  0  0  0  0  0
    7.7469    0.2349    2.2778 N   0  0  0  0  0  0  0  0  0  0  0  0
    8.0448    1.2838    1.5804 C   0  0  0  0  0  0  0  0  0  0  0  0
    7.3102    1.6389    0.4073 C   0  0  0  0  0  0  0  0  0  0  0  0
    7.4672    2.6974   -0.4620 C   0  0  0  0  0  0  0  0  0  0  0  0
    6.4707    2.5676   -1.4524 C   0  0  0  0  0  0  0  0  0  0  0  0
    5.7379    1.4362   -1.1532 C   0  0  0  0  0  0  0  0  0  0  0  0
    6.2531    0.8579   -0.0144 N   0  0  0  0  0  0  0  0  0  0  0  0
    5.8802   -0.3079    0.7065 C   0  0  0  0  0  0  0  0  0  0  0  0
    1.2186   -0.4704   -1.4570 C   0  0  0  0  0  0  0  0  0  0  0  0
   -0.2470   -0.4741   -1.2681 N   0  0  0  0  0  0  0  0  0  0  0  0
   -0.8901    0.6206   -2.0121 C   0  0  0  0  0  0  0  0  0  0  0  0
   -2.4403    0.5705   -1.9185 C   0  0  0  0  0  0  0  0  0  0  0  0
   -2.9510   -0.0620   -0.6936 N   0  0  0  0  0  0  0  0  0  0  0  0
   -4.3961    0.1488   -0.4596 C   0  0  0  0  0  0  0  0  0  0  0  0
   -5.0591   -0.9892    0.3467 C   0  0  0  0  0  0  0  0  0  0  0  0
   -4.4445   -2.2476    0.4877 C   0  0  0  0  0  0  0  0  0  0  0  0
   -5.0720   -3.2901    1.1757 C   0  0  0  0  0  0  0  0  0  0  0  0
   -6.3393   -3.1049    1.7175 C   0  0  0  0  0  0  0  0  0  0  0  0
   -6.9846   -1.8822    1.5615 C   0  0  0  0  0  0  0  0  0  0  0  0
   -6.3569   -0.8399    0.8731 C   0  0  0  0  0  0  0  0  0  0  0  0
   -4.7427    1.5655    0.0231 C   0  0  0  0  0  0  0  0  0  0  0  0
   -4.6038    1.9500    1.3691 C   0  0  0  0  0  0  0  0  0  0  0  0
   -4.9229    3.2456    1.7814 C   0  0  0  0  0  0  0  0  0  0  0  0
   -5.3863    4.1777    0.8562 C   0  0  0  0  0  0  0  0  0  0  0  0
   -5.5354    3.8152   -0.4805 C   0  0  0  0  0  0  0  0  0  0  0  0
   -5.2177    2.5200   -0.8941 C   0  0  0  0  0  0  0  0  0  0  0  0
   -2.0513    0.1753    0.4348 C   0  0  0  0  0  0  0  0  0  0  0  0
   -0.6324   -0.4003    0.1620 C   0  0  0  0  0  0  0  0  0  0  0  0
    0.1864   -2.5669   -1.6108 H   0  0  0  0  0  0  0  0  0  0  0  0
    1.7451   -1.8851    0.1030 H   0  0  0  0  0  0  0  0  0  0  0  0
    3.4031   -1.7681   -2.4695 H   0  0  0  0  0  0  0  0  0  0  0  0
    3.7203   -2.9157   -1.2139 H   0  0  0  0  0  0  0  0  0  0  0  0
    3.7330   -2.9542    0.9557 H   0  0  0  0  0  0  0  0  0  0  0  0
    5.1040   -3.4015    2.9195 H   0  0  0  0  0  0  0  0  0  0  0  0
    6.9779   -1.8990    3.5168 H   0  0  0  0  0  0  0  0  0  0  0  0
    8.8866    1.9210    1.8978 H   0  0  0  0  0  0  0  0  0  0  0  0
    8.2168    3.4759   -0.3923 H   0  0  0  0  0  0  0  0  0  0  0  0
    6.2982    3.2238   -2.2970 H   0  0  0  0  0  0  0  0  0  0  0  0
    4.8957    1.0174   -1.6810 H   0  0  0  0  0  0  0  0  0  0  0  0
    1.4211   -0.3751   -2.5321 H   0  0  0  0  0  0  0  0  0  0  0  0
    1.6892    0.3858   -0.9590 H   0  0  0  0  0  0  0  0  0  0  0  0
   -0.6159    0.5726   -3.0728 H   0  0  0  0  0  0  0  0  0  0  0  0
   -0.5367    1.5874   -1.6281 H   0  0  0  0  0  0  0  0  0  0  0  0
   -2.8190   -0.0028   -2.7732 H   0  0  0  0  0  0  0  0  0  0  0  0
   -2.8025    1.5983   -2.0287 H   0  0  0  0  0  0  0  0  0  0  0  0
   -4.8826    0.0266   -1.4403 H   0  0  0  0  0  0  0  0  0  0  0  0
   -3.4648   -2.4323    0.0518 H   0  0  0  0  0  0  0  0  0  0  0  0
   -4.5715   -4.2495    1.2762 H   0  0  0  0  0  0  0  0  0  0  0  0
   -6.8284   -3.9169    2.2485 H   0  0  0  0  0  0  0  0  0  0  0  0
   -7.9819   -1.7381    1.9688 H   0  0  0  0  0  0  0  0  0  0  0  0
   -6.8994    0.0960    0.7495 H   0  0  0  0  0  0  0  0  0  0  0  0
   -4.2541    1.2333    2.1092 H   0  0  0  0  0  0  0  0  0  0  0  0
   -4.8113    3.5253    2.8260 H   0  0  0  0  0  0  0  0  0  0  0  0
   -5.6343    5.1863    1.1764 H   0  0  0  0  0  0  0  0  0  0  0  0
   -5.9024    4.5402   -1.2031 H   0  0  0  0  0  0  0  0  0  0  0  0
   -5.3449    2.2575   -1.9426 H   0  0  0  0  0  0  0  0  0  0  0  0
   -1.9548    1.2524    0.6234 H   0  0  0  0  0  0  0  0  0  0  0  0
   -2.4265   -0.2853    1.3559 H   0  0  0  0  0  0  0  0  0  0  0  0
    0.0841    0.2047    0.7326 H   0  0  0  0  0  0  0  0  0  0  0  0
   -0.5938   -1.4186    0.5674 H   0  0  0  0  0  0  0  0  0  0  0  0
  1  2  1  0
  2  3  1  0
  3  4  1  0
  4  5  1  0
  5  6  2  0
  6  7  1  0
  7  8  2  0
  8  9  1  0
  9 10  1  0
 10 11  2  0
 11 12  1  0
 12 13  2  0
 13 14  1  0
 14 15  2  0
 15 16  1  0
 16 17  1  0
  2 18  1  0
 18 19  1  0
 19 20  1  0
 20 21  1  0
 21 22  1  0
 22 23  1  0
 23 24  1  0
 24 25  2  0
 25 26  1  0
 26 27  2  0
 27 28  1  0
 28 29  2  0
 23 30  1  0
 30 31  2  0
 31 32  1  0
 32 33  2  0
 33 34  1  0
 34 35  2  0
 22 36  1  0
 36 37  1  0
 17  5  1  0
 37 19  1  0
 17  9  2  0
 29 24  1  0
 35 30  1  0
 16 12  1  0
  1 38  1  0
  2 39  1  0
  3 40  1  0
  3 41  1  0
  6 42  1  0
  7 43  1  0
  8 44  1  0
 11 45  1  0
 13 46  1  0
 14 47  1  0
 15 48  1  0
 18 49  1  0
 18 50  1  0
 20 51  1  0
 20 52  1  0
 21 53  1  0
 21 54  1  0
 23 55  1  0
 25 56  1  0
 26 57  1  0
 27 58  1  0
 28 59  1  0
 29 60  1  0
 31 61  1  0
 32 62  1  0
 33 63  1  0
 34 64  1  0
 35 65  1  0
 36 66  1  0
 36 67  1  0
 37 68  1  0
 37 69  1  0
M  END
$$$$
