
     RDKit          3D

 52 53  0  0  0  0  0  0  0  0999 V2000
    2.6885   -0.6658   -4.0291 C   0  0  0  0  0  0  0  0  0  0  0  0
    3.0991   -0.3038   -2.6099 C   0  0  0  0  0  0  0  0  0  0  0  0
    4.2115   -1.2214   -2.1010 C   0  0  0  0  0  0  0  0  0  0  0  0
    4.7009   -0.8125   -0.7771 N   0  0  0  0  0  0  0  0  0  0  0  0
    4.1219   -1.6012    0.3225 C   0  0  0  0  0  0  0  0  0  0  0  0
    2.6515   -1.3258    0.6823 C   0  0  0  0  0  0  0  0  0  0  0  0
    2.2990   -2.1703    1.7966 O   0  0  0  0  0  0  0  0  0  0  0  0
    2.4078    0.1378    1.0732 C   0  0  0  0  0  0  0  0  0  0  0  0
    1.0271    0.2482    1.4794 O   0  0  0  0  0  0  0  0  0  0  0  0
    0.6400    1.5609    1.5655 C   0  0  0  0  0  0  0  0  0  0  0  0
    1.1178    2.3710    2.5972 C   0  0  0  0  0  0  0  0  0  0  0  0
    0.6578    3.6834    2.7192 C   0  0  0  0  0  0  0  0  0  0  0  0
   -0.2870    4.1852    1.8204 C   0  0  0  0  0  0  0  0  0  0  0  0
   -0.7763    3.3756    0.7940 C   0  0  0  0  0  0  0  0  0  0  0  0
   -0.3184    2.0594    0.6785 C   0  0  0  0  0  0  0  0  0  0  0  0
   -0.8411    1.1967   -0.4017 C   0  0  0  0  0  0  0  0  0  0  0  0
   -0.0895    0.8095   -1.2915 O   0  0  0  0  0  0  0  0  0  0  0  0
   -2.2968    0.8016   -0.3356 C   0  0  0  0  0  0  0  0  0  0  0  0
   -2.4778   -0.3667    0.6281 C   0  0  0  0  0  0  0  0  0  0  0  0
   -3.8961   -0.8751    0.6200 C   0  0  0  0  0  0  0  0  0  0  0  0
   -4.8434   -0.3642    1.5191 C   0  0  0  0  0  0  0  0  0  0  0  0
   -6.1592   -0.8299    1.4984 C   0  0  0  0  0  0  0  0  0  0  0  0
   -6.5425   -1.8024    0.5756 C   0  0  0  0  0  0  0  0  0  0  0  0
   -5.6102   -2.3102   -0.3274 C   0  0  0  0  0  0  0  0  0  0  0  0
   -4.2925   -1.8482   -0.3076 C   0  0  0  0  0  0  0  0  0  0  0  0
    2.3316   -1.7002   -4.0825 H   0  0  0  0  0  0  0  0  0  0  0  0
    1.8805   -0.0093   -4.3702 H   0  0  0  0  0  0  0  0  0  0  0  0
    3.5304   -0.5555   -4.7204 H   0  0  0  0  0  0  0  0  0  0  0  0
    2.2173   -0.3724   -1.9686 H   0  0  0  0  0  0  0  0  0  0  0  0
    3.4338    0.7411   -2.5904 H   0  0  0  0  0  0  0  0  0  0  0  0
    5.0544   -1.1484   -2.7998 H   0  0  0  0  0  0  0  0  0  0  0  0
    3.8960   -2.2720   -2.1145 H   0  0  0  0  0  0  0  0  0  0  0  0
    5.7101   -0.9765   -0.7579 H   0  0  0  0  0  0  0  0  0  0  0  0
    4.7260   -1.3979    1.2185 H   0  0  0  0  0  0  0  0  0  0  0  0
    4.2628   -2.6757    0.1383 H   0  0  0  0  0  0  0  0  0  0  0  0
    1.9851   -1.6165   -0.1351 H   0  0  0  0  0  0  0  0  0  0  0  0
    1.4215   -1.8569    2.0866 H   0  0  0  0  0  0  0  0  0  0  0  0
    2.6173    0.8049    0.2280 H   0  0  0  0  0  0  0  0  0  0  0  0
    3.0449    0.4048    1.9242 H   0  0  0  0  0  0  0  0  0  0  0  0
    1.8327    1.9822    3.3175 H   0  0  0  0  0  0  0  0  0  0  0  0
    1.0305    4.3152    3.5223 H   0  0  0  0  0  0  0  0  0  0  0  0
   -0.6434    5.2070    1.9271 H   0  0  0  0  0  0  0  0  0  0  0  0
   -1.5073    3.7754    0.0968 H   0  0  0  0  0  0  0  0  0  0  0  0
   -2.6157    0.5312   -1.3503 H   0  0  0  0  0  0  0  0  0  0  0  0
   -2.9089    1.6616   -0.0431 H   0  0  0  0  0  0  0  0  0  0  0  0
   -2.2058   -0.0633    1.6481 H   0  0  0  0  0  0  0  0  0  0  0  0
   -1.7921   -1.1870    0.3736 H   0  0  0  0  0  0  0  0  0  0  0  0
   -4.5609    0.3955    2.2446 H   0  0  0  0  0  0  0  0  0  0  0  0
   -6.8855   -0.4357    2.2035 H   0  0  0  0  0  0  0  0  0  0  0  0
   -7.5658   -2.1657    0.5613 H   0  0  0  0  0  0  0  0  0  0  0  0
   -5.9061   -3.0657   -1.0473 H   0  0  0  0  0  0  0  0  0  0  0  0
   -3.5758   -2.2519   -1.0191 H   0  0  0  0  0  0  0  0  0  0  0  0
  1  2  1  0
  2  3  1  0
  3  4  1  0
  4  5  1  0
  5  6  1  0
  6  7  1  0
  6  8  1  0
  8  9  1  0
  9 10  1  0
 10 11  2  0
 11 12  1  0
 12 13  2  0
 13 14  1  0
 14 15  2  0
 15 16  1  0
 16 17  2  0
 16 18  1  0
 18 19  1  0
 19 20  1  0
 20 21  2  0
 21 22  1  0
 22 23  2  0
 23 24  1  0
 24 25  2  0
 15 10  1  0
 25 20  1  0
  1 26  1  0
  1 27  1  0
  1 28  1  0
  2 29  1  0
  2 30  1  0
  3 31  1  0
  3 32  1  0
  4 33  1  0
  5 34  1  0
  5 35  1  0
  6 36  1  0
  7 37  1  0
  8 38  1  0
  8 39  1  0
 11 40  1  0
 12 41  1  0
 13 42  1  0
 14 43  1  0
 18 44  1  0
 18 45  1  0
 19 46  1  0
 19 47  1  0
 21 48  1  0
 22 49  1  0
 23 50  1  0
 24 51  1  0
 25 52  1  0
M  END
$$$$
