
     RDKit          3D

 56 61  0  0  0  0  0  0  0  0999 V2000
    6.3394    0.2349   -1.1601 C   0  0  0  0  0  0  0  0  0  0  0  0
    5.2467    0.0335   -0.1532 C   0  0  0  0  0  0  0  0  0  0  0  0
    5.4723    0.2151    1.2252 C   0  0  0  0  0  0  0  0  0  0  0  0
    7.0251    0.6900    1.8237 Cl  0  0  0  0  0  0  0  0  0  0  0  0
    4.4501    0.0153    2.1745 C   0  0  0  0  0  0  0  0  0  0  0  0
    3.1710   -0.3745    1.7773 C   0  0  0  0  0  0  0  0  0  0  0  0
    2.9368   -0.5542    0.4243 C   0  0  0  0  0  0  0  0  0  0  0  0
    3.9633   -0.3588   -0.5133 C   0  0  0  0  0  0  0  0  0  0  0  0
    3.4812   -0.6280   -1.7936 N   0  0  0  0  0  0  0  0  0  0  0  0
    2.1478   -1.0370   -1.7696 C   0  0  0  0  0  0  0  0  0  0  0  0
    1.5102   -1.4157   -2.7403 O   0  0  0  0  0  0  0  0  0  0  0  0
    1.6835   -0.9652   -0.2925 C   0  0  0  0  0  0  0  0  0  0  0  0
    1.0911   -2.2562    0.1764 N   0  0  0  0  0  0  0  0  0  0  0  0
   -0.3957   -2.0780    0.3648 C   0  0  2  0  0  0  0  0  0  0  0  0
   -1.1817   -2.8263   -0.7315 C   0  0  0  0  0  0  0  0  0  0  0  0
   -2.6720   -2.8703   -0.4844 C   0  0  0  0  0  0  0  0  0  0  0  0
   -3.1995   -3.6352    0.5656 C   0  0  0  0  0  0  0  0  0  0  0  0
   -4.5733   -3.6479    0.8094 C   0  0  0  0  0  0  0  0  0  0  0  0
   -5.4320   -2.9013    0.0052 C   0  0  0  0  0  0  0  0  0  0  0  0
   -4.9191   -2.1459   -1.0472 C   0  0  0  0  0  0  0  0  0  0  0  0
   -3.5460   -2.1325   -1.2943 C   0  0  0  0  0  0  0  0  0  0  0  0
   -0.5514   -0.6020    0.3353 C   0  0  0  0  0  0  0  0  0  0  0  0
    0.6292    0.0297   -0.0458 C   0  0  0  0  0  0  0  0  0  0  0  0
    0.4258    1.3864   -0.0485 C   0  0  0  0  0  0  0  0  0  0  0  0
    1.2860    2.3744   -0.2869 O   0  0  0  0  0  0  0  0  0  0  0  0
   -0.9127    1.6150    0.3409 N   0  0  0  0  0  0  0  0  0  0  0  0
   -1.5566    2.8975    0.4582 C   0  0  0  0  0  0  0  0  0  0  0  0
   -1.0954    4.0011   -0.2792 C   0  0  0  0  0  0  0  0  0  0  0  0
   -1.7217    5.2469   -0.1679 C   0  0  0  0  0  0  0  0  0  0  0  0
   -2.8093    5.3960    0.6799 C   0  0  0  0  0  0  0  0  0  0  0  0
   -3.4077    6.5896    0.7860 F   0  0  0  0  0  0  0  0  0  0  0  0
   -3.2842    4.3223    1.4186 C   0  0  0  0  0  0  0  0  0  0  0  0
   -2.6609    3.0748    1.3083 C   0  0  0  0  0  0  0  0  0  0  0  0
   -1.4973    0.3553    0.5998 C   0  0  0  0  0  0  0  0  0  0  0  0
   -2.7653    0.2160    0.9783 O   0  0  0  0  0  0  0  0  0  0  0  0
    5.9844    0.1301   -2.1890 H   0  0  0  0  0  0  0  0  0  0  0  0
    7.1328   -0.5045   -1.0103 H   0  0  0  0  0  0  0  0  0  0  0  0
    6.7590    1.2425   -1.0729 H   0  0  0  0  0  0  0  0  0  0  0  0
    4.6548    0.1616    3.2335 H   0  0  0  0  0  0  0  0  0  0  0  0
    2.3828   -0.5336    2.5081 H   0  0  0  0  0  0  0  0  0  0  0  0
    4.0179   -0.6121   -2.6484 H   0  0  0  0  0  0  0  0  0  0  0  0
    1.2541   -2.9533   -0.5492 H   0  0  0  0  0  0  0  0  0  0  0  0
   -0.6482   -2.4636    1.3590 H   0  0  0  0  0  0  0  0  0  0  0  0
   -0.8320   -3.8659   -0.7950 H   0  0  0  0  0  0  0  0  0  0  0  0
   -0.9829   -2.3835   -1.7165 H   0  0  0  0  0  0  0  0  0  0  0  0
   -2.5450   -4.2296    1.1999 H   0  0  0  0  0  0  0  0  0  0  0  0
   -4.9757   -4.2441    1.6246 H   0  0  0  0  0  0  0  0  0  0  0  0
   -6.5025   -2.9120    0.1945 H   0  0  0  0  0  0  0  0  0  0  0  0
   -5.5884   -1.5641   -1.6763 H   0  0  0  0  0  0  0  0  0  0  0  0
   -3.1622   -1.5290   -2.1153 H   0  0  0  0  0  0  0  0  0  0  0  0
    2.1731    1.9913   -0.3984 H   0  0  0  0  0  0  0  0  0  0  0  0
   -0.2707    3.9155   -0.9804 H   0  0  0  0  0  0  0  0  0  0  0  0
   -1.3681    6.0956   -0.7442 H   0  0  0  0  0  0  0  0  0  0  0  0
   -4.1324    4.4580    2.0817 H   0  0  0  0  0  0  0  0  0  0  0  0
   -3.0409    2.2691    1.9288 H   0  0  0  0  0  0  0  0  0  0  0  0
   -2.9872   -0.7333    0.9777 H   0  0  0  0  0  0  0  0  0  0  0  0
  1  2  1  0
  2  3  2  0
  3  4  1  0
  3  5  1  0
  5  6  2  0
  6  7  1  0
  7  8  2  0
  8  9  1  0
  9 10  1  0
 10 11  2  0
 10 12  1  0
 12 13  1  0
 13 14  1  0
 14 15  1  0
 15 16  1  0
 16 17  2  0
 17 18  1  0
 18 19  2  0
 19 20  1  0
 20 21  2  0
 14 22  1  0
 22 23  1  0
 23 24  2  0
 24 25  1  0
 24 26  1  0
 26 27  1  0
 27 28  2  0
 28 29  1  0
 29 30  2  0
 30 31  1  0
 30 32  1  0
 32 33  2  0
 26 34  1  0
 34 35  1  0
  8  2  1  0
 23 12  1  0
 33 27  1  0
 12  7  1  0
 21 16  1  0
 34 22  2  0
  1 36  1  0
  1 37  1  0
  1 38  1  0
  5 39  1  0
  6 40  1  0
  9 41  1  0
 13 42  1  0
 14 43  1  1
 15 44  1  0
 15 45  1  0
 17 46  1  0
 18 47  1  0
 19 48  1  0
 20 49  1  0
 21 50  1  0
 25 51  1  0
 28 52  1  0
 29 53  1  0
 32 54  1  0
 33 55  1  0
 35 56  1  0
M  END
$$$$
