
     RDKit          3D

 45 47  0  0  0  0  0  0  0  0999 V2000
    6.3211   -0.6462   -1.4577 C   0  0  0  0  0  0  0  0  0  0  0  0
    7.3077   -0.8253   -0.3158 C   0  0  0  0  0  0  0  0  0  0  0  0
    7.2252    0.2511    0.7722 C   0  0  0  0  0  0  0  0  0  0  0  0
    5.9878    0.1692    1.6721 C   0  0  0  0  0  0  0  0  0  0  0  0
    4.7586    0.7640    1.0649 C   0  0  0  0  0  0  0  0  0  0  0  0
    4.7151    1.8991    0.3979 N   0  0  0  0  0  0  0  0  0  0  0  0
    3.4377    2.2008   -0.0377 N   0  0  0  0  0  0  0  0  0  0  0  0
    2.5712    1.2925    0.3332 C   0  0  0  0  0  0  0  0  0  0  0  0
    1.2271    1.2085    0.1174 N   0  0  0  0  0  0  0  0  0  0  0  0
    0.5257    2.1564   -0.5903 C   0  0  0  0  0  0  0  0  0  0  0  0
    0.9808    3.1710   -1.1088 O   0  0  0  0  0  0  0  0  0  0  0  0
   -0.9674    1.8352   -0.6938 C   0  0  0  0  0  0  0  0  0  0  0  0
   -1.2789    0.6124   -0.0248 O   0  0  0  0  0  0  0  0  0  0  0  0
   -2.5866    0.2139   -0.0457 C   0  0  0  0  0  0  0  0  0  0  0  0
   -2.8433   -0.9873    0.6208 C   0  0  0  0  0  0  0  0  0  0  0  0
   -4.1394   -1.5170    0.6805 C   0  0  0  0  0  0  0  0  0  0  0  0
   -5.2081   -0.8522    0.0721 C   0  0  0  0  0  0  0  0  0  0  0  0
   -6.5920   -1.3442    0.0919 C   0  0  0  0  0  0  0  0  0  0  0  0
   -6.9281   -2.6278    0.7919 C   0  0  0  0  0  0  0  0  0  0  0  0
   -7.5342   -0.6184   -0.5280 C   0  0  0  0  0  0  0  0  0  0  0  0
   -7.2571    0.6454   -1.2277 C   0  0  0  0  0  0  0  0  0  0  0  0
   -8.1582    1.2675   -1.7776 O   0  0  0  0  0  0  0  0  0  0  0  0
   -5.9444    1.0833   -1.2294 O   0  0  0  0  0  0  0  0  0  0  0  0
   -4.9287    0.3457   -0.5880 C   0  0  0  0  0  0  0  0  0  0  0  0
   -3.6403    0.8867   -0.6560 C   0  0  0  0  0  0  0  0  0  0  0  0
    3.2244   -0.0005    1.2368 S   0  0  0  0  0  0  0  0  0  0  0  0
    6.3677    0.3677   -1.8669 H   0  0  0  0  0  0  0  0  0  0  0  0
    5.2960   -0.8506   -1.1400 H   0  0  0  0  0  0  0  0  0  0  0  0
    6.5549   -1.3470   -2.2660 H   0  0  0  0  0  0  0  0  0  0  0  0
    7.1789   -1.8193    0.1279 H   0  0  0  0  0  0  0  0  0  0  0  0
    8.3202   -0.8009   -0.7376 H   0  0  0  0  0  0  0  0  0  0  0  0
    8.1042    0.1191    1.4170 H   0  0  0  0  0  0  0  0  0  0  0  0
    7.3228    1.2469    0.3230 H   0  0  0  0  0  0  0  0  0  0  0  0
    6.1953    0.7299    2.5928 H   0  0  0  0  0  0  0  0  0  0  0  0
    5.8207   -0.8719    1.9732 H   0  0  0  0  0  0  0  0  0  0  0  0
    0.7285    0.4136    0.4943 H   0  0  0  0  0  0  0  0  0  0  0  0
   -1.2050    1.7525   -1.7606 H   0  0  0  0  0  0  0  0  0  0  0  0
   -1.5080    2.6677   -0.2288 H   0  0  0  0  0  0  0  0  0  0  0  0
   -2.0286   -1.5237    1.1023 H   0  0  0  0  0  0  0  0  0  0  0  0
   -4.2856   -2.4541    1.2112 H   0  0  0  0  0  0  0  0  0  0  0  0
   -7.9960   -2.8629    0.7209 H   0  0  0  0  0  0  0  0  0  0  0  0
   -6.6806   -2.5664    1.8570 H   0  0  0  0  0  0  0  0  0  0  0  0
   -6.3820   -3.4672    0.3484 H   0  0  0  0  0  0  0  0  0  0  0  0
   -8.5740   -0.9255   -0.5504 H   0  0  0  0  0  0  0  0  0  0  0  0
   -3.5050    1.8223   -1.1879 H   0  0  0  0  0  0  0  0  0  0  0  0
  1  2  1  0
  2  3  1  0
  3  4  1  0
  4  5  1  0
  5  6  2  0
  6  7  1  0
  7  8  2  0
  8  9  1  0
  9 10  1  0
 10 11  2  0
 10 12  1  0
 12 13  1  0
 13 14  1  0
 14 15  2  0
 15 16  1  0
 16 17  2  0
 17 18  1  0
 18 19  1  0
 18 20  2  0
 20 21  1  0
 21 22  2  0
 21 23  1  0
 23 24  1  0
 24 25  2  0
  8 26  1  0
 26  5  1  0
 25 14  1  0
 24 17  1  0
  1 27  1  0
  1 28  1  0
  1 29  1  0
  2 30  1  0
  2 31  1  0
  3 32  1  0
  3 33  1  0
  4 34  1  0
  4 35  1  0
  9 36  1  0
 12 37  1  0
 12 38  1  0
 15 39  1  0
 16 40  1  0
 19 41  1  0
 19 42  1  0
 19 43  1  0
 20 44  1  0
 25 45  1  0
M  END
$$$$
