
     RDKit          3D

 69 75  0  0  0  0  0  0  0  0999 V2000
   -4.5067    5.1135    2.0615 C   0  0  0  0  0  0  0  0  0  0  0  0
   -3.8880    4.2351    1.0151 C   0  0  0  0  0  0  0  0  0  0  0  0
   -4.2368    4.3480   -0.3435 C   0  0  0  0  0  0  0  0  0  0  0  0
   -5.3970    5.5145   -0.8791 Cl  0  0  0  0  0  0  0  0  0  0  0  0
   -3.6725    3.5064   -1.3213 C   0  0  0  0  0  0  0  0  0  0  0  0
   -2.7400    2.5285   -0.9730 C   0  0  0  0  0  0  0  0  0  0  0  0
   -2.3793    2.4091    0.3611 C   0  0  0  0  0  0  0  0  0  0  0  0
   -2.9659    3.2422    1.3276 C   0  0  0  0  0  0  0  0  0  0  0  0
   -2.5104    2.8838    2.5924 N   0  0  0  0  0  0  0  0  0  0  0  0
   -1.6169    1.8130    2.5443 C   0  0  0  0  0  0  0  0  0  0  0  0
   -1.1146    1.2952    3.5306 O   0  0  0  0  0  0  0  0  0  0  0  0
   -1.4300    1.4506    1.0402 C   0  0  1  0  0  0  0  0  0  0  0  0
   -1.8586    0.0720    0.7173 C   0  0  0  0  0  0  0  0  0  0  0  0
   -0.7630   -0.6979    0.3332 C   0  0  0  0  0  0  0  0  0  0  0  0
   -1.1941   -1.9463   -0.0177 C   0  0  0  0  0  0  0  0  0  0  0  0
   -0.4883   -2.9227   -0.5870 O   0  0  0  0  0  0  0  0  0  0  0  0
   -2.5724   -2.0052    0.2751 N   0  0  0  0  0  0  0  0  0  0  0  0
   -3.3939   -3.1754    0.2074 C   0  0  0  0  0  0  0  0  0  0  0  0
   -2.8483   -4.4356    0.4992 C   0  0  0  0  0  0  0  0  0  0  0  0
   -3.6429   -5.5826    0.4288 C   0  0  0  0  0  0  0  0  0  0  0  0
   -4.9862   -5.4811    0.0752 C   0  0  0  0  0  0  0  0  0  0  0  0
   -5.5393   -4.2324   -0.2002 C   0  0  0  0  0  0  0  0  0  0  0  0
   -4.7496   -3.0813   -0.1297 C   0  0  0  0  0  0  0  0  0  0  0  0
   -2.9846   -0.7132    0.6596 C   0  0  0  0  0  0  0  0  0  0  0  0
   -4.2488   -0.4229    0.9581 O   0  0  0  0  0  0  0  0  0  0  0  0
    0.4978    0.0722    0.3614 C   0  0  1  0  0  0  0  0  0  0  0  0
    1.3244   -0.0395   -0.9365 C   0  0  0  0  0  0  0  0  0  0  0  0
    2.3792    0.9842   -1.0094 N   0  0  0  0  0  0  0  0  0  0  0  0
    3.6177    0.8469   -1.6058 C   0  0  0  0  0  0  0  0  0  0  0  0
    4.3633    1.8054   -1.7962 O   0  0  0  0  0  0  0  0  0  0  0  0
    3.9484   -0.4246   -1.9886 N   0  0  0  0  0  0  0  0  0  0  0  0
    5.2453   -0.7084   -2.5663 C   0  0  0  0  0  0  0  0  0  0  0  0
    6.2192   -1.1707   -1.5111 C   0  0  0  0  0  0  0  0  0  0  0  0
    6.3881   -2.5366   -1.2410 C   0  0  0  0  0  0  0  0  0  0  0  0
    7.2671   -2.9563   -0.2411 C   0  0  0  0  0  0  0  0  0  0  0  0
    7.9806   -2.0168    0.5015 C   0  0  0  0  0  0  0  0  0  0  0  0
    7.8142   -0.6567    0.2477 C   0  0  0  0  0  0  0  0  0  0  0  0
    6.9357   -0.2353   -0.7511 C   0  0  0  0  0  0  0  0  0  0  0  0
    2.0053    2.3215   -0.5365 C   0  0  0  0  0  0  0  0  0  0  0  0
    0.4992    2.4724   -0.2463 C   0  0  0  0  0  0  0  0  0  0  0  0
    0.0263    1.4650    0.6993 N   0  0  0  0  0  0  0  0  0  0  0  0
   -4.4074    6.1683    1.7857 H   0  0  0  0  0  0  0  0  0  0  0  0
   -4.0244    5.0031    3.0369 H   0  0  0  0  0  0  0  0  0  0  0  0
   -5.5663    4.8668    2.1843 H   0  0  0  0  0  0  0  0  0  0  0  0
   -3.9682    3.6102   -2.3638 H   0  0  0  0  0  0  0  0  0  0  0  0
   -2.3218    1.8727   -1.7318 H   0  0  0  0  0  0  0  0  0  0  0  0
   -2.7806    3.3015    3.4703 H   0  0  0  0  0  0  0  0  0  0  0  0
   -1.1055   -3.5424   -1.0183 H   0  0  0  0  0  0  0  0  0  0  0  0
   -1.8206   -4.5451    0.8400 H   0  0  0  0  0  0  0  0  0  0  0  0
   -3.2169   -6.5538    0.6685 H   0  0  0  0  0  0  0  0  0  0  0  0
   -5.6062   -6.3727    0.0264 H   0  0  0  0  0  0  0  0  0  0  0  0
   -6.5895   -4.1513   -0.4685 H   0  0  0  0  0  0  0  0  0  0  0  0
   -5.2113   -2.1281   -0.3721 H   0  0  0  0  0  0  0  0  0  0  0  0
   -4.2913    0.5058    1.2460 H   0  0  0  0  0  0  0  0  0  0  0  0
    1.1143   -0.2650    1.2043 H   0  0  0  0  0  0  0  0  0  0  0  0
    0.6885    0.1110   -1.8194 H   0  0  0  0  0  0  0  0  0  0  0  0
    1.7312   -1.0496   -1.0236 H   0  0  0  0  0  0  0  0  0  0  0  0
    3.6080   -1.1511   -1.3814 H   0  0  0  0  0  0  0  0  0  0  0  0
    5.6395    0.1645   -3.0991 H   0  0  0  0  0  0  0  0  0  0  0  0
    5.0977   -1.4998   -3.3099 H   0  0  0  0  0  0  0  0  0  0  0  0
    5.8355   -3.2825   -1.8081 H   0  0  0  0  0  0  0  0  0  0  0  0
    7.3944   -4.0168   -0.0387 H   0  0  0  0  0  0  0  0  0  0  0  0
    8.6633   -2.3437    1.2811 H   0  0  0  0  0  0  0  0  0  0  0  0
    8.3638    0.0784    0.8301 H   0  0  0  0  0  0  0  0  0  0  0  0
    6.8025    0.8306   -0.9322 H   0  0  0  0  0  0  0  0  0  0  0  0
    2.3057    3.0661   -1.2829 H   0  0  0  0  0  0  0  0  0  0  0  0
    2.5877    2.5142    0.3730 H   0  0  0  0  0  0  0  0  0  0  0  0
    0.3222    3.4767    0.1551 H   0  0  0  0  0  0  0  0  0  0  0  0
   -0.0284    2.3940   -1.2031 H   0  0  0  0  0  0  0  0  0  0  0  0
  1  2  1  0
  2  3  2  0
  3  4  1  0
  3  5  1  0
  5  6  2  0
  6  7  1  0
  7  8  2  0
  8  9  1  0
  9 10  1  0
 10 11  2  0
 10 12  1  0
 12 13  1  0
 13 14  1  0
 14 15  2  0
 15 16  1  0
 15 17  1  0
 17 18  1  0
 18 19  2  0
 19 20  1  0
 20 21  2  0
 21 22  1  0
 22 23  2  0
 17 24  1  0
 24 25  1  0
 14 26  1  0
 26 27  1  0
 27 28  1  0
 28 29  1  0
 29 30  2  0
 29 31  1  0
 31 32  1  0
 32 33  1  0
 33 34  2  0
 34 35  1  0
 35 36  2  0
 36 37  1  0
 37 38  2  0
 28 39  1  0
 39 40  1  0
 40 41  1  0
  8  2  1  0
 12 41  1  6
 12  7  1  0
 24 13  2  0
 41 26  1  0
 23 18  1  0
 38 33  1  0
  1 42  1  0
  1 43  1  0
  1 44  1  0
  5 45  1  0
  6 46  1  0
  9 47  1  0
 16 48  1  0
 19 49  1  0
 20 50  1  0
 21 51  1  0
 22 52  1  0
 23 53  1  0
 25 54  1  0
 26 55  1  1
 27 56  1  0
 27 57  1  0
 31 58  1  0
 32 59  1  0
 32 60  1  0
 34 61  1  0
 35 62  1  0
 36 63  1  0
 37 64  1  0
 38 65  1  0
 39 66  1  0
 39 67  1  0
 40 68  1  0
 40 69  1  0
M  END
$$$$
