
     RDKit          3D

 64 67  0  0  0  0  0  0  0  0999 V2000
    6.8418   -4.5000    1.0526 C   0  0  0  0  0  0  0  0  0  0  0  0
    6.5088   -3.6322    2.1283 O   0  0  0  0  0  0  0  0  0  0  0  0
    5.7511   -2.5368    1.8153 C   0  0  0  0  0  0  0  0  0  0  0  0
    5.6931   -1.5599    2.8125 C   0  0  0  0  0  0  0  0  0  0  0  0
    4.9680   -0.3773    2.6230 C   0  0  0  0  0  0  0  0  0  0  0  0
    4.2724   -0.1663    1.4332 C   0  0  0  0  0  0  0  0  0  0  0  0
    3.5419    1.0067    1.1417 N   0  0  0  0  0  0  0  0  0  0  0  0
    3.2873    2.0775    1.9743 C   0  0  0  0  0  0  0  0  0  0  0  0
    3.5169    2.1155    3.1809 O   0  0  0  0  0  0  0  0  0  0  0  0
    2.6900    3.2764    1.2590 C   0  0  0  0  0  0  0  0  0  0  0  0
    0.8803    3.2796    1.3783 S   0  0  0  0  0  0  0  0  0  0  0  0
    0.4592    2.2450    0.0638 C   0  0  0  0  0  0  0  0  0  0  0  0
    1.2918    1.4823   -0.6034 N   0  0  0  0  0  0  0  0  0  0  0  0
    0.5930    0.9071   -1.6277 N   0  0  0  0  0  0  0  0  0  0  0  0
   -0.6556    1.3448   -1.5854 C   0  0  0  0  0  0  0  0  0  0  0  0
   -1.6952    1.0492   -2.6207 C   0  0  0  0  0  0  0  0  0  0  0  0
   -2.3774   -0.2746   -2.4301 C   0  0  0  0  0  0  0  0  0  0  0  0
   -1.8236   -1.5118   -2.1388 C   0  0  0  0  0  0  0  0  0  0  0  0
   -2.8624   -2.4683   -2.1247 C   0  0  0  0  0  0  0  0  0  0  0  0
   -4.0295   -1.8018   -2.4130 C   0  0  0  0  0  0  0  0  0  0  0  0
   -3.7336   -0.4745   -2.5925 N   0  0  0  0  0  0  0  0  0  0  0  0
   -4.7137    0.5410   -2.9185 C   0  0  0  0  0  0  0  0  0  0  0  0
   -0.8001    2.1548   -0.4784 N   0  0  0  0  0  0  0  0  0  0  0  0
   -1.9878    2.8578   -0.0312 C   0  0  0  0  0  0  0  0  0  0  0  0
   -2.5490    2.3507    1.3023 C   0  0  0  0  0  0  0  0  0  0  0  0
   -3.7703    1.4811    1.1322 C   0  0  0  0  0  0  0  0  0  0  0  0
   -3.6446    0.0911    1.0286 C   0  0  0  0  0  0  0  0  0  0  0  0
   -4.7802   -0.7076    0.8762 C   0  0  0  0  0  0  0  0  0  0  0  0
   -6.0452   -0.1270    0.8124 C   0  0  0  0  0  0  0  0  0  0  0  0
   -6.1801    1.2548    0.9107 C   0  0  0  0  0  0  0  0  0  0  0  0
   -5.0484    2.0566    1.0707 C   0  0  0  0  0  0  0  0  0  0  0  0
    4.3093   -1.1665    0.4450 C   0  0  0  0  0  0  0  0  0  0  0  0
    3.6492   -0.9258   -0.7399 O   0  0  0  0  0  0  0  0  0  0  0  0
    2.6472   -1.9118   -0.9944 C   0  0  0  0  0  0  0  0  0  0  0  0
    5.0578   -2.3368    0.6228 C   0  0  0  0  0  0  0  0  0  0  0  0
    5.9585   -5.0458    0.7037 H   0  0  0  0  0  0  0  0  0  0  0  0
    7.5601   -5.2344    1.4272 H   0  0  0  0  0  0  0  0  0  0  0  0
    7.3182   -3.9545    0.2296 H   0  0  0  0  0  0  0  0  0  0  0  0
    6.2354   -1.7072    3.7448 H   0  0  0  0  0  0  0  0  0  0  0  0
    4.9730    0.3565    3.4214 H   0  0  0  0  0  0  0  0  0  0  0  0
    3.0897    1.0020    0.2229 H   0  0  0  0  0  0  0  0  0  0  0  0
    3.0244    3.3240    0.2165 H   0  0  0  0  0  0  0  0  0  0  0  0
    3.0695    4.1792    1.7486 H   0  0  0  0  0  0  0  0  0  0  0  0
   -2.4153    1.8716   -2.6908 H   0  0  0  0  0  0  0  0  0  0  0  0
   -1.1864    1.0211   -3.5952 H   0  0  0  0  0  0  0  0  0  0  0  0
   -0.7707   -1.7009   -1.9676 H   0  0  0  0  0  0  0  0  0  0  0  0
   -2.7680   -3.5301   -1.9319 H   0  0  0  0  0  0  0  0  0  0  0  0
   -5.0428   -2.1692   -2.5006 H   0  0  0  0  0  0  0  0  0  0  0  0
   -4.4295    1.0000   -3.8712 H   0  0  0  0  0  0  0  0  0  0  0  0
   -5.7023    0.0835   -3.0072 H   0  0  0  0  0  0  0  0  0  0  0  0
   -4.7207    1.2826   -2.1169 H   0  0  0  0  0  0  0  0  0  0  0  0
   -2.7404    2.8285   -0.8236 H   0  0  0  0  0  0  0  0  0  0  0  0
   -1.6956    3.9100    0.0672 H   0  0  0  0  0  0  0  0  0  0  0  0
   -2.8347    3.2144    1.9161 H   0  0  0  0  0  0  0  0  0  0  0  0
   -1.8005    1.8076    1.8902 H   0  0  0  0  0  0  0  0  0  0  0  0
   -2.6624   -0.3832    1.0598 H   0  0  0  0  0  0  0  0  0  0  0  0
   -4.6740   -1.7868    0.7950 H   0  0  0  0  0  0  0  0  0  0  0  0
   -6.9238   -0.7547    0.6905 H   0  0  0  0  0  0  0  0  0  0  0  0
   -7.1679    1.7059    0.8717 H   0  0  0  0  0  0  0  0  0  0  0  0
   -5.1725    3.1331    1.1586 H   0  0  0  0  0  0  0  0  0  0  0  0
    2.1111   -2.1980   -0.0805 H   0  0  0  0  0  0  0  0  0  0  0  0
    3.0964   -2.7921   -1.4669 H   0  0  0  0  0  0  0  0  0  0  0  0
    1.9217   -1.4900   -1.6977 H   0  0  0  0  0  0  0  0  0  0  0  0
    5.0872   -3.0665   -0.1784 H   0  0  0  0  0  0  0  0  0  0  0  0
  1  2  1  0
  2  3  1  0
  3  4  2  0
  4  5  1  0
  5  6  2  0
  6  7  1  0
  7  8  1  0
  8  9  2  0
  8 10  1  0
 10 11  1  0
 11 12  1  0
 12 13  2  0
 13 14  1  0
 14 15  2  0
 15 16  1  0
 16 17  1  0
 17 18  2  0
 18 19  1  0
 19 20  2  0
 20 21  1  0
 21 22  1  0
 15 23  1  0
 23 24  1  0
 24 25  1  0
 25 26  1  0
 26 27  2  0
 27 28  1  0
 28 29  2  0
 29 30  1  0
 30 31  2  0
  6 32  1  0
 32 33  1  0
 33 34  1  0
 32 35  2  0
 35  3  1  0
 23 12  1  0
 31 26  1  0
 21 17  1  0
  1 36  1  0
  1 37  1  0
  1 38  1  0
  4 39  1  0
  5 40  1  0
  7 41  1  0
 10 42  1  0
 10 43  1  0
 16 44  1  0
 16 45  1  0
 18 46  1  0
 19 47  1  0
 20 48  1  0
 22 49  1  0
 22 50  1  0
 22 51  1  0
 24 52  1  0
 24 53  1  0
 25 54  1  0
 25 55  1  0
 27 56  1  0
 28 57  1  0
 29 58  1  0
 30 59  1  0
 31 60  1  0
 34 61  1  0
 34 62  1  0
 34 63  1  0
 35 64  1  0
M  END
$$$$
