
     RDKit          3D

 54 57  0  0  0  0  0  0  0  0999 V2000
   -4.8948    2.9174   -2.9855 C   0  0  0  0  0  0  0  0  0  0  0  0
   -4.9403    1.9674   -1.8258 C   0  0  0  0  0  0  0  0  0  0  0  0
   -6.0822    1.8717   -1.0308 C   0  0  0  0  0  0  0  0  0  0  0  0
   -6.1087    1.0043    0.0612 C   0  0  0  0  0  0  0  0  0  0  0  0
   -4.9867    0.2269    0.3955 C   0  0  0  0  0  0  0  0  0  0  0  0
   -5.0782   -0.6977    1.5817 C   0  0  0  0  0  0  0  0  0  0  0  0
   -3.8161    0.3142   -0.3929 C   0  0  0  0  0  0  0  0  0  0  0  0
   -2.6065   -0.4749   -0.1022 C   0  0  0  0  0  0  0  0  0  0  0  0
   -1.3814    0.1220    0.1322 C   0  0  0  0  0  0  0  0  0  0  0  0
   -0.2869   -0.7039    0.3798 C   0  0  0  0  0  0  0  0  0  0  0  0
    1.0180   -0.0368    0.5676 C   0  0  0  0  0  0  0  0  0  0  0  0
    1.1321    0.7987    1.4563 O   0  0  0  0  0  0  0  0  0  0  0  0
    1.9514   -0.3610   -0.3955 N   0  0  0  0  0  0  0  0  0  0  0  0
    3.2551    0.0773   -0.3474 C   0  0  0  0  0  0  0  0  0  0  0  0
    3.9691    0.1894   -1.8802 S   0  0  0  0  0  0  0  0  0  0  0  0
    5.3919    0.8859   -1.2384 C   0  0  0  0  0  0  0  0  0  0  0  0
    6.4872    1.3036   -2.1649 C   0  0  0  0  0  0  0  0  0  0  0  0
    5.3656    0.9381    0.1490 C   0  0  0  0  0  0  0  0  0  0  0  0
    6.5002    1.4108    1.0058 C   0  0  0  0  0  0  0  0  0  0  0  0
    4.1097    0.4273    0.6767 C   0  0  0  0  0  0  0  0  0  0  0  0
    3.8070    0.2138    2.0860 C   0  0  0  0  0  0  0  0  0  0  0  0
    3.9040    1.3300    2.8699 N   0  0  0  0  0  0  0  0  0  0  0  0
    3.4925   -0.8760    2.5519 O   0  0  0  0  0  0  0  0  0  0  0  0
   -0.4221   -2.1073    0.4379 C   0  0  0  0  0  0  0  0  0  0  0  0
    0.6220   -3.0132    0.7569 C   0  0  0  0  0  0  0  0  0  0  0  0
    0.3958   -4.3876    0.7822 C   0  0  0  0  0  0  0  0  0  0  0  0
   -0.8715   -4.8762    0.4994 C   0  0  0  0  0  0  0  0  0  0  0  0
   -1.9061   -3.9856    0.2040 C   0  0  0  0  0  0  0  0  0  0  0  0
   -1.7087   -2.6114    0.1757 C   0  0  0  0  0  0  0  0  0  0  0  0
   -2.7605   -1.8211   -0.0977 N   0  0  0  0  0  0  0  0  0  0  0  0
   -3.8166    1.1980   -1.4936 C   0  0  0  0  0  0  0  0  0  0  0  0
   -4.4978    3.8844   -2.6616 H   0  0  0  0  0  0  0  0  0  0  0  0
   -4.2609    2.5237   -3.7872 H   0  0  0  0  0  0  0  0  0  0  0  0
   -5.8939    3.0691   -3.4080 H   0  0  0  0  0  0  0  0  0  0  0  0
   -6.9635    2.4672   -1.2575 H   0  0  0  0  0  0  0  0  0  0  0  0
   -7.0154    0.9407    0.6590 H   0  0  0  0  0  0  0  0  0  0  0  0
   -4.1905   -0.6096    2.2164 H   0  0  0  0  0  0  0  0  0  0  0  0
   -5.9410   -0.4514    2.2106 H   0  0  0  0  0  0  0  0  0  0  0  0
   -5.1916   -1.7335    1.2470 H   0  0  0  0  0  0  0  0  0  0  0  0
   -1.2733    1.2022    0.1269 H   0  0  0  0  0  0  0  0  0  0  0  0
    1.6382   -0.7607   -1.2715 H   0  0  0  0  0  0  0  0  0  0  0  0
    6.8649    2.2935   -1.8873 H   0  0  0  0  0  0  0  0  0  0  0  0
    6.1531    1.3598   -3.2062 H   0  0  0  0  0  0  0  0  0  0  0  0
    7.3163    0.5906   -2.1117 H   0  0  0  0  0  0  0  0  0  0  0  0
    6.2915    2.4163    1.3849 H   0  0  0  0  0  0  0  0  0  0  0  0
    6.6524    0.7389    1.8566 H   0  0  0  0  0  0  0  0  0  0  0  0
    7.4416    1.4466    0.4488 H   0  0  0  0  0  0  0  0  0  0  0  0
    3.4483    1.2213    3.7666 H   0  0  0  0  0  0  0  0  0  0  0  0
    3.7546    2.2189    2.4115 H   0  0  0  0  0  0  0  0  0  0  0  0
    1.6187   -2.6534    1.0127 H   0  0  0  0  0  0  0  0  0  0  0  0
    1.2049   -5.0691    1.0333 H   0  0  0  0  0  0  0  0  0  0  0  0
   -1.0649   -5.9458    0.5204 H   0  0  0  0  0  0  0  0  0  0  0  0
   -2.9008   -4.3755   -0.0031 H   0  0  0  0  0  0  0  0  0  0  0  0
   -2.9253    1.2758   -2.1156 H   0  0  0  0  0  0  0  0  0  0  0  0
  1  2  1  0
  2  3  2  0
  3  4  1  0
  4  5  2  0
  5  6  1  0
  5  7  1  0
  7  8  1  0
  8  9  2  0
  9 10  1  0
 10 11  1  0
 11 12  2  0
 11 13  1  0
 13 14  1  0
 14 15  1  0
 15 16  1  0
 16 17  1  0
 16 18  2  0
 18 19  1  0
 18 20  1  0
 20 21  1  0
 21 22  1  0
 21 23  2  0
 10 24  2  0
 24 25  1  0
 25 26  2  0
 26 27  1  0
 27 28  2  0
 28 29  1  0
 29 30  2  0
  7 31  2  0
 31  2  1  0
 30  8  1  0
 20 14  2  0
 29 24  1  0
  1 32  1  0
  1 33  1  0
  1 34  1  0
  3 35  1  0
  4 36  1  0
  6 37  1  0
  6 38  1  0
  6 39  1  0
  9 40  1  0
 13 41  1  0
 17 42  1  0
 17 43  1  0
 17 44  1  0
 19 45  1  0
 19 46  1  0
 19 47  1  0
 22 48  1  0
 22 49  1  0
 25 50  1  0
 26 51  1  0
 27 52  1  0
 28 53  1  0
 31 54  1  0
M  END
$$$$
