
     RDKit          3D

 51 53  0  0  0  0  0  0  0  0999 V2000
   -9.3987    1.1512    0.8896 C   0  0  0  0  0  0  0  0  0  0  0  0
   -7.9244    1.0187    0.6521 C   0  0  0  0  0  0  0  0  0  0  0  0
   -7.3615   -0.2351    0.3951 C   0  0  0  0  0  0  0  0  0  0  0  0
   -5.9908   -0.3657    0.1431 C   0  0  0  0  0  0  0  0  0  0  0  0
   -5.1616    0.7556    0.1352 C   0  0  0  0  0  0  0  0  0  0  0  0
   -3.7723    0.7129   -0.1079 N   0  0  0  0  0  0  0  0  0  0  0  0
   -2.9979   -0.4058   -0.3991 C   0  0  0  0  0  0  0  0  0  0  0  0
   -3.4057   -1.5578   -0.4990 O   0  0  0  0  0  0  0  0  0  0  0  0
   -1.5166   -0.0395   -0.5760 C   0  0  0  0  0  0  0  0  0  0  0  0
   -0.7740   -1.1257   -1.1089 O   0  0  0  0  0  0  0  0  0  0  0  0
    0.5606   -0.9341   -1.3230 C   0  0  0  0  0  0  0  0  0  0  0  0
    1.2956    0.2003   -0.9803 C   0  0  0  0  0  0  0  0  0  0  0  0
    2.6691    0.2567   -1.2503 C   0  0  0  0  0  0  0  0  0  0  0  0
    3.3143   -0.8153   -1.8761 C   0  0  0  0  0  0  0  0  0  0  0  0
    4.7353   -0.8124   -2.1055 N   0  0  0  0  0  0  0  0  0  0  0  0
    5.3425    0.4370   -2.6018 C   0  0  0  0  0  0  0  0  0  0  0  0
    5.6878   -1.7207   -1.0053 S   0  0  0  0  0  6  0  0  0  0  0  0
    5.1017   -3.0319   -0.8165 O   0  0  0  0  0  0  0  0  0  0  0  0
    7.0777   -1.5855   -1.3942 O   0  0  0  0  0  0  0  0  0  0  0  0
    5.4925   -0.8345    0.5338 C   0  0  0  0  0  0  0  0  0  0  0  0
    6.4188    0.1550    0.8885 C   0  0  0  0  0  0  0  0  0  0  0  0
    6.2725    0.8270    2.1032 C   0  0  0  0  0  0  0  0  0  0  0  0
    5.2184    0.4957    2.9502 C   0  0  0  0  0  0  0  0  0  0  0  0
    5.0785    1.1480    4.1119 F   0  0  0  0  0  0  0  0  0  0  0  0
    4.3099   -0.5043    2.6131 C   0  0  0  0  0  0  0  0  0  0  0  0
    4.4502   -1.1831    1.4024 C   0  0  0  0  0  0  0  0  0  0  0  0
    2.5800   -1.9542   -2.2027 C   0  0  0  0  0  0  0  0  0  0  0  0
    1.2112   -2.0096   -1.9302 C   0  0  0  0  0  0  0  0  0  0  0  0
   -5.7283    2.0128    0.3808 C   0  0  0  0  0  0  0  0  0  0  0  0
   -7.0979    2.1451    0.6311 C   0  0  0  0  0  0  0  0  0  0  0  0
   -9.9320    1.1632   -0.0656 H   0  0  0  0  0  0  0  0  0  0  0  0
   -9.7684    0.3175    1.4955 H   0  0  0  0  0  0  0  0  0  0  0  0
   -9.6295    2.0743    1.4313 H   0  0  0  0  0  0  0  0  0  0  0  0
   -7.9852   -1.1264    0.3865 H   0  0  0  0  0  0  0  0  0  0  0  0
   -5.6076   -1.3639   -0.0448 H   0  0  0  0  0  0  0  0  0  0  0  0
   -3.2985    1.6063   -0.0765 H   0  0  0  0  0  0  0  0  0  0  0  0
   -1.4585    0.8188   -1.2567 H   0  0  0  0  0  0  0  0  0  0  0  0
   -1.1360    0.2283    0.4175 H   0  0  0  0  0  0  0  0  0  0  0  0
    0.8391    1.0547   -0.4909 H   0  0  0  0  0  0  0  0  0  0  0  0
    3.2230    1.1410   -0.9465 H   0  0  0  0  0  0  0  0  0  0  0  0
    6.2984    0.2266   -3.0893 H   0  0  0  0  0  0  0  0  0  0  0  0
    4.7011    0.8964   -3.3615 H   0  0  0  0  0  0  0  0  0  0  0  0
    5.4985    1.1596   -1.7971 H   0  0  0  0  0  0  0  0  0  0  0  0
    7.2525    0.3987    0.2337 H   0  0  0  0  0  0  0  0  0  0  0  0
    6.9762    1.5988    2.4005 H   0  0  0  0  0  0  0  0  0  0  0  0
    3.5056   -0.7535    3.2979 H   0  0  0  0  0  0  0  0  0  0  0  0
    3.7487   -1.9740    1.1410 H   0  0  0  0  0  0  0  0  0  0  0  0
    3.0670   -2.8084   -2.6667 H   0  0  0  0  0  0  0  0  0  0  0  0
    0.6488   -2.9047   -2.1879 H   0  0  0  0  0  0  0  0  0  0  0  0
   -5.1173    2.9115    0.3768 H   0  0  0  0  0  0  0  0  0  0  0  0
   -7.5130    3.1343    0.8098 H   0  0  0  0  0  0  0  0  0  0  0  0
  1  2  1  0
  2  3  2  0
  3  4  1  0
  4  5  2  0
  5  6  1  0
  6  7  1  0
  7  8  2  0
  7  9  1  0
  9 10  1  0
 10 11  1  0
 11 12  2  0
 12 13  1  0
 13 14  2  0
 14 15  1  0
 15 16  1  0
 15 17  1  0
 17 18  2  0
 17 19  2  0
 17 20  1  0
 20 21  2  0
 21 22  1  0
 22 23  2  0
 23 24  1  0
 23 25  1  0
 25 26  2  0
 14 27  1  0
 27 28  2  0
  5 29  1  0
 29 30  2  0
 30  2  1  0
 28 11  1  0
 26 20  1  0
  1 31  1  0
  1 32  1  0
  1 33  1  0
  3 34  1  0
  4 35  1  0
  6 36  1  0
  9 37  1  0
  9 38  1  0
 12 39  1  0
 13 40  1  0
 16 41  1  0
 16 42  1  0
 16 43  1  0
 21 44  1  0
 22 45  1  0
 25 46  1  0
 26 47  1  0
 27 48  1  0
 28 49  1  0
 29 50  1  0
 30 51  1  0
M  END
$$$$
