
     RDKit          3D

 44 46  0  0  0  0  0  0  0  0999 V2000
   -2.7548   -2.3344    0.0265 C   0  0  0  0  0  0  0  0  0  0  0  0
   -3.6134   -1.2043   -0.1429 O   0  0  0  0  0  0  0  0  0  0  0  0
   -2.8929   -0.0467   -0.0256 C   0  0  0  0  0  0  0  0  0  0  0  0
   -2.9537    0.6232    1.1995 C   0  0  0  0  0  0  0  0  0  0  0  0
   -2.1968    1.7783    1.4011 C   0  0  0  0  0  0  0  0  0  0  0  0
   -1.3679    2.2583    0.3813 C   0  0  0  0  0  0  0  0  0  0  0  0
   -0.5168    3.4263    0.6245 C   0  0  0  0  0  0  0  0  0  0  0  0
    0.8330    3.4173    0.6329 C   0  0  0  0  0  0  0  0  0  0  0  0
    1.5591    4.6310    0.7871 C   0  0  0  0  0  0  0  0  0  0  0  0
    2.1009    5.6438    0.9536 N   0  0  0  0  0  0  0  0  0  0  0  0
    1.6286    2.1699    0.4299 C   0  0  0  0  0  0  0  0  0  0  0  0
    2.4902    2.1329   -0.4383 O   0  0  0  0  0  0  0  0  0  0  0  0
    1.3417    1.1847    1.3568 N   0  0  0  0  0  0  0  0  0  0  0  0
    1.9117   -0.1107    1.4226 C   0  0  0  0  0  0  0  0  0  0  0  0
    2.1155   -0.5951    2.7232 C   0  0  0  0  0  0  0  0  0  0  0  0
    2.7216   -1.8275    2.9291 C   0  0  0  0  0  0  0  0  0  0  0  0
    3.1042   -2.5941    1.8330 C   0  0  0  0  0  0  0  0  0  0  0  0
    2.8643   -2.1840    0.5318 C   0  0  0  0  0  0  0  0  0  0  0  0
    3.2233   -3.0327   -0.4476 N   0  0  0  0  0  0  0  0  0  0  0  0
    2.9435   -2.6913   -1.7211 C   0  0  0  0  0  0  0  0  0  0  0  0
    2.2880   -1.5331   -2.0709 C   0  0  0  0  0  0  0  0  0  0  0  0
    1.9244   -0.6609   -1.0503 C   0  0  0  0  0  0  0  0  0  0  0  0
    2.2359   -0.9352    0.3017 C   0  0  0  0  0  0  0  0  0  0  0  0
   -1.3480    1.6082   -0.8596 C   0  0  0  0  0  0  0  0  0  0  0  0
   -2.1289    0.4723   -1.0761 C   0  0  0  0  0  0  0  0  0  0  0  0
   -2.0291   -0.0839   -2.3237 O   0  0  0  0  0  0  0  0  0  0  0  0
   -3.2985   -0.3654   -2.9134 C   0  0  0  0  0  0  0  0  0  0  0  0
   -1.7890   -2.2302   -0.4773 H   0  0  0  0  0  0  0  0  0  0  0  0
   -3.2666   -3.2081   -0.3884 H   0  0  0  0  0  0  0  0  0  0  0  0
   -2.5875   -2.5157    1.0940 H   0  0  0  0  0  0  0  0  0  0  0  0
   -3.5782    0.2321    1.9978 H   0  0  0  0  0  0  0  0  0  0  0  0
   -2.2465    2.2799    2.3642 H   0  0  0  0  0  0  0  0  0  0  0  0
   -1.0613    4.3582    0.7738 H   0  0  0  0  0  0  0  0  0  0  0  0
    0.8740    1.5011    2.1968 H   0  0  0  0  0  0  0  0  0  0  0  0
    1.8506    0.0013    3.5929 H   0  0  0  0  0  0  0  0  0  0  0  0
    2.9099   -2.1882    3.9376 H   0  0  0  0  0  0  0  0  0  0  0  0
    3.5875   -3.5561    1.9967 H   0  0  0  0  0  0  0  0  0  0  0  0
    3.2637   -3.4049   -2.4755 H   0  0  0  0  0  0  0  0  0  0  0  0
    2.0608   -1.3063   -3.1062 H   0  0  0  0  0  0  0  0  0  0  0  0
    1.3793    0.2325   -1.3319 H   0  0  0  0  0  0  0  0  0  0  0  0
   -0.7275    1.9799   -1.6733 H   0  0  0  0  0  0  0  0  0  0  0  0
   -4.0565    0.3782   -2.6417 H   0  0  0  0  0  0  0  0  0  0  0  0
   -3.1737   -0.3246   -4.0002 H   0  0  0  0  0  0  0  0  0  0  0  0
   -3.6242   -1.3761   -2.6563 H   0  0  0  0  0  0  0  0  0  0  0  0
  1  2  1  0
  2  3  1  0
  3  4  2  0
  4  5  1  0
  5  6  2  0
  6  7  1  0
  7  8  2  3
  8  9  1  0
  9 10  3  0
  8 11  1  0
 11 12  2  0
 11 13  1  0
 13 14  1  0
 14 15  2  0
 15 16  1  0
 16 17  2  0
 17 18  1  0
 18 19  2  0
 19 20  1  0
 20 21  2  0
 21 22  1  0
 22 23  2  0
  6 24  1  0
 24 25  2  0
 25 26  1  0
 26 27  1  0
 25  3  1  0
 23 14  1  0
 23 18  1  0
  1 28  1  0
  1 29  1  0
  1 30  1  0
  4 31  1  0
  5 32  1  0
  7 33  1  0
 13 34  1  0
 15 35  1  0
 16 36  1  0
 17 37  1  0
 20 38  1  0
 21 39  1  0
 22 40  1  0
 24 41  1  0
 27 42  1  0
 27 43  1  0
 27 44  1  0
M  END
$$$$
