
     RDKit          3D

 40 42  0  0  0  0  0  0  0  0999 V2000
   -7.0576    0.0176   -1.3964 C   0  0  0  0  0  0  0  0  0  0  0  0
   -6.5204    0.3733    0.2624 S   0  0  0  0  0  6  0  0  0  0  0  0
   -7.6588    0.1997    1.1402 O   0  0  0  0  0  0  0  0  0  0  0  0
   -5.7520    1.5972    0.2671 O   0  0  0  0  0  0  0  0  0  0  0  0
   -5.5108   -0.9504    0.5816 N   0  0  0  0  0  0  0  0  0  0  0  0
   -4.1176   -0.7736    0.3444 C   0  0  0  0  0  0  0  0  0  0  0  0
   -3.3060   -0.1966    1.3223 C   0  0  0  0  0  0  0  0  0  0  0  0
   -1.9476    0.0153    1.0664 C   0  0  0  0  0  0  0  0  0  0  0  0
   -1.4007   -0.3579   -0.1693 C   0  0  0  0  0  0  0  0  0  0  0  0
    0.0414   -0.1501   -0.4920 C   0  0  0  0  0  0  0  0  0  0  0  0
    0.3428    0.0902   -1.6544 O   0  0  0  0  0  0  0  0  0  0  0  0
    0.9073   -0.2982    0.5767 N   0  0  0  0  0  0  0  0  0  0  0  0
    2.3081   -0.1216    0.5737 C   0  0  0  0  0  0  0  0  0  0  0  0
    2.9883   -0.4145    1.7653 C   0  0  0  0  0  0  0  0  0  0  0  0
    4.3759   -0.2694    1.8514 C   0  0  0  0  0  0  0  0  0  0  0  0
    5.0945    0.1706    0.7454 C   0  0  0  0  0  0  0  0  0  0  0  0
    4.4225    0.4948   -0.4359 C   0  0  0  0  0  0  0  0  0  0  0  0
    3.0370    0.3361   -0.5265 C   0  0  0  0  0  0  0  0  0  0  0  0
    5.0626    0.9698   -1.5537 O   0  0  0  0  0  0  0  0  0  0  0  0
    6.3876    1.4166   -1.2476 C   0  0  0  0  0  0  0  0  0  0  0  0
    7.1063    0.4003   -0.3763 C   0  0  0  0  0  0  0  0  0  0  0  0
    6.4539    0.2698    0.8923 O   0  0  0  0  0  0  0  0  0  0  0  0
   -2.2302   -0.9113   -1.1542 C   0  0  0  0  0  0  0  0  0  0  0  0
   -3.5879   -1.1170   -0.8978 C   0  0  0  0  0  0  0  0  0  0  0  0
   -6.2020    0.0741   -2.0707 H   0  0  0  0  0  0  0  0  0  0  0  0
   -7.7975    0.7705   -1.6770 H   0  0  0  0  0  0  0  0  0  0  0  0
   -7.5131   -0.9741   -1.4176 H   0  0  0  0  0  0  0  0  0  0  0  0
   -5.7504   -1.3220    1.5033 H   0  0  0  0  0  0  0  0  0  0  0  0
   -3.7280    0.1223    2.2720 H   0  0  0  0  0  0  0  0  0  0  0  0
   -1.3447    0.5103    1.8229 H   0  0  0  0  0  0  0  0  0  0  0  0
    0.5138   -0.6350    1.4448 H   0  0  0  0  0  0  0  0  0  0  0  0
    2.4515   -0.7661    2.6424 H   0  0  0  0  0  0  0  0  0  0  0  0
    4.8945   -0.5089    2.7754 H   0  0  0  0  0  0  0  0  0  0  0  0
    2.5560    0.5930   -1.4645 H   0  0  0  0  0  0  0  0  0  0  0  0
    6.9206    1.5479   -2.1944 H   0  0  0  0  0  0  0  0  0  0  0  0
    6.3213    2.3941   -0.7539 H   0  0  0  0  0  0  0  0  0  0  0  0
    7.1396   -0.5867   -0.8542 H   0  0  0  0  0  0  0  0  0  0  0  0
    8.1350    0.7231   -0.1881 H   0  0  0  0  0  0  0  0  0  0  0  0
   -1.8182   -1.1805   -2.1254 H   0  0  0  0  0  0  0  0  0  0  0  0
   -4.2172   -1.5528   -1.6682 H   0  0  0  0  0  0  0  0  0  0  0  0
  1  2  1  0
  2  3  2  0
  2  4  2  0
  2  5  1  0
  5  6  1  0
  6  7  2  0
  7  8  1  0
  8  9  2  0
  9 10  1  0
 10 11  2  0
 10 12  1  0
 12 13  1  0
 13 14  2  0
 14 15  1  0
 15 16  2  0
 16 17  1  0
 17 18  2  0
 17 19  1  0
 19 20  1  0
 20 21  1  0
 21 22  1  0
  9 23  1  0
 23 24  2  0
 24  6  1  0
 18 13  1  0
 22 16  1  0
  1 25  1  0
  1 26  1  0
  1 27  1  0
  5 28  1  0
  7 29  1  0
  8 30  1  0
 12 31  1  0
 14 32  1  0
 15 33  1  0
 18 34  1  0
 20 35  1  0
 20 36  1  0
 21 37  1  0
 21 38  1  0
 23 39  1  0
 24 40  1  0
M  END
$$$$
