
     RDKit          3D

 49 51  0  0  0  0  0  0  0  0999 V2000
    0.8219    0.1790   -0.9630 O   0  0  0  0  0  0  0  0  0  0  0  0
    1.2272   -0.7368   -0.2598 C   0  0  0  0  0  0  0  0  0  0  0  0
    1.7884   -1.9135   -0.6935 N   0  0  0  0  0  0  0  0  0  0  0  0
    2.1543   -2.1328   -2.0682 C   0  0  0  0  0  0  0  0  0  0  0  0
    3.6049   -1.7993   -2.2969 C   0  0  0  0  0  0  0  0  0  0  0  0
    3.9928   -0.4804   -2.5732 C   0  0  0  0  0  0  0  0  0  0  0  0
    5.3384   -0.1623   -2.7611 C   0  0  0  0  0  0  0  0  0  0  0  0
    6.3099   -1.1567   -2.6684 C   0  0  0  0  0  0  0  0  0  0  0  0
    5.9377   -2.4690   -2.3845 C   0  0  0  0  0  0  0  0  0  0  0  0
    4.5921   -2.7895   -2.1956 C   0  0  0  0  0  0  0  0  0  0  0  0
    1.1333   -0.6317    1.2799 C   0  0  0  0  0  0  0  0  0  0  0  0
    1.3573   -1.6130    1.9730 O   0  0  0  0  0  0  0  0  0  0  0  0
    0.7804    0.6198    1.7187 N   0  0  0  0  0  0  0  0  0  0  0  0
    0.3284    0.8748    3.0780 C   0  0  0  0  0  0  0  0  0  0  0  0
   -1.1593    0.5242    3.3202 C   0  0  0  0  0  0  0  0  0  0  0  0
   -1.2937   -0.8535    3.7225 O   0  0  0  0  0  0  0  0  0  0  0  0
   -2.1739   -1.4967    2.7972 C   0  0  0  0  0  0  0  0  0  0  0  0
   -2.9857   -0.3807    2.1799 C   0  0  0  0  0  0  0  0  0  0  0  0
   -1.9884    0.6916    2.1010 N   0  0  0  0  0  0  0  0  0  0  0  0
   -2.5218    2.2619    1.8318 S   0  0  0  0  0  6  0  0  0  0  0  0
   -1.3555    3.1050    1.6858 O   0  0  0  0  0  0  0  0  0  0  0  0
   -3.5403    2.5532    2.8172 O   0  0  0  0  0  0  0  0  0  0  0  0
   -3.2929    2.1386    0.2380 C   0  0  0  0  0  0  0  0  0  0  0  0
   -2.5014    1.8498   -0.8787 C   0  0  0  0  0  0  0  0  0  0  0  0
   -3.0981    1.7447   -2.1360 C   0  0  0  0  0  0  0  0  0  0  0  0
   -4.4743    1.9340   -2.2668 C   0  0  0  0  0  0  0  0  0  0  0  0
   -5.2808    1.7915   -3.9707 Br  0  0  0  0  0  0  0  0  0  0  0  0
   -5.2624    2.2288   -1.1524 C   0  0  0  0  0  0  0  0  0  0  0  0
   -4.6711    2.3338    0.1084 C   0  0  0  0  0  0  0  0  0  0  0  0
    2.1685   -2.5198    0.0276 H   0  0  0  0  0  0  0  0  0  0  0  0
    1.9643   -3.1873   -2.2954 H   0  0  0  0  0  0  0  0  0  0  0  0
    1.5177   -1.5370   -2.7323 H   0  0  0  0  0  0  0  0  0  0  0  0
    3.2443    0.3077   -2.6382 H   0  0  0  0  0  0  0  0  0  0  0  0
    5.6281    0.8628   -2.9763 H   0  0  0  0  0  0  0  0  0  0  0  0
    7.3578   -0.9076   -2.8132 H   0  0  0  0  0  0  0  0  0  0  0  0
    6.6968   -3.2427   -2.3075 H   0  0  0  0  0  0  0  0  0  0  0  0
    4.3201   -3.8173   -1.9682 H   0  0  0  0  0  0  0  0  0  0  0  0
    0.4992    1.2817    0.9996 H   0  0  0  0  0  0  0  0  0  0  0  0
    0.4865    1.9449    3.2467 H   0  0  0  0  0  0  0  0  0  0  0  0
    0.9675    0.3166    3.7709 H   0  0  0  0  0  0  0  0  0  0  0  0
   -1.5461    1.1146    4.1585 H   0  0  0  0  0  0  0  0  0  0  0  0
   -1.5637   -2.0107    2.0469 H   0  0  0  0  0  0  0  0  0  0  0  0
   -2.7912   -2.2352    3.3156 H   0  0  0  0  0  0  0  0  0  0  0  0
   -3.3797   -0.6644    1.2017 H   0  0  0  0  0  0  0  0  0  0  0  0
   -3.8079   -0.0992    2.8464 H   0  0  0  0  0  0  0  0  0  0  0  0
   -1.4272    1.7069   -0.7796 H   0  0  0  0  0  0  0  0  0  0  0  0
   -2.4819    1.5186   -3.0031 H   0  0  0  0  0  0  0  0  0  0  0  0
   -6.3337    2.3825   -1.2572 H   0  0  0  0  0  0  0  0  0  0  0  0
   -5.2868    2.5702    0.9736 H   0  0  0  0  0  0  0  0  0  0  0  0
  1  2  2  0
  2  3  1  0
  3  4  1  0
  4  5  1  0
  5  6  2  0
  6  7  1  0
  7  8  2  0
  8  9  1  0
  9 10  2  0
  2 11  1  0
 11 12  2  0
 11 13  1  0
 13 14  1  0
 14 15  1  0
 15 16  1  0
 16 17  1  0
 17 18  1  0
 18 19  1  0
 19 20  1  0
 20 21  2  0
 20 22  2  0
 20 23  1  0
 23 24  2  0
 24 25  1  0
 25 26  2  0
 26 27  1  0
 26 28  1  0
 28 29  2  0
 10  5  1  0
 19 15  1  0
 29 23  1  0
  3 30  1  0
  4 31  1  0
  4 32  1  0
  6 33  1  0
  7 34  1  0
  8 35  1  0
  9 36  1  0
 10 37  1  0
 13 38  1  0
 14 39  1  0
 14 40  1  0
 15 41  1  0
 17 42  1  0
 17 43  1  0
 18 44  1  0
 18 45  1  0
 24 46  1  0
 25 47  1  0
 28 48  1  0
 29 49  1  0
M  END
$$$$
