
     RDKit          3D

 60 65  0  0  0  0  0  0  0  0999 V2000
    1.5735   -2.0428    3.3336 O   0  0  0  0  0  0  0  0  0  0  0  0
    2.0101   -1.7366    2.2309 C   0  0  0  0  0  0  0  0  0  0  0  0
    1.2463   -1.0683    1.2811 N   0  0  0  0  0  0  0  0  0  0  0  0
    1.7044   -0.6950    0.0236 C   0  0  0  0  0  0  0  0  0  0  0  0
    0.7168    0.0356   -0.8840 C   0  0  0  0  0  0  0  0  0  0  0  0
    0.0992    1.2635   -0.1961 C   0  0  0  0  0  0  0  0  0  0  0  0
   -1.3619    1.0568    0.1993 C   0  0  0  0  0  0  0  0  0  0  0  0
   -1.5277   -0.3326    0.6804 N   0  0  0  0  0  0  0  0  0  0  0  0
   -2.7901   -0.6077    1.8080 S   0  0  0  0  0  6  0  0  0  0  0  0
   -2.7615   -2.0155    2.1393 O   0  0  0  0  0  0  0  0  0  0  0  0
   -2.6886    0.4094    2.8310 O   0  0  0  0  0  0  0  0  0  0  0  0
   -4.2699   -0.2951    0.8735 C   0  0  0  0  0  0  0  0  0  0  0  0
   -4.9679   -1.3630    0.2974 C   0  0  0  0  0  0  0  0  0  0  0  0
   -6.1378   -1.1134   -0.4220 C   0  0  0  0  0  0  0  0  0  0  0  0
   -6.6096    0.1925   -0.5504 C   0  0  0  0  0  0  0  0  0  0  0  0
   -5.9346    1.2490    0.0724 C   0  0  0  0  0  0  0  0  0  0  0  0
   -4.7607    1.0108    0.7824 C   0  0  0  0  0  0  0  0  0  0  0  0
   -6.3672    2.5490    0.0205 O   0  0  0  0  0  0  0  0  0  0  0  0
   -7.7355    2.6244   -0.3985 C   0  0  0  0  0  0  0  0  0  0  0  0
   -7.9706    1.7412   -1.6128 C   0  0  0  0  0  0  0  0  0  0  0  0
   -7.7514    0.3628   -1.2896 O   0  0  0  0  0  0  0  0  0  0  0  0
   -1.3908   -1.3499   -0.3969 C   0  0  0  0  0  0  0  0  0  0  0  0
   -0.3459   -0.9225   -1.4305 C   0  0  0  0  0  0  0  0  0  0  0  0
    2.9060   -0.9473   -0.4212 N   0  0  0  0  0  0  0  0  0  0  0  0
    3.6762   -1.5946    0.4876 C   0  0  0  0  0  0  0  0  0  0  0  0
    3.3397   -2.0072    1.7540 C   0  0  0  0  0  0  0  0  0  0  0  0
    4.3926   -2.6310    2.3503 N   0  0  0  0  0  0  0  0  0  0  0  0
    5.4046   -2.6186    1.4821 N   0  0  0  0  0  0  0  0  0  0  0  0
    4.9811   -1.9762    0.3655 N   0  0  0  0  0  0  0  0  0  0  0  0
    5.8591   -1.8069   -0.7725 C   0  0  0  0  0  0  0  0  0  0  0  0
    6.5106   -0.4465   -0.7687 C   0  0  0  0  0  0  0  0  0  0  0  0
    7.6529   -0.2029    0.0115 C   0  0  0  0  0  0  0  0  0  0  0  0
    8.2470    1.0620    0.0289 C   0  0  0  0  0  0  0  0  0  0  0  0
    7.7030    2.0971   -0.7290 C   0  0  0  0  0  0  0  0  0  0  0  0
    6.5676    1.8606   -1.4939 C   0  0  0  0  0  0  0  0  0  0  0  0
    6.0392    2.8572   -2.2166 F   0  0  0  0  0  0  0  0  0  0  0  0
    5.9673    0.6057   -1.5198 C   0  0  0  0  0  0  0  0  0  0  0  0
    0.2979   -0.8479    1.5687 H   0  0  0  0  0  0  0  0  0  0  0  0
    1.3076    0.3997   -1.7364 H   0  0  0  0  0  0  0  0  0  0  0  0
    0.1496    2.1266   -0.8718 H   0  0  0  0  0  0  0  0  0  0  0  0
    0.6835    1.5444    0.6891 H   0  0  0  0  0  0  0  0  0  0  0  0
   -2.0190    1.2343   -0.6601 H   0  0  0  0  0  0  0  0  0  0  0  0
   -1.6192    1.7879    0.9715 H   0  0  0  0  0  0  0  0  0  0  0  0
   -4.6123   -2.3859    0.4047 H   0  0  0  0  0  0  0  0  0  0  0  0
   -6.6819   -1.9343   -0.8824 H   0  0  0  0  0  0  0  0  0  0  0  0
   -4.2516    1.8370    1.2724 H   0  0  0  0  0  0  0  0  0  0  0  0
   -8.3755    2.3311    0.4429 H   0  0  0  0  0  0  0  0  0  0  0  0
   -7.9502    3.6694   -0.6429 H   0  0  0  0  0  0  0  0  0  0  0  0
   -9.0042    1.8403   -1.9588 H   0  0  0  0  0  0  0  0  0  0  0  0
   -7.3048    2.0134   -2.4411 H   0  0  0  0  0  0  0  0  0  0  0  0
   -2.3437   -1.5218   -0.9053 H   0  0  0  0  0  0  0  0  0  0  0  0
   -1.0749   -2.2955    0.0582 H   0  0  0  0  0  0  0  0  0  0  0  0
    0.1188   -1.8154   -1.8663 H   0  0  0  0  0  0  0  0  0  0  0  0
   -0.8650   -0.4185   -2.2571 H   0  0  0  0  0  0  0  0  0  0  0  0
    5.2676   -1.9613   -1.6823 H   0  0  0  0  0  0  0  0  0  0  0  0
    6.6163   -2.5994   -0.7459 H   0  0  0  0  0  0  0  0  0  0  0  0
    8.0818   -0.9977    0.6214 H   0  0  0  0  0  0  0  0  0  0  0  0
    9.1293    1.2393    0.6392 H   0  0  0  0  0  0  0  0  0  0  0  0
    8.1518    3.0851   -0.7226 H   0  0  0  0  0  0  0  0  0  0  0  0
    5.0728    0.4648   -2.1204 H   0  0  0  0  0  0  0  0  0  0  0  0
  1  2  2  0
  2  3  1  0
  3  4  1  0
  4  5  1  0
  5  6  1  0
  6  7  1  0
  7  8  1  0
  8  9  1  0
  9 10  2  0
  9 11  2  0
  9 12  1  0
 12 13  2  0
 13 14  1  0
 14 15  2  0
 15 16  1  0
 16 17  2  0
 16 18  1  0
 18 19  1  0
 19 20  1  0
 20 21  1  0
  8 22  1  0
 22 23  1  0
  4 24  2  0
 24 25  1  0
 25 26  2  0
 26 27  1  0
 27 28  2  0
 28 29  1  0
 29 30  1  0
 30 31  1  0
 31 32  2  0
 32 33  1  0
 33 34  2  0
 34 35  1  0
 35 36  1  0
 35 37  2  0
 26  2  1  0
 37 31  1  0
 23  5  1  0
 29 25  1  0
 17 12  1  0
 21 15  1  0
  3 38  1  0
  5 39  1  0
  6 40  1  0
  6 41  1  0
  7 42  1  0
  7 43  1  0
 13 44  1  0
 14 45  1  0
 17 46  1  0
 19 47  1  0
 19 48  1  0
 20 49  1  0
 20 50  1  0
 22 51  1  0
 22 52  1  0
 23 53  1  0
 23 54  1  0
 30 55  1  0
 30 56  1  0
 32 57  1  0
 33 58  1  0
 34 59  1  0
 37 60  1  0
M  END
$$$$
