
     RDKit          3D

 40 42  0  0  0  0  0  0  0  0999 V2000
   -2.1506    3.9951    3.4782 C   0  0  0  0  0  0  0  0  0  0  0  0
   -1.4286    3.1828    2.5597 O   0  0  0  0  0  0  0  0  0  0  0  0
   -1.7608    1.8545    2.5162 C   0  0  0  0  0  0  0  0  0  0  0  0
   -2.7524    1.2344    3.2699 C   0  0  0  0  0  0  0  0  0  0  0  0
   -2.9981   -0.1393    3.1485 C   0  0  0  0  0  0  0  0  0  0  0  0
   -2.2245   -0.8782    2.2400 C   0  0  0  0  0  0  0  0  0  0  0  0
   -1.2328   -0.2835    1.4525 C   0  0  0  0  0  0  0  0  0  0  0  0
   -0.9996    1.1007    1.6133 C   0  0  0  0  0  0  0  0  0  0  0  0
   -0.6633   -1.3175    0.6454 C   0  0  0  0  0  0  0  0  0  0  0  0
    0.3744   -1.2466   -0.3339 C   0  0  0  0  0  0  0  0  0  0  0  0
    0.5800   -0.2115   -1.1656 C   0  0  0  0  0  0  0  0  0  0  0  0
    1.6548   -0.1488   -2.1613 C   0  0  0  0  0  0  0  0  0  0  0  0
    2.0248   -1.2480   -2.9342 C   0  0  0  0  0  0  0  0  0  0  0  0
    3.0337   -1.1160   -3.8820 C   0  0  0  0  0  0  0  0  0  0  0  0
    3.6507    0.0716   -4.0709 N   0  0  0  0  0  4  0  0  0  0  0  0
    4.7254    0.1839   -5.0715 C   0  0  0  0  0  0  0  0  0  0  0  0
    3.3043    1.1531   -3.3383 C   0  0  0  0  0  0  0  0  0  0  0  0
    2.2995    1.0673   -2.3816 C   0  0  0  0  0  0  0  0  0  0  0  0
   -1.2843   -2.5002    0.9841 C   0  0  0  0  0  0  0  0  0  0  0  0
   -2.2337   -2.2225    1.9323 N   0  0  0  0  0  0  0  0  0  0  0  0
   -3.1114   -3.2036    2.5323 C   0  0  0  0  0  0  0  0  0  0  0  0
   -3.2157    4.0246    3.2256 H   0  0  0  0  0  0  0  0  0  0  0  0
   -1.9962    3.6590    4.5089 H   0  0  0  0  0  0  0  0  0  0  0  0
   -1.7617    5.0148    3.3990 H   0  0  0  0  0  0  0  0  0  0  0  0
   -3.3601    1.7899    3.9775 H   0  0  0  0  0  0  0  0  0  0  0  0
   -3.7680   -0.6112    3.7516 H   0  0  0  0  0  0  0  0  0  0  0  0
   -0.2183    1.5956    1.0466 H   0  0  0  0  0  0  0  0  0  0  0  0
    1.0186   -2.1210   -0.3939 H   0  0  0  0  0  0  0  0  0  0  0  0
   -0.0745    0.6570   -1.1206 H   0  0  0  0  0  0  0  0  0  0  0  0
    1.5280   -2.2088   -2.8145 H   0  0  0  0  0  0  0  0  0  0  0  0
    3.3512   -1.9543   -4.4958 H   0  0  0  0  0  0  0  0  0  0  0  0
    4.7345    1.1996   -5.4751 H   0  0  0  0  0  0  0  0  0  0  0  0
    4.5369   -0.5250   -5.8818 H   0  0  0  0  0  0  0  0  0  0  0  0
    5.6674   -0.0434   -4.5663 H   0  0  0  0  0  0  0  0  0  0  0  0
    3.8360    2.0822   -3.5243 H   0  0  0  0  0  0  0  0  0  0  0  0
    2.0328    1.9506   -1.8032 H   0  0  0  0  0  0  0  0  0  0  0  0
   -1.1419   -3.5096    0.6205 H   0  0  0  0  0  0  0  0  0  0  0  0
   -2.9249   -3.2215    3.6091 H   0  0  0  0  0  0  0  0  0  0  0  0
   -2.9066   -4.1886    2.1050 H   0  0  0  0  0  0  0  0  0  0  0  0
   -4.1449   -2.9172    2.3216 H   0  0  0  0  0  0  0  0  0  0  0  0
  1  2  1  0
  2  3  1  0
  3  4  2  0
  4  5  1  0
  5  6  2  0
  6  7  1  0
  7  8  2  0
  7  9  1  0
  9 10  1  0
 10 11  2  3
 11 12  1  0
 12 13  2  0
 13 14  1  0
 14 15  2  0
 15 16  1  0
 15 17  1  0
 17 18  2  0
  9 19  2  0
 19 20  1  0
 20 21  1  0
  8  3  1  0
 18 12  1  0
 20  6  1  0
  1 22  1  0
  1 23  1  0
  1 24  1  0
  4 25  1  0
  5 26  1  0
  8 27  1  0
 10 28  1  0
 11 29  1  0
 13 30  1  0
 14 31  1  0
 16 32  1  0
 16 33  1  0
 16 34  1  0
 17 35  1  0
 18 36  1  0
 19 37  1  0
 21 38  1  0
 21 39  1  0
 21 40  1  0
M  CHG  1  15   1
M  END
$$$$
