
     RDKit          3D

 51 55  0  0  0  0  0  0  0  0999 V2000
    5.9682   -3.2851   -2.8872 C   0  0  0  0  0  0  0  0  0  0  0  0
    4.9465   -2.1663   -2.7977 C   0  0  0  0  0  0  0  0  0  0  0  0
    3.9412   -2.5562   -1.8523 O   0  0  0  0  0  0  0  0  0  0  0  0
    3.1079   -1.5166   -1.5421 C   0  0  0  0  0  0  0  0  0  0  0  0
    3.0605   -1.1073   -0.2096 C   0  0  0  0  0  0  0  0  0  0  0  0
    2.2142   -0.0641    0.1680 C   0  0  0  0  0  0  0  0  0  0  0  0
    1.3932    0.5362   -0.7934 C   0  0  0  0  0  0  0  0  0  0  0  0
    0.3181    1.8764   -0.3279 S   0  0  0  0  0  6  0  0  0  0  0  0
    0.7211    2.3231    0.9901 O   0  0  0  0  0  0  0  0  0  0  0  0
    0.3267    2.8091   -1.4355 O   0  0  0  0  0  0  0  0  0  0  0  0
   -1.2195    1.1644   -0.2122 N   0  0  0  0  0  0  0  0  0  0  0  0
   -1.9915    0.9805   -1.3931 C   0  0  0  0  0  0  0  0  0  0  0  0
   -2.1609   -0.1260   -1.8955 O   0  0  0  0  0  0  0  0  0  0  0  0
   -2.6239    2.1931   -1.8863 C   0  0  0  0  0  0  0  0  0  0  0  0
   -2.7042    3.4927   -1.4117 C   0  0  0  0  0  0  0  0  0  0  0  0
   -3.4840    4.2270   -2.3394 C   0  0  0  0  0  0  0  0  0  0  0  0
   -3.8443    3.3382   -3.3219 C   0  0  0  0  0  0  0  0  0  0  0  0
   -3.3366    2.1087   -3.0573 O   0  0  0  0  0  0  0  0  0  0  0  0
   -1.3810    0.1514    0.8146 C   0  0  0  0  0  0  0  0  0  0  0  0
   -1.0298   -1.1844    0.5588 C   0  0  0  0  0  0  0  0  0  0  0  0
   -1.1455   -2.1180    1.5704 C   0  0  0  0  0  0  0  0  0  0  0  0
   -0.7627   -3.8266    1.5014 S   0  0  0  0  0  0  0  0  0  0  0  0
   -1.2502   -3.9568    3.1941 C   0  0  0  0  0  0  0  0  0  0  0  0
   -1.2048   -5.0178    3.8017 O   0  0  0  0  0  0  0  0  0  0  0  0
   -1.6835   -2.7738    3.7860 O   0  0  0  0  0  0  0  0  0  0  0  0
   -1.6052   -1.7547    2.8287 C   0  0  0  0  0  0  0  0  0  0  0  0
   -1.9709   -0.4372    3.1297 C   0  0  0  0  0  0  0  0  0  0  0  0
   -2.4423   -0.0704    4.4065 C   0  0  0  0  0  0  0  0  0  0  0  0
   -2.8011    1.2455    4.6889 C   0  0  0  0  0  0  0  0  0  0  0  0
   -2.6931    2.2148    3.7021 C   0  0  0  0  0  0  0  0  0  0  0  0
   -2.2279    1.8680    2.4315 C   0  0  0  0  0  0  0  0  0  0  0  0
   -1.8547    0.5427    2.1075 C   0  0  0  0  0  0  0  0  0  0  0  0
    1.4324    0.1210   -2.1292 C   0  0  0  0  0  0  0  0  0  0  0  0
    2.2856   -0.9192   -2.4996 C   0  0  0  0  0  0  0  0  0  0  0  0
    6.7821   -3.0173   -3.5685 H   0  0  0  0  0  0  0  0  0  0  0  0
    6.3904   -3.5030   -1.9000 H   0  0  0  0  0  0  0  0  0  0  0  0
    5.4986   -4.2090   -3.2433 H   0  0  0  0  0  0  0  0  0  0  0  0
    4.5002   -2.0067   -3.7873 H   0  0  0  0  0  0  0  0  0  0  0  0
    5.4467   -1.2448   -2.4694 H   0  0  0  0  0  0  0  0  0  0  0  0
    3.6940   -1.5933    0.5297 H   0  0  0  0  0  0  0  0  0  0  0  0
    2.1983    0.2641    1.2050 H   0  0  0  0  0  0  0  0  0  0  0  0
   -2.2449    3.8765   -0.5105 H   0  0  0  0  0  0  0  0  0  0  0  0
   -3.7480    5.2747   -2.2976 H   0  0  0  0  0  0  0  0  0  0  0  0
   -4.4292    3.4186   -4.2290 H   0  0  0  0  0  0  0  0  0  0  0  0
   -0.6742   -1.5019   -0.4180 H   0  0  0  0  0  0  0  0  0  0  0  0
   -2.5336   -0.8138    5.1973 H   0  0  0  0  0  0  0  0  0  0  0  0
   -3.1612    1.5118    5.6796 H   0  0  0  0  0  0  0  0  0  0  0  0
   -2.9651    3.2453    3.9179 H   0  0  0  0  0  0  0  0  0  0  0  0
   -2.1498    2.6615    1.6925 H   0  0  0  0  0  0  0  0  0  0  0  0
    0.8037    0.5909   -2.8835 H   0  0  0  0  0  0  0  0  0  0  0  0
    2.2939   -1.2658   -3.5291 H   0  0  0  0  0  0  0  0  0  0  0  0
  1  2  1  0
  2  3  1  0
  3  4  1  0
  4  5  2  0
  5  6  1  0
  6  7  2  0
  7  8  1  0
  8  9  2  0
  8 10  2  0
  8 11  1  0
 11 12  1  0
 12 13  2  0
 12 14  1  0
 14 15  2  0
 15 16  1  0
 16 17  2  0
 17 18  1  0
 11 19  1  0
 19 20  2  0
 20 21  1  0
 21 22  1  0
 22 23  1  0
 23 24  2  0
 23 25  1  0
 25 26  1  0
 26 27  1  0
 27 28  2  0
 28 29  1  0
 29 30  2  0
 30 31  1  0
 31 32  2  0
  7 33  1  0
 33 34  2  0
 34  4  1  0
 18 14  1  0
 32 19  1  0
 26 21  2  0
 32 27  1  0
  1 35  1  0
  1 36  1  0
  1 37  1  0
  2 38  1  0
  2 39  1  0
  5 40  1  0
  6 41  1  0
 15 42  1  0
 16 43  1  0
 17 44  1  0
 20 45  1  0
 28 46  1  0
 29 47  1  0
 30 48  1  0
 31 49  1  0
 33 50  1  0
 34 51  1  0
M  END
$$$$
