
     RDKit          3D

 50 53  0  0  0  0  0  0  0  0999 V2000
   -4.0113    1.9487    3.8605 C   0  0  0  0  0  0  0  0  0  0  0  0
   -3.2333    1.7430    2.5684 C   0  0  0  0  0  0  0  0  0  0  0  0
   -1.7695    1.3989    2.8168 C   0  0  0  0  0  0  0  0  0  0  0  0
   -1.3245    1.2915    3.9604 O   0  0  0  0  0  0  0  0  0  0  0  0
   -0.9538    1.2085    1.6955 N   0  0  0  0  0  0  0  0  0  0  0  0
   -1.5047    0.9742    0.3549 C   0  0  0  0  0  0  0  0  0  0  0  0
   -2.0314   -0.4220    0.0846 C   0  0  0  0  0  0  0  0  0  0  0  0
   -1.7098   -1.5402    0.8670 C   0  0  0  0  0  0  0  0  0  0  0  0
   -2.2102   -2.8071    0.5456 C   0  0  0  0  0  0  0  0  0  0  0  0
   -3.0550   -2.9836   -0.5580 C   0  0  0  0  0  0  0  0  0  0  0  0
   -3.5669   -4.3451   -0.9205 C   0  0  0  0  0  0  0  0  0  0  0  0
   -3.3727   -1.8762   -1.3501 C   0  0  0  0  0  0  0  0  0  0  0  0
   -2.8655   -0.6126   -1.0337 C   0  0  0  0  0  0  0  0  0  0  0  0
    0.4633    0.9477    1.9837 C   0  0  0  0  0  0  0  0  0  0  0  0
    1.3917    1.0798    0.8146 C   0  0  0  0  0  0  0  0  0  0  0  0
    1.9518    0.0211    0.1998 C   0  0  0  0  0  0  0  0  0  0  0  0
    2.9118    0.1994   -0.8898 C   0  0  0  0  0  0  0  0  0  0  0  0
    3.5007   -0.8998   -1.5251 C   0  0  0  0  0  0  0  0  0  0  0  0
    4.4210   -0.6420   -2.5212 C   0  0  0  0  0  0  0  0  0  0  0  0
    4.7515    0.6401   -2.8977 C   0  0  0  0  0  0  0  0  0  0  0  0
    4.1853    1.7454   -2.2988 C   0  0  0  0  0  0  0  0  0  0  0  0
    3.2592    1.5119   -1.2808 C   0  0  0  0  0  0  0  0  0  0  0  0
    2.6635    2.5944   -0.6241 N   0  0  0  0  0  0  0  0  0  0  0  0
    1.7547    2.4672    0.3934 C   0  0  0  0  0  0  0  0  0  0  0  0
    1.2626    3.4596    0.9201 O   0  0  0  0  0  0  0  0  0  0  0  0
    5.6806    0.6658   -3.8911 O   0  0  0  0  0  0  0  0  0  0  0  0
    5.9192   -0.7446   -4.0789 C   0  0  0  0  0  0  0  0  0  0  0  0
    5.1014   -1.5815   -3.2320 O   0  0  0  0  0  0  0  0  0  0  0  0
   -3.9974    1.0401    4.4740 H   0  0  0  0  0  0  0  0  0  0  0  0
   -3.5786    2.7629    4.4522 H   0  0  0  0  0  0  0  0  0  0  0  0
   -5.0549    2.2020    3.6415 H   0  0  0  0  0  0  0  0  0  0  0  0
   -3.7016    0.9351    2.0024 H   0  0  0  0  0  0  0  0  0  0  0  0
   -3.2783    2.6664    1.9786 H   0  0  0  0  0  0  0  0  0  0  0  0
   -0.7681    1.2348   -0.4112 H   0  0  0  0  0  0  0  0  0  0  0  0
   -2.3300    1.6809    0.2088 H   0  0  0  0  0  0  0  0  0  0  0  0
   -1.0700   -1.4529    1.7460 H   0  0  0  0  0  0  0  0  0  0  0  0
   -1.9347   -3.6563    1.1699 H   0  0  0  0  0  0  0  0  0  0  0  0
   -4.6016   -4.2843   -1.2773 H   0  0  0  0  0  0  0  0  0  0  0  0
   -2.9429   -4.7841   -1.7064 H   0  0  0  0  0  0  0  0  0  0  0  0
   -3.5611   -5.0135   -0.0515 H   0  0  0  0  0  0  0  0  0  0  0  0
   -4.0164   -1.9899   -2.2213 H   0  0  0  0  0  0  0  0  0  0  0  0
   -3.1305    0.2301   -1.6710 H   0  0  0  0  0  0  0  0  0  0  0  0
    0.7932    1.6240    2.7838 H   0  0  0  0  0  0  0  0  0  0  0  0
    0.5291   -0.0594    2.4136 H   0  0  0  0  0  0  0  0  0  0  0  0
    1.7160   -0.9943    0.5065 H   0  0  0  0  0  0  0  0  0  0  0  0
    3.2626   -1.9212   -1.2492 H   0  0  0  0  0  0  0  0  0  0  0  0
    4.4639    2.7448   -2.6104 H   0  0  0  0  0  0  0  0  0  0  0  0
    2.9014    3.5456   -0.8788 H   0  0  0  0  0  0  0  0  0  0  0  0
    5.7156   -1.0005   -5.1256 H   0  0  0  0  0  0  0  0  0  0  0  0
    6.9746   -0.9524   -3.8634 H   0  0  0  0  0  0  0  0  0  0  0  0
  1  2  1  0
  2  3  1  0
  3  4  2  0
  3  5  1  0
  5  6  1  0
  6  7  1  0
  7  8  2  0
  8  9  1  0
  9 10  2  0
 10 11  1  0
 10 12  1  0
 12 13  2  0
  5 14  1  0
 14 15  1  0
 15 16  2  0
 16 17  1  0
 17 18  2  0
 18 19  1  0
 19 20  2  0
 20 21  1  0
 21 22  2  0
 22 23  1  0
 23 24  1  0
 24 25  2  0
 20 26  1  0
 26 27  1  0
 27 28  1  0
 13  7  1  0
 24 15  1  0
 22 17  1  0
 28 19  1  0
  1 29  1  0
  1 30  1  0
  1 31  1  0
  2 32  1  0
  2 33  1  0
  6 34  1  0
  6 35  1  0
  8 36  1  0
  9 37  1  0
 11 38  1  0
 11 39  1  0
 11 40  1  0
 12 41  1  0
 13 42  1  0
 14 43  1  0
 14 44  1  0
 16 45  1  0
 18 46  1  0
 21 47  1  0
 23 48  1  0
 27 49  1  0
 27 50  1  0
M  END
$$$$
