
     RDKit          3D

 58 62  0  0  0  0  0  0  0  0999 V2000
    8.5462    2.5069    1.4535 C   0  0  0  0  0  0  0  0  0  0  0  0
    7.9040    1.2396    1.5240 O   0  0  0  0  0  0  0  0  0  0  0  0
    6.5443    1.2297    1.3685 C   0  0  0  0  0  0  0  0  0  0  0  0
    5.7475    2.3227    1.0252 C   0  0  0  0  0  0  0  0  0  0  0  0
    4.3603    2.1740    0.9099 C   0  0  0  0  0  0  0  0  0  0  0  0
    3.7550    0.9320    1.1365 C   0  0  0  0  0  0  0  0  0  0  0  0
    2.2597    0.7727    1.0035 C   0  0  0  0  0  0  0  0  0  0  0  0
    1.8378    0.4778   -0.4407 C   0  0  0  0  0  0  0  0  0  0  0  0
    0.3899    0.1919   -0.5071 N   0  0  0  0  0  0  0  0  0  0  0  0
   -0.5026    1.2685   -0.6186 C   0  0  0  0  0  0  0  0  0  0  0  0
   -0.0436    2.4871   -0.6759 N   0  0  0  0  0  0  0  0  0  0  0  0
   -1.9929    1.0042   -0.6642 C   0  0  0  0  0  0  0  0  0  0  0  0
   -2.9948    2.1032   -0.8154 C   0  0  0  0  0  0  0  0  0  0  0  0
   -2.6699    3.2780   -0.6540 O   0  0  0  0  0  0  0  0  0  0  0  0
   -4.2612    1.7342   -1.1969 N   0  0  0  0  0  0  0  0  0  0  0  0
   -5.2810    2.7272   -1.4522 C   0  0  0  0  0  0  0  0  0  0  0  0
   -6.5918    2.0380   -1.4420 C   0  0  0  0  0  0  0  0  0  0  0  0
   -7.5959    1.9153   -0.5006 C   0  0  0  0  0  0  0  0  0  0  0  0
   -8.5854    1.0850   -1.0809 C   0  0  0  0  0  0  0  0  0  0  0  0
   -8.1247    0.7568   -2.3357 C   0  0  0  0  0  0  0  0  0  0  0  0
   -6.9153    1.3277   -2.5634 O   0  0  0  0  0  0  0  0  0  0  0  0
   -2.3536   -0.2803   -0.4918 C   0  0  0  0  0  0  0  0  0  0  0  0
   -1.3949   -1.3647   -0.3338 C   0  0  0  0  0  0  0  0  0  0  0  0
   -1.8913   -2.7606   -0.1679 C   0  0  0  0  0  0  0  0  0  0  0  0
   -3.1051   -2.9825   -0.1831 O   0  0  0  0  0  0  0  0  0  0  0  0
   -0.9239   -3.7358   -0.0088 N   0  0  0  0  0  0  0  0  0  0  0  0
   -1.3074   -5.0631    0.1570 C   0  0  0  0  0  0  0  0  0  0  0  0
   -0.4078   -6.0427    0.3107 C   0  0  0  0  0  0  0  0  0  0  0  0
    0.9968   -5.7315    0.3055 C   0  0  0  0  0  0  0  0  0  0  0  0
    1.4100   -4.4676    0.1504 C   0  0  0  0  0  0  0  0  0  0  0  0
    0.4107   -3.3751   -0.0213 C   0  0  0  0  0  0  0  0  0  0  0  0
    0.8392   -2.1636   -0.1715 N   0  0  0  0  0  0  0  0  0  0  0  0
   -0.0626   -1.1369   -0.3367 C   0  0  0  0  0  0  0  0  0  0  0  0
    4.5601   -0.1654    1.4635 C   0  0  0  0  0  0  0  0  0  0  0  0
    5.9437   -0.0133    1.5780 C   0  0  0  0  0  0  0  0  0  0  0  0
    9.6009    2.3557    1.6930 H   0  0  0  0  0  0  0  0  0  0  0  0
    8.1363    3.2063    2.1903 H   0  0  0  0  0  0  0  0  0  0  0  0
    8.4897    2.9215    0.4422 H   0  0  0  0  0  0  0  0  0  0  0  0
    6.1704    3.3036    0.8386 H   0  0  0  0  0  0  0  0  0  0  0  0
    3.7516    3.0371    0.6424 H   0  0  0  0  0  0  0  0  0  0  0  0
    1.7640    1.6813    1.3704 H   0  0  0  0  0  0  0  0  0  0  0  0
    1.9228   -0.0310    1.6730 H   0  0  0  0  0  0  0  0  0  0  0  0
    2.0988    1.3201   -1.0960 H   0  0  0  0  0  0  0  0  0  0  0  0
    2.4148   -0.3657   -0.8425 H   0  0  0  0  0  0  0  0  0  0  0  0
   -0.8271    3.1631   -0.7301 H   0  0  0  0  0  0  0  0  0  0  0  0
   -4.4235    0.8249   -1.6090 H   0  0  0  0  0  0  0  0  0  0  0  0
   -5.0806    3.1808   -2.4296 H   0  0  0  0  0  0  0  0  0  0  0  0
   -5.2331    3.5129   -0.6910 H   0  0  0  0  0  0  0  0  0  0  0  0
   -7.6045    2.3552    0.4882 H   0  0  0  0  0  0  0  0  0  0  0  0
   -9.5151    0.7622   -0.6379 H   0  0  0  0  0  0  0  0  0  0  0  0
   -8.5176    0.1523   -3.1381 H   0  0  0  0  0  0  0  0  0  0  0  0
   -3.3989   -0.5712   -0.4414 H   0  0  0  0  0  0  0  0  0  0  0  0
   -2.3742   -5.2744    0.1562 H   0  0  0  0  0  0  0  0  0  0  0  0
   -0.7162   -7.0759    0.4393 H   0  0  0  0  0  0  0  0  0  0  0  0
    1.7084   -6.5421    0.4276 H   0  0  0  0  0  0  0  0  0  0  0  0
    2.4570   -4.1918    0.1388 H   0  0  0  0  0  0  0  0  0  0  0  0
    4.1158   -1.1441    1.6335 H   0  0  0  0  0  0  0  0  0  0  0  0
    6.5608   -0.8701    1.8382 H   0  0  0  0  0  0  0  0  0  0  0  0
  1  2  1  0
  2  3  1  0
  3  4  2  0
  4  5  1  0
  5  6  2  0
  6  7  1  0
  7  8  1  0
  8  9  1  0
  9 10  1  0
 10 11  2  3
 10 12  1  0
 12 13  1  0
 13 14  2  0
 13 15  1  0
 15 16  1  0
 16 17  1  0
 17 18  2  0
 18 19  1  0
 19 20  2  0
 20 21  1  0
 12 22  2  0
 22 23  1  0
 23 24  1  0
 24 25  2  0
 24 26  1  0
 26 27  1  0
 27 28  2  0
 28 29  1  0
 29 30  2  0
 30 31  1  0
 31 32  2  0
 32 33  1  0
  6 34  1  0
 34 35  2  0
 35  3  1  0
 33  9  1  0
 21 17  1  0
 33 23  2  0
 31 26  1  0
  1 36  1  0
  1 37  1  0
  1 38  1  0
  4 39  1  0
  5 40  1  0
  7 41  1  0
  7 42  1  0
  8 43  1  0
  8 44  1  0
 11 45  1  0
 15 46  1  0
 16 47  1  0
 16 48  1  0
 18 49  1  0
 19 50  1  0
 20 51  1  0
 22 52  1  0
 27 53  1  0
 28 54  1  0
 29 55  1  0
 30 56  1  0
 34 57  1  0
 35 58  1  0
M  END
$$$$
