
     RDKit          3D

 60 62  0  0  0  0  0  0  0  0999 V2000
   -3.5863    7.0007   -1.0532 C   0  0  0  0  0  0  0  0  0  0  0  0
   -3.2923    5.5443   -0.8401 C   0  0  0  0  0  0  0  0  0  0  0  0
   -4.3260    4.6056   -0.8466 C   0  0  0  0  0  0  0  0  0  0  0  0
   -4.0549    3.2590   -0.6054 C   0  0  0  0  0  0  0  0  0  0  0  0
   -2.7416    2.8363   -0.3508 C   0  0  0  0  0  0  0  0  0  0  0  0
   -2.4764    1.0935   -0.0423 S   0  0  0  0  0  6  0  0  0  0  0  0
   -1.6263    0.9693    1.1202 O   0  0  0  0  0  0  0  0  0  0  0  0
   -3.7629    0.4315   -0.1169 O   0  0  0  0  0  0  0  0  0  0  0  0
   -1.6257    0.6475   -1.4509 N   0  0  0  0  0  0  0  0  0  0  0  0
   -1.0237   -0.6615   -1.3997 C   0  0  0  0  0  0  0  0  0  0  0  0
    0.2368   -0.7433   -0.7953 C   0  0  0  0  0  0  0  0  0  0  0  0
    0.9273   -1.9565   -0.7178 C   0  0  0  0  0  0  0  0  0  0  0  0
    2.2993   -2.0490   -0.0562 C   0  0  0  0  0  0  0  0  0  0  0  0
    2.2376   -1.9842    1.4549 C   0  0  0  0  0  0  0  0  0  0  0  0
    1.2654   -2.2856    2.1349 O   0  0  0  0  0  0  0  0  0  0  0  0
    3.4565   -1.6417    1.9671 O   0  0  0  0  0  0  0  0  0  0  0  0
    3.5597   -1.6049    3.4040 C   0  0  0  0  0  0  0  0  0  0  0  0
    4.7011   -0.6543    3.7450 C   0  0  0  0  0  0  0  0  0  0  0  0
    3.8516   -3.0069    3.9261 C   0  0  0  0  0  0  0  0  0  0  0  0
    3.3073   -1.0718   -0.6335 C   0  0  0  0  0  0  0  0  0  0  0  0
    3.1190    0.1488   -0.6515 O   0  0  0  0  0  0  0  0  0  0  0  0
    4.5709   -1.7190   -1.1637 C   0  0  0  0  0  0  0  0  0  0  0  0
    5.5376   -0.8248   -1.5037 F   0  0  0  0  0  0  0  0  0  0  0  0
    5.1349   -2.5669   -0.2594 F   0  0  0  0  0  0  0  0  0  0  0  0
    4.3263   -2.4630   -2.2777 F   0  0  0  0  0  0  0  0  0  0  0  0
    0.2904   -3.0980   -1.2243 C   0  0  0  0  0  0  0  0  0  0  0  0
    0.9569   -4.2892   -1.0682 O   0  0  0  0  0  0  0  0  0  0  0  0
   -0.9851   -3.0560   -1.8457 C   0  0  0  0  0  0  0  0  0  0  0  0
   -1.5969   -4.1998   -2.4146 C   0  0  0  0  0  0  0  0  0  0  0  0
   -2.8625   -4.1451   -2.9969 C   0  0  0  0  0  0  0  0  0  0  0  0
   -3.5505   -2.9438   -3.0278 C   0  0  0  0  0  0  0  0  0  0  0  0
   -2.9611   -1.7954   -2.4984 C   0  0  0  0  0  0  0  0  0  0  0  0
   -1.6697   -1.8155   -1.9142 C   0  0  0  0  0  0  0  0  0  0  0  0
   -1.6844    3.7659   -0.3259 C   0  0  0  0  0  0  0  0  0  0  0  0
   -0.2591    3.3929   -0.0230 C   0  0  0  0  0  0  0  0  0  0  0  0
   -1.9846    5.1197   -0.5648 C   0  0  0  0  0  0  0  0  0  0  0  0
   -4.4658    7.1338   -1.6917 H   0  0  0  0  0  0  0  0  0  0  0  0
   -3.7708    7.4888   -0.0909 H   0  0  0  0  0  0  0  0  0  0  0  0
   -2.7465    7.4998   -1.5491 H   0  0  0  0  0  0  0  0  0  0  0  0
   -5.3525    4.9187   -1.0288 H   0  0  0  0  0  0  0  0  0  0  0  0
   -4.8820    2.5506   -0.6045 H   0  0  0  0  0  0  0  0  0  0  0  0
   -2.2400    0.7616   -2.2560 H   0  0  0  0  0  0  0  0  0  0  0  0
    0.6748    0.1641   -0.3842 H   0  0  0  0  0  0  0  0  0  0  0  0
    2.7115   -3.0459   -0.2580 H   0  0  0  0  0  0  0  0  0  0  0  0
    2.6356   -1.2137    3.8471 H   0  0  0  0  0  0  0  0  0  0  0  0
    4.8482   -0.5818    4.8264 H   0  0  0  0  0  0  0  0  0  0  0  0
    5.6392   -0.9821    3.2830 H   0  0  0  0  0  0  0  0  0  0  0  0
    4.4926    0.3475    3.3539 H   0  0  0  0  0  0  0  0  0  0  0  0
    4.7528   -3.4183    3.4580 H   0  0  0  0  0  0  0  0  0  0  0  0
    3.0330   -3.6921    3.6844 H   0  0  0  0  0  0  0  0  0  0  0  0
    3.9887   -3.0058    5.0114 H   0  0  0  0  0  0  0  0  0  0  0  0
    0.2908   -4.9768   -0.8915 H   0  0  0  0  0  0  0  0  0  0  0  0
   -1.0818   -5.1581   -2.4332 H   0  0  0  0  0  0  0  0  0  0  0  0
   -3.3070   -5.0412   -3.4235 H   0  0  0  0  0  0  0  0  0  0  0  0
   -4.5450   -2.8941   -3.4638 H   0  0  0  0  0  0  0  0  0  0  0  0
   -3.5458   -0.8798   -2.5344 H   0  0  0  0  0  0  0  0  0  0  0  0
    0.4177    4.2355   -0.2025 H   0  0  0  0  0  0  0  0  0  0  0  0
    0.0819    2.5810   -0.6694 H   0  0  0  0  0  0  0  0  0  0  0  0
   -0.1514    3.1083    1.0274 H   0  0  0  0  0  0  0  0  0  0  0  0
   -1.1868    5.8610   -0.5303 H   0  0  0  0  0  0  0  0  0  0  0  0
  1  2  1  0
  2  3  2  0
  3  4  1  0
  4  5  2  0
  5  6  1  0
  6  7  2  0
  6  8  2  0
  6  9  1  0
  9 10  1  0
 10 11  2  0
 11 12  1  0
 12 13  1  0
 13 14  1  0
 14 15  2  0
 14 16  1  0
 16 17  1  0
 17 18  1  0
 17 19  1  0
 13 20  1  0
 20 21  2  0
 20 22  1  0
 22 23  1  0
 22 24  1  0
 22 25  1  0
 12 26  2  0
 26 27  1  0
 26 28  1  0
 28 29  2  0
 29 30  1  0
 30 31  2  0
 31 32  1  0
 32 33  2  0
  5 34  1  0
 34 35  1  0
 34 36  2  0
 36  2  1  0
 33 10  1  0
 33 28  1  0
  1 37  1  0
  1 38  1  0
  1 39  1  0
  3 40  1  0
  4 41  1  0
  9 42  1  0
 11 43  1  0
 13 44  1  0
 17 45  1  0
 18 46  1  0
 18 47  1  0
 18 48  1  0
 19 49  1  0
 19 50  1  0
 19 51  1  0
 27 52  1  0
 29 53  1  0
 30 54  1  0
 31 55  1  0
 32 56  1  0
 35 57  1  0
 35 58  1  0
 35 59  1  0
 36 60  1  0
M  END
$$$$
