
     RDKit          3D

 38 40  0  0  0  0  0  0  0  0999 V2000
   -3.6709   -1.6072   -1.9379 C   0  0  0  0  0  0  0  0  0  0  0  0
   -3.3709   -0.2441   -1.3815 C   0  0  0  0  0  0  0  0  0  0  0  0
   -3.7589    0.8790   -2.1347 C   0  0  0  0  0  0  0  0  0  0  0  0
   -3.5253    2.1682   -1.6630 C   0  0  0  0  0  0  0  0  0  0  0  0
   -3.9000    3.2178   -2.4059 F   0  0  0  0  0  0  0  0  0  0  0  0
   -2.9140    2.3813   -0.4366 C   0  0  0  0  0  0  0  0  0  0  0  0
   -2.5311    1.2853    0.3349 C   0  0  0  0  0  0  0  0  0  0  0  0
   -2.7522   -0.0236   -0.1327 C   0  0  0  0  0  0  0  0  0  0  0  0
   -2.2356   -1.3723    0.9310 S   0  0  0  0  0  6  0  0  0  0  0  0
   -1.9091   -0.8211    2.2288 O   0  0  0  0  0  0  0  0  0  0  0  0
   -3.2039   -2.4414    0.8100 O   0  0  0  0  0  0  0  0  0  0  0  0
   -0.8188   -1.9193    0.1939 N   0  0  0  0  0  0  0  0  0  0  0  0
    0.2163   -0.9966   -0.1238 C   0  0  0  0  0  0  0  0  0  0  0  0
    0.5740   -0.8294   -1.4628 C   0  0  0  0  0  0  0  0  0  0  0  0
    1.5595    0.0945   -1.8141 C   0  0  0  0  0  0  0  0  0  0  0  0
    2.1881    0.8456   -0.8205 C   0  0  0  0  0  0  0  0  0  0  0  0
    3.1422    1.7620   -1.1706 O   0  0  0  0  0  0  0  0  0  0  0  0
    1.8480    0.6748    0.5286 C   0  0  0  0  0  0  0  0  0  0  0  0
    2.6266    1.6178    1.8285 S   0  0  0  0  0  0  0  0  0  0  0  0
    4.0313    0.6457    2.1843 C   0  0  0  0  0  0  0  0  0  0  0  0
    4.2763   -0.5940    1.6473 N   0  0  0  0  0  0  0  0  0  0  0  0
    5.4043   -0.9476    2.2128 C   0  0  0  0  0  0  0  0  0  0  0  0
    5.8130    0.0339    3.0568 N   0  0  0  0  0  0  0  0  0  0  0  0
    4.9516    1.0602    3.0641 N   0  0  0  0  0  0  0  0  0  0  0  0
    0.8528   -0.2514    0.8683 C   0  0  0  0  0  0  0  0  0  0  0  0
   -2.7987   -2.2627   -1.8719 H   0  0  0  0  0  0  0  0  0  0  0  0
   -3.9341   -1.5501   -2.9998 H   0  0  0  0  0  0  0  0  0  0  0  0
   -4.5180   -2.0566   -1.4129 H   0  0  0  0  0  0  0  0  0  0  0  0
   -4.2511    0.7655   -3.0978 H   0  0  0  0  0  0  0  0  0  0  0  0
   -2.7431    3.3940   -0.0857 H   0  0  0  0  0  0  0  0  0  0  0  0
   -2.0561    1.4615    1.2992 H   0  0  0  0  0  0  0  0  0  0  0  0
   -0.9799   -2.7049   -0.4325 H   0  0  0  0  0  0  0  0  0  0  0  0
    0.0842   -1.4032   -2.2445 H   0  0  0  0  0  0  0  0  0  0  0  0
    1.8193    0.2199   -2.8606 H   0  0  0  0  0  0  0  0  0  0  0  0
    3.3064    1.7112   -2.1248 H   0  0  0  0  0  0  0  0  0  0  0  0
    5.9488   -1.8673    2.0567 H   0  0  0  0  0  0  0  0  0  0  0  0
    6.6384    0.0733    3.6439 H   0  0  0  0  0  0  0  0  0  0  0  0
    0.5905   -0.3984    1.9140 H   0  0  0  0  0  0  0  0  0  0  0  0
  1  2  1  0
  2  3  2  0
  3  4  1  0
  4  5  1  0
  4  6  2  0
  6  7  1  0
  7  8  2  0
  8  9  1  0
  9 10  2  0
  9 11  2  0
  9 12  1  0
 12 13  1  0
 13 14  2  0
 14 15  1  0
 15 16  2  0
 16 17  1  0
 16 18  1  0
 18 19  1  0
 19 20  1  0
 20 21  1  0
 21 22  2  0
 22 23  1  0
 23 24  1  0
 18 25  2  0
  8  2  1  0
 25 13  1  0
 24 20  2  0
  1 26  1  0
  1 27  1  0
  1 28  1  0
  3 29  1  0
  6 30  1  0
  7 31  1  0
 12 32  1  0
 14 33  1  0
 15 34  1  0
 17 35  1  0
 22 36  1  0
 23 37  1  0
 25 38  1  0
M  END
$$$$
