
     RDKit          3D

 61 64  0  0  0  0  0  0  0  0999 V2000
   -7.1523   -3.0456   -3.6349 C   0  0  0  0  0  0  0  0  0  0  0  0
   -5.9552   -2.5021   -3.0906 O   0  0  0  0  0  0  0  0  0  0  0  0
   -6.0944   -1.5454   -2.1231 C   0  0  0  0  0  0  0  0  0  0  0  0
   -7.2999   -1.0719   -1.6036 C   0  0  0  0  0  0  0  0  0  0  0  0
   -7.3135   -0.0760   -0.6195 C   0  0  0  0  0  0  0  0  0  0  0  0
   -8.5638    0.3000   -0.2089 O   0  0  0  0  0  0  0  0  0  0  0  0
   -8.6380    1.3380    0.7619 C   0  0  0  0  0  0  0  0  0  0  0  0
   -6.1088    0.4394   -0.1448 C   0  0  0  0  0  0  0  0  0  0  0  0
   -4.8926   -0.0431   -0.6479 C   0  0  0  0  0  0  0  0  0  0  0  0
   -3.6274    0.5360   -0.1136 C   0  0  0  0  0  0  0  0  0  0  0  0
   -3.6424    1.6831    0.3234 O   0  0  0  0  0  0  0  0  0  0  0  0
   -2.5336   -0.3238   -0.1268 N   0  0  0  0  0  0  0  0  0  0  0  0
   -1.3143   -0.0558    0.4417 N   0  0  0  0  0  0  0  0  0  0  0  0
   -0.8637    1.1569    0.3682 C   0  0  0  0  0  0  0  0  0  0  0  0
    0.4173    1.5490    0.9917 C   0  0  0  0  0  0  0  0  0  0  0  0
    0.8217    2.8807    0.9131 C   0  0  0  0  0  0  0  0  0  0  0  0
    2.0249    3.2804    1.5030 C   0  0  0  0  0  0  0  0  0  0  0  0
    2.8342    2.3531    2.1707 C   0  0  0  0  0  0  0  0  0  0  0  0
    4.0214    2.6593    2.7827 O   0  0  0  0  0  0  0  0  0  0  0  0
    4.4396    4.0184    2.7654 C   0  0  0  0  0  0  0  0  0  0  0  0
    2.4380    1.0031    2.2363 C   0  0  0  0  0  0  0  0  0  0  0  0
    3.2722   -0.0270    2.9719 C   0  0  0  0  0  0  0  0  0  0  0  0
    3.2590   -1.3106    2.3356 O   0  0  0  0  0  0  0  0  0  0  0  0
    4.1157   -1.5328    1.2926 C   0  0  0  0  0  0  0  0  0  0  0  0
    4.0814   -2.8324    0.7865 C   0  0  0  0  0  0  0  0  0  0  0  0
    4.8993   -3.2039   -0.2826 C   0  0  0  0  0  0  0  0  0  0  0  0
    5.7694   -2.2749   -0.8690 C   0  0  0  0  0  0  0  0  0  0  0  0
    6.5999   -2.6271   -1.9451 C   0  0  0  0  0  0  0  0  0  0  0  0
    7.4593   -1.6891   -2.5190 C   0  0  0  0  0  0  0  0  0  0  0  0
    7.4985   -0.3888   -2.0251 C   0  0  0  0  0  0  0  0  0  0  0  0
    6.6783   -0.0237   -0.9563 C   0  0  0  0  0  0  0  0  0  0  0  0
    5.8080   -0.9549   -0.3656 C   0  0  0  0  0  0  0  0  0  0  0  0
    4.9759   -0.5990    0.7128 C   0  0  0  0  0  0  0  0  0  0  0  0
    1.2161    0.6156    1.6540 C   0  0  0  0  0  0  0  0  0  0  0  0
   -4.8905   -1.0248   -1.6454 C   0  0  0  0  0  0  0  0  0  0  0  0
   -7.7507   -2.2705   -4.1250 H   0  0  0  0  0  0  0  0  0  0  0  0
   -6.8700   -3.7794   -4.3959 H   0  0  0  0  0  0  0  0  0  0  0  0
   -7.7324   -3.5684   -2.8674 H   0  0  0  0  0  0  0  0  0  0  0  0
   -8.2559   -1.4528   -1.9491 H   0  0  0  0  0  0  0  0  0  0  0  0
   -8.1976    2.2662    0.3829 H   0  0  0  0  0  0  0  0  0  0  0  0
   -8.1692    1.0314    1.7026 H   0  0  0  0  0  0  0  0  0  0  0  0
   -9.6960    1.5302    0.9645 H   0  0  0  0  0  0  0  0  0  0  0  0
   -6.0824    1.2121    0.6180 H   0  0  0  0  0  0  0  0  0  0  0  0
   -2.7175   -1.3198   -0.2030 H   0  0  0  0  0  0  0  0  0  0  0  0
   -1.3906    1.9548   -0.1825 H   0  0  0  0  0  0  0  0  0  0  0  0
    0.2062    3.6183    0.4039 H   0  0  0  0  0  0  0  0  0  0  0  0
    2.2988    4.3276    1.4245 H   0  0  0  0  0  0  0  0  0  0  0  0
    4.6184    4.3626    1.7417 H   0  0  0  0  0  0  0  0  0  0  0  0
    5.3879    4.0821    3.3075 H   0  0  0  0  0  0  0  0  0  0  0  0
    3.7182    4.6607    3.2808 H   0  0  0  0  0  0  0  0  0  0  0  0
    4.3026    0.2914    3.1649 H   0  0  0  0  0  0  0  0  0  0  0  0
    2.8158   -0.1654    3.9599 H   0  0  0  0  0  0  0  0  0  0  0  0
    3.4097   -3.5644    1.2281 H   0  0  0  0  0  0  0  0  0  0  0  0
    4.8482   -4.2247   -0.6532 H   0  0  0  0  0  0  0  0  0  0  0  0
    6.5817   -3.6383   -2.3448 H   0  0  0  0  0  0  0  0  0  0  0  0
    8.0966   -1.9749   -3.3513 H   0  0  0  0  0  0  0  0  0  0  0  0
    8.1666    0.3431   -2.4711 H   0  0  0  0  0  0  0  0  0  0  0  0
    6.7227    0.9978   -0.5851 H   0  0  0  0  0  0  0  0  0  0  0  0
    5.0164    0.4229    1.0754 H   0  0  0  0  0  0  0  0  0  0  0  0
    0.8942   -0.4229    1.7153 H   0  0  0  0  0  0  0  0  0  0  0  0
   -3.9612   -1.3800   -2.0835 H   0  0  0  0  0  0  0  0  0  0  0  0
  1  2  1  0
  2  3  1  0
  3  4  2  0
  4  5  1  0
  5  6  1  0
  6  7  1  0
  5  8  2  0
  8  9  1  0
  9 10  1  0
 10 11  2  0
 10 12  1  0
 12 13  1  0
 13 14  2  3
 14 15  1  0
 15 16  2  0
 16 17  1  0
 17 18  2  0
 18 19  1  0
 19 20  1  0
 18 21  1  0
 21 22  1  0
 22 23  1  0
 23 24  1  0
 24 25  2  0
 25 26  1  0
 26 27  2  0
 27 28  1  0
 28 29  2  0
 29 30  1  0
 30 31  2  0
 31 32  1  0
 32 33  2  0
 21 34  2  0
  9 35  2  0
 35  3  1  0
 34 15  1  0
 33 24  1  0
 32 27  1  0
  1 36  1  0
  1 37  1  0
  1 38  1  0
  4 39  1  0
  7 40  1  0
  7 41  1  0
  7 42  1  0
  8 43  1  0
 12 44  1  0
 14 45  1  0
 16 46  1  0
 17 47  1  0
 20 48  1  0
 20 49  1  0
 20 50  1  0
 22 51  1  0
 22 52  1  0
 25 53  1  0
 26 54  1  0
 28 55  1  0
 29 56  1  0
 30 57  1  0
 31 58  1  0
 33 59  1  0
 34 60  1  0
 35 61  1  0
M  END
$$$$
