
     RDKit          3D

 46 49  0  0  0  0  0  0  0  0999 V2000
    2.3088    1.3908   -3.2848 O   0  0  0  0  0  0  0  0  0  0  0  0
    2.0334    0.2725   -2.8551 C   0  0  0  0  0  0  0  0  0  0  0  0
    1.4854   -0.7981   -3.7904 C   0  0  0  0  0  0  0  0  0  0  0  0
   -0.3248   -0.9375   -3.6397 S   0  0  0  0  0  0  0  0  0  0  0  0
   -0.4426   -1.7308   -2.1101 C   0  0  0  0  0  0  0  0  0  0  0  0
    0.4931   -2.4918   -1.5933 N   0  0  0  0  0  0  0  0  0  0  0  0
    0.1039   -2.8280   -0.3290 N   0  0  0  0  0  0  0  0  0  0  0  0
   -1.0703   -2.2737   -0.0934 C   0  0  0  0  0  0  0  0  0  0  0  0
   -1.8431   -2.4007    1.1845 C   0  0  0  0  0  0  0  0  0  0  0  0
   -1.2697   -1.5630    2.2981 C   0  0  0  0  0  0  0  0  0  0  0  0
   -1.6363   -0.2901    2.6934 C   0  0  0  0  0  0  0  0  0  0  0  0
   -0.8550    0.1943    3.7844 C   0  0  0  0  0  0  0  0  0  0  0  0
    0.0623   -0.7416    4.2106 C   0  0  0  0  0  0  0  0  0  0  0  0
   -0.0244   -2.1866    3.3013 S   0  0  0  0  0  0  0  0  0  0  0  0
   -1.4739   -1.5910   -1.2243 N   0  0  0  0  0  0  0  0  0  0  0  0
   -2.7422   -0.9343   -1.4568 C   0  0  0  0  0  0  0  0  0  0  0  0
   -2.8122    0.4144   -0.8443 C   0  0  0  0  0  0  0  0  0  0  0  0
   -3.8402    1.1155   -0.2445 C   0  0  0  0  0  0  0  0  0  0  0  0
   -3.2999    2.3694    0.1333 C   0  0  0  0  0  0  0  0  0  0  0  0
   -1.9854    2.3611   -0.2687 C   0  0  0  0  0  0  0  0  0  0  0  0
   -1.6854    1.1804   -0.8694 O   0  0  0  0  0  0  0  0  0  0  0  0
    2.1818   -0.1572   -1.5474 N   0  0  0  0  0  0  0  0  0  0  0  0
    2.6272    0.5800   -0.4357 C   0  0  0  0  0  0  0  0  0  0  0  0
    2.5284   -0.0384    0.8172 C   0  0  0  0  0  0  0  0  0  0  0  0
    2.9501    0.6196    1.9758 C   0  0  0  0  0  0  0  0  0  0  0  0
    3.4872    1.8974    1.8802 C   0  0  0  0  0  0  0  0  0  0  0  0
    4.0682    2.7882    3.4430 Br  0  0  0  0  0  0  0  0  0  0  0  0
    3.5979    2.5240    0.6414 C   0  0  0  0  0  0  0  0  0  0  0  0
    3.1660    1.8643   -0.5154 C   0  0  0  0  0  0  0  0  0  0  0  0
    1.9801   -1.7588   -3.6086 H   0  0  0  0  0  0  0  0  0  0  0  0
    1.7231   -0.5057   -4.8172 H   0  0  0  0  0  0  0  0  0  0  0  0
   -2.8970   -2.1357    1.0409 H   0  0  0  0  0  0  0  0  0  0  0  0
   -1.8472   -3.4581    1.4787 H   0  0  0  0  0  0  0  0  0  0  0  0
   -2.4172    0.2822    2.2136 H   0  0  0  0  0  0  0  0  0  0  0  0
   -0.9632    1.1746    4.2337 H   0  0  0  0  0  0  0  0  0  0  0  0
    0.7759   -0.6500    5.0167 H   0  0  0  0  0  0  0  0  0  0  0  0
   -3.5239   -1.5869   -1.0502 H   0  0  0  0  0  0  0  0  0  0  0  0
   -2.9255   -0.8716   -2.5366 H   0  0  0  0  0  0  0  0  0  0  0  0
   -4.8497    0.7643   -0.1030 H   0  0  0  0  0  0  0  0  0  0  0  0
   -3.8075    3.1850    0.6331 H   0  0  0  0  0  0  0  0  0  0  0  0
   -1.1734    3.0742   -0.2100 H   0  0  0  0  0  0  0  0  0  0  0  0
    1.8440   -1.0962   -1.3374 H   0  0  0  0  0  0  0  0  0  0  0  0
    2.1116   -1.0361    0.9102 H   0  0  0  0  0  0  0  0  0  0  0  0
    2.8685    0.1167    2.9364 H   0  0  0  0  0  0  0  0  0  0  0  0
    4.0273    3.5208    0.5564 H   0  0  0  0  0  0  0  0  0  0  0  0
    3.2856    2.3725   -1.4662 H   0  0  0  0  0  0  0  0  0  0  0  0
  1  2  2  0
  2  3  1  0
  3  4  1  0
  4  5  1  0
  5  6  2  0
  6  7  1  0
  7  8  2  0
  8  9  1  0
  9 10  1  0
 10 11  2  0
 11 12  1  0
 12 13  2  0
 13 14  1  0
  8 15  1  0
 15 16  1  0
 16 17  1  0
 17 18  2  0
 18 19  1  0
 19 20  2  0
 20 21  1  0
  2 22  1  0
 22 23  1  0
 23 24  2  0
 24 25  1  0
 25 26  2  0
 26 27  1  0
 26 28  1  0
 28 29  2  0
 15  5  1  0
 21 17  1  0
 29 23  1  0
 14 10  1  0
  3 30  1  0
  3 31  1  0
  9 32  1  0
  9 33  1  0
 11 34  1  0
 12 35  1  0
 13 36  1  0
 16 37  1  0
 16 38  1  0
 18 39  1  0
 19 40  1  0
 20 41  1  0
 22 42  1  0
 24 43  1  0
 25 44  1  0
 28 45  1  0
 29 46  1  0
M  END
$$$$
