
     RDKit          3D

 26 27  0  0  0  0  0  0  0  0999 V2000
   -2.5726   -1.8839   -1.7362 C   0  0  0  0  0  0  0  0  0  0  0  0
   -2.2120   -1.8609   -0.3535 O   0  0  0  0  0  0  0  0  0  0  0  0
   -0.9789   -1.2919   -0.1800 C   0  0  0  0  0  0  0  0  0  0  0  0
    0.1405   -2.1041   -0.3759 C   0  0  0  0  0  0  0  0  0  0  0  0
    1.4119   -1.6071   -0.1096 C   0  0  0  0  0  0  0  0  0  0  0  0
    1.5642   -0.2978    0.3525 C   0  0  0  0  0  0  0  0  0  0  0  0
    2.8244    0.1079    0.7011 O   0  0  0  0  0  0  0  0  0  0  0  0
    3.5654    0.5155   -0.4509 C   0  0  0  0  0  0  0  0  0  0  0  0
    0.4422    0.5169    0.5776 C   0  0  0  0  0  0  0  0  0  0  0  0
   -0.8367    0.0170    0.3098 C   0  0  0  0  0  0  0  0  0  0  0  0
   -2.0133    0.8855    0.5444 C   0  0  0  0  0  0  0  0  0  0  0  0
   -3.0799    0.6895   -0.0240 O   0  0  0  0  0  0  0  0  0  0  0  0
   -1.8320    2.0240    1.4806 C   0  0  0  0  0  0  0  0  0  0  0  0
   -3.2771    2.7013    2.1476 Cl  0  0  0  0  0  0  0  0  0  0  0  0
   -0.6107    2.5015    1.7364 C   0  0  0  0  0  0  0  0  0  0  0  0
   -0.3164    3.8586    2.7676 Cl  0  0  0  0  0  0  0  0  0  0  0  0
    0.5826    1.9002    1.0879 C   0  0  0  0  0  0  0  0  0  0  0  0
    1.6256    2.5289    0.9613 O   0  0  0  0  0  0  0  0  0  0  0  0
   -2.4383   -0.9044   -2.2090 H   0  0  0  0  0  0  0  0  0  0  0  0
   -1.9947   -2.6442   -2.2720 H   0  0  0  0  0  0  0  0  0  0  0  0
   -3.6311   -2.1521   -1.8022 H   0  0  0  0  0  0  0  0  0  0  0  0
    0.0190   -3.1341   -0.7032 H   0  0  0  0  0  0  0  0  0  0  0  0
    2.2809   -2.2499   -0.2296 H   0  0  0  0  0  0  0  0  0  0  0  0
    3.0008    1.2218   -1.0700 H   0  0  0  0  0  0  0  0  0  0  0  0
    3.8617   -0.3548   -1.0457 H   0  0  0  0  0  0  0  0  0  0  0  0
    4.4744    1.0164   -0.1050 H   0  0  0  0  0  0  0  0  0  0  0  0
  1  2  1  0
  2  3  1  0
  3  4  2  0
  4  5  1  0
  5  6  2  0
  6  7  1  0
  7  8  1  0
  6  9  1  0
  9 10  2  0
 10 11  1  0
 11 12  2  0
 11 13  1  0
 13 14  1  0
 13 15  2  0
 15 16  1  0
 15 17  1  0
 17 18  2  0
 10  3  1  0
 17  9  1  0
  1 19  1  0
  1 20  1  0
  1 21  1  0
  4 22  1  0
  5 23  1  0
  8 24  1  0
  8 25  1  0
  8 26  1  0
M  END
$$$$
