
     RDKit          3D

 43 45  0  0  0  0  0  0  0  0999 V2000
   -1.6880   -2.7838    2.9783 C   0  0  0  0  0  0  0  0  0  0  0  0
   -1.3453   -1.8875    1.8275 C   0  0  0  0  0  0  0  0  0  0  0  0
   -0.0612   -1.8592    1.3306 C   0  0  0  0  0  0  0  0  0  0  0  0
    0.1795   -1.0057    0.2747 C   0  0  0  0  0  0  0  0  0  0  0  0
    1.4688   -0.8759   -0.2820 N   0  0  0  0  0  0  0  0  0  0  0  0
    2.2057   -2.0168   -0.4235 N   0  0  0  0  0  0  0  0  0  0  0  0
    3.4765   -1.8513   -0.6332 C   0  0  0  0  0  0  0  0  0  0  0  0
    4.1966   -0.5685   -0.6303 C   0  0  0  0  0  0  0  0  0  0  0  0
    4.7829   -0.1533   -1.8297 C   0  0  0  0  0  0  0  0  0  0  0  0
    5.4276    1.0853   -1.8913 C   0  0  0  0  0  0  0  0  0  0  0  0
    5.4952    1.9054   -0.7606 C   0  0  0  0  0  0  0  0  0  0  0  0
    4.9287    1.4873    0.4452 C   0  0  0  0  0  0  0  0  0  0  0  0
    4.2843    0.2451    0.5018 C   0  0  0  0  0  0  0  0  0  0  0  0
    3.7706   -0.2056    1.7832 N   0  0  0  0  0  4  0  0  0  0  0  0
    4.1232   -1.3281    2.1719 O   0  0  0  0  0  0  0  0  0  0  0  0
    3.0788    0.5932    2.4292 O   0  0  0  0  0  1  0  0  0  0  0  0
   -0.7733   -0.2172   -0.2429 N   0  0  0  0  0  0  0  0  0  0  0  0
   -2.0100   -0.3007    0.2938 C   0  0  0  0  0  0  0  0  0  0  0  0
   -3.0432    0.5415   -0.2672 N   0  0  0  0  0  0  0  0  0  0  0  0
   -2.7655    1.3915   -1.3062 N   0  0  0  0  0  0  0  0  0  0  0  0
   -3.9173    2.0058   -1.5801 C   0  0  0  0  0  0  0  0  0  0  0  0
   -3.9825    3.0117   -2.6669 C   0  0  0  0  0  0  0  0  0  0  0  0
   -4.9535    1.5759   -0.7331 C   0  0  0  0  0  0  0  0  0  0  0  0
   -4.3837    0.6408    0.1061 C   0  0  0  0  0  0  0  0  0  0  0  0
   -5.0138   -0.1357    1.2032 C   0  0  0  0  0  0  0  0  0  0  0  0
   -2.3303   -1.1201    1.3204 N   0  0  0  0  0  0  0  0  0  0  0  0
   -1.4699   -3.8260    2.7257 H   0  0  0  0  0  0  0  0  0  0  0  0
   -1.1104   -2.4986    3.8633 H   0  0  0  0  0  0  0  0  0  0  0  0
   -2.7517   -2.7092    3.2264 H   0  0  0  0  0  0  0  0  0  0  0  0
    0.7295   -2.4696    1.7465 H   0  0  0  0  0  0  0  0  0  0  0  0
    1.3371   -0.2981   -1.1171 H   0  0  0  0  0  0  0  0  0  0  0  0
    4.0872   -2.7474   -0.8393 H   0  0  0  0  0  0  0  0  0  0  0  0
    4.7191   -0.7711   -2.7229 H   0  0  0  0  0  0  0  0  0  0  0  0
    5.8690    1.4216   -2.8287 H   0  0  0  0  0  0  0  0  0  0  0  0
    5.9953    2.8704   -0.8198 H   0  0  0  0  0  0  0  0  0  0  0  0
    4.9972    2.1240    1.3251 H   0  0  0  0  0  0  0  0  0  0  0  0
   -3.4446    3.9200   -2.3775 H   0  0  0  0  0  0  0  0  0  0  0  0
   -5.0193    3.2861   -2.8887 H   0  0  0  0  0  0  0  0  0  0  0  0
   -3.5328    2.6203   -3.5856 H   0  0  0  0  0  0  0  0  0  0  0  0
   -5.9837    1.9042   -0.7295 H   0  0  0  0  0  0  0  0  0  0  0  0
   -4.9625   -1.2105    1.0054 H   0  0  0  0  0  0  0  0  0  0  0  0
   -6.0730    0.1265    1.3009 H   0  0  0  0  0  0  0  0  0  0  0  0
   -4.5374    0.0838    2.1640 H   0  0  0  0  0  0  0  0  0  0  0  0
  1  2  1  0
  2  3  2  0
  3  4  1  0
  4  5  1  0
  5  6  1  0
  6  7  2  3
  7  8  1  0
  8  9  2  0
  9 10  1  0
 10 11  2  0
 11 12  1  0
 12 13  2  0
 13 14  1  0
 14 15  2  0
 14 16  1  0
  4 17  2  0
 17 18  1  0
 18 19  1  0
 19 20  1  0
 20 21  2  0
 21 22  1  0
 21 23  1  0
 23 24  2  0
 24 25  1  0
 18 26  2  0
 26  2  1  0
 13  8  1  0
 24 19  1  0
  1 27  1  0
  1 28  1  0
  1 29  1  0
  3 30  1  0
  5 31  1  0
  7 32  1  0
  9 33  1  0
 10 34  1  0
 11 35  1  0
 12 36  1  0
 22 37  1  0
 22 38  1  0
 22 39  1  0
 23 40  1  0
 25 41  1  0
 25 42  1  0
 25 43  1  0
M  CHG  2  14   1  16  -1
M  END
$$$$
