
     RDKit          3D

 16 16  0  0  0  0  0  0  0  0999 V2000
    2.1651    0.0076    0.4261 C   0  0  0  0  0  0  0  0  0  0  0  0
    1.2315   -0.1770   -0.7595 C   0  0  0  0  0  0  0  0  0  0  0  0
   -0.1575   -0.0615   -0.3676 N   0  0  0  0  0  0  0  0  0  0  0  0
   -0.8467    1.1046   -0.3016 C   0  0  0  0  0  0  0  0  0  0  0  0
   -0.4776    2.2317   -0.5748 O   0  0  0  0  0  0  0  0  0  0  0  0
   -2.1889    0.7837    0.1963 C   0  0  0  0  0  0  0  0  0  0  0  0
   -2.2310   -0.5278    0.4336 C   0  0  0  0  0  0  0  0  0  0  0  0
   -0.9170   -1.0854    0.0948 C   0  0  0  0  0  0  0  0  0  0  0  0
   -0.6217   -2.2574    0.2377 O   0  0  0  0  0  0  0  0  0  0  0  0
    1.9746   -0.7458    1.1976 H   0  0  0  0  0  0  0  0  0  0  0  0
    3.2080   -0.0835    0.1077 H   0  0  0  0  0  0  0  0  0  0  0  0
    2.0305    0.9937    0.8828 H   0  0  0  0  0  0  0  0  0  0  0  0
    1.3913   -1.1664   -1.2014 H   0  0  0  0  0  0  0  0  0  0  0  0
    1.4475    0.5831   -1.5180 H   0  0  0  0  0  0  0  0  0  0  0  0
   -2.9617    1.5185    0.3347 H   0  0  0  0  0  0  0  0  0  0  0  0
   -3.0464   -1.1181    0.8118 H   0  0  0  0  0  0  0  0  0  0  0  0
  1  2  1  0
  2  3  1  0
  3  4  1  0
  4  5  2  0
  4  6  1  0
  6  7  2  0
  7  8  1  0
  8  9  2  0
  8  3  1  0
  1 10  1  0
  1 11  1  0
  1 12  1  0
  2 13  1  0
  2 14  1  0
  6 15  1  0
  7 16  1  0
M  END
$$$$
