
     RDKit          3D

 54 57  0  0  0  0  0  0  0  0999 V2000
   -4.6299    0.0452   -5.1078 C   0  0  0  0  0  0  0  0  0  0  0  0
   -3.6136   -0.8370   -4.6508 O   0  0  0  0  0  0  0  0  0  0  0  0
   -3.1159   -0.6036   -3.3977 C   0  0  0  0  0  0  0  0  0  0  0  0
   -3.6758    0.2407   -2.4418 C   0  0  0  0  0  0  0  0  0  0  0  0
   -3.0607    0.3982   -1.1945 C   0  0  0  0  0  0  0  0  0  0  0  0
   -1.8755   -0.2874   -0.8955 C   0  0  0  0  0  0  0  0  0  0  0  0
   -1.2457   -0.0976    0.3654 N   0  0  0  0  0  0  0  0  0  0  0  0
   -1.8556   -0.0616    1.6157 C   0  0  0  0  0  0  0  0  0  0  0  0
   -3.2948   -0.3902    1.8782 C   0  0  0  0  0  0  0  0  0  0  0  0
   -3.5973   -0.6819    3.3220 C   0  0  0  0  0  0  0  0  0  0  0  0
   -3.7698   -1.9084    3.9483 C   0  0  0  0  0  0  0  0  0  0  0  0
   -4.0323   -1.6655    5.3142 C   0  0  0  0  0  0  0  0  0  0  0  0
   -4.0119   -0.3009    5.4963 C   0  0  0  0  0  0  0  0  0  0  0  0
   -3.7339    0.2898    4.2931 N   0  0  0  0  0  0  0  0  0  0  0  0
   -3.5679    1.7233    4.1276 C   0  0  0  0  0  0  0  0  0  0  0  0
   -0.9447    0.2102    2.5308 N   0  0  0  0  0  0  0  0  0  0  0  0
    0.2710    0.3095    1.9283 N   0  0  0  0  0  0  0  0  0  0  0  0
    0.0953    0.1118    0.6444 C   0  0  0  0  0  0  0  0  0  0  0  0
    1.3613    0.2717   -0.5282 S   0  0  0  0  0  0  0  0  0  0  0  0
    2.6382    1.0889    0.4919 C   0  0  0  0  0  0  0  0  0  0  0  0
    3.8715    1.3354   -0.3634 C   0  0  0  0  0  0  0  0  0  0  0  0
    4.0456    2.4227   -0.9117 O   0  0  0  0  0  0  0  0  0  0  0  0
    4.7217    0.2394   -0.4343 N   0  0  0  0  0  0  0  0  0  0  0  0
    5.9685    0.1572   -1.0943 C   0  0  0  0  0  0  0  0  0  0  0  0
    6.6143    1.2389   -1.6973 C   0  0  0  0  0  0  0  0  0  0  0  0
    7.8581    1.0621   -2.3200 C   0  0  0  0  0  0  0  0  0  0  0  0
    8.4634   -0.1952   -2.3512 C   0  0  0  0  0  0  0  0  0  0  0  0
    7.8277   -1.2826   -1.7557 C   0  0  0  0  0  0  0  0  0  0  0  0
    6.5936   -1.0967   -1.1356 C   0  0  0  0  0  0  0  0  0  0  0  0
    5.9963   -2.1538   -0.5609 F   0  0  0  0  0  0  0  0  0  0  0  0
   -1.3182   -1.1428   -1.8486 C   0  0  0  0  0  0  0  0  0  0  0  0
   -1.9446   -1.3017   -3.0886 C   0  0  0  0  0  0  0  0  0  0  0  0
   -4.3145    1.0949   -5.0438 H   0  0  0  0  0  0  0  0  0  0  0  0
   -5.5664   -0.1158   -4.5589 H   0  0  0  0  0  0  0  0  0  0  0  0
   -4.8149   -0.1868   -6.1604 H   0  0  0  0  0  0  0  0  0  0  0  0
   -4.5862    0.7994   -2.6403 H   0  0  0  0  0  0  0  0  0  0  0  0
   -3.4987    1.1097   -0.5025 H   0  0  0  0  0  0  0  0  0  0  0  0
   -3.9408    0.4387    1.5483 H   0  0  0  0  0  0  0  0  0  0  0  0
   -3.5809   -1.2727    1.2818 H   0  0  0  0  0  0  0  0  0  0  0  0
   -3.6912   -2.8801    3.4813 H   0  0  0  0  0  0  0  0  0  0  0  0
   -4.2018   -2.4061    6.0874 H   0  0  0  0  0  0  0  0  0  0  0  0
   -4.1451    0.2870    6.3965 H   0  0  0  0  0  0  0  0  0  0  0  0
   -3.9359    2.0301    3.1532 H   0  0  0  0  0  0  0  0  0  0  0  0
   -4.1514    2.2342    4.8978 H   0  0  0  0  0  0  0  0  0  0  0  0
   -2.5119    1.9518    4.2422 H   0  0  0  0  0  0  0  0  0  0  0  0
    2.2690    2.0610    0.8397 H   0  0  0  0  0  0  0  0  0  0  0  0
    2.9070    0.4761    1.3733 H   0  0  0  0  0  0  0  0  0  0  0  0
    4.3964   -0.6362   -0.0351 H   0  0  0  0  0  0  0  0  0  0  0  0
    6.1860    2.2356   -1.6880 H   0  0  0  0  0  0  0  0  0  0  0  0
    8.3558    1.9200   -2.7726 H   0  0  0  0  0  0  0  0  0  0  0  0
    9.4324   -0.3210   -2.8346 H   0  0  0  0  0  0  0  0  0  0  0  0
    8.2831   -2.2661   -1.7696 H   0  0  0  0  0  0  0  0  0  0  0  0
   -0.4201   -1.7225   -1.6481 H   0  0  0  0  0  0  0  0  0  0  0  0
   -1.5087   -1.9690   -3.8261 H   0  0  0  0  0  0  0  0  0  0  0  0
  1  2  1  0
  2  3  1  0
  3  4  2  0
  4  5  1  0
  5  6  2  0
  6  7  1  0
  7  8  1  0
  8  9  1  0
  9 10  1  0
 10 11  2  0
 11 12  1  0
 12 13  2  0
 13 14  1  0
 14 15  1  0
  8 16  2  0
 16 17  1  0
 17 18  2  0
 18 19  1  0
 19 20  1  0
 20 21  1  0
 21 22  2  0
 21 23  1  0
 23 24  1  0
 24 25  2  0
 25 26  1  0
 26 27  2  0
 27 28  1  0
 28 29  2  0
 29 30  1  0
  6 31  1  0
 31 32  2  0
 32  3  1  0
 18  7  1  0
 29 24  1  0
 14 10  1  0
  1 33  1  0
  1 34  1  0
  1 35  1  0
  4 36  1  0
  5 37  1  0
  9 38  1  0
  9 39  1  0
 11 40  1  0
 12 41  1  0
 13 42  1  0
 15 43  1  0
 15 44  1  0
 15 45  1  0
 20 46  1  0
 20 47  1  0
 23 48  1  0
 25 49  1  0
 26 50  1  0
 27 51  1  0
 28 52  1  0
 31 53  1  0
 32 54  1  0
M  END
$$$$
