
     RDKit          3D

 32 32  0  0  0  0  0  0  0  0999 V2000
   -0.4981    3.7284   -3.5279 C   0  0  0  0  0  0  0  0  0  0  0  0
   -1.1416    3.1613   -2.6868 C   0  0  0  0  0  0  0  0  0  0  0  0
   -1.9303    2.4739   -1.6501 C   0  0  0  0  0  0  0  0  0  0  0  0
   -2.0476    1.0181   -1.8343 N   0  0  0  0  0  0  0  0  0  0  0  0
   -2.8442    0.6926   -3.0189 C   0  0  0  0  0  0  0  0  0  0  0  0
   -0.7659    0.2980   -1.8547 C   0  0  0  0  0  0  0  0  0  0  0  0
    0.0316    0.4334   -0.5543 C   0  0  0  0  0  0  0  0  0  0  0  0
    1.2660   -0.4664   -0.5748 C   0  0  0  0  0  0  0  0  0  0  0  0
    2.0311   -0.2949    0.6182 O   0  0  0  0  0  0  0  0  0  0  0  0
    1.8045   -1.1162    1.6905 C   0  0  0  0  0  0  0  0  0  0  0  0
    0.7107   -1.9788    1.8169 C   0  0  0  0  0  0  0  0  0  0  0  0
    0.5682   -2.7691    2.9610 C   0  0  0  0  0  0  0  0  0  0  0  0
   -0.7823   -3.8278    3.1003 Cl  0  0  0  0  0  0  0  0  0  0  0  0
    1.5026   -2.7098    3.9917 C   0  0  0  0  0  0  0  0  0  0  0  0
    2.5917   -1.8474    3.8811 C   0  0  0  0  0  0  0  0  0  0  0  0
    2.7402   -1.0539    2.7390 C   0  0  0  0  0  0  0  0  0  0  0  0
    4.1130   -0.0041    2.6611 Cl  0  0  0  0  0  0  0  0  0  0  0  0
    0.0733    4.2320   -4.2732 H   0  0  0  0  0  0  0  0  0  0  0  0
   -2.9367    2.9111   -1.6153 H   0  0  0  0  0  0  0  0  0  0  0  0
   -1.5052    2.6884   -0.6630 H   0  0  0  0  0  0  0  0  0  0  0  0
   -3.0466   -0.3838   -3.0582 H   0  0  0  0  0  0  0  0  0  0  0  0
   -2.3476    0.9778   -3.9528 H   0  0  0  0  0  0  0  0  0  0  0  0
   -3.8210    1.1878   -2.9796 H   0  0  0  0  0  0  0  0  0  0  0  0
   -0.1468    0.6085   -2.7059 H   0  0  0  0  0  0  0  0  0  0  0  0
   -0.9759   -0.7703   -1.9991 H   0  0  0  0  0  0  0  0  0  0  0  0
   -0.6014    0.1852    0.3055 H   0  0  0  0  0  0  0  0  0  0  0  0
    0.3611    1.4674   -0.3981 H   0  0  0  0  0  0  0  0  0  0  0  0
    1.0254   -1.5184   -0.7670 H   0  0  0  0  0  0  0  0  0  0  0  0
    1.9157   -0.1544   -1.4013 H   0  0  0  0  0  0  0  0  0  0  0  0
   -0.0525   -2.0479    1.0496 H   0  0  0  0  0  0  0  0  0  0  0  0
    1.3873   -3.3255    4.8799 H   0  0  0  0  0  0  0  0  0  0  0  0
    3.3214   -1.7952    4.6854 H   0  0  0  0  0  0  0  0  0  0  0  0
  1  2  3  0
  2  3  1  0
  3  4  1  0
  4  5  1  0
  4  6  1  0
  6  7  1  0
  7  8  1  0
  8  9  1  0
  9 10  1  0
 10 11  2  0
 11 12  1  0
 12 13  1  0
 12 14  2  0
 14 15  1  0
 15 16  2  0
 16 17  1  0
 16 10  1  0
  1 18  1  0
  3 19  1  0
  3 20  1  0
  5 21  1  0
  5 22  1  0
  5 23  1  0
  6 24  1  0
  6 25  1  0
  7 26  1  0
  7 27  1  0
  8 28  1  0
  8 29  1  0
 11 30  1  0
 14 31  1  0
 15 32  1  0
M  END
$$$$
