
     RDKit          3D

 31 32  0  0  0  0  0  0  0  0999 V2000
    2.1548    1.9567   -0.6469 C   0  0  0  0  0  0  0  0  0  0  0  0
    2.0821    0.5896   -1.3119 C   0  0  0  0  0  0  0  0  0  0  0  0
    2.5014   -0.4823   -0.4138 N   0  0  0  0  0  0  0  0  0  0  0  0
    1.7395   -1.3925    0.2605 C   0  0  0  0  0  0  0  0  0  0  0  0
    0.2881   -1.4105    0.2969 C   0  0  0  0  0  0  0  0  0  0  0  0
   -0.4206   -2.5965    0.3937 C   0  0  0  0  0  0  0  0  0  0  0  0
   -2.1119   -2.3778    0.4122 S   0  0  0  0  0  0  0  0  0  0  0  0
   -1.9545   -0.6764    0.3406 C   0  0  0  0  0  0  0  0  0  0  0  0
   -3.1871    0.1980    0.3466 C   0  0  0  0  0  0  0  0  0  0  0  0
   -3.2647    1.0417   -0.9274 C   0  0  0  0  0  0  0  0  0  0  0  0
   -3.2181    1.0903    1.5889 C   0  0  0  0  0  0  0  0  0  0  0  0
   -0.6236   -0.3021    0.2944 C   0  0  0  0  0  0  0  0  0  0  0  0
    2.4215   -2.3105    0.8893 N   0  0  0  0  0  0  0  0  0  0  0  0
    3.7222   -1.9946    0.6387 N   0  0  0  0  0  0  0  0  0  0  0  0
    3.7986   -0.8805   -0.1804 C   0  0  0  0  0  0  0  0  0  0  0  0
    5.2314   -0.2510   -0.7267 S   0  0  0  0  0  0  0  0  0  0  0  0
    3.1848    2.2203   -0.3884 H   0  0  0  0  0  0  0  0  0  0  0  0
    1.7708    2.7268   -1.3229 H   0  0  0  0  0  0  0  0  0  0  0  0
    1.5712    1.9871    0.2776 H   0  0  0  0  0  0  0  0  0  0  0  0
    2.7324    0.5839   -2.1934 H   0  0  0  0  0  0  0  0  0  0  0  0
    1.0676    0.3957   -1.6691 H   0  0  0  0  0  0  0  0  0  0  0  0
   -0.0139   -3.5986    0.4437 H   0  0  0  0  0  0  0  0  0  0  0  0
   -4.0847   -0.4341    0.3748 H   0  0  0  0  0  0  0  0  0  0  0  0
   -2.4216    1.7373   -1.0060 H   0  0  0  0  0  0  0  0  0  0  0  0
   -4.1877    1.6313   -0.9448 H   0  0  0  0  0  0  0  0  0  0  0  0
   -3.2558    0.4057   -1.8196 H   0  0  0  0  0  0  0  0  0  0  0  0
   -4.1397    1.6816    1.6171 H   0  0  0  0  0  0  0  0  0  0  0  0
   -2.3724    1.7868    1.6098 H   0  0  0  0  0  0  0  0  0  0  0  0
   -3.1770    0.4892    2.5042 H   0  0  0  0  0  0  0  0  0  0  0  0
   -0.3271    0.7375    0.2767 H   0  0  0  0  0  0  0  0  0  0  0  0
    4.4937   -2.5522    0.9854 H   0  0  0  0  0  0  0  0  0  0  0  0
  1  2  1  0
  2  3  1  0
  3  4  1  0
  4  5  1  0
  5  6  2  0
  6  7  1  0
  7  8  1  0
  8  9  1  0
  9 10  1  0
  9 11  1  0
  8 12  2  0
  4 13  2  0
 13 14  1  0
 14 15  1  0
 15 16  2  0
 15  3  1  0
 12  5  1  0
  1 17  1  0
  1 18  1  0
  1 19  1  0
  2 20  1  0
  2 21  1  0
  6 22  1  0
  9 23  1  0
 10 24  1  0
 10 25  1  0
 10 26  1  0
 11 27  1  0
 11 28  1  0
 11 29  1  0
 12 30  1  0
 14 31  1  0
M  END
$$$$
