
     RDKit          3D

 40 42  0  0  0  0  0  0  0  0999 V2000
    4.6171   -1.0477    0.2955 N   0  0  0  0  0  0  0  0  0  0  0  0
    3.5129   -0.5384    1.0994 C   0  0  0  0  0  0  0  0  0  0  0  0
    2.1424   -0.7707    0.4564 C   0  0  0  0  0  0  0  0  0  0  0  0
    1.9426    0.0143   -0.8434 C   0  0  0  0  0  0  0  0  0  0  0  0
    0.5552   -0.1602   -1.4881 C   0  0  0  0  0  0  0  0  0  0  0  0
   -0.5383    0.4552   -0.6951 N   0  0  0  0  0  0  0  0  0  0  0  0
   -0.7282    1.8671   -0.8594 C   0  0  0  0  0  0  0  0  0  0  0  0
    0.1138    2.6615   -1.6762 C   0  0  0  0  0  0  0  0  0  0  0  0
   -0.0615    4.0423   -1.8408 C   0  0  0  0  0  0  0  0  0  0  0  0
   -1.0948    4.6900   -1.1905 C   0  0  0  0  0  0  0  0  0  0  0  0
   -1.9452    3.9499   -0.3804 C   0  0  0  0  0  0  0  0  0  0  0  0
   -1.7719    2.5590   -0.2119 C   0  0  0  0  0  0  0  0  0  0  0  0
   -2.9621    1.7908    0.8529 S   0  0  0  0  0  0  0  0  0  0  0  0
   -2.4558    0.0919    0.8369 C   0  0  0  0  0  0  0  0  0  0  0  0
   -3.2529   -0.7609    1.6297 C   0  0  0  0  0  0  0  0  0  0  0  0
   -2.9815   -2.1195    1.7288 C   0  0  0  0  0  0  0  0  0  0  0  0
   -1.9035   -2.6502    1.0309 C   0  0  0  0  0  0  0  0  0  0  0  0
   -1.5541   -4.1144    1.1346 C   0  0  0  0  0  0  0  0  0  0  0  0
   -1.1652   -4.6480   -0.0574 F   0  0  0  0  0  0  0  0  0  0  0  0
   -2.5850   -4.8898    1.5705 F   0  0  0  0  0  0  0  0  0  0  0  0
   -0.5240   -4.3387    1.9958 F   0  0  0  0  0  0  0  0  0  0  0  0
   -1.1082   -1.7878    0.2451 C   0  0  0  0  0  0  0  0  0  0  0  0
   -1.3526   -0.3997    0.1097 C   0  0  0  0  0  0  0  0  0  0  0  0
    4.6724   -0.5475   -0.5891 H   0  0  0  0  0  0  0  0  0  0  0  0
    4.4585   -2.0280    0.0681 H   0  0  0  0  0  0  0  0  0  0  0  0
    3.6666    0.5298    1.2877 H   0  0  0  0  0  0  0  0  0  0  0  0
    3.5378   -1.0397    2.0732 H   0  0  0  0  0  0  0  0  0  0  0  0
    2.0050   -1.8421    0.2686 H   0  0  0  0  0  0  0  0  0  0  0  0
    1.3832   -0.4693    1.1865 H   0  0  0  0  0  0  0  0  0  0  0  0
    2.1474    1.0718   -0.6457 H   0  0  0  0  0  0  0  0  0  0  0  0
    2.6858   -0.3135   -1.5800 H   0  0  0  0  0  0  0  0  0  0  0  0
    0.5690    0.2639   -2.5004 H   0  0  0  0  0  0  0  0  0  0  0  0
    0.3853   -1.2157   -1.7175 H   0  0  0  0  0  0  0  0  0  0  0  0
    0.9528    2.2413   -2.2198 H   0  0  0  0  0  0  0  0  0  0  0  0
    0.6170    4.6026   -2.4792 H   0  0  0  0  0  0  0  0  0  0  0  0
   -1.2410    5.7596   -1.3097 H   0  0  0  0  0  0  0  0  0  0  0  0
   -2.7577    4.4663    0.1280 H   0  0  0  0  0  0  0  0  0  0  0  0
   -4.1004   -0.3588    2.1836 H   0  0  0  0  0  0  0  0  0  0  0  0
   -3.6116   -2.7511    2.3521 H   0  0  0  0  0  0  0  0  0  0  0  0
   -0.2690   -2.2658   -0.2492 H   0  0  0  0  0  0  0  0  0  0  0  0
  1  2  1  0
  2  3  1  0
  3  4  1  0
  4  5  1  0
  5  6  1  0
  6  7  1  0
  7  8  2  0
  8  9  1  0
  9 10  2  0
 10 11  1  0
 11 12  2  0
 12 13  1  0
 13 14  1  0
 14 15  2  0
 15 16  1  0
 16 17  2  0
 17 18  1  0
 18 19  1  0
 18 20  1  0
 18 21  1  0
 17 22  1  0
 22 23  2  0
 23  6  1  0
 12  7  1  0
 23 14  1  0
  1 24  1  0
  1 25  1  0
  2 26  1  0
  2 27  1  0
  3 28  1  0
  3 29  1  0
  4 30  1  0
  4 31  1  0
  5 32  1  0
  5 33  1  0
  8 34  1  0
  9 35  1  0
 10 36  1  0
 11 37  1  0
 15 38  1  0
 16 39  1  0
 22 40  1  0
M  END
$$$$
