
     RDKit          3D

 31 32  0  0  0  0  0  0  0  0999 V2000
    2.5079   -1.0581    1.8197 C   0  0  0  0  0  0  0  0  0  0  0  0
    2.1977   -1.6348    0.4462 C   0  0  0  0  0  0  0  0  0  0  0  0
    2.5661   -0.7116   -0.6240 N   0  0  0  0  0  0  0  0  0  0  0  0
    1.9057    0.4047   -1.0472 C   0  0  0  0  0  0  0  0  0  0  0  0
    0.5722    0.7765   -0.6246 C   0  0  0  0  0  0  0  0  0  0  0  0
    0.2399    2.0802   -0.3050 C   0  0  0  0  0  0  0  0  0  0  0  0
   -1.3871    2.2582    0.1751 S   0  0  0  0  0  0  0  0  0  0  0  0
   -1.7172    0.5988   -0.0917 C   0  0  0  0  0  0  0  0  0  0  0  0
   -3.0949    0.0122    0.1273 C   0  0  0  0  0  0  0  0  0  0  0  0
   -4.1373    0.6256   -0.8087 C   0  0  0  0  0  0  0  0  0  0  0  0
   -3.5359    0.1123    1.5882 C   0  0  0  0  0  0  0  0  0  0  0  0
   -0.5849   -0.0660   -0.5266 C   0  0  0  0  0  0  0  0  0  0  0  0
    2.5769    1.1599   -1.8712 N   0  0  0  0  0  0  0  0  0  0  0  0
    3.7636    0.5073   -2.0269 N   0  0  0  0  0  0  0  0  0  0  0  0
    3.7928   -0.6350   -1.2426 C   0  0  0  0  0  0  0  0  0  0  0  0
    5.1118   -1.6325   -1.1335 S   0  0  0  0  0  0  0  0  0  0  0  0
    1.9521   -0.1315    1.9955 H   0  0  0  0  0  0  0  0  0  0  0  0
    3.5739   -0.8309    1.9220 H   0  0  0  0  0  0  0  0  0  0  0  0
    2.2340   -1.7728    2.6018 H   0  0  0  0  0  0  0  0  0  0  0  0
    2.7402   -2.5765    0.3165 H   0  0  0  0  0  0  0  0  0  0  0  0
    1.1343   -1.8683    0.3823 H   0  0  0  0  0  0  0  0  0  0  0  0
    0.8918    2.9442   -0.3185 H   0  0  0  0  0  0  0  0  0  0  0  0
   -3.0378   -1.0580   -0.1161 H   0  0  0  0  0  0  0  0  0  0  0  0
   -5.0966    0.1062   -0.7084 H   0  0  0  0  0  0  0  0  0  0  0  0
   -4.3104    1.6851   -0.5909 H   0  0  0  0  0  0  0  0  0  0  0  0
   -3.8211    0.5462   -1.8548 H   0  0  0  0  0  0  0  0  0  0  0  0
   -4.4825   -0.4175    1.7410 H   0  0  0  0  0  0  0  0  0  0  0  0
   -2.7903   -0.3348    2.2551 H   0  0  0  0  0  0  0  0  0  0  0  0
   -3.6841    1.1516    1.9011 H   0  0  0  0  0  0  0  0  0  0  0  0
   -0.5968   -1.1179   -0.7853 H   0  0  0  0  0  0  0  0  0  0  0  0
    4.5160    0.8771   -2.5956 H   0  0  0  0  0  0  0  0  0  0  0  0
  1  2  1  0
  2  3  1  0
  3  4  1  0
  4  5  1  0
  5  6  2  0
  6  7  1  0
  7  8  1  0
  8  9  1  0
  9 10  1  0
  9 11  1  0
  8 12  2  0
  4 13  2  0
 13 14  1  0
 14 15  1  0
 15 16  2  0
 15  3  1  0
 12  5  1  0
  1 17  1  0
  1 18  1  0
  1 19  1  0
  2 20  1  0
  2 21  1  0
  6 22  1  0
  9 23  1  0
 10 24  1  0
 10 25  1  0
 10 26  1  0
 11 27  1  0
 11 28  1  0
 11 29  1  0
 12 30  1  0
 14 31  1  0
M  END
$$$$
