
     RDKit          3D

 54 56  0  0  0  0  0  0  0  0999 V2000
    9.9628   -0.3039   -0.5312 C   0  0  0  0  0  0  0  0  0  0  0  0
    8.9178   -0.9085    0.2203 O   0  0  0  0  0  0  0  0  0  0  0  0
    7.6677   -0.3717    0.0798 C   0  0  0  0  0  0  0  0  0  0  0  0
    7.3101    0.6656   -0.7818 C   0  0  0  0  0  0  0  0  0  0  0  0
    5.9877    1.1225   -0.8246 C   0  0  0  0  0  0  0  0  0  0  0  0
    5.0074    0.5501   -0.0053 C   0  0  0  0  0  0  0  0  0  0  0  0
    3.5803    1.0342   -0.0614 C   0  0  0  0  0  0  0  0  0  0  0  0
    2.7370    0.1844   -1.0195 C   0  0  0  0  0  0  0  0  0  0  0  0
    1.3064    0.7016   -1.1677 C   0  0  0  0  0  0  0  0  0  0  0  0
    0.5296    0.6009    0.0884 C   0  0  0  0  0  0  0  0  0  0  0  0
    0.1355    1.5527    0.9057 N   0  0  0  0  0  0  0  0  0  0  0  0
   -0.5477    0.9231    1.9245 N   0  0  0  0  0  0  0  0  0  0  0  0
   -0.5204   -0.3668    1.6605 C   0  0  0  0  0  0  0  0  0  0  0  0
   -1.2509   -1.6013    2.6392 S   0  0  0  0  0  0  0  0  0  0  0  0
   -2.5537   -0.6374    3.4636 C   0  0  0  0  0  0  0  0  0  0  0  0
   -3.6358   -0.1236    2.5176 C   0  0  0  0  0  0  0  0  0  0  0  0
   -4.2630    0.8943    2.8027 O   0  0  0  0  0  0  0  0  0  0  0  0
   -3.8736   -0.9331    1.4232 N   0  0  0  0  0  0  0  0  0  0  0  0
   -4.7975   -0.7518    0.3687 C   0  0  0  0  0  0  0  0  0  0  0  0
   -5.6955    0.3170    0.3100 C   0  0  0  0  0  0  0  0  0  0  0  0
   -6.6007    0.4586   -0.7610 C   0  0  0  0  0  0  0  0  0  0  0  0
   -7.5480    1.6289   -0.7649 C   0  0  0  0  0  0  0  0  0  0  0  0
   -6.6152   -0.4993   -1.7925 C   0  0  0  0  0  0  0  0  0  0  0  0
   -7.5654   -0.3909   -2.9542 C   0  0  0  0  0  0  0  0  0  0  0  0
   -5.7091   -1.5673   -1.7421 C   0  0  0  0  0  0  0  0  0  0  0  0
   -4.8140   -1.6911   -0.6755 C   0  0  0  0  0  0  0  0  0  0  0  0
   -3.6153   -3.1711   -0.6964 Br  0  0  0  0  0  0  0  0  0  0  0  0
    0.1519   -0.6473    0.5007 O   0  0  0  0  0  0  0  0  0  0  0  0
    5.3690   -0.4973    0.8503 C   0  0  0  0  0  0  0  0  0  0  0  0
    6.6893   -0.9512    0.8902 C   0  0  0  0  0  0  0  0  0  0  0  0
   10.8943   -0.8249   -0.2867 H   0  0  0  0  0  0  0  0  0  0  0  0
   10.0885    0.7497   -0.2576 H   0  0  0  0  0  0  0  0  0  0  0  0
    9.7909   -0.4163   -1.6078 H   0  0  0  0  0  0  0  0  0  0  0  0
    8.0340    1.1418   -1.4342 H   0  0  0  0  0  0  0  0  0  0  0  0
    5.7304    1.9326   -1.5038 H   0  0  0  0  0  0  0  0  0  0  0  0
    3.5629    2.0863   -0.3745 H   0  0  0  0  0  0  0  0  0  0  0  0
    3.1602    1.0124    0.9520 H   0  0  0  0  0  0  0  0  0  0  0  0
    2.7245   -0.8598   -0.6813 H   0  0  0  0  0  0  0  0  0  0  0  0
    3.2061    0.1828   -2.0124 H   0  0  0  0  0  0  0  0  0  0  0  0
    0.7955    0.1242   -1.9469 H   0  0  0  0  0  0  0  0  0  0  0  0
    1.3208    1.7440   -1.5063 H   0  0  0  0  0  0  0  0  0  0  0  0
   -2.1053    0.2104    3.9918 H   0  0  0  0  0  0  0  0  0  0  0  0
   -3.0401   -1.2803    4.2044 H   0  0  0  0  0  0  0  0  0  0  0  0
   -3.2802   -1.7534    1.3326 H   0  0  0  0  0  0  0  0  0  0  0  0
   -5.7119    1.0691    1.0932 H   0  0  0  0  0  0  0  0  0  0  0  0
   -7.4594    2.1907   -1.7010 H   0  0  0  0  0  0  0  0  0  0  0  0
   -8.5793    1.2804   -0.6443 H   0  0  0  0  0  0  0  0  0  0  0  0
   -7.3330    2.3265    0.0526 H   0  0  0  0  0  0  0  0  0  0  0  0
   -8.5985   -0.3191   -2.5992 H   0  0  0  0  0  0  0  0  0  0  0  0
   -7.5070   -1.2709   -3.6044 H   0  0  0  0  0  0  0  0  0  0  0  0
   -7.3241    0.4888   -3.5596 H   0  0  0  0  0  0  0  0  0  0  0  0
   -5.7027   -2.3072   -2.5401 H   0  0  0  0  0  0  0  0  0  0  0  0
    4.6276   -0.9659    1.4940 H   0  0  0  0  0  0  0  0  0  0  0  0
    6.9591   -1.7623    1.5620 H   0  0  0  0  0  0  0  0  0  0  0  0
  1  2  1  0
  2  3  1  0
  3  4  2  0
  4  5  1  0
  5  6  2  0
  6  7  1  0
  7  8  1  0
  8  9  1  0
  9 10  1  0
 10 11  2  0
 11 12  1  0
 12 13  2  0
 13 14  1  0
 14 15  1  0
 15 16  1  0
 16 17  2  0
 16 18  1  0
 18 19  1  0
 19 20  2  0
 20 21  1  0
 21 22  1  0
 21 23  2  0
 23 24  1  0
 23 25  1  0
 25 26  2  0
 26 27  1  0
 13 28  1  0
  6 29  1  0
 29 30  2  0
 30  3  1  0
 28 10  1  0
 26 19  1  0
  1 31  1  0
  1 32  1  0
  1 33  1  0
  4 34  1  0
  5 35  1  0
  7 36  1  0
  7 37  1  0
  8 38  1  0
  8 39  1  0
  9 40  1  0
  9 41  1  0
 15 42  1  0
 15 43  1  0
 18 44  1  0
 20 45  1  0
 22 46  1  0
 22 47  1  0
 22 48  1  0
 24 49  1  0
 24 50  1  0
 24 51  1  0
 25 52  1  0
 29 53  1  0
 30 54  1  0
M  END
$$$$
