
     RDKit          3D

 30 32  0  0  0  0  0  0  0  0999 V2000
   -1.5738    1.8663    2.0374 O   0  0  0  0  0  0  0  0  0  0  0  0
   -2.5468    1.5956    1.3540 C   0  0  0  0  0  0  0  0  0  0  0  0
   -3.8550    2.1822    1.6644 C   0  0  0  0  0  0  0  0  0  0  0  0
   -4.7353    1.6961    0.7969 C   0  0  0  0  0  0  0  0  0  0  0  0
   -4.0214    0.7869   -0.1061 C   0  0  0  0  0  0  0  0  0  0  0  0
   -4.6186    0.2174   -1.0042 O   0  0  0  0  0  0  0  0  0  0  0  0
   -2.7036    0.7698    0.2711 N   0  0  0  0  0  0  0  0  0  0  0  0
   -1.6675    0.0071   -0.3538 C   0  0  0  0  0  0  0  0  0  0  0  0
   -1.9492   -0.9200   -1.3685 C   0  0  0  0  0  0  0  0  0  0  0  0
   -0.9373   -1.6690   -1.9765 C   0  0  0  0  0  0  0  0  0  0  0  0
    0.3872   -1.5060   -1.5841 C   0  0  0  0  0  0  0  0  0  0  0  0
    0.7235   -0.5909   -0.5805 C   0  0  0  0  0  0  0  0  0  0  0  0
    2.1253   -0.4074   -0.1612 C   0  0  0  0  0  0  0  0  0  0  0  0
    2.4903   -0.4647    1.1947 C   0  0  0  0  0  0  0  0  0  0  0  0
    3.8188   -0.2920    1.5931 C   0  0  0  0  0  0  0  0  0  0  0  0
    4.8075   -0.0577    0.6413 C   0  0  0  0  0  0  0  0  0  0  0  0
    4.4687    0.0048   -0.7077 C   0  0  0  0  0  0  0  0  0  0  0  0
    3.1396   -0.1687   -1.1043 C   0  0  0  0  0  0  0  0  0  0  0  0
   -0.3171    0.1522    0.0179 C   0  0  0  0  0  0  0  0  0  0  0  0
   -4.0170    2.8753    2.4709 H   0  0  0  0  0  0  0  0  0  0  0  0
   -5.7890    1.8993    0.7220 H   0  0  0  0  0  0  0  0  0  0  0  0
   -2.9614   -1.1049   -1.7156 H   0  0  0  0  0  0  0  0  0  0  0  0
   -1.1890   -2.3851   -2.7552 H   0  0  0  0  0  0  0  0  0  0  0  0
    1.1578   -2.1086   -2.0606 H   0  0  0  0  0  0  0  0  0  0  0  0
    1.7363   -0.6540    1.9566 H   0  0  0  0  0  0  0  0  0  0  0  0
    4.0783   -0.3412    2.6474 H   0  0  0  0  0  0  0  0  0  0  0  0
    5.8402    0.0782    0.9509 H   0  0  0  0  0  0  0  0  0  0  0  0
    5.2367    0.1924   -1.4533 H   0  0  0  0  0  0  0  0  0  0  0  0
    2.8969   -0.1022   -2.1629 H   0  0  0  0  0  0  0  0  0  0  0  0
   -0.0253    0.8745    0.7759 H   0  0  0  0  0  0  0  0  0  0  0  0
  1  2  2  0
  2  3  1  0
  3  4  2  0
  4  5  1  0
  5  6  2  0
  5  7  1  0
  7  8  1  0
  8  9  2  0
  9 10  1  0
 10 11  2  0
 11 12  1  0
 12 13  1  0
 13 14  2  0
 14 15  1  0
 15 16  2  0
 16 17  1  0
 17 18  2  0
 12 19  2  0
  7  2  1  0
 19  8  1  0
 18 13  1  0
  3 20  1  0
  4 21  1  0
  9 22  1  0
 10 23  1  0
 11 24  1  0
 14 25  1  0
 15 26  1  0
 16 27  1  0
 17 28  1  0
 18 29  1  0
 19 30  1  0
M  END
$$$$
