
     RDKit          3D

 49 53  0  0  0  0  0  0  0  0999 V2000
   -1.1003    0.7885    3.4642 O   0  0  0  0  0  0  0  0  0  0  0  0
   -0.9121    0.5674    2.2654 C   0  0  0  0  0  0  0  0  0  0  0  0
   -2.0378    0.3555    1.3690 C   0  0  0  0  0  0  0  0  0  0  0  0
   -3.3770    0.6557    1.5510 C   0  0  0  0  0  0  0  0  0  0  0  0
   -4.0777    0.2040    0.3982 C   0  0  0  0  0  0  0  0  0  0  0  0
   -3.1087   -0.3700   -0.4140 C   0  0  0  0  0  0  0  0  0  0  0  0
   -3.3628   -0.9492   -1.6534 C   0  0  0  0  0  0  0  0  0  0  0  0
   -4.6922   -0.9396   -2.0907 C   0  0  0  0  0  0  0  0  0  0  0  0
   -5.7208   -0.3756   -1.3175 C   0  0  0  0  0  0  0  0  0  0  0  0
   -7.0515   -0.3713   -1.7627 C   0  0  0  0  0  0  0  0  0  0  0  0
   -8.0661    0.1914   -0.9831 C   0  0  0  0  0  0  0  0  0  0  0  0
   -7.7695    0.7593    0.2545 C   0  0  0  0  0  0  0  0  0  0  0  0
   -6.4557    0.7691    0.7219 C   0  0  0  0  0  0  0  0  0  0  0  0
   -5.4246    0.2052   -0.0559 C   0  0  0  0  0  0  0  0  0  0  0  0
   -1.8838   -0.2896    0.1713 O   0  0  0  0  0  0  0  0  0  0  0  0
    0.3905    0.5157    1.7651 N   0  0  0  0  0  0  0  0  0  0  0  0
    1.5022    0.5074    2.7201 C   0  0  0  0  0  0  0  0  0  0  0  0
    2.7709   -0.1133    2.1166 C   0  0  0  0  0  0  0  0  0  0  0  0
    3.2130    0.6626    0.9427 N   0  0  0  0  0  0  0  0  0  0  0  0
    4.3368    0.1519    0.2824 C   0  0  0  0  0  0  0  0  0  0  0  0
    4.6636   -1.1461    0.5108 N   0  0  0  0  0  0  0  0  0  0  0  0
    5.7402   -1.6791   -0.1142 C   0  0  0  0  0  0  0  0  0  0  0  0
    6.5529   -0.9803   -0.9873 C   0  0  0  0  0  0  0  0  0  0  0  0
    7.7368   -1.6446   -1.6145 C   0  0  0  0  0  0  0  0  0  0  0  0
    8.1076   -1.0711   -2.7924 F   0  0  0  0  0  0  0  0  0  0  0  0
    8.8365   -1.6049   -0.8152 F   0  0  0  0  0  0  0  0  0  0  0  0
    7.5222   -2.9597   -1.8933 F   0  0  0  0  0  0  0  0  0  0  0  0
    6.2433    0.3619   -1.2060 C   0  0  0  0  0  0  0  0  0  0  0  0
    5.1371    0.9363   -0.5714 C   0  0  0  0  0  0  0  0  0  0  0  0
    4.8722    2.6262   -0.8360 Cl  0  0  0  0  0  0  0  0  0  0  0  0
    2.1364    1.1842    0.0740 C   0  0  0  0  0  0  0  0  0  0  0  0
    0.7629    0.5333    0.3448 C   0  0  0  0  0  0  0  0  0  0  0  0
   -3.7876    1.1442    2.4240 H   0  0  0  0  0  0  0  0  0  0  0  0
   -2.5685   -1.3868   -2.2456 H   0  0  0  0  0  0  0  0  0  0  0  0
   -4.9212   -1.3866   -3.0569 H   0  0  0  0  0  0  0  0  0  0  0  0
   -7.3119   -0.8086   -2.7242 H   0  0  0  0  0  0  0  0  0  0  0  0
   -9.0917    0.1850   -1.3441 H   0  0  0  0  0  0  0  0  0  0  0  0
   -8.5630    1.1946    0.8567 H   0  0  0  0  0  0  0  0  0  0  0  0
   -6.2433    1.2157    1.6897 H   0  0  0  0  0  0  0  0  0  0  0  0
    1.6854    1.5491    3.0106 H   0  0  0  0  0  0  0  0  0  0  0  0
    1.2098   -0.0457    3.6196 H   0  0  0  0  0  0  0  0  0  0  0  0
    2.5507   -1.1532    1.8405 H   0  0  0  0  0  0  0  0  0  0  0  0
    3.5616   -0.1169    2.8765 H   0  0  0  0  0  0  0  0  0  0  0  0
    5.9275   -2.7247    0.1243 H   0  0  0  0  0  0  0  0  0  0  0  0
    6.8693    0.9660   -1.8604 H   0  0  0  0  0  0  0  0  0  0  0  0
    2.3612    1.0587   -0.9924 H   0  0  0  0  0  0  0  0  0  0  0  0
    2.0506    2.2605    0.2676 H   0  0  0  0  0  0  0  0  0  0  0  0
    0.7769   -0.5098    0.0073 H   0  0  0  0  0  0  0  0  0  0  0  0
    0.0097    1.0771   -0.2328 H   0  0  0  0  0  0  0  0  0  0  0  0
  1  2  2  0
  2  3  1  0
  3  4  2  0
  4  5  1  0
  5  6  2  0
  6  7  1  0
  7  8  2  0
  8  9  1  0
  9 10  2  0
 10 11  1  0
 11 12  2  0
 12 13  1  0
 13 14  2  0
  6 15  1  0
  2 16  1  0
 16 17  1  0
 17 18  1  0
 18 19  1  0
 19 20  1  0
 20 21  2  0
 21 22  1  0
 22 23  2  0
 23 24  1  0
 24 25  1  0
 24 26  1  0
 24 27  1  0
 23 28  1  0
 28 29  2  0
 29 30  1  0
 19 31  1  0
 31 32  1  0
 15  3  1  0
 32 16  1  0
 14  5  1  0
 29 20  1  0
 14  9  1  0
  4 33  1  0
  7 34  1  0
  8 35  1  0
 10 36  1  0
 11 37  1  0
 12 38  1  0
 13 39  1  0
 17 40  1  0
 17 41  1  0
 18 42  1  0
 18 43  1  0
 22 44  1  0
 28 45  1  0
 31 46  1  0
 31 47  1  0
 32 48  1  0
 32 49  1  0
M  END
$$$$
