
     RDKit          3D

 19 19  0  0  0  0  0  0  0  0999 V2000
   -2.9671    0.6633   -0.8643 C   0  0  0  0  0  0  0  0  0  0  0  0
   -2.1339   -0.4474   -0.2391 C   0  0  0  0  0  0  0  0  0  0  0  0
   -1.2785   -1.2214   -1.2443 C   0  0  0  0  0  0  0  0  0  0  0  0
    0.0087   -0.2192   -2.0512 S   0  0  0  0  0  0  0  0  0  0  0  0
    1.2025   -0.0849   -0.7801 C   0  0  0  0  0  0  0  0  0  0  0  0
    1.1284   -0.7492    0.3517 N   0  0  0  0  0  0  0  0  0  0  0  0
    2.1947   -0.4701    1.1849 N   0  0  0  0  0  0  0  0  0  0  0  0
    3.0353    0.3879    0.6522 C   0  0  0  0  0  0  0  0  0  0  0  0
    4.1540    0.8354    1.2546 N   0  0  0  0  0  0  0  0  0  0  0  0
    2.5767    0.9299   -0.9118 S   0  0  0  0  0  0  0  0  0  0  0  0
   -3.6279    1.1043   -0.1108 H   0  0  0  0  0  0  0  0  0  0  0  0
   -3.5920    0.2763   -1.6754 H   0  0  0  0  0  0  0  0  0  0  0  0
   -2.3395    1.4658   -1.2628 H   0  0  0  0  0  0  0  0  0  0  0  0
   -1.5146   -0.0309    0.5632 H   0  0  0  0  0  0  0  0  0  0  0  0
   -2.8195   -1.1577    0.2395 H   0  0  0  0  0  0  0  0  0  0  0  0
   -1.9240   -1.6168   -2.0366 H   0  0  0  0  0  0  0  0  0  0  0  0
   -0.8185   -2.0891   -0.7593 H   0  0  0  0  0  0  0  0  0  0  0  0
    4.1939    0.6925    2.2586 H   0  0  0  0  0  0  0  0  0  0  0  0
    4.5212    1.7312    0.9562 H   0  0  0  0  0  0  0  0  0  0  0  0
  1  2  1  0
  2  3  1  0
  3  4  1  0
  4  5  1  0
  5  6  2  0
  6  7  1  0
  7  8  2  0
  8  9  1  0
  8 10  1  0
 10  5  1  0
  1 11  1  0
  1 12  1  0
  1 13  1  0
  2 14  1  0
  2 15  1  0
  3 16  1  0
  3 17  1  0
  9 18  1  0
  9 19  1  0
M  END
$$$$
