
     RDKit          3D

 59 62  0  0  0  0  0  0  0  0999 V2000
   -5.8931   -4.1268    0.8940 C   0  0  0  0  0  0  0  0  0  0  0  0
   -5.7649   -2.6876    1.3807 C   0  0  0  0  0  0  0  0  0  0  0  0
   -5.4782   -1.7699    0.2853 N   0  0  0  0  0  0  0  0  0  0  0  0
   -6.4338   -1.2671   -0.5811 C   0  0  0  0  0  0  0  0  0  0  0  0
   -7.8306   -1.4270   -0.6143 C   0  0  0  0  0  0  0  0  0  0  0  0
   -8.5458   -0.7932   -1.6352 C   0  0  0  0  0  0  0  0  0  0  0  0
   -7.8925   -0.0311   -2.6002 C   0  0  0  0  0  0  0  0  0  0  0  0
   -6.5020    0.1157   -2.5637 C   0  0  0  0  0  0  0  0  0  0  0  0
   -5.7573   -0.5067   -1.5360 C   0  0  0  0  0  0  0  0  0  0  0  0
   -4.3650   -0.5312   -1.1987 C   0  0  0  0  0  0  0  0  0  0  0  0
   -3.2160    0.0648   -1.7667 C   0  0  0  0  0  0  0  0  0  0  0  0
   -1.9610   -0.0806   -1.1522 C   0  0  0  0  0  0  0  0  0  0  0  0
   -0.8672    0.5838   -1.7521 N   0  0  0  0  0  0  0  0  0  0  0  0
    0.4021    0.7581   -1.2155 C   0  0  0  0  0  0  0  0  0  0  0  0
    0.7691    0.3644   -0.1088 O   0  0  0  0  0  0  0  0  0  0  0  0
    1.3724    1.5147   -2.1567 C   0  0  0  0  0  0  0  0  0  0  0  0
    0.8524    2.9015   -2.5221 C   0  0  0  0  0  0  0  0  0  0  0  0
    2.6353    1.7179   -1.5044 O   0  0  0  0  0  0  0  0  0  0  0  0
    3.4433    0.6279   -1.4591 C   0  0  0  0  0  0  0  0  0  0  0  0
    3.2998   -0.3934   -2.1150 O   0  0  0  0  0  0  0  0  0  0  0  0
    4.5425    0.8423   -0.4747 C   0  0  0  0  0  0  0  0  0  0  0  0
    4.6808    2.0294    0.2531 C   0  0  0  0  0  0  0  0  0  0  0  0
    5.6964    2.1580    1.2089 C   0  0  0  0  0  0  0  0  0  0  0  0
    6.5793    1.1010    1.4686 C   0  0  0  0  0  0  0  0  0  0  0  0
    7.5184    1.2965    2.5033 N   0  0  0  0  0  0  0  0  0  0  0  0
    8.3883    0.3621    3.0449 C   0  0  0  0  0  0  0  0  0  0  0  0
    8.5364   -0.7929    2.6423 O   0  0  0  0  0  0  0  0  0  0  0  0
    9.2597    0.8586    4.1895 C   0  0  0  0  0  0  0  0  0  0  0  0
    8.5723    1.8166    5.0580 C   0  0  0  0  0  0  0  0  0  0  0  0
    8.0145    2.6273    5.6741 N   0  0  0  0  0  0  0  0  0  0  0  0
    6.4518   -0.0747    0.7249 C   0  0  0  0  0  0  0  0  0  0  0  0
    5.4468   -0.2009   -0.2444 C   0  0  0  0  0  0  0  0  0  0  0  0
   -1.8551   -0.8646   -0.0064 C   0  0  0  0  0  0  0  0  0  0  0  0
   -2.9729   -1.4864    0.5628 C   0  0  0  0  0  0  0  0  0  0  0  0
   -4.2211   -1.3011   -0.0448 C   0  0  0  0  0  0  0  0  0  0  0  0
   -6.0581   -4.8007    1.7408 H   0  0  0  0  0  0  0  0  0  0  0  0
   -4.9860   -4.4518    0.3680 H   0  0  0  0  0  0  0  0  0  0  0  0
   -6.7370   -4.2352    0.2064 H   0  0  0  0  0  0  0  0  0  0  0  0
   -4.9646   -2.6062    2.1262 H   0  0  0  0  0  0  0  0  0  0  0  0
   -6.6911   -2.3556    1.8686 H   0  0  0  0  0  0  0  0  0  0  0  0
   -8.3520   -2.0187    0.1306 H   0  0  0  0  0  0  0  0  0  0  0  0
   -9.6273   -0.8991   -1.6741 H   0  0  0  0  0  0  0  0  0  0  0  0
   -8.4647    0.4560   -3.3863 H   0  0  0  0  0  0  0  0  0  0  0  0
   -6.0018    0.7161   -3.3184 H   0  0  0  0  0  0  0  0  0  0  0  0
   -3.3348    0.6699   -2.6596 H   0  0  0  0  0  0  0  0  0  0  0  0
   -1.0660    1.0398   -2.6326 H   0  0  0  0  0  0  0  0  0  0  0  0
    1.5048    0.9346   -3.0768 H   0  0  0  0  0  0  0  0  0  0  0  0
    1.6107    3.4443   -3.1002 H   0  0  0  0  0  0  0  0  0  0  0  0
   -0.0639    2.8643   -3.1176 H   0  0  0  0  0  0  0  0  0  0  0  0
    0.6487    3.5007   -1.6231 H   0  0  0  0  0  0  0  0  0  0  0  0
    3.9885    2.8566    0.1116 H   0  0  0  0  0  0  0  0  0  0  0  0
    5.7588    3.0901    1.7690 H   0  0  0  0  0  0  0  0  0  0  0  0
    7.4802    2.2180    2.9339 H   0  0  0  0  0  0  0  0  0  0  0  0
   10.1557    1.3208    3.7608 H   0  0  0  0  0  0  0  0  0  0  0  0
    9.5751   -0.0091    4.7820 H   0  0  0  0  0  0  0  0  0  0  0  0
    7.1187   -0.9190    0.8752 H   0  0  0  0  0  0  0  0  0  0  0  0
    5.3554   -1.1352   -0.7977 H   0  0  0  0  0  0  0  0  0  0  0  0
   -0.9017   -1.0189    0.4946 H   0  0  0  0  0  0  0  0  0  0  0  0
   -2.8527   -2.0674    1.4672 H   0  0  0  0  0  0  0  0  0  0  0  0
  1  2  1  0
  2  3  1  0
  3  4  1  0
  4  5  2  0
  5  6  1  0
  6  7  2  0
  7  8  1  0
  8  9  2  0
  9 10  1  0
 10 11  2  0
 11 12  1  0
 12 13  1  0
 13 14  1  0
 14 15  2  0
 14 16  1  0
 16 17  1  0
 16 18  1  0
 18 19  1  0
 19 20  2  0
 19 21  1  0
 21 22  2  0
 22 23  1  0
 23 24  2  0
 24 25  1  0
 25 26  1  0
 26 27  2  0
 26 28  1  0
 28 29  1  0
 29 30  3  0
 24 31  1  0
 31 32  2  0
 12 33  2  0
 33 34  1  0
 34 35  2  0
 35  3  1  0
  9  4  1  0
 35 10  1  0
 32 21  1  0
  1 36  1  0
  1 37  1  0
  1 38  1  0
  2 39  1  0
  2 40  1  0
  5 41  1  0
  6 42  1  0
  7 43  1  0
  8 44  1  0
 11 45  1  0
 13 46  1  0
 16 47  1  0
 17 48  1  0
 17 49  1  0
 17 50  1  0
 22 51  1  0
 23 52  1  0
 25 53  1  0
 28 54  1  0
 28 55  1  0
 31 56  1  0
 32 57  1  0
 33 58  1  0
 34 59  1  0
M  END
$$$$
