
     RDKit          3D

 81 84  0  0  0  0  0  0  0  0999 V2000
   -5.9825    4.2427    4.3823 C   0  0  0  0  0  0  0  0  0  0  0  0
   -4.8558    3.3953    4.5464 O   0  0  0  0  0  0  0  0  0  0  0  0
   -4.1072    3.1476    3.4298 C   0  0  0  0  0  0  0  0  0  0  0  0
   -4.2651    3.7589    2.1839 C   0  0  0  0  0  0  0  0  0  0  0  0
   -3.4380    3.3948    1.1140 C   0  0  0  0  0  0  0  0  0  0  0  0
   -2.4569    2.4132    1.2983 C   0  0  0  0  0  0  0  0  0  0  0  0
   -1.4657    1.8658   -0.0726 S   0  0  0  0  0  6  0  0  0  0  0  0
   -0.0908    1.7607    0.3825 O   0  0  0  0  0  0  0  0  0  0  0  0
   -1.7987    2.6683   -1.2297 O   0  0  0  0  0  0  0  0  0  0  0  0
   -2.0971    0.2818   -0.3171 N   0  0  0  0  0  0  0  0  0  0  0  0
   -3.4067    0.2447   -1.0039 C   0  0  0  0  0  0  0  0  0  0  0  0
   -1.1154   -0.7139   -0.8569 C   0  0  0  0  0  0  0  0  0  0  0  0
   -0.3158   -1.3873    0.3042 C   0  0  0  0  0  0  0  0  0  0  0  0
    1.0785   -1.7117    0.0663 O   0  0  0  0  0  0  0  0  0  0  0  0
    1.3917   -2.1153   -1.2118 C   0  0  0  0  0  0  0  0  0  0  0  0
    1.8747   -1.1252   -2.0988 C   0  0  0  0  0  0  0  0  0  0  0  0
    2.0273    0.1833   -1.5785 N   0  0  0  0  0  0  0  0  0  0  0  0
    2.7176    1.2500   -2.1388 C   0  0  0  0  0  0  0  0  0  0  0  0
    3.3300    1.2129   -3.1999 O   0  0  0  0  0  0  0  0  0  0  0  0
    2.5937    2.3674   -1.3230 N   0  0  0  0  0  0  0  0  0  0  0  0
    3.3152    3.5740   -1.4526 C   0  0  0  0  0  0  0  0  0  0  0  0
    4.4886    3.6856   -2.2059 C   0  0  0  0  0  0  0  0  0  0  0  0
    5.1676    4.9100   -2.2934 C   0  0  0  0  0  0  0  0  0  0  0  0
    4.6749    6.0456   -1.6274 C   0  0  0  0  0  0  0  0  0  0  0  0
    5.3934    7.3712   -1.7185 C   0  0  0  0  0  0  0  0  0  0  0  0
    6.1551    7.6209   -0.6191 F   0  0  0  0  0  0  0  0  0  0  0  0
    6.2342    7.4520   -2.7892 F   0  0  0  0  0  0  0  0  0  0  0  0
    4.5469    8.4315   -1.8291 F   0  0  0  0  0  0  0  0  0  0  0  0
    3.5154    5.9220   -0.8451 C   0  0  0  0  0  0  0  0  0  0  0  0
    2.8402    4.6971   -0.7627 C   0  0  0  0  0  0  0  0  0  0  0  0
    2.1688   -1.4729   -3.4209 C   0  0  0  0  0  0  0  0  0  0  0  0
    2.0792   -2.8036   -3.8382 C   0  0  0  0  0  0  0  0  0  0  0  0
    1.7208   -3.7949   -2.9243 C   0  0  0  0  0  0  0  0  0  0  0  0
    1.3816   -3.4586   -1.6038 C   0  0  0  0  0  0  0  0  0  0  0  0
    1.2299   -4.5885   -0.6554 C   0  0  0  0  0  0  0  0  0  0  0  0
    2.1140   -5.4465   -0.6802 O   0  0  0  0  0  0  0  0  0  0  0  0
    0.1099   -4.6742    0.1664 N   0  0  0  0  0  0  0  0  0  0  0  0
    0.0433   -5.7367    1.1953 C   0  0  0  0  0  0  0  0  0  0  0  0
    1.1613   -5.6089    2.2422 C   0  0  0  0  0  0  0  0  0  0  0  0
    0.0142   -7.1534    0.5759 C   0  0  0  0  0  0  0  0  0  0  0  0
   -0.5630   -8.0854    1.4968 O   0  0  0  0  0  0  0  0  0  0  0  0
   -1.0630   -3.8179    0.0233 C   0  0  0  0  0  0  0  0  0  0  0  0
   -1.0038   -2.6059    0.9632 C   0  0  0  0  0  0  0  0  0  0  0  0
   -2.3924   -2.2943    1.5178 C   0  0  0  0  0  0  0  0  0  0  0  0
   -2.2698    1.8185    2.5465 C   0  0  0  0  0  0  0  0  0  0  0  0
   -3.0988    2.1916    3.6082 C   0  0  0  0  0  0  0  0  0  0  0  0
   -6.5085    4.2734    5.3452 H   0  0  0  0  0  0  0  0  0  0  0  0
   -6.6780    3.8530    3.6332 H   0  0  0  0  0  0  0  0  0  0  0  0
   -5.6713    5.2619    4.1404 H   0  0  0  0  0  0  0  0  0  0  0  0
   -5.0304    4.5098    2.0074 H   0  0  0  0  0  0  0  0  0  0  0  0
   -3.5730    3.8766    0.1441 H   0  0  0  0  0  0  0  0  0  0  0  0
   -3.7763   -0.7835   -1.0651 H   0  0  0  0  0  0  0  0  0  0  0  0
   -3.3197    0.6255   -2.0243 H   0  0  0  0  0  0  0  0  0  0  0  0
   -4.1540    0.8278   -0.4597 H   0  0  0  0  0  0  0  0  0  0  0  0
   -1.6430   -1.4696   -1.4444 H   0  0  0  0  0  0  0  0  0  0  0  0
   -0.4926   -0.1881   -1.5821 H   0  0  0  0  0  0  0  0  0  0  0  0
   -0.2417   -0.6397    1.0981 H   0  0  0  0  0  0  0  0  0  0  0  0
    1.8671    0.2666   -0.5847 H   0  0  0  0  0  0  0  0  0  0  0  0
    1.7618    2.3881   -0.7359 H   0  0  0  0  0  0  0  0  0  0  0  0
    4.9060    2.8320   -2.7316 H   0  0  0  0  0  0  0  0  0  0  0  0
    6.0759    4.9668   -2.8905 H   0  0  0  0  0  0  0  0  0  0  0  0
    3.1091    6.7863   -0.3163 H   0  0  0  0  0  0  0  0  0  0  0  0
    1.9248    4.6389   -0.1732 H   0  0  0  0  0  0  0  0  0  0  0  0
    2.4957   -0.7372   -4.1483 H   0  0  0  0  0  0  0  0  0  0  0  0
    2.3491   -3.0701   -4.8600 H   0  0  0  0  0  0  0  0  0  0  0  0
    1.7414   -4.8366   -3.2310 H   0  0  0  0  0  0  0  0  0  0  0  0
   -0.8982   -5.5870    1.7467 H   0  0  0  0  0  0  0  0  0  0  0  0
    2.1501   -5.8528    1.8250 H   0  0  0  0  0  0  0  0  0  0  0  0
    1.2114   -4.5961    2.6540 H   0  0  0  0  0  0  0  0  0  0  0  0
    0.9841   -6.2950    3.0695 H   0  0  0  0  0  0  0  0  0  0  0  0
    1.0197   -7.5080    0.3038 H   0  0  0  0  0  0  0  0  0  0  0  0
   -0.6183   -7.1615   -0.3268 H   0  0  0  0  0  0  0  0  0  0  0  0
   -0.3586   -8.9687    1.1542 H   0  0  0  0  0  0  0  0  0  0  0  0
   -1.1490   -3.5179   -1.0261 H   0  0  0  0  0  0  0  0  0  0  0  0
   -1.9503   -4.4358    0.2135 H   0  0  0  0  0  0  0  0  0  0  0  0
   -0.3861   -2.8704    1.8366 H   0  0  0  0  0  0  0  0  0  0  0  0
   -3.1373   -2.1864    0.7275 H   0  0  0  0  0  0  0  0  0  0  0  0
   -2.7219   -3.1109    2.1745 H   0  0  0  0  0  0  0  0  0  0  0  0
   -2.3791   -1.3756    2.1139 H   0  0  0  0  0  0  0  0  0  0  0  0
   -1.5019    1.0592    2.6973 H   0  0  0  0  0  0  0  0  0  0  0  0
   -2.9886    1.7125    4.5844 H   0  0  0  0  0  0  0  0  0  0  0  0
  1  2  1  0
  2  3  1  0
  3  4  2  0
  4  5  1  0
  5  6  2  0
  6  7  1  0
  7  8  2  0
  7  9  2  0
  7 10  1  0
 10 11  1  0
 10 12  1  0
 12 13  1  0
 13 14  1  0
 14 15  1  0
 15 16  2  0
 16 17  1  0
 17 18  1  0
 18 19  2  0
 18 20  1  0
 20 21  1  0
 21 22  2  0
 22 23  1  0
 23 24  2  0
 24 25  1  0
 25 26  1  0
 25 27  1  0
 25 28  1  0
 24 29  1  0
 29 30  2  0
 16 31  1  0
 31 32  2  0
 32 33  1  0
 33 34  2  0
 34 35  1  0
 35 36  2  0
 35 37  1  0
 37 38  1  0
 38 39  1  0
 38 40  1  0
 40 41  1  0
 37 42  1  0
 42 43  1  0
 43 44  1  0
  6 45  1  0
 45 46  2  0
 46  3  1  0
 43 13  1  0
 34 15  1  0
 30 21  1  0
  1 47  1  0
  1 48  1  0
  1 49  1  0
  4 50  1  0
  5 51  1  0
 11 52  1  0
 11 53  1  0
 11 54  1  0
 12 55  1  0
 12 56  1  0
 13 57  1  0
 17 58  1  0
 20 59  1  0
 22 60  1  0
 23 61  1  0
 29 62  1  0
 30 63  1  0
 31 64  1  0
 32 65  1  0
 33 66  1  0
 38 67  1  0
 39 68  1  0
 39 69  1  0
 39 70  1  0
 40 71  1  0
 40 72  1  0
 41 73  1  0
 42 74  1  0
 42 75  1  0
 43 76  1  0
 44 77  1  0
 44 78  1  0
 44 79  1  0
 45 80  1  0
 46 81  1  0
M  END
$$$$
