
     RDKit          3D

 22 22  0  0  0  0  0  0  0  0999 V2000
    2.5102    1.5939   -0.8281 N   0  0  0  0  0  0  0  0  0  0  0  0
    2.5411    0.3198   -0.9639 C   0  0  0  0  0  0  0  0  0  0  0  0
    2.8313   -0.2796   -2.1361 N   0  0  0  0  0  0  0  0  0  0  0  0
    2.2410   -0.6854    0.4099 S   0  0  0  0  0  0  0  0  0  0  0  0
    0.6472   -1.3951   -0.0782 C   0  0  0  0  0  0  0  0  0  0  0  0
   -0.4893   -0.6076    0.5010 C   0  0  0  0  0  0  0  0  0  0  0  0
   -1.2032   -0.9791    1.5777 C   0  0  0  0  0  0  0  0  0  0  0  0
   -2.3413   -0.0992    1.9893 C   0  0  0  0  0  0  0  0  0  0  0  0
   -2.3846    1.1661    0.7265 S   0  0  0  0  0  6  0  0  0  0  0  0
   -2.1264    2.4513    1.3477 O   0  0  0  0  0  0  0  0  0  0  0  0
   -3.5551    0.9481   -0.1036 O   0  0  0  0  0  0  0  0  0  0  0  0
   -0.9309    0.6566   -0.1876 C   0  0  0  0  0  0  0  0  0  0  0  0
    2.3042    1.7939    0.1580 H   0  0  0  0  0  0  0  0  0  0  0  0
    3.2623    0.3742   -2.7824 H   0  0  0  0  0  0  0  0  0  0  0  0
    3.3586   -1.1387   -2.0408 H   0  0  0  0  0  0  0  0  0  0  0  0
    0.5481   -1.4742   -1.1658 H   0  0  0  0  0  0  0  0  0  0  0  0
    0.6240   -2.4214    0.3059 H   0  0  0  0  0  0  0  0  0  0  0  0
   -0.9879   -1.8788    2.1447 H   0  0  0  0  0  0  0  0  0  0  0  0
   -3.2903   -0.6389    1.9856 H   0  0  0  0  0  0  0  0  0  0  0  0
   -2.1571    0.3652    2.9601 H   0  0  0  0  0  0  0  0  0  0  0  0
   -1.2157    0.4786   -1.2270 H   0  0  0  0  0  0  0  0  0  0  0  0
   -0.1866    1.4505   -0.1124 H   0  0  0  0  0  0  0  0  0  0  0  0
  1  2  2  3
  2  3  1  0
  2  4  1  0
  4  5  1  0
  5  6  1  0
  6  7  2  0
  7  8  1  0
  8  9  1  0
  9 10  2  0
  9 11  2  0
  9 12  1  0
 12  6  1  0
  1 13  1  0
  3 14  1  0
  3 15  1  0
  5 16  1  0
  5 17  1  0
  7 18  1  0
  8 19  1  0
  8 20  1  0
 12 21  1  0
 12 22  1  0
M  END
$$$$
