
     RDKit          3D

 41 44  0  0  0  0  0  0  0  0999 V2000
    0.1038   -2.8616    0.1195 O   0  0  0  0  0  0  0  0  0  0  0  0
   -0.0858   -1.8173    0.7387 C   0  0  0  0  0  0  0  0  0  0  0  0
   -1.4461   -1.5384    1.3920 C   0  0  0  0  0  0  0  0  0  0  0  0
   -2.0648   -0.3046    0.8833 N   0  0  0  0  0  0  0  0  0  0  0  0
   -1.7370    0.8880    1.5197 C   0  0  0  0  0  0  0  0  0  0  0  0
   -0.8533    0.9515    2.3790 O   0  0  0  0  0  0  0  0  0  0  0  0
   -2.5186    2.1189    1.1284 C   0  0  0  0  0  0  0  0  0  0  0  0
   -1.8552    2.8613   -0.0115 C   0  0  0  0  0  0  0  0  0  0  0  0
   -1.2890    1.8220   -1.3926 S   0  0  0  0  0  0  0  0  0  0  0  0
   -2.5640    0.5635   -1.4094 C   0  0  0  0  0  0  0  0  0  0  0  0
   -3.2880    0.4405   -2.6062 C   0  0  0  0  0  0  0  0  0  0  0  0
   -4.2204   -0.5810   -2.7753 C   0  0  0  0  0  0  0  0  0  0  0  0
   -4.4268   -1.5010   -1.7553 C   0  0  0  0  0  0  0  0  0  0  0  0
   -3.7043   -1.3988   -0.5639 C   0  0  0  0  0  0  0  0  0  0  0  0
   -2.7700   -0.3678   -0.3646 C   0  0  0  0  0  0  0  0  0  0  0  0
    0.8515   -0.8311    0.9938 N   0  0  0  0  0  0  0  0  0  0  0  0
    2.1783   -0.7505    0.5300 C   0  0  0  0  0  0  0  0  0  0  0  0
    2.7692   -1.7032   -0.3218 C   0  0  0  0  0  0  0  0  0  0  0  0
    4.0954   -1.5618   -0.7524 C   0  0  0  0  0  0  0  0  0  0  0  0
    4.7993   -0.4622   -0.3177 C   0  0  0  0  0  0  0  0  0  0  0  0
    4.2299    0.4728    0.5111 C   0  0  0  0  0  0  0  0  0  0  0  0
    2.9271    0.3588    0.9507 C   0  0  0  0  0  0  0  0  0  0  0  0
    5.0887    1.4806    0.8237 O   0  0  0  0  0  0  0  0  0  0  0  0
    6.2635    1.0707    0.0930 C   0  0  0  0  0  0  0  0  0  0  0  0
    6.0873   -0.1635   -0.6324 O   0  0  0  0  0  0  0  0  0  0  0  0
   -2.0941   -2.4056    1.2423 H   0  0  0  0  0  0  0  0  0  0  0  0
   -1.2906   -1.4544    2.4748 H   0  0  0  0  0  0  0  0  0  0  0  0
   -2.5876    2.7722    2.0068 H   0  0  0  0  0  0  0  0  0  0  0  0
   -3.5548    1.8535    0.8889 H   0  0  0  0  0  0  0  0  0  0  0  0
   -2.5435    3.6163   -0.4060 H   0  0  0  0  0  0  0  0  0  0  0  0
   -0.9742    3.3963    0.3599 H   0  0  0  0  0  0  0  0  0  0  0  0
   -3.1149    1.1323   -3.4287 H   0  0  0  0  0  0  0  0  0  0  0  0
   -4.7720   -0.6657   -3.7084 H   0  0  0  0  0  0  0  0  0  0  0  0
   -5.1502   -2.3028   -1.8845 H   0  0  0  0  0  0  0  0  0  0  0  0
   -3.9208   -2.1224    0.2173 H   0  0  0  0  0  0  0  0  0  0  0  0
    0.5392   -0.0661    1.5933 H   0  0  0  0  0  0  0  0  0  0  0  0
    2.2158   -2.5694   -0.6718 H   0  0  0  0  0  0  0  0  0  0  0  0
    4.5498   -2.2952   -1.4087 H   0  0  0  0  0  0  0  0  0  0  0  0
    2.5097    1.1176    1.6033 H   0  0  0  0  0  0  0  0  0  0  0  0
    7.0907    0.9460    0.8013 H   0  0  0  0  0  0  0  0  0  0  0  0
    6.5268    1.8615   -0.6190 H   0  0  0  0  0  0  0  0  0  0  0  0
  1  2  2  0
  2  3  1  0
  3  4  1  0
  4  5  1  0
  5  6  2  0
  5  7  1  0
  7  8  1  0
  8  9  1  0
  9 10  1  0
 10 11  2  0
 11 12  1  0
 12 13  2  0
 13 14  1  0
 14 15  2  0
  2 16  1  0
 16 17  1  0
 17 18  2  0
 18 19  1  0
 19 20  2  0
 20 21  1  0
 21 22  2  0
 21 23  1  0
 23 24  1  0
 24 25  1  0
 15  4  1  0
 22 17  1  0
 15 10  1  0
 25 20  1  0
  3 26  1  0
  3 27  1  0
  7 28  1  0
  7 29  1  0
  8 30  1  0
  8 31  1  0
 11 32  1  0
 12 33  1  0
 13 34  1  0
 14 35  1  0
 16 36  1  0
 18 37  1  0
 19 38  1  0
 22 39  1  0
 24 40  1  0
 24 41  1  0
M  END
$$$$
