
     RDKit          3D

 44 46  0  0  0  0  0  0  0  0999 V2000
   -7.3157    0.1231   -0.4223 C   0  0  0  0  0  0  0  0  0  0  0  0
   -5.8181    0.1739   -0.3410 C   0  0  0  0  0  0  0  0  0  0  0  0
   -5.0578    0.4772   -1.4769 C   0  0  0  0  0  0  0  0  0  0  0  0
   -3.6597    0.5594   -1.4093 C   0  0  0  0  0  0  0  0  0  0  0  0
   -2.8789    0.8802   -2.6517 C   0  0  0  0  0  0  0  0  0  0  0  0
   -3.0283    0.2985   -0.1834 C   0  0  0  0  0  0  0  0  0  0  0  0
   -1.6592    0.3575   -0.1065 O   0  0  0  0  0  0  0  0  0  0  0  0
   -1.0932   -0.9374   -0.3497 C   0  0  0  0  0  0  0  0  0  0  0  0
    0.4336   -0.8829   -0.2694 C   0  0  0  0  0  0  0  0  0  0  0  0
    1.1020   -1.8971   -0.4494 O   0  0  0  0  0  0  0  0  0  0  0  0
    0.9021    0.3798    0.0134 N   0  0  0  0  0  0  0  0  0  0  0  0
    2.2267    0.6753    0.1343 C   0  0  0  0  0  0  0  0  0  0  0  0
    3.2630   -0.1106    0.0180 N   0  0  0  0  0  0  0  0  0  0  0  0
    4.4276    0.6207    0.2221 C   0  0  0  0  0  0  0  0  0  0  0  0
    5.7505    0.0042    0.1538 C   0  0  0  0  0  0  0  0  0  0  0  0
    5.8792   -1.3545   -0.1220 C   0  0  0  0  0  0  0  0  0  0  0  0
    7.1546   -1.9107   -0.1799 C   0  0  0  0  0  0  0  0  0  0  0  0
    8.2605   -1.0986    0.0382 C   0  0  0  0  0  0  0  0  0  0  0  0
    8.0449    0.2430    0.3065 C   0  0  0  0  0  0  0  0  0  0  0  0
    6.8214    0.8132    0.3697 N   0  0  0  0  0  0  0  0  0  0  0  0
    4.2248    1.9630    0.4912 C   0  0  0  0  0  0  0  0  0  0  0  0
    2.5454    2.3138    0.4883 S   0  0  0  0  0  0  0  0  0  0  0  0
   -3.7726    0.0604    0.9824 C   0  0  0  0  0  0  0  0  0  0  0  0
   -3.1133   -0.1560    2.3146 C   0  0  0  0  0  0  0  0  0  0  0  0
   -5.1692   -0.0156    0.8851 C   0  0  0  0  0  0  0  0  0  0  0  0
   -7.7232   -0.5780    0.3136 H   0  0  0  0  0  0  0  0  0  0  0  0
   -7.7344    1.1166   -0.2348 H   0  0  0  0  0  0  0  0  0  0  0  0
   -7.6419   -0.2184   -1.4103 H   0  0  0  0  0  0  0  0  0  0  0  0
   -5.5618    0.6559   -2.4253 H   0  0  0  0  0  0  0  0  0  0  0  0
   -2.0033    1.4952   -2.4197 H   0  0  0  0  0  0  0  0  0  0  0  0
   -2.5511   -0.0429   -3.1391 H   0  0  0  0  0  0  0  0  0  0  0  0
   -3.4876    1.4503   -3.3618 H   0  0  0  0  0  0  0  0  0  0  0  0
   -1.4344   -1.6551    0.4051 H   0  0  0  0  0  0  0  0  0  0  0  0
   -1.3549   -1.2903   -1.3537 H   0  0  0  0  0  0  0  0  0  0  0  0
    0.2332    1.1293    0.1386 H   0  0  0  0  0  0  0  0  0  0  0  0
    5.0010   -1.9723   -0.2895 H   0  0  0  0  0  0  0  0  0  0  0  0
    7.2789   -2.9684   -0.3935 H   0  0  0  0  0  0  0  0  0  0  0  0
    9.2664   -1.5013   -0.0000 H   0  0  0  0  0  0  0  0  0  0  0  0
    8.8784    0.9169    0.4837 H   0  0  0  0  0  0  0  0  0  0  0  0
    4.9646    2.7277    0.6830 H   0  0  0  0  0  0  0  0  0  0  0  0
   -2.2315    0.4832    2.4270 H   0  0  0  0  0  0  0  0  0  0  0  0
   -3.7940    0.0958    3.1350 H   0  0  0  0  0  0  0  0  0  0  0  0
   -2.8144   -1.2031    2.4211 H   0  0  0  0  0  0  0  0  0  0  0  0
   -5.7601   -0.2208    1.7763 H   0  0  0  0  0  0  0  0  0  0  0  0
  1  2  1  0
  2  3  2  0
  3  4  1  0
  4  5  1  0
  4  6  2  0
  6  7  1  0
  7  8  1  0
  8  9  1  0
  9 10  2  0
  9 11  1  0
 11 12  1  0
 12 13  2  0
 13 14  1  0
 14 15  1  0
 15 16  2  0
 16 17  1  0
 17 18  2  0
 18 19  1  0
 19 20  2  0
 14 21  2  0
 21 22  1  0
  6 23  1  0
 23 24  1  0
 23 25  2  0
 25  2  1  0
 22 12  1  0
 20 15  1  0
  1 26  1  0
  1 27  1  0
  1 28  1  0
  3 29  1  0
  5 30  1  0
  5 31  1  0
  5 32  1  0
  8 33  1  0
  8 34  1  0
 11 35  1  0
 16 36  1  0
 17 37  1  0
 18 38  1  0
 19 39  1  0
 21 40  1  0
 24 41  1  0
 24 42  1  0
 24 43  1  0
 25 44  1  0
M  END
$$$$
