
     RDKit          3D

 37 39  0  0  0  0  0  0  0  0999 V2000
   -1.0360    4.5893    1.1601 C   0  0  0  0  0  0  0  0  0  0  0  0
    0.3130    4.1667    0.0263 S   0  0  0  0  0  0  0  0  0  0  0  0
    0.1515    2.3868   -0.0284 C   0  0  0  0  0  0  0  0  0  0  0  0
    1.0703    1.6647   -0.7594 C   0  0  0  0  0  0  0  0  0  0  0  0
    0.9221    0.2916   -0.7893 C   0  0  0  0  0  0  0  0  0  0  0  0
    1.8233   -0.4961   -1.5354 N   0  0  0  0  0  0  0  0  0  0  0  0
    3.2294   -0.3593   -1.0897 C   0  0  0  0  0  0  0  0  0  0  0  0
    4.1471   -1.1938   -1.9996 C   0  0  0  0  0  0  0  0  0  0  0  0
    3.7520   -2.5736   -2.0318 O   0  0  0  0  0  0  0  0  0  0  0  0
    2.4015   -2.6897   -2.5102 C   0  0  0  0  0  0  0  0  0  0  0  0
    1.4196   -1.9210   -1.6128 C   0  0  0  0  0  0  0  0  0  0  0  0
   -0.1036   -0.2952   -0.1527 N   0  0  0  0  0  0  0  0  0  0  0  0
   -0.9396    0.4801    0.5566 C   0  0  0  0  0  0  0  0  0  0  0  0
   -2.0689   -0.1658    1.2345 C   0  0  0  0  0  0  0  0  0  0  0  0
   -3.3662    0.3679    1.0680 C   0  0  0  0  0  0  0  0  0  0  0  0
   -4.4831   -0.2128    1.6746 C   0  0  0  0  0  0  0  0  0  0  0  0
   -4.3296   -1.3422    2.4699 C   0  0  0  0  0  0  0  0  0  0  0  0
   -3.0599   -1.8832    2.6628 C   0  0  0  0  0  0  0  0  0  0  0  0
   -1.9373   -1.3013    2.0552 C   0  0  0  0  0  0  0  0  0  0  0  0
   -0.4036   -2.0211    2.4212 Cl  0  0  0  0  0  0  0  0  0  0  0  0
   -0.8624    1.8167    0.6366 N   0  0  0  0  0  0  0  0  0  0  0  0
   -0.8859    4.1175    2.1351 H   0  0  0  0  0  0  0  0  0  0  0  0
   -1.0518    5.6733    1.3031 H   0  0  0  0  0  0  0  0  0  0  0  0
   -2.0013    4.2849    0.7461 H   0  0  0  0  0  0  0  0  0  0  0  0
    1.8595    2.1588   -1.3096 H   0  0  0  0  0  0  0  0  0  0  0  0
    3.3210   -0.7174   -0.0558 H   0  0  0  0  0  0  0  0  0  0  0  0
    3.5683    0.6814   -1.1273 H   0  0  0  0  0  0  0  0  0  0  0  0
    5.1753   -1.1525   -1.6265 H   0  0  0  0  0  0  0  0  0  0  0  0
    4.1471   -0.8004   -3.0233 H   0  0  0  0  0  0  0  0  0  0  0  0
    2.3582   -2.3267   -3.5441 H   0  0  0  0  0  0  0  0  0  0  0  0
    2.1435   -3.7533   -2.5179 H   0  0  0  0  0  0  0  0  0  0  0  0
    0.4126   -2.0173   -2.0362 H   0  0  0  0  0  0  0  0  0  0  0  0
    1.4323   -2.3700   -0.6107 H   0  0  0  0  0  0  0  0  0  0  0  0
   -3.5083    1.2512    0.4454 H   0  0  0  0  0  0  0  0  0  0  0  0
   -5.4695    0.2189    1.5227 H   0  0  0  0  0  0  0  0  0  0  0  0
   -5.1945   -1.7982    2.9450 H   0  0  0  0  0  0  0  0  0  0  0  0
   -2.9458   -2.7591    3.2974 H   0  0  0  0  0  0  0  0  0  0  0  0
  1  2  1  0
  2  3  1  0
  3  4  2  0
  4  5  1  0
  5  6  1  0
  6  7  1  0
  7  8  1  0
  8  9  1  0
  9 10  1  0
 10 11  1  0
  5 12  2  0
 12 13  1  0
 13 14  1  0
 14 15  2  0
 15 16  1  0
 16 17  2  0
 17 18  1  0
 18 19  2  0
 19 20  1  0
 13 21  2  0
 21  3  1  0
 11  6  1  0
 19 14  1  0
  1 22  1  0
  1 23  1  0
  1 24  1  0
  4 25  1  0
  7 26  1  0
  7 27  1  0
  8 28  1  0
  8 29  1  0
 10 30  1  0
 10 31  1  0
 11 32  1  0
 11 33  1  0
 15 34  1  0
 16 35  1  0
 17 36  1  0
 18 37  1  0
M  END
$$$$
