
     RDKit          3D

 36 37  0  0  0  0  0  0  0  0999 V2000
    0.6024   -1.2516   -2.1594 O   0  0  0  0  0  0  0  0  0  0  0  0
    0.2041   -0.1954   -1.6784 C   0  0  0  0  0  0  0  0  0  0  0  0
   -1.0320    0.5306   -2.2139 C   0  0  0  0  0  0  0  0  0  0  0  0
   -2.2224    0.2235   -1.4862 O   0  0  0  0  0  0  0  0  0  0  0  0
   -2.3508    0.8506   -0.2930 C   0  0  0  0  0  0  0  0  0  0  0  0
   -1.5420    1.6301    0.1888 O   0  0  0  0  0  0  0  0  0  0  0  0
   -3.6253    0.4671    0.3722 C   0  0  0  0  0  0  0  0  0  0  0  0
   -4.4576   -0.5456   -0.1273 C   0  0  0  0  0  0  0  0  0  0  0  0
   -5.6441   -0.8716    0.5374 C   0  0  0  0  0  0  0  0  0  0  0  0
   -5.9983   -0.1875    1.6991 C   0  0  0  0  0  0  0  0  0  0  0  0
   -7.6024   -0.6289    2.5950 Br  0  0  0  0  0  0  0  0  0  0  0  0
   -5.1778    0.8197    2.2051 C   0  0  0  0  0  0  0  0  0  0  0  0
   -3.9910    1.1456    1.5427 C   0  0  0  0  0  0  0  0  0  0  0  0
    0.8249    0.4449   -0.6264 N   0  0  0  0  0  0  0  0  0  0  0  0
    1.9019   -0.1783    0.1237 C   0  0  0  0  0  0  0  0  0  0  0  0
    3.1767   -0.4242   -0.6937 C   0  0  0  0  0  0  0  0  0  0  0  0
    4.3172   -0.7243    0.1577 N   0  0  0  0  0  0  0  0  0  0  0  0
    5.2150    0.2201    0.5897 C   0  0  0  0  0  0  0  0  0  0  0  0
    5.0605    1.5133    0.1893 O   0  0  0  0  0  0  0  0  0  0  0  0
    6.1764   -0.2517    1.3916 C   0  0  0  0  0  0  0  0  0  0  0  0
    5.9860   -1.9565    1.6670 S   0  0  0  0  0  0  0  0  0  0  0  0
    4.5283   -2.0014    0.6532 C   0  0  0  0  0  0  0  0  0  0  0  0
    3.8611   -3.0061    0.4770 O   0  0  0  0  0  0  0  0  0  0  0  0
   -1.1858    0.2120   -3.2502 H   0  0  0  0  0  0  0  0  0  0  0  0
   -0.8560    1.6133   -2.2459 H   0  0  0  0  0  0  0  0  0  0  0  0
   -4.1950   -1.0946   -1.0285 H   0  0  0  0  0  0  0  0  0  0  0  0
   -6.2805   -1.6598    0.1420 H   0  0  0  0  0  0  0  0  0  0  0  0
   -5.4501    1.3541    3.1118 H   0  0  0  0  0  0  0  0  0  0  0  0
   -3.3548    1.9317    1.9449 H   0  0  0  0  0  0  0  0  0  0  0  0
    0.2551    1.1317   -0.1299 H   0  0  0  0  0  0  0  0  0  0  0  0
    1.5281   -1.1209    0.5402 H   0  0  0  0  0  0  0  0  0  0  0  0
    2.1157    0.4908    0.9646 H   0  0  0  0  0  0  0  0  0  0  0  0
    3.4077    0.4407   -1.3264 H   0  0  0  0  0  0  0  0  0  0  0  0
    3.0263   -1.2754   -1.3673 H   0  0  0  0  0  0  0  0  0  0  0  0
    5.8030    2.0338    0.5406 H   0  0  0  0  0  0  0  0  0  0  0  0
    6.9757    0.3202    1.8386 H   0  0  0  0  0  0  0  0  0  0  0  0
  1  2  2  0
  2  3  1  0
  3  4  1  0
  4  5  1  0
  5  6  2  0
  5  7  1  0
  7  8  2  0
  8  9  1  0
  9 10  2  0
 10 11  1  0
 10 12  1  0
 12 13  2  0
  2 14  1  0
 14 15  1  0
 15 16  1  0
 16 17  1  0
 17 18  1  0
 18 19  1  0
 18 20  2  0
 20 21  1  0
 21 22  1  0
 22 23  2  0
 13  7  1  0
 22 17  1  0
  3 24  1  0
  3 25  1  0
  8 26  1  0
  9 27  1  0
 12 28  1  0
 13 29  1  0
 14 30  1  0
 15 31  1  0
 15 32  1  0
 16 33  1  0
 16 34  1  0
 19 35  1  0
 20 36  1  0
M  END
$$$$
