
     RDKit          3D

 43 43  0  0  0  0  0  0  0  0999 V2000
   -5.7258   -0.5910    2.6346 C   0  0  0  0  0  0  0  0  0  0  0  0
   -5.8142    0.5274    1.6421 C   0  0  0  0  0  0  0  0  0  0  0  0
   -7.1260    1.6271    1.9460 Cl  0  0  0  0  0  0  0  0  0  0  0  0
   -5.0062    0.7720    0.5949 C   0  0  0  0  0  0  0  0  0  0  0  0
   -3.8439   -0.0427    0.1271 C   0  0  0  0  0  0  0  0  0  0  0  0
   -2.4559    0.5617    0.3942 N   0  0  0  0  0  4  0  0  0  0  0  0
   -2.1896    0.6268    1.8968 C   0  0  0  0  0  0  0  0  0  0  0  0
   -2.3378    1.9604   -0.1981 C   0  0  0  0  0  0  0  0  0  0  0  0
   -1.4037   -0.3836   -0.3006 C   0  0  0  0  0  0  0  0  0  0  0  0
    0.0652    0.0260   -0.2086 C   0  0  0  0  0  0  0  0  0  0  0  0
    0.5764    0.5392    0.7746 O   0  0  0  0  0  0  0  0  0  0  0  0
    0.7042   -0.2708   -1.3715 O   0  0  0  0  0  0  0  0  0  0  0  0
    2.1099    0.0501   -1.4276 C   0  0  0  0  0  0  0  0  0  0  0  0
    2.9313   -1.1562   -0.9865 C   0  0  0  0  0  0  0  0  0  0  0  0
    4.4105   -0.9035   -1.0874 C   0  0  0  0  0  0  0  0  0  0  0  0
    5.1132   -1.2453   -2.2527 C   0  0  0  0  0  0  0  0  0  0  0  0
    6.4844   -1.0019   -2.3480 C   0  0  0  0  0  0  0  0  0  0  0  0
    7.1636   -0.4102   -1.2848 C   0  0  0  0  0  0  0  0  0  0  0  0
    6.4728   -0.0618   -0.1227 C   0  0  0  0  0  0  0  0  0  0  0  0
    5.1015   -0.3042   -0.0240 C   0  0  0  0  0  0  0  0  0  0  0  0
   -5.7551   -0.1985    3.6596 H   0  0  0  0  0  0  0  0  0  0  0  0
   -4.7979   -1.1668    2.5400 H   0  0  0  0  0  0  0  0  0  0  0  0
   -6.5667   -1.2811    2.5060 H   0  0  0  0  0  0  0  0  0  0  0  0
   -5.2469    1.6268   -0.0368 H   0  0  0  0  0  0  0  0  0  0  0  0
   -3.9284   -0.1712   -0.9575 H   0  0  0  0  0  0  0  0  0  0  0  0
   -3.8374   -1.0479    0.5665 H   0  0  0  0  0  0  0  0  0  0  0  0
   -3.0003    1.1826    2.3733 H   0  0  0  0  0  0  0  0  0  0  0  0
   -2.1439   -0.3931    2.2845 H   0  0  0  0  0  0  0  0  0  0  0  0
   -1.2550    1.1590    2.0812 H   0  0  0  0  0  0  0  0  0  0  0  0
   -1.3125    2.3168   -0.0678 H   0  0  0  0  0  0  0  0  0  0  0  0
   -3.0214    2.6265    0.3325 H   0  0  0  0  0  0  0  0  0  0  0  0
   -2.5923    1.9071   -1.2621 H   0  0  0  0  0  0  0  0  0  0  0  0
   -1.6998   -0.4330   -1.3557 H   0  0  0  0  0  0  0  0  0  0  0  0
   -1.5175   -1.3753    0.1513 H   0  0  0  0  0  0  0  0  0  0  0  0
    2.3373    0.9438   -0.8295 H   0  0  0  0  0  0  0  0  0  0  0  0
    2.3321    0.3087   -2.4693 H   0  0  0  0  0  0  0  0  0  0  0  0
    2.6696   -1.4357    0.0431 H   0  0  0  0  0  0  0  0  0  0  0  0
    2.6554   -2.0311   -1.5890 H   0  0  0  0  0  0  0  0  0  0  0  0
    4.6030   -1.7100   -3.0928 H   0  0  0  0  0  0  0  0  0  0  0  0
    7.0252   -1.2789   -3.2482 H   0  0  0  0  0  0  0  0  0  0  0  0
    8.2335   -0.2267   -1.3581 H   0  0  0  0  0  0  0  0  0  0  0  0
    7.0073    0.3894    0.7114 H   0  0  0  0  0  0  0  0  0  0  0  0
    4.5821   -0.0312    0.8914 H   0  0  0  0  0  0  0  0  0  0  0  0
  1  2  1  0
  2  3  1  0
  2  4  2  3
  4  5  1  0
  5  6  1  0
  6  7  1  0
  6  8  1  0
  6  9  1  0
  9 10  1  0
 10 11  2  0
 10 12  1  0
 12 13  1  0
 13 14  1  0
 14 15  1  0
 15 16  2  0
 16 17  1  0
 17 18  2  0
 18 19  1  0
 19 20  2  0
 20 15  1  0
  1 21  1  0
  1 22  1  0
  1 23  1  0
  4 24  1  0
  5 25  1  0
  5 26  1  0
  7 27  1  0
  7 28  1  0
  7 29  1  0
  8 30  1  0
  8 31  1  0
  8 32  1  0
  9 33  1  0
  9 34  1  0
 13 35  1  0
 13 36  1  0
 14 37  1  0
 14 38  1  0
 16 39  1  0
 17 40  1  0
 18 41  1  0
 19 42  1  0
 20 43  1  0
M  CHG  1   6   1
M  END
$$$$
