
     RDKit          3D

 37 39  0  0  0  0  0  0  0  0999 V2000
   -8.2275   -0.1367    0.1500 C   0  0  0  0  0  0  0  0  0  0  0  0
   -7.4277    0.8523   -0.6832 C   0  0  0  0  0  0  0  0  0  0  0  0
   -5.9862    0.8542   -0.2972 C   0  0  0  0  0  0  0  0  0  0  0  0
   -5.4799    1.5466    0.7013 N   0  0  0  0  0  0  0  0  0  0  0  0
   -4.1156    1.3561    0.8284 N   0  0  0  0  0  0  0  0  0  0  0  0
   -3.6523    0.5349   -0.0783 C   0  0  0  0  0  0  0  0  0  0  0  0
   -2.3813    0.0879   -0.3143 N   0  0  0  0  0  0  0  0  0  0  0  0
   -1.3087    0.4806    0.4665 C   0  0  0  0  0  0  0  0  0  0  0  0
   -1.3624    1.2227    1.4401 O   0  0  0  0  0  0  0  0  0  0  0  0
    0.0045   -0.1346   -0.0361 C   0  0  0  0  0  0  0  0  0  0  0  0
    1.1110    0.2715    0.7525 O   0  0  0  0  0  0  0  0  0  0  0  0
    2.3527   -0.1343    0.3498 C   0  0  0  0  0  0  0  0  0  0  0  0
    2.6322   -1.0026   -0.7026 C   0  0  0  0  0  0  0  0  0  0  0  0
    3.9582   -1.3304   -1.0084 C   0  0  0  0  0  0  0  0  0  0  0  0
    5.0233   -0.7981   -0.2664 C   0  0  0  0  0  0  0  0  0  0  0  0
    6.3588   -1.1163   -0.5639 C   0  0  0  0  0  0  0  0  0  0  0  0
    7.4041   -0.5758    0.1865 C   0  0  0  0  0  0  0  0  0  0  0  0
    7.1278    0.2874    1.2432 C   0  0  0  0  0  0  0  0  0  0  0  0
    5.8058    0.6123    1.5514 C   0  0  0  0  0  0  0  0  0  0  0  0
    4.7432    0.0780    0.8051 C   0  0  0  0  0  0  0  0  0  0  0  0
    3.4071    0.3961    1.0989 C   0  0  0  0  0  0  0  0  0  0  0  0
   -4.8251   -0.0804   -1.1578 S   0  0  0  0  0  0  0  0  0  0  0  0
   -7.8603   -1.1602    0.0152 H   0  0  0  0  0  0  0  0  0  0  0  0
   -8.1653    0.1039    1.2170 H   0  0  0  0  0  0  0  0  0  0  0  0
   -9.2821   -0.1130   -0.1423 H   0  0  0  0  0  0  0  0  0  0  0  0
   -7.8359    1.8589   -0.5368 H   0  0  0  0  0  0  0  0  0  0  0  0
   -7.5462    0.6177   -1.7468 H   0  0  0  0  0  0  0  0  0  0  0  0
   -2.2616   -0.5427   -1.0913 H   0  0  0  0  0  0  0  0  0  0  0  0
   -0.1056   -1.2251    0.0102 H   0  0  0  0  0  0  0  0  0  0  0  0
    0.1387    0.1951   -1.0742 H   0  0  0  0  0  0  0  0  0  0  0  0
    1.8494   -1.4471   -1.3053 H   0  0  0  0  0  0  0  0  0  0  0  0
    4.1552   -2.0087   -1.8351 H   0  0  0  0  0  0  0  0  0  0  0  0
    6.5953   -1.7892   -1.3854 H   0  0  0  0  0  0  0  0  0  0  0  0
    8.4333   -0.8293   -0.0544 H   0  0  0  0  0  0  0  0  0  0  0  0
    7.9401    0.7090    1.8288 H   0  0  0  0  0  0  0  0  0  0  0  0
    5.6082    1.2879    2.3807 H   0  0  0  0  0  0  0  0  0  0  0  0
    3.1747    1.0715    1.9214 H   0  0  0  0  0  0  0  0  0  0  0  0
  1  2  1  0
  2  3  1  0
  3  4  2  0
  4  5  1  0
  5  6  2  0
  6  7  1  0
  7  8  1  0
  8  9  2  0
  8 10  1  0
 10 11  1  0
 11 12  1  0
 12 13  2  0
 13 14  1  0
 14 15  2  0
 15 16  1  0
 16 17  2  0
 17 18  1  0
 18 19  2  0
 19 20  1  0
 20 21  2  0
  6 22  1  0
 22  3  1  0
 21 12  1  0
 20 15  1  0
  1 23  1  0
  1 24  1  0
  1 25  1  0
  2 26  1  0
  2 27  1  0
  7 28  1  0
 10 29  1  0
 10 30  1  0
 13 31  1  0
 14 32  1  0
 16 33  1  0
 17 34  1  0
 18 35  1  0
 19 36  1  0
 21 37  1  0
M  END
$$$$
