
     RDKit          3D

 46 48  0  0  0  0  0  0  0  0999 V2000
   -4.7092   -2.6789   -2.1807 C   0  0  0  0  0  0  0  0  0  0  0  0
   -5.4135   -1.4488   -2.0372 O   0  0  0  0  0  0  0  0  0  0  0  0
   -5.0587   -0.6602   -0.9713 C   0  0  0  0  0  0  0  0  0  0  0  0
   -4.0232   -0.9111   -0.0706 C   0  0  0  0  0  0  0  0  0  0  0  0
   -3.7630   -0.0078    0.9735 C   0  0  0  0  0  0  0  0  0  0  0  0
   -2.6880   -0.2597    1.9374 C   0  0  0  0  0  0  0  0  0  0  0  0
   -1.3711   -0.2247    1.6868 C   0  0  0  0  0  0  0  0  0  0  0  0
   -0.2936   -0.4298    2.7110 C   0  0  0  0  0  0  0  0  0  0  0  0
    0.9078    0.3519    2.1865 C   0  0  0  0  0  0  0  0  0  0  0  0
    0.7224    0.3806    0.7032 C   0  0  0  0  0  0  0  0  0  0  0  0
    1.6117    0.5846   -0.2788 C   0  0  0  0  0  0  0  0  0  0  0  0
    3.0348    0.8728   -0.0741 C   0  0  0  0  0  0  0  0  0  0  0  0
    3.4514    1.9558    0.7128 C   0  0  0  0  0  0  0  0  0  0  0  0
    4.8092    2.2214    0.8806 C   0  0  0  0  0  0  0  0  0  0  0  0
    5.7425    1.4104    0.2458 C   0  0  0  0  0  0  0  0  0  0  0  0
    7.0699    1.6903    0.4245 O   0  0  0  0  0  0  0  0  0  0  0  0
    5.3533    0.3417   -0.5684 C   0  0  0  0  0  0  0  0  0  0  0  0
    6.3863   -0.3595   -1.1384 O   0  0  0  0  0  0  0  0  0  0  0  0
    6.0345   -1.2849   -2.1627 C   0  0  0  0  0  0  0  0  0  0  0  0
    3.9923    0.0751   -0.7237 C   0  0  0  0  0  0  0  0  0  0  0  0
   -0.7024    0.0860    0.3929 C   0  0  0  0  0  0  0  0  0  0  0  0
   -1.1947    0.0745   -0.7180 O   0  0  0  0  0  0  0  0  0  0  0  0
   -4.5586    1.1355    1.1215 C   0  0  0  0  0  0  0  0  0  0  0  0
   -5.5933    1.3937    0.2235 C   0  0  0  0  0  0  0  0  0  0  0  0
   -5.8268    0.4996   -0.8128 C   0  0  0  0  0  0  0  0  0  0  0  0
   -6.8418    0.7776   -1.6887 O   0  0  0  0  0  0  0  0  0  0  0  0
   -4.8135   -3.3052   -1.2871 H   0  0  0  0  0  0  0  0  0  0  0  0
   -3.6551   -2.5057   -2.4253 H   0  0  0  0  0  0  0  0  0  0  0  0
   -5.1615   -3.2256   -3.0159 H   0  0  0  0  0  0  0  0  0  0  0  0
   -3.3872   -1.7864   -0.1706 H   0  0  0  0  0  0  0  0  0  0  0  0
   -3.0342   -0.4616    2.9467 H   0  0  0  0  0  0  0  0  0  0  0  0
   -0.0512   -1.4970    2.7749 H   0  0  0  0  0  0  0  0  0  0  0  0
   -0.5833   -0.0830    3.7076 H   0  0  0  0  0  0  0  0  0  0  0  0
    0.8901    1.3730    2.5827 H   0  0  0  0  0  0  0  0  0  0  0  0
    1.8448   -0.1248    2.4897 H   0  0  0  0  0  0  0  0  0  0  0  0
    1.2918    0.5334   -1.3181 H   0  0  0  0  0  0  0  0  0  0  0  0
    2.7237    2.6065    1.1929 H   0  0  0  0  0  0  0  0  0  0  0  0
    5.1376    3.0563    1.4923 H   0  0  0  0  0  0  0  0  0  0  0  0
    7.5428    1.0121   -0.0948 H   0  0  0  0  0  0  0  0  0  0  0  0
    6.9629   -1.6651   -2.6013 H   0  0  0  0  0  0  0  0  0  0  0  0
    5.4652   -0.7969   -2.9615 H   0  0  0  0  0  0  0  0  0  0  0  0
    5.4873   -2.1393   -1.7491 H   0  0  0  0  0  0  0  0  0  0  0  0
    3.6503   -0.7541   -1.3343 H   0  0  0  0  0  0  0  0  0  0  0  0
   -4.3718    1.8399    1.9285 H   0  0  0  0  0  0  0  0  0  0  0  0
   -6.2050    2.2880    0.3225 H   0  0  0  0  0  0  0  0  0  0  0  0
   -6.8122    0.0493   -2.3370 H   0  0  0  0  0  0  0  0  0  0  0  0
  1  2  1  0
  2  3  1  0
  3  4  2  0
  4  5  1  0
  5  6  1  0
  6  7  2  3
  7  8  1  0
  8  9  1  0
  9 10  1  0
 10 11  2  3
 11 12  1  0
 12 13  2  0
 13 14  1  0
 14 15  2  0
 15 16  1  0
 15 17  1  0
 17 18  1  0
 18 19  1  0
 17 20  2  0
 10 21  1  0
 21 22  2  0
  5 23  2  0
 23 24  1  0
 24 25  2  0
 25 26  1  0
 25  3  1  0
 21  7  1  0
 20 12  1  0
  1 27  1  0
  1 28  1  0
  1 29  1  0
  4 30  1  0
  6 31  1  0
  8 32  1  0
  8 33  1  0
  9 34  1  0
  9 35  1  0
 11 36  1  0
 13 37  1  0
 14 38  1  0
 16 39  1  0
 19 40  1  0
 19 41  1  0
 19 42  1  0
 20 43  1  0
 23 44  1  0
 24 45  1  0
 26 46  1  0
M  END
$$$$
