
     RDKit          3D

 29 30  0  0  0  0  0  0  0  0999 V2000
    4.4501    2.4029   -0.5723 O   0  0  0  0  0  0  0  0  0  0  0  0
    3.4453    1.7332   -0.7737 C   0  0  0  0  0  0  0  0  0  0  0  0
    2.9178    0.7843    0.2277 C   0  0  0  0  0  0  0  0  0  0  0  0
    3.5597    0.6410    1.4616 C   0  0  0  0  0  0  0  0  0  0  0  0
    3.0667   -0.2680    2.3969 C   0  0  0  0  0  0  0  0  0  0  0  0
    1.9339   -1.0259    2.0994 C   0  0  0  0  0  0  0  0  0  0  0  0
    1.2822   -0.8656    0.8738 C   0  0  0  0  0  0  0  0  0  0  0  0
    0.1837   -1.6716    0.6606 O   0  0  0  0  0  0  0  0  0  0  0  0
   -0.8939   -1.0996    0.0309 C   0  0  0  0  0  0  0  0  0  0  0  0
   -1.1978   -1.5658   -1.2522 C   0  0  0  0  0  0  0  0  0  0  0  0
   -2.2855   -1.0357   -1.9543 C   0  0  0  0  0  0  0  0  0  0  0  0
   -3.0836   -0.0440   -1.3609 C   0  0  0  0  0  0  0  0  0  0  0  0
   -4.2248    0.5095   -2.1028 N   0  0  0  0  0  4  0  0  0  0  0  0
   -4.3801    0.1415   -3.2747 O   0  0  0  0  0  0  0  0  0  0  0  0
   -4.9578    1.3109   -1.5089 O   0  0  0  0  0  1  0  0  0  0  0  0
   -2.8106    0.4137   -0.0659 C   0  0  0  0  0  0  0  0  0  0  0  0
   -1.7201   -0.1364    0.6210 C   0  0  0  0  0  0  0  0  0  0  0  0
   -1.4826    0.3042    1.9814 N   0  0  0  0  0  4  0  0  0  0  0  0
   -1.3554    1.5231    2.1553 O   0  0  0  0  0  0  0  0  0  0  0  0
   -1.4605   -0.5609    2.8655 O   0  0  0  0  0  1  0  0  0  0  0  0
    1.7796    0.0304   -0.0763 C   0  0  0  0  0  0  0  0  0  0  0  0
    2.8877    1.8097   -1.7220 H   0  0  0  0  0  0  0  0  0  0  0  0
    4.4442    1.2315    1.6939 H   0  0  0  0  0  0  0  0  0  0  0  0
    3.5643   -0.3852    3.3569 H   0  0  0  0  0  0  0  0  0  0  0  0
    1.5503   -1.7330    2.8323 H   0  0  0  0  0  0  0  0  0  0  0  0
   -0.5834   -2.3400   -1.7093 H   0  0  0  0  0  0  0  0  0  0  0  0
   -2.4998   -1.4079   -2.9557 H   0  0  0  0  0  0  0  0  0  0  0  0
   -3.4331    1.1709    0.4093 H   0  0  0  0  0  0  0  0  0  0  0  0
    1.3035    0.1328   -1.0459 H   0  0  0  0  0  0  0  0  0  0  0  0
  1  2  2  0
  2  3  1  0
  3  4  2  0
  4  5  1  0
  5  6  2  0
  6  7  1  0
  7  8  1  0
  8  9  1  0
  9 10  2  0
 10 11  1  0
 11 12  2  0
 12 13  1  0
 13 14  2  0
 13 15  1  0
 12 16  1  0
 16 17  2  0
 17 18  1  0
 18 19  2  0
 18 20  1  0
  7 21  2  0
 21  3  1  0
 17  9  1  0
  2 22  1  0
  4 23  1  0
  5 24  1  0
  6 25  1  0
 10 26  1  0
 11 27  1  0
 16 28  1  0
 21 29  1  0
M  CHG  4  13   1  15  -1  18   1  20  -1
M  END
$$$$
