
     RDKit          3D

 64 69  0  0  0  0  0  0  0  0999 V2000
   -9.4223    1.8904    0.8553 C   0  0  0  0  0  0  0  0  0  0  0  0
   -8.3289    2.7068    0.4555 O   0  0  0  0  0  0  0  0  0  0  0  0
   -7.0970    2.1152    0.4202 C   0  0  0  0  0  0  0  0  0  0  0  0
   -6.8116    0.7901    0.7424 C   0  0  0  0  0  0  0  0  0  0  0  0
   -5.4972    0.3083    0.6627 C   0  0  0  0  0  0  0  0  0  0  0  0
   -4.4483    1.1498    0.2689 C   0  0  0  0  0  0  0  0  0  0  0  0
   -3.1036    0.6557    0.1873 N   0  0  0  0  0  0  0  0  0  0  0  0
   -1.9187    1.3893    0.3590 C   0  0  0  0  0  0  0  0  0  0  0  0
   -1.8899    2.6859    0.7727 N   0  0  0  0  0  0  0  0  0  0  0  0
   -0.8260    0.5702    0.0971 C   0  0  0  0  0  0  0  0  0  0  0  0
    0.5814    0.9767    0.1708 C   0  0  0  0  0  0  0  0  0  0  0  0
    0.8854    2.1220    0.4783 O   0  0  0  0  0  0  0  0  0  0  0  0
    1.4643   -0.0302   -0.1669 N   0  0  0  0  0  0  0  0  0  0  0  0
    2.8333   -0.0152   -0.1349 C   0  0  0  0  0  0  0  0  0  0  0  0
    3.6421   -0.9481   -0.6735 C   0  0  0  0  0  0  0  0  0  0  0  0
    3.2295   -2.1619   -1.4467 C   0  0  0  0  0  0  0  0  0  0  0  0
    5.0055   -0.6893   -0.4713 N   0  0  0  0  0  0  0  0  0  0  0  0
    5.8126   -1.7461    0.1669 C   0  0  0  0  0  0  0  0  0  0  0  0
    5.0574    0.5547    0.2180 N   0  0  0  0  0  0  0  0  0  0  0  0
    6.2161    1.3757    0.1862 C   0  0  0  0  0  0  0  0  0  0  0  0
    7.2986    1.0695   -0.6547 C   0  0  0  0  0  0  0  0  0  0  0  0
    8.4411    1.8759   -0.6894 C   0  0  0  0  0  0  0  0  0  0  0  0
    8.5193    3.0077    0.1155 C   0  0  0  0  0  0  0  0  0  0  0  0
    7.4536    3.3345    0.9483 C   0  0  0  0  0  0  0  0  0  0  0  0
    6.3112    2.5267    0.9799 C   0  0  0  0  0  0  0  0  0  0  0  0
    3.7517    0.9749    0.5301 C   0  0  0  0  0  0  0  0  0  0  0  0
    3.4089    1.9315    1.2031 O   0  0  0  0  0  0  0  0  0  0  0  0
   -1.3533   -0.7074   -0.1975 C   0  0  0  0  0  0  0  0  0  0  0  0
   -0.6892   -1.8528   -0.5190 N   0  0  0  0  0  0  0  0  0  0  0  0
   -1.4841   -2.9120   -0.7437 C   0  0  0  0  0  0  0  0  0  0  0  0
   -0.8912   -4.1247   -1.0739 C   0  0  0  0  0  0  0  0  0  0  0  0
   -1.6531   -5.2671   -1.3236 C   0  0  0  0  0  0  0  0  0  0  0  0
   -3.0364   -5.1968   -1.2426 C   0  0  0  0  0  0  0  0  0  0  0  0
   -3.6443   -3.9853   -0.9113 C   0  0  0  0  0  0  0  0  0  0  0  0
   -2.8978   -2.8418   -0.6584 C   0  0  0  0  0  0  0  0  0  0  0  0
   -3.5506   -1.7140   -0.3437 N   0  0  0  0  0  0  0  0  0  0  0  0
   -2.7374   -0.6564   -0.1084 C   0  0  0  0  0  0  0  0  0  0  0  0
   -4.7437    2.4771   -0.0662 C   0  0  0  0  0  0  0  0  0  0  0  0
   -6.0574    2.9516    0.0134 C   0  0  0  0  0  0  0  0  0  0  0  0
   -9.5683    1.0575    0.1596 H   0  0  0  0  0  0  0  0  0  0  0  0
   -9.2924    1.5311    1.8816 H   0  0  0  0  0  0  0  0  0  0  0  0
  -10.3262    2.5068    0.8309 H   0  0  0  0  0  0  0  0  0  0  0  0
   -7.5850    0.1000    1.0628 H   0  0  0  0  0  0  0  0  0  0  0  0
   -5.3217   -0.7258    0.9477 H   0  0  0  0  0  0  0  0  0  0  0  0
   -0.9650    3.0765    0.9974 H   0  0  0  0  0  0  0  0  0  0  0  0
   -2.5996    3.0320    1.4165 H   0  0  0  0  0  0  0  0  0  0  0  0
    1.0315   -0.8805   -0.5171 H   0  0  0  0  0  0  0  0  0  0  0  0
    2.1930   -2.1098   -1.7911 H   0  0  0  0  0  0  0  0  0  0  0  0
    3.3380   -3.0618   -0.8330 H   0  0  0  0  0  0  0  0  0  0  0  0
    3.8556   -2.2745   -2.3386 H   0  0  0  0  0  0  0  0  0  0  0  0
    6.8467   -1.4317    0.3335 H   0  0  0  0  0  0  0  0  0  0  0  0
    5.8467   -2.6336   -0.4739 H   0  0  0  0  0  0  0  0  0  0  0  0
    5.3852   -2.0308    1.1355 H   0  0  0  0  0  0  0  0  0  0  0  0
    7.2548    0.2155   -1.3247 H   0  0  0  0  0  0  0  0  0  0  0  0
    9.2626    1.6238   -1.3548 H   0  0  0  0  0  0  0  0  0  0  0  0
    9.4035    3.6388    0.0883 H   0  0  0  0  0  0  0  0  0  0  0  0
    7.5030    4.2204    1.5768 H   0  0  0  0  0  0  0  0  0  0  0  0
    5.5073    2.8140    1.6529 H   0  0  0  0  0  0  0  0  0  0  0  0
    0.1924   -4.1853   -1.1392 H   0  0  0  0  0  0  0  0  0  0  0  0
   -1.1653   -6.2043   -1.5805 H   0  0  0  0  0  0  0  0  0  0  0  0
   -3.6448   -6.0770   -1.4357 H   0  0  0  0  0  0  0  0  0  0  0  0
   -4.7291   -3.9310   -0.8495 H   0  0  0  0  0  0  0  0  0  0  0  0
   -3.9812    3.1557   -0.4411 H   0  0  0  0  0  0  0  0  0  0  0  0
   -6.2718    3.9828   -0.2580 H   0  0  0  0  0  0  0  0  0  0  0  0
  1  2  1  0
  2  3  1  0
  3  4  2  0
  4  5  1  0
  5  6  2  0
  6  7  1  0
  7  8  1  0
  8  9  1  0
  8 10  2  0
 10 11  1  0
 11 12  2  0
 11 13  1  0
 13 14  1  0
 14 15  2  0
 15 16  1  0
 15 17  1  0
 17 18  1  0
 17 19  1  0
 19 20  1  0
 20 21  2  0
 21 22  1  0
 22 23  2  0
 23 24  1  0
 24 25  2  0
 19 26  1  0
 26 27  2  0
 10 28  1  0
 28 29  2  0
 29 30  1  0
 30 31  2  0
 31 32  1  0
 32 33  2  0
 33 34  1  0
 34 35  2  0
 35 36  1  0
 36 37  2  0
  6 38  1  0
 38 39  2  0
 39  3  1  0
 37  7  1  0
 26 14  1  0
 37 28  1  0
 25 20  1  0
 35 30  1  0
  1 40  1  0
  1 41  1  0
  1 42  1  0
  4 43  1  0
  5 44  1  0
  9 45  1  0
  9 46  1  0
 13 47  1  0
 16 48  1  0
 16 49  1  0
 16 50  1  0
 18 51  1  0
 18 52  1  0
 18 53  1  0
 21 54  1  0
 22 55  1  0
 23 56  1  0
 24 57  1  0
 25 58  1  0
 31 59  1  0
 32 60  1  0
 33 61  1  0
 34 62  1  0
 38 63  1  0
 39 64  1  0
M  END
$$$$
