
     RDKit          3D

 60 63  0  0  0  0  0  0  0  0999 V2000
    9.1756   -2.2873   -1.4814 C   0  0  0  0  0  0  0  0  0  0  0  0
    7.7732   -2.1180   -0.9173 C   0  0  0  0  0  0  0  0  0  0  0  0
    7.7244   -0.8717   -0.2247 O   0  0  0  0  0  0  0  0  0  0  0  0
    6.5157   -0.4899    0.2901 C   0  0  0  0  0  0  0  0  0  0  0  0
    5.3563   -1.2622    0.3219 C   0  0  0  0  0  0  0  0  0  0  0  0
    4.1827   -0.7471    0.8861 C   0  0  0  0  0  0  0  0  0  0  0  0
    4.1524    0.5481    1.4224 C   0  0  0  0  0  0  0  0  0  0  0  0
    2.8792    1.1150    2.0002 C   0  0  0  0  0  0  0  0  0  0  0  0
    1.9605    1.5029    0.9582 N   0  0  0  0  0  0  0  0  0  0  0  0
    2.0072    2.7504    0.3687 C   0  0  0  0  0  0  0  0  0  0  0  0
    2.7663    3.6422    0.7420 O   0  0  0  0  0  0  0  0  0  0  0  0
    1.1497    2.8845   -0.8899 C   0  0  0  0  0  0  0  0  0  0  0  0
    0.0053    1.9698   -0.8855 N   0  0  0  0  0  0  0  0  0  0  0  0
    0.2469    0.6609   -1.3389 N   0  0  0  0  0  0  0  0  0  0  0  0
   -0.7138   -0.2242   -1.3719 C   0  0  0  0  0  0  0  0  0  0  0  0
   -0.3892   -1.6068   -1.8635 C   0  0  0  0  0  0  0  0  0  0  0  0
   -2.0361    0.1457   -0.9295 C   0  0  0  0  0  0  0  0  0  0  0  0
   -3.2633   -0.4991   -0.9080 C   0  0  0  0  0  0  0  0  0  0  0  0
   -3.6635   -1.8033   -1.4959 C   0  0  0  0  0  0  0  0  0  0  0  0
   -4.1351    0.3822   -0.2530 N   0  0  0  0  0  0  0  0  0  0  0  0
   -5.4686    0.1938    0.2278 C   0  0  0  0  0  0  0  0  0  0  0  0
   -6.2360    1.3269    0.5492 C   0  0  0  0  0  0  0  0  0  0  0  0
   -7.5440    1.1944    1.0226 C   0  0  0  0  0  0  0  0  0  0  0  0
   -8.1120   -0.0714    1.1892 C   0  0  0  0  0  0  0  0  0  0  0  0
   -9.5098   -0.2065    1.7194 C   0  0  0  0  0  0  0  0  0  0  0  0
   -7.3373   -1.2017    0.9074 C   0  0  0  0  0  0  0  0  0  0  0  0
   -6.0252   -1.0730    0.4332 C   0  0  0  0  0  0  0  0  0  0  0  0
   -3.5505    1.5992   -0.0775 N   0  0  0  0  0  0  0  0  0  0  0  0
   -2.2757    1.4310   -0.4316 C   0  0  0  0  0  0  0  0  0  0  0  0
   -1.2216    2.4366   -0.3682 C   0  0  0  0  0  0  0  0  0  0  0  0
   -1.3841    3.5697    0.0781 O   0  0  0  0  0  0  0  0  0  0  0  0
    5.3191    1.3218    1.3778 C   0  0  0  0  0  0  0  0  0  0  0  0
    6.4903    0.7998    0.8239 C   0  0  0  0  0  0  0  0  0  0  0  0
    9.2711   -3.2385   -2.0182 H   0  0  0  0  0  0  0  0  0  0  0  0
    9.4168   -1.4699   -2.1669 H   0  0  0  0  0  0  0  0  0  0  0  0
    9.9191   -2.2582   -0.6791 H   0  0  0  0  0  0  0  0  0  0  0  0
    7.0544   -2.1266   -1.7463 H   0  0  0  0  0  0  0  0  0  0  0  0
    7.5606   -2.9444   -0.2262 H   0  0  0  0  0  0  0  0  0  0  0  0
    5.3313   -2.2683   -0.0783 H   0  0  0  0  0  0  0  0  0  0  0  0
    3.2866   -1.3663    0.9038 H   0  0  0  0  0  0  0  0  0  0  0  0
    2.3812    0.3553    2.6129 H   0  0  0  0  0  0  0  0  0  0  0  0
    3.0883    1.9733    2.6517 H   0  0  0  0  0  0  0  0  0  0  0  0
    1.5318    0.7755    0.3951 H   0  0  0  0  0  0  0  0  0  0  0  0
    1.7723    2.6590   -1.7626 H   0  0  0  0  0  0  0  0  0  0  0  0
    0.7985    3.9187   -0.9606 H   0  0  0  0  0  0  0  0  0  0  0  0
   -0.8286   -2.3597   -1.2048 H   0  0  0  0  0  0  0  0  0  0  0  0
   -0.7734   -1.7335   -2.8791 H   0  0  0  0  0  0  0  0  0  0  0  0
    0.6951   -1.7555   -1.8806 H   0  0  0  0  0  0  0  0  0  0  0  0
   -3.5274   -2.6123   -0.7708 H   0  0  0  0  0  0  0  0  0  0  0  0
   -3.0601   -2.0376   -2.3805 H   0  0  0  0  0  0  0  0  0  0  0  0
   -4.6996   -1.7908   -1.8478 H   0  0  0  0  0  0  0  0  0  0  0  0
   -5.8307    2.3307    0.4288 H   0  0  0  0  0  0  0  0  0  0  0  0
   -8.1129    2.0898    1.2629 H   0  0  0  0  0  0  0  0  0  0  0  0
   -9.5225   -0.0262    2.7991 H   0  0  0  0  0  0  0  0  0  0  0  0
   -9.9131   -1.2059    1.5279 H   0  0  0  0  0  0  0  0  0  0  0  0
  -10.1752    0.5109    1.2295 H   0  0  0  0  0  0  0  0  0  0  0  0
   -7.7478   -2.1976    1.0673 H   0  0  0  0  0  0  0  0  0  0  0  0
   -5.4634   -1.9876    0.2860 H   0  0  0  0  0  0  0  0  0  0  0  0
    5.3202    2.3426    1.7619 H   0  0  0  0  0  0  0  0  0  0  0  0
    7.3885    1.4101    0.7997 H   0  0  0  0  0  0  0  0  0  0  0  0
  1  2  1  0
  2  3  1  0
  3  4  1  0
  4  5  2  0
  5  6  1  0
  6  7  2  0
  7  8  1  0
  8  9  1  0
  9 10  1  0
 10 11  2  0
 10 12  1  0
 12 13  1  0
 13 14  1  0
 14 15  2  0
 15 16  1  0
 15 17  1  0
 17 18  2  0
 18 19  1  0
 18 20  1  0
 20 21  1  0
 21 22  2  0
 22 23  1  0
 23 24  2  0
 24 25  1  0
 24 26  1  0
 26 27  2  0
 20 28  1  0
 28 29  2  0
 29 30  1  0
 30 31  2  0
  7 32  1  0
 32 33  2  0
 33  4  1  0
 30 13  1  0
 29 17  1  0
 27 21  1  0
  1 34  1  0
  1 35  1  0
  1 36  1  0
  2 37  1  0
  2 38  1  0
  5 39  1  0
  6 40  1  0
  8 41  1  0
  8 42  1  0
  9 43  1  0
 12 44  1  0
 12 45  1  0
 16 46  1  0
 16 47  1  0
 16 48  1  0
 19 49  1  0
 19 50  1  0
 19 51  1  0
 22 52  1  0
 23 53  1  0
 25 54  1  0
 25 55  1  0
 25 56  1  0
 26 57  1  0
 27 58  1  0
 32 59  1  0
 33 60  1  0
M  END
$$$$
