
     RDKit          3D

 38 39  0  0  0  0  0  0  0  0999 V2000
   -3.3567   -1.5437    1.5621 C   0  0  0  0  0  0  0  0  0  0  0  0
   -2.9666   -0.5628    0.6078 O   0  0  0  0  0  0  0  0  0  0  0  0
   -3.7291    0.5664    0.4899 C   0  0  0  0  0  0  0  0  0  0  0  0
   -4.9177    0.7755    1.2045 C   0  0  0  0  0  0  0  0  0  0  0  0
   -5.6764    1.9337    1.0125 C   0  0  0  0  0  0  0  0  0  0  0  0
   -5.2624    2.8965    0.1001 C   0  0  0  0  0  0  0  0  0  0  0  0
   -4.0830    2.7040   -0.6161 C   0  0  0  0  0  0  0  0  0  0  0  0
   -3.3029    1.5489   -0.4233 C   0  0  0  0  0  0  0  0  0  0  0  0
   -2.0462    1.4556   -1.2315 C   0  0  0  0  0  0  0  0  0  0  0  0
   -1.9746    2.0970   -2.2822 O   0  0  0  0  0  0  0  0  0  0  0  0
   -0.8871    0.6143   -0.7137 C   0  0  0  0  0  0  0  0  0  0  0  0
    0.3225    1.0128   -1.3686 O   0  0  0  0  0  0  0  0  0  0  0  0
    1.4131    0.3091   -0.9768 C   0  0  0  0  0  0  0  0  0  0  0  0
    1.4263   -0.5760   -0.1411 O   0  0  0  0  0  0  0  0  0  0  0  0
    2.5664    0.8259   -1.7499 C   0  0  0  0  0  0  0  0  0  0  0  0
    3.8342    0.3878   -1.7018 C   0  0  0  0  0  0  0  0  0  0  0  0
    4.3745   -0.7161   -0.9046 C   0  0  0  0  0  0  0  0  0  0  0  0
    5.3715   -0.4531    0.0419 C   0  0  0  0  0  0  0  0  0  0  0  0
    5.9332   -1.4944    0.7843 C   0  0  0  0  0  0  0  0  0  0  0  0
    5.5077   -2.8057    0.5793 C   0  0  0  0  0  0  0  0  0  0  0  0
    4.5224   -3.0770   -0.3685 C   0  0  0  0  0  0  0  0  0  0  0  0
    3.9609   -2.0365   -1.1121 C   0  0  0  0  0  0  0  0  0  0  0  0
   -4.3273   -1.9793    1.3037 H   0  0  0  0  0  0  0  0  0  0  0  0
   -2.6142   -2.3471    1.5361 H   0  0  0  0  0  0  0  0  0  0  0  0
   -3.3629   -1.1289    2.5753 H   0  0  0  0  0  0  0  0  0  0  0  0
   -5.2925    0.0484    1.9184 H   0  0  0  0  0  0  0  0  0  0  0  0
   -6.5975    2.0783    1.5728 H   0  0  0  0  0  0  0  0  0  0  0  0
   -5.8544    3.7948   -0.0569 H   0  0  0  0  0  0  0  0  0  0  0  0
   -3.7678    3.4651   -1.3289 H   0  0  0  0  0  0  0  0  0  0  0  0
   -1.0848   -0.4351   -0.9550 H   0  0  0  0  0  0  0  0  0  0  0  0
   -0.7734    0.7775    0.3632 H   0  0  0  0  0  0  0  0  0  0  0  0
    2.3330    1.6611   -2.4046 H   0  0  0  0  0  0  0  0  0  0  0  0
    4.5787    0.8977   -2.3106 H   0  0  0  0  0  0  0  0  0  0  0  0
    5.7136    0.5646    0.2134 H   0  0  0  0  0  0  0  0  0  0  0  0
    6.7006   -1.2813    1.5235 H   0  0  0  0  0  0  0  0  0  0  0  0
    5.9412   -3.6158    1.1596 H   0  0  0  0  0  0  0  0  0  0  0  0
    4.1859   -4.0979   -0.5276 H   0  0  0  0  0  0  0  0  0  0  0  0
    3.1919   -2.2643   -1.8460 H   0  0  0  0  0  0  0  0  0  0  0  0
  1  2  1  0
  2  3  1  0
  3  4  2  0
  4  5  1  0
  5  6  2  0
  6  7  1  0
  7  8  2  0
  8  9  1  0
  9 10  2  0
  9 11  1  0
 11 12  1  0
 12 13  1  0
 13 14  2  0
 13 15  1  0
 15 16  2  3
 16 17  1  0
 17 18  2  0
 18 19  1  0
 19 20  2  0
 20 21  1  0
 21 22  2  0
  8  3  1  0
 22 17  1  0
  1 23  1  0
  1 24  1  0
  1 25  1  0
  4 26  1  0
  5 27  1  0
  6 28  1  0
  7 29  1  0
 11 30  1  0
 11 31  1  0
 15 32  1  0
 16 33  1  0
 18 34  1  0
 19 35  1  0
 20 36  1  0
 21 37  1  0
 22 38  1  0
M  END
$$$$
