
     RDKit          3D

 63 65  0  0  0  0  0  0  0  0999 V2000
    3.3606    6.4662    4.7083 C   0  0  0  0  0  0  0  0  0  0  0  0
    2.2798    5.6086    4.3653 O   0  0  0  0  0  0  0  0  0  0  0  0
    2.0324    5.4283    3.0323 C   0  0  0  0  0  0  0  0  0  0  0  0
    2.7587    5.9849    1.9806 C   0  0  0  0  0  0  0  0  0  0  0  0
    2.3966    5.7139    0.6585 C   0  0  0  0  0  0  0  0  0  0  0  0
    1.3106    4.8843    0.3827 C   0  0  0  0  0  0  0  0  0  0  0  0
    0.5715    4.3157    1.4271 C   0  0  0  0  0  0  0  0  0  0  0  0
   -0.5959    3.4039    1.1309 C   0  0  0  0  0  0  0  0  0  0  0  0
   -0.1544    2.1084    0.6171 N   0  0  0  0  0  0  0  0  0  0  0  0
    0.3254    1.1324    1.5997 C   0  0  0  0  0  0  0  0  0  0  0  0
   -0.8130    0.2729    2.1659 C   0  0  0  0  0  0  0  0  0  0  0  0
   -1.9925    0.6101    2.1408 O   0  0  0  0  0  0  0  0  0  0  0  0
   -0.3850   -0.9149    2.7242 N   0  0  0  0  0  0  0  0  0  0  0  0
   -1.3255   -1.8907    3.2455 C   0  0  0  0  0  0  0  0  0  0  0  0
   -2.1197   -2.6277    2.1624 C   0  0  0  0  0  0  0  0  0  0  0  0
   -1.2542   -3.3266    1.1252 C   0  0  0  0  0  0  0  0  0  0  0  0
   -2.2001   -4.3815    0.6094 C   0  0  0  0  0  0  0  0  0  0  0  0
   -2.9287   -4.7973    1.8698 C   0  0  0  0  0  0  0  0  0  0  0  0
   -2.9174   -3.6699    2.7588 O   0  0  0  0  0  0  0  0  0  0  0  0
   -0.3290    1.8300   -0.7312 C   0  0  0  0  0  0  0  0  0  0  0  0
   -0.7177    2.6744   -1.5381 O   0  0  0  0  0  0  0  0  0  0  0  0
    0.0014    0.4205   -1.1875 C   0  0  0  0  0  0  0  0  0  0  0  0
   -0.3782    0.1929   -2.6466 C   0  0  0  0  0  0  0  0  0  0  0  0
   -0.0973   -1.2333   -3.0748 C   0  0  0  0  0  0  0  0  0  0  0  0
    0.3582   -2.0727   -2.3039 O   0  0  0  0  0  0  0  0  0  0  0  0
   -0.4129   -1.4408   -4.3969 N   0  0  0  0  0  0  0  0  0  0  0  0
   -0.2393   -2.6226   -5.0819 C   0  0  0  0  0  0  0  0  0  0  0  0
    0.2683   -3.8592   -4.6289 C   0  0  0  0  0  0  0  0  0  0  0  0
    0.2257   -4.6758   -5.7309 C   0  0  0  0  0  0  0  0  0  0  0  0
    0.5985   -6.0768   -5.9899 C   0  0  0  0  0  0  0  0  0  0  0  0
   -0.2712   -3.9757   -6.7822 O   0  0  0  0  0  0  0  0  0  0  0  0
   -0.5694   -2.6884   -6.3758 N   0  0  0  0  0  0  0  0  0  0  0  0
    0.9431    4.5983    2.7496 C   0  0  0  0  0  0  0  0  0  0  0  0
    4.3124    6.0646    4.3453 H   0  0  0  0  0  0  0  0  0  0  0  0
    3.4151    6.5150    5.8003 H   0  0  0  0  0  0  0  0  0  0  0  0
    3.1930    7.4824    4.3377 H   0  0  0  0  0  0  0  0  0  0  0  0
    3.6093    6.6350    2.1518 H   0  0  0  0  0  0  0  0  0  0  0  0
    2.9615    6.1522   -0.1600 H   0  0  0  0  0  0  0  0  0  0  0  0
    1.0369    4.6825   -0.6516 H   0  0  0  0  0  0  0  0  0  0  0  0
   -1.2603    3.9039    0.4163 H   0  0  0  0  0  0  0  0  0  0  0  0
   -1.1964    3.2343    2.0321 H   0  0  0  0  0  0  0  0  0  0  0  0
    1.0719    0.4813    1.1364 H   0  0  0  0  0  0  0  0  0  0  0  0
    0.8117    1.6520    2.4312 H   0  0  0  0  0  0  0  0  0  0  0  0
    0.5865   -1.1882    2.6456 H   0  0  0  0  0  0  0  0  0  0  0  0
   -2.0192   -1.3827    3.9259 H   0  0  0  0  0  0  0  0  0  0  0  0
   -0.7566   -2.6031    3.8539 H   0  0  0  0  0  0  0  0  0  0  0  0
   -2.8109   -1.9371    1.6638 H   0  0  0  0  0  0  0  0  0  0  0  0
   -0.8930   -2.6528    0.3440 H   0  0  0  0  0  0  0  0  0  0  0  0
   -0.3882   -3.8074    1.5961 H   0  0  0  0  0  0  0  0  0  0  0  0
   -1.7004   -5.2159    0.1104 H   0  0  0  0  0  0  0  0  0  0  0  0
   -2.9063   -3.9342   -0.0996 H   0  0  0  0  0  0  0  0  0  0  0  0
   -2.4120   -5.6209    2.3734 H   0  0  0  0  0  0  0  0  0  0  0  0
   -3.9609   -5.1014    1.6741 H   0  0  0  0  0  0  0  0  0  0  0  0
    1.0773    0.2552   -1.0629 H   0  0  0  0  0  0  0  0  0  0  0  0
   -0.5415   -0.2935   -0.5600 H   0  0  0  0  0  0  0  0  0  0  0  0
   -1.4459    0.3951   -2.7959 H   0  0  0  0  0  0  0  0  0  0  0  0
    0.1904    0.8702   -3.2951 H   0  0  0  0  0  0  0  0  0  0  0  0
   -0.7965   -0.6925   -4.9591 H   0  0  0  0  0  0  0  0  0  0  0  0
    0.6198   -4.1224   -3.6429 H   0  0  0  0  0  0  0  0  0  0  0  0
   -0.1462   -6.5676   -6.6252 H   0  0  0  0  0  0  0  0  0  0  0  0
    0.6703   -6.6416   -5.0550 H   0  0  0  0  0  0  0  0  0  0  0  0
    1.5683   -6.1252   -6.4945 H   0  0  0  0  0  0  0  0  0  0  0  0
    0.3807    4.1708    3.5779 H   0  0  0  0  0  0  0  0  0  0  0  0
  1  2  1  0
  2  3  1  0
  3  4  2  0
  4  5  1  0
  5  6  2  0
  6  7  1  0
  7  8  1  0
  8  9  1  0
  9 10  1  0
 10 11  1  0
 11 12  2  0
 11 13  1  0
 13 14  1  0
 14 15  1  0
 15 16  1  0
 16 17  1  0
 17 18  1  0
 18 19  1  0
  9 20  1  0
 20 21  2  0
 20 22  1  0
 22 23  1  0
 23 24  1  0
 24 25  2  0
 24 26  1  0
 26 27  1  0
 27 28  1  0
 28 29  2  0
 29 30  1  0
 29 31  1  0
 31 32  1  0
  7 33  2  0
 33  3  1  0
 19 15  1  0
 32 27  2  0
  1 34  1  0
  1 35  1  0
  1 36  1  0
  4 37  1  0
  5 38  1  0
  6 39  1  0
  8 40  1  0
  8 41  1  0
 10 42  1  0
 10 43  1  0
 13 44  1  0
 14 45  1  0
 14 46  1  0
 15 47  1  0
 16 48  1  0
 16 49  1  0
 17 50  1  0
 17 51  1  0
 18 52  1  0
 18 53  1  0
 22 54  1  0
 22 55  1  0
 23 56  1  0
 23 57  1  0
 26 58  1  0
 28 59  1  0
 30 60  1  0
 30 61  1  0
 30 62  1  0
 33 63  1  0
M  END
$$$$
