
     RDKit          3D

 57 61  0  0  0  0  0  0  0  0999 V2000
    6.4514    0.5794    0.6713 C   0  0  0  0  0  0  0  0  0  0  0  0
    5.0494    0.6244    0.0555 C   0  0  0  0  0  0  0  0  0  0  0  0
    4.8188    1.9922   -0.5840 C   0  0  0  0  0  0  0  0  0  0  0  0
    3.9828    0.3356    1.1183 C   0  0  0  0  0  0  0  0  0  0  0  0
    4.2734    0.3408    2.3178 O   0  0  0  0  0  0  0  0  0  0  0  0
    2.6764    0.0959    0.7038 N   0  0  0  0  0  0  0  0  0  0  0  0
    1.6600   -0.0639    1.7407 C   0  0  0  0  0  0  0  0  0  0  0  0
    0.2552    0.1512    1.1870 C   0  0  0  0  0  0  0  0  0  0  0  0
   -0.0937   -0.8942    0.0918 C   0  0  0  0  0  0  0  0  0  0  0  0
    1.1870   -1.2283   -0.7365 C   0  0  0  0  0  0  0  0  0  0  0  0
    2.2405   -0.1258   -0.6747 C   0  0  0  0  0  0  0  0  0  0  0  0
   -0.4854   -2.0774    0.8392 O   0  0  0  0  0  0  0  0  0  0  0  0
   -1.0688   -3.0807    0.1196 C   0  0  0  0  0  0  0  0  0  0  0  0
   -1.0797   -4.3408    0.7196 C   0  0  0  0  0  0  0  0  0  0  0  0
   -1.6417   -5.4272    0.0474 C   0  0  0  0  0  0  0  0  0  0  0  0
   -2.1935   -5.2436   -1.2167 C   0  0  0  0  0  0  0  0  0  0  0  0
   -2.7309   -6.2888   -1.8575 F   0  0  0  0  0  0  0  0  0  0  0  0
   -2.2031   -3.9924   -1.8195 C   0  0  0  0  0  0  0  0  0  0  0  0
   -1.6448   -2.9077   -1.1381 C   0  0  0  0  0  0  0  0  0  0  0  0
   -1.6801   -1.5575   -1.7281 C   0  0  0  0  0  0  0  0  0  0  0  0
   -2.0646   -1.4132   -2.8840 O   0  0  0  0  0  0  0  0  0  0  0  0
   -1.2735   -0.4156   -0.8014 C   0  0  0  0  0  0  0  0  0  0  0  0
   -2.5251    0.0469   -0.0652 C   0  0  0  0  0  0  0  0  0  0  0  0
   -2.4049    1.5155   -0.2773 C   0  0  0  0  0  0  0  0  0  0  0  0
   -3.2808    2.4848    0.4223 C   0  0  0  0  0  0  0  0  0  0  0  0
   -4.3287    2.0614    1.2488 C   0  0  0  0  0  0  0  0  0  0  0  0
   -5.1336    3.0046    1.8968 C   0  0  0  0  0  0  0  0  0  0  0  0
   -4.8937    4.3664    1.7182 C   0  0  0  0  0  0  0  0  0  0  0  0
   -5.8864    5.5203    2.5182 Cl  0  0  0  0  0  0  0  0  0  0  0  0
   -3.8558    4.7963    0.8951 C   0  0  0  0  0  0  0  0  0  0  0  0
   -3.0503    3.8562    0.2466 C   0  0  0  0  0  0  0  0  0  0  0  0
   -1.4835    1.8724   -1.1128 N   0  0  0  0  0  0  0  0  0  0  0  0
   -0.8651    0.7007   -1.6008 O   0  0  0  0  0  0  0  0  0  0  0  0
    6.5808    1.3546    1.4349 H   0  0  0  0  0  0  0  0  0  0  0  0
    7.2181    0.7289   -0.0963 H   0  0  0  0  0  0  0  0  0  0  0  0
    6.6364   -0.3901    1.1467 H   0  0  0  0  0  0  0  0  0  0  0  0
    5.0185   -0.1603   -0.7061 H   0  0  0  0  0  0  0  0  0  0  0  0
    5.6030    2.2180   -1.3144 H   0  0  0  0  0  0  0  0  0  0  0  0
    4.8204    2.7849    0.1727 H   0  0  0  0  0  0  0  0  0  0  0  0
    3.8598    2.0449   -1.1055 H   0  0  0  0  0  0  0  0  0  0  0  0
    1.7675   -1.0704    2.1622 H   0  0  0  0  0  0  0  0  0  0  0  0
    1.8508    0.6522    2.5483 H   0  0  0  0  0  0  0  0  0  0  0  0
    0.2087    1.1710    0.7908 H   0  0  0  0  0  0  0  0  0  0  0  0
   -0.4566    0.0885    2.0188 H   0  0  0  0  0  0  0  0  0  0  0  0
    1.6372   -2.1581   -0.3626 H   0  0  0  0  0  0  0  0  0  0  0  0
    0.9427   -1.4176   -1.7878 H   0  0  0  0  0  0  0  0  0  0  0  0
    1.8360    0.8193   -1.0523 H   0  0  0  0  0  0  0  0  0  0  0  0
    3.0814   -0.4026   -1.3122 H   0  0  0  0  0  0  0  0  0  0  0  0
   -0.6401   -4.4814    1.7045 H   0  0  0  0  0  0  0  0  0  0  0  0
   -1.6500   -6.4152    0.4986 H   0  0  0  0  0  0  0  0  0  0  0  0
   -2.6498   -3.8731   -2.8028 H   0  0  0  0  0  0  0  0  0  0  0  0
   -2.5348   -0.2218    0.9933 H   0  0  0  0  0  0  0  0  0  0  0  0
   -3.4542   -0.3000   -0.5312 H   0  0  0  0  0  0  0  0  0  0  0  0
   -4.5457    1.0082    1.4012 H   0  0  0  0  0  0  0  0  0  0  0  0
   -5.9471    2.6716    2.5369 H   0  0  0  0  0  0  0  0  0  0  0  0
   -3.6669    5.8572    0.7519 H   0  0  0  0  0  0  0  0  0  0  0  0
   -2.2432    4.2035   -0.3967 H   0  0  0  0  0  0  0  0  0  0  0  0
  1  2  1  0
  2  3  1  0
  2  4  1  0
  4  5  2  0
  4  6  1  0
  6  7  1  0
  7  8  1  0
  8  9  1  0
  9 10  1  0
 10 11  1  0
  9 12  1  0
 12 13  1  0
 13 14  2  0
 14 15  1  0
 15 16  2  0
 16 17  1  0
 16 18  1  0
 18 19  2  0
 19 20  1  0
 20 21  2  0
 20 22  1  0
 22 23  1  0
 23 24  1  0
 24 25  1  0
 25 26  2  0
 26 27  1  0
 27 28  2  0
 28 29  1  0
 28 30  1  0
 30 31  2  0
 24 32  2  0
 32 33  1  0
 11  6  1  0
 19 13  1  0
 33 22  1  0
 22  9  1  0
 31 25  1  0
  1 34  1  0
  1 35  1  0
  1 36  1  0
  2 37  1  0
  3 38  1  0
  3 39  1  0
  3 40  1  0
  7 41  1  0
  7 42  1  0
  8 43  1  0
  8 44  1  0
 10 45  1  0
 10 46  1  0
 11 47  1  0
 11 48  1  0
 14 49  1  0
 15 50  1  0
 18 51  1  0
 23 52  1  0
 23 53  1  0
 26 54  1  0
 27 55  1  0
 30 56  1  0
 31 57  1  0
M  END
$$$$
