
     RDKit          3D

 61 67  0  0  0  0  0  0  0  0999 V2000
    3.7695    0.7095   -2.9629 O   0  0  0  0  0  0  0  0  0  0  0  0
    3.4085    0.6442   -1.7900 C   0  0  0  0  0  0  0  0  0  0  0  0
    4.4509    0.4418   -0.7619 C   0  0  0  0  0  0  0  0  0  0  0  0
    5.5492    1.3253   -0.7273 C   0  0  0  0  0  0  0  0  0  0  0  0
    6.5680    1.1445    0.2123 C   0  0  0  0  0  0  0  0  0  0  0  0
    6.4594    0.0737    1.0752 C   0  0  0  0  0  0  0  0  0  0  0  0
    5.3964   -0.8000    1.0231 C   0  0  0  0  0  0  0  0  0  0  0  0
    4.3759   -0.6523    0.1100 C   0  0  0  0  0  0  0  0  0  0  0  0
    5.4916   -1.7879    1.9528 O   0  0  0  0  0  0  0  0  0  0  0  0
    6.7389   -1.4424    2.5914 C   0  0  0  0  0  0  0  0  0  0  0  0
    7.3531   -0.2566    2.0451 O   0  0  0  0  0  0  0  0  0  0  0  0
    2.0740    0.7285   -1.3971 N   0  0  0  0  0  0  0  0  0  0  0  0
    1.6132    1.0612   -0.0563 C   0  0  0  0  0  0  0  0  0  0  0  0
    0.4961    0.1214    0.3955 C   0  0  0  0  0  0  0  0  0  0  0  0
   -0.5152   -0.2362   -0.7405 C   0  0  0  0  0  0  0  0  0  0  0  0
   -0.3588    0.7529   -1.9215 C   0  0  0  0  0  0  0  0  0  0  0  0
    1.0744    0.7720   -2.4548 C   0  0  0  0  0  0  0  0  0  0  0  0
   -0.0720   -1.5477   -1.1871 O   0  0  0  0  0  0  0  0  0  0  0  0
   -0.9568   -2.3274   -1.8678 C   0  0  0  0  0  0  0  0  0  0  0  0
   -0.4183   -3.4431   -2.5116 C   0  0  0  0  0  0  0  0  0  0  0  0
   -1.2455   -4.2909   -3.2499 C   0  0  0  0  0  0  0  0  0  0  0  0
   -2.6068   -4.0178   -3.3368 C   0  0  0  0  0  0  0  0  0  0  0  0
   -3.3968   -4.8310   -4.0491 F   0  0  0  0  0  0  0  0  0  0  0  0
   -3.1584   -2.9171   -2.6946 C   0  0  0  0  0  0  0  0  0  0  0  0
   -2.3233   -2.0798   -1.9502 C   0  0  0  0  0  0  0  0  0  0  0  0
   -2.8716   -0.9142   -1.2455 C   0  0  0  0  0  0  0  0  0  0  0  0
   -3.9926   -0.5023   -1.5326 O   0  0  0  0  0  0  0  0  0  0  0  0
   -1.9686   -0.2827   -0.1926 C   0  0  0  0  0  0  0  0  0  0  0  0
   -2.5184    1.0611    0.2675 C   0  0  0  0  0  0  0  0  0  0  0  0
   -3.2173    0.6167    1.5068 C   0  0  0  0  0  0  0  0  0  0  0  0
   -4.1494    1.5024    2.2447 C   0  0  0  0  0  0  0  0  0  0  0  0
   -4.7974    1.0059    3.3831 C   0  0  0  0  0  0  0  0  0  0  0  0
   -5.6752    1.8172    4.1046 C   0  0  0  0  0  0  0  0  0  0  0  0
   -5.9101    3.1277    3.6933 C   0  0  0  0  0  0  0  0  0  0  0  0
   -5.2682    3.6286    2.5614 C   0  0  0  0  0  0  0  0  0  0  0  0
   -4.3880    2.8199    1.8368 C   0  0  0  0  0  0  0  0  0  0  0  0
   -2.9150   -0.5787    1.9028 N   0  0  0  0  0  0  0  0  0  0  0  0
   -2.0134   -1.1299    0.9676 O   0  0  0  0  0  0  0  0  0  0  0  0
    5.6060    2.1459   -1.4396 H   0  0  0  0  0  0  0  0  0  0  0  0
    7.4194    1.8144    0.2559 H   0  0  0  0  0  0  0  0  0  0  0  0
    3.5575   -1.3615    0.0655 H   0  0  0  0  0  0  0  0  0  0  0  0
    7.4349   -2.2819    2.4793 H   0  0  0  0  0  0  0  0  0  0  0  0
    6.5524   -1.2800    3.6593 H   0  0  0  0  0  0  0  0  0  0  0  0
    1.2441    2.0942   -0.0941 H   0  0  0  0  0  0  0  0  0  0  0  0
    2.4229    1.0646    0.6764 H   0  0  0  0  0  0  0  0  0  0  0  0
    0.9537   -0.8005    0.7794 H   0  0  0  0  0  0  0  0  0  0  0  0
    0.0046    0.5913    1.2541 H   0  0  0  0  0  0  0  0  0  0  0  0
   -0.6336    1.7652   -1.6006 H   0  0  0  0  0  0  0  0  0  0  0  0
   -1.0251    0.4991   -2.7536 H   0  0  0  0  0  0  0  0  0  0  0  0
    1.2374    1.6791   -3.0492 H   0  0  0  0  0  0  0  0  0  0  0  0
    1.2482   -0.0833   -3.1195 H   0  0  0  0  0  0  0  0  0  0  0  0
    0.6478   -3.6483   -2.4449 H   0  0  0  0  0  0  0  0  0  0  0  0
   -0.8372   -5.1594   -3.7579 H   0  0  0  0  0  0  0  0  0  0  0  0
   -4.2253   -2.7280   -2.7697 H   0  0  0  0  0  0  0  0  0  0  0  0
   -1.7411    1.7757    0.5536 H   0  0  0  0  0  0  0  0  0  0  0  0
   -3.1911    1.5379   -0.4491 H   0  0  0  0  0  0  0  0  0  0  0  0
   -4.6252   -0.0163    3.7150 H   0  0  0  0  0  0  0  0  0  0  0  0
   -6.1757    1.4238    4.9861 H   0  0  0  0  0  0  0  0  0  0  0  0
   -6.5956    3.7581    4.2546 H   0  0  0  0  0  0  0  0  0  0  0  0
   -5.4558    4.6511    2.2419 H   0  0  0  0  0  0  0  0  0  0  0  0
   -3.9052    3.2421    0.9611 H   0  0  0  0  0  0  0  0  0  0  0  0
  1  2  2  0
  2  3  1  0
  3  4  2  0
  4  5  1  0
  5  6  2  0
  6  7  1  0
  7  8  2  0
  7  9  1  0
  9 10  1  0
 10 11  1  0
  2 12  1  0
 12 13  1  0
 13 14  1  0
 14 15  1  0
 15 16  1  0
 16 17  1  0
 15 18  1  0
 18 19  1  0
 19 20  2  0
 20 21  1  0
 21 22  2  0
 22 23  1  0
 22 24  1  0
 24 25  2  0
 25 26  1  0
 26 27  2  0
 26 28  1  0
 28 29  1  0
 29 30  1  0
 30 31  1  0
 31 32  2  0
 32 33  1  0
 33 34  2  0
 34 35  1  0
 35 36  2  0
 30 37  2  0
 37 38  1  0
  8  3  1  0
 17 12  1  0
 25 19  1  0
 38 28  1  0
 11  6  1  0
 28 15  1  0
 36 31  1  0
  4 39  1  0
  5 40  1  0
  8 41  1  0
 10 42  1  0
 10 43  1  0
 13 44  1  0
 13 45  1  0
 14 46  1  0
 14 47  1  0
 16 48  1  0
 16 49  1  0
 17 50  1  0
 17 51  1  0
 20 52  1  0
 21 53  1  0
 24 54  1  0
 29 55  1  0
 29 56  1  0
 32 57  1  0
 33 58  1  0
 34 59  1  0
 35 60  1  0
 36 61  1  0
M  END
$$$$
