
     RDKit          3D

 44 46  0  0  0  0  0  0  0  0999 V2000
    3.5634   -1.0661   -2.8429 C   0  0  0  0  0  0  0  0  0  0  0  0
    4.8202   -1.0919   -2.1725 O   0  0  0  0  0  0  0  0  0  0  0  0
    4.8948   -0.3900   -0.9963 C   0  0  0  0  0  0  0  0  0  0  0  0
    3.9332    0.4941   -0.5043 C   0  0  0  0  0  0  0  0  0  0  0  0
    4.1203    1.1300    0.7341 C   0  0  0  0  0  0  0  0  0  0  0  0
    3.1352    2.0792    1.2680 C   0  0  0  0  0  0  0  0  0  0  0  0
    1.8328    1.8534    1.4959 C   0  0  0  0  0  0  0  0  0  0  0  0
    0.7771    3.0921    2.1055 S   0  0  0  0  0  0  0  0  0  0  0  0
   -0.6522    2.0679    2.0289 C   0  0  0  0  0  0  0  0  0  0  0  0
   -2.1787    2.5815    2.4530 S   0  0  0  0  0  0  0  0  0  0  0  0
   -0.2689    0.8189    1.5965 N   0  0  0  0  0  0  0  0  0  0  0  0
   -1.2707   -0.2855    1.2833 N   0  0  0  0  0  0  0  0  0  0  0  0
   -1.6894   -0.3342   -0.3781 S   0  0  0  0  0  6  0  0  0  0  0  0
   -1.1919   -1.5909   -0.8926 O   0  0  0  0  0  0  0  0  0  0  0  0
   -1.3182    0.9319   -0.9758 O   0  0  0  0  0  0  0  0  0  0  0  0
   -3.4556   -0.4339   -0.2915 C   0  0  0  0  0  0  0  0  0  0  0  0
   -4.2258    0.7225   -0.4292 C   0  0  0  0  0  0  0  0  0  0  0  0
   -5.6177    0.6309   -0.3798 C   0  0  0  0  0  0  0  0  0  0  0  0
   -6.2436   -0.6122   -0.2173 C   0  0  0  0  0  0  0  0  0  0  0  0
   -7.7398   -0.6997   -0.1326 C   0  0  0  0  0  0  0  0  0  0  0  0
   -5.4579   -1.7653   -0.0830 C   0  0  0  0  0  0  0  0  0  0  0  0
   -4.0654   -1.6811   -0.1299 C   0  0  0  0  0  0  0  0  0  0  0  0
    1.0623    0.5918    1.2924 C   0  0  0  0  0  0  0  0  0  0  0  0
    1.5125   -0.4865    0.9336 O   0  0  0  0  0  0  0  0  0  0  0  0
    5.3043    0.9106    1.4519 C   0  0  0  0  0  0  0  0  0  0  0  0
    6.2782    0.0441    0.9565 C   0  0  0  0  0  0  0  0  0  0  0  0
    6.0629   -0.5969   -0.2558 C   0  0  0  0  0  0  0  0  0  0  0  0
    7.0295   -1.4480   -0.7179 O   0  0  0  0  0  0  0  0  0  0  0  0
    3.6294   -1.7422   -3.7002 H   0  0  0  0  0  0  0  0  0  0  0  0
    3.3459   -0.0637   -3.2261 H   0  0  0  0  0  0  0  0  0  0  0  0
    2.7573   -1.4267   -2.1938 H   0  0  0  0  0  0  0  0  0  0  0  0
    3.0272    0.6962   -1.0667 H   0  0  0  0  0  0  0  0  0  0  0  0
    3.5555    3.0587    1.4935 H   0  0  0  0  0  0  0  0  0  0  0  0
   -0.8683   -1.2064    1.5038 H   0  0  0  0  0  0  0  0  0  0  0  0
   -3.7588    1.6947   -0.5672 H   0  0  0  0  0  0  0  0  0  0  0  0
   -6.2135    1.5372   -0.4693 H   0  0  0  0  0  0  0  0  0  0  0  0
   -8.0649   -0.5553    0.9024 H   0  0  0  0  0  0  0  0  0  0  0  0
   -8.0954   -1.6749   -0.4828 H   0  0  0  0  0  0  0  0  0  0  0  0
   -8.2105    0.0627   -0.7628 H   0  0  0  0  0  0  0  0  0  0  0  0
   -5.9292   -2.7369    0.0545 H   0  0  0  0  0  0  0  0  0  0  0  0
   -3.4708   -2.5878   -0.0413 H   0  0  0  0  0  0  0  0  0  0  0  0
    5.4785    1.4084    2.4031 H   0  0  0  0  0  0  0  0  0  0  0  0
    7.1951   -0.1332    1.5104 H   0  0  0  0  0  0  0  0  0  0  0  0
    6.6717   -1.7977   -1.5574 H   0  0  0  0  0  0  0  0  0  0  0  0
  1  2  1  0
  2  3  1  0
  3  4  2  0
  4  5  1  0
  5  6  1  0
  6  7  2  3
  7  8  1  0
  8  9  1  0
  9 10  2  0
  9 11  1  0
 11 12  1  0
 12 13  1  0
 13 14  2  0
 13 15  2  0
 13 16  1  0
 16 17  2  0
 17 18  1  0
 18 19  2  0
 19 20  1  0
 19 21  1  0
 21 22  2  0
 11 23  1  0
 23 24  2  0
  5 25  2  0
 25 26  1  0
 26 27  2  0
 27 28  1  0
 27  3  1  0
 23  7  1  0
 22 16  1  0
  1 29  1  0
  1 30  1  0
  1 31  1  0
  4 32  1  0
  6 33  1  0
 12 34  1  0
 17 35  1  0
 18 36  1  0
 20 37  1  0
 20 38  1  0
 20 39  1  0
 21 40  1  0
 22 41  1  0
 25 42  1  0
 26 43  1  0
 28 44  1  0
M  END
$$$$
