
     RDKit          3D

 72 77  0  0  0  0  0  0  0  0999 V2000
   -6.4102   -2.1014   -1.9758 C   0  0  0  0  0  0  0  0  0  0  0  0
   -6.8407   -1.0501   -0.9969 C   0  0  0  0  0  0  0  0  0  0  0  0
   -7.9617   -1.2451   -0.1907 C   0  0  0  0  0  0  0  0  0  0  0  0
   -8.3673   -0.2537    0.7037 C   0  0  0  0  0  0  0  0  0  0  0  0
   -7.6765    0.9655    0.7991 C   0  0  0  0  0  0  0  0  0  0  0  0
   -8.1455    1.9775    1.8104 C   0  0  0  0  0  0  0  0  0  0  0  0
   -6.5483    1.1804   -0.0199 C   0  0  0  0  0  0  0  0  0  0  0  0
   -5.7319    2.4540    0.0253 C   0  0  0  0  0  0  0  0  0  0  0  0
   -4.7818    2.4604    1.1188 N   0  0  0  0  0  0  0  0  0  0  0  0
   -4.9666    3.2672    2.1941 N   0  0  0  0  0  0  0  0  0  0  0  0
   -3.9216    3.1094    3.0065 N   0  0  0  0  0  0  0  0  0  0  0  0
   -3.0769    2.2242    2.4114 C   0  0  0  0  0  0  0  0  0  0  0  0
   -1.8044    1.7055    2.8384 C   0  0  0  0  0  0  0  0  0  0  0  0
   -1.2303    1.9983    3.8807 O   0  0  0  0  0  0  0  0  0  0  0  0
   -1.2697    0.8169    1.9136 N   0  0  0  0  0  0  0  0  0  0  0  0
   -1.8808    0.4819    0.7063 C   0  0  0  0  0  0  0  0  0  0  0  0
   -1.1352   -0.5132   -0.1738 C   0  0  0  0  0  0  0  0  0  0  0  0
    0.2082    0.0970   -0.6153 C   0  0  0  0  0  0  0  0  0  0  0  0
    1.2587   -0.9294   -1.0087 C   0  0  0  0  0  0  0  0  0  0  0  0
    1.3303   -2.0370   -0.0292 N   0  0  0  0  0  0  0  0  0  0  0  0
    2.0442   -1.7319    1.4940 S   0  0  0  0  0  6  0  0  0  0  0  0
    1.3819   -0.5717    2.0618 O   0  0  0  0  0  0  0  0  0  0  0  0
    2.0928   -2.9821    2.2201 O   0  0  0  0  0  0  0  0  0  0  0  0
    3.7116   -1.2961    1.0709 C   0  0  0  0  0  0  0  0  0  0  0  0
    4.5803   -2.3044    0.6362 C   0  0  0  0  0  0  0  0  0  0  0  0
    5.9018   -1.9869    0.3211 C   0  0  0  0  0  0  0  0  0  0  0  0
    6.3385   -0.6624    0.4377 C   0  0  0  0  0  0  0  0  0  0  0  0
    8.0319   -0.2622    0.0697 S   0  0  0  0  0  6  0  0  0  0  0  0
    8.3767    0.9336    0.8070 O   0  0  0  0  0  0  0  0  0  0  0  0
    8.8120   -1.4778    0.1650 O   0  0  0  0  0  0  0  0  0  0  0  0
    7.9151    0.0965   -1.5913 N   0  0  0  0  0  0  0  0  0  0  0  0
    8.6384    1.3083   -2.0082 C   0  0  0  0  0  0  0  0  0  0  0  0
   10.0803    1.2567   -2.4232 C   0  0  0  0  0  0  0  0  0  0  0  0
    9.0129    1.5065   -3.4500 C   0  0  0  0  0  0  0  0  0  0  0  0
    5.4746    0.3425    0.8902 C   0  0  0  0  0  0  0  0  0  0  0  0
    4.1534    0.0240    1.2109 C   0  0  0  0  0  0  0  0  0  0  0  0
    0.0424   -2.7703    0.0182 C   0  0  0  0  0  0  0  0  0  0  0  0
   -1.0574   -1.8685    0.5522 C   0  0  0  0  0  0  0  0  0  0  0  0
   -3.0266    0.9603    0.3039 N   0  0  0  0  0  0  0  0  0  0  0  0
   -3.5816    1.8124    1.2009 C   0  0  0  0  0  0  0  0  0  0  0  0
   -6.1496    0.1640   -0.9122 C   0  0  0  0  0  0  0  0  0  0  0  0
   -6.8525   -1.9025   -2.9569 H   0  0  0  0  0  0  0  0  0  0  0  0
   -6.7200   -3.0984   -1.6449 H   0  0  0  0  0  0  0  0  0  0  0  0
   -5.3191   -2.1167   -2.0737 H   0  0  0  0  0  0  0  0  0  0  0  0
   -8.5246   -2.1744   -0.2438 H   0  0  0  0  0  0  0  0  0  0  0  0
   -9.2348   -0.4421    1.3342 H   0  0  0  0  0  0  0  0  0  0  0  0
   -8.1959    2.9788    1.3739 H   0  0  0  0  0  0  0  0  0  0  0  0
   -9.1532    1.7426    2.1687 H   0  0  0  0  0  0  0  0  0  0  0  0
   -7.4756    1.9829    2.6744 H   0  0  0  0  0  0  0  0  0  0  0  0
   -5.1592    2.5866   -0.9009 H   0  0  0  0  0  0  0  0  0  0  0  0
   -6.3745    3.3365    0.1115 H   0  0  0  0  0  0  0  0  0  0  0  0
   -0.3685    0.4206    2.1742 H   0  0  0  0  0  0  0  0  0  0  0  0
   -1.7292   -0.6717   -1.0846 H   0  0  0  0  0  0  0  0  0  0  0  0
    0.0275    0.7637   -1.4689 H   0  0  0  0  0  0  0  0  0  0  0  0
    0.6235    0.7574    0.1526 H   0  0  0  0  0  0  0  0  0  0  0  0
    2.2365   -0.4551   -1.1339 H   0  0  0  0  0  0  0  0  0  0  0  0
    1.0106   -1.3538   -1.9897 H   0  0  0  0  0  0  0  0  0  0  0  0
    4.2342   -3.3336    0.5553 H   0  0  0  0  0  0  0  0  0  0  0  0
    6.5822   -2.7721   -0.0028 H   0  0  0  0  0  0  0  0  0  0  0  0
    8.2285   -0.7307   -2.1046 H   0  0  0  0  0  0  0  0  0  0  0  0
    8.3014    2.1961   -1.4760 H   0  0  0  0  0  0  0  0  0  0  0  0
   10.5840    0.2975   -2.4285 H   0  0  0  0  0  0  0  0  0  0  0  0
   10.7150    2.0864   -2.1311 H   0  0  0  0  0  0  0  0  0  0  0  0
    8.9254    2.5068   -3.8601 H   0  0  0  0  0  0  0  0  0  0  0  0
    8.7922    0.7170   -4.1578 H   0  0  0  0  0  0  0  0  0  0  0  0
    5.8265    1.3665    1.0037 H   0  0  0  0  0  0  0  0  0  0  0  0
    3.4863    0.8027    1.5749 H   0  0  0  0  0  0  0  0  0  0  0  0
    0.1379   -3.6748    0.6278 H   0  0  0  0  0  0  0  0  0  0  0  0
   -0.2072   -3.1149   -0.9930 H   0  0  0  0  0  0  0  0  0  0  0  0
   -2.0231   -2.3815    0.4543 H   0  0  0  0  0  0  0  0  0  0  0  0
   -0.9207   -1.7366    1.6314 H   0  0  0  0  0  0  0  0  0  0  0  0
   -5.2749    0.3177   -1.5437 H   0  0  0  0  0  0  0  0  0  0  0  0
  1  2  1  0
  2  3  2  0
  3  4  1  0
  4  5  2  0
  5  6  1  0
  5  7  1  0
  7  8  1  0
  8  9  1  0
  9 10  1  0
 10 11  2  0
 11 12  1  0
 12 13  1  0
 13 14  2  0
 13 15  1  0
 15 16  1  0
 16 17  1  0
 17 18  1  0
 18 19  1  0
 19 20  1  0
 20 21  1  0
 21 22  2  0
 21 23  2  0
 21 24  1  0
 24 25  2  0
 25 26  1  0
 26 27  2  0
 27 28  1  0
 28 29  2  0
 28 30  2  0
 28 31  1  0
 31 32  1  0
 32 33  1  0
 33 34  1  0
 27 35  1  0
 35 36  2  0
 20 37  1  0
 37 38  1  0
 16 39  2  0
 39 40  1  0
  7 41  2  0
 41  2  1  0
 40  9  1  0
 40 12  2  0
 38 17  1  0
 36 24  1  0
 34 32  1  0
  1 42  1  0
  1 43  1  0
  1 44  1  0
  3 45  1  0
  4 46  1  0
  6 47  1  0
  6 48  1  0
  6 49  1  0
  8 50  1  0
  8 51  1  0
 15 52  1  0
 17 53  1  0
 18 54  1  0
 18 55  1  0
 19 56  1  0
 19 57  1  0
 25 58  1  0
 26 59  1  0
 31 60  1  0
 32 61  1  0
 33 62  1  0
 33 63  1  0
 34 64  1  0
 34 65  1  0
 35 66  1  0
 36 67  1  0
 37 68  1  0
 37 69  1  0
 38 70  1  0
 38 71  1  0
 41 72  1  0
M  END
$$$$
