
     RDKit          3D

 46 47  0  0  0  0  0  0  0  0999 V2000
    7.7144    3.1370   -1.6993 C   0  0  0  0  0  0  0  0  0  0  0  0
    7.4067    2.0021   -0.9022 O   0  0  0  0  0  0  0  0  0  0  0  0
    6.1639    1.4559   -1.0683 C   0  0  0  0  0  0  0  0  0  0  0  0
    5.1356    1.9793   -1.8507 C   0  0  0  0  0  0  0  0  0  0  0  0
    3.9112    1.3082   -1.9429 C   0  0  0  0  0  0  0  0  0  0  0  0
    3.6964    0.1072   -1.2528 C   0  0  0  0  0  0  0  0  0  0  0  0
    2.3836   -0.6248   -1.3938 C   0  0  0  0  0  0  0  0  0  0  0  0
    1.6090   -0.7232   -0.0817 C   0  0  0  0  0  0  0  0  0  0  0  0
    0.2642   -1.3832   -0.2950 C   0  0  0  0  0  0  0  0  0  0  0  0
   -0.1997   -1.6582   -1.3999 O   0  0  0  0  0  0  0  0  0  0  0  0
   -0.4106   -1.6450    0.8831 N   0  0  0  0  0  0  0  0  0  0  0  0
   -1.7305   -2.1135    0.7839 N   0  0  0  0  0  0  0  0  0  0  0  0
   -2.5363   -1.9954    1.9019 C   0  0  0  0  0  0  0  0  0  0  0  0
   -2.1013   -1.6781    3.0108 O   0  0  0  0  0  0  0  0  0  0  0  0
   -3.9854   -2.3240    1.6529 C   0  0  0  0  0  0  0  0  0  0  0  0
   -4.7031   -1.1413    1.2318 N   0  0  0  0  0  0  0  0  0  0  0  0
   -4.6607   -0.7995   -0.0728 N   0  0  0  0  0  0  0  0  0  0  0  0
   -5.4289    0.2918   -0.1514 C   0  0  0  0  0  0  0  0  0  0  0  0
   -5.6373    0.9712   -1.4514 C   0  0  0  0  0  0  0  0  0  0  0  0
   -5.9512    0.6506    1.1111 C   0  0  0  0  0  0  0  0  0  0  0  0
   -5.4673   -0.2934    1.9909 C   0  0  0  0  0  0  0  0  0  0  0  0
   -5.6668   -0.4420    3.4536 C   0  0  0  0  0  0  0  0  0  0  0  0
    4.7299   -0.4089   -0.4619 C   0  0  0  0  0  0  0  0  0  0  0  0
    5.9496    0.2663   -0.3667 C   0  0  0  0  0  0  0  0  0  0  0  0
    8.7588    3.4005   -1.5122 H   0  0  0  0  0  0  0  0  0  0  0  0
    7.0981    3.9909   -1.4129 H   0  0  0  0  0  0  0  0  0  0  0  0
    7.6141    2.9151   -2.7690 H   0  0  0  0  0  0  0  0  0  0  0  0
    5.2512    2.9014   -2.4080 H   0  0  0  0  0  0  0  0  0  0  0  0
    3.1272    1.7289   -2.5700 H   0  0  0  0  0  0  0  0  0  0  0  0
    1.7633   -0.1229   -2.1492 H   0  0  0  0  0  0  0  0  0  0  0  0
    2.5830   -1.6271   -1.7927 H   0  0  0  0  0  0  0  0  0  0  0  0
    2.1718   -1.3081    0.6551 H   0  0  0  0  0  0  0  0  0  0  0  0
    1.4377    0.2761    0.3368 H   0  0  0  0  0  0  0  0  0  0  0  0
   -0.1334   -1.2521    1.7819 H   0  0  0  0  0  0  0  0  0  0  0  0
   -2.1508   -2.0375   -0.1444 H   0  0  0  0  0  0  0  0  0  0  0  0
   -4.4403   -2.7336    2.5591 H   0  0  0  0  0  0  0  0  0  0  0  0
   -4.0813   -3.0805    0.8659 H   0  0  0  0  0  0  0  0  0  0  0  0
   -6.5082    1.6335   -1.4112 H   0  0  0  0  0  0  0  0  0  0  0  0
   -4.7596    1.5722   -1.7113 H   0  0  0  0  0  0  0  0  0  0  0  0
   -5.8066    0.2437   -2.2483 H   0  0  0  0  0  0  0  0  0  0  0  0
   -6.5954    1.4862    1.3478 H   0  0  0  0  0  0  0  0  0  0  0  0
   -6.2739    0.3802    3.8471 H   0  0  0  0  0  0  0  0  0  0  0  0
   -6.1846   -1.3780    3.6807 H   0  0  0  0  0  0  0  0  0  0  0  0
   -4.7064   -0.4383    3.9823 H   0  0  0  0  0  0  0  0  0  0  0  0
    4.6033   -1.3439    0.0747 H   0  0  0  0  0  0  0  0  0  0  0  0
    6.7467   -0.1458    0.2502 H   0  0  0  0  0  0  0  0  0  0  0  0
  1  2  1  0
  2  3  1  0
  3  4  2  0
  4  5  1  0
  5  6  2  0
  6  7  1  0
  7  8  1  0
  8  9  1  0
  9 10  2  0
  9 11  1  0
 11 12  1  0
 12 13  1  0
 13 14  2  0
 13 15  1  0
 15 16  1  0
 16 17  1  0
 17 18  2  0
 18 19  1  0
 18 20  1  0
 20 21  2  0
 21 22  1  0
  6 23  1  0
 23 24  2  0
 24  3  1  0
 21 16  1  0
  1 25  1  0
  1 26  1  0
  1 27  1  0
  4 28  1  0
  5 29  1  0
  7 30  1  0
  7 31  1  0
  8 32  1  0
  8 33  1  0
 11 34  1  0
 12 35  1  0
 15 36  1  0
 15 37  1  0
 19 38  1  0
 19 39  1  0
 19 40  1  0
 20 41  1  0
 22 42  1  0
 22 43  1  0
 22 44  1  0
 23 45  1  0
 24 46  1  0
M  END
$$$$
