
     RDKit          3D

 47 48  0  0  0  0  0  0  0  0999 V2000
    4.0109    0.6810    3.8822 C   0  0  0  0  0  0  0  0  0  0  0  0
    2.6339    1.3173    3.8794 C   0  0  0  0  0  0  0  0  0  0  0  0
    2.0740    1.2772    2.5571 O   0  0  0  0  0  0  0  0  0  0  0  0
    2.3971    2.3136    1.7382 C   0  0  0  0  0  0  0  0  0  0  0  0
    3.1210    3.2473    2.0530 O   0  0  0  0  0  0  0  0  0  0  0  0
    1.7595    2.1875    0.3945 C   0  0  0  0  0  0  0  0  0  0  0  0
    1.9262    3.3120   -0.4603 C   0  0  0  0  0  0  0  0  0  0  0  0
    2.0517    4.2147   -1.1801 N   0  0  0  0  0  0  0  0  0  0  0  0
    1.0591    1.0818    0.0601 C   0  0  0  0  0  0  0  0  0  0  0  0
    0.3525    0.7215   -1.1769 C   0  0  0  0  0  0  0  0  0  0  0  0
   -0.6641   -0.1841   -1.1920 C   0  0  0  0  0  0  0  0  0  0  0  0
   -1.1918   -0.8189   -0.0510 N   0  0  0  0  0  0  0  0  0  0  0  0
   -1.9264   -0.0523    0.9820 C   0  0  0  0  0  0  0  0  0  0  0  0
   -2.9406   -0.9667    1.6862 C   0  0  0  0  0  0  0  0  0  0  0  0
   -2.3008   -2.1237    2.2520 O   0  0  0  0  0  0  0  0  0  0  0  0
   -1.6499   -2.8838    1.2197 C   0  0  0  0  0  0  0  0  0  0  0  0
   -0.5801   -2.0485    0.5004 C   0  0  0  0  0  0  0  0  0  0  0  0
   -1.3925   -0.5430   -2.5286 C   0  0  0  0  0  0  0  0  0  0  0  0
   -1.1935   -2.0206   -2.9033 C   0  0  0  0  0  0  0  0  0  0  0  0
   -2.8997   -0.2588   -2.4152 C   0  0  0  0  0  0  0  0  0  0  0  0
   -0.9632    0.2610   -3.6451 O   0  0  0  0  0  0  0  0  0  0  0  0
    0.4382    0.4787   -3.6773 C   0  0  0  0  0  0  0  0  0  0  0  0
    0.8338    1.3242   -2.4790 C   0  0  0  0  0  0  0  0  0  0  0  0
    3.9630   -0.3404    3.4907 H   0  0  0  0  0  0  0  0  0  0  0  0
    4.4229    0.6521    4.8948 H   0  0  0  0  0  0  0  0  0  0  0  0
    4.7016    1.2361    3.2395 H   0  0  0  0  0  0  0  0  0  0  0  0
    1.9623    0.7447    4.5274 H   0  0  0  0  0  0  0  0  0  0  0  0
    2.6626    2.3410    4.2698 H   0  0  0  0  0  0  0  0  0  0  0  0
    0.9734    0.3054    0.8168 H   0  0  0  0  0  0  0  0  0  0  0  0
   -1.2162    0.3353    1.7212 H   0  0  0  0  0  0  0  0  0  0  0  0
   -2.4526    0.7969    0.5319 H   0  0  0  0  0  0  0  0  0  0  0  0
   -3.4260   -0.4238    2.5031 H   0  0  0  0  0  0  0  0  0  0  0  0
   -3.7225   -1.2971    0.9920 H   0  0  0  0  0  0  0  0  0  0  0  0
   -2.4066   -3.2477    0.5143 H   0  0  0  0  0  0  0  0  0  0  0  0
   -1.1858   -3.7549    1.6925 H   0  0  0  0  0  0  0  0  0  0  0  0
   -0.1183   -2.6471   -0.2917 H   0  0  0  0  0  0  0  0  0  0  0  0
    0.2035   -1.7727    1.2150 H   0  0  0  0  0  0  0  0  0  0  0  0
   -1.7053   -2.6926   -2.2064 H   0  0  0  0  0  0  0  0  0  0  0  0
   -1.5769   -2.2203   -3.9108 H   0  0  0  0  0  0  0  0  0  0  0  0
   -0.1327   -2.2937   -2.9138 H   0  0  0  0  0  0  0  0  0  0  0  0
   -3.3891   -0.8888   -1.6653 H   0  0  0  0  0  0  0  0  0  0  0  0
   -3.4006   -0.4274   -3.3762 H   0  0  0  0  0  0  0  0  0  0  0  0
   -3.0790    0.7913   -2.1550 H   0  0  0  0  0  0  0  0  0  0  0  0
    0.9815   -0.4723   -3.7078 H   0  0  0  0  0  0  0  0  0  0  0  0
    0.6737    1.0155   -4.6022 H   0  0  0  0  0  0  0  0  0  0  0  0
    0.3864    2.3196   -2.5859 H   0  0  0  0  0  0  0  0  0  0  0  0
    1.9250    1.4235   -2.4899 H   0  0  0  0  0  0  0  0  0  0  0  0
  1  2  1  0
  2  3  1  0
  3  4  1  0
  4  5  2  0
  4  6  1  0
  6  7  1  0
  7  8  3  0
  6  9  2  3
  9 10  1  0
 10 11  2  0
 11 12  1  0
 12 13  1  0
 13 14  1  0
 14 15  1  0
 15 16  1  0
 16 17  1  0
 11 18  1  0
 18 19  1  0
 18 20  1  0
 18 21  1  0
 21 22  1  0
 22 23  1  0
 23 10  1  0
 17 12  1  0
  1 24  1  0
  1 25  1  0
  1 26  1  0
  2 27  1  0
  2 28  1  0
  9 29  1  0
 13 30  1  0
 13 31  1  0
 14 32  1  0
 14 33  1  0
 16 34  1  0
 16 35  1  0
 17 36  1  0
 17 37  1  0
 19 38  1  0
 19 39  1  0
 19 40  1  0
 20 41  1  0
 20 42  1  0
 20 43  1  0
 22 44  1  0
 22 45  1  0
 23 46  1  0
 23 47  1  0
M  END
$$$$
