
     RDKit          3D

 57 61  0  0  0  0  0  0  0  0999 V2000
    1.2278   -2.4499    3.8236 O   0  0  0  0  0  0  0  0  0  0  0  0
    1.6168   -1.5630    3.0725 C   0  0  0  0  0  0  0  0  0  0  0  0
    0.7391   -0.8251    2.2872 N   0  0  0  0  0  0  0  0  0  0  0  0
    1.1271    0.1928    1.4231 C   0  0  0  0  0  0  0  0  0  0  0  0
    0.0196    0.8807    0.6405 C   0  0  0  0  0  0  0  0  0  0  0  0
   -0.6851   -0.1037   -0.2994 C   0  0  0  0  0  0  0  0  0  0  0  0
   -1.8264    0.5797   -1.0468 C   0  0  0  0  0  0  0  0  0  0  0  0
   -2.7738    1.1504   -0.0526 N   0  0  0  0  0  0  0  0  0  0  0  0
   -4.2864    1.6415   -0.6795 S   0  0  0  0  0  6  0  0  0  0  0  0
   -5.0887    2.1870    0.3899 O   0  0  0  0  0  0  0  0  0  0  0  0
   -4.0148    2.4145   -1.8733 O   0  0  0  0  0  0  0  0  0  0  0  0
   -5.0324    0.0943   -1.1618 C   0  0  0  0  0  0  0  0  0  0  0  0
   -5.1532   -0.1679   -2.5374 C   0  0  0  0  0  0  0  0  0  0  0  0
   -5.7409   -1.3516   -2.9780 C   0  0  0  0  0  0  0  0  0  0  0  0
   -6.2205   -2.2715   -2.0525 C   0  0  0  0  0  0  0  0  0  0  0  0
   -6.1165   -2.0070   -0.6852 C   0  0  0  0  0  0  0  0  0  0  0  0
   -5.5190   -0.8210   -0.2087 C   0  0  0  0  0  0  0  0  0  0  0  0
   -5.4745   -0.5876    1.2856 C   0  0  0  0  0  0  0  0  0  0  0  0
   -6.4296    0.2737    1.7204 F   0  0  0  0  0  0  0  0  0  0  0  0
   -4.2802   -0.1380    1.7505 F   0  0  0  0  0  0  0  0  0  0  0  0
   -5.6958   -1.7415    1.9878 F   0  0  0  0  0  0  0  0  0  0  0  0
   -2.1222    2.1997    0.7808 C   0  0  0  0  0  0  0  0  0  0  0  0
   -0.9846    1.5637    1.5741 C   0  0  0  0  0  0  0  0  0  0  0  0
    2.3634    0.5734    1.2485 N   0  0  0  0  0  0  0  0  0  0  0  0
    3.2422   -0.1364    1.9992 C   0  0  0  0  0  0  0  0  0  0  0  0
    2.9817   -1.1549    2.8841 C   0  0  0  0  0  0  0  0  0  0  0  0
    4.1337   -1.6068    3.4491 N   0  0  0  0  0  0  0  0  0  0  0  0
    5.1341   -0.8911    2.9350 N   0  0  0  0  0  0  0  0  0  0  0  0
    4.6015   -0.0147    2.0476 N   0  0  0  0  0  0  0  0  0  0  0  0
    5.4423    0.9247    1.3366 C   0  0  0  0  0  0  0  0  0  0  0  0
    5.8138    0.4089   -0.0312 C   0  0  0  0  0  0  0  0  0  0  0  0
    5.0735    0.7873   -1.1636 C   0  0  0  0  0  0  0  0  0  0  0  0
    5.4106    0.3019   -2.4300 C   0  0  0  0  0  0  0  0  0  0  0  0
    6.4873   -0.5703   -2.5765 C   0  0  0  0  0  0  0  0  0  0  0  0
    7.2149   -0.9537   -1.4565 C   0  0  0  0  0  0  0  0  0  0  0  0
    8.2469   -1.7955   -1.5985 F   0  0  0  0  0  0  0  0  0  0  0  0
    6.8890   -0.4775   -0.1905 C   0  0  0  0  0  0  0  0  0  0  0  0
   -0.2319   -1.0803    2.3962 H   0  0  0  0  0  0  0  0  0  0  0  0
    0.4921    1.6586    0.0240 H   0  0  0  0  0  0  0  0  0  0  0  0
    0.0341   -0.5157   -1.0174 H   0  0  0  0  0  0  0  0  0  0  0  0
   -1.0859   -0.9551    0.2651 H   0  0  0  0  0  0  0  0  0  0  0  0
   -2.3235   -0.1691   -1.6696 H   0  0  0  0  0  0  0  0  0  0  0  0
   -1.4386    1.3691   -1.7009 H   0  0  0  0  0  0  0  0  0  0  0  0
   -4.7961    0.5478   -3.2764 H   0  0  0  0  0  0  0  0  0  0  0  0
   -5.8334   -1.5513   -4.0433 H   0  0  0  0  0  0  0  0  0  0  0  0
   -6.6879   -3.1931   -2.3936 H   0  0  0  0  0  0  0  0  0  0  0  0
   -6.5168   -2.7394    0.0172 H   0  0  0  0  0  0  0  0  0  0  0  0
   -2.8376    2.6233    1.4930 H   0  0  0  0  0  0  0  0  0  0  0  0
   -1.7472    3.0096    0.1445 H   0  0  0  0  0  0  0  0  0  0  0  0
   -1.4063    0.8399    2.2827 H   0  0  0  0  0  0  0  0  0  0  0  0
   -0.4776    2.3287    2.1743 H   0  0  0  0  0  0  0  0  0  0  0  0
    4.9040    1.8771    1.2680 H   0  0  0  0  0  0  0  0  0  0  0  0
    6.3398    1.1088    1.9390 H   0  0  0  0  0  0  0  0  0  0  0  0
    4.2228    1.4601   -1.0643 H   0  0  0  0  0  0  0  0  0  0  0  0
    4.8323    0.6021   -3.3002 H   0  0  0  0  0  0  0  0  0  0  0  0
    6.7617   -0.9567   -3.5528 H   0  0  0  0  0  0  0  0  0  0  0  0
    7.4755   -0.8100    0.6624 H   0  0  0  0  0  0  0  0  0  0  0  0
  1  2  2  0
  2  3  1  0
  3  4  1  0
  4  5  1  0
  5  6  1  0
  6  7  1  0
  7  8  1  0
  8  9  1  0
  9 10  2  0
  9 11  2  0
  9 12  1  0
 12 13  2  0
 13 14  1  0
 14 15  2  0
 15 16  1  0
 16 17  2  0
 17 18  1  0
 18 19  1  0
 18 20  1  0
 18 21  1  0
  8 22  1  0
 22 23  1  0
  4 24  2  0
 24 25  1  0
 25 26  2  0
 26 27  1  0
 27 28  2  0
 28 29  1  0
 29 30  1  0
 30 31  1  0
 31 32  2  0
 32 33  1  0
 33 34  2  0
 34 35  1  0
 35 36  1  0
 35 37  2  0
 26  2  1  0
 37 31  1  0
 23  5  1  0
 29 25  1  0
 17 12  1  0
  3 38  1  0
  5 39  1  0
  6 40  1  0
  6 41  1  0
  7 42  1  0
  7 43  1  0
 13 44  1  0
 14 45  1  0
 15 46  1  0
 16 47  1  0
 22 48  1  0
 22 49  1  0
 23 50  1  0
 23 51  1  0
 30 52  1  0
 30 53  1  0
 32 54  1  0
 33 55  1  0
 34 56  1  0
 37 57  1  0
M  END
$$$$
