
     RDKit          3D

 54 58  0  0  0  0  0  0  0  0999 V2000
    3.7977    1.1008   -2.0552 O   0  0  0  0  0  0  0  0  0  0  0  0
    3.0908    0.1839   -1.6344 C   0  0  0  0  0  0  0  0  0  0  0  0
    2.0887   -0.5253   -2.5356 C   0  0  0  0  0  0  0  0  0  0  0  0
    0.6554   -1.2301   -1.6578 S   0  0  0  0  0  0  0  0  0  0  0  0
   -0.2221    0.2315   -1.2072 C   0  0  0  0  0  0  0  0  0  0  0  0
    0.4849    1.3102   -1.0829 N   0  0  0  0  0  0  0  0  0  0  0  0
   -0.2205    2.4505   -0.6976 C   0  0  0  0  0  0  0  0  0  0  0  0
   -1.5518    2.4188   -0.4230 C   0  0  0  0  0  0  0  0  0  0  0  0
   -2.1467    3.9314    0.0401 S   0  0  0  0  0  0  0  0  0  0  0  0
   -0.5886    4.6677   -0.1380 C   0  0  0  0  0  0  0  0  0  0  0  0
   -0.2568    6.0197    0.0798 C   0  0  0  0  0  0  0  0  0  0  0  0
    1.0646    6.4299   -0.1185 C   0  0  0  0  0  0  0  0  0  0  0  0
    2.0367    5.5219   -0.5218 C   0  0  0  0  0  0  0  0  0  0  0  0
    1.7051    4.1811   -0.7367 C   0  0  0  0  0  0  0  0  0  0  0  0
    0.3751    3.7348   -0.5463 C   0  0  0  0  0  0  0  0  0  0  0  0
   -2.3344    1.2239   -0.5245 C   0  0  0  0  0  0  0  0  0  0  0  0
   -3.5257    1.1524   -0.2259 O   0  0  0  0  0  0  0  0  0  0  0  0
   -1.5974    0.1198   -0.9878 N   0  0  0  0  0  0  0  0  0  0  0  0
   -2.3568   -1.1298   -1.1401 C   0  0  0  0  0  0  0  0  0  0  0  0
   -2.4150   -1.9271    0.1697 C   0  0  0  0  0  0  0  0  0  0  0  0
   -3.2129   -3.1952    0.0080 C   0  0  0  0  0  0  0  0  0  0  0  0
   -2.5786   -4.3988   -0.3268 C   0  0  0  0  0  0  0  0  0  0  0  0
   -3.3264   -5.5642   -0.5014 C   0  0  0  0  0  0  0  0  0  0  0  0
   -4.7118   -5.5357   -0.3479 C   0  0  0  0  0  0  0  0  0  0  0  0
   -5.3521   -4.3420   -0.0186 C   0  0  0  0  0  0  0  0  0  0  0  0
   -4.6068   -3.1760    0.1571 C   0  0  0  0  0  0  0  0  0  0  0  0
    3.2132   -0.3124   -0.3590 N   0  0  0  0  0  0  0  0  0  0  0  0
    4.0526    0.3422    0.6140 C   0  0  0  0  0  0  0  0  0  0  0  0
    3.7674   -0.2356    1.9493 C   0  0  0  0  0  0  0  0  0  0  0  0
    2.9668    0.1629    3.0021 C   0  0  0  0  0  0  0  0  0  0  0  0
    3.0919   -0.8339    4.0011 C   0  0  0  0  0  0  0  0  0  0  0  0
    3.9640   -1.7718    3.4965 C   0  0  0  0  0  0  0  0  0  0  0  0
    4.3773   -1.4190    2.2508 O   0  0  0  0  0  0  0  0  0  0  0  0
    1.7363    0.1736   -3.3004 H   0  0  0  0  0  0  0  0  0  0  0  0
    2.6178   -1.3420   -3.0374 H   0  0  0  0  0  0  0  0  0  0  0  0
   -1.0134    6.7339    0.3941 H   0  0  0  0  0  0  0  0  0  0  0  0
    1.3330    7.4715    0.0417 H   0  0  0  0  0  0  0  0  0  0  0  0
    3.0613    5.8518   -0.6765 H   0  0  0  0  0  0  0  0  0  0  0  0
    2.4706    3.4758   -1.0595 H   0  0  0  0  0  0  0  0  0  0  0  0
   -3.3758   -0.8845   -1.4679 H   0  0  0  0  0  0  0  0  0  0  0  0
   -1.9357   -1.7372   -1.9493 H   0  0  0  0  0  0  0  0  0  0  0  0
   -1.4037   -2.1698    0.5203 H   0  0  0  0  0  0  0  0  0  0  0  0
   -2.8601   -1.3184    0.9680 H   0  0  0  0  0  0  0  0  0  0  0  0
   -1.4984   -4.4384   -0.4526 H   0  0  0  0  0  0  0  0  0  0  0  0
   -2.8278   -6.4960   -0.7572 H   0  0  0  0  0  0  0  0  0  0  0  0
   -5.2928   -6.4444   -0.4859 H   0  0  0  0  0  0  0  0  0  0  0  0
   -6.4329   -4.3188    0.1008 H   0  0  0  0  0  0  0  0  0  0  0  0
   -5.1210   -2.2504    0.4111 H   0  0  0  0  0  0  0  0  0  0  0  0
    2.5389   -0.9985   -0.0381 H   0  0  0  0  0  0  0  0  0  0  0  0
    5.0987    0.1939    0.3257 H   0  0  0  0  0  0  0  0  0  0  0  0
    3.8470    1.4195    0.5980 H   0  0  0  0  0  0  0  0  0  0  0  0
    2.3575    1.0585    3.0379 H   0  0  0  0  0  0  0  0  0  0  0  0
    2.6080   -0.8659    4.9692 H   0  0  0  0  0  0  0  0  0  0  0  0
    4.3648   -2.7006    3.8763 H   0  0  0  0  0  0  0  0  0  0  0  0
  1  2  2  0
  2  3  1  0
  3  4  1  0
  4  5  1  0
  5  6  2  0
  6  7  1  0
  7  8  2  0
  8  9  1  0
  9 10  1  0
 10 11  2  0
 11 12  1  0
 12 13  2  0
 13 14  1  0
 14 15  2  0
  8 16  1  0
 16 17  2  0
 16 18  1  0
 18 19  1  0
 19 20  1  0
 20 21  1  0
 21 22  2  0
 22 23  1  0
 23 24  2  0
 24 25  1  0
 25 26  2  0
  2 27  1  0
 27 28  1  0
 28 29  1  0
 29 30  2  0
 30 31  1  0
 31 32  2  0
 32 33  1  0
 18  5  1  0
 26 21  1  0
 33 29  1  0
 15  7  1  0
 15 10  1  0
  3 34  1  0
  3 35  1  0
 11 36  1  0
 12 37  1  0
 13 38  1  0
 14 39  1  0
 19 40  1  0
 19 41  1  0
 20 42  1  0
 20 43  1  0
 22 44  1  0
 23 45  1  0
 24 46  1  0
 25 47  1  0
 26 48  1  0
 27 49  1  0
 28 50  1  0
 28 51  1  0
 30 52  1  0
 31 53  1  0
 32 54  1  0
M  END
$$$$
