
     RDKit          3D

 46 48  0  0  0  0  0  0  0  0999 V2000
   -7.6958   -2.8307    1.0557 C   0  0  0  0  0  0  0  0  0  0  0  0
   -7.2857   -1.7299    0.2540 O   0  0  0  0  0  0  0  0  0  0  0  0
   -6.0401   -1.2176    0.4992 C   0  0  0  0  0  0  0  0  0  0  0  0
   -5.1668   -1.6374    1.4997 C   0  0  0  0  0  0  0  0  0  0  0  0
   -3.9201   -1.0224    1.6418 C   0  0  0  0  0  0  0  0  0  0  0  0
   -3.5285    0.0094    0.7783 C   0  0  0  0  0  0  0  0  0  0  0  0
   -2.2247    0.6633    0.9654 C   0  0  0  0  0  0  0  0  0  0  0  0
   -1.0155    0.1046    0.8127 C   0  0  0  0  0  0  0  0  0  0  0  0
    0.4523    1.0176    1.0431 S   0  0  0  0  0  0  0  0  0  0  0  0
    1.4345   -0.3512    0.6484 C   0  0  0  0  0  0  0  0  0  0  0  0
    2.7700   -0.3967    0.5882 C   0  0  0  0  0  0  0  0  0  0  0  0
    3.6774    0.7328    0.9240 C   0  0  0  0  0  0  0  0  0  0  0  0
    3.4542    1.4941    1.8570 O   0  0  0  0  0  0  0  0  0  0  0  0
    4.9365    0.8560    0.1379 C   0  0  0  0  0  0  0  0  0  0  0  0
    5.0620    0.3489   -1.1614 C   0  0  0  0  0  0  0  0  0  0  0  0
    6.2661    0.4947   -1.8577 C   0  0  0  0  0  0  0  0  0  0  0  0
    7.3498    1.1625   -1.2747 C   0  0  0  0  0  0  0  0  0  0  0  0
    8.6502    1.2910   -2.0123 C   0  0  0  0  0  0  0  0  0  0  0  0
    7.2203    1.6684    0.0237 C   0  0  0  0  0  0  0  0  0  0  0  0
    6.0188    1.5253    0.7217 C   0  0  0  0  0  0  0  0  0  0  0  0
    0.6663   -1.4387    0.3501 N   0  0  0  0  0  0  0  0  0  0  0  0
   -0.6981   -1.2979    0.4182 C   0  0  0  0  0  0  0  0  0  0  0  0
   -1.4798   -2.2042    0.1866 O   0  0  0  0  0  0  0  0  0  0  0  0
   -4.4128    0.4449   -0.2264 C   0  0  0  0  0  0  0  0  0  0  0  0
   -3.9699    1.4762   -1.0181 O   0  0  0  0  0  0  0  0  0  0  0  0
   -4.8128    1.8874   -2.0862 C   0  0  0  0  0  0  0  0  0  0  0  0
   -5.6606   -0.1760   -0.3558 C   0  0  0  0  0  0  0  0  0  0  0  0
   -7.0234   -3.6856    0.9284 H   0  0  0  0  0  0  0  0  0  0  0  0
   -8.6908   -3.1370    0.7185 H   0  0  0  0  0  0  0  0  0  0  0  0
   -7.7758   -2.5425    2.1091 H   0  0  0  0  0  0  0  0  0  0  0  0
   -5.4190   -2.4390    2.1852 H   0  0  0  0  0  0  0  0  0  0  0  0
   -3.2507   -1.3650    2.4277 H   0  0  0  0  0  0  0  0  0  0  0  0
   -2.3030    1.7195    1.2163 H   0  0  0  0  0  0  0  0  0  0  0  0
    3.2692   -1.3109    0.2861 H   0  0  0  0  0  0  0  0  0  0  0  0
    4.2335   -0.1446   -1.6613 H   0  0  0  0  0  0  0  0  0  0  0  0
    6.3507    0.0921   -2.8654 H   0  0  0  0  0  0  0  0  0  0  0  0
    9.1746    2.2077   -1.7227 H   0  0  0  0  0  0  0  0  0  0  0  0
    9.2911    0.4316   -1.7924 H   0  0  0  0  0  0  0  0  0  0  0  0
    8.4831    1.3407   -3.0934 H   0  0  0  0  0  0  0  0  0  0  0  0
    8.0521    2.1836    0.4999 H   0  0  0  0  0  0  0  0  0  0  0  0
    5.9317    1.9366    1.7260 H   0  0  0  0  0  0  0  0  0  0  0  0
    1.0422   -2.3407    0.0972 H   0  0  0  0  0  0  0  0  0  0  0  0
   -4.2973    2.6850   -2.6298 H   0  0  0  0  0  0  0  0  0  0  0  0
   -5.7548    2.2985   -1.7088 H   0  0  0  0  0  0  0  0  0  0  0  0
   -4.9901    1.0673   -2.7898 H   0  0  0  0  0  0  0  0  0  0  0  0
   -6.3702    0.1284   -1.1179 H   0  0  0  0  0  0  0  0  0  0  0  0
  1  2  1  0
  2  3  1  0
  3  4  2  0
  4  5  1  0
  5  6  2  0
  6  7  1  0
  7  8  2  3
  8  9  1  0
  9 10  1  0
 10 11  2  3
 11 12  1  0
 12 13  2  0
 12 14  1  0
 14 15  2  0
 15 16  1  0
 16 17  2  0
 17 18  1  0
 17 19  1  0
 19 20  2  0
 10 21  1  0
 21 22  1  0
 22 23  2  0
  6 24  1  0
 24 25  1  0
 25 26  1  0
 24 27  2  0
 27  3  1  0
 22  8  1  0
 20 14  1  0
  1 28  1  0
  1 29  1  0
  1 30  1  0
  4 31  1  0
  5 32  1  0
  7 33  1  0
 11 34  1  0
 15 35  1  0
 16 36  1  0
 18 37  1  0
 18 38  1  0
 18 39  1  0
 19 40  1  0
 20 41  1  0
 21 42  1  0
 26 43  1  0
 26 44  1  0
 26 45  1  0
 27 46  1  0
M  END
$$$$
