
     RDKit          3D

 43 45  0  0  0  0  0  0  0  0999 V2000
   -5.3395   -2.2369   -1.4383 C   0  0  0  0  0  0  0  0  0  0  0  0
   -4.1458   -1.5985   -1.8731 O   0  0  0  0  0  0  0  0  0  0  0  0
   -3.7538   -0.4809   -1.1911 C   0  0  0  0  0  0  0  0  0  0  0  0
   -4.4406    0.1172   -0.1337 C   0  0  0  0  0  0  0  0  0  0  0  0
   -3.9257    1.2633    0.4815 C   0  0  0  0  0  0  0  0  0  0  0  0
   -2.7283    1.8271    0.0350 C   0  0  0  0  0  0  0  0  0  0  0  0
   -2.2131    2.9108    0.6893 O   0  0  0  0  0  0  0  0  0  0  0  0
   -2.9831    4.0860    0.4317 C   0  0  0  0  0  0  0  0  0  0  0  0
   -2.0294    1.2169   -1.0059 C   0  0  0  0  0  0  0  0  0  0  0  0
   -0.4952    1.8833   -1.5805 S   0  0  0  0  0  6  0  0  0  0  0  0
   -0.6860    3.3022   -1.8039 O   0  0  0  0  0  0  0  0  0  0  0  0
    0.0101    1.0408   -2.6452 O   0  0  0  0  0  0  0  0  0  0  0  0
    0.5286    1.7340   -0.2442 N   0  0  0  0  0  0  0  0  0  0  0  0
    1.1850    0.4939   -0.0287 C   0  0  0  0  0  0  0  0  0  0  0  0
    0.5043   -0.5610    0.5748 C   0  0  0  0  0  0  0  0  0  0  0  0
    1.1448   -1.7866    0.7492 C   0  0  0  0  0  0  0  0  0  0  0  0
    2.4604   -1.9516    0.3196 C   0  0  0  0  0  0  0  0  0  0  0  0
    3.0119   -3.1836    0.5430 O   0  0  0  0  0  0  0  0  0  0  0  0
    3.1523   -0.9029   -0.3042 C   0  0  0  0  0  0  0  0  0  0  0  0
    4.8051   -1.0647   -0.9638 S   0  0  0  0  0  0  0  0  0  0  0  0
    5.7413   -1.3237    0.4791 C   0  0  0  0  0  0  0  0  0  0  0  0
    6.6004   -0.4002    1.0016 N   0  0  0  0  0  0  0  0  0  0  0  0
    7.0854   -1.0116    2.0560 C   0  0  0  0  0  0  0  0  0  0  0  0
    6.5392   -2.2520    2.1538 N   0  0  0  0  0  0  0  0  0  0  0  0
    5.6763   -2.4829    1.1478 N   0  0  0  0  0  0  0  0  0  0  0  0
    2.4951    0.3227   -0.4812 C   0  0  0  0  0  0  0  0  0  0  0  0
   -2.5476    0.0730   -1.6262 C   0  0  0  0  0  0  0  0  0  0  0  0
   -5.2444   -2.5872   -0.4055 H   0  0  0  0  0  0  0  0  0  0  0  0
   -5.5012   -3.1127   -2.0737 H   0  0  0  0  0  0  0  0  0  0  0  0
   -6.2048   -1.5767   -1.5533 H   0  0  0  0  0  0  0  0  0  0  0  0
   -5.3753   -0.2865    0.2420 H   0  0  0  0  0  0  0  0  0  0  0  0
   -4.4563    1.7018    1.3224 H   0  0  0  0  0  0  0  0  0  0  0  0
   -3.9003    4.0859    1.0282 H   0  0  0  0  0  0  0  0  0  0  0  0
   -3.2242    4.1922   -0.6319 H   0  0  0  0  0  0  0  0  0  0  0  0
   -2.3840    4.9506    0.7327 H   0  0  0  0  0  0  0  0  0  0  0  0
    1.0474    2.5945   -0.0806 H   0  0  0  0  0  0  0  0  0  0  0  0
   -0.5159   -0.4384    0.9263 H   0  0  0  0  0  0  0  0  0  0  0  0
    0.6220   -2.6135    1.2215 H   0  0  0  0  0  0  0  0  0  0  0  0
    3.9877   -3.0921    0.4919 H   0  0  0  0  0  0  0  0  0  0  0  0
    7.8087   -0.6208    2.7576 H   0  0  0  0  0  0  0  0  0  0  0  0
    6.7025   -2.9718    2.8496 H   0  0  0  0  0  0  0  0  0  0  0  0
    2.9995    1.1417   -0.9876 H   0  0  0  0  0  0  0  0  0  0  0  0
   -2.0133   -0.4014   -2.4475 H   0  0  0  0  0  0  0  0  0  0  0  0
  1  2  1  0
  2  3  1  0
  3  4  2  0
  4  5  1  0
  5  6  2  0
  6  7  1  0
  7  8  1  0
  6  9  1  0
  9 10  1  0
 10 11  2  0
 10 12  2  0
 10 13  1  0
 13 14  1  0
 14 15  2  0
 15 16  1  0
 16 17  2  0
 17 18  1  0
 17 19  1  0
 19 20  1  0
 20 21  1  0
 21 22  1  0
 22 23  2  0
 23 24  1  0
 24 25  1  0
 19 26  2  0
  9 27  2  0
 27  3  1  0
 26 14  1  0
 25 21  2  0
  1 28  1  0
  1 29  1  0
  1 30  1  0
  4 31  1  0
  5 32  1  0
  8 33  1  0
  8 34  1  0
  8 35  1  0
 13 36  1  0
 15 37  1  0
 16 38  1  0
 18 39  1  0
 23 40  1  0
 24 41  1  0
 26 42  1  0
 27 43  1  0
M  END
$$$$
