
     RDKit          3D

 80 86  0  0  0  0  0  0  0  0999 V2000
    6.8546   -2.0826   -0.4445 C   0  0  0  0  0  0  0  0  0  0  0  0
    6.1939   -2.2258    0.9312 C   0  0  0  0  0  0  0  0  0  0  0  0
    6.2107   -3.7094    1.3313 C   0  0  0  0  0  0  0  0  0  0  0  0
    6.9290   -1.4217    2.0092 C   0  0  0  0  0  0  0  0  0  0  0  0
    4.7869   -1.8789    0.8752 O   0  0  0  0  0  0  0  0  0  0  0  0
    4.3855   -0.6209    0.5613 C   0  0  0  0  0  0  0  0  0  0  0  0
    5.1440    0.3091    0.3183 O   0  0  0  0  0  0  0  0  0  0  0  0
    3.0064   -0.5046    0.5409 N   0  0  0  0  0  0  0  0  0  0  0  0
    2.1280   -1.5656    1.0729 C   0  0  0  0  0  0  0  0  0  0  0  0
    0.6652   -1.4875    0.5644 C   0  0  0  0  0  0  0  0  0  0  0  0
    0.1909   -0.1189    0.6883 N   0  0  0  0  0  0  0  0  0  0  0  0
    1.0315    0.8022   -0.1431 C   0  0  2  0  0  0  0  0  0  0  0  0
    2.4310    0.8497    0.4572 C   0  0  0  0  0  0  0  0  0  0  0  0
    0.1913    2.0182   -0.1150 C   0  0  0  0  0  0  0  0  0  0  0  0
   -1.1418    1.6689    0.2008 C   0  0  0  0  0  0  0  0  0  0  0  0
   -1.8940    2.8147    0.2123 C   0  0  0  0  0  0  0  0  0  0  0  0
   -3.1721    3.0404    0.4919 O   0  0  0  0  0  0  0  0  0  0  0  0
   -1.0376    3.8487   -0.1421 N   0  0  0  0  0  0  0  0  0  0  0  0
   -1.4268    5.2494   -0.2518 C   0  0  0  0  0  0  0  0  0  0  0  0
   -1.8846    5.5985   -1.6470 C   0  0  0  0  0  0  0  0  0  0  0  0
   -3.2325    5.4636   -2.0104 C   0  0  0  0  0  0  0  0  0  0  0  0
   -3.6546    5.7810   -3.3026 C   0  0  0  0  0  0  0  0  0  0  0  0
   -2.7336    6.2319   -4.2463 C   0  0  0  0  0  0  0  0  0  0  0  0
   -1.3898    6.3613   -3.9007 C   0  0  0  0  0  0  0  0  0  0  0  0
   -0.9665    6.0443   -2.6088 C   0  0  0  0  0  0  0  0  0  0  0  0
    0.2536    3.3689   -0.3203 C   0  0  0  0  0  0  0  0  0  0  0  0
    1.2533    4.1804   -0.6395 O   0  0  0  0  0  0  0  0  0  0  0  0
   -1.2327    0.2021    0.4332 C   0  0  1  0  0  0  0  0  0  0  0  0
   -1.8699   -0.5678   -0.7510 C   0  0  0  0  0  0  0  0  0  0  0  0
   -1.4409   -0.6658   -1.8935 O   0  0  0  0  0  0  0  0  0  0  0  0
   -3.0375   -1.1693   -0.2475 N   0  0  0  0  0  0  0  0  0  0  0  0
   -3.8575   -2.0681   -1.0265 C   0  0  0  0  0  0  0  0  0  0  0  0
   -3.4090   -3.5074   -0.9069 C   0  0  0  0  0  0  0  0  0  0  0  0
   -4.1039   -4.4150   -0.0953 C   0  0  0  0  0  0  0  0  0  0  0  0
   -3.6711   -5.7376    0.0221 C   0  0  0  0  0  0  0  0  0  0  0  0
   -2.5407   -6.1678   -0.6698 C   0  0  0  0  0  0  0  0  0  0  0  0
   -1.8420   -5.2771   -1.4810 C   0  0  0  0  0  0  0  0  0  0  0  0
   -2.2725   -3.9549   -1.5988 C   0  0  0  0  0  0  0  0  0  0  0  0
   -3.2109   -0.8833    1.1162 C   0  0  0  0  0  0  0  0  0  0  0  0
   -4.2242   -1.2907    1.9649 C   0  0  0  0  0  0  0  0  0  0  0  0
   -4.1748   -0.8725    3.2983 C   0  0  0  0  0  0  0  0  0  0  0  0
   -3.1238   -0.0644    3.7606 C   0  0  0  0  0  0  0  0  0  0  0  0
   -2.1068    0.3414    2.8958 C   0  0  0  0  0  0  0  0  0  0  0  0
   -2.1670   -0.0684    1.5709 C   0  0  0  0  0  0  0  0  0  0  0  0
    6.2672   -2.5972   -1.2132 H   0  0  0  0  0  0  0  0  0  0  0  0
    6.9278   -1.0358   -0.7554 H   0  0  0  0  0  0  0  0  0  0  0  0
    7.8686   -2.4969   -0.4454 H   0  0  0  0  0  0  0  0  0  0  0  0
    5.6586   -4.3160    0.6039 H   0  0  0  0  0  0  0  0  0  0  0  0
    7.2309   -4.1007    1.4034 H   0  0  0  0  0  0  0  0  0  0  0  0
    5.7139   -3.8579    2.2974 H   0  0  0  0  0  0  0  0  0  0  0  0
    7.0346   -0.3688    1.7325 H   0  0  0  0  0  0  0  0  0  0  0  0
    7.9371   -1.8145    2.1810 H   0  0  0  0  0  0  0  0  0  0  0  0
    6.3785   -1.4454    2.9557 H   0  0  0  0  0  0  0  0  0  0  0  0
    2.1461   -1.4648    2.1654 H   0  0  0  0  0  0  0  0  0  0  0  0
    2.5381   -2.5509    0.8274 H   0  0  0  0  0  0  0  0  0  0  0  0
    0.6279   -1.8290   -0.4770 H   0  0  0  0  0  0  0  0  0  0  0  0
    0.0513   -2.1713    1.1610 H   0  0  0  0  0  0  0  0  0  0  0  0
    1.0837    0.4358   -1.1785 H   0  0  0  0  0  0  0  0  0  0  0  0
    2.4209    1.2640    1.4738 H   0  0  0  0  0  0  0  0  0  0  0  0
    3.0792    1.4957   -0.1454 H   0  0  0  0  0  0  0  0  0  0  0  0
   -3.5620    2.1960    0.7819 H   0  0  0  0  0  0  0  0  0  0  0  0
   -0.5734    5.8692    0.0472 H   0  0  0  0  0  0  0  0  0  0  0  0
   -2.2183    5.4448    0.4812 H   0  0  0  0  0  0  0  0  0  0  0  0
   -3.9593    5.1003   -1.2862 H   0  0  0  0  0  0  0  0  0  0  0  0
   -4.7012    5.6700   -3.5732 H   0  0  0  0  0  0  0  0  0  0  0  0
   -3.0618    6.4751   -5.2532 H   0  0  0  0  0  0  0  0  0  0  0  0
   -0.6688    6.7038   -4.6382 H   0  0  0  0  0  0  0  0  0  0  0  0
    0.0875    6.1388   -2.3548 H   0  0  0  0  0  0  0  0  0  0  0  0
    2.0479    3.6365   -0.7795 H   0  0  0  0  0  0  0  0  0  0  0  0
   -3.8024   -1.7719   -2.0818 H   0  0  0  0  0  0  0  0  0  0  0  0
   -4.9081   -1.9557   -0.7350 H   0  0  0  0  0  0  0  0  0  0  0  0
   -4.9895   -4.1029    0.4518 H   0  0  0  0  0  0  0  0  0  0  0  0
   -4.2175   -6.4341    0.6531 H   0  0  0  0  0  0  0  0  0  0  0  0
   -2.2061   -7.1978   -0.5791 H   0  0  0  0  0  0  0  0  0  0  0  0
   -0.9622   -5.6107   -2.0254 H   0  0  0  0  0  0  0  0  0  0  0  0
   -1.7159   -3.2723   -2.2395 H   0  0  0  0  0  0  0  0  0  0  0  0
   -5.0434   -1.9140    1.6282 H   0  0  0  0  0  0  0  0  0  0  0  0
   -4.9572   -1.1795    3.9895 H   0  0  0  0  0  0  0  0  0  0  0  0
   -3.1005    0.2459    4.8032 H   0  0  0  0  0  0  0  0  0  0  0  0
   -1.2888    0.9637    3.2483 H   0  0  0  0  0  0  0  0  0  0  0  0
  1  2  1  0
  2  3  1  0
  2  4  1  0
  2  5  1  0
  5  6  1  0
  6  7  2  0
  6  8  1  0
  8  9  1  0
  9 10  1  0
 10 11  1  0
 11 12  1  0
 12 13  1  0
 12 14  1  0
 14 15  1  0
 15 16  2  0
 16 17  1  0
 16 18  1  0
 18 19  1  0
 19 20  1  0
 20 21  2  0
 21 22  1  0
 22 23  2  0
 23 24  1  0
 24 25  2  0
 18 26  1  0
 26 27  1  0
 15 28  1  0
 28 29  1  0
 29 30  2  0
 29 31  1  0
 31 32  1  0
 32 33  1  0
 33 34  2  0
 34 35  1  0
 35 36  2  0
 36 37  1  0
 37 38  2  0
 31 39  1  0
 39 40  2  0
 40 41  1  0
 41 42  2  0
 42 43  1  0
 43 44  2  0
 13  8  1  0
 26 14  2  0
 44 28  1  0
 28 11  1  1
 38 33  1  0
 44 39  1  0
 25 20  1  0
  1 45  1  0
  1 46  1  0
  1 47  1  0
  3 48  1  0
  3 49  1  0
  3 50  1  0
  4 51  1  0
  4 52  1  0
  4 53  1  0
  9 54  1  0
  9 55  1  0
 10 56  1  0
 10 57  1  0
 12 58  1  6
 13 59  1  0
 13 60  1  0
 17 61  1  0
 19 62  1  0
 19 63  1  0
 21 64  1  0
 22 65  1  0
 23 66  1  0
 24 67  1  0
 25 68  1  0
 27 69  1  0
 32 70  1  0
 32 71  1  0
 34 72  1  0
 35 73  1  0
 36 74  1  0
 37 75  1  0
 38 76  1  0
 40 77  1  0
 41 78  1  0
 42 79  1  0
 43 80  1  0
M  END
$$$$
