
     RDKit          3D

 58 61  0  0  0  0  0  0  0  0999 V2000
    7.9356   -0.8685    0.3356 C   0  0  0  0  0  0  0  0  0  0  0  0
    6.6933   -1.5871   -0.1217 C   0  0  0  0  0  0  0  0  0  0  0  0
    6.8211   -2.9175   -0.5451 C   0  0  0  0  0  0  0  0  0  0  0  0
    5.7122   -3.6328   -0.9782 C   0  0  0  0  0  0  0  0  0  0  0  0
    4.4558   -3.0309   -0.9966 C   0  0  0  0  0  0  0  0  0  0  0  0
    4.2874   -1.7046   -0.5852 C   0  0  0  0  0  0  0  0  0  0  0  0
    3.0162   -1.0744   -0.5931 N   0  0  0  0  0  0  0  0  0  0  0  0
    1.8075   -1.5993   -1.0204 C   0  0  0  0  0  0  0  0  0  0  0  0
    1.6072   -2.6979   -1.5219 O   0  0  0  0  0  0  0  0  0  0  0  0
    0.6669   -0.6534   -0.8494 C   0  0  0  0  0  0  0  0  0  0  0  0
   -0.1580   -0.4236   -1.9834 C   0  0  0  0  0  0  0  0  0  0  0  0
   -0.8240   -0.1852   -2.9048 N   0  0  0  0  0  0  0  0  0  0  0  0
    0.4395   -0.1537    0.3816 C   0  0  0  0  0  0  0  0  0  0  0  0
   -0.5895    0.7481    0.7986 C   0  0  0  0  0  0  0  0  0  0  0  0
   -1.1501    1.7546    0.0442 C   0  0  0  0  0  0  0  0  0  0  0  0
   -2.1124    2.3703    0.8070 N   0  0  0  0  0  0  0  0  0  0  0  0
   -2.9710    3.4470    0.3340 C   0  0  0  0  0  0  0  0  0  0  0  0
   -4.4024    2.9987    0.1186 C   0  0  0  0  0  0  0  0  0  0  0  0
   -5.3533    3.6115    0.6007 O   0  0  0  0  0  0  0  0  0  0  0  0
   -4.5598    1.9030   -0.6930 N   0  0  0  0  0  0  0  0  0  0  0  0
   -5.8640    1.3984   -1.0514 C   0  0  0  0  0  0  0  0  0  0  0  0
   -5.6920    0.0667   -1.6781 C   0  0  0  0  0  0  0  0  0  0  0  0
   -6.2148   -1.1834   -1.4193 C   0  0  0  0  0  0  0  0  0  0  0  0
   -5.6281   -2.0644   -2.3612 C   0  0  0  0  0  0  0  0  0  0  0  0
   -4.7844   -1.2986   -3.1309 C   0  0  0  0  0  0  0  0  0  0  0  0
   -4.8225   -0.0023   -2.7300 O   0  0  0  0  0  0  0  0  0  0  0  0
   -2.1422    1.8223    2.0726 C   0  0  0  0  0  0  0  0  0  0  0  0
   -2.9334    2.1321    3.1909 C   0  0  0  0  0  0  0  0  0  0  0  0
   -2.7471    1.3842    4.3564 C   0  0  0  0  0  0  0  0  0  0  0  0
   -1.8087    0.3592    4.4061 C   0  0  0  0  0  0  0  0  0  0  0  0
   -1.0288    0.0542    3.2854 C   0  0  0  0  0  0  0  0  0  0  0  0
   -1.1912    0.7965    2.0947 C   0  0  0  0  0  0  0  0  0  0  0  0
    5.4177   -0.9669   -0.1378 C   0  0  0  0  0  0  0  0  0  0  0  0
    5.2622    0.4671    0.3139 C   0  0  0  0  0  0  0  0  0  0  0  0
    7.8319   -0.5552    1.3793 H   0  0  0  0  0  0  0  0  0  0  0  0
    8.1258    0.0033   -0.2985 H   0  0  0  0  0  0  0  0  0  0  0  0
    8.8202   -1.5121    0.2765 H   0  0  0  0  0  0  0  0  0  0  0  0
    7.7920   -3.4090   -0.5404 H   0  0  0  0  0  0  0  0  0  0  0  0
    5.8213   -4.6639   -1.3044 H   0  0  0  0  0  0  0  0  0  0  0  0
    3.6248   -3.6369   -1.3420 H   0  0  0  0  0  0  0  0  0  0  0  0
    3.0039   -0.1134   -0.2806 H   0  0  0  0  0  0  0  0  0  0  0  0
    1.0853   -0.4974    1.1903 H   0  0  0  0  0  0  0  0  0  0  0  0
   -0.9655    2.0848   -0.9708 H   0  0  0  0  0  0  0  0  0  0  0  0
   -2.5679    3.8344   -0.6074 H   0  0  0  0  0  0  0  0  0  0  0  0
   -2.9368    4.2477    1.0800 H   0  0  0  0  0  0  0  0  0  0  0  0
   -3.7638    1.4908   -1.1693 H   0  0  0  0  0  0  0  0  0  0  0  0
   -6.4894    1.3435   -0.1544 H   0  0  0  0  0  0  0  0  0  0  0  0
   -6.3233    2.1022   -1.7529 H   0  0  0  0  0  0  0  0  0  0  0  0
   -6.9226   -1.4299   -0.6398 H   0  0  0  0  0  0  0  0  0  0  0  0
   -5.7907   -3.1284   -2.4614 H   0  0  0  0  0  0  0  0  0  0  0  0
   -4.1189   -1.5118   -3.9566 H   0  0  0  0  0  0  0  0  0  0  0  0
   -3.6779    2.9229    3.1623 H   0  0  0  0  0  0  0  0  0  0  0  0
   -3.3507    1.6051    5.2341 H   0  0  0  0  0  0  0  0  0  0  0  0
   -1.6838   -0.2150    5.3208 H   0  0  0  0  0  0  0  0  0  0  0  0
   -0.3094   -0.7576    3.3389 H   0  0  0  0  0  0  0  0  0  0  0  0
    4.8787    1.0797   -0.5092 H   0  0  0  0  0  0  0  0  0  0  0  0
    4.5735    0.5202    1.1640 H   0  0  0  0  0  0  0  0  0  0  0  0
    6.1980    0.9269    0.6390 H   0  0  0  0  0  0  0  0  0  0  0  0
  1  2  1  0
  2  3  2  0
  3  4  1  0
  4  5  2  0
  5  6  1  0
  6  7  1  0
  7  8  1  0
  8  9  2  0
  8 10  1  0
 10 11  1  0
 11 12  3  0
 10 13  2  3
 13 14  1  0
 14 15  2  0
 15 16  1  0
 16 17  1  0
 17 18  1  0
 18 19  2  0
 18 20  1  0
 20 21  1  0
 21 22  1  0
 22 23  2  0
 23 24  1  0
 24 25  2  0
 25 26  1  0
 16 27  1  0
 27 28  2  0
 28 29  1  0
 29 30  2  0
 30 31  1  0
 31 32  2  0
  6 33  2  0
 33 34  1  0
 33  2  1  0
 32 14  1  0
 26 22  1  0
 32 27  1  0
  1 35  1  0
  1 36  1  0
  1 37  1  0
  3 38  1  0
  4 39  1  0
  5 40  1  0
  7 41  1  0
 13 42  1  0
 15 43  1  0
 17 44  1  0
 17 45  1  0
 20 46  1  0
 21 47  1  0
 21 48  1  0
 23 49  1  0
 24 50  1  0
 25 51  1  0
 28 52  1  0
 29 53  1  0
 30 54  1  0
 31 55  1  0
 34 56  1  0
 34 57  1  0
 34 58  1  0
M  END
$$$$
