
     RDKit          3D

 40 42  0  0  0  0  0  0  0  0999 V2000
   -6.3895   -0.4128   -1.6384 C   0  0  0  0  0  0  0  0  0  0  0  0
   -6.7971    0.0299    0.0398 S   0  0  0  0  0  6  0  0  0  0  0  0
   -6.7412    1.4683    0.1684 O   0  0  0  0  0  0  0  0  0  0  0  0
   -7.9873   -0.7090    0.4061 O   0  0  0  0  0  0  0  0  0  0  0  0
   -5.5481   -0.6766    0.9169 N   0  0  0  0  0  0  0  0  0  0  0  0
   -4.1872   -0.3435    0.6669 C   0  0  0  0  0  0  0  0  0  0  0  0
   -3.7372    0.9762    0.6342 C   0  0  0  0  0  0  0  0  0  0  0  0
   -2.3877    1.2533    0.3946 C   0  0  0  0  0  0  0  0  0  0  0  0
   -1.4753    0.2081    0.2171 C   0  0  0  0  0  0  0  0  0  0  0  0
   -0.0477    0.5422   -0.0423 C   0  0  0  0  0  0  0  0  0  0  0  0
    0.1966    1.5152   -0.7434 O   0  0  0  0  0  0  0  0  0  0  0  0
    0.8623   -0.2902    0.5828 N   0  0  0  0  0  0  0  0  0  0  0  0
    2.2697   -0.2455    0.4842 C   0  0  0  0  0  0  0  0  0  0  0  0
    2.9925   -1.1389    1.2888 C   0  0  0  0  0  0  0  0  0  0  0  0
    4.3892   -1.1720    1.2446 C   0  0  0  0  0  0  0  0  0  0  0  0
    5.0740   -0.3151    0.3901 C   0  0  0  0  0  0  0  0  0  0  0  0
    4.3639    0.5941   -0.3981 C   0  0  0  0  0  0  0  0  0  0  0  0
    2.9671    0.6185   -0.3634 C   0  0  0  0  0  0  0  0  0  0  0  0
    4.9751    1.4886   -1.2412 O   0  0  0  0  0  0  0  0  0  0  0  0
    6.3678    1.6226   -0.9390 C   0  0  0  0  0  0  0  0  0  0  0  0
    7.0064    0.2567   -0.7506 C   0  0  0  0  0  0  0  0  0  0  0  0
    6.4411   -0.4157    0.3810 O   0  0  0  0  0  0  0  0  0  0  0  0
   -1.9228   -1.1177    0.2594 C   0  0  0  0  0  0  0  0  0  0  0  0
   -3.2750   -1.3892    0.4932 C   0  0  0  0  0  0  0  0  0  0  0  0
   -5.4664    0.0887   -1.9330 H   0  0  0  0  0  0  0  0  0  0  0  0
   -6.2897   -1.4978   -1.7047 H   0  0  0  0  0  0  0  0  0  0  0  0
   -7.2086   -0.0782   -2.2791 H   0  0  0  0  0  0  0  0  0  0  0  0
   -5.7644   -1.6367    1.1831 H   0  0  0  0  0  0  0  0  0  0  0  0
   -4.4159    1.8080    0.8065 H   0  0  0  0  0  0  0  0  0  0  0  0
   -2.0491    2.2876    0.3567 H   0  0  0  0  0  0  0  0  0  0  0  0
    0.4916   -0.9632    1.2406 H   0  0  0  0  0  0  0  0  0  0  0  0
    2.4818   -1.8228    1.9616 H   0  0  0  0  0  0  0  0  0  0  0  0
    4.9398   -1.8710    1.8677 H   0  0  0  0  0  0  0  0  0  0  0  0
    2.4547    1.3278   -1.0049 H   0  0  0  0  0  0  0  0  0  0  0  0
    6.4727    2.2432   -0.0404 H   0  0  0  0  0  0  0  0  0  0  0  0
    6.8396    2.1492   -1.7744 H   0  0  0  0  0  0  0  0  0  0  0  0
    6.8689   -0.3764   -1.6360 H   0  0  0  0  0  0  0  0  0  0  0  0
    8.0807    0.3627   -0.5704 H   0  0  0  0  0  0  0  0  0  0  0  0
   -1.2394   -1.9446    0.0841 H   0  0  0  0  0  0  0  0  0  0  0  0
   -3.6062   -2.4242    0.5222 H   0  0  0  0  0  0  0  0  0  0  0  0
  1  2  1  0
  2  3  2  0
  2  4  2  0
  2  5  1  0
  5  6  1  0
  6  7  2  0
  7  8  1  0
  8  9  2  0
  9 10  1  0
 10 11  2  0
 10 12  1  0
 12 13  1  0
 13 14  2  0
 14 15  1  0
 15 16  2  0
 16 17  1  0
 17 18  2  0
 17 19  1  0
 19 20  1  0
 20 21  1  0
 21 22  1  0
  9 23  1  0
 23 24  2  0
 24  6  1  0
 18 13  1  0
 22 16  1  0
  1 25  1  0
  1 26  1  0
  1 27  1  0
  5 28  1  0
  7 29  1  0
  8 30  1  0
 12 31  1  0
 14 32  1  0
 15 33  1  0
 18 34  1  0
 20 35  1  0
 20 36  1  0
 21 37  1  0
 21 38  1  0
 23 39  1  0
 24 40  1  0
M  END
$$$$
