
     RDKit          3D

 57 59  0  0  0  0  0  0  0  0999 V2000
   -6.1435   -2.0289   -1.6802 C   0  0  0  0  0  0  0  0  0  0  0  0
   -4.9345   -1.1100   -1.5387 C   0  0  0  0  0  0  0  0  0  0  0  0
   -3.8833   -1.6761   -0.6767 N   0  0  0  0  0  0  0  0  0  0  0  0
   -4.2781   -1.6802    0.7421 C   0  0  0  0  0  0  0  0  0  0  0  0
   -3.2600   -2.3431    1.6667 C   0  0  0  0  0  0  0  0  0  0  0  0
   -2.5822   -1.0257   -0.9286 C   0  0  0  0  0  0  0  0  0  0  0  0
   -2.4492    0.4602   -0.5558 C   0  0  0  0  0  0  0  0  0  0  0  0
   -1.1068    0.8766   -0.8623 O   0  0  0  0  0  0  0  0  0  0  0  0
   -0.8235    2.1111   -0.3294 C   0  0  0  0  0  0  0  0  0  0  0  0
   -1.2797    3.2646   -0.8613 C   0  0  0  0  0  0  0  0  0  0  0  0
   -0.8835    4.5470   -0.1870 C   0  0  2  0  0  0  0  0  0  0  0  0
   -0.9565    5.7033   -1.0063 O   0  0  0  0  0  0  0  0  0  0  0  0
   -0.2421    6.6779   -0.3419 C   0  0  0  0  0  0  0  0  0  0  0  0
   -0.2685    7.8588   -0.6486 O   0  0  0  0  0  0  0  0  0  0  0  0
    0.7782    6.0652    0.9821 S   0  0  0  0  0  0  0  0  0  0  0  0
    0.5706    4.4365    0.2893 C   0  0  1  0  0  0  0  0  0  0  0  0
    0.7601    3.2436    1.1637 C   0  0  0  0  0  0  0  0  0  0  0  0
    0.0892    2.1208    0.8198 C   0  0  0  0  0  0  0  0  0  0  0  0
    0.2577    0.9119    1.6673 C   0  0  0  0  0  0  0  0  0  0  0  0
   -0.5777    0.6198    2.5184 O   0  0  0  0  0  0  0  0  0  0  0  0
    1.4712    0.0722    1.4876 C   0  0  0  0  0  0  0  0  0  0  0  0
    2.3261    0.1666    0.4571 C   0  0  0  0  0  0  0  0  0  0  0  0
    3.5212   -0.6785    0.3082 C   0  0  0  0  0  0  0  0  0  0  0  0
    4.6653   -0.1310   -0.2820 C   0  0  0  0  0  0  0  0  0  0  0  0
    5.8133   -0.9093   -0.4612 C   0  0  0  0  0  0  0  0  0  0  0  0
    5.8360   -2.2488   -0.0690 C   0  0  0  0  0  0  0  0  0  0  0  0
    7.0192   -2.8931   -0.3017 O   0  0  0  0  0  0  0  0  0  0  0  0
    7.0877   -4.2646    0.0678 C   0  0  0  0  0  0  0  0  0  0  0  0
    4.6938   -2.8071    0.5016 C   0  0  0  0  0  0  0  0  0  0  0  0
    3.5426   -2.0282    0.6827 C   0  0  0  0  0  0  0  0  0  0  0  0
   -5.8439   -3.0298   -2.0122 H   0  0  0  0  0  0  0  0  0  0  0  0
   -6.8322   -1.6215   -2.4282 H   0  0  0  0  0  0  0  0  0  0  0  0
   -6.7008   -2.1232   -0.7450 H   0  0  0  0  0  0  0  0  0  0  0  0
   -4.5373   -0.9599   -2.5507 H   0  0  0  0  0  0  0  0  0  0  0  0
   -5.2595   -0.1266   -1.1765 H   0  0  0  0  0  0  0  0  0  0  0  0
   -5.2082   -2.2473    0.8576 H   0  0  0  0  0  0  0  0  0  0  0  0
   -4.4858   -0.6645    1.1005 H   0  0  0  0  0  0  0  0  0  0  0  0
   -3.6855   -2.4525    2.6707 H   0  0  0  0  0  0  0  0  0  0  0  0
   -2.9904   -3.3414    1.3077 H   0  0  0  0  0  0  0  0  0  0  0  0
   -2.3471   -1.7477    1.7637 H   0  0  0  0  0  0  0  0  0  0  0  0
   -2.3316   -1.1381   -1.9932 H   0  0  0  0  0  0  0  0  0  0  0  0
   -1.7848   -1.5915   -0.4303 H   0  0  0  0  0  0  0  0  0  0  0  0
   -3.1541    1.0636   -1.1385 H   0  0  0  0  0  0  0  0  0  0  0  0
   -2.6486    0.6038    0.5126 H   0  0  0  0  0  0  0  0  0  0  0  0
   -1.9429    3.2826   -1.7177 H   0  0  0  0  0  0  0  0  0  0  0  0
   -1.5991    4.6871    0.6414 H   0  0  0  0  0  0  0  0  0  0  0  0
    1.2671    4.3685   -0.5577 H   0  0  0  0  0  0  0  0  0  0  0  0
    1.4360    3.2776    2.0115 H   0  0  0  0  0  0  0  0  0  0  0  0
    1.6050   -0.6598    2.2780 H   0  0  0  0  0  0  0  0  0  0  0  0
    2.1808    0.8975   -0.3342 H   0  0  0  0  0  0  0  0  0  0  0  0
    4.6830    0.9084   -0.6019 H   0  0  0  0  0  0  0  0  0  0  0  0
    6.6961   -0.4682   -0.9157 H   0  0  0  0  0  0  0  0  0  0  0  0
    6.9349   -4.3934    1.1448 H   0  0  0  0  0  0  0  0  0  0  0  0
    8.0929   -4.6251   -0.1717 H   0  0  0  0  0  0  0  0  0  0  0  0
    6.3727   -4.8635   -0.5061 H   0  0  0  0  0  0  0  0  0  0  0  0
    4.6589   -3.8464    0.8124 H   0  0  0  0  0  0  0  0  0  0  0  0
    2.6611   -2.5004    1.1106 H   0  0  0  0  0  0  0  0  0  0  0  0
  1  2  1  0
  2  3  1  0
  3  4  1  0
  4  5  1  0
  3  6  1  0
  6  7  1  0
  7  8  1  0
  8  9  1  0
  9 10  2  0
 10 11  1  0
 11 12  1  0
 12 13  1  0
 13 14  2  0
 13 15  1  0
 15 16  1  0
 16 17  1  0
 17 18  2  0
 18 19  1  0
 19 20  2  0
 19 21  1  0
 21 22  2  0
 22 23  1  0
 23 24  2  0
 24 25  1  0
 25 26  2  0
 26 27  1  0
 27 28  1  0
 26 29  1  0
 29 30  2  0
 18  9  1  0
 30 23  1  0
 16 11  1  0
  1 31  1  0
  1 32  1  0
  1 33  1  0
  2 34  1  0
  2 35  1  0
  4 36  1  0
  4 37  1  0
  5 38  1  0
  5 39  1  0
  5 40  1  0
  6 41  1  0
  6 42  1  0
  7 43  1  0
  7 44  1  0
 10 45  1  0
 11 46  1  1
 16 47  1  6
 17 48  1  0
 21 49  1  0
 22 50  1  0
 24 51  1  0
 25 52  1  0
 28 53  1  0
 28 54  1  0
 28 55  1  0
 29 56  1  0
 30 57  1  0
M  END
$$$$
