
     RDKit          3D

 56 60  0  0  0  0  0  0  0  0999 V2000
   -2.4017    0.0073    2.4834 C   0  0  0  0  0  0  0  0  0  0  0  0
   -3.2316   -1.0177    1.7605 C   0  0  0  0  0  0  0  0  0  0  0  0
   -4.2438   -1.6868    2.4635 C   0  0  0  0  0  0  0  0  0  0  0  0
   -5.0557   -2.6213    1.8246 C   0  0  0  0  0  0  0  0  0  0  0  0
   -4.8840   -2.8865    0.4677 C   0  0  0  0  0  0  0  0  0  0  0  0
   -3.8969   -2.2200   -0.2722 C   0  0  0  0  0  0  0  0  0  0  0  0
   -3.7672   -2.5124   -1.7421 C   0  0  0  0  0  0  0  0  0  0  0  0
   -3.0538   -1.2961    0.3873 C   0  0  0  0  0  0  0  0  0  0  0  0
   -2.0340   -0.6208   -0.3467 N   0  0  0  0  0  0  0  0  0  0  0  0
   -0.7955   -1.2018   -0.6043 C   0  0  0  0  0  0  0  0  0  0  0  0
   -0.4248   -2.7771    0.0951 S   0  0  0  0  0  0  0  0  0  0  0  0
    1.3769   -2.6092    0.3071 C   0  0  0  0  0  0  0  0  0  0  0  0
    1.7376   -1.3342    1.0797 C   0  0  0  0  0  0  0  0  0  0  0  0
    1.1077   -1.0434    2.1004 O   0  0  0  0  0  0  0  0  0  0  0  0
    2.7963   -0.5627    0.5768 N   0  0  0  0  0  0  0  0  0  0  0  0
    3.7778   -1.1550   -0.3348 C   0  0  0  0  0  0  0  0  0  0  0  0
    5.1391   -0.4908   -0.4452 C   0  0  0  0  0  0  0  0  0  0  0  0
    6.0954   -1.0435   -0.9874 O   0  0  0  0  0  0  0  0  0  0  0  0
    5.2305    0.7984   -0.0193 N   0  0  0  0  0  0  0  0  0  0  0  0
    4.1759    1.4790    0.5935 C   0  0  0  0  0  0  0  0  0  0  0  0
    4.3742    2.8294    0.9068 C   0  0  0  0  0  0  0  0  0  0  0  0
    3.3588    3.5606    1.5156 C   0  0  0  0  0  0  0  0  0  0  0  0
    2.1501    2.9416    1.8111 C   0  0  0  0  0  0  0  0  0  0  0  0
    1.9578    1.5891    1.5074 C   0  0  0  0  0  0  0  0  0  0  0  0
    2.9683    0.8259    0.9042 C   0  0  0  0  0  0  0  0  0  0  0  0
    0.1275   -0.6522   -1.3287 N   0  0  0  0  0  0  0  0  0  0  0  0
   -0.1051    0.6260   -1.8439 C   0  0  0  0  0  0  0  0  0  0  0  0
    0.9017    1.2407   -2.5931 C   0  0  0  0  0  0  0  0  0  0  0  0
    0.7211    2.5263   -3.1101 C   0  0  0  0  0  0  0  0  0  0  0  0
   -0.4728    3.2091   -2.8819 C   0  0  0  0  0  0  0  0  0  0  0  0
   -1.4841    2.6059   -2.1355 C   0  0  0  0  0  0  0  0  0  0  0  0
   -1.2919    1.3179   -1.6195 C   0  0  0  0  0  0  0  0  0  0  0  0
   -2.3419    0.6529   -0.8266 C   0  0  0  0  0  0  0  0  0  0  0  0
   -3.4038    1.2475   -0.6487 O   0  0  0  0  0  0  0  0  0  0  0  0
   -2.4693   -0.1212    3.5689 H   0  0  0  0  0  0  0  0  0  0  0  0
   -2.7499    1.0146    2.2363 H   0  0  0  0  0  0  0  0  0  0  0  0
   -1.3454   -0.0824    2.2199 H   0  0  0  0  0  0  0  0  0  0  0  0
   -4.4058   -1.4818    3.5197 H   0  0  0  0  0  0  0  0  0  0  0  0
   -5.8323   -3.1364    2.3842 H   0  0  0  0  0  0  0  0  0  0  0  0
   -5.5375   -3.6109   -0.0129 H   0  0  0  0  0  0  0  0  0  0  0  0
   -3.7299   -1.5838   -2.3209 H   0  0  0  0  0  0  0  0  0  0  0  0
   -4.6268   -3.0824   -2.1120 H   0  0  0  0  0  0  0  0  0  0  0  0
   -2.8666   -3.1009   -1.9387 H   0  0  0  0  0  0  0  0  0  0  0  0
    1.8192   -2.6464   -0.6889 H   0  0  0  0  0  0  0  0  0  0  0  0
    1.7508   -3.4660    0.8757 H   0  0  0  0  0  0  0  0  0  0  0  0
    3.9572   -2.1907   -0.0232 H   0  0  0  0  0  0  0  0  0  0  0  0
    3.3362   -1.1563   -1.3384 H   0  0  0  0  0  0  0  0  0  0  0  0
    6.1218    1.2546   -0.1647 H   0  0  0  0  0  0  0  0  0  0  0  0
    5.3136    3.3244    0.6755 H   0  0  0  0  0  0  0  0  0  0  0  0
    3.5072    4.6102    1.7561 H   0  0  0  0  0  0  0  0  0  0  0  0
    1.3475    3.5069    2.2794 H   0  0  0  0  0  0  0  0  0  0  0  0
    0.9853    1.1669    1.7417 H   0  0  0  0  0  0  0  0  0  0  0  0
    1.8361    0.7153   -2.7719 H   0  0  0  0  0  0  0  0  0  0  0  0
    1.5133    2.9938   -3.6900 H   0  0  0  0  0  0  0  0  0  0  0  0
   -0.6162    4.2093   -3.2842 H   0  0  0  0  0  0  0  0  0  0  0  0
   -2.4169    3.1369   -1.9562 H   0  0  0  0  0  0  0  0  0  0  0  0
  1  2  1  0
  2  3  2  0
  3  4  1  0
  4  5  2  0
  5  6  1  0
  6  7  1  0
  6  8  2  0
  8  9  1  0
  9 10  1  0
 10 11  1  0
 11 12  1  0
 12 13  1  0
 13 14  2  0
 13 15  1  0
 15 16  1  0
 16 17  1  0
 17 18  2  0
 17 19  1  0
 19 20  1  0
 20 21  2  0
 21 22  1  0
 22 23  2  0
 23 24  1  0
 24 25  2  0
 10 26  2  0
 26 27  1  0
 27 28  2  0
 28 29  1  0
 29 30  2  0
 30 31  1  0
 31 32  2  0
 32 33  1  0
 33 34  2  0
  8  2  1  0
 33  9  1  0
 25 15  1  0
 32 27  1  0
 25 20  1  0
  1 35  1  0
  1 36  1  0
  1 37  1  0
  3 38  1  0
  4 39  1  0
  5 40  1  0
  7 41  1  0
  7 42  1  0
  7 43  1  0
 12 44  1  0
 12 45  1  0
 16 46  1  0
 16 47  1  0
 19 48  1  0
 21 49  1  0
 22 50  1  0
 23 51  1  0
 24 52  1  0
 28 53  1  0
 29 54  1  0
 30 55  1  0
 31 56  1  0
M  END
$$$$
