
     RDKit          3D

 48 51  0  0  0  0  0  0  0  0999 V2000
    7.7533    1.6407   -0.4622 C   0  0  0  0  0  0  0  0  0  0  0  0
    6.3560    1.1748   -0.4767 C   0  0  0  0  0  0  0  0  0  0  0  0
    5.7551   -0.0521   -0.5987 C   0  0  0  0  0  0  0  0  0  0  0  0
    4.3658    0.2219   -0.5327 C   0  0  0  0  0  0  0  0  0  0  0  0
    3.2655   -0.7402   -0.6086 C   0  0  0  0  0  0  0  0  0  0  0  0
    3.4511   -1.9494   -0.7074 O   0  0  0  0  0  0  0  0  0  0  0  0
    2.0133   -0.1703   -0.5479 N   0  0  0  0  0  0  0  0  0  0  0  0
    0.8126   -0.9662   -0.4521 C   0  0  0  0  0  0  0  0  0  0  0  0
    0.6013   -1.4666    0.9968 C   0  0  0  0  0  0  0  0  0  0  0  0
   -0.8548   -1.9300    1.2967 C   0  0  0  0  0  0  0  0  0  0  0  0
   -1.2244   -3.1517    0.4307 C   0  0  0  0  0  0  0  0  0  0  0  0
   -0.9460   -2.3518    2.7756 C   0  0  0  0  0  0  0  0  0  0  0  0
   -1.8599   -0.7609    1.0471 C   0  0  0  0  0  0  0  0  0  0  0  0
   -1.5427   -0.0299   -0.2161 C   0  0  0  0  0  0  0  0  0  0  0  0
   -0.3411   -0.1347   -0.8954 C   0  0  0  0  0  0  0  0  0  0  0  0
   -0.5307    0.6054   -2.0669 C   0  0  0  0  0  0  0  0  0  0  0  0
   -1.7372    1.1622   -2.1237 N   0  0  0  0  0  0  0  0  0  0  0  0
   -2.3538    0.8248   -0.9530 N   0  0  0  0  0  0  0  0  0  0  0  0
   -3.6514    1.3632   -0.6802 C   0  0  0  0  0  0  0  0  0  0  0  0
   -4.2568    1.2827    0.5809 C   0  0  0  0  0  0  0  0  0  0  0  0
   -5.5288    1.8294    0.7906 C   0  0  0  0  0  0  0  0  0  0  0  0
   -6.1930    2.4626   -0.2519 C   0  0  0  0  0  0  0  0  0  0  0  0
   -7.4086    2.9834   -0.0411 F   0  0  0  0  0  0  0  0  0  0  0  0
   -5.6080    2.5691   -1.5043 C   0  0  0  0  0  0  0  0  0  0  0  0
   -4.3385    2.0258   -1.7179 C   0  0  0  0  0  0  0  0  0  0  0  0
    4.1475    1.5406   -0.3752 N   0  0  0  0  0  0  0  0  0  0  0  0
    5.3987    2.1301   -0.3428 O   0  0  0  0  0  0  0  0  0  0  0  0
    7.9317    2.3443   -1.2811 H   0  0  0  0  0  0  0  0  0  0  0  0
    8.4480    0.8028   -0.5759 H   0  0  0  0  0  0  0  0  0  0  0  0
    7.9798    2.1449    0.4823 H   0  0  0  0  0  0  0  0  0  0  0  0
    6.2318   -1.0138   -0.7196 H   0  0  0  0  0  0  0  0  0  0  0  0
    1.9766    0.8253   -0.3494 H   0  0  0  0  0  0  0  0  0  0  0  0
    0.9113   -1.8297   -1.1216 H   0  0  0  0  0  0  0  0  0  0  0  0
    0.8584   -0.6582    1.6974 H   0  0  0  0  0  0  0  0  0  0  0  0
    1.3109   -2.2778    1.2068 H   0  0  0  0  0  0  0  0  0  0  0  0
   -1.2372   -2.9177   -0.6382 H   0  0  0  0  0  0  0  0  0  0  0  0
   -2.2197   -3.5298    0.6913 H   0  0  0  0  0  0  0  0  0  0  0  0
   -0.5102   -3.9690    0.5823 H   0  0  0  0  0  0  0  0  0  0  0  0
   -0.6763   -1.5248    3.4420 H   0  0  0  0  0  0  0  0  0  0  0  0
   -0.2693   -3.1862    2.9915 H   0  0  0  0  0  0  0  0  0  0  0  0
   -1.9626   -2.6692    3.0339 H   0  0  0  0  0  0  0  0  0  0  0  0
   -1.7909   -0.0480    1.8783 H   0  0  0  0  0  0  0  0  0  0  0  0
   -2.8783   -1.1644    1.0209 H   0  0  0  0  0  0  0  0  0  0  0  0
    0.1550    0.7527   -2.8922 H   0  0  0  0  0  0  0  0  0  0  0  0
   -3.7687    0.8399    1.4384 H   0  0  0  0  0  0  0  0  0  0  0  0
   -6.0009    1.7733    1.7669 H   0  0  0  0  0  0  0  0  0  0  0  0
   -6.1363    3.0729   -2.3073 H   0  0  0  0  0  0  0  0  0  0  0  0
   -3.8977    2.1196   -2.7098 H   0  0  0  0  0  0  0  0  0  0  0  0
  1  2  1  0
  2  3  2  0
  3  4  1  0
  4  5  1  0
  5  6  2  0
  5  7  1  0
  7  8  1  0
  8  9  1  0
  9 10  1  0
 10 11  1  0
 10 12  1  0
 10 13  1  0
 13 14  1  0
 14 15  2  0
 15 16  1  0
 16 17  2  0
 17 18  1  0
 18 19  1  0
 19 20  2  0
 20 21  1  0
 21 22  2  0
 22 23  1  0
 22 24  1  0
 24 25  2  0
  4 26  2  0
 26 27  1  0
 27  2  1  0
 15  8  1  0
 25 19  1  0
 18 14  1  0
  1 28  1  0
  1 29  1  0
  1 30  1  0
  3 31  1  0
  7 32  1  0
  8 33  1  0
  9 34  1  0
  9 35  1  0
 11 36  1  0
 11 37  1  0
 11 38  1  0
 12 39  1  0
 12 40  1  0
 12 41  1  0
 13 42  1  0
 13 43  1  0
 16 44  1  0
 20 45  1  0
 21 46  1  0
 24 47  1  0
 25 48  1  0
M  END
$$$$
