
     RDKit          3D

 44 46  0  0  0  0  0  0  0  0999 V2000
   -1.6870    3.0779   -1.6444 C   0  0  0  0  0  0  0  0  0  0  0  0
   -2.9159    2.3614   -1.0781 C   0  0  0  0  0  0  0  0  0  0  0  0
   -3.6088    3.2209   -0.0181 C   0  0  0  0  0  0  0  0  0  0  0  0
   -2.5578    0.9874   -0.5374 C   0  0  0  0  0  0  0  0  0  0  0  0
   -1.6607    0.8322    0.5321 C   0  0  0  0  0  0  0  0  0  0  0  0
   -1.3281   -0.4375    1.0049 C   0  0  0  0  0  0  0  0  0  0  0  0
   -1.8775   -1.5654    0.3915 C   0  0  0  0  0  0  0  0  0  0  0  0
   -1.4040   -3.1831    0.9436 S   0  0  0  0  0  6  0  0  0  0  0  0
   -2.5415   -4.0602    0.7577 O   0  0  0  0  0  0  0  0  0  0  0  0
   -0.7575   -3.0701    2.2335 O   0  0  0  0  0  0  0  0  0  0  0  0
   -0.2586   -3.6507   -0.2166 N   0  0  0  0  0  0  0  0  0  0  0  0
    1.0437   -3.0867   -0.1191 C   0  0  0  0  0  0  0  0  0  0  0  0
    2.0262   -3.7266    0.6319 C   0  0  0  0  0  0  0  0  0  0  0  0
    3.2744   -3.1248    0.7869 C   0  0  0  0  0  0  0  0  0  0  0  0
    3.5240   -1.8773    0.2146 C   0  0  0  0  0  0  0  0  0  0  0  0
    4.7646   -1.3504    0.4482 O   0  0  0  0  0  0  0  0  0  0  0  0
    2.5426   -1.2224   -0.5425 C   0  0  0  0  0  0  0  0  0  0  0  0
    2.7863    0.3527   -1.3484 S   0  0  0  0  0  0  0  0  0  0  0  0
    2.9904    1.4095    0.0177 C   0  0  0  0  0  0  0  0  0  0  0  0
    4.0723    1.3090    0.8550 N   0  0  0  0  0  0  0  0  0  0  0  0
    3.8550    2.2668    1.7264 C   0  0  0  0  0  0  0  0  0  0  0  0
    2.6987    2.9110    1.4155 N   0  0  0  0  0  0  0  0  0  0  0  0
    2.1260    2.3804    0.3233 N   0  0  0  0  0  0  0  0  0  0  0  0
    1.3018   -1.8495   -0.7126 C   0  0  0  0  0  0  0  0  0  0  0  0
   -2.7891   -1.4339   -0.6571 C   0  0  0  0  0  0  0  0  0  0  0  0
   -3.1244   -0.1595   -1.1185 C   0  0  0  0  0  0  0  0  0  0  0  0
   -0.9468    3.2990   -0.8678 H   0  0  0  0  0  0  0  0  0  0  0  0
   -1.9753    4.0275   -2.1081 H   0  0  0  0  0  0  0  0  0  0  0  0
   -1.1951    2.4667   -2.4094 H   0  0  0  0  0  0  0  0  0  0  0  0
   -3.6261    2.2363   -1.9062 H   0  0  0  0  0  0  0  0  0  0  0  0
   -2.9462    3.4463    0.8246 H   0  0  0  0  0  0  0  0  0  0  0  0
   -4.4943    2.7130    0.3800 H   0  0  0  0  0  0  0  0  0  0  0  0
   -3.9343    4.1741   -0.4486 H   0  0  0  0  0  0  0  0  0  0  0  0
   -1.2014    1.7017    0.9979 H   0  0  0  0  0  0  0  0  0  0  0  0
   -0.6225   -0.5372    1.8268 H   0  0  0  0  0  0  0  0  0  0  0  0
   -0.3286   -4.6505   -0.4032 H   0  0  0  0  0  0  0  0  0  0  0  0
    1.8268   -4.6775    1.1178 H   0  0  0  0  0  0  0  0  0  0  0  0
    4.0468   -3.6135    1.3752 H   0  0  0  0  0  0  0  0  0  0  0  0
    4.6990   -0.3747    0.3772 H   0  0  0  0  0  0  0  0  0  0  0  0
    4.4761    2.5323    2.5704 H   0  0  0  0  0  0  0  0  0  0  0  0
    2.2540    3.6934    1.8833 H   0  0  0  0  0  0  0  0  0  0  0  0
    0.5296   -1.3687   -1.3091 H   0  0  0  0  0  0  0  0  0  0  0  0
   -3.2289   -2.3118   -1.1247 H   0  0  0  0  0  0  0  0  0  0  0  0
   -3.8277   -0.0673   -1.9440 H   0  0  0  0  0  0  0  0  0  0  0  0
  1  2  1  0
  2  3  1  0
  2  4  1  0
  4  5  2  0
  5  6  1  0
  6  7  2  0
  7  8  1  0
  8  9  2  0
  8 10  2  0
  8 11  1  0
 11 12  1  0
 12 13  2  0
 13 14  1  0
 14 15  2  0
 15 16  1  0
 15 17  1  0
 17 18  1  0
 18 19  1  0
 19 20  1  0
 20 21  2  0
 21 22  1  0
 22 23  1  0
 17 24  2  0
  7 25  1  0
 25 26  2  0
 26  4  1  0
 24 12  1  0
 23 19  2  0
  1 27  1  0
  1 28  1  0
  1 29  1  0
  2 30  1  0
  3 31  1  0
  3 32  1  0
  3 33  1  0
  5 34  1  0
  6 35  1  0
 11 36  1  0
 13 37  1  0
 14 38  1  0
 16 39  1  0
 21 40  1  0
 22 41  1  0
 24 42  1  0
 25 43  1  0
 26 44  1  0
M  END
$$$$
