
     RDKit          3D

 63 65  0  0  0  0  0  0  0  0999 V2000
    1.0730    5.0721    5.2413 C   0  0  0  0  0  0  0  0  0  0  0  0
    1.9543    5.6306    4.2764 O   0  0  0  0  0  0  0  0  0  0  0  0
    1.9658    5.0555    3.0344 C   0  0  0  0  0  0  0  0  0  0  0  0
    2.8054    5.6810    2.1110 C   0  0  0  0  0  0  0  0  0  0  0  0
    2.9094    5.2016    0.8071 C   0  0  0  0  0  0  0  0  0  0  0  0
    2.1743    4.0835    0.4171 C   0  0  0  0  0  0  0  0  0  0  0  0
    1.3419    3.4241    1.3337 C   0  0  0  0  0  0  0  0  0  0  0  0
    0.5174    2.2187    0.9353 C   0  0  0  0  0  0  0  0  0  0  0  0
    1.2303    1.2875    0.0510 N   0  0  0  0  0  0  0  0  0  0  0  0
    2.3072    0.4891    0.6731 C   0  0  0  0  0  0  0  0  0  0  0  0
    1.7996   -0.7276    1.4663 C   0  0  0  0  0  0  0  0  0  0  0  0
    2.5181   -1.3493    2.2452 O   0  0  0  0  0  0  0  0  0  0  0  0
    0.5008   -1.0865    1.1992 N   0  0  0  0  0  0  0  0  0  0  0  0
   -0.1102   -2.2983    1.7123 C   0  0  0  0  0  0  0  0  0  0  0  0
   -1.6164   -2.2384    1.4741 C   0  0  0  0  0  0  0  0  0  0  0  0
   -2.3564   -3.5148    1.8212 C   0  0  0  0  0  0  0  0  0  0  0  0
   -3.5636   -3.4093    0.9196 C   0  0  0  0  0  0  0  0  0  0  0  0
   -2.9741   -2.8069   -0.3394 C   0  0  0  0  0  0  0  0  0  0  0  0
   -1.8656   -1.9919    0.0710 O   0  0  0  0  0  0  0  0  0  0  0  0
    0.8966    1.0393   -1.2709 C   0  0  0  0  0  0  0  0  0  0  0  0
    1.5062    0.2107   -1.9514 O   0  0  0  0  0  0  0  0  0  0  0  0
   -0.2966    1.7846   -1.8516 C   0  0  0  0  0  0  0  0  0  0  0  0
   -0.5302    1.4629   -3.3257 C   0  0  0  0  0  0  0  0  0  0  0  0
   -1.2612    0.1394   -3.4852 C   0  0  0  0  0  0  0  0  0  0  0  0
   -2.4834    0.1191   -3.5944 O   0  0  0  0  0  0  0  0  0  0  0  0
   -0.4062   -0.9393   -3.4421 N   0  0  0  0  0  0  0  0  0  0  0  0
   -0.7822   -2.2607   -3.5619 C   0  0  0  0  0  0  0  0  0  0  0  0
    0.1194   -3.3390   -3.3876 C   0  0  0  0  0  0  0  0  0  0  0  0
   -0.6406   -4.4646   -3.5857 C   0  0  0  0  0  0  0  0  0  0  0  0
   -0.3677   -5.9107   -3.5526 C   0  0  0  0  0  0  0  0  0  0  0  0
   -1.9148   -4.0935   -3.8681 O   0  0  0  0  0  0  0  0  0  0  0  0
   -2.0075   -2.7143   -3.8465 N   0  0  0  0  0  0  0  0  0  0  0  0
    1.2334    3.9330    2.6412 C   0  0  0  0  0  0  0  0  0  0  0  0
    0.0332    5.1413    4.9083 H   0  0  0  0  0  0  0  0  0  0  0  0
    1.3472    4.0389    5.4752 H   0  0  0  0  0  0  0  0  0  0  0  0
    1.1678    5.6570    6.1618 H   0  0  0  0  0  0  0  0  0  0  0  0
    3.3819    6.5521    2.4137 H   0  0  0  0  0  0  0  0  0  0  0  0
    3.5632    5.7015    0.0968 H   0  0  0  0  0  0  0  0  0  0  0  0
    2.2685    3.7256   -0.6049 H   0  0  0  0  0  0  0  0  0  0  0  0
   -0.4062    2.5824    0.4816 H   0  0  0  0  0  0  0  0  0  0  0  0
    0.2241    1.6511    1.8249 H   0  0  0  0  0  0  0  0  0  0  0  0
    2.9904    0.1154   -0.0960 H   0  0  0  0  0  0  0  0  0  0  0  0
    2.8756    1.1318    1.3546 H   0  0  0  0  0  0  0  0  0  0  0  0
    0.1073   -0.7558    0.3247 H   0  0  0  0  0  0  0  0  0  0  0  0
    0.3413   -3.1311    1.1623 H   0  0  0  0  0  0  0  0  0  0  0  0
    0.1282   -2.4096    2.7750 H   0  0  0  0  0  0  0  0  0  0  0  0
   -2.0472   -1.3878    2.0169 H   0  0  0  0  0  0  0  0  0  0  0  0
   -2.6155   -3.5808    2.8832 H   0  0  0  0  0  0  0  0  0  0  0  0
   -1.7664   -4.4009    1.5549 H   0  0  0  0  0  0  0  0  0  0  0  0
   -4.0621   -4.3653    0.7412 H   0  0  0  0  0  0  0  0  0  0  0  0
   -4.2937   -2.7175    1.3580 H   0  0  0  0  0  0  0  0  0  0  0  0
   -3.6930   -2.1985   -0.8962 H   0  0  0  0  0  0  0  0  0  0  0  0
   -2.5859   -3.5883   -0.9994 H   0  0  0  0  0  0  0  0  0  0  0  0
   -1.1844    1.5205   -1.2682 H   0  0  0  0  0  0  0  0  0  0  0  0
   -0.1058    2.8577   -1.7574 H   0  0  0  0  0  0  0  0  0  0  0  0
   -1.1605    2.2383   -3.7764 H   0  0  0  0  0  0  0  0  0  0  0  0
    0.4055    1.4445   -3.8980 H   0  0  0  0  0  0  0  0  0  0  0  0
    0.5621   -0.7705   -3.1756 H   0  0  0  0  0  0  0  0  0  0  0  0
    1.1687   -3.2984   -3.1392 H   0  0  0  0  0  0  0  0  0  0  0  0
    0.7084   -6.1070   -3.5164 H   0  0  0  0  0  0  0  0  0  0  0  0
   -0.7710   -6.4039   -4.4427 H   0  0  0  0  0  0  0  0  0  0  0  0
   -0.8270   -6.3642   -2.6692 H   0  0  0  0  0  0  0  0  0  0  0  0
    0.5686    3.4337    3.3386 H   0  0  0  0  0  0  0  0  0  0  0  0
  1  2  1  0
  2  3  1  0
  3  4  2  0
  4  5  1  0
  5  6  2  0
  6  7  1  0
  7  8  1  0
  8  9  1  0
  9 10  1  0
 10 11  1  0
 11 12  2  0
 11 13  1  0
 13 14  1  0
 14 15  1  0
 15 16  1  0
 16 17  1  0
 17 18  1  0
 18 19  1  0
  9 20  1  0
 20 21  2  0
 20 22  1  0
 22 23  1  0
 23 24  1  0
 24 25  2  0
 24 26  1  0
 26 27  1  0
 27 28  1  0
 28 29  2  0
 29 30  1  0
 29 31  1  0
 31 32  1  0
  7 33  2  0
 33  3  1  0
 19 15  1  0
 32 27  2  0
  1 34  1  0
  1 35  1  0
  1 36  1  0
  4 37  1  0
  5 38  1  0
  6 39  1  0
  8 40  1  0
  8 41  1  0
 10 42  1  0
 10 43  1  0
 13 44  1  0
 14 45  1  0
 14 46  1  0
 15 47  1  0
 16 48  1  0
 16 49  1  0
 17 50  1  0
 17 51  1  0
 18 52  1  0
 18 53  1  0
 22 54  1  0
 22 55  1  0
 23 56  1  0
 23 57  1  0
 26 58  1  0
 28 59  1  0
 30 60  1  0
 30 61  1  0
 30 62  1  0
 33 63  1  0
M  END
$$$$
