
     RDKit          3D

 61 67  0  0  0  0  0  0  0  0999 V2000
    3.4645    2.2550   -0.8506 O   0  0  0  0  0  0  0  0  0  0  0  0
    3.2763    1.0837   -0.5329 C   0  0  0  0  0  0  0  0  0  0  0  0
    4.4659    0.2240   -0.3509 C   0  0  0  0  0  0  0  0  0  0  0  0
    4.6216   -0.9503   -1.1184 C   0  0  0  0  0  0  0  0  0  0  0  0
    5.7566   -1.7497   -0.9570 C   0  0  0  0  0  0  0  0  0  0  0  0
    6.7038   -1.3378   -0.0425 C   0  0  0  0  0  0  0  0  0  0  0  0
    6.5575   -0.1802    0.6890 C   0  0  0  0  0  0  0  0  0  0  0  0
    5.4525    0.6312    0.5545 C   0  0  0  0  0  0  0  0  0  0  0  0
    7.6088    0.0411    1.5226 O   0  0  0  0  0  0  0  0  0  0  0  0
    8.4400   -1.0995    1.2240 C   0  0  0  0  0  0  0  0  0  0  0  0
    7.8647   -1.9866    0.2414 O   0  0  0  0  0  0  0  0  0  0  0  0
    2.0109    0.5290   -0.3466 N   0  0  0  0  0  0  0  0  0  0  0  0
    1.7576   -0.7611    0.2942 C   0  0  0  0  0  0  0  0  0  0  0  0
    0.4560   -0.7416    1.0910 C   0  0  0  0  0  0  0  0  0  0  0  0
   -0.7854   -0.4365    0.1929 C   0  0  0  0  0  0  0  0  0  0  0  0
   -0.3581    0.5087   -0.9697 C   0  0  0  0  0  0  0  0  0  0  0  0
    0.8497    1.3679   -0.6238 C   0  0  0  0  0  0  0  0  0  0  0  0
   -1.2014   -1.6590   -0.4771 O   0  0  0  0  0  0  0  0  0  0  0  0
   -1.8573   -2.5814    0.2898 C   0  0  0  0  0  0  0  0  0  0  0  0
   -1.9461   -3.8693   -0.2400 C   0  0  0  0  0  0  0  0  0  0  0  0
   -2.5755   -4.8794    0.4893 C   0  0  0  0  0  0  0  0  0  0  0  0
   -3.1142   -4.5932    1.7403 C   0  0  0  0  0  0  0  0  0  0  0  0
   -3.7150   -5.5671    2.4351 F   0  0  0  0  0  0  0  0  0  0  0  0
   -3.0463   -3.3131    2.2745 C   0  0  0  0  0  0  0  0  0  0  0  0
   -2.4233   -2.3049    1.5354 C   0  0  0  0  0  0  0  0  0  0  0  0
   -2.3741   -0.9229    2.0476 C   0  0  0  0  0  0  0  0  0  0  0  0
   -2.6972   -0.6936    3.2077 O   0  0  0  0  0  0  0  0  0  0  0  0
   -1.9698    0.1362    1.0271 C   0  0  0  0  0  0  0  0  0  0  0  0
   -3.2262    0.5131    0.2465 C   0  0  0  0  0  0  0  0  0  0  0  0
   -3.1167    1.9967    0.3055 C   0  0  0  0  0  0  0  0  0  0  0  0
   -4.0022    2.8831   -0.4856 C   0  0  0  0  0  0  0  0  0  0  0  0
   -5.0576    2.3708   -1.2497 C   0  0  0  0  0  0  0  0  0  0  0  0
   -5.8716    3.2368   -1.9878 C   0  0  0  0  0  0  0  0  0  0  0  0
   -5.6328    4.6103   -1.9615 C   0  0  0  0  0  0  0  0  0  0  0  0
   -6.6368    5.6688   -2.8719 Cl  0  0  0  0  0  0  0  0  0  0  0  0
   -4.5871    5.1286   -1.2015 C   0  0  0  0  0  0  0  0  0  0  0  0
   -3.7727    4.2657   -0.4629 C   0  0  0  0  0  0  0  0  0  0  0  0
   -2.1886    2.4424    1.0880 N   0  0  0  0  0  0  0  0  0  0  0  0
   -1.5723    1.3314    1.7034 O   0  0  0  0  0  0  0  0  0  0  0  0
    3.8661   -1.2277   -1.8494 H   0  0  0  0  0  0  0  0  0  0  0  0
    5.8969   -2.6554   -1.5363 H   0  0  0  0  0  0  0  0  0  0  0  0
    5.3533    1.5486    1.1242 H   0  0  0  0  0  0  0  0  0  0  0  0
    8.6070   -1.6631    2.1490 H   0  0  0  0  0  0  0  0  0  0  0  0
    9.4064   -0.7417    0.8505 H   0  0  0  0  0  0  0  0  0  0  0  0
    1.7108   -1.5205   -0.4944 H   0  0  0  0  0  0  0  0  0  0  0  0
    2.5854   -1.0164    0.9630 H   0  0  0  0  0  0  0  0  0  0  0  0
    0.3574   -1.7090    1.5952 H   0  0  0  0  0  0  0  0  0  0  0  0
    0.5534    0.0179    1.8769 H   0  0  0  0  0  0  0  0  0  0  0  0
   -0.1063   -0.0946   -1.8542 H   0  0  0  0  0  0  0  0  0  0  0  0
   -1.1772    1.1516   -1.3008 H   0  0  0  0  0  0  0  0  0  0  0  0
    0.6647    1.9919    0.2573 H   0  0  0  0  0  0  0  0  0  0  0  0
    1.0771    2.0407   -1.4584 H   0  0  0  0  0  0  0  0  0  0  0  0
   -1.5161   -4.0915   -1.2139 H   0  0  0  0  0  0  0  0  0  0  0  0
   -2.6461   -5.8883    0.0932 H   0  0  0  0  0  0  0  0  0  0  0  0
   -3.4833   -3.1120    3.2488 H   0  0  0  0  0  0  0  0  0  0  0  0
   -3.2300    0.1386   -0.7801 H   0  0  0  0  0  0  0  0  0  0  0  0
   -4.1539    0.2096    0.7443 H   0  0  0  0  0  0  0  0  0  0  0  0
   -5.2735    1.3071   -1.2837 H   0  0  0  0  0  0  0  0  0  0  0  0
   -6.6914    2.8353   -2.5787 H   0  0  0  0  0  0  0  0  0  0  0  0
   -4.3994    6.1991   -1.1762 H   0  0  0  0  0  0  0  0  0  0  0  0
   -2.9596    4.6821    0.1301 H   0  0  0  0  0  0  0  0  0  0  0  0
  1  2  2  0
  2  3  1  0
  3  4  2  0
  4  5  1  0
  5  6  2  0
  6  7  1  0
  7  8  2  0
  7  9  1  0
  9 10  1  0
 10 11  1  0
  2 12  1  0
 12 13  1  0
 13 14  1  0
 14 15  1  0
 15 16  1  0
 16 17  1  0
 15 18  1  0
 18 19  1  0
 19 20  2  0
 20 21  1  0
 21 22  2  0
 22 23  1  0
 22 24  1  0
 24 25  2  0
 25 26  1  0
 26 27  2  0
 26 28  1  0
 28 29  1  0
 29 30  1  0
 30 31  1  0
 31 32  2  0
 32 33  1  0
 33 34  2  0
 34 35  1  0
 34 36  1  0
 36 37  2  0
 30 38  2  0
 38 39  1  0
  8  3  1  0
 17 12  1  0
 25 19  1  0
 39 28  1  0
 11  6  1  0
 28 15  1  0
 37 31  1  0
  4 40  1  0
  5 41  1  0
  8 42  1  0
 10 43  1  0
 10 44  1  0
 13 45  1  0
 13 46  1  0
 14 47  1  0
 14 48  1  0
 16 49  1  0
 16 50  1  0
 17 51  1  0
 17 52  1  0
 20 53  1  0
 21 54  1  0
 24 55  1  0
 29 56  1  0
 29 57  1  0
 32 58  1  0
 33 59  1  0
 36 60  1  0
 37 61  1  0
M  END
$$$$
