
     RDKit          3D

 54 57  0  0  0  0  0  0  0  0999 V2000
    6.3144    1.1776    3.5219 C   0  0  0  0  0  0  0  0  0  0  0  0
    5.3636    0.8700    2.3763 C   0  0  0  0  0  0  0  0  0  0  0  0
    4.0451    0.2852    2.8585 C   0  0  0  0  0  0  0  0  0  0  0  0
    3.7727    0.2089    4.0563 O   0  0  0  0  0  0  0  0  0  0  0  0
    3.1644   -0.1522    1.8801 N   0  0  0  0  0  0  0  0  0  0  0  0
    1.9072   -0.7857    2.2971 C   0  0  0  0  0  0  0  0  0  0  0  0
    1.4041   -1.8066    1.2642 C   0  0  0  0  0  0  0  0  0  0  0  0
    1.1755   -1.1601   -0.0509 N   0  0  0  0  0  0  0  0  0  0  0  0
    1.0007   -2.0855   -1.1109 C   0  0  0  0  0  0  0  0  0  0  0  0
    1.9999   -2.9918   -1.4917 C   0  0  0  0  0  0  0  0  0  0  0  0
    1.7861   -3.8716   -2.5540 C   0  0  0  0  0  0  0  0  0  0  0  0
    0.5748   -3.8471   -3.2436 C   0  0  0  0  0  0  0  0  0  0  0  0
    0.3259   -4.9408   -4.5503 Cl  0  0  0  0  0  0  0  0  0  0  0  0
   -0.4315   -2.9501   -2.8888 C   0  0  0  0  0  0  0  0  0  0  0  0
   -0.2222   -2.0676   -1.8291 C   0  0  0  0  0  0  0  0  0  0  0  0
   -1.1716   -1.1225   -1.3861 N   0  0  0  0  0  0  0  0  0  0  0  0
   -2.4011   -0.8252   -1.9292 C   0  0  0  0  0  0  0  0  0  0  0  0
   -2.8827   -1.3030   -2.9490 O   0  0  0  0  0  0  0  0  0  0  0  0
   -3.1755    0.2140   -1.1929 C   0  0  0  0  0  0  0  0  0  0  0  0
   -3.1155    0.3271    0.2046 C   0  0  0  0  0  0  0  0  0  0  0  0
   -3.8530    1.3180    0.8578 C   0  0  0  0  0  0  0  0  0  0  0  0
   -4.6519    2.1898    0.1202 C   0  0  0  0  0  0  0  0  0  0  0  0
   -4.7457    2.0514   -1.2688 C   0  0  0  0  0  0  0  0  0  0  0  0
   -4.0036    1.0726   -1.9267 C   0  0  0  0  0  0  0  0  0  0  0  0
   -5.5418    2.8502   -2.0492 O   0  0  0  0  0  0  0  0  0  0  0  0
   -6.5046    3.5573   -1.2593 C   0  0  0  0  0  0  0  0  0  0  0  0
   -5.8448    4.1703   -0.0352 C   0  0  0  0  0  0  0  0  0  0  0  0
   -5.3283    3.1500    0.8277 O   0  0  0  0  0  0  0  0  0  0  0  0
    2.1096   -0.0587   -0.3958 C   0  0  0  0  0  0  0  0  0  0  0  0
    3.4075   -0.0814    0.4325 C   0  0  0  0  0  0  0  0  0  0  0  0
    5.8785    1.9096    4.2097 H   0  0  0  0  0  0  0  0  0  0  0  0
    7.2534    1.5875    3.1377 H   0  0  0  0  0  0  0  0  0  0  0  0
    6.5442    0.2733    4.0950 H   0  0  0  0  0  0  0  0  0  0  0  0
    5.1560    1.7975    1.8325 H   0  0  0  0  0  0  0  0  0  0  0  0
    5.8445    0.1570    1.6985 H   0  0  0  0  0  0  0  0  0  0  0  0
    2.0356   -1.2754    3.2683 H   0  0  0  0  0  0  0  0  0  0  0  0
    1.1734    0.0196    2.4234 H   0  0  0  0  0  0  0  0  0  0  0  0
    2.1415   -2.6156    1.1919 H   0  0  0  0  0  0  0  0  0  0  0  0
    0.4614   -2.2427    1.6148 H   0  0  0  0  0  0  0  0  0  0  0  0
    2.9525   -3.0202   -0.9715 H   0  0  0  0  0  0  0  0  0  0  0  0
    2.5660   -4.5724   -2.8400 H   0  0  0  0  0  0  0  0  0  0  0  0
   -1.3638   -2.9571   -3.4432 H   0  0  0  0  0  0  0  0  0  0  0  0
   -0.8229   -0.5758   -0.6035 H   0  0  0  0  0  0  0  0  0  0  0  0
   -2.5205   -0.3609    0.7992 H   0  0  0  0  0  0  0  0  0  0  0  0
   -3.8055    1.4114    1.9397 H   0  0  0  0  0  0  0  0  0  0  0  0
   -4.0765    0.9739   -3.0074 H   0  0  0  0  0  0  0  0  0  0  0  0
   -7.3052    2.8616   -0.9788 H   0  0  0  0  0  0  0  0  0  0  0  0
   -6.9382    4.3412   -1.8882 H   0  0  0  0  0  0  0  0  0  0  0  0
   -6.5749    4.7504    0.5378 H   0  0  0  0  0  0  0  0  0  0  0  0
   -5.0210    4.8386   -0.3154 H   0  0  0  0  0  0  0  0  0  0  0  0
    2.3544   -0.0422   -1.4656 H   0  0  0  0  0  0  0  0  0  0  0  0
    1.5812    0.8800   -0.1868 H   0  0  0  0  0  0  0  0  0  0  0  0
    4.0023    0.8044    0.1939 H   0  0  0  0  0  0  0  0  0  0  0  0
    4.0055   -0.9625    0.1722 H   0  0  0  0  0  0  0  0  0  0  0  0
  1  2  1  0
  2  3  1  0
  3  4  2  0
  3  5  1  0
  5  6  1  0
  6  7  1  0
  7  8  1  0
  8  9  1  0
  9 10  2  0
 10 11  1  0
 11 12  2  0
 12 13  1  0
 12 14  1  0
 14 15  2  0
 15 16  1  0
 16 17  1  0
 17 18  2  0
 17 19  1  0
 19 20  2  0
 20 21  1  0
 21 22  2  0
 22 23  1  0
 23 24  2  0
 23 25  1  0
 25 26  1  0
 26 27  1  0
 27 28  1  0
  8 29  1  0
 29 30  1  0
 30  5  1  0
 15  9  1  0
 24 19  1  0
 28 22  1  0
  1 31  1  0
  1 32  1  0
  1 33  1  0
  2 34  1  0
  2 35  1  0
  6 36  1  0
  6 37  1  0
  7 38  1  0
  7 39  1  0
 10 40  1  0
 11 41  1  0
 14 42  1  0
 16 43  1  0
 20 44  1  0
 21 45  1  0
 24 46  1  0
 26 47  1  0
 26 48  1  0
 27 49  1  0
 27 50  1  0
 29 51  1  0
 29 52  1  0
 30 53  1  0
 30 54  1  0
M  END
$$$$
