
     RDKit          3D

 67 72  0  0  0  0  0  0  0  0999 V2000
    3.4755   -1.1476   -2.0031 O   0  0  0  0  0  0  0  0  0  0  0  0
    2.8379   -0.9506   -0.9648 C   0  0  0  0  0  0  0  0  0  0  0  0
    3.5508   -0.4374    0.2969 C   0  0  0  0  0  0  0  0  0  0  0  0
    3.5680    1.1010    0.2876 C   0  0  0  0  0  0  0  0  0  0  0  0
    4.4313    1.6902    1.3791 C   0  0  0  0  0  0  0  0  0  0  0  0
    3.8613    2.1056    2.5904 C   0  0  0  0  0  0  0  0  0  0  0  0
    4.6629    2.6295    3.6054 C   0  0  0  0  0  0  0  0  0  0  0  0
    6.0393    2.7421    3.4200 C   0  0  0  0  0  0  0  0  0  0  0  0
    6.6162    2.3297    2.2201 C   0  0  0  0  0  0  0  0  0  0  0  0
    5.8170    1.8045    1.2036 C   0  0  0  0  0  0  0  0  0  0  0  0
    2.9341   -0.9988    1.5010 N   0  0  0  0  0  0  0  0  0  0  0  0
    1.5486   -0.8686    1.5516 C   0  0  0  0  0  0  0  0  0  0  0  0
    1.0368   -0.7508    2.7831 N   0  0  0  0  0  0  0  0  0  0  0  0
   -0.2913   -0.6721    2.8512 C   0  0  0  0  0  0  0  0  0  0  0  0
   -1.1311   -0.6273    1.8116 N   0  0  0  0  0  0  0  0  0  0  0  0
   -0.6001   -0.6924    0.5726 C   0  0  0  0  0  0  0  0  0  0  0  0
   -1.4686   -0.4246   -0.5033 N   0  0  0  0  0  0  0  0  0  0  0  0
   -1.2208    0.9138   -1.1163 C   0  0  0  0  0  0  0  0  0  0  0  0
   -2.3875    1.9029   -0.8915 C   0  0  0  0  0  0  0  0  0  0  0  0
   -3.6735    1.3654   -1.4121 N   0  0  0  0  0  0  0  0  0  0  0  0
   -4.7629    2.1496   -1.0008 C   0  0  0  0  0  0  0  0  0  0  0  0
   -5.6836    1.7511   -0.0224 C   0  0  0  0  0  0  0  0  0  0  0  0
   -6.7416    2.5840    0.3599 C   0  0  0  0  0  0  0  0  0  0  0  0
   -6.8966    3.8350   -0.2300 C   0  0  0  0  0  0  0  0  0  0  0  0
   -5.9929    4.2538   -1.2005 C   0  0  0  0  0  0  0  0  0  0  0  0
   -4.9375    3.4185   -1.5770 C   0  0  0  0  0  0  0  0  0  0  0  0
   -3.7913   -0.1115   -1.3419 C   0  0  0  0  0  0  0  0  0  0  0  0
   -2.9025   -0.6998   -0.2261 C   0  0  0  0  0  0  0  0  0  0  0  0
    0.7776   -0.8948    0.3823 C   0  0  0  0  0  0  0  0  0  0  0  0
    1.4455   -1.0899   -0.8828 N   0  0  0  0  0  0  0  0  0  0  0  0
    0.7828   -1.7882   -1.9840 C   0  0  0  0  0  0  0  0  0  0  0  0
    0.7639   -3.2926   -1.7873 C   0  0  0  0  0  0  0  0  0  0  0  0
   -0.3282   -3.9200   -1.1696 C   0  0  0  0  0  0  0  0  0  0  0  0
   -0.3344   -5.3020   -0.9671 C   0  0  0  0  0  0  0  0  0  0  0  0
    0.7542   -6.0658   -1.3811 C   0  0  0  0  0  0  0  0  0  0  0  0
    0.7469   -7.9359   -1.1060 Br  0  0  0  0  0  0  0  0  0  0  0  0
    1.8483   -5.4610   -1.9950 C   0  0  0  0  0  0  0  0  0  0  0  0
    1.8531   -4.0787   -2.1951 C   0  0  0  0  0  0  0  0  0  0  0  0
    4.5774   -0.8228    0.2564 H   0  0  0  0  0  0  0  0  0  0  0  0
    2.5533    1.5122    0.3675 H   0  0  0  0  0  0  0  0  0  0  0  0
    3.9400    1.4608   -0.6813 H   0  0  0  0  0  0  0  0  0  0  0  0
    2.7891    2.0179    2.7555 H   0  0  0  0  0  0  0  0  0  0  0  0
    4.2131    2.9483    4.5423 H   0  0  0  0  0  0  0  0  0  0  0  0
    6.6626    3.1503    4.2112 H   0  0  0  0  0  0  0  0  0  0  0  0
    7.6902    2.4165    2.0764 H   0  0  0  0  0  0  0  0  0  0  0  0
    6.2849    1.4862    0.2742 H   0  0  0  0  0  0  0  0  0  0  0  0
    3.3466   -0.7436    2.3936 H   0  0  0  0  0  0  0  0  0  0  0  0
   -0.7318   -0.6218    3.8408 H   0  0  0  0  0  0  0  0  0  0  0  0
   -0.2936    1.3749   -0.7532 H   0  0  0  0  0  0  0  0  0  0  0  0
   -1.0955    0.7638   -2.1958 H   0  0  0  0  0  0  0  0  0  0  0  0
   -2.1461    2.8442   -1.3993 H   0  0  0  0  0  0  0  0  0  0  0  0
   -2.4704    2.1111    0.1840 H   0  0  0  0  0  0  0  0  0  0  0  0
   -5.5845    0.7956    0.4825 H   0  0  0  0  0  0  0  0  0  0  0  0
   -7.4409    2.2542    1.1237 H   0  0  0  0  0  0  0  0  0  0  0  0
   -7.7190    4.4803    0.0659 H   0  0  0  0  0  0  0  0  0  0  0  0
   -6.1075    5.2267   -1.6704 H   0  0  0  0  0  0  0  0  0  0  0  0
   -4.2509    3.7553   -2.3499 H   0  0  0  0  0  0  0  0  0  0  0  0
   -3.4564   -0.5101   -2.3083 H   0  0  0  0  0  0  0  0  0  0  0  0
   -4.8281   -0.4468   -1.2269 H   0  0  0  0  0  0  0  0  0  0  0  0
   -3.2270   -0.2686    0.7292 H   0  0  0  0  0  0  0  0  0  0  0  0
   -3.0539   -1.7842   -0.1794 H   0  0  0  0  0  0  0  0  0  0  0  0
    1.3162   -1.5711   -2.9190 H   0  0  0  0  0  0  0  0  0  0  0  0
   -0.2257   -1.4254   -2.1722 H   0  0  0  0  0  0  0  0  0  0  0  0
   -1.1816   -3.3343   -0.8374 H   0  0  0  0  0  0  0  0  0  0  0  0
   -1.1880   -5.7693   -0.4831 H   0  0  0  0  0  0  0  0  0  0  0  0
    2.7024   -6.0511   -2.3165 H   0  0  0  0  0  0  0  0  0  0  0  0
    2.7175   -3.6157   -2.6693 H   0  0  0  0  0  0  0  0  0  0  0  0
  1  2  2  0
  2  3  1  0
  3  4  1  0
  4  5  1  0
  5  6  2  0
  6  7  1  0
  7  8  2  0
  8  9  1  0
  9 10  2  0
  3 11  1  0
 11 12  1  0
 12 13  2  0
 13 14  1  0
 14 15  2  0
 15 16  1  0
 16 17  1  0
 17 18  1  0
 18 19  1  0
 19 20  1  0
 20 21  1  0
 21 22  2  0
 22 23  1  0
 23 24  2  0
 24 25  1  0
 25 26  2  0
 20 27  1  0
 27 28  1  0
 16 29  2  0
 29 30  1  0
 30 31  1  0
 31 32  1  0
 32 33  2  0
 33 34  1  0
 34 35  2  0
 35 36  1  0
 35 37  1  0
 37 38  2  0
 30  2  1  0
 38 32  1  0
 10  5  1  0
 29 12  1  0
 28 17  1  0
 26 21  1  0
  3 39  1  0
  4 40  1  0
  4 41  1  0
  6 42  1  0
  7 43  1  0
  8 44  1  0
  9 45  1  0
 10 46  1  0
 11 47  1  0
 14 48  1  0
 18 49  1  0
 18 50  1  0
 19 51  1  0
 19 52  1  0
 22 53  1  0
 23 54  1  0
 24 55  1  0
 25 56  1  0
 26 57  1  0
 27 58  1  0
 27 59  1  0
 28 60  1  0
 28 61  1  0
 31 62  1  0
 31 63  1  0
 33 64  1  0
 34 65  1  0
 37 66  1  0
 38 67  1  0
M  END
$$$$
