
     RDKit          3D

 27 27  0  0  0  0  0  0  0  0999 V2000
   -1.1788   -1.3736   -1.7665 C   0  0  0  0  0  0  0  0  0  0  0  0
   -1.2931   -0.0315   -1.0296 C   0  0  0  0  0  0  0  0  0  0  0  0
   -0.6355    1.1034   -1.8253 C   0  0  0  0  0  0  0  0  0  0  0  0
   -2.8011    0.2944   -0.9116 C   0  0  0  0  0  0  0  0  0  0  0  0
   -0.6395   -0.1359    0.6580 S   0  0  0  0  0  6  0  0  0  0  0  0
   -0.9243    1.1242    1.3182 O   0  0  0  0  0  0  0  0  0  0  0  0
   -1.0116   -1.4143    1.2278 O   0  0  0  0  0  0  0  0  0  0  0  0
    1.1022   -0.1925    0.6845 C   0  0  0  0  0  0  0  0  0  0  0  0
    1.9625   -0.5428   -0.4010 C   0  0  0  0  0  0  0  0  0  0  0  0
    3.2951   -0.4543   -0.0651 C   0  0  0  0  0  0  0  0  0  0  0  0
    3.5150    0.0231    1.5541 S   0  0  0  0  0  0  0  0  0  0  0  0
    1.8218    0.0907    1.8402 C   0  0  0  0  0  0  0  0  0  0  0  0
    1.3232    0.3741    3.1696 C   0  0  0  0  0  0  0  0  0  0  0  0
    0.3001   -0.0352    3.6960 O   0  0  0  0  0  0  0  0  0  0  0  0
    2.1406    1.1955    3.8684 O   0  0  0  0  0  0  0  0  0  0  0  0
   -1.5926   -1.3001   -2.7789 H   0  0  0  0  0  0  0  0  0  0  0  0
   -0.1504   -1.7211   -1.8628 H   0  0  0  0  0  0  0  0  0  0  0  0
   -1.7323   -2.1625   -1.2444 H   0  0  0  0  0  0  0  0  0  0  0  0
   -0.6906    2.0543   -1.2838 H   0  0  0  0  0  0  0  0  0  0  0  0
    0.4169    0.9127   -2.0413 H   0  0  0  0  0  0  0  0  0  0  0  0
   -1.1349    1.2440   -2.7910 H   0  0  0  0  0  0  0  0  0  0  0  0
   -3.3264   -0.4633   -0.3188 H   0  0  0  0  0  0  0  0  0  0  0  0
   -3.2772    0.3364   -1.8980 H   0  0  0  0  0  0  0  0  0  0  0  0
   -2.9658    1.2619   -0.4241 H   0  0  0  0  0  0  0  0  0  0  0  0
    1.6624   -0.8374   -1.3951 H   0  0  0  0  0  0  0  0  0  0  0  0
    4.1525   -0.6501   -0.6956 H   0  0  0  0  0  0  0  0  0  0  0  0
    1.6615    1.2999    4.7161 H   0  0  0  0  0  0  0  0  0  0  0  0
  1  2  1  0
  2  3  1  0
  2  4  1  0
  2  5  1  0
  5  6  2  0
  5  7  2  0
  5  8  1  0
  8  9  1  0
  9 10  2  0
 10 11  1  0
 11 12  1  0
 12 13  1  0
 13 14  2  0
 13 15  1  0
 12  8  2  0
  1 16  1  0
  1 17  1  0
  1 18  1  0
  3 19  1  0
  3 20  1  0
  3 21  1  0
  4 22  1  0
  4 23  1  0
  4 24  1  0
  9 25  1  0
 10 26  1  0
 15 27  1  0
M  END
$$$$
