
     RDKit          3D

 61 67  0  0  0  0  0  0  0  0999 V2000
    3.6644    1.3431   -2.8451 O   0  0  0  0  0  0  0  0  0  0  0  0
    3.3773    0.7926   -1.7846 C   0  0  0  0  0  0  0  0  0  0  0  0
    4.4640    0.6003   -0.8072 C   0  0  0  0  0  0  0  0  0  0  0  0
    5.4068   -0.4264   -1.0195 C   0  0  0  0  0  0  0  0  0  0  0  0
    6.4425   -0.6205   -0.1003 C   0  0  0  0  0  0  0  0  0  0  0  0
    6.5032    0.2298    0.9868 C   0  0  0  0  0  0  0  0  0  0  0  0
    5.5855    1.2392    1.1778 C   0  0  0  0  0  0  0  0  0  0  0  0
    4.5480    1.4555    0.2973 C   0  0  0  0  0  0  0  0  0  0  0  0
    5.8367    1.9629    2.3039 O   0  0  0  0  0  0  0  0  0  0  0  0
    7.0384    1.3195    2.7793 C   0  0  0  0  0  0  0  0  0  0  0  0
    7.4407    0.1932    1.9727 O   0  0  0  0  0  0  0  0  0  0  0  0
    2.0917    0.3561   -1.4395 N   0  0  0  0  0  0  0  0  0  0  0  0
    1.0827    0.4172   -2.4937 C   0  0  0  0  0  0  0  0  0  0  0  0
   -0.3321    0.5316   -1.9287 C   0  0  0  0  0  0  0  0  0  0  0  0
   -0.6407   -0.5770   -0.8899 C   0  0  0  0  0  0  0  0  0  0  0  0
    0.4582   -0.5360    0.1969 C   0  0  0  0  0  0  0  0  0  0  0  0
    1.8606   -0.6417   -0.3960 C   0  0  0  0  0  0  0  0  0  0  0  0
   -0.5113   -1.8134   -1.6414 O   0  0  0  0  0  0  0  0  0  0  0  0
   -1.1095   -2.9328   -1.1478 C   0  0  0  0  0  0  0  0  0  0  0  0
   -0.7644   -4.1343   -1.7668 C   0  0  0  0  0  0  0  0  0  0  0  0
   -1.3087   -5.3381   -1.3136 C   0  0  0  0  0  0  0  0  0  0  0  0
   -2.2003   -5.3370   -0.2404 C   0  0  0  0  0  0  0  0  0  0  0  0
   -2.8615   -6.8227    0.3198 Cl  0  0  0  0  0  0  0  0  0  0  0  0
   -2.5607   -4.1418    0.3756 C   0  0  0  0  0  0  0  0  0  0  0  0
   -2.0171   -2.9420   -0.0946 C   0  0  0  0  0  0  0  0  0  0  0  0
   -2.3883   -1.6608    0.5204 C   0  0  0  0  0  0  0  0  0  0  0  0
   -2.9034   -1.6480    1.6343 O   0  0  0  0  0  0  0  0  0  0  0  0
   -2.0692   -0.4143   -0.2957 C   0  0  0  0  0  0  0  0  0  0  0  0
   -2.3100    0.8511    0.5160 C   0  0  0  0  0  0  0  0  0  0  0  0
   -3.6814    1.1815    0.0317 C   0  0  0  0  0  0  0  0  0  0  0  0
   -4.5218    2.2167    0.6797 C   0  0  0  0  0  0  0  0  0  0  0  0
   -4.0657    2.9515    1.7796 C   0  0  0  0  0  0  0  0  0  0  0  0
   -4.8826    3.9307    2.3530 C   0  0  0  0  0  0  0  0  0  0  0  0
   -6.1472    4.1871    1.8273 C   0  0  0  0  0  0  0  0  0  0  0  0
   -6.6054    3.4598    0.7312 C   0  0  0  0  0  0  0  0  0  0  0  0
   -5.7983    2.4737    0.1610 C   0  0  0  0  0  0  0  0  0  0  0  0
   -4.0603    0.5254   -1.0177 N   0  0  0  0  0  0  0  0  0  0  0  0
   -3.0241   -0.3636   -1.3687 O   0  0  0  0  0  0  0  0  0  0  0  0
    5.3324   -1.0645   -1.8979 H   0  0  0  0  0  0  0  0  0  0  0  0
    7.1777   -1.4064   -0.2409 H   0  0  0  0  0  0  0  0  0  0  0  0
    3.8402    2.2630    0.4455 H   0  0  0  0  0  0  0  0  0  0  0  0
    7.8518    2.0531    2.7873 H   0  0  0  0  0  0  0  0  0  0  0  0
    6.8650    0.9745    3.8061 H   0  0  0  0  0  0  0  0  0  0  0  0
    1.2765    1.2744   -3.1490 H   0  0  0  0  0  0  0  0  0  0  0  0
    1.1905   -0.4842   -3.1098 H   0  0  0  0  0  0  0  0  0  0  0  0
   -0.4387    1.5238   -1.4790 H   0  0  0  0  0  0  0  0  0  0  0  0
   -1.0357    0.4751   -2.7689 H   0  0  0  0  0  0  0  0  0  0  0  0
    0.3878    0.3999    0.7644 H   0  0  0  0  0  0  0  0  0  0  0  0
    0.3358   -1.3584    0.9106 H   0  0  0  0  0  0  0  0  0  0  0  0
    2.5875   -0.5387    0.4137 H   0  0  0  0  0  0  0  0  0  0  0  0
    2.0245   -1.6280   -0.8458 H   0  0  0  0  0  0  0  0  0  0  0  0
   -0.0675   -4.1388   -2.6025 H   0  0  0  0  0  0  0  0  0  0  0  0
   -1.0329   -6.2693   -1.8017 H   0  0  0  0  0  0  0  0  0  0  0  0
   -3.2657   -4.1380    1.2037 H   0  0  0  0  0  0  0  0  0  0  0  0
   -1.6500    1.6787    0.2459 H   0  0  0  0  0  0  0  0  0  0  0  0
   -2.2682    0.7055    1.5972 H   0  0  0  0  0  0  0  0  0  0  0  0
   -3.0817    2.7852    2.2095 H   0  0  0  0  0  0  0  0  0  0  0  0
   -4.5308    4.4988    3.2100 H   0  0  0  0  0  0  0  0  0  0  0  0
   -6.7752    4.9549    2.2733 H   0  0  0  0  0  0  0  0  0  0  0  0
   -7.5888    3.6597    0.3164 H   0  0  0  0  0  0  0  0  0  0  0  0
   -6.1716    1.9115   -0.6935 H   0  0  0  0  0  0  0  0  0  0  0  0
  1  2  2  0
  2  3  1  0
  3  4  2  0
  4  5  1  0
  5  6  2  0
  6  7  1  0
  7  8  2  0
  7  9  1  0
  9 10  1  0
 10 11  1  0
  2 12  1  0
 12 13  1  0
 13 14  1  0
 14 15  1  0
 15 16  1  0
 16 17  1  0
 15 18  1  0
 18 19  1  0
 19 20  2  0
 20 21  1  0
 21 22  2  0
 22 23  1  0
 22 24  1  0
 24 25  2  0
 25 26  1  0
 26 27  2  0
 26 28  1  0
 28 29  1  0
 29 30  1  0
 30 31  1  0
 31 32  2  0
 32 33  1  0
 33 34  2  0
 34 35  1  0
 35 36  2  0
 30 37  2  0
 37 38  1  0
  8  3  1  0
 17 12  1  0
 25 19  1  0
 38 28  1  0
 11  6  1  0
 28 15  1  0
 36 31  1  0
  4 39  1  0
  5 40  1  0
  8 41  1  0
 10 42  1  0
 10 43  1  0
 13 44  1  0
 13 45  1  0
 14 46  1  0
 14 47  1  0
 16 48  1  0
 16 49  1  0
 17 50  1  0
 17 51  1  0
 20 52  1  0
 21 53  1  0
 24 54  1  0
 29 55  1  0
 29 56  1  0
 32 57  1  0
 33 58  1  0
 34 59  1  0
 35 60  1  0
 36 61  1  0
M  END
$$$$
