
     RDKit          3D

 56 60  0  0  0  0  0  0  0  0999 V2000
   -5.8588   -0.6019    0.5996 C   0  0  0  0  0  0  0  0  0  0  0  0
   -5.6256    0.0948   -0.6407 N   0  0  0  0  0  0  0  0  0  0  0  0
   -4.4748    0.7072   -1.0507 C   0  0  0  0  0  0  0  0  0  0  0  0
   -2.9820    0.6386   -0.1844 S   0  0  0  0  0  0  0  0  0  0  0  0
   -1.9094    1.5729   -1.3227 C   0  0  0  0  0  0  0  0  0  0  0  0
   -0.4869    1.6876   -0.7865 C   0  0  0  0  0  0  0  0  0  0  0  0
    0.1324    2.7429   -0.8884 O   0  0  0  0  0  0  0  0  0  0  0  0
    0.0251    0.5003   -0.2953 N   0  0  0  0  0  0  0  0  0  0  0  0
    1.3017    0.2633    0.2537 C   0  0  0  0  0  0  0  0  0  0  0  0
    2.2729    1.2474    0.4147 C   0  0  0  0  0  0  0  0  0  0  0  0
    3.5228    0.9458    0.9757 C   0  0  0  0  0  0  0  0  0  0  0  0
    3.8131   -0.3700    1.3763 C   0  0  0  0  0  0  0  0  0  0  0  0
    5.0031   -0.8055    1.9367 N   0  0  0  0  0  0  0  0  0  0  0  0
    4.9312   -2.0966    2.1766 C   0  0  0  0  0  0  0  0  0  0  0  0
    6.2684   -2.9854    2.8695 S   0  0  0  0  0  0  0  0  0  0  0  0
    7.3839   -1.6456    3.3742 C   0  0  0  0  0  0  0  0  0  0  0  0
    8.2174   -1.1604    2.2020 C   0  0  0  0  0  0  0  0  0  0  0  0
    9.3157   -1.6456    1.9389 O   0  0  0  0  0  0  0  0  0  0  0  0
    7.6391   -0.1259    1.4922 N   0  0  0  0  0  0  0  0  0  0  0  0
    8.2178    0.4007    0.3003 C   0  0  0  0  0  0  0  0  0  0  0  0
    9.3290    1.4093    0.3604 C   0  0  0  0  0  0  0  0  0  0  0  0
    7.9601    1.8318   -0.0762 C   0  0  0  0  0  0  0  0  0  0  0  0
    3.4567   -2.8552    1.7629 S   0  0  0  0  0  0  0  0  0  0  0  0
    2.8362   -1.3470    1.2080 C   0  0  0  0  0  0  0  0  0  0  0  0
    1.5764   -1.0533    0.6553 C   0  0  0  0  0  0  0  0  0  0  0  0
   -4.6786    1.3213   -2.1908 N   0  0  0  0  0  0  0  0  0  0  0  0
   -5.9887    1.1099   -2.5466 N   0  0  0  0  0  0  0  0  0  0  0  0
   -6.5483    0.3336   -1.6371 C   0  0  0  0  0  0  0  0  0  0  0  0
   -7.9204   -0.1629   -1.6648 C   0  0  0  0  0  0  0  0  0  0  0  0
   -8.1900   -1.5373   -1.6824 C   0  0  0  0  0  0  0  0  0  0  0  0
   -9.5091   -1.9990   -1.6971 C   0  0  0  0  0  0  0  0  0  0  0  0
  -10.5652   -1.0893   -1.6905 C   0  0  0  0  0  0  0  0  0  0  0  0
  -10.3062    0.2806   -1.6882 C   0  0  0  0  0  0  0  0  0  0  0  0
   -8.9879    0.7435   -1.6811 C   0  0  0  0  0  0  0  0  0  0  0  0
   -6.9199   -0.5603    0.8577 H   0  0  0  0  0  0  0  0  0  0  0  0
   -5.2976   -0.1239    1.4036 H   0  0  0  0  0  0  0  0  0  0  0  0
   -5.5418   -1.6401    0.4748 H   0  0  0  0  0  0  0  0  0  0  0  0
   -1.8651    1.0747   -2.2948 H   0  0  0  0  0  0  0  0  0  0  0  0
   -2.3134    2.5828   -1.4539 H   0  0  0  0  0  0  0  0  0  0  0  0
   -0.6268   -0.2781   -0.2788 H   0  0  0  0  0  0  0  0  0  0  0  0
    2.0944    2.2783    0.1203 H   0  0  0  0  0  0  0  0  0  0  0  0
    4.2651    1.7280    1.1033 H   0  0  0  0  0  0  0  0  0  0  0  0
    8.0703   -2.0322    4.1356 H   0  0  0  0  0  0  0  0  0  0  0  0
    6.8388   -0.8188    3.8390 H   0  0  0  0  0  0  0  0  0  0  0  0
    6.6301   -0.0189    1.6095 H   0  0  0  0  0  0  0  0  0  0  0  0
    8.2670   -0.3273   -0.5035 H   0  0  0  0  0  0  0  0  0  0  0  0
   10.1083    1.3522   -0.3936 H   0  0  0  0  0  0  0  0  0  0  0  0
    9.6774    1.7207    1.3397 H   0  0  0  0  0  0  0  0  0  0  0  0
    7.3877    2.4521    0.6023 H   0  0  0  0  0  0  0  0  0  0  0  0
    7.8116    2.0677   -1.1222 H   0  0  0  0  0  0  0  0  0  0  0  0
    0.8472   -1.8445    0.5267 H   0  0  0  0  0  0  0  0  0  0  0  0
   -7.3774   -2.2569   -1.7067 H   0  0  0  0  0  0  0  0  0  0  0  0
   -9.7118   -3.0671   -1.7247 H   0  0  0  0  0  0  0  0  0  0  0  0
  -11.5923   -1.4476   -1.7047 H   0  0  0  0  0  0  0  0  0  0  0  0
  -11.1293    0.9900   -1.7007 H   0  0  0  0  0  0  0  0  0  0  0  0
   -8.7934    1.8187   -1.6890 H   0  0  0  0  0  0  0  0  0  0  0  0
  1  2  1  0
  2  3  1  0
  3  4  1  0
  4  5  1  0
  5  6  1  0
  6  7  2  0
  6  8  1  0
  8  9  1  0
  9 10  2  0
 10 11  1  0
 11 12  2  0
 12 13  1  0
 13 14  2  0
 14 15  1  0
 15 16  1  0
 16 17  1  0
 17 18  2  0
 17 19  1  0
 19 20  1  0
 20 21  1  0
 21 22  1  0
 14 23  1  0
 23 24  1  0
 24 25  2  0
  3 26  2  0
 26 27  1  0
 27 28  2  0
 28 29  1  0
 29 30  2  0
 30 31  1  0
 31 32  2  0
 32 33  1  0
 33 34  2  0
 28  2  1  0
 34 29  1  0
 25  9  1  0
 24 12  1  0
 22 20  1  0
  1 35  1  0
  1 36  1  0
  1 37  1  0
  5 38  1  0
  5 39  1  0
  8 40  1  0
 10 41  1  0
 11 42  1  0
 16 43  1  0
 16 44  1  0
 19 45  1  0
 20 46  1  0
 21 47  1  0
 21 48  1  0
 22 49  1  0
 22 50  1  0
 25 51  1  0
 30 52  1  0
 31 53  1  0
 32 54  1  0
 33 55  1  0
 34 56  1  0
M  END
$$$$
