
     RDKit          3D

 48 50  0  0  0  0  0  0  0  0999 V2000
    8.2500    1.5427    2.7374 C   0  0  0  0  0  0  0  0  0  0  0  0
    7.3683    0.8018    1.8003 C   0  0  0  0  0  0  0  0  0  0  0  0
    7.6574   -0.3969    1.1762 C   0  0  0  0  0  0  0  0  0  0  0  0
    6.3446   -0.8669    0.1821 S   0  0  0  0  0  0  0  0  0  0  0  0
    5.4990    0.5318    0.6524 C   0  0  0  0  0  0  0  0  0  0  0  0
    4.2412    0.8419    0.2054 N   0  0  0  0  0  0  0  0  0  0  0  0
    3.4658    0.1221   -0.6765 C   0  0  0  0  0  0  0  0  0  0  0  0
    3.7502   -0.9408   -1.2169 O   0  0  0  0  0  0  0  0  0  0  0  0
    2.1217    0.7941   -0.9049 C   0  0  0  0  0  0  0  0  0  0  0  0
    1.3365    0.1655   -2.0504 C   0  0  0  0  0  0  0  0  0  0  0  0
    0.9046   -1.1956   -1.6867 N   0  0  0  0  0  0  0  0  0  0  0  0
   -0.3452   -1.8900   -2.5736 S   0  0  0  0  0  6  0  0  0  0  0  0
   -0.5159   -1.1609   -3.8091 O   0  0  0  0  0  0  0  0  0  0  0  0
   -0.1207   -3.3183   -2.5480 O   0  0  0  0  0  0  0  0  0  0  0  0
   -1.7415   -1.5512   -1.5285 C   0  0  0  0  0  0  0  0  0  0  0  0
   -2.2408   -2.5429   -0.6853 C   0  0  0  0  0  0  0  0  0  0  0  0
   -3.3528   -2.2730    0.1206 C   0  0  0  0  0  0  0  0  0  0  0  0
   -3.9771   -1.0140    0.0953 C   0  0  0  0  0  0  0  0  0  0  0  0
   -3.4611   -0.0389   -0.7583 C   0  0  0  0  0  0  0  0  0  0  0  0
   -2.3564   -0.3019   -1.5829 C   0  0  0  0  0  0  0  0  0  0  0  0
   -4.0801    1.2949   -0.7873 C   0  0  0  0  0  0  0  0  0  0  0  0
   -3.5992    2.1559   -1.5202 O   0  0  0  0  0  0  0  0  0  0  0  0
   -5.1732    1.4934    0.0391 N   0  0  0  0  0  0  0  0  0  0  0  0
   -5.8184    2.7938    0.0245 C   0  0  0  0  0  0  0  0  0  0  0  0
   -5.7283    0.5322    0.8763 C   0  0  0  0  0  0  0  0  0  0  0  0
   -6.7217    0.7801    1.5641 O   0  0  0  0  0  0  0  0  0  0  0  0
   -5.1077   -0.7135    0.9003 N   0  0  0  0  0  0  0  0  0  0  0  0
   -5.6615   -1.7390    1.7754 C   0  0  0  0  0  0  0  0  0  0  0  0
    6.1233    1.3263    1.4907 N   0  0  0  0  0  0  0  0  0  0  0  0
    7.7453    2.4295    3.1330 H   0  0  0  0  0  0  0  0  0  0  0  0
    9.1615    1.8684    2.2257 H   0  0  0  0  0  0  0  0  0  0  0  0
    8.5322    0.9071    3.5822 H   0  0  0  0  0  0  0  0  0  0  0  0
    8.5507   -0.9996    1.2513 H   0  0  0  0  0  0  0  0  0  0  0  0
    3.8958    1.7079    0.5947 H   0  0  0  0  0  0  0  0  0  0  0  0
    1.5479    0.7376    0.0281 H   0  0  0  0  0  0  0  0  0  0  0  0
    2.2998    1.8507   -1.1371 H   0  0  0  0  0  0  0  0  0  0  0  0
    0.4642    0.7954   -2.2502 H   0  0  0  0  0  0  0  0  0  0  0  0
    1.9497    0.1171   -2.9569 H   0  0  0  0  0  0  0  0  0  0  0  0
    1.6770   -1.8617   -1.5576 H   0  0  0  0  0  0  0  0  0  0  0  0
   -1.7754   -3.5267   -0.6476 H   0  0  0  0  0  0  0  0  0  0  0  0
   -3.7091   -3.0752    0.7612 H   0  0  0  0  0  0  0  0  0  0  0  0
   -1.9836    0.4652   -2.2588 H   0  0  0  0  0  0  0  0  0  0  0  0
   -6.8184    2.6823   -0.4075 H   0  0  0  0  0  0  0  0  0  0  0  0
   -5.2602    3.5326   -0.5566 H   0  0  0  0  0  0  0  0  0  0  0  0
   -5.9235    3.1598    1.0513 H   0  0  0  0  0  0  0  0  0  0  0  0
   -6.5291   -1.3816    2.3374 H   0  0  0  0  0  0  0  0  0  0  0  0
   -4.9012   -2.0472    2.5002 H   0  0  0  0  0  0  0  0  0  0  0  0
   -5.9845   -2.5942    1.1734 H   0  0  0  0  0  0  0  0  0  0  0  0
  1  2  1  0
  2  3  2  0
  3  4  1  0
  4  5  1  0
  5  6  1  0
  6  7  1  0
  7  8  2  0
  7  9  1  0
  9 10  1  0
 10 11  1  0
 11 12  1  0
 12 13  2  0
 12 14  2  0
 12 15  1  0
 15 16  2  0
 16 17  1  0
 17 18  2  0
 18 19  1  0
 19 20  2  0
 19 21  1  0
 21 22  2  0
 21 23  1  0
 23 24  1  0
 23 25  1  0
 25 26  2  0
 25 27  1  0
 27 28  1  0
  5 29  2  0
 29  2  1  0
 20 15  1  0
 27 18  1  0
  1 30  1  0
  1 31  1  0
  1 32  1  0
  3 33  1  0
  6 34  1  0
  9 35  1  0
  9 36  1  0
 10 37  1  0
 10 38  1  0
 11 39  1  0
 16 40  1  0
 17 41  1  0
 20 42  1  0
 24 43  1  0
 24 44  1  0
 24 45  1  0
 28 46  1  0
 28 47  1  0
 28 48  1  0
M  END
$$$$
