
     RDKit          3D

 37 39  0  0  0  0  0  0  0  0999 V2000
   -5.1505    2.3021    0.0170 C   0  0  0  0  0  0  0  0  0  0  0  0
   -4.5929    1.1477    0.7976 C   0  0  0  0  0  0  0  0  0  0  0  0
   -4.7858    1.0741    2.1840 C   0  0  0  0  0  0  0  0  0  0  0  0
   -4.2936   -0.0107    2.9142 C   0  0  0  0  0  0  0  0  0  0  0  0
   -3.6066   -1.0357    2.2667 C   0  0  0  0  0  0  0  0  0  0  0  0
   -3.3962   -0.9698    0.8907 C   0  0  0  0  0  0  0  0  0  0  0  0
   -3.8620    0.1298    0.1688 C   0  0  0  0  0  0  0  0  0  0  0  0
   -3.6609    0.1700   -1.1865 O   0  0  0  0  0  0  0  0  0  0  0  0
   -2.3911    0.7364   -1.4920 C   0  0  0  0  0  0  0  0  0  0  0  0
   -1.2039   -0.2403   -1.4842 C   0  0  0  0  0  0  0  0  0  0  0  0
   -1.3383   -1.4297   -1.7512 O   0  0  0  0  0  0  0  0  0  0  0  0
   -0.0172    0.3876   -1.1610 N   0  0  0  0  0  0  0  0  0  0  0  0
    1.1651   -0.2962   -1.0869 C   0  0  0  0  0  0  0  0  0  0  0  0
    1.4331   -1.5593   -1.2913 N   0  0  0  0  0  0  0  0  0  0  0  0
    2.7747   -1.8323   -1.1052 N   0  0  0  0  0  0  0  0  0  0  0  0
    3.4761   -0.7638   -0.7699 C   0  0  0  0  0  0  0  0  0  0  0  0
    4.9258   -0.7734   -0.5080 C   0  0  0  0  0  0  0  0  0  0  0  0
    5.6726    0.3781   -0.2343 C   0  0  0  0  0  0  0  0  0  0  0  0
    7.0348    0.2543   -0.0024 C   0  0  0  0  0  0  0  0  0  0  0  0
    7.6975   -0.9193   -0.0238 N   0  0  0  0  0  0  0  0  0  0  0  0
    6.9700   -2.0215   -0.2910 C   0  0  0  0  0  0  0  0  0  0  0  0
    5.6069   -1.9983   -0.5352 C   0  0  0  0  0  0  0  0  0  0  0  0
    2.5078    0.6628   -0.6574 S   0  0  0  0  0  0  0  0  0  0  0  0
   -5.8475    2.8934    0.6206 H   0  0  0  0  0  0  0  0  0  0  0  0
   -5.7036    1.9429   -0.8567 H   0  0  0  0  0  0  0  0  0  0  0  0
   -4.3411    2.9598   -0.3124 H   0  0  0  0  0  0  0  0  0  0  0  0
   -5.3378    1.8531    2.7059 H   0  0  0  0  0  0  0  0  0  0  0  0
   -4.4646   -0.0650    3.9869 H   0  0  0  0  0  0  0  0  0  0  0  0
   -3.2494   -1.8954    2.8267 H   0  0  0  0  0  0  0  0  0  0  0  0
   -2.8855   -1.7845    0.3824 H   0  0  0  0  0  0  0  0  0  0  0  0
   -2.1800    1.6018   -0.8498 H   0  0  0  0  0  0  0  0  0  0  0  0
   -2.4583    1.1233   -2.5157 H   0  0  0  0  0  0  0  0  0  0  0  0
    0.0145    1.3724   -0.9466 H   0  0  0  0  0  0  0  0  0  0  0  0
    5.2302    1.3664   -0.1976 H   0  0  0  0  0  0  0  0  0  0  0  0
    7.6484    1.1255    0.2121 H   0  0  0  0  0  0  0  0  0  0  0  0
    7.5246   -2.9568   -0.3046 H   0  0  0  0  0  0  0  0  0  0  0  0
    5.0848   -2.9294   -0.7423 H   0  0  0  0  0  0  0  0  0  0  0  0
  1  2  1  0
  2  3  2  0
  3  4  1  0
  4  5  2  0
  5  6  1  0
  6  7  2  0
  7  8  1  0
  8  9  1  0
  9 10  1  0
 10 11  2  0
 10 12  1  0
 12 13  1  0
 13 14  2  0
 14 15  1  0
 15 16  2  0
 16 17  1  0
 17 18  2  0
 18 19  1  0
 19 20  2  0
 20 21  1  0
 21 22  2  0
 16 23  1  0
  7  2  1  0
 23 13  1  0
 22 17  1  0
  1 24  1  0
  1 25  1  0
  1 26  1  0
  3 27  1  0
  4 28  1  0
  5 29  1  0
  6 30  1  0
  9 31  1  0
  9 32  1  0
 12 33  1  0
 18 34  1  0
 19 35  1  0
 21 36  1  0
 22 37  1  0
M  END
$$$$
