
     RDKit          3D

 38 38  0  0  0  0  0  0  0  0999 V2000
    2.8154   -0.7203    2.5770 C   0  0  0  0  0  0  0  0  0  0  0  0
    2.7404    0.2922    1.5816 O   0  0  0  0  0  0  0  0  0  0  0  0
    1.7839    1.3009    1.9314 C   0  0  0  0  0  0  0  0  0  0  0  0
    1.7310    2.3381    0.8114 C   0  0  0  0  0  0  0  0  0  0  0  0
    1.4149    1.7092   -0.4574 N   0  0  0  0  0  0  0  0  0  0  0  0
    0.8552    2.3969   -1.5043 C   0  0  0  0  0  0  0  0  0  0  0  0
    0.4726    3.5588   -1.4280 O   0  0  0  0  0  0  0  0  0  0  0  0
    0.8001    1.6465   -2.7910 C   0  0  0  0  0  0  0  0  0  0  0  0
    1.2735    2.3339   -3.9453 C   0  0  0  0  0  0  0  0  0  0  0  0
    1.6737    2.8349   -4.9139 N   0  0  0  0  0  0  0  0  0  0  0  0
    0.3122    0.3944   -2.9097 C   0  0  0  0  0  0  0  0  0  0  0  0
   -0.2863   -0.4367   -1.8707 C   0  0  0  0  0  0  0  0  0  0  0  0
    0.4207   -1.7486   -1.6509 C   0  0  0  0  0  0  0  0  0  0  0  0
   -1.3828   -0.0160   -1.2093 C   0  0  0  0  0  0  0  0  0  0  0  0
   -2.0907   -0.7536   -0.1581 C   0  0  0  0  0  0  0  0  0  0  0  0
   -2.7268   -1.9720   -0.4243 C   0  0  0  0  0  0  0  0  0  0  0  0
   -3.4142   -2.6440    0.5888 C   0  0  0  0  0  0  0  0  0  0  0  0
   -3.4765   -2.0982    1.8704 C   0  0  0  0  0  0  0  0  0  0  0  0
   -2.8567   -0.8786    2.1394 C   0  0  0  0  0  0  0  0  0  0  0  0
   -2.1700   -0.2053    1.1266 C   0  0  0  0  0  0  0  0  0  0  0  0
    1.8475   -1.2189    2.6892 H   0  0  0  0  0  0  0  0  0  0  0  0
    3.1352   -0.2947    3.5334 H   0  0  0  0  0  0  0  0  0  0  0  0
    3.5551   -1.4593    2.2580 H   0  0  0  0  0  0  0  0  0  0  0  0
    2.0819    1.7804    2.8702 H   0  0  0  0  0  0  0  0  0  0  0  0
    0.8010    0.8351    2.0599 H   0  0  0  0  0  0  0  0  0  0  0  0
    0.9936    3.1152    1.0375 H   0  0  0  0  0  0  0  0  0  0  0  0
    2.7105    2.8119    0.6855 H   0  0  0  0  0  0  0  0  0  0  0  0
    1.8516    0.8087   -0.6198 H   0  0  0  0  0  0  0  0  0  0  0  0
    0.3431   -0.0885   -3.8885 H   0  0  0  0  0  0  0  0  0  0  0  0
    0.2776   -2.4095   -2.5130 H   0  0  0  0  0  0  0  0  0  0  0  0
    0.0751   -2.2777   -0.7587 H   0  0  0  0  0  0  0  0  0  0  0  0
    1.4960   -1.5843   -1.5171 H   0  0  0  0  0  0  0  0  0  0  0  0
   -1.8229    0.9568   -1.4282 H   0  0  0  0  0  0  0  0  0  0  0  0
   -2.6967   -2.4018   -1.4224 H   0  0  0  0  0  0  0  0  0  0  0  0
   -3.9067   -3.5894    0.3755 H   0  0  0  0  0  0  0  0  0  0  0  0
   -4.0165   -2.6197    2.6574 H   0  0  0  0  0  0  0  0  0  0  0  0
   -2.9154   -0.4474    3.1356 H   0  0  0  0  0  0  0  0  0  0  0  0
   -1.6998    0.7505    1.3454 H   0  0  0  0  0  0  0  0  0  0  0  0
  1  2  1  0
  2  3  1  0
  3  4  1  0
  4  5  1  0
  5  6  1  0
  6  7  2  0
  6  8  1  0
  8  9  1  0
  9 10  3  0
  8 11  2  3
 11 12  1  0
 12 13  1  0
 12 14  2  3
 14 15  1  0
 15 16  2  0
 16 17  1  0
 17 18  2  0
 18 19  1  0
 19 20  2  0
 20 15  1  0
  1 21  1  0
  1 22  1  0
  1 23  1  0
  3 24  1  0
  3 25  1  0
  4 26  1  0
  4 27  1  0
  5 28  1  0
 11 29  1  0
 13 30  1  0
 13 31  1  0
 13 32  1  0
 14 33  1  0
 16 34  1  0
 17 35  1  0
 18 36  1  0
 19 37  1  0
 20 38  1  0
M  END
$$$$
