
     RDKit          3D

 51 55  0  0  0  0  0  0  0  0999 V2000
   -2.4010    2.6169    0.3532 O   0  0  0  0  0  0  0  0  0  0  0  0
   -2.9949    1.9452   -0.4983 C   0  0  0  0  0  0  0  0  0  0  0  0
   -4.5497    2.0011   -0.6443 C   0  0  0  0  0  0  0  0  0  0  0  0
   -5.3198    3.0445    0.2147 C   0  0  0  0  0  0  0  0  0  0  0  0
   -5.5732    1.9318    1.2460 C   0  0  0  0  0  0  0  0  0  0  0  0
   -5.3677    0.9157    0.1094 C   0  0  0  0  0  0  0  0  0  0  0  0
   -2.3411    1.0924   -1.3836 N   0  0  0  0  0  0  0  0  0  0  0  0
   -2.9918    0.2781   -2.4229 C   0  0  0  0  0  0  0  0  0  0  0  0
   -1.9098   -0.5799   -3.0891 C   0  0  0  0  0  0  0  0  0  0  0  0
   -0.6627   -0.0571   -2.4537 C   0  0  0  0  0  0  0  0  0  0  0  0
    0.6418   -0.4362   -2.7356 C   0  0  0  0  0  0  0  0  0  0  0  0
    1.6689    0.1585   -1.9958 C   0  0  0  0  0  0  0  0  0  0  0  0
    3.3531   -0.2881   -2.3366 S   0  0  0  0  0  6  0  0  0  0  0  0
    3.4389   -0.5989   -3.7491 O   0  0  0  0  0  0  0  0  0  0  0  0
    4.2341    0.6907   -1.7381 O   0  0  0  0  0  0  0  0  0  0  0  0
    3.5175   -1.7663   -1.5285 N   0  0  0  0  0  0  0  0  0  0  0  0
    3.7399   -1.7326   -0.1245 C   0  0  0  0  0  0  0  0  0  0  0  0
    5.0415   -1.6386    0.3714 C   0  0  0  0  0  0  0  0  0  0  0  0
    5.2559   -1.5574    1.7488 C   0  0  0  0  0  0  0  0  0  0  0  0
    4.1691   -1.5609    2.6211 C   0  0  0  0  0  0  0  0  0  0  0  0
    2.8679   -1.6758    2.1202 C   0  0  0  0  0  0  0  0  0  0  0  0
    2.6507   -1.7436    0.7455 C   0  0  0  0  0  0  0  0  0  0  0  0
    1.7553   -1.7169    2.9213 O   0  0  0  0  0  0  0  0  0  0  0  0
    2.1014   -1.9597    4.2898 C   0  0  0  0  0  0  0  0  0  0  0  0
    3.2825   -1.0998    4.7081 C   0  0  0  0  0  0  0  0  0  0  0  0
    4.4515   -1.4512    3.9583 O   0  0  0  0  0  0  0  0  0  0  0  0
    1.3911    1.1227   -1.0123 C   0  0  0  0  0  0  0  0  0  0  0  0
    0.0679    1.4866   -0.7397 C   0  0  0  0  0  0  0  0  0  0  0  0
   -0.9505    0.8901   -1.4669 C   0  0  0  0  0  0  0  0  0  0  0  0
   -4.8422    2.0946   -1.6984 H   0  0  0  0  0  0  0  0  0  0  0  0
   -6.2328    3.4164   -0.2657 H   0  0  0  0  0  0  0  0  0  0  0  0
   -4.7466    3.9010    0.5791 H   0  0  0  0  0  0  0  0  0  0  0  0
   -4.8103    1.8755    2.0308 H   0  0  0  0  0  0  0  0  0  0  0  0
   -6.5620    1.9310    1.7112 H   0  0  0  0  0  0  0  0  0  0  0  0
   -6.2927    0.6298   -0.4047 H   0  0  0  0  0  0  0  0  0  0  0  0
   -4.8270    0.0081    0.3915 H   0  0  0  0  0  0  0  0  0  0  0  0
   -3.7776   -0.3400   -1.9769 H   0  0  0  0  0  0  0  0  0  0  0  0
   -3.4575    0.9530   -3.1503 H   0  0  0  0  0  0  0  0  0  0  0  0
   -2.0493   -1.6394   -2.8518 H   0  0  0  0  0  0  0  0  0  0  0  0
   -1.9050   -0.4426   -4.1744 H   0  0  0  0  0  0  0  0  0  0  0  0
    0.8568   -1.1736   -3.5035 H   0  0  0  0  0  0  0  0  0  0  0  0
    4.0868   -2.4094   -2.0776 H   0  0  0  0  0  0  0  0  0  0  0  0
    5.8919   -1.6027   -0.3040 H   0  0  0  0  0  0  0  0  0  0  0  0
    6.2660   -1.4687    2.1392 H   0  0  0  0  0  0  0  0  0  0  0  0
    1.6361   -1.8219    0.3670 H   0  0  0  0  0  0  0  0  0  0  0  0
    2.3213   -3.0279    4.4082 H   0  0  0  0  0  0  0  0  0  0  0  0
    1.2249   -1.7219    4.9005 H   0  0  0  0  0  0  0  0  0  0  0  0
    3.0774   -0.0327    4.5562 H   0  0  0  0  0  0  0  0  0  0  0  0
    3.5087   -1.2565    5.7674 H   0  0  0  0  0  0  0  0  0  0  0  0
    2.1979    1.5888   -0.4494 H   0  0  0  0  0  0  0  0  0  0  0  0
   -0.1319    2.2279    0.0269 H   0  0  0  0  0  0  0  0  0  0  0  0
  1  2  2  0
  2  3  1  0
  3  4  1  0
  4  5  1  0
  5  6  1  0
  2  7  1  0
  7  8  1  0
  8  9  1  0
  9 10  1  0
 10 11  2  0
 11 12  1  0
 12 13  1  0
 13 14  2  0
 13 15  2  0
 13 16  1  0
 16 17  1  0
 17 18  2  0
 18 19  1  0
 19 20  2  0
 20 21  1  0
 21 22  2  0
 21 23  1  0
 23 24  1  0
 24 25  1  0
 25 26  1  0
 12 27  2  0
 27 28  1  0
 28 29  2  0
  6  3  1  0
 29  7  1  0
 29 10  1  0
 22 17  1  0
 26 20  1  0
  3 30  1  0
  4 31  1  0
  4 32  1  0
  5 33  1  0
  5 34  1  0
  6 35  1  0
  6 36  1  0
  8 37  1  0
  8 38  1  0
  9 39  1  0
  9 40  1  0
 11 41  1  0
 16 42  1  0
 18 43  1  0
 19 44  1  0
 22 45  1  0
 24 46  1  0
 24 47  1  0
 25 48  1  0
 25 49  1  0
 27 50  1  0
 28 51  1  0
M  END
$$$$
