
     RDKit          3D

 51 55  0  0  0  0  0  0  0  0999 V2000
    6.8708    2.2319   -1.1840 C   0  0  0  0  0  0  0  0  0  0  0  0
    5.8458    2.0448   -2.1090 C   0  0  0  0  0  0  0  0  0  0  0  0
    4.8298    1.1220   -1.8496 C   0  0  0  0  0  0  0  0  0  0  0  0
    4.8339    0.3753   -0.6627 C   0  0  0  0  0  0  0  0  0  0  0  0
    3.7260   -0.6099   -0.3709 C   0  0  0  0  0  0  0  0  0  0  0  0
    2.5804    0.0401    0.4258 C   0  0  0  0  0  0  0  0  0  0  0  0
    1.5576   -0.9308    0.8626 N   0  0  0  0  0  0  0  0  0  0  0  0
    0.7515   -1.4366   -0.2738 C   0  0  0  0  0  0  0  0  0  0  0  0
   -0.3712   -2.3991    0.1794 C   0  0  0  0  0  0  0  0  0  0  0  0
   -1.2636   -1.7446    1.1555 N   0  0  0  0  0  0  0  0  0  0  0  0
   -2.3293   -0.9842    0.6750 C   0  0  0  0  0  0  0  0  0  0  0  0
   -2.3906    0.2913    0.9647 N   0  0  0  0  0  0  0  0  0  0  0  0
   -3.4357    1.0934    0.4649 C   0  0  0  0  0  0  0  0  0  0  0  0
   -3.4461    2.4500    0.7949 C   0  0  0  0  0  0  0  0  0  0  0  0
   -4.4534    3.2931    0.3176 C   0  0  0  0  0  0  0  0  0  0  0  0
   -5.4634    2.7844   -0.4994 C   0  0  0  0  0  0  0  0  0  0  0  0
   -5.4728    1.4320   -0.8425 C   0  0  0  0  0  0  0  0  0  0  0  0
   -4.4590    0.6007   -0.3565 C   0  0  0  0  0  0  0  0  0  0  0  0
   -4.4012   -0.7739   -0.6371 N   0  0  0  0  0  0  0  0  0  0  0  0
   -5.2562   -1.5537   -1.3789 C   0  0  0  0  0  0  0  0  0  0  0  0
   -4.8251   -2.8608   -1.3002 C   0  0  0  0  0  0  0  0  0  0  0  0
   -3.6592   -2.8697   -0.5000 C   0  0  0  0  0  0  0  0  0  0  0  0
   -3.3915   -1.5625   -0.1327 C   0  0  0  0  0  0  0  0  0  0  0  0
   -0.4888   -1.2301    2.3041 C   0  0  0  0  0  0  0  0  0  0  0  0
    0.6469   -0.2899    1.8465 C   0  0  0  0  0  0  0  0  0  0  0  0
    5.8661    0.5755    0.2641 C   0  0  0  0  0  0  0  0  0  0  0  0
    6.8802    1.4990    0.0032 C   0  0  0  0  0  0  0  0  0  0  0  0
    7.6613    2.9492   -1.3870 H   0  0  0  0  0  0  0  0  0  0  0  0
    5.8367    2.6171   -3.0345 H   0  0  0  0  0  0  0  0  0  0  0  0
    4.0350    0.9884   -2.5808 H   0  0  0  0  0  0  0  0  0  0  0  0
    4.1389   -1.4611    0.1871 H   0  0  0  0  0  0  0  0  0  0  0  0
    3.3618   -1.0182   -1.3210 H   0  0  0  0  0  0  0  0  0  0  0  0
    3.0179    0.5091    1.3175 H   0  0  0  0  0  0  0  0  0  0  0  0
    2.1246    0.8515   -0.1585 H   0  0  0  0  0  0  0  0  0  0  0  0
    0.3071   -0.5997   -0.8281 H   0  0  0  0  0  0  0  0  0  0  0  0
    1.3919   -1.9898   -0.9686 H   0  0  0  0  0  0  0  0  0  0  0  0
   -0.9162   -2.7466   -0.7028 H   0  0  0  0  0  0  0  0  0  0  0  0
    0.0709   -3.2885    0.6442 H   0  0  0  0  0  0  0  0  0  0  0  0
   -2.6602    2.8500    1.4295 H   0  0  0  0  0  0  0  0  0  0  0  0
   -4.4480    4.3468    0.5851 H   0  0  0  0  0  0  0  0  0  0  0  0
   -6.2463    3.4443   -0.8675 H   0  0  0  0  0  0  0  0  0  0  0  0
   -6.2702    1.0591   -1.4765 H   0  0  0  0  0  0  0  0  0  0  0  0
   -6.1111   -1.1339   -1.8892 H   0  0  0  0  0  0  0  0  0  0  0  0
   -5.3057   -3.7143   -1.7615 H   0  0  0  0  0  0  0  0  0  0  0  0
   -3.0756   -3.7363   -0.2185 H   0  0  0  0  0  0  0  0  0  0  0  0
   -1.1416   -0.7173    3.0181 H   0  0  0  0  0  0  0  0  0  0  0  0
   -0.0586   -2.0830    2.8424 H   0  0  0  0  0  0  0  0  0  0  0  0
    0.2217    0.6283    1.4230 H   0  0  0  0  0  0  0  0  0  0  0  0
    1.2224   -0.0016    2.7349 H   0  0  0  0  0  0  0  0  0  0  0  0
    5.8841    0.0122    1.1955 H   0  0  0  0  0  0  0  0  0  0  0  0
    7.6776    1.6461    0.7264 H   0  0  0  0  0  0  0  0  0  0  0  0
  1  2  2  0
  2  3  1  0
  3  4  2  0
  4  5  1  0
  5  6  1  0
  6  7  1  0
  7  8  1  0
  8  9  1  0
  9 10  1  0
 10 11  1  0
 11 12  2  0
 12 13  1  0
 13 14  2  0
 14 15  1  0
 15 16  2  0
 16 17  1  0
 17 18  2  0
 18 19  1  0
 19 20  1  0
 20 21  2  0
 21 22  1  0
 22 23  2  0
 10 24  1  0
 24 25  1  0
  4 26  1  0
 26 27  2  0
 27  1  1  0
 25  7  1  0
 23 11  1  0
 18 13  1  0
 23 19  1  0
  1 28  1  0
  2 29  1  0
  3 30  1  0
  5 31  1  0
  5 32  1  0
  6 33  1  0
  6 34  1  0
  8 35  1  0
  8 36  1  0
  9 37  1  0
  9 38  1  0
 14 39  1  0
 15 40  1  0
 16 41  1  0
 17 42  1  0
 20 43  1  0
 21 44  1  0
 22 45  1  0
 24 46  1  0
 24 47  1  0
 25 48  1  0
 25 49  1  0
 26 50  1  0
 27 51  1  0
M  END
$$$$
