
     RDKit          3D

 24 24  0  0  0  0  0  0  0  0999 V2000
   -3.8824   -0.7804   -1.1668 C   0  0  0  0  0  0  0  0  0  0  0  0
   -3.6747   -0.4125    0.2164 N   0  0  0  0  0  0  0  0  0  0  0  0
   -2.4897   -0.1150    0.8413 C   0  0  0  0  0  0  0  0  0  0  0  0
   -2.6147    0.5412    2.3709 S   0  0  0  0  0  0  0  0  0  0  0  0
   -1.3666   -0.4356    0.1199 N   0  0  0  0  0  0  0  0  0  0  0  0
   -0.0060   -0.0957    0.2917 C   0  0  0  0  0  0  0  0  0  0  0  0
    0.9314   -0.8757   -0.3991 C   0  0  0  0  0  0  0  0  0  0  0  0
    2.3008   -0.6051   -0.3099 C   0  0  0  0  0  0  0  0  0  0  0  0
    2.7593    0.4705    0.4535 C   0  0  0  0  0  0  0  0  0  0  0  0
    4.2275    0.7458    0.5831 C   0  0  0  0  0  0  0  0  0  0  0  0
    1.8263    1.2562    1.1357 C   0  0  0  0  0  0  0  0  0  0  0  0
    0.4555    0.9822    1.0451 C   0  0  0  0  0  0  0  0  0  0  0  0
   -4.9538   -0.7494   -1.3781 H   0  0  0  0  0  0  0  0  0  0  0  0
   -3.3522   -0.0793   -1.8166 H   0  0  0  0  0  0  0  0  0  0  0  0
   -3.5052   -1.7934   -1.3282 H   0  0  0  0  0  0  0  0  0  0  0  0
   -4.4927   -0.1475    0.7554 H   0  0  0  0  0  0  0  0  0  0  0  0
   -1.5270   -1.1564   -0.5683 H   0  0  0  0  0  0  0  0  0  0  0  0
    0.6124   -1.7196   -1.0053 H   0  0  0  0  0  0  0  0  0  0  0  0
    3.0048   -1.2412   -0.8414 H   0  0  0  0  0  0  0  0  0  0  0  0
    4.6371    0.1969    1.4366 H   0  0  0  0  0  0  0  0  0  0  0  0
    4.4132    1.8154    0.7275 H   0  0  0  0  0  0  0  0  0  0  0  0
    4.7634    0.4431   -0.3226 H   0  0  0  0  0  0  0  0  0  0  0  0
    2.1550    2.0988    1.7406 H   0  0  0  0  0  0  0  0  0  0  0  0
   -0.2217    1.6567    1.5554 H   0  0  0  0  0  0  0  0  0  0  0  0
  1  2  1  0
  2  3  1  0
  3  4  2  0
  3  5  1  0
  5  6  1  0
  6  7  2  0
  7  8  1  0
  8  9  2  0
  9 10  1  0
  9 11  1  0
 11 12  2  0
 12  6  1  0
  1 13  1  0
  1 14  1  0
  1 15  1  0
  2 16  1  0
  5 17  1  0
  7 18  1  0
  8 19  1  0
 10 20  1  0
 10 21  1  0
 10 22  1  0
 11 23  1  0
 12 24  1  0
M  END
$$$$
