
     RDKit          3D

 46 48  0  0  0  0  0  0  0  0999 V2000
   -8.0144   -1.0725   -0.8337 C   0  0  0  0  0  0  0  0  0  0  0  0
   -7.5771    0.2342   -0.4801 O   0  0  0  0  0  0  0  0  0  0  0  0
   -6.3119    0.3458    0.0299 C   0  0  0  0  0  0  0  0  0  0  0  0
   -5.8772    1.6582    0.2201 C   0  0  0  0  0  0  0  0  0  0  0  0
   -4.6096    1.9192    0.7433 C   0  0  0  0  0  0  0  0  0  0  0  0
   -3.7558    0.8639    1.0795 C   0  0  0  0  0  0  0  0  0  0  0  0
   -2.4381    1.1857    1.6405 C   0  0  0  0  0  0  0  0  0  0  0  0
   -1.2587    1.0047    1.0284 C   0  0  0  0  0  0  0  0  0  0  0  0
    0.2519    1.3961    1.8139 S   0  0  0  0  0  0  0  0  0  0  0  0
    1.1559    0.8397    0.4457 C   0  0  0  0  0  0  0  0  0  0  0  0
    2.4929    0.8463    0.4044 C   0  0  0  0  0  0  0  0  0  0  0  0
    3.2474    0.3580   -0.7809 C   0  0  0  0  0  0  0  0  0  0  0  0
    2.6819    0.0732   -1.8326 O   0  0  0  0  0  0  0  0  0  0  0  0
    4.7273    0.2489   -0.6773 C   0  0  0  0  0  0  0  0  0  0  0  0
    5.4800    0.3899   -1.8492 C   0  0  0  0  0  0  0  0  0  0  0  0
    6.8732    0.2904   -1.8117 C   0  0  0  0  0  0  0  0  0  0  0  0
    7.5318    0.0410   -0.6038 C   0  0  0  0  0  0  0  0  0  0  0  0
    9.0269   -0.0776   -0.5508 C   0  0  0  0  0  0  0  0  0  0  0  0
    6.7760   -0.1199    0.5639 C   0  0  0  0  0  0  0  0  0  0  0  0
    5.3813   -0.0214    0.5298 C   0  0  0  0  0  0  0  0  0  0  0  0
    0.3393    0.4089   -0.5523 N   0  0  0  0  0  0  0  0  0  0  0  0
   -1.0159    0.4717   -0.3482 C   0  0  0  0  0  0  0  0  0  0  0  0
   -1.8515    0.1499   -1.1754 O   0  0  0  0  0  0  0  0  0  0  0  0
   -4.1900   -0.4592    0.8900 C   0  0  0  0  0  0  0  0  0  0  0  0
   -3.3400   -1.4620    1.2913 O   0  0  0  0  0  0  0  0  0  0  0  0
   -3.3238   -2.5989    0.4324 C   0  0  0  0  0  0  0  0  0  0  0  0
   -5.4701   -0.7127    0.3759 C   0  0  0  0  0  0  0  0  0  0  0  0
   -8.1174   -1.7044    0.0528 H   0  0  0  0  0  0  0  0  0  0  0  0
   -9.0031   -0.9821   -1.2932 H   0  0  0  0  0  0  0  0  0  0  0  0
   -7.3462   -1.5288   -1.5703 H   0  0  0  0  0  0  0  0  0  0  0  0
   -6.5326    2.4850   -0.0415 H   0  0  0  0  0  0  0  0  0  0  0  0
   -4.2956    2.9507    0.8799 H   0  0  0  0  0  0  0  0  0  0  0  0
   -2.4754    1.5935    2.6470 H   0  0  0  0  0  0  0  0  0  0  0  0
    3.0603    1.2303    1.2424 H   0  0  0  0  0  0  0  0  0  0  0  0
    4.9841    0.5785   -2.7994 H   0  0  0  0  0  0  0  0  0  0  0  0
    7.4372    0.4054   -2.7347 H   0  0  0  0  0  0  0  0  0  0  0  0
    9.3134   -1.0905   -0.2504 H   0  0  0  0  0  0  0  0  0  0  0  0
    9.4814    0.1275   -1.5257 H   0  0  0  0  0  0  0  0  0  0  0  0
    9.4374    0.6400    0.1668 H   0  0  0  0  0  0  0  0  0  0  0  0
    7.2728   -0.3336    1.5082 H   0  0  0  0  0  0  0  0  0  0  0  0
    4.8312   -0.1854    1.4516 H   0  0  0  0  0  0  0  0  0  0  0  0
    0.7165    0.0813   -1.4388 H   0  0  0  0  0  0  0  0  0  0  0  0
   -4.1680   -3.2598    0.6554 H   0  0  0  0  0  0  0  0  0  0  0  0
   -2.4033   -3.1566    0.6348 H   0  0  0  0  0  0  0  0  0  0  0  0
   -3.3185   -2.3164   -0.6257 H   0  0  0  0  0  0  0  0  0  0  0  0
   -5.8060   -1.7359    0.2738 H   0  0  0  0  0  0  0  0  0  0  0  0
  1  2  1  0
  2  3  1  0
  3  4  2  0
  4  5  1  0
  5  6  2  0
  6  7  1  0
  7  8  2  3
  8  9  1  0
  9 10  1  0
 10 11  2  3
 11 12  1  0
 12 13  2  0
 12 14  1  0
 14 15  2  0
 15 16  1  0
 16 17  2  0
 17 18  1  0
 17 19  1  0
 19 20  2  0
 10 21  1  0
 21 22  1  0
 22 23  2  0
  6 24  1  0
 24 25  1  0
 25 26  1  0
 24 27  2  0
 27  3  1  0
 22  8  1  0
 20 14  1  0
  1 28  1  0
  1 29  1  0
  1 30  1  0
  4 31  1  0
  5 32  1  0
  7 33  1  0
 11 34  1  0
 15 35  1  0
 16 36  1  0
 18 37  1  0
 18 38  1  0
 18 39  1  0
 19 40  1  0
 20 41  1  0
 21 42  1  0
 26 43  1  0
 26 44  1  0
 26 45  1  0
 27 46  1  0
M  END
$$$$
