
     RDKit          3D

 40 42  0  0  0  0  0  0  0  0999 V2000
    2.6957    3.8746   -0.8587 C   0  0  0  0  0  0  0  0  0  0  0  0
    1.8367    4.1238    0.3695 C   0  0  0  0  0  0  0  0  0  0  0  0
    0.0637    3.8714    0.0197 S   0  0  0  0  0  0  0  0  0  0  0  0
   -0.0487    2.0865   -0.0124 C   0  0  0  0  0  0  0  0  0  0  0  0
   -1.2021    1.5118   -0.5012 C   0  0  0  0  0  0  0  0  0  0  0  0
   -1.2775    0.1338   -0.5037 C   0  0  0  0  0  0  0  0  0  0  0  0
   -2.3991   -0.5226   -1.0000 N   0  0  0  0  0  0  0  0  0  0  0  0
   -3.7418    0.0055   -0.6955 C   0  0  0  0  0  0  0  0  0  0  0  0
   -4.6481   -1.0983   -0.1230 C   0  0  0  0  0  0  0  0  0  0  0  0
   -4.7906   -2.2337   -0.9869 O   0  0  0  0  0  0  0  0  0  0  0  0
   -3.5989   -2.5363   -1.7304 C   0  0  0  0  0  0  0  0  0  0  0  0
   -2.3112   -1.9899   -1.0945 C   0  0  0  0  0  0  0  0  0  0  0  0
   -0.2402   -0.6003   -0.0687 N   0  0  0  0  0  0  0  0  0  0  0  0
    0.8489    0.0367    0.4010 C   0  0  0  0  0  0  0  0  0  0  0  0
    1.9744   -0.7884    0.8875 C   0  0  0  0  0  0  0  0  0  0  0  0
    3.1534   -0.2036    1.3907 C   0  0  0  0  0  0  0  0  0  0  0  0
    4.2199   -0.9831    1.8511 C   0  0  0  0  0  0  0  0  0  0  0  0
    4.1326   -2.3713    1.8191 C   0  0  0  0  0  0  0  0  0  0  0  0
    2.9816   -2.9793    1.3279 C   0  0  0  0  0  0  0  0  0  0  0  0
    1.9175   -2.1961    0.8685 C   0  0  0  0  0  0  0  0  0  0  0  0
    0.9806    1.3701    0.4554 N   0  0  0  0  0  0  0  0  0  0  0  0
    3.7453    4.0811   -0.6241 H   0  0  0  0  0  0  0  0  0  0  0  0
    2.4081    4.5310   -1.6870 H   0  0  0  0  0  0  0  0  0  0  0  0
    2.6348    2.8375   -1.2022 H   0  0  0  0  0  0  0  0  0  0  0  0
    2.1610    3.5070    1.2133 H   0  0  0  0  0  0  0  0  0  0  0  0
    1.9572    5.1677    0.6780 H   0  0  0  0  0  0  0  0  0  0  0  0
   -2.0042    2.1236   -0.8914 H   0  0  0  0  0  0  0  0  0  0  0  0
   -4.1728    0.3829   -1.6300 H   0  0  0  0  0  0  0  0  0  0  0  0
   -3.7161    0.8306    0.0253 H   0  0  0  0  0  0  0  0  0  0  0  0
   -5.6509   -0.6999    0.0623 H   0  0  0  0  0  0  0  0  0  0  0  0
   -4.2579   -1.4536    0.8382 H   0  0  0  0  0  0  0  0  0  0  0  0
   -3.7291   -2.1234   -2.7376 H   0  0  0  0  0  0  0  0  0  0  0  0
   -3.5404   -3.6250   -1.8276 H   0  0  0  0  0  0  0  0  0  0  0  0
   -2.1859   -2.4260   -0.0951 H   0  0  0  0  0  0  0  0  0  0  0  0
   -1.4581   -2.2833   -1.7177 H   0  0  0  0  0  0  0  0  0  0  0  0
    3.2496    0.8804    1.4281 H   0  0  0  0  0  0  0  0  0  0  0  0
    5.1163   -0.5021    2.2338 H   0  0  0  0  0  0  0  0  0  0  0  0
    4.9602   -2.9783    2.1764 H   0  0  0  0  0  0  0  0  0  0  0  0
    2.9072   -4.0633    1.3003 H   0  0  0  0  0  0  0  0  0  0  0  0
    1.0288   -2.6984    0.4894 H   0  0  0  0  0  0  0  0  0  0  0  0
  1  2  1  0
  2  3  1  0
  3  4  1  0
  4  5  2  0
  5  6  1  0
  6  7  1  0
  7  8  1  0
  8  9  1  0
  9 10  1  0
 10 11  1  0
 11 12  1  0
  6 13  2  0
 13 14  1  0
 14 15  1  0
 15 16  2  0
 16 17  1  0
 17 18  2  0
 18 19  1  0
 19 20  2  0
 14 21  2  0
 21  4  1  0
 12  7  1  0
 20 15  1  0
  1 22  1  0
  1 23  1  0
  1 24  1  0
  2 25  1  0
  2 26  1  0
  5 27  1  0
  8 28  1  0
  8 29  1  0
  9 30  1  0
  9 31  1  0
 11 32  1  0
 11 33  1  0
 12 34  1  0
 12 35  1  0
 16 36  1  0
 17 37  1  0
 18 38  1  0
 19 39  1  0
 20 40  1  0
M  END
$$$$
