
     RDKit          3D

 67 72  0  0  0  0  0  0  0  0999 V2000
    3.6265    1.5729   -2.3387 O   0  0  0  0  0  0  0  0  0  0  0  0
    3.1932    1.6165   -1.1809 C   0  0  0  0  0  0  0  0  0  0  0  0
    4.1589    1.9515   -0.0394 C   0  0  0  0  0  0  0  0  0  0  0  0
    5.2148    0.8549    0.1760 C   0  0  0  0  0  0  0  0  0  0  0  0
    4.7109   -0.5191    0.5510 C   0  0  0  0  0  0  0  0  0  0  0  0
    4.5708   -1.5100   -0.4299 C   0  0  0  0  0  0  0  0  0  0  0  0
    4.1468   -2.7941   -0.0843 C   0  0  0  0  0  0  0  0  0  0  0  0
    3.8382   -3.0964    1.2397 C   0  0  0  0  0  0  0  0  0  0  0  0
    3.9645   -2.1170    2.2218 C   0  0  0  0  0  0  0  0  0  0  0  0
    4.4059   -0.8373    1.8811 C   0  0  0  0  0  0  0  0  0  0  0  0
    3.5134    2.3727    1.1938 N   0  0  0  0  0  0  0  0  0  0  0  0
    2.2894    1.8078    1.5002 C   0  0  0  0  0  0  0  0  0  0  0  0
    2.0286    1.7885    2.8177 N   0  0  0  0  0  0  0  0  0  0  0  0
    0.8240    1.3469    3.1671 C   0  0  0  0  0  0  0  0  0  0  0  0
   -0.1396    0.9664    2.3281 N   0  0  0  0  0  0  0  0  0  0  0  0
    0.1340    1.0114    1.0024 C   0  0  0  0  0  0  0  0  0  0  0  0
   -0.9526    0.7127    0.1505 N   0  0  0  0  0  0  0  0  0  0  0  0
   -1.6651   -0.5290    0.5620 C   0  0  0  0  0  0  0  0  0  0  0  0
   -2.9996   -0.2725    1.2977 C   0  0  0  0  0  0  0  0  0  0  0  0
   -3.9073    0.5499    0.4750 N   0  0  0  0  0  0  0  0  0  0  0  0
   -5.2806    0.5287    0.6500 C   0  0  0  0  0  0  0  0  0  0  0  0
   -6.1557    1.0248   -0.3312 C   0  0  0  0  0  0  0  0  0  0  0  0
   -7.5467    1.0026   -0.1682 C   0  0  0  0  0  0  0  0  0  0  0  0
   -8.1037    0.4776    0.9908 C   0  0  0  0  0  0  0  0  0  0  0  0
   -7.2680   -0.0248    1.9800 C   0  0  0  0  0  0  0  0  0  0  0  0
   -5.8780    0.0006    1.8062 C   0  0  0  0  0  0  0  0  0  0  0  0
   -3.2638    1.5347   -0.4147 C   0  0  0  0  0  0  0  0  0  0  0  0
   -1.8499    1.9030    0.0893 C   0  0  0  0  0  0  0  0  0  0  0  0
    1.3978    1.3846    0.5078 C   0  0  0  0  0  0  0  0  0  0  0  0
    1.8548    1.3518   -0.8645 N   0  0  0  0  0  0  0  0  0  0  0  0
    1.0017    0.9803   -1.9863 C   0  0  0  0  0  0  0  0  0  0  0  0
    1.1097   -0.4667   -2.4341 C   0  0  0  0  0  0  0  0  0  0  0  0
    1.0805   -1.5359   -1.5287 C   0  0  0  0  0  0  0  0  0  0  0  0
    1.1223   -2.8587   -1.9786 C   0  0  0  0  0  0  0  0  0  0  0  0
    1.2039   -3.1254   -3.3412 C   0  0  0  0  0  0  0  0  0  0  0  0
    1.2700   -4.7538   -3.8914 Cl  0  0  0  0  0  0  0  0  0  0  0  0
    1.2352   -2.0806   -4.2592 C   0  0  0  0  0  0  0  0  0  0  0  0
    1.1821   -0.7592   -3.8074 C   0  0  0  0  0  0  0  0  0  0  0  0
    4.7022    2.8405   -0.3885 H   0  0  0  0  0  0  0  0  0  0  0  0
    5.8160    0.7608   -0.7391 H   0  0  0  0  0  0  0  0  0  0  0  0
    5.9242    1.1805    0.9495 H   0  0  0  0  0  0  0  0  0  0  0  0
    4.7957   -1.2925   -1.4729 H   0  0  0  0  0  0  0  0  0  0  0  0
    4.0528   -3.5563   -0.8538 H   0  0  0  0  0  0  0  0  0  0  0  0
    3.5040   -4.0954    1.5060 H   0  0  0  0  0  0  0  0  0  0  0  0
    3.7279   -2.3506    3.2564 H   0  0  0  0  0  0  0  0  0  0  0  0
    4.5103   -0.0911    2.6658 H   0  0  0  0  0  0  0  0  0  0  0  0
    4.0843    2.4695    2.0253 H   0  0  0  0  0  0  0  0  0  0  0  0
    0.6000    1.3070    4.2271 H   0  0  0  0  0  0  0  0  0  0  0  0
   -1.0265   -1.1928    1.1593 H   0  0  0  0  0  0  0  0  0  0  0  0
   -1.8861   -1.0808   -0.3611 H   0  0  0  0  0  0  0  0  0  0  0  0
   -2.8204    0.2288    2.2559 H   0  0  0  0  0  0  0  0  0  0  0  0
   -3.4486   -1.2517    1.5032 H   0  0  0  0  0  0  0  0  0  0  0  0
   -5.7668    1.4192   -1.2660 H   0  0  0  0  0  0  0  0  0  0  0  0
   -8.1889    1.3908   -0.9540 H   0  0  0  0  0  0  0  0  0  0  0  0
   -9.1819    0.4578    1.1213 H   0  0  0  0  0  0  0  0  0  0  0  0
   -7.6904   -0.4362    2.8928 H   0  0  0  0  0  0  0  0  0  0  0  0
   -5.2672   -0.3863    2.6166 H   0  0  0  0  0  0  0  0  0  0  0  0
   -3.2023    1.1173   -1.4269 H   0  0  0  0  0  0  0  0  0  0  0  0
   -3.8455    2.4632   -0.4602 H   0  0  0  0  0  0  0  0  0  0  0  0
   -1.9541    2.3784    1.0752 H   0  0  0  0  0  0  0  0  0  0  0  0
   -1.4138    2.6491   -0.5860 H   0  0  0  0  0  0  0  0  0  0  0  0
   -0.0393    1.2583   -1.8447 H   0  0  0  0  0  0  0  0  0  0  0  0
    1.3054    1.6151   -2.8312 H   0  0  0  0  0  0  0  0  0  0  0  0
    1.0351   -1.3551   -0.4587 H   0  0  0  0  0  0  0  0  0  0  0  0
    1.1005   -3.6706   -1.2571 H   0  0  0  0  0  0  0  0  0  0  0  0
    1.2996   -2.2838   -5.3245 H   0  0  0  0  0  0  0  0  0  0  0  0
    1.2063    0.0463   -4.5392 H   0  0  0  0  0  0  0  0  0  0  0  0
  1  2  2  0
  2  3  1  0
  3  4  1  0
  4  5  1  0
  5  6  2  0
  6  7  1  0
  7  8  2  0
  8  9  1  0
  9 10  2  0
  3 11  1  0
 11 12  1  0
 12 13  2  0
 13 14  1  0
 14 15  2  0
 15 16  1  0
 16 17  1  0
 17 18  1  0
 18 19  1  0
 19 20  1  0
 20 21  1  0
 21 22  2  0
 22 23  1  0
 23 24  2  0
 24 25  1  0
 25 26  2  0
 20 27  1  0
 27 28  1  0
 16 29  2  0
 29 30  1  0
 30 31  1  0
 31 32  1  0
 32 33  2  0
 33 34  1  0
 34 35  2  0
 35 36  1  0
 35 37  1  0
 37 38  2  0
 30  2  1  0
 38 32  1  0
 10  5  1  0
 29 12  1  0
 28 17  1  0
 26 21  1  0
  3 39  1  0
  4 40  1  0
  4 41  1  0
  6 42  1  0
  7 43  1  0
  8 44  1  0
  9 45  1  0
 10 46  1  0
 11 47  1  0
 14 48  1  0
 18 49  1  0
 18 50  1  0
 19 51  1  0
 19 52  1  0
 22 53  1  0
 23 54  1  0
 24 55  1  0
 25 56  1  0
 26 57  1  0
 27 58  1  0
 27 59  1  0
 28 60  1  0
 28 61  1  0
 31 62  1  0
 31 63  1  0
 33 64  1  0
 34 65  1  0
 37 66  1  0
 38 67  1  0
M  END
$$$$
