
     RDKit          3D

 63 66  0  0  0  0  0  0  0  0999 V2000
    2.9202   -0.3362   -3.0654 C   0  0  0  0  0  0  0  0  0  0  0  0
    3.0234    0.0381   -1.6138 C   0  0  0  0  0  0  0  0  0  0  0  0
    2.3087   -0.6282   -0.7502 N   0  0  0  0  0  0  0  0  0  0  0  0
    2.3750   -0.3394    0.6172 N   0  0  0  0  0  0  0  0  0  0  0  0
    1.5039   -1.1391    1.4751 C   0  0  0  0  0  0  0  0  0  0  0  0
    0.1616   -0.4541    1.6918 C   0  0  0  0  0  0  0  0  0  0  0  0
   -0.7535   -1.3023    2.5427 C   0  0  0  0  0  0  0  0  0  0  0  0
   -0.4567   -2.4188    2.9513 O   0  0  0  0  0  0  0  0  0  0  0  0
   -1.9579   -0.6862    2.8068 N   0  0  0  0  0  0  0  0  0  0  0  0
   -3.0288   -1.3717    3.4942 C   0  0  0  0  0  0  0  0  0  0  0  0
   -4.0412   -1.8967    2.5089 C   0  0  0  0  0  0  0  0  0  0  0  0
   -5.2042   -1.1729    2.2143 C   0  0  0  0  0  0  0  0  0  0  0  0
   -6.1312   -1.6567    1.2827 C   0  0  0  0  0  0  0  0  0  0  0  0
   -5.9016   -2.8629    0.6224 C   0  0  0  0  0  0  0  0  0  0  0  0
   -6.7137   -3.4528   -0.3042 O   0  0  0  0  0  0  0  0  0  0  0  0
   -7.8779   -2.7592   -0.7622 C   0  0  0  0  0  0  0  0  0  0  0  0
   -9.0602   -3.0671    0.1515 C   0  0  0  0  0  0  0  0  0  0  0  0
   -8.1643   -3.2695   -2.1733 C   0  0  0  0  0  0  0  0  0  0  0  0
   -4.7396   -3.5828    0.9103 C   0  0  0  0  0  0  0  0  0  0  0  0
   -3.8146   -3.1062    1.8418 C   0  0  0  0  0  0  0  0  0  0  0  0
    3.1405    0.6967    1.1940 C   0  0  0  0  0  0  0  0  0  0  0  0
    3.1283    0.9640    2.3942 O   0  0  0  0  0  0  0  0  0  0  0  0
    3.9294    1.4247    0.2089 C   0  0  0  0  0  0  0  0  0  0  0  0
    4.7348    2.4618    0.4500 N   0  0  0  0  0  0  0  0  0  0  0  0
    5.3048    2.7541   -0.7503 N   0  0  0  0  0  0  0  0  0  0  0  0
    6.3813    3.6964   -0.7809 C   0  0  0  0  0  0  0  0  0  0  0  0
    6.5808    4.5331    0.3324 C   0  0  0  0  0  0  0  0  0  0  0  0
    7.6212    5.4654    0.3461 C   0  0  0  0  0  0  0  0  0  0  0  0
    8.4818    5.5641   -0.7425 C   0  0  0  0  0  0  0  0  0  0  0  0
    8.3111    4.7222   -1.8393 C   0  0  0  0  0  0  0  0  0  0  0  0
    7.2704    3.7859   -1.8578 C   0  0  0  0  0  0  0  0  0  0  0  0
    4.6881    2.0360   -1.7848 C   0  0  0  0  0  0  0  0  0  0  0  0
    4.8680    2.3149   -3.2328 C   0  0  0  0  0  0  0  0  0  0  0  0
    3.8731    1.1101   -1.1537 C   0  0  0  0  0  0  0  0  0  0  0  0
    2.3556    0.4315   -3.6008 H   0  0  0  0  0  0  0  0  0  0  0  0
    3.9170   -0.4340   -3.5034 H   0  0  0  0  0  0  0  0  0  0  0  0
    2.3974   -1.2894   -3.1763 H   0  0  0  0  0  0  0  0  0  0  0  0
    2.0057   -1.3015    2.4367 H   0  0  0  0  0  0  0  0  0  0  0  0
    1.3729   -2.1235    1.0099 H   0  0  0  0  0  0  0  0  0  0  0  0
    0.3009    0.5150    2.1848 H   0  0  0  0  0  0  0  0  0  0  0  0
   -0.3292   -0.2737    0.7283 H   0  0  0  0  0  0  0  0  0  0  0  0
   -2.1945    0.1558    2.3009 H   0  0  0  0  0  0  0  0  0  0  0  0
   -3.4955   -0.6476    4.1715 H   0  0  0  0  0  0  0  0  0  0  0  0
   -2.6386   -2.1900    4.1103 H   0  0  0  0  0  0  0  0  0  0  0  0
   -5.4032   -0.2273    2.7137 H   0  0  0  0  0  0  0  0  0  0  0  0
   -7.0236   -1.0667    1.1048 H   0  0  0  0  0  0  0  0  0  0  0  0
   -7.7052   -1.6797   -0.8382 H   0  0  0  0  0  0  0  0  0  0  0  0
   -9.9771   -2.5959   -0.2170 H   0  0  0  0  0  0  0  0  0  0  0  0
   -8.8777   -2.7113    1.1707 H   0  0  0  0  0  0  0  0  0  0  0  0
   -9.2264   -4.1483    0.2240 H   0  0  0  0  0  0  0  0  0  0  0  0
   -9.0543   -2.7922   -2.5964 H   0  0  0  0  0  0  0  0  0  0  0  0
   -7.3127   -3.0641   -2.8314 H   0  0  0  0  0  0  0  0  0  0  0  0
   -8.3106   -4.3565   -2.1790 H   0  0  0  0  0  0  0  0  0  0  0  0
   -4.5496   -4.5256    0.4019 H   0  0  0  0  0  0  0  0  0  0  0  0
   -2.9129   -3.6828    2.0442 H   0  0  0  0  0  0  0  0  0  0  0  0
    5.9233    4.4779    1.1988 H   0  0  0  0  0  0  0  0  0  0  0  0
    7.7576    6.1104    1.2106 H   0  0  0  0  0  0  0  0  0  0  0  0
    9.2942    6.2868   -0.7302 H   0  0  0  0  0  0  0  0  0  0  0  0
    9.0003    4.7845   -2.6781 H   0  0  0  0  0  0  0  0  0  0  0  0
    7.2222    3.1175   -2.7086 H   0  0  0  0  0  0  0  0  0  0  0  0
    3.9590    2.0777   -3.7956 H   0  0  0  0  0  0  0  0  0  0  0  0
    5.0597    3.3760   -3.4249 H   0  0  0  0  0  0  0  0  0  0  0  0
    5.6844    1.7122   -3.6454 H   0  0  0  0  0  0  0  0  0  0  0  0
  1  2  1  0
  2  3  2  0
  3  4  1  0
  4  5  1  0
  5  6  1  0
  6  7  1  0
  7  8  2  0
  7  9  1  0
  9 10  1  0
 10 11  1  0
 11 12  2  0
 12 13  1  0
 13 14  2  0
 14 15  1  0
 15 16  1  0
 16 17  1  0
 16 18  1  0
 14 19  1  0
 19 20  2  0
  4 21  1  0
 21 22  2  0
 21 23  1  0
 23 24  2  0
 24 25  1  0
 25 26  1  0
 26 27  2  0
 27 28  1  0
 28 29  2  0
 29 30  1  0
 30 31  2  0
 25 32  1  0
 32 33  1  0
 32 34  2  0
 34  2  1  0
 20 11  1  0
 34 23  1  0
 31 26  1  0
  1 35  1  0
  1 36  1  0
  1 37  1  0
  5 38  1  0
  5 39  1  0
  6 40  1  0
  6 41  1  0
  9 42  1  0
 10 43  1  0
 10 44  1  0
 12 45  1  0
 13 46  1  0
 16 47  1  0
 17 48  1  0
 17 49  1  0
 17 50  1  0
 18 51  1  0
 18 52  1  0
 18 53  1  0
 19 54  1  0
 20 55  1  0
 27 56  1  0
 28 57  1  0
 29 58  1  0
 30 59  1  0
 31 60  1  0
 33 61  1  0
 33 62  1  0
 33 63  1  0
M  END
$$$$
