
     RDKit          3D

 39 40  0  0  0  0  0  0  0  0999 V2000
    4.1994   -1.0776    1.9307 C   0  0  0  0  0  0  0  0  0  0  0  0
    4.7567   -0.7175    0.5589 C   0  0  0  0  0  0  0  0  0  0  0  0
    4.0067    0.4561   -0.0929 C   0  0  0  0  0  0  0  0  0  0  0  0
    4.7770    0.9519   -1.3194 C   0  0  0  0  0  0  0  0  0  0  0  0
    2.5823    0.0752   -0.5192 C   0  0  0  0  0  0  0  0  0  0  0  0
    2.2370   -1.0949   -0.6360 O   0  0  0  0  0  0  0  0  0  0  0  0
    1.8060    1.1870   -0.7659 N   0  0  0  0  0  0  0  0  0  0  0  0
    0.4931    1.2081   -1.1645 C   0  0  0  0  0  0  0  0  0  0  0  0
   -0.1457    2.3363   -1.3856 N   0  0  0  0  0  0  0  0  0  0  0  0
   -1.4524    2.1280   -1.7779 N   0  0  0  0  0  0  0  0  0  0  0  0
   -1.7523    0.8457   -1.8234 C   0  0  0  0  0  0  0  0  0  0  0  0
   -3.0920    0.2985   -2.1974 C   0  0  0  0  0  0  0  0  0  0  0  0
   -4.1754    0.6759   -1.1829 C   0  0  0  0  0  0  0  0  0  0  0  0
   -4.0112   -0.0177    0.1488 C   0  0  0  0  0  0  0  0  0  0  0  0
   -4.4382   -1.3414    0.3198 C   0  0  0  0  0  0  0  0  0  0  0  0
   -4.2614   -1.9878    1.5440 C   0  0  0  0  0  0  0  0  0  0  0  0
   -3.6550   -1.3193    2.6059 C   0  0  0  0  0  0  0  0  0  0  0  0
   -3.2250   -0.0037    2.4454 C   0  0  0  0  0  0  0  0  0  0  0  0
   -3.4013    0.6450    1.2227 C   0  0  0  0  0  0  0  0  0  0  0  0
   -0.4458   -0.1895   -1.4114 S   0  0  0  0  0  0  0  0  0  0  0  0
    4.7847   -1.8907    2.3719 H   0  0  0  0  0  0  0  0  0  0  0  0
    3.1586   -1.4088    1.8709 H   0  0  0  0  0  0  0  0  0  0  0  0
    4.2482   -0.2202    2.6096 H   0  0  0  0  0  0  0  0  0  0  0  0
    5.8138   -0.4521    0.6830 H   0  0  0  0  0  0  0  0  0  0  0  0
    4.7264   -1.6035   -0.0867 H   0  0  0  0  0  0  0  0  0  0  0  0
    3.9406    1.2762    0.6340 H   0  0  0  0  0  0  0  0  0  0  0  0
    4.8414    0.1716   -2.0860 H   0  0  0  0  0  0  0  0  0  0  0  0
    4.2893    1.8199   -1.7753 H   0  0  0  0  0  0  0  0  0  0  0  0
    5.7952    1.2492   -1.0474 H   0  0  0  0  0  0  0  0  0  0  0  0
    2.2011    2.1103   -0.6546 H   0  0  0  0  0  0  0  0  0  0  0  0
   -3.0533   -0.7898   -2.3291 H   0  0  0  0  0  0  0  0  0  0  0  0
   -3.3653    0.7193   -3.1732 H   0  0  0  0  0  0  0  0  0  0  0  0
   -4.2036    1.7632   -1.0339 H   0  0  0  0  0  0  0  0  0  0  0  0
   -5.1582    0.4082   -1.5923 H   0  0  0  0  0  0  0  0  0  0  0  0
   -4.9107   -1.8788   -0.4992 H   0  0  0  0  0  0  0  0  0  0  0  0
   -4.5946   -3.0147    1.6691 H   0  0  0  0  0  0  0  0  0  0  0  0
   -3.5156   -1.8244    3.5579 H   0  0  0  0  0  0  0  0  0  0  0  0
   -2.7488    0.5173    3.2717 H   0  0  0  0  0  0  0  0  0  0  0  0
   -3.0520    1.6699    1.1103 H   0  0  0  0  0  0  0  0  0  0  0  0
  1  2  1  0
  2  3  1  0
  3  4  1  0
  3  5  1  0
  5  6  2  0
  5  7  1  0
  7  8  1  0
  8  9  2  0
  9 10  1  0
 10 11  2  0
 11 12  1  0
 12 13  1  0
 13 14  1  0
 14 15  2  0
 15 16  1  0
 16 17  2  0
 17 18  1  0
 18 19  2  0
 11 20  1  0
 20  8  1  0
 19 14  1  0
  1 21  1  0
  1 22  1  0
  1 23  1  0
  2 24  1  0
  2 25  1  0
  3 26  1  0
  4 27  1  0
  4 28  1  0
  4 29  1  0
  7 30  1  0
 12 31  1  0
 12 32  1  0
 13 33  1  0
 13 34  1  0
 15 35  1  0
 16 36  1  0
 17 37  1  0
 18 38  1  0
 19 39  1  0
M  END
$$$$
