
     RDKit          3D

 54 57  0  0  0  0  0  0  0  0999 V2000
   -4.6455    4.0703   -1.0189 C   0  0  0  0  0  0  0  0  0  0  0  0
   -4.6065    2.7249   -1.4777 O   0  0  0  0  0  0  0  0  0  0  0  0
   -3.5407    1.9662   -1.0807 C   0  0  0  0  0  0  0  0  0  0  0  0
   -3.5730    0.6398   -1.5208 C   0  0  0  0  0  0  0  0  0  0  0  0
   -2.5467   -0.2491   -1.1927 C   0  0  0  0  0  0  0  0  0  0  0  0
   -1.4791    0.1910   -0.4049 C   0  0  0  0  0  0  0  0  0  0  0  0
   -0.4320   -0.7003   -0.0685 N   0  0  0  0  0  0  0  0  0  0  0  0
    0.1223   -0.9295    1.1856 C   0  0  0  0  0  0  0  0  0  0  0  0
   -0.3767   -0.3826    2.4821 C   0  0  0  0  0  0  0  0  0  0  0  0
   -1.7264   -0.9201    2.8602 C   0  0  0  0  0  0  0  0  0  0  0  0
   -2.9398   -0.2568    2.9342 C   0  0  0  0  0  0  0  0  0  0  0  0
   -3.9250   -1.1909    3.3225 C   0  0  0  0  0  0  0  0  0  0  0  0
   -3.2950   -2.4021    3.4872 C   0  0  0  0  0  0  0  0  0  0  0  0
   -1.9615   -2.2335    3.2130 N   0  0  0  0  0  0  0  0  0  0  0  0
   -0.9833   -3.2996    3.2795 C   0  0  0  0  0  0  0  0  0  0  0  0
    1.0792   -1.8353    1.0845 N   0  0  0  0  0  0  0  0  0  0  0  0
    1.1596   -2.2336   -0.2197 N   0  0  0  0  0  0  0  0  0  0  0  0
    0.2683   -1.5538   -0.9020 C   0  0  0  0  0  0  0  0  0  0  0  0
    0.1832   -1.6074   -2.6359 S   0  0  0  0  0  0  0  0  0  0  0  0
    0.7225    0.0660   -3.0891 C   0  0  0  0  0  0  0  0  0  0  0  0
    1.9064    0.5538   -2.2696 C   0  0  0  0  0  0  0  0  0  0  0  0
    1.7996    1.5572   -1.5675 O   0  0  0  0  0  0  0  0  0  0  0  0
    3.0421   -0.2135   -2.4311 N   0  0  0  0  0  0  0  0  0  0  0  0
    4.3094   -0.0124   -1.8442 C   0  0  0  0  0  0  0  0  0  0  0  0
    4.6635    1.1103   -1.0950 C   0  0  0  0  0  0  0  0  0  0  0  0
    5.9521    1.2207   -0.5569 C   0  0  0  0  0  0  0  0  0  0  0  0
    6.8956    0.2127   -0.7637 C   0  0  0  0  0  0  0  0  0  0  0  0
    6.5537   -0.9095   -1.5133 C   0  0  0  0  0  0  0  0  0  0  0  0
    5.2718   -1.0107   -2.0465 C   0  0  0  0  0  0  0  0  0  0  0  0
    4.9568   -2.0936   -2.7770 F   0  0  0  0  0  0  0  0  0  0  0  0
   -1.4353    1.5185    0.0337 C   0  0  0  0  0  0  0  0  0  0  0  0
   -2.4647    2.4032   -0.3074 C   0  0  0  0  0  0  0  0  0  0  0  0
   -4.6712    4.1152    0.0745 H   0  0  0  0  0  0  0  0  0  0  0  0
   -5.5679    4.5250   -1.3922 H   0  0  0  0  0  0  0  0  0  0  0  0
   -3.8047    4.6461   -1.4187 H   0  0  0  0  0  0  0  0  0  0  0  0
   -4.4131    0.2934   -2.1192 H   0  0  0  0  0  0  0  0  0  0  0  0
   -2.6255   -1.2820   -1.5260 H   0  0  0  0  0  0  0  0  0  0  0  0
   -0.3960    0.7109    2.4627 H   0  0  0  0  0  0  0  0  0  0  0  0
    0.3387   -0.6374    3.2745 H   0  0  0  0  0  0  0  0  0  0  0  0
   -3.1010    0.7919    2.7199 H   0  0  0  0  0  0  0  0  0  0  0  0
   -4.9804   -1.0014    3.4665 H   0  0  0  0  0  0  0  0  0  0  0  0
   -3.6905   -3.3673    3.7757 H   0  0  0  0  0  0  0  0  0  0  0  0
   -0.0740   -2.9246    3.7539 H   0  0  0  0  0  0  0  0  0  0  0  0
   -1.3866   -4.1206    3.8781 H   0  0  0  0  0  0  0  0  0  0  0  0
   -0.7850   -3.6444    2.2626 H   0  0  0  0  0  0  0  0  0  0  0  0
    1.0013    0.0759   -4.1476 H   0  0  0  0  0  0  0  0  0  0  0  0
   -0.1088    0.7662   -2.9664 H   0  0  0  0  0  0  0  0  0  0  0  0
    2.9374   -1.1010   -2.9161 H   0  0  0  0  0  0  0  0  0  0  0  0
    3.9636    1.9196   -0.9120 H   0  0  0  0  0  0  0  0  0  0  0  0
    6.2170    2.1001    0.0273 H   0  0  0  0  0  0  0  0  0  0  0  0
    7.8923    0.3044   -0.3399 H   0  0  0  0  0  0  0  0  0  0  0  0
    7.2719   -1.7050   -1.6855 H   0  0  0  0  0  0  0  0  0  0  0  0
   -0.5852    1.9041    0.5922 H   0  0  0  0  0  0  0  0  0  0  0  0
   -2.3874    3.4300    0.0364 H   0  0  0  0  0  0  0  0  0  0  0  0
  1  2  1  0
  2  3  1  0
  3  4  2  0
  4  5  1  0
  5  6  2  0
  6  7  1  0
  7  8  1  0
  8  9  1  0
  9 10  1  0
 10 11  2  0
 11 12  1  0
 12 13  2  0
 13 14  1  0
 14 15  1  0
  8 16  2  0
 16 17  1  0
 17 18  2  0
 18 19  1  0
 19 20  1  0
 20 21  1  0
 21 22  2  0
 21 23  1  0
 23 24  1  0
 24 25  2  0
 25 26  1  0
 26 27  2  0
 27 28  1  0
 28 29  2  0
 29 30  1  0
  6 31  1  0
 31 32  2  0
 32  3  1  0
 18  7  1  0
 29 24  1  0
 14 10  1  0
  1 33  1  0
  1 34  1  0
  1 35  1  0
  4 36  1  0
  5 37  1  0
  9 38  1  0
  9 39  1  0
 11 40  1  0
 12 41  1  0
 13 42  1  0
 15 43  1  0
 15 44  1  0
 15 45  1  0
 20 46  1  0
 20 47  1  0
 23 48  1  0
 25 49  1  0
 26 50  1  0
 27 51  1  0
 28 52  1  0
 31 53  1  0
 32 54  1  0
M  END
$$$$
