
     RDKit          3D

 55 60  0  0  0  0  0  0  0  0999 V2000
    4.6897    2.1761   -1.0800 O   0  0  0  0  0  0  0  0  0  0  0  0
    3.9343    2.0193   -0.1220 C   0  0  0  0  0  0  0  0  0  0  0  0
    4.2668    2.6106    1.1655 C   0  0  0  0  0  0  0  0  0  0  0  0
    5.5709    2.8082    1.7098 C   0  0  0  0  0  0  0  0  0  0  0  0
    5.4041    3.4359    2.9208 C   0  0  0  0  0  0  0  0  0  0  0  0
    4.0877    3.6688    3.1527 O   0  0  0  0  0  0  0  0  0  0  0  0
    3.4083    3.1903    2.0789 C   0  0  0  0  0  0  0  0  0  0  0  0
    2.7468    1.2876   -0.2459 N   0  0  0  0  0  0  0  0  0  0  0  0
    2.3603    0.8762   -1.5896 C   0  0  0  0  0  0  0  0  0  0  0  0
    0.8984    0.4497   -1.6406 C   0  0  0  0  0  0  0  0  0  0  0  0
    0.6604   -0.8035   -0.7611 C   0  0  0  0  0  0  0  0  0  0  0  0
    1.5133   -0.7226    0.5427 C   0  0  0  0  0  0  0  0  0  0  0  0
    2.0314    0.6769    0.8722 C   0  0  0  0  0  0  0  0  0  0  0  0
    1.2336   -1.9495   -1.4581 O   0  0  0  0  0  0  0  0  0  0  0  0
    0.4907   -2.5480   -2.4324 C   0  0  0  0  0  0  0  0  0  0  0  0
    1.1612   -3.4687   -3.2372 C   0  0  0  0  0  0  0  0  0  0  0  0
    0.4869   -4.1101   -4.2797 C   0  0  0  0  0  0  0  0  0  0  0  0
   -0.8595   -3.8293   -4.5134 C   0  0  0  0  0  0  0  0  0  0  0  0
   -1.6828   -4.6155   -5.8024 Cl  0  0  0  0  0  0  0  0  0  0  0  0
   -1.5406   -2.9199   -3.7092 C   0  0  0  0  0  0  0  0  0  0  0  0
   -0.8577   -2.2934   -2.6625 C   0  0  0  0  0  0  0  0  0  0  0  0
   -1.5488   -1.3444   -1.7806 C   0  0  0  0  0  0  0  0  0  0  0  0
   -2.6128   -0.8425   -2.1319 O   0  0  0  0  0  0  0  0  0  0  0  0
   -0.8479   -1.0393   -0.4622 C   0  0  0  0  0  0  0  0  0  0  0  0
   -1.5497    0.0783    0.2931 C   0  0  0  0  0  0  0  0  0  0  0  0
   -2.4544   -0.7536    1.1388 C   0  0  0  0  0  0  0  0  0  0  0  0
   -3.6040   -0.1759    1.8744 C   0  0  0  0  0  0  0  0  0  0  0  0
   -3.8640    1.1998    1.8685 C   0  0  0  0  0  0  0  0  0  0  0  0
   -4.9567    1.7089    2.5788 C   0  0  0  0  0  0  0  0  0  0  0  0
   -5.7865    0.8467    3.2942 C   0  0  0  0  0  0  0  0  0  0  0  0
   -7.1269    1.4793    4.1663 Cl  0  0  0  0  0  0  0  0  0  0  0  0
   -5.5347   -0.5229    3.3070 C   0  0  0  0  0  0  0  0  0  0  0  0
   -4.4439   -1.0339    2.5981 C   0  0  0  0  0  0  0  0  0  0  0  0
   -2.1285   -2.0051    1.2067 N   0  0  0  0  0  0  0  0  0  0  0  0
   -1.0034   -2.1980    0.3758 O   0  0  0  0  0  0  0  0  0  0  0  0
    6.5118    2.5206    1.2603 H   0  0  0  0  0  0  0  0  0  0  0  0
    6.0840    3.7790    3.6885 H   0  0  0  0  0  0  0  0  0  0  0  0
    2.3395    3.3464    2.1080 H   0  0  0  0  0  0  0  0  0  0  0  0
    2.5272    1.7127   -2.2783 H   0  0  0  0  0  0  0  0  0  0  0  0
    3.0240    0.0601   -1.8995 H   0  0  0  0  0  0  0  0  0  0  0  0
    0.6358    0.2545   -2.6863 H   0  0  0  0  0  0  0  0  0  0  0  0
    0.2752    1.2857   -1.3011 H   0  0  0  0  0  0  0  0  0  0  0  0
    0.9570   -1.0990    1.4085 H   0  0  0  0  0  0  0  0  0  0  0  0
    2.3863   -1.3847    0.4526 H   0  0  0  0  0  0  0  0  0  0  0  0
    1.2023    1.3449    1.1245 H   0  0  0  0  0  0  0  0  0  0  0  0
    2.6834    0.6053    1.7479 H   0  0  0  0  0  0  0  0  0  0  0  0
    2.2123   -3.6843   -3.0591 H   0  0  0  0  0  0  0  0  0  0  0  0
    1.0173   -4.8243   -4.9051 H   0  0  0  0  0  0  0  0  0  0  0  0
   -2.5925   -2.7072   -3.8848 H   0  0  0  0  0  0  0  0  0  0  0  0
   -2.0870    0.7822   -0.3459 H   0  0  0  0  0  0  0  0  0  0  0  0
   -0.8887    0.6282    0.9661 H   0  0  0  0  0  0  0  0  0  0  0  0
   -3.2363    1.8972    1.3224 H   0  0  0  0  0  0  0  0  0  0  0  0
   -5.1560    2.7778    2.5694 H   0  0  0  0  0  0  0  0  0  0  0  0
   -6.1798   -1.1986    3.8628 H   0  0  0  0  0  0  0  0  0  0  0  0
   -4.2575   -2.1066    2.6134 H   0  0  0  0  0  0  0  0  0  0  0  0
  1  2  2  0
  2  3  1  0
  3  4  1  0
  4  5  2  0
  5  6  1  0
  6  7  1  0
  2  8  1  0
  8  9  1  0
  9 10  1  0
 10 11  1  0
 11 12  1  0
 12 13  1  0
 11 14  1  0
 14 15  1  0
 15 16  2  0
 16 17  1  0
 17 18  2  0
 18 19  1  0
 18 20  1  0
 20 21  2  0
 21 22  1  0
 22 23  2  0
 22 24  1  0
 24 25  1  0
 25 26  1  0
 26 27  1  0
 27 28  2  0
 28 29  1  0
 29 30  2  0
 30 31  1  0
 30 32  1  0
 32 33  2  0
 26 34  2  0
 34 35  1  0
  7  3  2  0
 13  8  1  0
 21 15  1  0
 35 24  1  0
 24 11  1  0
 33 27  1  0
  4 36  1  0
  5 37  1  0
  7 38  1  0
  9 39  1  0
  9 40  1  0
 10 41  1  0
 10 42  1  0
 12 43  1  0
 12 44  1  0
 13 45  1  0
 13 46  1  0
 16 47  1  0
 17 48  1  0
 20 49  1  0
 25 50  1  0
 25 51  1  0
 28 52  1  0
 29 53  1  0
 32 54  1  0
 33 55  1  0
M  END
$$$$
