
     RDKit          3D

 42 44  0  0  0  0  0  0  0  0999 V2000
   -0.1781    3.3682    1.2017 C   0  0  0  0  0  0  0  0  0  0  0  0
   -0.3380    2.7675   -0.1817 C   0  0  0  0  0  0  0  0  0  0  0  0
   -0.5783    1.3572   -0.0780 O   0  0  0  0  0  0  0  0  0  0  0  0
   -1.8832    0.9733    0.0550 C   0  0  0  0  0  0  0  0  0  0  0  0
   -2.8254    1.7567    0.0887 O   0  0  0  0  0  0  0  0  0  0  0  0
   -2.0486   -0.4770    0.1538 C   0  0  0  0  0  0  0  0  0  0  0  0
   -1.0244   -1.4298    0.1582 C   0  0  0  0  0  0  0  0  0  0  0  0
    0.3336   -1.1846    0.0817 N   0  0  0  0  0  0  0  0  0  0  0  0
    1.3813   -2.0829    0.0772 C   0  0  0  0  0  0  0  0  0  0  0  0
    1.3292   -3.3052    0.1313 O   0  0  0  0  0  0  0  0  0  0  0  0
    2.6769   -1.3780   -0.0079 C   0  0  0  0  0  0  0  0  0  0  0  0
    3.9695   -1.9607   -0.0510 C   0  0  0  0  0  0  0  0  0  0  0  0
    4.8447   -0.9045   -0.1275 C   0  0  0  0  0  0  0  0  0  0  0  0
    4.0756    0.2205   -0.1277 N   0  0  0  0  0  0  0  0  0  0  0  0
    4.5464    1.5913   -0.1861 C   0  0  0  0  0  0  0  0  0  0  0  0
    4.4213    2.1817   -1.5791 C   0  0  0  0  0  0  0  0  0  0  0  0
    2.7534   -0.0291   -0.0544 N   0  0  0  0  0  0  0  0  0  0  0  0
   -1.6122   -3.0400    0.2774 S   0  0  0  0  0  0  0  0  0  0  0  0
   -3.1852   -2.4989    0.3313 C   0  0  0  0  0  0  0  0  0  0  0  0
   -3.3047   -1.1411    0.2634 C   0  0  0  0  0  0  0  0  0  0  0  0
   -4.7322   -0.7298    0.3141 C   0  0  0  0  0  0  0  0  0  0  0  0
   -5.4409   -2.0438    0.7717 C   0  0  0  0  0  0  0  0  0  0  0  0
   -4.4736   -3.2199    0.4359 C   0  0  0  0  0  0  0  0  0  0  0  0
    0.6194    2.8579    1.7519 H   0  0  0  0  0  0  0  0  0  0  0  0
   -1.0949    3.2515    1.7883 H   0  0  0  0  0  0  0  0  0  0  0  0
    0.0629    4.4329    1.1371 H   0  0  0  0  0  0  0  0  0  0  0  0
    0.5921    2.8919   -0.7462 H   0  0  0  0  0  0  0  0  0  0  0  0
   -1.1289    3.2696   -0.7501 H   0  0  0  0  0  0  0  0  0  0  0  0
    0.6272   -0.2089    0.0193 H   0  0  0  0  0  0  0  0  0  0  0  0
    4.2098   -3.0151   -0.0283 H   0  0  0  0  0  0  0  0  0  0  0  0
    5.9237   -0.8650   -0.1811 H   0  0  0  0  0  0  0  0  0  0  0  0
    3.9619    2.1709    0.5370 H   0  0  0  0  0  0  0  0  0  0  0  0
    5.5918    1.6011    0.1411 H   0  0  0  0  0  0  0  0  0  0  0  0
    4.9970    1.5997   -2.3066 H   0  0  0  0  0  0  0  0  0  0  0  0
    4.7944    3.2103   -1.5908 H   0  0  0  0  0  0  0  0  0  0  0  0
    3.3779    2.1936   -1.9119 H   0  0  0  0  0  0  0  0  0  0  0  0
   -4.9169    0.0820    1.0229 H   0  0  0  0  0  0  0  0  0  0  0  0
   -5.0805   -0.4330   -0.6807 H   0  0  0  0  0  0  0  0  0  0  0  0
   -6.4244   -2.1684    0.3082 H   0  0  0  0  0  0  0  0  0  0  0  0
   -5.5920   -2.0061    1.8588 H   0  0  0  0  0  0  0  0  0  0  0  0
   -4.7432   -3.6771   -0.5216 H   0  0  0  0  0  0  0  0  0  0  0  0
   -4.4844   -3.9789    1.2227 H   0  0  0  0  0  0  0  0  0  0  0  0
  1  2  1  0
  2  3  1  0
  3  4  1  0
  4  5  2  0
  4  6  1  0
  6  7  2  0
  7  8  1  0
  8  9  1  0
  9 10  2  0
  9 11  1  0
 11 12  1  0
 12 13  2  0
 13 14  1  0
 14 15  1  0
 15 16  1  0
 14 17  1  0
  7 18  1  0
 18 19  1  0
 19 20  2  0
 20 21  1  0
 21 22  1  0
 22 23  1  0
 20  6  1  0
 17 11  2  0
 23 19  1  0
  1 24  1  0
  1 25  1  0
  1 26  1  0
  2 27  1  0
  2 28  1  0
  8 29  1  0
 12 30  1  0
 13 31  1  0
 15 32  1  0
 15 33  1  0
 16 34  1  0
 16 35  1  0
 16 36  1  0
 21 37  1  0
 21 38  1  0
 22 39  1  0
 22 40  1  0
 23 41  1  0
 23 42  1  0
M  END
$$$$
