
     RDKit          3D

 56 61  0  0  0  0  0  0  0  0999 V2000
    6.5974    1.8828   -3.6342 C   0  0  0  0  0  0  0  0  0  0  0  0
    5.5428    1.4262   -2.6683 C   0  0  0  0  0  0  0  0  0  0  0  0
    5.7737    0.3269   -1.8358 C   0  0  0  0  0  0  0  0  0  0  0  0
    4.7829   -0.1223   -0.9566 C   0  0  0  0  0  0  0  0  0  0  0  0
    3.5439    0.5169   -0.9095 C   0  0  0  0  0  0  0  0  0  0  0  0
    2.4237    0.0260    0.0764 C   0  0  0  0  0  0  0  0  0  0  0  0
    1.1827    0.6194    0.2752 C   0  0  0  0  0  0  0  0  0  0  0  0
    0.4913   -0.0927    1.2548 N   0  0  0  0  0  4  0  0  0  0  0  0
   -0.8869    0.1547    1.7173 C   0  0  0  0  0  0  0  0  0  0  0  0
   -1.8696   -0.7982    1.0005 C   0  0  0  0  0  0  0  0  0  0  0  0
   -1.5076   -1.9630    0.8091 O   0  0  0  0  0  0  0  0  0  0  0  0
   -3.0471   -0.2049    0.5119 N   0  0  0  0  0  0  0  0  0  0  0  0
   -3.6911   -0.6820   -0.6914 C   0  0  0  0  0  0  0  0  0  0  0  0
   -3.6186   -2.0338   -1.0734 C   0  0  0  0  0  0  0  0  0  0  0  0
   -4.2280   -2.5011   -2.2437 C   0  0  0  0  0  0  0  0  0  0  0  0
   -4.9213   -1.6254   -3.0667 C   0  0  0  0  0  0  0  0  0  0  0  0
   -5.0051   -0.2817   -2.7181 C   0  0  0  0  0  0  0  0  0  0  0  0
   -4.4008    0.1905   -1.5416 C   0  0  0  0  0  0  0  0  0  0  0  0
   -4.4904    1.9407   -1.2364 S   0  0  0  0  0  0  0  0  0  0  0  0
   -4.3780    1.9049    0.5297 C   0  0  0  0  0  0  0  0  0  0  0  0
   -4.9703    2.9539    1.2480 C   0  0  0  0  0  0  0  0  0  0  0  0
   -4.9164    2.9809    2.6395 C   0  0  0  0  0  0  0  0  0  0  0  0
   -4.2809    1.9525    3.3230 C   0  0  0  0  0  0  0  0  0  0  0  0
   -3.6804    0.9103    2.6122 C   0  0  0  0  0  0  0  0  0  0  0  0
   -3.6901    0.8837    1.2025 C   0  0  0  0  0  0  0  0  0  0  0  0
    1.2607   -1.1120    1.6240 C   0  0  0  0  0  0  0  0  0  0  0  0
    2.3997   -1.0555    0.9390 N   0  0  0  0  0  0  0  0  0  0  0  0
    3.2855   -2.1633    1.2669 C   0  0  0  0  0  0  0  0  0  0  0  0
    2.3825   -3.1228    2.0893 C   0  0  0  0  0  0  0  0  0  0  0  0
    1.2051   -2.2517    2.5688 C   0  0  0  0  0  0  0  0  0  0  0  0
    3.3040    1.6117   -1.7478 C   0  0  0  0  0  0  0  0  0  0  0  0
    4.2965    2.0573   -2.6260 C   0  0  0  0  0  0  0  0  0  0  0  0
    6.5186    1.3181   -4.5683 H   0  0  0  0  0  0  0  0  0  0  0  0
    7.5984    1.7377   -3.2140 H   0  0  0  0  0  0  0  0  0  0  0  0
    6.4901    2.9497   -3.8564 H   0  0  0  0  0  0  0  0  0  0  0  0
    6.7341   -0.1856   -1.8662 H   0  0  0  0  0  0  0  0  0  0  0  0
    5.0221   -0.9645   -0.3209 H   0  0  0  0  0  0  0  0  0  0  0  0
    0.6989    1.4779   -0.1592 H   0  0  0  0  0  0  0  0  0  0  0  0
   -0.9210   -0.0313    2.7949 H   0  0  0  0  0  0  0  0  0  0  0  0
   -1.1094    1.2065    1.5183 H   0  0  0  0  0  0  0  0  0  0  0  0
   -3.1303   -2.7804   -0.4545 H   0  0  0  0  0  0  0  0  0  0  0  0
   -4.1663   -3.5560   -2.5030 H   0  0  0  0  0  0  0  0  0  0  0  0
   -5.3964   -1.9859   -3.9761 H   0  0  0  0  0  0  0  0  0  0  0  0
   -5.5437    0.3987   -3.3755 H   0  0  0  0  0  0  0  0  0  0  0  0
   -5.4927    3.7545    0.7259 H   0  0  0  0  0  0  0  0  0  0  0  0
   -5.3939    3.7913    3.1866 H   0  0  0  0  0  0  0  0  0  0  0  0
   -4.2774    1.9494    4.4115 H   0  0  0  0  0  0  0  0  0  0  0  0
   -3.2653    0.0886    3.1912 H   0  0  0  0  0  0  0  0  0  0  0  0
    3.6542   -2.6523    0.3624 H   0  0  0  0  0  0  0  0  0  0  0  0
    4.1137   -1.7845    1.8728 H   0  0  0  0  0  0  0  0  0  0  0  0
    2.0006   -3.9072    1.4251 H   0  0  0  0  0  0  0  0  0  0  0  0
    2.9165   -3.6082    2.9105 H   0  0  0  0  0  0  0  0  0  0  0  0
    1.3727   -1.8354    3.5646 H   0  0  0  0  0  0  0  0  0  0  0  0
    0.2404   -2.7514    2.4965 H   0  0  0  0  0  0  0  0  0  0  0  0
    2.3544    2.1381   -1.7541 H   0  0  0  0  0  0  0  0  0  0  0  0
    4.0916    2.9035   -3.2803 H   0  0  0  0  0  0  0  0  0  0  0  0
  1  2  1  0
  2  3  2  0
  3  4  1  0
  4  5  2  0
  5  6  1  0
  6  7  2  0
  7  8  1  0
  8  9  1  0
  9 10  1  0
 10 11  2  0
 10 12  1  0
 12 13  1  0
 13 14  2  0
 14 15  1  0
 15 16  2  0
 16 17  1  0
 17 18  2  0
 18 19  1  0
 19 20  1  0
 20 21  2  0
 21 22  1  0
 22 23  2  0
 23 24  1  0
 24 25  2  0
  8 26  2  0
 26 27  1  0
 27 28  1  0
 28 29  1  0
 29 30  1  0
  5 31  1  0
 31 32  2  0
 32  2  1  0
 27  6  1  0
 25 12  1  0
 30 26  1  0
 18 13  1  0
 25 20  1  0
  1 33  1  0
  1 34  1  0
  1 35  1  0
  3 36  1  0
  4 37  1  0
  7 38  1  0
  9 39  1  0
  9 40  1  0
 14 41  1  0
 15 42  1  0
 16 43  1  0
 17 44  1  0
 21 45  1  0
 22 46  1  0
 23 47  1  0
 24 48  1  0
 28 49  1  0
 28 50  1  0
 29 51  1  0
 29 52  1  0
 30 53  1  0
 30 54  1  0
 31 55  1  0
 32 56  1  0
M  CHG  1   8   1
M  END
$$$$
