
     RDKit          3D

 52 55  0  0  0  0  0  0  0  0999 V2000
    5.7744   -2.5570   -0.7901 C   0  0  0  0  0  0  0  0  0  0  0  0
    5.1951   -1.2953   -0.2711 C   0  0  0  0  0  0  0  0  0  0  0  0
    3.8728   -0.8241   -0.4185 C   0  0  0  0  0  0  0  0  0  0  0  0
    3.8244    0.3955    0.2388 C   0  0  0  0  0  0  0  0  0  0  0  0
    2.7428    1.3370    0.4244 C   0  0  0  0  0  0  0  0  0  0  0  0
    2.8897    2.4475    0.9260 O   0  0  0  0  0  0  0  0  0  0  0  0
    1.5093    0.8937    0.0074 N   0  0  0  0  0  0  0  0  0  0  0  0
    0.3106    1.6861    0.1872 C   0  0  0  0  0  0  0  0  0  0  0  0
   -0.1918    1.6790    1.6519 C   0  0  0  0  0  0  0  0  0  0  0  0
   -1.0359    0.4299    2.0606 C   0  0  0  0  0  0  0  0  0  0  0  0
   -0.1779   -0.8513    2.0735 C   0  0  0  0  0  0  0  0  0  0  0  0
   -1.5620    0.6503    3.4940 C   0  0  0  0  0  0  0  0  0  0  0  0
   -2.2563    0.2451    1.1059 C   0  0  0  0  0  0  0  0  0  0  0  0
   -1.8861    0.4950   -0.3189 C   0  0  0  0  0  0  0  0  0  0  0  0
   -0.7308    1.1398   -0.7253 C   0  0  0  0  0  0  0  0  0  0  0  0
   -0.7757    1.1091   -2.1223 C   0  0  0  0  0  0  0  0  0  0  0  0
   -1.8514    0.4737   -2.5771 N   0  0  0  0  0  0  0  0  0  0  0  0
   -2.5845    0.1500   -1.4711 N   0  0  0  0  0  0  0  0  0  0  0  0
   -3.8681   -0.4525   -1.6545 C   0  0  0  0  0  0  0  0  0  0  0  0
   -4.7985   -0.5966   -0.6166 C   0  0  0  0  0  0  0  0  0  0  0  0
   -6.0436   -1.1961   -0.8528 C   0  0  0  0  0  0  0  0  0  0  0  0
   -6.3732   -1.6498   -2.1267 C   0  0  0  0  0  0  0  0  0  0  0  0
   -5.4606   -1.4935   -3.1600 C   0  0  0  0  0  0  0  0  0  0  0  0
   -5.7778   -1.9245   -4.3879 F   0  0  0  0  0  0  0  0  0  0  0  0
   -4.2224   -0.8986   -2.9405 C   0  0  0  0  0  0  0  0  0  0  0  0
    5.1025    0.5760    0.7175 N   0  0  0  0  0  0  0  0  0  0  0  0
    5.6067    1.6993    1.4764 C   0  0  0  0  0  0  0  0  0  0  0  0
    5.9402   -0.4409    0.4321 N   0  0  0  0  0  0  0  0  0  0  0  0
    5.2990   -3.4182   -0.3101 H   0  0  0  0  0  0  0  0  0  0  0  0
    5.6155   -2.6334   -1.8704 H   0  0  0  0  0  0  0  0  0  0  0  0
    6.8516   -2.6144   -0.6022 H   0  0  0  0  0  0  0  0  0  0  0  0
    3.0725   -1.3191   -0.9491 H   0  0  0  0  0  0  0  0  0  0  0  0
    1.4081   -0.0567   -0.3142 H   0  0  0  0  0  0  0  0  0  0  0  0
    0.5472    2.7195   -0.0953 H   0  0  0  0  0  0  0  0  0  0  0  0
   -0.8289    2.5662    1.7818 H   0  0  0  0  0  0  0  0  0  0  0  0
    0.6484    1.8063    2.3459 H   0  0  0  0  0  0  0  0  0  0  0  0
   -0.7291   -1.6859    2.5229 H   0  0  0  0  0  0  0  0  0  0  0  0
    0.1094   -1.1722    1.0686 H   0  0  0  0  0  0  0  0  0  0  0  0
    0.7367   -0.7078    2.6597 H   0  0  0  0  0  0  0  0  0  0  0  0
   -2.1657    1.5623    3.5600 H   0  0  0  0  0  0  0  0  0  0  0  0
   -0.7357    0.7467    4.2075 H   0  0  0  0  0  0  0  0  0  0  0  0
   -2.1901   -0.1873    3.8189 H   0  0  0  0  0  0  0  0  0  0  0  0
   -3.0378    0.9640    1.3819 H   0  0  0  0  0  0  0  0  0  0  0  0
   -2.6587   -0.7659    1.2335 H   0  0  0  0  0  0  0  0  0  0  0  0
   -0.0565    1.4990   -2.8319 H   0  0  0  0  0  0  0  0  0  0  0  0
   -4.6205   -0.2283    0.3847 H   0  0  0  0  0  0  0  0  0  0  0  0
   -6.7599   -1.2987   -0.0406 H   0  0  0  0  0  0  0  0  0  0  0  0
   -7.3338   -2.1142   -2.3231 H   0  0  0  0  0  0  0  0  0  0  0  0
   -3.5454   -0.8016   -3.7859 H   0  0  0  0  0  0  0  0  0  0  0  0
    5.5453    2.5943    0.8527 H   0  0  0  0  0  0  0  0  0  0  0  0
    6.6495    1.5145    1.7495 H   0  0  0  0  0  0  0  0  0  0  0  0
    5.0074    1.8043    2.3839 H   0  0  0  0  0  0  0  0  0  0  0  0
  1  2  1  0
  2  3  1  0
  3  4  2  0
  4  5  1  0
  5  6  2  0
  5  7  1  0
  7  8  1  0
  8  9  1  0
  9 10  1  0
 10 11  1  0
 10 12  1  0
 10 13  1  0
 13 14  1  0
 14 15  2  0
 15 16  1  0
 16 17  2  0
 17 18  1  0
 18 19  1  0
 19 20  2  0
 20 21  1  0
 21 22  2  0
 22 23  1  0
 23 24  1  0
 23 25  2  0
  4 26  1  0
 26 27  1  0
 26 28  1  0
 28  2  2  0
 15  8  1  0
 25 19  1  0
 18 14  1  0
  1 29  1  0
  1 30  1  0
  1 31  1  0
  3 32  1  0
  7 33  1  0
  8 34  1  0
  9 35  1  0
  9 36  1  0
 11 37  1  0
 11 38  1  0
 11 39  1  0
 12 40  1  0
 12 41  1  0
 12 42  1  0
 13 43  1  0
 13 44  1  0
 16 45  1  0
 20 46  1  0
 21 47  1  0
 22 48  1  0
 25 49  1  0
 27 50  1  0
 27 51  1  0
 27 52  1  0
M  END
$$$$
