
     RDKit          3D

 43 45  0  0  0  0  0  0  0  0999 V2000
    2.3008    0.8417    3.1406 O   0  0  0  0  0  0  0  0  0  0  0  0
    2.6379   -0.1820    2.5520 C   0  0  0  0  0  0  0  0  0  0  0  0
    4.0247   -0.7812    2.7443 C   0  0  0  0  0  0  0  0  0  0  0  0
    5.3168    0.2517    1.9767 S   0  0  0  0  0  0  0  0  0  0  0  0
    4.7788    0.3550    0.2749 C   0  0  0  0  0  0  0  0  0  0  0  0
    4.8495    1.6060   -0.3513 C   0  0  0  0  0  0  0  0  0  0  0  0
    4.4616    1.7597   -1.6862 C   0  0  0  0  0  0  0  0  0  0  0  0
    4.0074    0.6617   -2.4148 C   0  0  0  0  0  0  0  0  0  0  0  0
    3.9438   -0.5906   -1.8087 C   0  0  0  0  0  0  0  0  0  0  0  0
    4.3314   -0.7364   -0.4775 C   0  0  0  0  0  0  0  0  0  0  0  0
    4.2425   -1.9584    0.0711 F   0  0  0  0  0  0  0  0  0  0  0  0
    1.8561   -0.9147    1.6704 N   0  0  0  0  0  0  0  0  0  0  0  0
    0.5430   -0.6324    1.2453 C   0  0  0  0  0  0  0  0  0  0  0  0
   -0.0247   -1.4929    0.3053 C   0  0  0  0  0  0  0  0  0  0  0  0
   -1.3270   -1.2777   -0.1705 C   0  0  0  0  0  0  0  0  0  0  0  0
   -2.1121   -0.2028    0.2690 C   0  0  0  0  0  0  0  0  0  0  0  0
   -3.3957    0.0044   -0.1993 N   0  0  0  0  0  0  0  0  0  0  0  0
   -4.3581    0.8641    0.5090 C   0  0  0  0  0  0  0  0  0  0  0  0
   -5.7962    0.4393    0.1654 C   0  0  0  0  0  0  0  0  0  0  0  0
   -6.1092    0.5024   -1.2333 O   0  0  0  0  0  0  0  0  0  0  0  0
   -4.9652    0.3178   -2.0780 C   0  0  0  0  0  0  0  0  0  0  0  0
   -3.8709   -0.5738   -1.4664 C   0  0  0  0  0  0  0  0  0  0  0  0
   -1.5187    0.6452    1.2155 C   0  0  0  0  0  0  0  0  0  0  0  0
   -0.2154    0.4401    1.6978 C   0  0  0  0  0  0  0  0  0  0  0  0
    4.2165   -0.8284    3.8217 H   0  0  0  0  0  0  0  0  0  0  0  0
    4.0834   -1.8088    2.3766 H   0  0  0  0  0  0  0  0  0  0  0  0
    5.2000    2.4777    0.1987 H   0  0  0  0  0  0  0  0  0  0  0  0
    4.5141    2.7402   -2.1544 H   0  0  0  0  0  0  0  0  0  0  0  0
    3.7050    0.7838   -3.4519 H   0  0  0  0  0  0  0  0  0  0  0  0
    3.5948   -1.4547   -2.3651 H   0  0  0  0  0  0  0  0  0  0  0  0
    2.2934   -1.7179    1.2328 H   0  0  0  0  0  0  0  0  0  0  0  0
    0.5270   -2.3490   -0.0733 H   0  0  0  0  0  0  0  0  0  0  0  0
   -1.7246   -1.9951   -0.8828 H   0  0  0  0  0  0  0  0  0  0  0  0
   -4.2361    0.7850    1.5953 H   0  0  0  0  0  0  0  0  0  0  0  0
   -4.1946    1.9056    0.2084 H   0  0  0  0  0  0  0  0  0  0  0  0
   -6.5128    1.0784    0.6911 H   0  0  0  0  0  0  0  0  0  0  0  0
   -5.9750   -0.5908    0.4961 H   0  0  0  0  0  0  0  0  0  0  0  0
   -5.3189   -0.1142   -3.0195 H   0  0  0  0  0  0  0  0  0  0  0  0
   -4.5603    1.3107   -2.3074 H   0  0  0  0  0  0  0  0  0  0  0  0
   -4.2714   -1.5752   -1.2703 H   0  0  0  0  0  0  0  0  0  0  0  0
   -3.0584   -0.6549   -2.1975 H   0  0  0  0  0  0  0  0  0  0  0  0
   -2.0520    1.5138    1.5921 H   0  0  0  0  0  0  0  0  0  0  0  0
    0.1689    1.1477    2.4252 H   0  0  0  0  0  0  0  0  0  0  0  0
  1  2  2  0
  2  3  1  0
  3  4  1  0
  4  5  1  0
  5  6  2  0
  6  7  1  0
  7  8  2  0
  8  9  1  0
  9 10  2  0
 10 11  1  0
  2 12  1  0
 12 13  1  0
 13 14  2  0
 14 15  1  0
 15 16  2  0
 16 17  1  0
 17 18  1  0
 18 19  1  0
 19 20  1  0
 20 21  1  0
 21 22  1  0
 16 23  1  0
 23 24  2  0
 10  5  1  0
 24 13  1  0
 22 17  1  0
  3 25  1  0
  3 26  1  0
  6 27  1  0
  7 28  1  0
  8 29  1  0
  9 30  1  0
 12 31  1  0
 14 32  1  0
 15 33  1  0
 18 34  1  0
 18 35  1  0
 19 36  1  0
 19 37  1  0
 21 38  1  0
 21 39  1  0
 22 40  1  0
 22 41  1  0
 23 42  1  0
 24 43  1  0
M  END
$$$$
