
     RDKit          3D

 49 52  0  0  0  0  0  0  0  0999 V2000
   -2.5824    1.3421    2.6501 O   0  0  0  0  0  0  0  0  0  0  0  0
   -1.6719    2.0267    2.2259 C   0  0  0  0  0  0  0  0  0  0  0  0
   -0.9055    2.7520    3.0642 O   0  0  0  0  0  0  0  0  0  0  0  0
   -1.2351    2.1768    0.8136 C   0  0  0  0  0  0  0  0  0  0  0  0
   -0.7988    3.4614    0.4216 C   0  0  0  0  0  0  0  0  0  0  0  0
   -0.5375    3.7531   -0.9133 C   0  0  0  0  0  0  0  0  0  0  0  0
   -0.7516    2.7762   -1.8747 C   0  0  0  0  0  0  0  0  0  0  0  0
   -1.1868    1.4983   -1.4913 C   0  0  0  0  0  0  0  0  0  0  0  0
   -1.4709    0.5077   -2.5554 C   0  0  0  0  0  0  0  0  0  0  0  0
   -1.1774    0.7400   -3.7238 O   0  0  0  0  0  0  0  0  0  0  0  0
   -2.1400   -0.7540   -2.1835 C   0  0  0  0  0  0  0  0  0  0  0  0
   -2.6233   -1.6059   -3.1852 C   0  0  0  0  0  0  0  0  0  0  0  0
   -3.2560   -2.7951   -2.8345 C   0  0  0  0  0  0  0  0  0  0  0  0
   -3.4066   -3.1248   -1.4902 C   0  0  0  0  0  0  0  0  0  0  0  0
   -2.9137   -2.2730   -0.4951 C   0  0  0  0  0  0  0  0  0  0  0  0
   -2.2525   -1.0786   -0.8234 C   0  0  0  0  0  0  0  0  0  0  0  0
   -1.7308   -0.2031    0.1604 N   0  0  0  0  0  0  0  0  0  0  0  0
   -1.0173   -0.8628    1.2909 C   0  0  0  0  0  0  0  0  0  0  0  0
    0.1351   -1.8135    0.8748 C   0  0  0  0  0  0  0  0  0  0  0  0
    0.5806   -2.5305    2.0414 O   0  0  0  0  0  0  0  0  0  0  0  0
    1.3428   -1.0932    0.2307 C   0  0  0  0  0  0  0  0  0  0  0  0
    2.0420   -0.2190    1.2076 N   0  0  0  0  0  0  0  0  0  0  0  0
    2.5285    1.0172    0.5650 C   0  0  0  0  0  0  0  0  0  0  0  0
    3.8194    0.6381   -0.1391 C   0  0  0  0  0  0  0  0  0  0  0  0
    4.3759   -0.5159    0.6788 C   0  0  0  0  0  0  0  0  0  0  0  0
    3.2898   -0.8458    1.6958 C   0  0  0  0  0  0  0  0  0  0  0  0
   -1.3773    1.1389   -0.1377 C   0  0  0  0  0  0  0  0  0  0  0  0
   -1.2801    2.5577    3.9493 H   0  0  0  0  0  0  0  0  0  0  0  0
   -0.6924    4.2551    1.1595 H   0  0  0  0  0  0  0  0  0  0  0  0
   -0.2098    4.7477   -1.2055 H   0  0  0  0  0  0  0  0  0  0  0  0
   -0.5956    3.0098   -2.9265 H   0  0  0  0  0  0  0  0  0  0  0  0
   -2.5111   -1.3388   -4.2337 H   0  0  0  0  0  0  0  0  0  0  0  0
   -3.6386   -3.4575   -3.6068 H   0  0  0  0  0  0  0  0  0  0  0  0
   -3.9145   -4.0449   -1.2103 H   0  0  0  0  0  0  0  0  0  0  0  0
   -3.0734   -2.5532    0.5429 H   0  0  0  0  0  0  0  0  0  0  0  0
   -0.5942   -0.1455    1.9993 H   0  0  0  0  0  0  0  0  0  0  0  0
   -1.7423   -1.4211    1.8976 H   0  0  0  0  0  0  0  0  0  0  0  0
   -0.2242   -2.5741    0.1757 H   0  0  0  0  0  0  0  0  0  0  0  0
    1.0628   -1.8661    2.5711 H   0  0  0  0  0  0  0  0  0  0  0  0
    2.0297   -1.8487   -0.1728 H   0  0  0  0  0  0  0  0  0  0  0  0
    0.9851   -0.5240   -0.6340 H   0  0  0  0  0  0  0  0  0  0  0  0
    2.7369    1.7571    1.3484 H   0  0  0  0  0  0  0  0  0  0  0  0
    1.8031    1.4765   -0.1126 H   0  0  0  0  0  0  0  0  0  0  0  0
    4.5186    1.4783   -0.1913 H   0  0  0  0  0  0  0  0  0  0  0  0
    3.6165    0.3043   -1.1635 H   0  0  0  0  0  0  0  0  0  0  0  0
    4.5831   -1.3725    0.0278 H   0  0  0  0  0  0  0  0  0  0  0  0
    5.3100   -0.2385    1.1783 H   0  0  0  0  0  0  0  0  0  0  0  0
    3.5454   -0.3913    2.6613 H   0  0  0  0  0  0  0  0  0  0  0  0
    3.2061   -1.9235    1.8722 H   0  0  0  0  0  0  0  0  0  0  0  0
  1  2  2  0
  2  3  1  0
  2  4  1  0
  4  5  2  0
  5  6  1  0
  6  7  2  0
  7  8  1  0
  8  9  1  0
  9 10  2  0
  9 11  1  0
 11 12  2  0
 12 13  1  0
 13 14  2  0
 14 15  1  0
 15 16  2  0
 16 17  1  0
 17 18  1  0
 18 19  1  0
 19 20  1  0
 19 21  1  0
 21 22  1  0
 22 23  1  0
 23 24  1  0
 24 25  1  0
 25 26  1  0
 17 27  1  0
 27  4  1  0
 27  8  2  0
 16 11  1  0
 26 22  1  0
  3 28  1  0
  5 29  1  0
  6 30  1  0
  7 31  1  0
 12 32  1  0
 13 33  1  0
 14 34  1  0
 15 35  1  0
 18 36  1  0
 18 37  1  0
 19 38  1  0
 20 39  1  0
 21 40  1  0
 21 41  1  0
 23 42  1  0
 23 43  1  0
 24 44  1  0
 24 45  1  0
 25 46  1  0
 25 47  1  0
 26 48  1  0
 26 49  1  0
M  END
$$$$
