
     RDKit          3D

 35 37  0  0  0  0  0  0  0  0999 V2000
   -0.0616   -0.6683   -2.3908 O   0  0  0  0  0  0  0  0  0  0  0  0
   -0.1491   -0.8371   -1.1818 C   0  0  0  0  0  0  0  0  0  0  0  0
   -1.4458   -0.9845   -0.4627 C   0  0  0  0  0  0  0  0  0  0  0  0
   -2.6169   -0.8039   -1.0885 C   0  0  0  0  0  0  0  0  0  0  0  0
   -3.9440   -0.9122   -0.4760 C   0  0  0  0  0  0  0  0  0  0  0  0
   -4.7353    0.2370   -0.3466 C   0  0  0  0  0  0  0  0  0  0  0  0
   -6.0068    0.1530    0.2241 C   0  0  0  0  0  0  0  0  0  0  0  0
   -6.4840   -1.0786    0.6571 C   0  0  0  0  0  0  0  0  0  0  0  0
   -7.7040   -1.1580    1.2038 F   0  0  0  0  0  0  0  0  0  0  0  0
   -5.7154   -2.2294    0.5280 C   0  0  0  0  0  0  0  0  0  0  0  0
   -4.4437   -2.1481   -0.0426 C   0  0  0  0  0  0  0  0  0  0  0  0
   -1.1799   -1.3830    1.1926 S   0  0  0  0  0  0  0  0  0  0  0  0
    0.5736   -1.3867    1.0166 C   0  0  0  0  0  0  0  0  0  0  0  0
    1.5989   -1.8521    2.2468 S   0  0  0  0  0  0  0  0  0  0  0  0
    0.8872   -0.9696   -0.2645 N   0  0  0  0  0  0  0  0  0  0  0  0
    2.2072   -0.9510   -0.7682 N   0  0  0  0  0  0  0  0  0  0  0  0
    3.0553    0.0685   -0.3007 C   0  0  0  0  0  0  0  0  0  0  0  0
    4.2891   -0.3847    0.0368 N   0  0  0  0  0  0  0  0  0  0  0  0
    5.2070    0.4986    0.4955 C   0  0  0  0  0  0  0  0  0  0  0  0
    4.9731    1.8551    0.6252 C   0  0  0  0  0  0  0  0  0  0  0  0
    6.0381    2.7592    1.1622 C   0  0  0  0  0  0  0  0  0  0  0  0
    6.0273    2.8178    2.5208 F   0  0  0  0  0  0  0  0  0  0  0  0
    5.9132    4.0437    0.7296 F   0  0  0  0  0  0  0  0  0  0  0  0
    7.2938    2.3683    0.8121 F   0  0  0  0  0  0  0  0  0  0  0  0
    3.7060    2.3204    0.2670 C   0  0  0  0  0  0  0  0  0  0  0  0
    2.7368    1.4302   -0.2083 C   0  0  0  0  0  0  0  0  0  0  0  0
    1.2143    2.1066   -0.6559 Cl  0  0  0  0  0  0  0  0  0  0  0  0
   -2.6274   -0.5290   -2.1429 H   0  0  0  0  0  0  0  0  0  0  0  0
   -4.3674    1.2037   -0.6839 H   0  0  0  0  0  0  0  0  0  0  0  0
   -6.6261    1.0375    0.3329 H   0  0  0  0  0  0  0  0  0  0  0  0
   -6.1106   -3.1806    0.8700 H   0  0  0  0  0  0  0  0  0  0  0  0
   -3.8509   -3.0539   -0.1468 H   0  0  0  0  0  0  0  0  0  0  0  0
    2.7055   -1.8283   -0.6110 H   0  0  0  0  0  0  0  0  0  0  0  0
    6.1671    0.0581    0.7601 H   0  0  0  0  0  0  0  0  0  0  0  0
    3.4750    3.3815    0.3519 H   0  0  0  0  0  0  0  0  0  0  0  0
  1  2  2  0
  2  3  1  0
  3  4  2  3
  4  5  1  0
  5  6  2  0
  6  7  1  0
  7  8  2  0
  8  9  1  0
  8 10  1  0
 10 11  2  0
  3 12  1  0
 12 13  1  0
 13 14  2  0
 13 15  1  0
 15 16  1  0
 16 17  1  0
 17 18  2  0
 18 19  1  0
 19 20  2  0
 20 21  1  0
 21 22  1  0
 21 23  1  0
 21 24  1  0
 20 25  1  0
 25 26  2  0
 26 27  1  0
 15  2  1  0
 26 17  1  0
 11  5  1  0
  4 28  1  0
  6 29  1  0
  7 30  1  0
 10 31  1  0
 11 32  1  0
 16 33  1  0
 19 34  1  0
 25 35  1  0
M  END
$$$$
