
     RDKit          3D

 43 45  0  0  0  0  0  0  0  0999 V2000
   -6.1274    0.1960    1.1786 C   0  0  0  0  0  0  0  0  0  0  0  0
   -4.9590    0.7557    0.8363 C   0  0  0  0  0  0  0  0  0  0  0  0
   -4.3536    0.6885   -0.5364 C   0  0  0  0  0  0  0  0  0  0  0  0
   -2.9891    0.1577   -0.5060 N   0  0  0  0  0  0  0  0  0  0  0  0
   -1.8296    0.9137   -0.4648 C   0  0  0  0  0  0  0  0  0  0  0  0
   -1.8478    2.4042   -0.3977 C   0  0  0  0  0  0  0  0  0  0  0  0
   -0.7662    0.0258   -0.4841 C   0  0  0  0  0  0  0  0  0  0  0  0
    0.6059    0.4291   -0.4563 C   0  0  0  0  0  0  0  0  0  0  0  0
    1.5568   -0.1589    0.2893 C   0  0  0  0  0  0  0  0  0  0  0  0
    2.9631    0.2563    0.3213 C   0  0  0  0  0  0  0  0  0  0  0  0
    3.9524   -0.7176    0.4478 C   0  0  0  0  0  0  0  0  0  0  0  0
    5.2897   -0.3415    0.5065 C   0  0  0  0  0  0  0  0  0  0  0  0
    5.6407    0.9623    0.4494 N   0  0  0  0  0  4  0  0  0  0  0  0
    7.0628    1.3377    0.5245 C   0  0  0  0  0  0  0  0  0  0  0  0
    4.6986    1.9264    0.3527 C   0  0  0  0  0  0  0  0  0  0  0  0
    3.3495    1.5954    0.2889 C   0  0  0  0  0  0  0  0  0  0  0  0
   -1.2901   -1.3013   -0.5563 C   0  0  0  0  0  0  0  0  0  0  0  0
   -0.7179   -2.5914   -0.6418 C   0  0  0  0  0  0  0  0  0  0  0  0
   -1.5408   -3.7212   -0.6898 C   0  0  0  0  0  0  0  0  0  0  0  0
   -2.9229   -3.5859   -0.6591 C   0  0  0  0  0  0  0  0  0  0  0  0
   -3.5171   -2.3235   -0.5916 C   0  0  0  0  0  0  0  0  0  0  0  0
   -2.6828   -1.1921   -0.5503 C   0  0  0  0  0  0  0  0  0  0  0  0
   -6.7305   -0.3594    0.4666 H   0  0  0  0  0  0  0  0  0  0  0  0
   -6.5073    0.2807    2.1930 H   0  0  0  0  0  0  0  0  0  0  0  0
   -4.3977    1.2997    1.5929 H   0  0  0  0  0  0  0  0  0  0  0  0
   -4.3203    1.6887   -0.9795 H   0  0  0  0  0  0  0  0  0  0  0  0
   -4.9380    0.0617   -1.2192 H   0  0  0  0  0  0  0  0  0  0  0  0
   -0.8565    2.8112   -0.1769 H   0  0  0  0  0  0  0  0  0  0  0  0
   -2.1763    2.8239   -1.3538 H   0  0  0  0  0  0  0  0  0  0  0  0
   -2.5218    2.7537    0.3906 H   0  0  0  0  0  0  0  0  0  0  0  0
    0.8563    1.2820   -1.0821 H   0  0  0  0  0  0  0  0  0  0  0  0
    1.2935   -1.0061    0.9212 H   0  0  0  0  0  0  0  0  0  0  0  0
    3.6905   -1.7734    0.4941 H   0  0  0  0  0  0  0  0  0  0  0  0
    6.0845   -1.0759    0.6022 H   0  0  0  0  0  0  0  0  0  0  0  0
    7.6670    0.5431    0.0792 H   0  0  0  0  0  0  0  0  0  0  0  0
    7.3107    1.4709    1.5804 H   0  0  0  0  0  0  0  0  0  0  0  0
    7.2185    2.2652   -0.0326 H   0  0  0  0  0  0  0  0  0  0  0  0
    5.0329    2.9600    0.3336 H   0  0  0  0  0  0  0  0  0  0  0  0
    2.6088    2.3903    0.2283 H   0  0  0  0  0  0  0  0  0  0  0  0
    0.3590   -2.7156   -0.6791 H   0  0  0  0  0  0  0  0  0  0  0  0
   -1.0969   -4.7114   -0.7537 H   0  0  0  0  0  0  0  0  0  0  0  0
   -3.5530   -4.4719   -0.6940 H   0  0  0  0  0  0  0  0  0  0  0  0
   -4.5987   -2.2332   -0.5722 H   0  0  0  0  0  0  0  0  0  0  0  0
  1  2  2  0
  2  3  1  0
  3  4  1  0
  4  5  1  0
  5  6  1  0
  5  7  2  0
  7  8  1  0
  8  9  2  3
  9 10  1  0
 10 11  2  0
 11 12  1  0
 12 13  2  0
 13 14  1  0
 13 15  1  0
 15 16  2  0
  7 17  1  0
 17 18  2  0
 18 19  1  0
 19 20  2  0
 20 21  1  0
 21 22  2  0
 22  4  1  0
 16 10  1  0
 22 17  1  0
  1 23  1  0
  1 24  1  0
  2 25  1  0
  3 26  1  0
  3 27  1  0
  6 28  1  0
  6 29  1  0
  6 30  1  0
  8 31  1  0
  9 32  1  0
 11 33  1  0
 12 34  1  0
 14 35  1  0
 14 36  1  0
 14 37  1  0
 15 38  1  0
 16 39  1  0
 18 40  1  0
 19 41  1  0
 20 42  1  0
 21 43  1  0
M  CHG  1  13   1
M  END
$$$$
