
     RDKit          3D

 71 72  0  0  0  0  0  0  0  0999 V2000
   -4.8419   -3.8293   -3.6613 C   0  0  0  0  0  0  0  0  0  0  0  0
   -3.6961   -3.0663   -3.3061 O   0  0  0  0  0  0  0  0  0  0  0  0
   -3.6790   -2.4846   -2.0648 C   0  0  0  0  0  0  0  0  0  0  0  0
   -4.7270   -2.5613   -1.1447 C   0  0  0  0  0  0  0  0  0  0  0  0
   -4.6391   -1.9038    0.0831 C   0  0  0  0  0  0  0  0  0  0  0  0
   -3.5087   -1.1532    0.4014 C   0  0  0  0  0  0  0  0  0  0  0  0
   -2.4363   -1.0507   -0.5006 C   0  0  0  0  0  0  0  0  0  0  0  0
   -1.1819   -0.2375   -0.1713 C   0  0  0  0  0  0  0  0  0  0  0  0
   -1.4555    0.9507    0.7999 C   0  0  0  0  0  0  0  0  0  0  0  0
   -1.3244    0.8691    2.0189 O   0  0  0  0  0  0  0  0  0  0  0  0
   -1.9149    2.0967    0.1659 N   0  0  0  0  0  0  0  0  0  0  0  0
   -2.3017    3.3381    0.8543 C   0  0  0  0  0  0  0  0  0  0  0  0
   -3.5223    3.1002    1.7570 C   0  0  0  0  0  0  0  0  0  0  0  0
   -1.1341    3.9074    1.6764 C   0  0  0  0  0  0  0  0  0  0  0  0
   -2.6819    4.3765   -0.2177 C   0  0  0  0  0  0  0  0  0  0  0  0
   -0.0433   -1.0820    0.2791 N   0  0  0  0  0  0  0  0  0  0  0  0
    1.2174   -1.0300   -0.3133 C   0  0  0  0  0  0  0  0  0  0  0  0
    2.1169   -1.8250   -0.0314 O   0  0  0  0  0  0  0  0  0  0  0  0
    1.4702    0.0411   -1.3675 C   0  0  0  0  0  0  0  0  0  0  0  0
    2.9553    0.1428   -1.7116 C   0  0  0  0  0  0  0  0  0  0  0  0
    3.7384    0.7978   -0.5858 C   0  0  0  0  0  0  0  0  0  0  0  0
    3.2115    1.5841    0.1960 O   0  0  0  0  0  0  0  0  0  0  0  0
    5.0731    0.4653   -0.6139 N   0  0  0  0  0  0  0  0  0  0  0  0
    6.0203    0.9123    0.2799 C   0  0  0  0  0  0  0  0  0  0  0  0
    5.8716    1.7677    1.3940 C   0  0  0  0  0  0  0  0  0  0  0  0
    7.1353    1.8737    1.9199 C   0  0  0  0  0  0  0  0  0  0  0  0
    7.7082    2.5863    3.0745 C   0  0  0  0  0  0  0  0  0  0  0  0
    7.9904    1.1259    1.1745 O   0  0  0  0  0  0  0  0  0  0  0  0
    7.2928    0.5211    0.1450 N   0  0  0  0  0  0  0  0  0  0  0  0
   -0.2535   -1.9619    1.4534 C   0  0  0  0  0  0  0  0  0  0  0  0
   -0.2474   -3.4453    1.0777 C   0  0  0  0  0  0  0  0  0  0  0  0
    0.7288   -1.6794    2.5971 C   0  0  0  0  0  0  0  0  0  0  0  0
   -2.5260   -1.7476   -1.7243 C   0  0  0  0  0  0  0  0  0  0  0  0
   -1.4640   -1.6125   -2.5901 O   0  0  0  0  0  0  0  0  0  0  0  0
   -0.8764   -2.8682   -2.9392 C   0  0  0  0  0  0  0  0  0  0  0  0
   -5.7386   -3.2015   -3.6973 H   0  0  0  0  0  0  0  0  0  0  0  0
   -4.9776   -4.6791   -2.9834 H   0  0  0  0  0  0  0  0  0  0  0  0
   -4.6769   -4.2308   -4.6655 H   0  0  0  0  0  0  0  0  0  0  0  0
   -5.6328   -3.1211   -1.3517 H   0  0  0  0  0  0  0  0  0  0  0  0
   -5.4583   -1.9749    0.7955 H   0  0  0  0  0  0  0  0  0  0  0  0
   -3.4746   -0.6585    1.3717 H   0  0  0  0  0  0  0  0  0  0  0  0
   -0.9040    0.2495   -1.1104 H   0  0  0  0  0  0  0  0  0  0  0  0
   -2.1639    2.0177   -0.8124 H   0  0  0  0  0  0  0  0  0  0  0  0
   -3.8618    4.0355    2.2160 H   0  0  0  0  0  0  0  0  0  0  0  0
   -3.3011    2.3989    2.5683 H   0  0  0  0  0  0  0  0  0  0  0  0
   -4.3582    2.6824    1.1851 H   0  0  0  0  0  0  0  0  0  0  0  0
   -1.3903    4.8836    2.1026 H   0  0  0  0  0  0  0  0  0  0  0  0
   -0.2401    4.0360    1.0551 H   0  0  0  0  0  0  0  0  0  0  0  0
   -0.8614    3.2551    2.5122 H   0  0  0  0  0  0  0  0  0  0  0  0
   -2.9801    5.3296    0.2340 H   0  0  0  0  0  0  0  0  0  0  0  0
   -1.8398    4.5732   -0.8927 H   0  0  0  0  0  0  0  0  0  0  0  0
   -3.5163    4.0213   -0.8335 H   0  0  0  0  0  0  0  0  0  0  0  0
    0.9255   -0.2418   -2.2740 H   0  0  0  0  0  0  0  0  0  0  0  0
    1.1005    1.0085   -1.0130 H   0  0  0  0  0  0  0  0  0  0  0  0
    3.3753   -0.8423   -1.9455 H   0  0  0  0  0  0  0  0  0  0  0  0
    3.0788    0.7753   -2.5989 H   0  0  0  0  0  0  0  0  0  0  0  0
    5.4316   -0.1799   -1.3048 H   0  0  0  0  0  0  0  0  0  0  0  0
    4.9754    2.2413    1.7657 H   0  0  0  0  0  0  0  0  0  0  0  0
    7.5768    1.9978    3.9875 H   0  0  0  0  0  0  0  0  0  0  0  0
    8.7784    2.7692    2.9364 H   0  0  0  0  0  0  0  0  0  0  0  0
    7.2158    3.5532    3.2144 H   0  0  0  0  0  0  0  0  0  0  0  0
   -1.2459   -1.7437    1.8608 H   0  0  0  0  0  0  0  0  0  0  0  0
    0.7248   -3.7739    0.6995 H   0  0  0  0  0  0  0  0  0  0  0  0
   -0.9919   -3.6566    0.3044 H   0  0  0  0  0  0  0  0  0  0  0  0
   -0.4906   -4.0613    1.9497 H   0  0  0  0  0  0  0  0  0  0  0  0
    0.4038   -2.1886    3.5116 H   0  0  0  0  0  0  0  0  0  0  0  0
    1.7410   -2.0303    2.3749 H   0  0  0  0  0  0  0  0  0  0  0  0
    0.7875   -0.6071    2.8109 H   0  0  0  0  0  0  0  0  0  0  0  0
   -1.2129   -3.1662   -3.9359 H   0  0  0  0  0  0  0  0  0  0  0  0
   -1.0807   -3.6622   -2.2119 H   0  0  0  0  0  0  0  0  0  0  0  0
    0.2075   -2.7270   -2.9819 H   0  0  0  0  0  0  0  0  0  0  0  0
  1  2  1  0
  2  3  1  0
  3  4  2  0
  4  5  1  0
  5  6  2  0
  6  7  1  0
  7  8  1  0
  8  9  1  0
  9 10  2  0
  9 11  1  0
 11 12  1  0
 12 13  1  0
 12 14  1  0
 12 15  1  0
  8 16  1  0
 16 17  1  0
 17 18  2  0
 17 19  1  0
 19 20  1  0
 20 21  1  0
 21 22  2  0
 21 23  1  0
 23 24  1  0
 24 25  1  0
 25 26  2  0
 26 27  1  0
 26 28  1  0
 28 29  1  0
 16 30  1  0
 30 31  1  0
 30 32  1  0
  7 33  2  0
 33 34  1  0
 34 35  1  0
 33  3  1  0
 29 24  2  0
  1 36  1  0
  1 37  1  0
  1 38  1  0
  4 39  1  0
  5 40  1  0
  6 41  1  0
  8 42  1  0
 11 43  1  0
 13 44  1  0
 13 45  1  0
 13 46  1  0
 14 47  1  0
 14 48  1  0
 14 49  1  0
 15 50  1  0
 15 51  1  0
 15 52  1  0
 19 53  1  0
 19 54  1  0
 20 55  1  0
 20 56  1  0
 23 57  1  0
 25 58  1  0
 27 59  1  0
 27 60  1  0
 27 61  1  0
 30 62  1  0
 31 63  1  0
 31 64  1  0
 31 65  1  0
 32 66  1  0
 32 67  1  0
 32 68  1  0
 35 69  1  0
 35 70  1  0
 35 71  1  0
M  END
$$$$
