
     RDKit          3D

 44 46  0  0  0  0  0  0  0  0999 V2000
   -3.4161   -0.2413    4.4029 C   0  0  0  0  0  0  0  0  0  0  0  0
   -2.9176   -0.5871    3.0256 C   0  0  0  0  0  0  0  0  0  0  0  0
   -2.2943   -1.8294    2.8134 C   0  0  0  0  0  0  0  0  0  0  0  0
   -1.8083   -2.2128    1.5509 C   0  0  0  0  0  0  0  0  0  0  0  0
   -1.1688   -3.5657    1.4127 C   0  0  0  0  0  0  0  0  0  0  0  0
   -1.9750   -1.3182    0.4809 C   0  0  0  0  0  0  0  0  0  0  0  0
   -1.4103   -1.6947   -1.1699 S   0  0  0  0  0  6  0  0  0  0  0  0
   -1.8613   -0.6582   -2.0749 O   0  0  0  0  0  0  0  0  0  0  0  0
   -1.7140   -3.0837   -1.4447 O   0  0  0  0  0  0  0  0  0  0  0  0
    0.2745   -1.5953   -1.0273 N   0  0  0  0  0  0  0  0  0  0  0  0
    0.8653   -0.3014   -1.0354 C   0  0  0  0  0  0  0  0  0  0  0  0
    0.9843    0.4097    0.1585 C   0  0  0  0  0  0  0  0  0  0  0  0
    1.5263    1.6940    0.1493 C   0  0  0  0  0  0  0  0  0  0  0  0
    1.9425    2.2577   -1.0536 C   0  0  0  0  0  0  0  0  0  0  0  0
    2.4660    3.5210   -0.9952 O   0  0  0  0  0  0  0  0  0  0  0  0
    1.8230    1.5547   -2.2602 C   0  0  0  0  0  0  0  0  0  0  0  0
    2.3286    2.2825   -3.8090 S   0  0  0  0  0  0  0  0  0  0  0  0
    3.9517    1.6693   -4.0189 C   0  0  0  0  0  0  0  0  0  0  0  0
    4.7097    1.9985   -5.1124 N   0  0  0  0  0  0  0  0  0  0  0  0
    5.8375    1.3641   -4.8986 C   0  0  0  0  0  0  0  0  0  0  0  0
    5.7609    0.6913   -3.7216 N   0  0  0  0  0  0  0  0  0  0  0  0
    4.5647    0.8671   -3.1406 N   0  0  0  0  0  0  0  0  0  0  0  0
    1.2676    0.2699   -2.2440 C   0  0  0  0  0  0  0  0  0  0  0  0
   -2.6106   -0.0811    0.6789 C   0  0  0  0  0  0  0  0  0  0  0  0
   -3.0852    0.2944    1.9435 C   0  0  0  0  0  0  0  0  0  0  0  0
   -3.7523    1.6323    2.1114 C   0  0  0  0  0  0  0  0  0  0  0  0
   -4.5099   -0.1952    4.4084 H   0  0  0  0  0  0  0  0  0  0  0  0
   -3.0079    0.7209    4.7281 H   0  0  0  0  0  0  0  0  0  0  0  0
   -3.1087   -0.9892    5.1411 H   0  0  0  0  0  0  0  0  0  0  0  0
   -2.1860   -2.5146    3.6538 H   0  0  0  0  0  0  0  0  0  0  0  0
   -1.8414   -4.2521    0.8899 H   0  0  0  0  0  0  0  0  0  0  0  0
   -0.2136   -3.5023    0.8847 H   0  0  0  0  0  0  0  0  0  0  0  0
   -0.9524   -4.0029    2.3937 H   0  0  0  0  0  0  0  0  0  0  0  0
    0.7205   -2.3176   -1.5921 H   0  0  0  0  0  0  0  0  0  0  0  0
    0.6682   -0.0287    1.1011 H   0  0  0  0  0  0  0  0  0  0  0  0
    1.6259    2.2536    1.0751 H   0  0  0  0  0  0  0  0  0  0  0  0
    2.7159    3.7667   -1.9044 H   0  0  0  0  0  0  0  0  0  0  0  0
    6.7107    1.3578   -5.5350 H   0  0  0  0  0  0  0  0  0  0  0  0
    6.4576    0.1122   -3.2656 H   0  0  0  0  0  0  0  0  0  0  0  0
    1.1422   -0.2799   -3.1733 H   0  0  0  0  0  0  0  0  0  0  0  0
   -2.7362    0.6019   -0.1610 H   0  0  0  0  0  0  0  0  0  0  0  0
   -3.1523    2.2746    2.7633 H   0  0  0  0  0  0  0  0  0  0  0  0
   -3.8685    2.1476    1.1518 H   0  0  0  0  0  0  0  0  0  0  0  0
   -4.7529    1.5100    2.5390 H   0  0  0  0  0  0  0  0  0  0  0  0
  1  2  1  0
  2  3  2  0
  3  4  1  0
  4  5  1  0
  4  6  2  0
  6  7  1  0
  7  8  2  0
  7  9  2  0
  7 10  1  0
 10 11  1  0
 11 12  2  0
 12 13  1  0
 13 14  2  0
 14 15  1  0
 14 16  1  0
 16 17  1  0
 17 18  1  0
 18 19  1  0
 19 20  2  0
 20 21  1  0
 21 22  1  0
 16 23  2  0
  6 24  1  0
 24 25  2  0
 25 26  1  0
 25  2  1  0
 23 11  1  0
 22 18  2  0
  1 27  1  0
  1 28  1  0
  1 29  1  0
  3 30  1  0
  5 31  1  0
  5 32  1  0
  5 33  1  0
 10 34  1  0
 12 35  1  0
 13 36  1  0
 15 37  1  0
 20 38  1  0
 21 39  1  0
 23 40  1  0
 24 41  1  0
 26 42  1  0
 26 43  1  0
 26 44  1  0
M  END
$$$$
