
     RDKit          3D

 42 44  0  0  0  0  0  0  0  0999 V2000
    0.3065    0.4352    2.3338 O   0  0  0  0  0  0  0  0  0  0  0  0
    0.7992    0.9299    1.3279 C   0  0  0  0  0  0  0  0  0  0  0  0
    1.7133    0.3599    0.4697 N   0  0  0  0  0  0  0  0  0  0  0  0
    2.2303   -0.9574    0.5132 C   0  0  0  0  0  0  0  0  0  0  0  0
    1.7142   -1.9479    1.3544 C   0  0  0  0  0  0  0  0  0  0  0  0
    2.2377   -3.2453    1.3323 C   0  0  0  0  0  0  0  0  0  0  0  0
    3.2840   -3.5685    0.4715 C   0  0  0  0  0  0  0  0  0  0  0  0
    3.8150   -2.5921   -0.3680 C   0  0  0  0  0  0  0  0  0  0  0  0
    3.2930   -1.2957   -0.3461 C   0  0  0  0  0  0  0  0  0  0  0  0
    4.0211   -0.1121   -1.3796 Cl  0  0  0  0  0  0  0  0  0  0  0  0
    0.4262    2.3195    0.9900 C   0  0  0  0  0  0  0  0  0  0  0  0
    0.7302    3.3084    1.9353 C   0  0  0  0  0  0  0  0  0  0  0  0
    0.4307    4.6448    1.6694 C   0  0  0  0  0  0  0  0  0  0  0  0
   -0.1738    4.9960    0.4629 C   0  0  0  0  0  0  0  0  0  0  0  0
   -0.4971    4.0105   -0.4719 C   0  0  0  0  0  0  0  0  0  0  0  0
   -0.2245    2.6651   -0.2027 C   0  0  0  0  0  0  0  0  0  0  0  0
   -0.5924    1.7784   -1.1886 O   0  0  0  0  0  0  0  0  0  0  0  0
   -1.3644    0.6885   -0.8509 C   0  0  0  0  0  0  0  0  0  0  0  0
   -2.3657    0.7618    0.1270 C   0  0  0  0  0  0  0  0  0  0  0  0
   -3.1373   -0.3626    0.4432 C   0  0  0  0  0  0  0  0  0  0  0  0
   -2.9407   -1.5811   -0.2225 C   0  0  0  0  0  0  0  0  0  0  0  0
   -3.7779   -2.7938    0.1105 C   0  0  0  0  0  0  0  0  0  0  0  0
   -4.7667   -2.9990   -0.8020 F   0  0  0  0  0  0  0  0  0  0  0  0
   -3.0469   -3.9422    0.1387 F   0  0  0  0  0  0  0  0  0  0  0  0
   -4.3940   -2.7111    1.3218 F   0  0  0  0  0  0  0  0  0  0  0  0
   -1.9726   -1.6465   -1.2365 C   0  0  0  0  0  0  0  0  0  0  0  0
   -1.1969   -0.5158   -1.5480 C   0  0  0  0  0  0  0  0  0  0  0  0
   -0.2256   -0.6298   -2.6353 N   0  0  0  0  0  4  0  0  0  0  0  0
   -0.5200   -1.3857   -3.5728 O   0  0  0  0  0  0  0  0  0  0  0  0
    0.8292    0.0125   -2.5562 O   0  0  0  0  0  1  0  0  0  0  0  0
    2.0950    0.9413   -0.2740 H   0  0  0  0  0  0  0  0  0  0  0  0
    0.8926   -1.7462    2.0350 H   0  0  0  0  0  0  0  0  0  0  0  0
    1.8226   -4.0040    1.9923 H   0  0  0  0  0  0  0  0  0  0  0  0
    3.6877   -4.5779    0.4585 H   0  0  0  0  0  0  0  0  0  0  0  0
    4.6367   -2.8435   -1.0335 H   0  0  0  0  0  0  0  0  0  0  0  0
    1.2067    3.0367    2.8754 H   0  0  0  0  0  0  0  0  0  0  0  0
    0.6743    5.4122    2.4007 H   0  0  0  0  0  0  0  0  0  0  0  0
   -0.3976    6.0392    0.2511 H   0  0  0  0  0  0  0  0  0  0  0  0
   -0.9731    4.2923   -1.4084 H   0  0  0  0  0  0  0  0  0  0  0  0
   -2.5580    1.6885    0.6646 H   0  0  0  0  0  0  0  0  0  0  0  0
   -3.8946   -0.2801    1.2236 H   0  0  0  0  0  0  0  0  0  0  0  0
   -1.8263   -2.5825   -1.7773 H   0  0  0  0  0  0  0  0  0  0  0  0
  1  2  2  0
  2  3  1  0
  3  4  1  0
  4  5  2  0
  5  6  1  0
  6  7  2  0
  7  8  1  0
  8  9  2  0
  9 10  1  0
  2 11  1  0
 11 12  2  0
 12 13  1  0
 13 14  2  0
 14 15  1  0
 15 16  2  0
 16 17  1  0
 17 18  1  0
 18 19  2  0
 19 20  1  0
 20 21  2  0
 21 22  1  0
 22 23  1  0
 22 24  1  0
 22 25  1  0
 21 26  1  0
 26 27  2  0
 27 28  1  0
 28 29  2  0
 28 30  1  0
  9  4  1  0
 16 11  1  0
 27 18  1  0
  3 31  1  0
  5 32  1  0
  6 33  1  0
  7 34  1  0
  8 35  1  0
 12 36  1  0
 13 37  1  0
 14 38  1  0
 15 39  1  0
 19 40  1  0
 20 41  1  0
 26 42  1  0
M  CHG  2  28   1  30  -1
M  END
$$$$
