
     RDKit          3D

 32 34  0  0  0  0  0  0  0  0999 V2000
   -0.2999    2.3600    1.0818 O   0  0  0  0  0  0  0  0  0  0  0  0
   -0.7760    1.2551    1.3216 C   0  0  0  0  0  0  0  0  0  0  0  0
   -2.2045    1.1257    1.8596 C   0  0  0  0  0  0  0  0  0  0  0  0
   -2.8592   -0.0765    1.4776 O   0  0  0  0  0  0  0  0  0  0  0  0
   -3.3893   -0.1575    0.2179 C   0  0  0  0  0  0  0  0  0  0  0  0
   -3.3003    0.8205   -0.7750 C   0  0  0  0  0  0  0  0  0  0  0  0
   -3.8826    0.6003   -2.0300 C   0  0  0  0  0  0  0  0  0  0  0  0
   -4.5513   -0.5954   -2.2936 C   0  0  0  0  0  0  0  0  0  0  0  0
   -5.3321   -0.8796   -3.9905 Br  0  0  0  0  0  0  0  0  0  0  0  0
   -4.6445   -1.5788   -1.3165 C   0  0  0  0  0  0  0  0  0  0  0  0
   -4.0627   -1.3511   -0.0733 C   0  0  0  0  0  0  0  0  0  0  0  0
   -4.1517   -2.3109    0.8603 F   0  0  0  0  0  0  0  0  0  0  0  0
   -0.1559    0.0329    1.1939 N   0  0  0  0  0  0  0  0  0  0  0  0
    1.1180   -0.2104    0.7509 C   0  0  0  0  0  0  0  0  0  0  0  0
    1.5924   -1.4306    0.6212 N   0  0  0  0  0  0  0  0  0  0  0  0
    2.8963   -1.4360    0.1624 N   0  0  0  0  0  0  0  0  0  0  0  0
    3.3439   -0.2143   -0.0219 C   0  0  0  0  0  0  0  0  0  0  0  0
    4.7845    0.0751   -0.5437 C   0  0  0  0  0  0  0  0  0  0  0  0
    5.8027    0.6755    0.3923 C   0  0  0  0  0  0  0  0  0  0  0  0
    5.9326   -0.7579   -0.0327 C   0  0  0  0  0  0  0  0  0  0  0  0
    2.2187    1.0212    0.3301 S   0  0  0  0  0  0  0  0  0  0  0  0
   -2.7970    2.0095    1.5967 H   0  0  0  0  0  0  0  0  0  0  0  0
   -2.1269    1.1160    2.9531 H   0  0  0  0  0  0  0  0  0  0  0  0
   -2.7866    1.7647   -0.6202 H   0  0  0  0  0  0  0  0  0  0  0  0
   -3.8062    1.3697   -2.7956 H   0  0  0  0  0  0  0  0  0  0  0  0
   -5.1567   -2.5175   -1.5001 H   0  0  0  0  0  0  0  0  0  0  0  0
   -0.6956   -0.8041    1.3862 H   0  0  0  0  0  0  0  0  0  0  0  0
    4.8223    0.3745   -1.5856 H   0  0  0  0  0  0  0  0  0  0  0  0
    6.5042    1.3931   -0.0172 H   0  0  0  0  0  0  0  0  0  0  0  0
    5.5188    0.8716    1.4202 H   0  0  0  0  0  0  0  0  0  0  0  0
    5.7253   -1.5292    0.7014 H   0  0  0  0  0  0  0  0  0  0  0  0
    6.7193   -1.0156   -0.7321 H   0  0  0  0  0  0  0  0  0  0  0  0
  1  2  2  0
  2  3  1  0
  3  4  1  0
  4  5  1  0
  5  6  2  0
  6  7  1  0
  7  8  2  0
  8  9  1  0
  8 10  1  0
 10 11  2  0
 11 12  1  0
  2 13  1  0
 13 14  1  0
 14 15  2  0
 15 16  1  0
 16 17  2  0
 17 18  1  0
 18 19  1  0
 19 20  1  0
 17 21  1  0
 11  5  1  0
 21 14  1  0
 20 18  1  0
  3 22  1  0
  3 23  1  0
  6 24  1  0
  7 25  1  0
 10 26  1  0
 13 27  1  0
 18 28  1  0
 19 29  1  0
 19 30  1  0
 20 31  1  0
 20 32  1  0
M  END
$$$$
