
     RDKit          3D

 48 51  0  0  0  0  0  0  0  0999 V2000
    6.7280    1.5095   -2.3798 C   0  0  0  0  0  0  0  0  0  0  0  0
    5.9261    0.5753   -1.5710 C   0  0  0  0  0  0  0  0  0  0  0  0
    4.5842    0.3158   -1.4480 C   0  0  0  0  0  0  0  0  0  0  0  0
    4.5016   -0.7279   -0.4828 C   0  0  0  0  0  0  0  0  0  0  0  0
    3.3135   -1.4127    0.0454 C   0  0  0  0  0  0  0  0  0  0  0  0
    3.3664   -2.4460    0.7076 O   0  0  0  0  0  0  0  0  0  0  0  0
    2.1070   -0.7990   -0.2449 N   0  0  0  0  0  0  0  0  0  0  0  0
    0.8682   -1.2973    0.3177 C   0  0  0  0  0  0  0  0  0  0  0  0
    0.7156   -0.8517    1.7923 C   0  0  0  0  0  0  0  0  0  0  0  0
   -0.7471   -0.9150    2.3223 C   0  0  0  0  0  0  0  0  0  0  0  0
   -0.7711   -0.4001    3.7741 C   0  0  0  0  0  0  0  0  0  0  0  0
   -1.2599   -2.3697    2.3258 C   0  0  0  0  0  0  0  0  0  0  0  0
   -1.6791   -0.0100    1.4555 C   0  0  0  0  0  0  0  0  0  0  0  0
   -1.3951   -0.1740   -0.0019 C   0  0  0  0  0  0  0  0  0  0  0  0
   -0.2542   -0.7709   -0.5097 C   0  0  0  0  0  0  0  0  0  0  0  0
   -0.4735   -0.8376   -1.8892 C   0  0  0  0  0  0  0  0  0  0  0  0
   -1.6289   -0.2841   -2.2449 N   0  0  0  0  0  0  0  0  0  0  0  0
   -2.1920    0.1718   -1.0869 N   0  0  0  0  0  0  0  0  0  0  0  0
   -3.4260    0.8924   -1.1604 C   0  0  0  0  0  0  0  0  0  0  0  0
   -4.1303    0.9004   -2.3818 C   0  0  0  0  0  0  0  0  0  0  0  0
   -5.3397    1.5891   -2.5073 C   0  0  0  0  0  0  0  0  0  0  0  0
   -5.8465    2.2806   -1.4177 C   0  0  0  0  0  0  0  0  0  0  0  0
   -7.0036    2.9444   -1.5334 F   0  0  0  0  0  0  0  0  0  0  0  0
   -5.1629    2.3006   -0.2090 C   0  0  0  0  0  0  0  0  0  0  0  0
   -3.9509    1.6113   -0.0783 C   0  0  0  0  0  0  0  0  0  0  0  0
    5.7337   -1.0650   -0.0646 N   0  0  0  0  0  0  0  0  0  0  0  0
    6.6151   -0.2480   -0.7417 O   0  0  0  0  0  0  0  0  0  0  0  0
    7.4159    0.9608   -3.0303 H   0  0  0  0  0  0  0  0  0  0  0  0
    6.0867    2.1326   -3.0108 H   0  0  0  0  0  0  0  0  0  0  0  0
    7.3150    2.1698   -1.7342 H   0  0  0  0  0  0  0  0  0  0  0  0
    3.7859    0.7990   -1.9898 H   0  0  0  0  0  0  0  0  0  0  0  0
    2.1106    0.1472   -0.5959 H   0  0  0  0  0  0  0  0  0  0  0  0
    0.8707   -2.3930    0.2655 H   0  0  0  0  0  0  0  0  0  0  0  0
    1.3767   -1.4586    2.4248 H   0  0  0  0  0  0  0  0  0  0  0  0
    1.0755    0.1831    1.8940 H   0  0  0  0  0  0  0  0  0  0  0  0
   -1.7887   -0.4115    4.1806 H   0  0  0  0  0  0  0  0  0  0  0  0
   -0.1435   -1.0201    4.4242 H   0  0  0  0  0  0  0  0  0  0  0  0
   -0.3992    0.6287    3.8370 H   0  0  0  0  0  0  0  0  0  0  0  0
   -2.2612   -2.4309    2.7674 H   0  0  0  0  0  0  0  0  0  0  0  0
   -1.3243   -2.7926    1.3186 H   0  0  0  0  0  0  0  0  0  0  0  0
   -0.5989   -3.0159    2.9144 H   0  0  0  0  0  0  0  0  0  0  0  0
   -1.5031    1.0403    1.7197 H   0  0  0  0  0  0  0  0  0  0  0  0
   -2.7234   -0.2533    1.6808 H   0  0  0  0  0  0  0  0  0  0  0  0
    0.1563   -1.2745   -2.6544 H   0  0  0  0  0  0  0  0  0  0  0  0
   -3.7519    0.3616   -3.2498 H   0  0  0  0  0  0  0  0  0  0  0  0
   -5.8826    1.5874   -3.4470 H   0  0  0  0  0  0  0  0  0  0  0  0
   -5.5728    2.8620    0.6253 H   0  0  0  0  0  0  0  0  0  0  0  0
   -3.4424    1.6958    0.8724 H   0  0  0  0  0  0  0  0  0  0  0  0
  1  2  1  0
  2  3  2  0
  3  4  1  0
  4  5  1  0
  5  6  2  0
  5  7  1  0
  7  8  1  0
  8  9  1  0
  9 10  1  0
 10 11  1  0
 10 12  1  0
 10 13  1  0
 13 14  1  0
 14 15  2  0
 15 16  1  0
 16 17  2  0
 17 18  1  0
 18 19  1  0
 19 20  2  0
 20 21  1  0
 21 22  2  0
 22 23  1  0
 22 24  1  0
 24 25  2  0
  4 26  2  0
 26 27  1  0
 27  2  1  0
 15  8  1  0
 25 19  1  0
 18 14  1  0
  1 28  1  0
  1 29  1  0
  1 30  1  0
  3 31  1  0
  7 32  1  0
  8 33  1  0
  9 34  1  0
  9 35  1  0
 11 36  1  0
 11 37  1  0
 11 38  1  0
 12 39  1  0
 12 40  1  0
 12 41  1  0
 13 42  1  0
 13 43  1  0
 16 44  1  0
 20 45  1  0
 21 46  1  0
 24 47  1  0
 25 48  1  0
M  END
$$$$
