
     RDKit          3D

 73 75  0  0  0  0  0  0  0  0999 V2000
   -3.6530    0.7505   -1.9729 C   0  0  0  0  0  0  0  0  0  0  0  0
   -2.9526    0.0507   -0.8138 C   0  0  0  0  0  0  0  0  0  0  0  0
   -1.7994   -0.8392   -1.3079 C   0  0  0  0  0  0  0  0  0  0  0  0
   -0.6512   -1.2158    0.0788 S   0  0  0  0  0  0  0  0  0  0  0  0
    0.5292    0.0561   -0.1552 C   0  0  0  0  0  0  0  0  0  0  0  0
    0.0699    1.2391   -0.3971 N   0  0  0  0  0  0  0  0  0  0  0  0
    0.9689    2.2905   -0.5746 C   0  0  0  0  0  0  0  0  0  0  0  0
    0.4661    3.5752   -0.7892 C   0  0  0  0  0  0  0  0  0  0  0  0
    1.3325    4.6606   -0.9681 C   0  0  0  0  0  0  0  0  0  0  0  0
    0.9107    5.9482   -1.1887 O   0  0  0  0  0  0  0  0  0  0  0  0
   -0.4300    6.2592   -0.8426 C   0  0  0  0  0  0  0  0  0  0  0  0
    2.7282    4.4519   -0.9559 C   0  0  0  0  0  0  0  0  0  0  0  0
    3.5076    5.5666   -1.1436 O   0  0  0  0  0  0  0  0  0  0  0  0
    4.9113    5.3783   -1.2636 C   0  0  0  0  0  0  0  0  0  0  0  0
    3.2297    3.1672   -0.7371 C   0  0  0  0  0  0  0  0  0  0  0  0
    2.3434    2.1001   -0.5444 C   0  0  0  0  0  0  0  0  0  0  0  0
    2.8358    0.7368   -0.2896 C   0  0  0  0  0  0  0  0  0  0  0  0
    4.0483    0.5368   -0.2631 O   0  0  0  0  0  0  0  0  0  0  0  0
    1.8785   -0.2565   -0.0803 N   0  0  0  0  0  0  0  0  0  0  0  0
    2.4148   -1.5903    0.2485 C   0  0  0  0  0  0  0  0  0  0  0  0
    2.9400   -1.7000    1.6927 C   0  0  0  0  0  0  0  0  0  0  0  0
    1.8562   -1.5472    2.7329 C   0  0  0  0  0  0  0  0  0  0  0  0
    1.1130   -2.6580    3.1520 C   0  0  0  0  0  0  0  0  0  0  0  0
    0.0791   -2.5023    4.0741 C   0  0  0  0  0  0  0  0  0  0  0  0
   -0.2309   -1.2319    4.5640 C   0  0  0  0  0  0  0  0  0  0  0  0
   -1.2421   -1.0853    5.4827 O   0  0  0  0  0  0  0  0  0  0  0  0
   -2.5120   -1.2790    4.8621 C   0  0  0  0  0  0  0  0  0  0  0  0
    0.5150   -0.1100    4.1780 C   0  0  0  0  0  0  0  0  0  0  0  0
    0.1393    1.0858    4.7316 O   0  0  0  0  0  0  0  0  0  0  0  0
    0.8456    2.2478    4.3175 C   0  0  0  0  0  0  0  0  0  0  0  0
    1.5591   -0.2788    3.2625 C   0  0  0  0  0  0  0  0  0  0  0  0
   -2.3046   -2.1831   -1.8626 C   0  0  0  0  0  0  0  0  0  0  0  0
   -3.4852   -2.5224   -1.8737 O   0  0  0  0  0  0  0  0  0  0  0  0
   -1.3096   -2.9796   -2.4000 N   0  0  0  0  0  0  0  0  0  0  0  0
   -1.5920   -4.3049   -2.9158 C   0  0  0  0  0  0  0  0  0  0  0  0
   -2.2307   -4.2832   -4.3069 C   0  0  0  0  0  0  0  0  0  0  0  0
   -2.2546   -5.5874   -4.8911 O   0  0  0  0  0  0  0  0  0  0  0  0
   -3.3440   -6.3764   -4.4302 C   0  0  0  0  0  0  0  0  0  0  0  0
   -4.0252    0.0380   -2.7122 H   0  0  0  0  0  0  0  0  0  0  0  0
   -2.9678    1.4371   -2.4810 H   0  0  0  0  0  0  0  0  0  0  0  0
   -4.5013    1.3398   -1.6046 H   0  0  0  0  0  0  0  0  0  0  0  0
   -3.6900   -0.5409   -0.2584 H   0  0  0  0  0  0  0  0  0  0  0  0
   -2.5968    0.8266   -0.1290 H   0  0  0  0  0  0  0  0  0  0  0  0
   -1.2454   -0.3494   -2.1192 H   0  0  0  0  0  0  0  0  0  0  0  0
   -0.6111    3.6984   -0.8190 H   0  0  0  0  0  0  0  0  0  0  0  0
   -0.5451    7.3457   -0.8969 H   0  0  0  0  0  0  0  0  0  0  0  0
   -0.6632    5.9486    0.1809 H   0  0  0  0  0  0  0  0  0  0  0  0
   -1.1296    5.8161   -1.5567 H   0  0  0  0  0  0  0  0  0  0  0  0
    5.1498    4.7165   -2.1036 H   0  0  0  0  0  0  0  0  0  0  0  0
    5.3625    6.3545   -1.4675 H   0  0  0  0  0  0  0  0  0  0  0  0
    5.3421    5.0017   -0.3294 H   0  0  0  0  0  0  0  0  0  0  0  0
    4.2971    2.9707   -0.7017 H   0  0  0  0  0  0  0  0  0  0  0  0
    1.6825   -2.3775    0.0518 H   0  0  0  0  0  0  0  0  0  0  0  0
    3.2510   -1.7899   -0.4350 H   0  0  0  0  0  0  0  0  0  0  0  0
    3.7259   -0.9587    1.8814 H   0  0  0  0  0  0  0  0  0  0  0  0
    3.4231   -2.6772    1.8231 H   0  0  0  0  0  0  0  0  0  0  0  0
    1.3312   -3.6508    2.7647 H   0  0  0  0  0  0  0  0  0  0  0  0
   -0.4806   -3.3701    4.4115 H   0  0  0  0  0  0  0  0  0  0  0  0
   -3.2780   -0.8766    5.5302 H   0  0  0  0  0  0  0  0  0  0  0  0
   -2.5861   -0.7494    3.9028 H   0  0  0  0  0  0  0  0  0  0  0  0
   -2.7118   -2.3481    4.7235 H   0  0  0  0  0  0  0  0  0  0  0  0
    0.4169    3.1050    4.8459 H   0  0  0  0  0  0  0  0  0  0  0  0
    0.7224    2.4239    3.2418 H   0  0  0  0  0  0  0  0  0  0  0  0
    1.9049    2.1856    4.5894 H   0  0  0  0  0  0  0  0  0  0  0  0
    2.1556    0.5677    2.9372 H   0  0  0  0  0  0  0  0  0  0  0  0
   -0.3430   -2.6921   -2.3067 H   0  0  0  0  0  0  0  0  0  0  0  0
   -0.6452   -4.8569   -2.9428 H   0  0  0  0  0  0  0  0  0  0  0  0
   -2.2432   -4.8230   -2.2024 H   0  0  0  0  0  0  0  0  0  0  0  0
   -1.6202   -3.6557   -4.9664 H   0  0  0  0  0  0  0  0  0  0  0  0
   -3.2351   -3.8425   -4.2941 H   0  0  0  0  0  0  0  0  0  0  0  0
   -3.2933   -6.5279   -3.3478 H   0  0  0  0  0  0  0  0  0  0  0  0
   -4.2945   -5.9056   -4.7002 H   0  0  0  0  0  0  0  0  0  0  0  0
   -3.2887   -7.3536   -4.9192 H   0  0  0  0  0  0  0  0  0  0  0  0
  1  2  1  0
  2  3  1  0
  3  4  1  0
  4  5  1  0
  5  6  2  0
  6  7  1  0
  7  8  2  0
  8  9  1  0
  9 10  1  0
 10 11  1  0
  9 12  2  0
 12 13  1  0
 13 14  1  0
 12 15  1  0
 15 16  2  0
 16 17  1  0
 17 18  2  0
 17 19  1  0
 19 20  1  0
 20 21  1  0
 21 22  1  0
 22 23  2  0
 23 24  1  0
 24 25  2  0
 25 26  1  0
 26 27  1  0
 25 28  1  0
 28 29  1  0
 29 30  1  0
 28 31  2  0
  3 32  1  0
 32 33  2  0
 32 34  1  0
 34 35  1  0
 35 36  1  0
 36 37  1  0
 37 38  1  0
 19  5  1  0
 31 22  1  0
 16  7  1  0
  1 39  1  0
  1 40  1  0
  1 41  1  0
  2 42  1  0
  2 43  1  0
  3 44  1  0
  8 45  1  0
 11 46  1  0
 11 47  1  0
 11 48  1  0
 14 49  1  0
 14 50  1  0
 14 51  1  0
 15 52  1  0
 20 53  1  0
 20 54  1  0
 21 55  1  0
 21 56  1  0
 23 57  1  0
 24 58  1  0
 27 59  1  0
 27 60  1  0
 27 61  1  0
 30 62  1  0
 30 63  1  0
 30 64  1  0
 31 65  1  0
 34 66  1  0
 35 67  1  0
 35 68  1  0
 36 69  1  0
 36 70  1  0
 38 71  1  0
 38 72  1  0
 38 73  1  0
M  END
$$$$
