
     RDKit          3D

 43 45  0  0  0  0  0  0  0  0999 V2000
   -0.4916   -3.6509    0.3826 C   0  0  0  0  0  0  0  0  0  0  0  0
   -0.6961   -2.1664    0.3956 C   0  0  0  0  0  0  0  0  0  0  0  0
    0.2622   -1.3400    0.9394 C   0  0  0  0  0  0  0  0  0  0  0  0
   -0.0001    0.0147    0.9264 C   0  0  0  0  0  0  0  0  0  0  0  0
    0.9364    0.9527    1.4274 N   0  0  0  0  0  0  0  0  0  0  0  0
    1.5740    0.6173    2.5869 N   0  0  0  0  0  0  0  0  0  0  0  0
    2.8723    0.5549    2.5352 C   0  0  0  0  0  0  0  0  0  0  0  0
    3.7532    0.8733    1.3914 C   0  0  0  0  0  0  0  0  0  0  0  0
    3.6235    2.1103    0.7481 C   0  0  0  0  0  0  0  0  0  0  0  0
    4.4971    2.4620   -0.2857 C   0  0  0  0  0  0  0  0  0  0  0  0
    5.5161    1.5911   -0.6759 C   0  0  0  0  0  0  0  0  0  0  0  0
    5.6654    0.3611   -0.0358 C   0  0  0  0  0  0  0  0  0  0  0  0
    4.7796    0.0124    0.9941 C   0  0  0  0  0  0  0  0  0  0  0  0
    4.9436   -1.2864    1.6181 N   0  0  0  0  0  4  0  0  0  0  0  0
    6.0799   -1.5809    2.0109 O   0  0  0  0  0  0  0  0  0  0  0  0
    3.9448   -2.0123    1.7020 O   0  0  0  0  0  1  0  0  0  0  0  0
   -1.1185    0.5214    0.3882 N   0  0  0  0  0  0  0  0  0  0  0  0
   -2.0139   -0.3498   -0.1268 C   0  0  0  0  0  0  0  0  0  0  0  0
   -3.2267    0.1921   -0.6994 N   0  0  0  0  0  0  0  0  0  0  0  0
   -3.4462    1.5449   -0.7215 N   0  0  0  0  0  0  0  0  0  0  0  0
   -4.6349    1.7021   -1.3055 C   0  0  0  0  0  0  0  0  0  0  0  0
   -5.1953    3.0613   -1.4937 C   0  0  0  0  0  0  0  0  0  0  0  0
   -5.2039    0.4709   -1.6739 C   0  0  0  0  0  0  0  0  0  0  0  0
   -4.2949   -0.4899   -1.2823 C   0  0  0  0  0  0  0  0  0  0  0  0
   -4.3788   -1.9656   -1.4216 C   0  0  0  0  0  0  0  0  0  0  0  0
   -1.8363   -1.6899   -0.1404 N   0  0  0  0  0  0  0  0  0  0  0  0
    0.4073   -3.9043   -0.1880 H   0  0  0  0  0  0  0  0  0  0  0  0
   -1.3441   -4.1572   -0.0817 H   0  0  0  0  0  0  0  0  0  0  0  0
   -0.3873   -4.0277    1.4049 H   0  0  0  0  0  0  0  0  0  0  0  0
    1.1756   -1.7331    1.3658 H   0  0  0  0  0  0  0  0  0  0  0  0
    0.3805    1.8133    1.4698 H   0  0  0  0  0  0  0  0  0  0  0  0
    3.3845    0.2090    3.4503 H   0  0  0  0  0  0  0  0  0  0  0  0
    2.8505    2.8128    1.0528 H   0  0  0  0  0  0  0  0  0  0  0  0
    4.3841    3.4231   -0.7843 H   0  0  0  0  0  0  0  0  0  0  0  0
    6.1930    1.8741   -1.4797 H   0  0  0  0  0  0  0  0  0  0  0  0
    6.4613   -0.3139   -0.3447 H   0  0  0  0  0  0  0  0  0  0  0  0
   -4.5306    3.6681   -2.1170 H   0  0  0  0  0  0  0  0  0  0  0  0
   -5.3198    3.5627   -0.5285 H   0  0  0  0  0  0  0  0  0  0  0  0
   -6.1740    3.0208   -1.9826 H   0  0  0  0  0  0  0  0  0  0  0  0
   -6.1541    0.3004   -2.1610 H   0  0  0  0  0  0  0  0  0  0  0  0
   -5.3178   -2.2527   -1.9076 H   0  0  0  0  0  0  0  0  0  0  0  0
   -4.3573   -2.4561   -0.4436 H   0  0  0  0  0  0  0  0  0  0  0  0
   -3.5629   -2.3501   -2.0414 H   0  0  0  0  0  0  0  0  0  0  0  0
  1  2  1  0
  2  3  2  0
  3  4  1  0
  4  5  1  0
  5  6  1  0
  6  7  2  3
  7  8  1  0
  8  9  2  0
  9 10  1  0
 10 11  2  0
 11 12  1  0
 12 13  2  0
 13 14  1  0
 14 15  2  0
 14 16  1  0
  4 17  2  0
 17 18  1  0
 18 19  1  0
 19 20  1  0
 20 21  2  0
 21 22  1  0
 21 23  1  0
 23 24  2  0
 24 25  1  0
 18 26  2  0
 26  2  1  0
 13  8  1  0
 24 19  1  0
  1 27  1  0
  1 28  1  0
  1 29  1  0
  3 30  1  0
  5 31  1  0
  7 32  1  0
  9 33  1  0
 10 34  1  0
 11 35  1  0
 12 36  1  0
 22 37  1  0
 22 38  1  0
 22 39  1  0
 23 40  1  0
 25 41  1  0
 25 42  1  0
 25 43  1  0
M  CHG  2  14   1  16  -1
M  END
$$$$
