
     RDKit          3D

 55 58  0  0  0  0  0  0  0  0999 V2000
    4.3208   -3.2914   -2.3297 C   0  0  0  0  0  0  0  0  0  0  0  0
    3.9347   -3.5507   -0.8857 C   0  0  0  0  0  0  0  0  0  0  0  0
    4.3428   -2.4496   -0.0592 O   0  0  0  0  0  0  0  0  0  0  0  0
    3.4674   -1.4182    0.0328 C   0  0  0  0  0  0  0  0  0  0  0  0
    2.3821   -1.3552   -0.5285 O   0  0  0  0  0  0  0  0  0  0  0  0
    3.9948   -0.3333    0.9172 C   0  0  0  0  0  0  0  0  0  0  0  0
    5.2506   -0.4804    1.5367 C   0  0  0  0  0  0  0  0  0  0  0  0
    5.7563    0.5212    2.3635 C   0  0  0  0  0  0  0  0  0  0  0  0
    5.0148    1.6762    2.5793 C   0  0  0  0  0  0  0  0  0  0  0  0
    3.7663    1.8365    1.9711 C   0  0  0  0  0  0  0  0  0  0  0  0
    3.2368    0.8443    1.1356 C   0  0  0  0  0  0  0  0  0  0  0  0
    1.9723    0.9905    0.5106 N   0  0  0  0  0  0  0  0  0  0  0  0
    1.0952    2.0494    0.5853 C   0  0  0  0  0  0  0  0  0  0  0  0
    1.2211    3.0952    1.2066 O   0  0  0  0  0  0  0  0  0  0  0  0
   -0.1281    1.8081   -0.2250 C   0  0  0  0  0  0  0  0  0  0  0  0
   -1.1289    1.1652    0.3920 C   0  0  0  0  0  0  0  0  0  0  0  0
   -2.3308    0.8220   -0.2288 N   0  0  0  0  0  0  0  0  0  0  0  0
   -3.3659    0.1301    0.5135 C   0  0  0  0  0  0  0  0  0  0  0  0
   -4.2654   -0.7481   -0.1086 C   0  0  0  0  0  0  0  0  0  0  0  0
   -5.2543   -1.4292    0.6188 C   0  0  0  0  0  0  0  0  0  0  0  0
   -5.3669   -1.2467    1.9930 C   0  0  0  0  0  0  0  0  0  0  0  0
   -6.2793   -1.8443    2.8160 O   0  0  0  0  0  0  0  0  0  0  0  0
   -7.2346   -2.6988    2.1996 C   0  0  0  0  0  0  0  0  0  0  0  0
   -4.4815   -0.3799    2.6291 C   0  0  0  0  0  0  0  0  0  0  0  0
   -3.4948    0.2989    1.9022 C   0  0  0  0  0  0  0  0  0  0  0  0
   -2.5451    1.1613   -1.5913 C   0  0  0  0  0  0  0  0  0  0  0  0
   -3.5732    0.9520   -2.2344 O   0  0  0  0  0  0  0  0  0  0  0  0
   -1.4424    1.8755   -2.3012 C   0  0  0  0  0  0  0  0  0  0  0  0
   -1.6015    2.2285   -3.6505 C   0  0  0  0  0  0  0  0  0  0  0  0
   -0.5880    2.9099   -4.3231 C   0  0  0  0  0  0  0  0  0  0  0  0
    0.5847    3.2444   -3.6515 C   0  0  0  0  0  0  0  0  0  0  0  0
    0.7475    2.8952   -2.3086 C   0  0  0  0  0  0  0  0  0  0  0  0
   -0.2638    2.2046   -1.6232 C   0  0  0  0  0  0  0  0  0  0  0  0
    5.3954   -3.0982   -2.4114 H   0  0  0  0  0  0  0  0  0  0  0  0
    3.8077   -2.4073   -2.7211 H   0  0  0  0  0  0  0  0  0  0  0  0
    4.0673   -4.1493   -2.9589 H   0  0  0  0  0  0  0  0  0  0  0  0
    2.8609   -3.7465   -0.7858 H   0  0  0  0  0  0  0  0  0  0  0  0
    4.4595   -4.4383   -0.5175 H   0  0  0  0  0  0  0  0  0  0  0  0
    5.8511   -1.3744    1.3852 H   0  0  0  0  0  0  0  0  0  0  0  0
    6.7269    0.3998    2.8385 H   0  0  0  0  0  0  0  0  0  0  0  0
    5.4035    2.4616    3.2240 H   0  0  0  0  0  0  0  0  0  0  0  0
    3.2294    2.7583    2.1753 H   0  0  0  0  0  0  0  0  0  0  0  0
    1.6885    0.2028   -0.0783 H   0  0  0  0  0  0  0  0  0  0  0  0
   -0.9990    0.8487    1.4231 H   0  0  0  0  0  0  0  0  0  0  0  0
   -4.2037   -0.9555   -1.1738 H   0  0  0  0  0  0  0  0  0  0  0  0
   -5.9125   -2.0964    0.0722 H   0  0  0  0  0  0  0  0  0  0  0  0
   -7.8480   -2.1505    1.4769 H   0  0  0  0  0  0  0  0  0  0  0  0
   -6.7482   -3.5615    1.7325 H   0  0  0  0  0  0  0  0  0  0  0  0
   -7.8999   -3.0757    2.9824 H   0  0  0  0  0  0  0  0  0  0  0  0
   -4.5649   -0.2183    3.7013 H   0  0  0  0  0  0  0  0  0  0  0  0
   -2.8676    0.9959    2.4505 H   0  0  0  0  0  0  0  0  0  0  0  0
   -2.5191    1.9770   -4.1792 H   0  0  0  0  0  0  0  0  0  0  0  0
   -0.7173    3.1836   -5.3674 H   0  0  0  0  0  0  0  0  0  0  0  0
    1.3742    3.7822   -4.1716 H   0  0  0  0  0  0  0  0  0  0  0  0
    1.6721    3.1787   -1.8086 H   0  0  0  0  0  0  0  0  0  0  0  0
  1  2  1  0
  2  3  1  0
  3  4  1  0
  4  5  2  0
  4  6  1  0
  6  7  2  0
  7  8  1  0
  8  9  2  0
  9 10  1  0
 10 11  2  0
 11 12  1  0
 12 13  1  0
 13 14  2  0
 13 15  1  0
 15 16  2  0
 16 17  1  0
 17 18  1  0
 18 19  2  0
 19 20  1  0
 20 21  2  0
 21 22  1  0
 22 23  1  0
 21 24  1  0
 24 25  2  0
 17 26  1  0
 26 27  2  0
 26 28  1  0
 28 29  2  0
 29 30  1  0
 30 31  2  0
 31 32  1  0
 32 33  2  0
 11  6  1  0
 33 15  1  0
 25 18  1  0
 33 28  1  0
  1 34  1  0
  1 35  1  0
  1 36  1  0
  2 37  1  0
  2 38  1  0
  7 39  1  0
  8 40  1  0
  9 41  1  0
 10 42  1  0
 12 43  1  0
 16 44  1  0
 19 45  1  0
 20 46  1  0
 23 47  1  0
 23 48  1  0
 23 49  1  0
 24 50  1  0
 25 51  1  0
 29 52  1  0
 30 53  1  0
 31 54  1  0
 32 55  1  0
M  END
$$$$
