
     RDKit          3D

 45 47  0  0  0  0  0  0  0  0999 V2000
   -4.2150   -1.2512    0.3805 O   0  0  0  0  0  0  0  0  0  0  0  0
   -3.3623   -0.3657    0.3313 C   0  0  0  0  0  0  0  0  0  0  0  0
   -3.6230    0.9927   -0.3092 C   0  0  0  0  0  0  0  0  0  0  0  0
   -5.0182    1.1669   -0.8644 C   0  0  0  0  0  0  0  0  0  0  0  0
   -5.3049    0.8117   -2.1907 C   0  0  0  0  0  0  0  0  0  0  0  0
   -6.5971    0.9621   -2.6995 C   0  0  0  0  0  0  0  0  0  0  0  0
   -7.6089    1.4624   -1.8834 C   0  0  0  0  0  0  0  0  0  0  0  0
   -9.2004    1.6482   -2.5111 Cl  0  0  0  0  0  0  0  0  0  0  0  0
   -7.3411    1.8111   -0.5617 C   0  0  0  0  0  0  0  0  0  0  0  0
   -6.0494    1.6611   -0.0519 C   0  0  0  0  0  0  0  0  0  0  0  0
   -2.0272   -0.5902    0.9000 C   0  0  0  0  0  0  0  0  0  0  0  0
   -1.6287   -1.7515    1.5358 C   0  0  0  0  0  0  0  0  0  0  0  0
   -0.3341   -1.6048    1.9528 N   0  0  0  0  0  0  0  0  0  0  0  0
    0.1502   -0.3730    1.5735 C   0  0  0  0  0  0  0  0  0  0  0  0
    1.4751    0.1503    1.8336 C   0  0  0  0  0  0  0  0  0  0  0  0
    1.7345    1.3483    1.8032 O   0  0  0  0  0  0  0  0  0  0  0  0
    2.4429   -0.8029    2.0808 N   0  0  0  0  0  0  0  0  0  0  0  0
    3.8199   -0.4313    2.3408 C   0  0  0  0  0  0  0  0  0  0  0  0
    4.5804    0.0109    1.0918 C   0  0  0  0  0  0  0  0  0  0  0  0
    4.6818   -1.1003    0.0512 C   0  0  0  0  0  0  0  0  0  0  0  0
    5.4848   -0.7100   -1.0896 N   0  0  0  0  0  0  0  0  0  0  0  0
    6.8113   -0.9773   -1.2756 C   0  0  0  0  0  0  0  0  0  0  0  0
    7.1110   -0.4337   -2.5033 C   0  0  0  0  0  0  0  0  0  0  0  0
    6.0020    0.1479   -3.0617 N   0  0  0  0  0  0  0  0  0  0  0  0
    5.0380   -0.0325   -2.1872 C   0  0  0  0  0  0  0  0  0  0  0  0
   -0.8997    0.2784    0.9415 C   0  0  0  0  0  0  0  0  0  0  0  0
   -2.8967    1.1425   -1.1177 H   0  0  0  0  0  0  0  0  0  0  0  0
   -3.4388    1.7734    0.4394 H   0  0  0  0  0  0  0  0  0  0  0  0
   -4.5268    0.4088   -2.8356 H   0  0  0  0  0  0  0  0  0  0  0  0
   -6.8075    0.6824   -3.7281 H   0  0  0  0  0  0  0  0  0  0  0  0
   -8.1321    2.1936    0.0776 H   0  0  0  0  0  0  0  0  0  0  0  0
   -5.8566    1.9262    0.9855 H   0  0  0  0  0  0  0  0  0  0  0  0
   -2.1783   -2.6634    1.7373 H   0  0  0  0  0  0  0  0  0  0  0  0
    0.1729   -2.2892    2.4976 H   0  0  0  0  0  0  0  0  0  0  0  0
    2.2326   -1.7760    1.9201 H   0  0  0  0  0  0  0  0  0  0  0  0
    4.3072   -1.2972    2.8012 H   0  0  0  0  0  0  0  0  0  0  0  0
    3.8218    0.3832    3.0741 H   0  0  0  0  0  0  0  0  0  0  0  0
    5.5880    0.3265    1.3908 H   0  0  0  0  0  0  0  0  0  0  0  0
    4.1014    0.8905    0.6452 H   0  0  0  0  0  0  0  0  0  0  0  0
    3.6934   -1.3815   -0.3297 H   0  0  0  0  0  0  0  0  0  0  0  0
    5.1385   -1.9986    0.4828 H   0  0  0  0  0  0  0  0  0  0  0  0
    7.4140   -1.5087   -0.5529 H   0  0  0  0  0  0  0  0  0  0  0  0
    8.0644   -0.4312   -3.0155 H   0  0  0  0  0  0  0  0  0  0  0  0
    4.0153    0.3043   -2.2988 H   0  0  0  0  0  0  0  0  0  0  0  0
   -0.8344    1.2870    0.5485 H   0  0  0  0  0  0  0  0  0  0  0  0
  1  2  2  0
  2  3  1  0
  3  4  1  0
  4  5  2  0
  5  6  1  0
  6  7  2  0
  7  8  1  0
  7  9  1  0
  9 10  2  0
  2 11  1  0
 11 12  2  0
 12 13  1  0
 13 14  1  0
 14 15  1  0
 15 16  2  0
 15 17  1  0
 17 18  1  0
 18 19  1  0
 19 20  1  0
 20 21  1  0
 21 22  1  0
 22 23  2  0
 23 24  1  0
 24 25  2  0
 14 26  2  0
 10  4  1  0
 26 11  1  0
 25 21  1  0
  3 27  1  0
  3 28  1  0
  5 29  1  0
  6 30  1  0
  9 31  1  0
 10 32  1  0
 12 33  1  0
 13 34  1  0
 17 35  1  0
 18 36  1  0
 18 37  1  0
 19 38  1  0
 19 39  1  0
 20 40  1  0
 20 41  1  0
 22 42  1  0
 23 43  1  0
 25 44  1  0
 26 45  1  0
M  END
$$$$
