
     RDKit          3D

 60 62  0  0  0  0  0  0  0  0999 V2000
   -8.6003   -0.7746   -2.0626 C   0  0  0  0  0  0  0  0  0  0  0  0
   -8.0459   -1.8549   -1.1452 C   0  0  0  0  0  0  0  0  0  0  0  0
   -6.6027   -1.6061   -0.7911 C   0  0  0  0  0  0  0  0  0  0  0  0
   -5.5763   -2.2687   -1.4715 C   0  0  0  0  0  0  0  0  0  0  0  0
   -4.2383   -2.0180   -1.1516 C   0  0  0  0  0  0  0  0  0  0  0  0
   -3.8999   -1.0960   -0.1521 C   0  0  0  0  0  0  0  0  0  0  0  0
   -2.5268   -0.9033    0.1056 N   0  0  0  0  0  0  0  0  0  0  0  0
   -1.9521    0.0171    0.9669 C   0  0  0  0  0  0  0  0  0  0  0  0
   -2.5430    0.8499    1.6532 O   0  0  0  0  0  0  0  0  0  0  0  0
   -0.4164   -0.1048    1.0467 C   0  0  0  0  0  0  0  0  0  0  0  0
    0.1410    1.2207    1.4089 N   0  0  0  0  0  0  0  0  0  0  0  0
    0.4828    2.2700    0.1361 S   0  0  0  0  0  6  0  0  0  0  0  0
    0.4413    3.6127    0.6695 O   0  0  0  0  0  0  0  0  0  0  0  0
   -0.2959    1.8658   -1.0144 O   0  0  0  0  0  0  0  0  0  0  0  0
    2.1881    1.8727   -0.1723 C   0  0  0  0  0  0  0  0  0  0  0  0
    2.5348    1.0903   -1.2842 C   0  0  0  0  0  0  0  0  0  0  0  0
    3.8766    0.7656   -1.5301 C   0  0  0  0  0  0  0  0  0  0  0  0
    4.8545    1.2350   -0.6660 C   0  0  0  0  0  0  0  0  0  0  0  0
    4.4903    2.0315    0.4285 C   0  0  0  0  0  0  0  0  0  0  0  0
    3.1674    2.3611    0.6938 C   0  0  0  0  0  0  0  0  0  0  0  0
    5.6783    2.4315    1.2436 C   0  0  0  0  0  0  0  0  0  0  0  0
    6.8308    1.8610    0.4176 C   0  0  0  0  0  0  0  0  0  0  0  0
    6.2520    1.0669   -0.6772 N   0  0  0  0  0  0  0  0  0  0  0  0
    7.1017    0.3672   -1.5069 C   0  0  0  0  0  0  0  0  0  0  0  0
    6.5386   -0.4706   -2.6197 C   0  0  0  0  0  0  0  0  0  0  0  0
    8.3275    0.4073   -1.3498 O   0  0  0  0  0  0  0  0  0  0  0  0
    0.0085   -1.1818    2.0708 C   0  0  0  0  0  0  0  0  0  0  0  0
   -0.3455   -0.8313    3.5209 C   0  0  0  0  0  0  0  0  0  0  0  0
    1.5092   -1.4754    1.9610 C   0  0  0  0  0  0  0  0  0  0  0  0
   -4.9241   -0.4349    0.5266 C   0  0  0  0  0  0  0  0  0  0  0  0
   -6.2640   -0.6868    0.2089 C   0  0  0  0  0  0  0  0  0  0  0  0
   -8.0299   -0.7144   -2.9952 H   0  0  0  0  0  0  0  0  0  0  0  0
   -9.6432   -0.9907   -2.3148 H   0  0  0  0  0  0  0  0  0  0  0  0
   -8.5670    0.2103   -1.5841 H   0  0  0  0  0  0  0  0  0  0  0  0
   -8.1468   -2.8338   -1.6309 H   0  0  0  0  0  0  0  0  0  0  0  0
   -8.6433   -1.9079   -0.2253 H   0  0  0  0  0  0  0  0  0  0  0  0
   -5.8100   -2.9814   -2.2603 H   0  0  0  0  0  0  0  0  0  0  0  0
   -3.4688   -2.5494   -1.7047 H   0  0  0  0  0  0  0  0  0  0  0  0
   -1.8992   -1.4500   -0.4695 H   0  0  0  0  0  0  0  0  0  0  0  0
   -0.0342   -0.4110    0.0637 H   0  0  0  0  0  0  0  0  0  0  0  0
   -0.4030    1.7129    2.1276 H   0  0  0  0  0  0  0  0  0  0  0  0
    1.7667    0.7323   -1.9677 H   0  0  0  0  0  0  0  0  0  0  0  0
    4.0945    0.1656   -2.4020 H   0  0  0  0  0  0  0  0  0  0  0  0
    2.9039    2.9760    1.5503 H   0  0  0  0  0  0  0  0  0  0  0  0
    5.7586    3.5189    1.3449 H   0  0  0  0  0  0  0  0  0  0  0  0
    5.6394    1.9697    2.2363 H   0  0  0  0  0  0  0  0  0  0  0  0
    7.4403    2.6612   -0.0216 H   0  0  0  0  0  0  0  0  0  0  0  0
    7.4916    1.2309    1.0248 H   0  0  0  0  0  0  0  0  0  0  0  0
    6.0765    0.1672   -3.3764 H   0  0  0  0  0  0  0  0  0  0  0  0
    7.3545   -1.0194   -3.1024 H   0  0  0  0  0  0  0  0  0  0  0  0
    5.8381   -1.2121   -2.2264 H   0  0  0  0  0  0  0  0  0  0  0  0
   -0.5220   -2.1116    1.8251 H   0  0  0  0  0  0  0  0  0  0  0  0
   -1.4188   -0.6526    3.6383 H   0  0  0  0  0  0  0  0  0  0  0  0
    0.1897    0.0593    3.8684 H   0  0  0  0  0  0  0  0  0  0  0  0
   -0.0776   -1.6585    4.1893 H   0  0  0  0  0  0  0  0  0  0  0  0
    1.7758   -1.7687    0.9397 H   0  0  0  0  0  0  0  0  0  0  0  0
    2.1122   -0.6030    2.2332 H   0  0  0  0  0  0  0  0  0  0  0  0
    1.7923   -2.2987    2.6266 H   0  0  0  0  0  0  0  0  0  0  0  0
   -4.7197    0.2887    1.3106 H   0  0  0  0  0  0  0  0  0  0  0  0
   -7.0425   -0.1492    0.7481 H   0  0  0  0  0  0  0  0  0  0  0  0
  1  2  1  0
  2  3  1  0
  3  4  2  0
  4  5  1  0
  5  6  2  0
  6  7  1  0
  7  8  1  0
  8  9  2  0
  8 10  1  0
 10 11  1  0
 11 12  1  0
 12 13  2  0
 12 14  2  0
 12 15  1  0
 15 16  2  0
 16 17  1  0
 17 18  2  0
 18 19  1  0
 19 20  2  0
 19 21  1  0
 21 22  1  0
 22 23  1  0
 23 24  1  0
 24 25  1  0
 24 26  2  0
 10 27  1  0
 27 28  1  0
 27 29  1  0
  6 30  1  0
 30 31  2  0
 31  3  1  0
 20 15  1  0
 23 18  1  0
  1 32  1  0
  1 33  1  0
  1 34  1  0
  2 35  1  0
  2 36  1  0
  4 37  1  0
  5 38  1  0
  7 39  1  0
 10 40  1  0
 11 41  1  0
 16 42  1  0
 17 43  1  0
 20 44  1  0
 21 45  1  0
 21 46  1  0
 22 47  1  0
 22 48  1  0
 25 49  1  0
 25 50  1  0
 25 51  1  0
 27 52  1  0
 28 53  1  0
 28 54  1  0
 28 55  1  0
 29 56  1  0
 29 57  1  0
 29 58  1  0
 30 59  1  0
 31 60  1  0
M  END
$$$$
