
     RDKit          3D

 39 40  0  0  0  0  0  0  0  0999 V2000
   -1.9340    0.8699   -2.2656 O   0  0  0  0  0  0  0  0  0  0  0  0
   -1.4959   -0.1330   -1.7027 C   0  0  0  0  0  0  0  0  0  0  0  0
   -2.3428   -1.3490   -1.5403 C   0  0  0  0  0  0  0  0  0  0  0  0
   -3.6153   -1.3290   -1.1168 C   0  0  0  0  0  0  0  0  0  0  0  0
   -4.3509   -0.1365   -0.6949 C   0  0  0  0  0  0  0  0  0  0  0  0
   -5.2989    0.4429   -1.5452 C   0  0  0  0  0  0  0  0  0  0  0  0
   -6.0065    1.5779   -1.1406 C   0  0  0  0  0  0  0  0  0  0  0  0
   -5.7631    2.1243    0.1163 C   0  0  0  0  0  0  0  0  0  0  0  0
   -6.4304    3.2320    0.5494 O   0  0  0  0  0  0  0  0  0  0  0  0
   -4.8261    1.5567    0.9718 C   0  0  0  0  0  0  0  0  0  0  0  0
   -4.1164    0.4254    0.5659 C   0  0  0  0  0  0  0  0  0  0  0  0
   -0.0480   -0.2170   -1.2917 C   0  0  0  0  0  0  0  0  0  0  0  0
    0.2086   -0.6838    0.1196 C   0  0  0  0  0  0  0  0  0  0  0  0
   -0.6835   -1.0512    0.8824 O   0  0  0  0  0  0  0  0  0  0  0  0
    1.6096   -0.7251    0.6313 C   0  0  0  0  0  0  0  0  0  0  0  0
    2.6931   -0.3763   -0.0784 C   0  0  0  0  0  0  0  0  0  0  0  0
    4.0616   -0.4365    0.4574 C   0  0  0  0  0  0  0  0  0  0  0  0
    5.1061   -0.8207   -0.3963 C   0  0  0  0  0  0  0  0  0  0  0  0
    6.4258   -0.8646    0.0638 C   0  0  0  0  0  0  0  0  0  0  0  0
    6.7024   -0.5119    1.3795 C   0  0  0  0  0  0  0  0  0  0  0  0
    7.9729   -0.5386    1.8717 O   0  0  0  0  0  0  0  0  0  0  0  0
    5.6848   -0.1138    2.2364 C   0  0  0  0  0  0  0  0  0  0  0  0
    4.3665   -0.0702    1.7755 C   0  0  0  0  0  0  0  0  0  0  0  0
   -1.8575   -2.2947   -1.7518 H   0  0  0  0  0  0  0  0  0  0  0  0
   -4.1649   -2.2617   -1.0209 H   0  0  0  0  0  0  0  0  0  0  0  0
   -5.4798    0.0232   -2.5313 H   0  0  0  0  0  0  0  0  0  0  0  0
   -6.7321    2.0182   -1.8163 H   0  0  0  0  0  0  0  0  0  0  0  0
   -6.9970    3.5488   -0.1725 H   0  0  0  0  0  0  0  0  0  0  0  0
   -4.6438    1.9947    1.9485 H   0  0  0  0  0  0  0  0  0  0  0  0
   -3.3797   -0.0119    1.2366 H   0  0  0  0  0  0  0  0  0  0  0  0
    0.3718    0.7910   -1.3922 H   0  0  0  0  0  0  0  0  0  0  0  0
    0.4593   -0.8854   -1.9958 H   0  0  0  0  0  0  0  0  0  0  0  0
    1.6867   -1.0822    1.6548 H   0  0  0  0  0  0  0  0  0  0  0  0
    2.6208   -0.0407   -1.1090 H   0  0  0  0  0  0  0  0  0  0  0  0
    4.9018   -1.0987   -1.4281 H   0  0  0  0  0  0  0  0  0  0  0  0
    7.2152   -1.1724   -0.6146 H   0  0  0  0  0  0  0  0  0  0  0  0
    8.5744   -0.8329    1.1682 H   0  0  0  0  0  0  0  0  0  0  0  0
    5.9159    0.1685    3.2598 H   0  0  0  0  0  0  0  0  0  0  0  0
    3.5893    0.2643    2.4583 H   0  0  0  0  0  0  0  0  0  0  0  0
  1  2  2  0
  2  3  1  0
  3  4  2  3
  4  5  1  0
  5  6  2  0
  6  7  1  0
  7  8  2  0
  8  9  1  0
  8 10  1  0
 10 11  2  0
  2 12  1  0
 12 13  1  0
 13 14  2  0
 13 15  1  0
 15 16  2  3
 16 17  1  0
 17 18  2  0
 18 19  1  0
 19 20  2  0
 20 21  1  0
 20 22  1  0
 22 23  2  0
 11  5  1  0
 23 17  1  0
  3 24  1  0
  4 25  1  0
  6 26  1  0
  7 27  1  0
  9 28  1  0
 10 29  1  0
 11 30  1  0
 12 31  1  0
 12 32  1  0
 15 33  1  0
 16 34  1  0
 18 35  1  0
 19 36  1  0
 21 37  1  0
 22 38  1  0
 23 39  1  0
M  END
$$$$
