
     RDKit          3D

 59 62  0  0  0  0  0  0  0  0999 V2000
    9.2190   -0.5880   -0.2506 C   0  0  0  0  0  0  0  0  0  0  0  0
    7.8072   -0.2118    0.0877 C   0  0  0  0  0  0  0  0  0  0  0  0
    7.3864   -0.1527    1.4201 C   0  0  0  0  0  0  0  0  0  0  0  0
    6.0781    0.2304    1.7438 C   0  0  0  0  0  0  0  0  0  0  0  0
    5.1728    0.5800    0.7358 C   0  0  0  0  0  0  0  0  0  0  0  0
    3.8260    0.9660    1.0188 N   0  0  0  0  0  0  0  0  0  0  0  0
    2.9071    0.9200    0.0145 N   0  0  0  0  0  0  0  0  0  0  0  0
    1.7271    1.0684    0.6222 C   0  0  0  0  0  0  0  0  0  0  0  0
    0.4123    1.0015   -0.0040 C   0  0  0  0  0  0  0  0  0  0  0  0
    0.2284    0.7657   -1.1984 O   0  0  0  0  0  0  0  0  0  0  0  0
   -0.6332    1.2644    0.9044 N   0  0  0  0  0  0  0  0  0  0  0  0
   -2.0015    1.1338    0.4327 C   0  0  0  0  0  0  0  0  0  0  0  0
   -2.4754   -0.3202    0.5109 C   0  0  0  0  0  0  0  0  0  0  0  0
   -1.7503   -1.2709    0.7978 O   0  0  0  0  0  0  0  0  0  0  0  0
   -3.8196   -0.4657    0.2245 N   0  0  0  0  0  0  0  0  0  0  0  0
   -4.4562   -1.7687    0.1619 C   0  0  0  0  0  0  0  0  0  0  0  0
   -4.4781   -2.3513   -1.2558 C   0  0  0  0  0  0  0  0  0  0  0  0
   -5.2996   -1.5144   -2.2227 C   0  0  0  0  0  0  0  0  0  0  0  0
   -4.6336   -0.5667   -3.0246 C   0  0  0  0  0  0  0  0  0  0  0  0
   -5.3441    0.2628   -3.8937 C   0  0  0  0  0  0  0  0  0  0  0  0
   -6.7305    0.1576   -3.9757 C   0  0  0  0  0  0  0  0  0  0  0  0
   -7.4048   -0.7855   -3.1995 C   0  0  0  0  0  0  0  0  0  0  0  0
   -6.7058   -1.6317   -2.3206 C   0  0  0  0  0  0  0  0  0  0  0  0
   -7.4791   -2.6644   -1.5453 C   0  0  0  0  0  0  0  0  0  0  0  0
   -0.4746    1.5453    2.2679 N   0  0  0  0  0  0  0  0  0  0  0  0
    0.7118    1.5824    2.8085 C   0  0  0  0  0  0  0  0  0  0  0  0
    0.8176    1.8656    4.2802 C   0  0  0  0  0  0  0  0  0  0  0  0
    1.8741    1.3560    1.9847 C   0  0  0  0  0  0  0  0  0  0  0  0
    3.2393    1.4054    2.2113 C   0  0  0  0  0  0  0  0  0  0  0  0
    3.9901    1.8706    3.4052 C   0  0  0  0  0  0  0  0  0  0  0  0
    5.5919    0.5036   -0.6028 C   0  0  0  0  0  0  0  0  0  0  0  0
    6.9004    0.1247   -0.9217 C   0  0  0  0  0  0  0  0  0  0  0  0
    9.8499    0.3061   -0.2637 H   0  0  0  0  0  0  0  0  0  0  0  0
    9.6218   -1.2942    0.4843 H   0  0  0  0  0  0  0  0  0  0  0  0
    9.2702   -1.0733   -1.2322 H   0  0  0  0  0  0  0  0  0  0  0  0
    8.0733   -0.4183    2.2218 H   0  0  0  0  0  0  0  0  0  0  0  0
    5.7992    0.1969    2.7887 H   0  0  0  0  0  0  0  0  0  0  0  0
   -2.0735    1.4706   -0.6082 H   0  0  0  0  0  0  0  0  0  0  0  0
   -2.6526    1.7623    1.0536 H   0  0  0  0  0  0  0  0  0  0  0  0
   -4.3354    0.3183   -0.1593 H   0  0  0  0  0  0  0  0  0  0  0  0
   -3.9306   -2.4609    0.8307 H   0  0  0  0  0  0  0  0  0  0  0  0
   -5.4696   -1.6342    0.5530 H   0  0  0  0  0  0  0  0  0  0  0  0
   -4.8760   -3.3734   -1.2248 H   0  0  0  0  0  0  0  0  0  0  0  0
   -3.4529   -2.4467   -1.6379 H   0  0  0  0  0  0  0  0  0  0  0  0
   -3.5486   -0.4715   -2.9764 H   0  0  0  0  0  0  0  0  0  0  0  0
   -4.8157    0.9865   -4.5102 H   0  0  0  0  0  0  0  0  0  0  0  0
   -7.2885    0.8012   -4.6521 H   0  0  0  0  0  0  0  0  0  0  0  0
   -8.4903   -0.8616   -3.2898 H   0  0  0  0  0  0  0  0  0  0  0  0
   -7.2302   -3.6674   -1.9100 H   0  0  0  0  0  0  0  0  0  0  0  0
   -7.2585   -2.5992   -0.4766 H   0  0  0  0  0  0  0  0  0  0  0  0
   -8.5615   -2.5266   -1.6587 H   0  0  0  0  0  0  0  0  0  0  0  0
    1.1869    2.8847    4.4308 H   0  0  0  0  0  0  0  0  0  0  0  0
   -0.1641    1.7767    4.7554 H   0  0  0  0  0  0  0  0  0  0  0  0
    1.4987    1.1538    4.7557 H   0  0  0  0  0  0  0  0  0  0  0  0
    4.1382    1.0519    4.1131 H   0  0  0  0  0  0  0  0  0  0  0  0
    4.9563    2.3062    3.1388 H   0  0  0  0  0  0  0  0  0  0  0  0
    3.4426    2.6676    3.9209 H   0  0  0  0  0  0  0  0  0  0  0  0
    4.9096    0.7453   -1.4166 H   0  0  0  0  0  0  0  0  0  0  0  0
    7.1984    0.0867   -1.9660 H   0  0  0  0  0  0  0  0  0  0  0  0
  1  2  1  0
  2  3  2  0
  3  4  1  0
  4  5  2  0
  5  6  1  0
  6  7  1  0
  7  8  2  0
  8  9  1  0
  9 10  2  0
  9 11  1  0
 11 12  1  0
 12 13  1  0
 13 14  2  0
 13 15  1  0
 15 16  1  0
 16 17  1  0
 17 18  1  0
 18 19  2  0
 19 20  1  0
 20 21  2  0
 21 22  1  0
 22 23  2  0
 23 24  1  0
 11 25  1  0
 25 26  2  0
 26 27  1  0
 26 28  1  0
 28 29  2  0
 29 30  1  0
  5 31  1  0
 31 32  2  0
 32  2  1  0
 29  6  1  0
 28  8  1  0
 23 18  1  0
  1 33  1  0
  1 34  1  0
  1 35  1  0
  3 36  1  0
  4 37  1  0
 12 38  1  0
 12 39  1  0
 15 40  1  0
 16 41  1  0
 16 42  1  0
 17 43  1  0
 17 44  1  0
 19 45  1  0
 20 46  1  0
 21 47  1  0
 22 48  1  0
 24 49  1  0
 24 50  1  0
 24 51  1  0
 27 52  1  0
 27 53  1  0
 27 54  1  0
 30 55  1  0
 30 56  1  0
 30 57  1  0
 31 58  1  0
 32 59  1  0
M  END
$$$$
