
     RDKit          3D

 50 54  0  0  0  0  0  0  0  0999 V2000
   -4.9163    1.3982    0.3647 C   0  0  0  0  0  0  0  0  0  0  0  0
   -4.7275   -0.0437    0.7148 C   0  0  0  0  0  0  0  0  0  0  0  0
   -5.7289   -0.8460    1.1084 C   0  0  0  0  0  0  0  0  0  0  0  0
   -5.4913   -2.2259    1.4287 C   0  0  0  0  0  0  0  0  0  0  0  0
   -4.2566   -2.7280    1.3316 C   0  0  0  0  0  0  0  0  0  0  0  0
   -3.1777   -1.9487    0.9310 N   0  0  0  0  0  0  0  0  0  0  0  0
   -1.9218   -2.5245    0.8511 C   0  0  0  0  0  0  0  0  0  0  0  0
   -1.6848   -3.7050    1.1116 O   0  0  0  0  0  0  0  0  0  0  0  0
   -0.8121   -1.6251    0.4257 C   0  0  0  0  0  0  0  0  0  0  0  0
    0.5382   -2.1523    0.3161 C   0  0  0  0  0  0  0  0  0  0  0  0
    1.5773   -1.3926   -0.0687 C   0  0  0  0  0  0  0  0  0  0  0  0
    3.1392   -2.1167   -0.2309 S   0  0  0  0  0  6  0  0  0  0  0  0
    3.1786   -3.3604    0.5274 O   0  0  0  0  0  0  0  0  0  0  0  0
    3.5323   -2.1454   -1.6299 O   0  0  0  0  0  0  0  0  0  0  0  0
    4.2555   -1.0264    0.6384 C   0  0  0  0  0  0  0  0  0  0  0  0
    5.2006   -0.2770   -0.0731 C   0  0  0  0  0  0  0  0  0  0  0  0
    6.0873    0.5457    0.6226 C   0  0  0  0  0  0  0  0  0  0  0  0
    6.0281    0.6013    2.0127 C   0  0  0  0  0  0  0  0  0  0  0  0
    6.8773    1.3968    2.6761 F   0  0  0  0  0  0  0  0  0  0  0  0
    5.1024   -0.1561    2.7264 C   0  0  0  0  0  0  0  0  0  0  0  0
    4.2122   -0.9830    2.0398 C   0  0  0  0  0  0  0  0  0  0  0  0
    1.2869    0.0340   -0.4034 C   0  0  0  0  0  0  0  0  0  0  0  0
    2.2820    0.7439   -0.8384 N   0  0  0  0  0  0  0  0  0  0  0  0
   -0.0196    0.5252   -0.2372 N   0  0  0  0  0  0  0  0  0  0  0  0
   -0.3168    1.9527   -0.4745 C   0  0  0  0  0  0  0  0  0  0  0  0
   -0.4106    2.3613   -1.9085 C   0  0  0  0  0  0  0  0  0  0  0  0
   -0.6950    1.6884   -3.0787 C   0  0  0  0  0  0  0  0  0  0  0  0
   -0.6092    2.6424   -4.1211 C   0  0  0  0  0  0  0  0  0  0  0  0
   -0.2880    3.8379   -3.5220 C   0  0  0  0  0  0  0  0  0  0  0  0
   -0.1653    3.6782   -2.1786 O   0  0  0  0  0  0  0  0  0  0  0  0
   -1.0842   -0.3298    0.1532 C   0  0  0  0  0  0  0  0  0  0  0  0
   -2.3634    0.1609    0.2490 N   0  0  0  0  0  0  0  0  0  0  0  0
   -3.3372   -0.6107    0.6160 C   0  0  0  0  0  0  0  0  0  0  0  0
   -4.6240    1.5826   -0.6750 H   0  0  0  0  0  0  0  0  0  0  0  0
   -5.9601    1.7107    0.4765 H   0  0  0  0  0  0  0  0  0  0  0  0
   -4.3113    2.0351    1.0175 H   0  0  0  0  0  0  0  0  0  0  0  0
   -6.7471   -0.4787    1.1939 H   0  0  0  0  0  0  0  0  0  0  0  0
   -6.3269   -2.8426    1.7442 H   0  0  0  0  0  0  0  0  0  0  0  0
   -4.0567   -3.7702    1.5667 H   0  0  0  0  0  0  0  0  0  0  0  0
    0.6728   -3.2084    0.5461 H   0  0  0  0  0  0  0  0  0  0  0  0
    5.2382   -0.3177   -1.1605 H   0  0  0  0  0  0  0  0  0  0  0  0
    6.8199    1.1442    0.0900 H   0  0  0  0  0  0  0  0  0  0  0  0
    5.0865   -0.0998    3.8107 H   0  0  0  0  0  0  0  0  0  0  0  0
    3.5026   -1.5922    2.5960 H   0  0  0  0  0  0  0  0  0  0  0  0
    2.0084    1.6949   -1.0941 H   0  0  0  0  0  0  0  0  0  0  0  0
    0.4541    2.5582    0.0240 H   0  0  0  0  0  0  0  0  0  0  0  0
   -1.2468    2.2603    0.0225 H   0  0  0  0  0  0  0  0  0  0  0  0
   -0.9200    0.6337   -3.1674 H   0  0  0  0  0  0  0  0  0  0  0  0
   -0.7622    2.4795   -5.1793 H   0  0  0  0  0  0  0  0  0  0  0  0
   -0.1191    4.8408   -3.8918 H   0  0  0  0  0  0  0  0  0  0  0  0
  1  2  1  0
  2  3  2  0
  3  4  1  0
  4  5  2  0
  5  6  1  0
  6  7  1  0
  7  8  2  0
  7  9  1  0
  9 10  1  0
 10 11  2  0
 11 12  1  0
 12 13  2  0
 12 14  2  0
 12 15  1  0
 15 16  2  0
 16 17  1  0
 17 18  2  0
 18 19  1  0
 18 20  1  0
 20 21  2  0
 11 22  1  0
 22 23  2  3
 22 24  1  0
 24 25  1  0
 25 26  1  0
 26 27  2  0
 27 28  1  0
 28 29  2  0
 29 30  1  0
 24 31  1  0
 31 32  1  0
 32 33  2  0
 33  2  1  0
 33  6  1  0
 31  9  2  0
 21 15  1  0
 30 26  1  0
  1 34  1  0
  1 35  1  0
  1 36  1  0
  3 37  1  0
  4 38  1  0
  5 39  1  0
 10 40  1  0
 16 41  1  0
 17 42  1  0
 20 43  1  0
 21 44  1  0
 23 45  1  0
 25 46  1  0
 25 47  1  0
 27 48  1  0
 28 49  1  0
 29 50  1  0
M  END
$$$$
