
     RDKit          3D

 37 38  0  0  0  0  0  0  0  0999 V2000
    3.8953   -1.0533    3.0398 C   0  0  0  0  0  0  0  0  0  0  0  0
    4.5079   -0.7651    1.6811 C   0  0  0  0  0  0  0  0  0  0  0  0
    3.5198   -0.3157    0.7200 N   0  0  0  0  0  0  0  0  0  0  0  0
    2.8761   -1.0786   -0.2086 C   0  0  0  0  0  0  0  0  0  0  0  0
    2.0430   -0.2243   -0.9048 C   0  0  0  0  0  0  0  0  0  0  0  0
    1.1228   -0.5571   -2.0228 C   0  0  0  0  0  0  0  0  0  0  0  0
   -0.1927   -0.7812   -1.4669 N   0  0  0  0  0  0  0  0  0  0  0  0
   -1.2034    0.1400   -1.6237 C   0  0  0  0  0  0  0  0  0  0  0  0
   -1.1088    1.1490   -2.3118 O   0  0  0  0  0  0  0  0  0  0  0  0
   -2.4588   -0.1211   -0.8684 C   0  0  0  0  0  0  0  0  0  0  0  0
   -2.8827   -1.4235   -0.5659 C   0  0  0  0  0  0  0  0  0  0  0  0
   -4.0721   -1.6309    0.1377 C   0  0  0  0  0  0  0  0  0  0  0  0
   -4.8481   -0.5418    0.5370 C   0  0  0  0  0  0  0  0  0  0  0  0
   -4.4304    0.7590    0.2216 C   0  0  0  0  0  0  0  0  0  0  0  0
   -5.2506    1.9039    0.6365 N   0  0  0  0  0  4  0  0  0  0  0  0
   -4.8087    3.0402    0.4190 O   0  0  0  0  0  0  0  0  0  0  0  0
   -6.3361    1.6642    1.1844 O   0  0  0  0  0  1  0  0  0  0  0  0
   -3.2405    0.9759   -0.4836 C   0  0  0  0  0  0  0  0  0  0  0  0
    2.2661    1.0472   -0.3042 C   0  0  0  0  0  0  0  0  0  0  0  0
    1.6297    2.3459   -0.6425 C   0  0  0  0  0  0  0  0  0  0  0  0
    3.1619    0.9773    0.6886 N   0  0  0  0  0  0  0  0  0  0  0  0
    3.1261   -1.8296    2.9686 H   0  0  0  0  0  0  0  0  0  0  0  0
    3.4269   -0.1573    3.4608 H   0  0  0  0  0  0  0  0  0  0  0  0
    4.6644   -1.3967    3.7385 H   0  0  0  0  0  0  0  0  0  0  0  0
    4.9815   -1.6660    1.2759 H   0  0  0  0  0  0  0  0  0  0  0  0
    5.2759    0.0126    1.7563 H   0  0  0  0  0  0  0  0  0  0  0  0
    3.0611   -2.1395   -0.3006 H   0  0  0  0  0  0  0  0  0  0  0  0
    1.1089    0.2328   -2.7798 H   0  0  0  0  0  0  0  0  0  0  0  0
    1.4305   -1.4891   -2.5087 H   0  0  0  0  0  0  0  0  0  0  0  0
   -0.2545   -1.4637   -0.7255 H   0  0  0  0  0  0  0  0  0  0  0  0
   -2.3130   -2.2886   -0.8959 H   0  0  0  0  0  0  0  0  0  0  0  0
   -4.3998   -2.6432    0.3666 H   0  0  0  0  0  0  0  0  0  0  0  0
   -5.7727   -0.7214    1.0829 H   0  0  0  0  0  0  0  0  0  0  0  0
   -2.9121    1.9833   -0.7367 H   0  0  0  0  0  0  0  0  0  0  0  0
    2.1987    3.1872   -0.2331 H   0  0  0  0  0  0  0  0  0  0  0  0
    0.6163    2.3888   -0.2316 H   0  0  0  0  0  0  0  0  0  0  0  0
    1.5721    2.4804   -1.7270 H   0  0  0  0  0  0  0  0  0  0  0  0
  1  2  1  0
  2  3  1  0
  3  4  1  0
  4  5  2  0
  5  6  1  0
  6  7  1  0
  7  8  1  0
  8  9  2  0
  8 10  1  0
 10 11  2  0
 11 12  1  0
 12 13  2  0
 13 14  1  0
 14 15  1  0
 15 16  2  0
 15 17  1  0
 14 18  2  0
  5 19  1  0
 19 20  1  0
 19 21  2  0
 21  3  1  0
 18 10  1  0
  1 22  1  0
  1 23  1  0
  1 24  1  0
  2 25  1  0
  2 26  1  0
  4 27  1  0
  6 28  1  0
  6 29  1  0
  7 30  1  0
 11 31  1  0
 12 32  1  0
 13 33  1  0
 18 34  1  0
 20 35  1  0
 20 36  1  0
 20 37  1  0
M  CHG  2  15   1  17  -1
M  END
$$$$
