
     RDKit          3D

 34 36  0  0  0  0  0  0  0  0999 V2000
    5.2555    0.2595   -1.8062 C   0  0  0  0  0  0  0  0  0  0  0  0
    4.6413    0.5368   -0.5298 N   0  0  0  0  0  0  0  0  0  0  0  0
    5.2681    0.9350    0.6098 C   0  0  0  0  0  0  0  0  0  0  0  0
    4.2741    1.0629    1.5458 C   0  0  0  0  0  0  0  0  0  0  0  0
    4.5138    1.5838    3.3271 Br  0  0  0  0  0  0  0  0  0  0  0  0
    3.0633    0.7236    0.8955 C   0  0  0  0  0  0  0  0  0  0  0  0
    1.6853    0.6868    1.4297 C   0  0  0  0  0  0  0  0  0  0  0  0
    1.4340    0.9924    2.5890 O   0  0  0  0  0  0  0  0  0  0  0  0
    0.7837    0.2808    0.4616 N   0  0  0  0  0  0  0  0  0  0  0  0
   -0.5849    0.1063    0.5738 C   0  0  0  0  0  0  0  0  0  0  0  0
   -1.3867    0.3788    2.0647 S   0  0  0  0  0  0  0  0  0  0  0  0
   -2.8476   -0.0532    1.3956 C   0  0  0  0  0  0  0  0  0  0  0  0
   -2.7800   -0.3901    0.0724 C   0  0  0  0  0  0  0  0  0  0  0  0
   -1.4540   -0.2904   -0.4500 C   0  0  0  0  0  0  0  0  0  0  0  0
   -0.9909   -0.5608   -1.8090 C   0  0  0  0  0  0  0  0  0  0  0  0
   -1.9499   -0.6329   -2.7787 N   0  0  0  0  0  0  0  0  0  0  0  0
    0.1927   -0.6821   -2.1118 O   0  0  0  0  0  0  0  0  0  0  0  0
   -4.1244   -0.7870   -0.4270 C   0  0  0  0  0  0  0  0  0  0  0  0
   -4.9368   -0.9751    0.8916 C   0  0  0  0  0  0  0  0  0  0  0  0
   -4.2002   -0.1531    1.9893 C   0  0  0  0  0  0  0  0  0  0  0  0
    3.3094    0.4027   -0.3977 N   0  0  0  0  0  0  0  0  0  0  0  0
    4.8279    0.9381   -2.5485 H   0  0  0  0  0  0  0  0  0  0  0  0
    5.0475   -0.7805   -2.0696 H   0  0  0  0  0  0  0  0  0  0  0  0
    6.3343    0.4178   -1.7330 H   0  0  0  0  0  0  0  0  0  0  0  0
    6.3366    1.0885    0.6615 H   0  0  0  0  0  0  0  0  0  0  0  0
    1.2024    0.0675   -0.4484 H   0  0  0  0  0  0  0  0  0  0  0  0
   -1.6051   -0.6694   -3.7284 H   0  0  0  0  0  0  0  0  0  0  0  0
   -2.8664   -0.2415   -2.6300 H   0  0  0  0  0  0  0  0  0  0  0  0
   -4.5617    0.0168   -1.0286 H   0  0  0  0  0  0  0  0  0  0  0  0
   -4.1059   -1.7120   -1.0098 H   0  0  0  0  0  0  0  0  0  0  0  0
   -4.9218   -2.0373    1.1703 H   0  0  0  0  0  0  0  0  0  0  0  0
   -5.9845   -0.6792    0.7810 H   0  0  0  0  0  0  0  0  0  0  0  0
   -4.6525    0.8382    2.0964 H   0  0  0  0  0  0  0  0  0  0  0  0
   -4.2168   -0.6717    2.9516 H   0  0  0  0  0  0  0  0  0  0  0  0
  1  2  1  0
  2  3  1  0
  3  4  2  0
  4  5  1  0
  4  6  1  0
  6  7  1  0
  7  8  2  0
  7  9  1  0
  9 10  1  0
 10 11  1  0
 11 12  1  0
 12 13  2  0
 13 14  1  0
 14 15  1  0
 15 16  1  0
 15 17  2  0
 13 18  1  0
 18 19  1  0
 19 20  1  0
  6 21  2  0
 21  2  1  0
 14 10  2  0
 20 12  1  0
  1 22  1  0
  1 23  1  0
  1 24  1  0
  3 25  1  0
  9 26  1  0
 16 27  1  0
 16 28  1  0
 18 29  1  0
 18 30  1  0
 19 31  1  0
 19 32  1  0
 20 33  1  0
 20 34  1  0
M  END
$$$$
