
     RDKit          3D

 46 47  0  0  0  0  0  0  0  0999 V2000
    0.6033    3.2157   -2.6062 C   0  0  0  0  0  0  0  0  0  0  0  0
    1.9167    3.0458   -1.8836 C   0  0  0  0  0  0  0  0  0  0  0  0
    2.6450    4.0094   -1.6707 O   0  0  0  0  0  0  0  0  0  0  0  0
    2.1361    1.7409   -1.4973 N   0  0  0  0  0  0  0  0  0  0  0  0
    3.2446    1.2104   -0.8039 C   0  0  0  0  0  0  0  0  0  0  0  0
    4.3694    1.9581   -0.4524 C   0  0  0  0  0  0  0  0  0  0  0  0
    5.4413    1.3566    0.2179 C   0  0  0  0  0  0  0  0  0  0  0  0
    5.4045   -0.0002    0.5365 C   0  0  0  0  0  0  0  0  0  0  0  0
    4.2897   -0.7602    0.1940 C   0  0  0  0  0  0  0  0  0  0  0  0
    3.2120   -0.1505   -0.4526 C   0  0  0  0  0  0  0  0  0  0  0  0
    2.1364   -0.9299   -0.8026 O   0  0  0  0  0  0  0  0  0  0  0  0
    1.2109   -1.0673    0.2856 C   0  0  0  0  0  0  0  0  0  0  0  0
    0.8683   -2.5486    0.4044 C   0  0  0  0  0  0  0  0  0  0  0  0
   -0.0644   -0.2539   -0.0063 C   0  0  0  0  0  0  0  0  0  0  0  0
   -0.2569    0.3156   -1.0810 O   0  0  0  0  0  0  0  0  0  0  0  0
   -0.9534   -0.1834    1.0478 N   0  0  0  0  0  0  0  0  0  0  0  0
   -2.2760    0.4038    0.8955 C   0  0  0  0  0  0  0  0  0  0  0  0
   -2.6054    1.2712    2.1113 C   0  0  0  0  0  0  0  0  0  0  0  0
   -3.2807   -0.7060    0.6261 C   0  0  0  0  0  0  0  0  0  0  0  0
   -3.9189   -1.4175    1.6567 C   0  0  0  0  0  0  0  0  0  0  0  0
   -4.8111   -2.4511    1.3597 C   0  0  0  0  0  0  0  0  0  0  0  0
   -5.0614   -2.7857    0.0352 C   0  0  0  0  0  0  0  0  0  0  0  0
   -5.9150   -3.7792   -0.2442 F   0  0  0  0  0  0  0  0  0  0  0  0
   -4.4333   -2.1096   -1.0014 C   0  0  0  0  0  0  0  0  0  0  0  0
   -3.5418   -1.0766   -0.7069 C   0  0  0  0  0  0  0  0  0  0  0  0
    0.6512    4.1058   -3.2407 H   0  0  0  0  0  0  0  0  0  0  0  0
   -0.2003    3.3343   -1.8744 H   0  0  0  0  0  0  0  0  0  0  0  0
    0.3954    2.3548   -3.2478 H   0  0  0  0  0  0  0  0  0  0  0  0
    1.3852    1.0745   -1.6886 H   0  0  0  0  0  0  0  0  0  0  0  0
    4.4500    3.0128   -0.6968 H   0  0  0  0  0  0  0  0  0  0  0  0
    6.3127    1.9532    0.4780 H   0  0  0  0  0  0  0  0  0  0  0  0
    6.2487   -0.4636    1.0401 H   0  0  0  0  0  0  0  0  0  0  0  0
    4.2648   -1.8218    0.4206 H   0  0  0  0  0  0  0  0  0  0  0  0
    1.6310   -0.7138    1.2379 H   0  0  0  0  0  0  0  0  0  0  0  0
    1.7773   -3.1420    0.5521 H   0  0  0  0  0  0  0  0  0  0  0  0
    0.1865   -2.7462    1.2371 H   0  0  0  0  0  0  0  0  0  0  0  0
    0.3955   -2.9128   -0.5152 H   0  0  0  0  0  0  0  0  0  0  0  0
   -0.8173   -0.7976    1.8393 H   0  0  0  0  0  0  0  0  0  0  0  0
   -2.2711    1.0764    0.0282 H   0  0  0  0  0  0  0  0  0  0  0  0
   -3.6194    1.6799    2.0430 H   0  0  0  0  0  0  0  0  0  0  0  0
   -2.5216    0.7160    3.0517 H   0  0  0  0  0  0  0  0  0  0  0  0
   -1.9051    2.1118    2.1773 H   0  0  0  0  0  0  0  0  0  0  0  0
   -3.7319   -1.1829    2.7013 H   0  0  0  0  0  0  0  0  0  0  0  0
   -5.3109   -2.9981    2.1530 H   0  0  0  0  0  0  0  0  0  0  0  0
   -4.6381   -2.3893   -2.0301 H   0  0  0  0  0  0  0  0  0  0  0  0
   -3.0428   -0.5593   -1.5266 H   0  0  0  0  0  0  0  0  0  0  0  0
  1  2  1  0
  2  3  2  0
  2  4  1  0
  4  5  1  0
  5  6  2  0
  6  7  1  0
  7  8  2  0
  8  9  1  0
  9 10  2  0
 10 11  1  0
 11 12  1  0
 12 13  1  0
 12 14  1  0
 14 15  2  0
 14 16  1  0
 16 17  1  0
 17 18  1  0
 17 19  1  0
 19 20  2  0
 20 21  1  0
 21 22  2  0
 22 23  1  0
 22 24  1  0
 24 25  2  0
 10  5  1  0
 25 19  1  0
  1 26  1  0
  1 27  1  0
  1 28  1  0
  4 29  1  0
  6 30  1  0
  7 31  1  0
  8 32  1  0
  9 33  1  0
 12 34  1  0
 13 35  1  0
 13 36  1  0
 13 37  1  0
 16 38  1  0
 17 39  1  0
 18 40  1  0
 18 41  1  0
 18 42  1  0
 20 43  1  0
 21 44  1  0
 24 45  1  0
 25 46  1  0
M  END
$$$$
