
     RDKit          3D

 37 39  0  0  0  0  0  0  0  0999 V2000
   -4.6586    1.3295   -1.5917 C   0  0  0  0  0  0  0  0  0  0  0  0
   -4.9847    1.0290   -0.1542 C   0  0  0  0  0  0  0  0  0  0  0  0
   -6.3151    1.0954    0.2861 C   0  0  0  0  0  0  0  0  0  0  0  0
   -6.6354    0.8202    1.6143 C   0  0  0  0  0  0  0  0  0  0  0  0
   -5.6295    0.4781    2.5134 C   0  0  0  0  0  0  0  0  0  0  0  0
   -4.3007    0.4063    2.0869 C   0  0  0  0  0  0  0  0  0  0  0  0
   -3.9700    0.6754    0.7546 C   0  0  0  0  0  0  0  0  0  0  0  0
   -2.7027    0.6324    0.2366 O   0  0  0  0  0  0  0  0  0  0  0  0
   -1.6631    0.1596    1.0759 C   0  0  0  0  0  0  0  0  0  0  0  0
   -0.3257    0.0870    0.3247 C   0  0  0  0  0  0  0  0  0  0  0  0
   -0.2043    0.4392   -0.8436 O   0  0  0  0  0  0  0  0  0  0  0  0
    0.6781   -0.4138    1.1335 N   0  0  0  0  0  0  0  0  0  0  0  0
    1.9910   -0.6166    0.7879 C   0  0  0  0  0  0  0  0  0  0  0  0
    2.8617   -1.1035    1.6414 N   0  0  0  0  0  0  0  0  0  0  0  0
    4.1177   -1.2259    1.0850 N   0  0  0  0  0  0  0  0  0  0  0  0
    4.1601   -0.8251   -0.1743 C   0  0  0  0  0  0  0  0  0  0  0  0
    5.3714   -0.8454   -1.0128 C   0  0  0  0  0  0  0  0  0  0  0  0
    6.5646   -1.3344   -0.4648 C   0  0  0  0  0  0  0  0  0  0  0  0
    7.7084   -1.3565   -1.2455 C   0  0  0  0  0  0  0  0  0  0  0  0
    7.7489   -0.9290   -2.5226 N   0  0  0  0  0  0  0  0  0  0  0  0
    6.5965   -0.4610   -3.0408 C   0  0  0  0  0  0  0  0  0  0  0  0
    5.4018   -0.3993   -2.3391 C   0  0  0  0  0  0  0  0  0  0  0  0
    2.6328   -0.2711   -0.7463 S   0  0  0  0  0  0  0  0  0  0  0  0
   -4.2206    0.4494   -2.0728 H   0  0  0  0  0  0  0  0  0  0  0  0
   -5.5546    1.6063   -2.1572 H   0  0  0  0  0  0  0  0  0  0  0  0
   -3.9562    2.1672   -1.6553 H   0  0  0  0  0  0  0  0  0  0  0  0
   -7.1103    1.3627   -0.4064 H   0  0  0  0  0  0  0  0  0  0  0  0
   -7.6689    0.8749    1.9463 H   0  0  0  0  0  0  0  0  0  0  0  0
   -5.8796    0.2670    3.5500 H   0  0  0  0  0  0  0  0  0  0  0  0
   -3.5510    0.1428    2.8245 H   0  0  0  0  0  0  0  0  0  0  0  0
   -1.8944   -0.8527    1.4300 H   0  0  0  0  0  0  0  0  0  0  0  0
   -1.5239    0.8436    1.9217 H   0  0  0  0  0  0  0  0  0  0  0  0
    0.4754   -0.6775    2.0882 H   0  0  0  0  0  0  0  0  0  0  0  0
    6.6096   -1.6949    0.5589 H   0  0  0  0  0  0  0  0  0  0  0  0
    8.6488   -1.7292   -0.8497 H   0  0  0  0  0  0  0  0  0  0  0  0
    6.6566   -0.1248   -4.0722 H   0  0  0  0  0  0  0  0  0  0  0  0
    4.5263   -0.0056   -2.8431 H   0  0  0  0  0  0  0  0  0  0  0  0
  1  2  1  0
  2  3  2  0
  3  4  1  0
  4  5  2  0
  5  6  1  0
  6  7  2  0
  7  8  1  0
  8  9  1  0
  9 10  1  0
 10 11  2  0
 10 12  1  0
 12 13  1  0
 13 14  2  0
 14 15  1  0
 15 16  2  0
 16 17  1  0
 17 18  2  0
 18 19  1  0
 19 20  2  0
 20 21  1  0
 21 22  2  0
 16 23  1  0
  7  2  1  0
 23 13  1  0
 22 17  1  0
  1 24  1  0
  1 25  1  0
  1 26  1  0
  3 27  1  0
  4 28  1  0
  5 29  1  0
  6 30  1  0
  9 31  1  0
  9 32  1  0
 12 33  1  0
 18 34  1  0
 19 35  1  0
 21 36  1  0
 22 37  1  0
M  END
$$$$
