
     RDKit          3D

 38 40  0  0  0  0  0  0  0  0999 V2000
   -2.5366   -2.7109    0.3254 C   0  0  0  0  0  0  0  0  0  0  0  0
   -2.6915   -1.5737   -0.6449 C   0  0  0  0  0  0  0  0  0  0  0  0
   -2.6204   -1.8720   -2.0190 C   0  0  0  0  0  0  0  0  0  0  0  0
   -2.7826   -0.8746   -2.9766 C   0  0  0  0  0  0  0  0  0  0  0  0
   -2.7114   -1.1925   -4.2760 F   0  0  0  0  0  0  0  0  0  0  0  0
   -3.0287    0.4389   -2.6061 C   0  0  0  0  0  0  0  0  0  0  0  0
   -3.1101    0.7610   -1.2528 C   0  0  0  0  0  0  0  0  0  0  0  0
   -2.9273   -0.2347   -0.2699 C   0  0  0  0  0  0  0  0  0  0  0  0
   -3.0386    0.3192    1.4329 S   0  0  0  0  0  6  0  0  0  0  0  0
   -3.0358   -0.8132    2.3293 O   0  0  0  0  0  0  0  0  0  0  0  0
   -4.1024    1.3009    1.4864 O   0  0  0  0  0  0  0  0  0  0  0  0
   -1.6009    1.1857    1.6415 N   0  0  0  0  0  0  0  0  0  0  0  0
   -0.3599    0.5664    1.3273 C   0  0  0  0  0  0  0  0  0  0  0  0
    0.1087   -0.5101    2.0757 C   0  0  0  0  0  0  0  0  0  0  0  0
    1.3038   -1.1346    1.7205 C   0  0  0  0  0  0  0  0  0  0  0  0
    2.0272   -0.6788    0.6211 C   0  0  0  0  0  0  0  0  0  0  0  0
    3.1851   -1.3527    0.3465 O   0  0  0  0  0  0  0  0  0  0  0  0
    1.5672    0.4033   -0.1421 C   0  0  0  0  0  0  0  0  0  0  0  0
    2.3869    0.9905   -1.6154 S   0  0  0  0  0  0  0  0  0  0  0  0
    3.8921    1.5720   -0.9663 C   0  0  0  0  0  0  0  0  0  0  0  0
    4.1638    2.8916   -0.7445 N   0  0  0  0  0  0  0  0  0  0  0  0
    5.3799    2.8620   -0.2525 C   0  0  0  0  0  0  0  0  0  0  0  0
    5.8131    1.5751   -0.1855 N   0  0  0  0  0  0  0  0  0  0  0  0
    4.8730    0.7224   -0.6334 N   0  0  0  0  0  0  0  0  0  0  0  0
    0.3638    1.0225    0.2243 C   0  0  0  0  0  0  0  0  0  0  0  0
   -3.4709   -2.8779    0.8691 H   0  0  0  0  0  0  0  0  0  0  0  0
   -2.3001   -3.6483   -0.1919 H   0  0  0  0  0  0  0  0  0  0  0  0
   -1.7134   -2.5295    1.0187 H   0  0  0  0  0  0  0  0  0  0  0  0
   -2.4423   -2.8909   -2.3622 H   0  0  0  0  0  0  0  0  0  0  0  0
   -3.1649    1.1965   -3.3706 H   0  0  0  0  0  0  0  0  0  0  0  0
   -3.3234    1.7896   -0.9670 H   0  0  0  0  0  0  0  0  0  0  0  0
   -1.7168    2.1746    1.4227 H   0  0  0  0  0  0  0  0  0  0  0  0
   -0.4481   -0.8722    2.9364 H   0  0  0  0  0  0  0  0  0  0  0  0
    1.6716   -1.9780    2.2991 H   0  0  0  0  0  0  0  0  0  0  0  0
    3.7300   -0.8028   -0.2524 H   0  0  0  0  0  0  0  0  0  0  0  0
    5.9737    3.7078    0.0604 H   0  0  0  0  0  0  0  0  0  0  0  0
    6.7022    1.2136    0.1449 H   0  0  0  0  0  0  0  0  0  0  0  0
   -0.0158    1.8536   -0.3645 H   0  0  0  0  0  0  0  0  0  0  0  0
  1  2  1  0
  2  3  2  0
  3  4  1  0
  4  5  1  0
  4  6  2  0
  6  7  1  0
  7  8  2  0
  8  9  1  0
  9 10  2  0
  9 11  2  0
  9 12  1  0
 12 13  1  0
 13 14  2  0
 14 15  1  0
 15 16  2  0
 16 17  1  0
 16 18  1  0
 18 19  1  0
 19 20  1  0
 20 21  1  0
 21 22  2  0
 22 23  1  0
 23 24  1  0
 18 25  2  0
  8  2  1  0
 25 13  1  0
 24 20  2  0
  1 26  1  0
  1 27  1  0
  1 28  1  0
  3 29  1  0
  6 30  1  0
  7 31  1  0
 12 32  1  0
 14 33  1  0
 15 34  1  0
 17 35  1  0
 22 36  1  0
 23 37  1  0
 25 38  1  0
M  END
$$$$
