
     RDKit          3D

 57 62  0  0  0  0  0  0  0  0999 V2000
    6.7643   -3.2692    1.5714 C   0  0  0  0  0  0  0  0  0  0  0  0
    5.8591   -2.1144    1.3097 C   0  0  0  0  0  0  0  0  0  0  0  0
    5.1808   -1.3310    2.2210 C   0  0  0  0  0  0  0  0  0  0  0  0
    4.4081   -0.3143    1.5879 C   0  0  0  0  0  0  0  0  0  0  0  0
    4.5162   -0.3556    0.2104 C   0  0  0  0  0  0  0  0  0  0  0  0
    3.8973    0.5018   -0.7885 C   0  0  0  0  0  0  0  0  0  0  0  0
    4.5435    1.0256   -1.6974 O   0  0  0  0  0  0  0  0  0  0  0  0
    2.5186    0.7369   -0.6744 N   0  0  0  0  0  0  0  0  0  0  0  0
    1.9192    1.7110   -1.5774 C   0  0  0  0  0  0  0  0  0  0  0  0
    0.5463    2.1549   -1.0834 C   0  0  0  0  0  0  0  0  0  0  0  0
   -0.4629    0.9646   -1.0064 C   0  0  0  0  0  0  0  0  0  0  0  0
    0.3197   -0.3512   -0.7190 C   0  0  0  0  0  0  0  0  0  0  0  0
    1.6029   -0.1250    0.0727 C   0  0  0  0  0  0  0  0  0  0  0  0
   -1.0491    0.7481   -2.3188 O   0  0  0  0  0  0  0  0  0  0  0  0
   -1.9869    1.6567   -2.7225 C   0  0  0  0  0  0  0  0  0  0  0  0
   -2.2793    1.6731   -4.0854 C   0  0  0  0  0  0  0  0  0  0  0  0
   -3.2094    2.5857   -4.5888 C   0  0  0  0  0  0  0  0  0  0  0  0
   -3.8487    3.4760   -3.7258 C   0  0  0  0  0  0  0  0  0  0  0  0
   -4.9930    4.5965   -4.3522 Cl  0  0  0  0  0  0  0  0  0  0  0  0
   -3.5732    3.4577   -2.3615 C   0  0  0  0  0  0  0  0  0  0  0  0
   -2.6456    2.5370   -1.8647 C   0  0  0  0  0  0  0  0  0  0  0  0
   -2.3655    2.4631   -0.4180 C   0  0  0  0  0  0  0  0  0  0  0  0
   -2.8000    3.3310    0.3322 O   0  0  0  0  0  0  0  0  0  0  0  0
   -1.5903    1.2303    0.0350 C   0  0  0  0  0  0  0  0  0  0  0  0
   -2.6058    0.1069    0.2335 C   0  0  0  0  0  0  0  0  0  0  0  0
   -2.1592   -0.3942    1.5636 C   0  0  0  0  0  0  0  0  0  0  0  0
   -2.6975   -1.6342    2.1539 C   0  0  0  0  0  0  0  0  0  0  0  0
   -3.6611   -2.4152    1.5123 C   0  0  0  0  0  0  0  0  0  0  0  0
   -4.1227   -3.5741    2.1339 C   0  0  0  0  0  0  0  0  0  0  0  0
   -3.6083   -3.9092    3.3793 C   0  0  0  0  0  0  0  0  0  0  0  0
   -2.6764   -3.1769    4.0241 N   0  0  0  0  0  0  0  0  0  0  0  0
   -2.2439   -2.0525    3.4006 C   0  0  0  0  0  0  0  0  0  0  0  0
   -1.2689    0.3375    2.1513 N   0  0  0  0  0  0  0  0  0  0  0  0
   -1.0285    1.4609    1.3304 O   0  0  0  0  0  0  0  0  0  0  0  0
    5.5691   -1.6064   -0.2986 S   0  0  0  0  0  0  0  0  0  0  0  0
    7.7651   -3.0813    1.1666 H   0  0  0  0  0  0  0  0  0  0  0  0
    6.8674   -3.4491    2.6470 H   0  0  0  0  0  0  0  0  0  0  0  0
    6.3671   -4.1830    1.1154 H   0  0  0  0  0  0  0  0  0  0  0  0
    5.2408   -1.4739    3.2940 H   0  0  0  0  0  0  0  0  0  0  0  0
    3.8149    0.4216    2.1187 H   0  0  0  0  0  0  0  0  0  0  0  0
    1.8507    1.2567   -2.5728 H   0  0  0  0  0  0  0  0  0  0  0  0
    2.5847    2.5781   -1.6579 H   0  0  0  0  0  0  0  0  0  0  0  0
    0.6760    2.6094   -0.0930 H   0  0  0  0  0  0  0  0  0  0  0  0
    0.1856    2.9444   -1.7514 H   0  0  0  0  0  0  0  0  0  0  0  0
    0.5879   -0.8281   -1.6741 H   0  0  0  0  0  0  0  0  0  0  0  0
   -0.2982   -1.0960   -0.2088 H   0  0  0  0  0  0  0  0  0  0  0  0
    1.4008    0.3578    1.0338 H   0  0  0  0  0  0  0  0  0  0  0  0
    2.0662   -1.0961    0.2701 H   0  0  0  0  0  0  0  0  0  0  0  0
   -1.7747    0.9858   -4.7613 H   0  0  0  0  0  0  0  0  0  0  0  0
   -3.4278    2.6002   -5.6540 H   0  0  0  0  0  0  0  0  0  0  0  0
   -4.0810    4.1453   -1.6895 H   0  0  0  0  0  0  0  0  0  0  0  0
   -2.5589   -0.6625   -0.5398 H   0  0  0  0  0  0  0  0  0  0  0  0
   -3.6382    0.4638    0.3244 H   0  0  0  0  0  0  0  0  0  0  0  0
   -4.0713   -2.1434    0.5452 H   0  0  0  0  0  0  0  0  0  0  0  0
   -4.8770   -4.1993    1.6665 H   0  0  0  0  0  0  0  0  0  0  0  0
   -3.9469   -4.7978    3.9062 H   0  0  0  0  0  0  0  0  0  0  0  0
   -1.5022   -1.4844    3.9583 H   0  0  0  0  0  0  0  0  0  0  0  0
  1  2  1  0
  2  3  2  0
  3  4  1  0
  4  5  2  0
  5  6  1  0
  6  7  2  0
  6  8  1  0
  8  9  1  0
  9 10  1  0
 10 11  1  0
 11 12  1  0
 12 13  1  0
 11 14  1  0
 14 15  1  0
 15 16  2  0
 16 17  1  0
 17 18  2  0
 18 19  1  0
 18 20  1  0
 20 21  2  0
 21 22  1  0
 22 23  2  0
 22 24  1  0
 24 25  1  0
 25 26  1  0
 26 27  1  0
 27 28  2  0
 28 29  1  0
 29 30  2  0
 30 31  1  0
 31 32  2  0
 26 33  2  0
 33 34  1  0
  5 35  1  0
 35  2  1  0
 13  8  1  0
 21 15  1  0
 34 24  1  0
 24 11  1  0
 32 27  1  0
  1 36  1  0
  1 37  1  0
  1 38  1  0
  3 39  1  0
  4 40  1  0
  9 41  1  0
  9 42  1  0
 10 43  1  0
 10 44  1  0
 12 45  1  0
 12 46  1  0
 13 47  1  0
 13 48  1  0
 16 49  1  0
 17 50  1  0
 20 51  1  0
 25 52  1  0
 25 53  1  0
 28 54  1  0
 29 55  1  0
 30 56  1  0
 32 57  1  0
M  END
$$$$
