
     RDKit          3D

 61 66  0  0  0  0  0  0  0  0999 V2000
    8.9924   -1.6148   -1.6136 F   0  0  0  0  0  0  0  0  0  0  0  0
    8.9189   -0.5662   -0.7455 C   0  0  0  0  0  0  0  0  0  0  0  0
    9.7350   -0.8881    0.2968 F   0  0  0  0  0  0  0  0  0  0  0  0
    9.5178    0.4813   -1.3794 F   0  0  0  0  0  0  0  0  0  0  0  0
    7.5084   -0.2718   -0.3000 C   0  0  0  0  0  0  0  0  0  0  0  0
    6.6198   -1.3222   -0.0244 C   0  0  0  0  0  0  0  0  0  0  0  0
    5.3172   -1.0584    0.4065 C   0  0  0  0  0  0  0  0  0  0  0  0
    4.8776    0.2617    0.5735 C   0  0  0  0  0  0  0  0  0  0  0  0
    3.4689    0.5511    1.0514 C   0  0  0  0  0  0  0  0  0  0  0  0
    2.7005    1.3957    0.1213 N   0  0  0  0  0  0  0  0  0  0  0  0
    1.4179    1.8220    0.7259 C   0  0  0  0  0  0  0  0  0  0  0  0
    0.3506    0.7131    0.8597 C   0  0  0  0  0  0  0  0  0  0  0  0
    0.1094    0.0471   -0.4352 N   0  0  0  0  0  0  0  0  0  0  0  0
   -1.0053   -0.7851   -0.5264 C   0  0  0  0  0  0  0  0  0  0  0  0
   -0.8301   -2.0686   -0.7166 N   0  0  0  0  0  0  0  0  0  0  0  0
   -1.9366   -2.9391   -0.7829 C   0  0  0  0  0  0  0  0  0  0  0  0
   -1.6976   -4.3010   -0.9757 C   0  0  0  0  0  0  0  0  0  0  0  0
   -2.7577   -5.2094   -1.0407 C   0  0  0  0  0  0  0  0  0  0  0  0
   -4.0730   -4.7613   -0.9123 C   0  0  0  0  0  0  0  0  0  0  0  0
   -4.3359   -3.4047   -0.7191 C   0  0  0  0  0  0  0  0  0  0  0  0
   -3.2653   -2.5078   -0.6556 C   0  0  0  0  0  0  0  0  0  0  0  0
   -3.4399   -1.1257   -0.4769 N   0  0  0  0  0  0  0  0  0  0  0  0
   -4.5993   -0.3991   -0.3423 C   0  0  0  0  0  0  0  0  0  0  0  0
   -4.2721    0.9426   -0.2604 C   0  0  0  0  0  0  0  0  0  0  0  0
   -5.2473    2.0161   -0.1237 C   0  0  0  0  0  0  0  0  0  0  0  0
   -6.5144    1.9277   -0.7169 C   0  0  0  0  0  0  0  0  0  0  0  0
   -7.4384    2.9675   -0.5810 C   0  0  0  0  0  0  0  0  0  0  0  0
   -7.1052    4.1071    0.1477 C   0  0  0  0  0  0  0  0  0  0  0  0
   -5.8482    4.2094    0.7393 C   0  0  0  0  0  0  0  0  0  0  0  0
   -4.9234    3.1703    0.6030 C   0  0  0  0  0  0  0  0  0  0  0  0
   -2.8533    1.0138   -0.3262 C   0  0  0  0  0  0  0  0  0  0  0  0
   -2.3614   -0.2747   -0.4264 C   0  0  0  0  0  0  0  0  0  0  0  0
    1.3596   -0.4274   -1.0655 C   0  0  0  0  0  0  0  0  0  0  0  0
    2.3990    0.7099   -1.1583 C   0  0  0  0  0  0  0  0  0  0  0  0
    5.7685    1.3114    0.3083 C   0  0  0  0  0  0  0  0  0  0  0  0
    7.0707    1.0482   -0.1225 C   0  0  0  0  0  0  0  0  0  0  0  0
    6.9417   -2.3556   -0.1465 H   0  0  0  0  0  0  0  0  0  0  0  0
    4.6483   -1.8921    0.6103 H   0  0  0  0  0  0  0  0  0  0  0  0
    3.5736    1.0703    2.0138 H   0  0  0  0  0  0  0  0  0  0  0  0
    2.9496   -0.3885    1.2729 H   0  0  0  0  0  0  0  0  0  0  0  0
    1.5982    2.2784    1.7068 H   0  0  0  0  0  0  0  0  0  0  0  0
    1.0058    2.6252    0.1005 H   0  0  0  0  0  0  0  0  0  0  0  0
   -0.5666    1.1699    1.2443 H   0  0  0  0  0  0  0  0  0  0  0  0
    0.6657   -0.0329    1.5994 H   0  0  0  0  0  0  0  0  0  0  0  0
   -0.6745   -4.6535   -1.0753 H   0  0  0  0  0  0  0  0  0  0  0  0
   -2.5548   -6.2665   -1.1922 H   0  0  0  0  0  0  0  0  0  0  0  0
   -4.8944   -5.4719   -0.9650 H   0  0  0  0  0  0  0  0  0  0  0  0
   -5.3668   -3.0802   -0.6254 H   0  0  0  0  0  0  0  0  0  0  0  0
   -5.5640   -0.8842   -0.3196 H   0  0  0  0  0  0  0  0  0  0  0  0
   -6.7922    1.0560   -1.3038 H   0  0  0  0  0  0  0  0  0  0  0  0
   -8.4164    2.8876   -1.0484 H   0  0  0  0  0  0  0  0  0  0  0  0
   -7.8239    4.9156    0.2529 H   0  0  0  0  0  0  0  0  0  0  0  0
   -5.5861    5.0973    1.3086 H   0  0  0  0  0  0  0  0  0  0  0  0
   -3.9523    3.2685    1.0811 H   0  0  0  0  0  0  0  0  0  0  0  0
   -2.2507    1.9124   -0.3142 H   0  0  0  0  0  0  0  0  0  0  0  0
    1.7696   -1.2740   -0.5018 H   0  0  0  0  0  0  0  0  0  0  0  0
    1.1471   -0.7777   -2.0830 H   0  0  0  0  0  0  0  0  0  0  0  0
    2.0167    1.4690   -1.8543 H   0  0  0  0  0  0  0  0  0  0  0  0
    3.3153    0.3314   -1.6254 H   0  0  0  0  0  0  0  0  0  0  0  0
    5.4412    2.3427    0.4306 H   0  0  0  0  0  0  0  0  0  0  0  0
    7.7418    1.8822   -0.3228 H   0  0  0  0  0  0  0  0  0  0  0  0
  1  2  1  0
  2  3  1  0
  2  4  1  0
  2  5  1  0
  5  6  2  0
  6  7  1  0
  7  8  2  0
  8  9  1  0
  9 10  1  0
 10 11  1  0
 11 12  1  0
 12 13  1  0
 13 14  1  0
 14 15  2  0
 15 16  1  0
 16 17  2  0
 17 18  1  0
 18 19  2  0
 19 20  1  0
 20 21  2  0
 21 22  1  0
 22 23  1  0
 23 24  2  0
 24 25  1  0
 25 26  2  0
 26 27  1  0
 27 28  2  0
 28 29  1  0
 29 30  2  0
 24 31  1  0
 31 32  2  0
 13 33  1  0
 33 34  1  0
  8 35  1  0
 35 36  2  0
 36  5  1  0
 34 10  1  0
 32 14  1  0
 21 16  1  0
 32 22  1  0
 30 25  1  0
  6 37  1  0
  7 38  1  0
  9 39  1  0
  9 40  1  0
 11 41  1  0
 11 42  1  0
 12 43  1  0
 12 44  1  0
 17 45  1  0
 18 46  1  0
 19 47  1  0
 20 48  1  0
 23 49  1  0
 26 50  1  0
 27 51  1  0
 28 52  1  0
 29 53  1  0
 30 54  1  0
 31 55  1  0
 33 56  1  0
 33 57  1  0
 34 58  1  0
 34 59  1  0
 35 60  1  0
 36 61  1  0
M  END
$$$$
