
     RDKit          3D

 67 69  0  0  0  0  0  0  0  0999 V2000
    4.4648   -2.1393    2.3255 C   0  0  0  0  0  0  0  0  0  0  0  0
    5.4893   -2.4344    1.2353 C   0  0  0  0  0  0  0  0  0  0  0  0
    5.6232   -1.3318    0.3421 O   0  0  0  0  0  0  0  0  0  0  0  0
    4.7104   -1.1681   -0.6722 C   0  0  0  0  0  0  0  0  0  0  0  0
    3.7300   -2.1027   -1.0216 C   0  0  0  0  0  0  0  0  0  0  0  0
    2.8534   -1.8553   -2.0829 C   0  0  0  0  0  0  0  0  0  0  0  0
    2.9441   -0.6688   -2.8148 C   0  0  0  0  0  0  0  0  0  0  0  0
    1.9951   -0.3858   -3.9560 C   0  0  0  0  0  0  0  0  0  0  0  0
    0.7488    0.3915   -3.5225 C   0  0  0  0  0  0  0  0  0  0  0  0
   -0.1968   -0.4431   -2.8003 N   0  0  0  0  0  0  0  0  0  0  0  0
   -1.5551   -0.3705   -3.0472 C   0  0  0  0  0  0  0  0  0  0  0  0
   -2.0520    0.3303   -3.9277 O   0  0  0  0  0  0  0  0  0  0  0  0
   -2.4131   -1.2164   -2.1046 C   0  0  0  0  0  0  0  0  0  0  0  0
   -3.0113   -0.4278   -1.0803 O   0  0  0  0  0  0  0  0  0  0  0  0
   -2.1598   -0.0260   -0.1066 C   0  0  0  0  0  0  0  0  0  0  0  0
   -0.9718   -0.2962   -0.0118 O   0  0  0  0  0  0  0  0  0  0  0  0
   -2.8634    0.9369    0.7633 C   0  0  0  0  0  0  0  0  0  0  0  0
   -2.3615    2.2491    0.7498 C   0  0  0  0  0  0  0  0  0  0  0  0
   -3.0513    3.2447    1.4407 C   0  0  0  0  0  0  0  0  0  0  0  0
   -2.5576    4.6260    1.4238 N   0  0  0  0  0  4  0  0  0  0  0  0
   -1.4853    4.8475    0.8448 O   0  0  0  0  0  0  0  0  0  0  0  0
   -3.2437    5.4865    1.9940 O   0  0  0  0  0  1  0  0  0  0  0  0
   -4.2232    2.9354    2.1362 C   0  0  0  0  0  0  0  0  0  0  0  0
   -4.6960    1.6145    2.1580 C   0  0  0  0  0  0  0  0  0  0  0  0
   -4.0201    0.5744    1.4980 C   0  0  0  0  0  0  0  0  0  0  0  0
   -4.4548   -0.7502    1.5649 N   0  0  0  0  0  0  0  0  0  0  0  0
   -3.5680   -1.6847    2.3019 C   0  0  0  0  0  0  0  0  0  0  0  0
   -4.0573   -1.8761    3.7527 C   0  0  0  0  0  0  0  0  0  0  0  0
   -5.4290   -2.2975    3.8056 O   0  0  0  0  0  0  0  0  0  0  0  0
   -6.2766   -1.3151    3.1835 C   0  0  0  0  0  0  0  0  0  0  0  0
   -5.8911   -1.0827    1.7133 C   0  0  0  0  0  0  0  0  0  0  0  0
    3.9230    0.2736   -2.4620 C   0  0  0  0  0  0  0  0  0  0  0  0
    4.8107    0.0327   -1.4048 C   0  0  0  0  0  0  0  0  0  0  0  0
    5.7743    0.9193   -0.9874 O   0  0  0  0  0  0  0  0  0  0  0  0
    6.1549    1.9898   -1.8517 C   0  0  0  0  0  0  0  0  0  0  0  0
    5.3705    3.2511   -1.5321 C   0  0  0  0  0  0  0  0  0  0  0  0
    4.3608   -2.9929    3.0030 H   0  0  0  0  0  0  0  0  0  0  0  0
    4.7845   -1.2737    2.9129 H   0  0  0  0  0  0  0  0  0  0  0  0
    3.4804   -1.9005    1.9075 H   0  0  0  0  0  0  0  0  0  0  0  0
    6.4718   -2.5624    1.7125 H   0  0  0  0  0  0  0  0  0  0  0  0
    5.2924   -3.3766    0.7102 H   0  0  0  0  0  0  0  0  0  0  0  0
    3.6181   -3.0417   -0.4903 H   0  0  0  0  0  0  0  0  0  0  0  0
    2.1002   -2.5990   -2.3330 H   0  0  0  0  0  0  0  0  0  0  0  0
    1.7114   -1.3273   -4.4433 H   0  0  0  0  0  0  0  0  0  0  0  0
    2.5317    0.1947   -4.7177 H   0  0  0  0  0  0  0  0  0  0  0  0
    1.0070    1.2222   -2.8612 H   0  0  0  0  0  0  0  0  0  0  0  0
    0.2694    0.8138   -4.4104 H   0  0  0  0  0  0  0  0  0  0  0  0
    0.0600   -0.6916   -1.8436 H   0  0  0  0  0  0  0  0  0  0  0  0
   -3.2159   -1.6578   -2.6988 H   0  0  0  0  0  0  0  0  0  0  0  0
   -1.8439   -2.0498   -1.6804 H   0  0  0  0  0  0  0  0  0  0  0  0
   -1.4579    2.4749    0.1821 H   0  0  0  0  0  0  0  0  0  0  0  0
   -4.7844    3.7002    2.6697 H   0  0  0  0  0  0  0  0  0  0  0  0
   -5.6000    1.4259    2.7305 H   0  0  0  0  0  0  0  0  0  0  0  0
   -2.5191   -1.3543    2.3228 H   0  0  0  0  0  0  0  0  0  0  0  0
   -3.5972   -2.6499    1.7791 H   0  0  0  0  0  0  0  0  0  0  0  0
   -3.4545   -2.6440    4.2485 H   0  0  0  0  0  0  0  0  0  0  0  0
   -3.9451   -0.9469    4.3224 H   0  0  0  0  0  0  0  0  0  0  0  0
   -6.2190   -0.3929    3.7655 H   0  0  0  0  0  0  0  0  0  0  0  0
   -7.3042   -1.6829    3.2552 H   0  0  0  0  0  0  0  0  0  0  0  0
   -6.0530   -2.0171    1.1631 H   0  0  0  0  0  0  0  0  0  0  0  0
   -6.5348   -0.3257    1.2492 H   0  0  0  0  0  0  0  0  0  0  0  0
    3.9659    1.2017   -3.0240 H   0  0  0  0  0  0  0  0  0  0  0  0
    6.1028    1.7190   -2.9114 H   0  0  0  0  0  0  0  0  0  0  0  0
    7.2156    2.1896   -1.6522 H   0  0  0  0  0  0  0  0  0  0  0  0
    5.4904    3.5171   -0.4778 H   0  0  0  0  0  0  0  0  0  0  0  0
    4.2964    3.1116   -1.6969 H   0  0  0  0  0  0  0  0  0  0  0  0
    5.7169    4.0853   -2.1508 H   0  0  0  0  0  0  0  0  0  0  0  0
  1  2  1  0
  2  3  1  0
  3  4  1  0
  4  5  2  0
  5  6  1  0
  6  7  2  0
  7  8  1  0
  8  9  1  0
  9 10  1  0
 10 11  1  0
 11 12  2  0
 11 13  1  0
 13 14  1  0
 14 15  1  0
 15 16  2  0
 15 17  1  0
 17 18  2  0
 18 19  1  0
 19 20  1  0
 20 21  2  0
 20 22  1  0
 19 23  2  0
 23 24  1  0
 24 25  2  0
 25 26  1  0
 26 27  1  0
 27 28  1  0
 28 29  1  0
 29 30  1  0
 30 31  1  0
  7 32  1  0
 32 33  2  0
 33 34  1  0
 34 35  1  0
 35 36  1  0
 33  4  1  0
 25 17  1  0
 31 26  1  0
  1 37  1  0
  1 38  1  0
  1 39  1  0
  2 40  1  0
  2 41  1  0
  5 42  1  0
  6 43  1  0
  8 44  1  0
  8 45  1  0
  9 46  1  0
  9 47  1  0
 10 48  1  0
 13 49  1  0
 13 50  1  0
 18 51  1  0
 23 52  1  0
 24 53  1  0
 27 54  1  0
 27 55  1  0
 28 56  1  0
 28 57  1  0
 30 58  1  0
 30 59  1  0
 31 60  1  0
 31 61  1  0
 32 62  1  0
 35 63  1  0
 35 64  1  0
 36 65  1  0
 36 66  1  0
 36 67  1  0
M  CHG  2  20   1  22  -1
M  END
$$$$
