
     RDKit          3D

 35 37  0  0  0  0  0  0  0  0999 V2000
    7.3800    1.0746   -1.2513 C   0  0  0  0  0  0  0  0  0  0  0  0
    6.0164    0.9615   -0.8339 O   0  0  0  0  0  0  0  0  0  0  0  0
    5.3463   -0.0386   -1.4418 C   0  0  0  0  0  0  0  0  0  0  0  0
    5.8131   -0.8173   -2.2624 O   0  0  0  0  0  0  0  0  0  0  0  0
    3.9263   -0.0691   -0.9924 C   0  0  0  0  0  0  0  0  0  0  0  0
    3.0979   -1.0826   -1.5003 C   0  0  0  0  0  0  0  0  0  0  0  0
    1.7470   -1.1376   -1.1375 C   0  0  0  0  0  0  0  0  0  0  0  0
    1.1999   -0.1781   -0.2663 C   0  0  0  0  0  0  0  0  0  0  0  0
   -0.2246   -0.2929    0.0904 C   0  0  0  0  0  0  0  0  0  0  0  0
   -1.1449    0.6982    0.1263 C   0  0  0  0  0  0  0  0  0  0  0  0
   -0.8390    2.0538   -0.2140 C   0  0  0  0  0  0  0  0  0  0  0  0
   -0.5927    3.1673   -0.4623 N   0  0  0  0  0  0  0  0  0  0  0  0
   -2.4892    0.3361    0.4713 C   0  0  0  0  0  0  0  0  0  0  0  0
   -3.1222   -0.7347    0.0564 N   0  0  0  0  0  0  0  0  0  0  0  0
   -4.4205   -0.7709    0.5444 C   0  0  0  0  0  0  0  0  0  0  0  0
   -5.4029   -1.7302    0.2256 C   0  0  0  0  0  0  0  0  0  0  0  0
   -6.6762   -1.6468    0.8017 C   0  0  0  0  0  0  0  0  0  0  0  0
   -6.9732   -0.6310    1.7036 C   0  0  0  0  0  0  0  0  0  0  0  0
   -6.0211    0.3494    2.0320 C   0  0  0  0  0  0  0  0  0  0  0  0
   -4.7557    0.2671    1.4251 C   0  0  0  0  0  0  0  0  0  0  0  0
   -3.4180    1.3358    1.5734 S   0  0  0  0  0  0  0  0  0  0  0  0
    2.0403    0.8139    0.2693 C   0  0  0  0  0  0  0  0  0  0  0  0
    3.3919    0.8747   -0.0967 C   0  0  0  0  0  0  0  0  0  0  0  0
    7.4328    1.3946   -2.2951 H   0  0  0  0  0  0  0  0  0  0  0  0
    7.8485    1.8373   -0.6293 H   0  0  0  0  0  0  0  0  0  0  0  0
    7.9187    0.1308   -1.1150 H   0  0  0  0  0  0  0  0  0  0  0  0
    3.4977   -1.8297   -2.1916 H   0  0  0  0  0  0  0  0  0  0  0  0
    1.1247   -1.9336   -1.5596 H   0  0  0  0  0  0  0  0  0  0  0  0
   -0.5368   -1.3137    0.3181 H   0  0  0  0  0  0  0  0  0  0  0  0
   -5.1693   -2.5165   -0.4791 H   0  0  0  0  0  0  0  0  0  0  0  0
   -7.4400   -2.3822    0.5374 H   0  0  0  0  0  0  0  0  0  0  0  0
   -7.9646   -0.5835    2.1473 H   0  0  0  0  0  0  0  0  0  0  0  0
   -6.2657    1.1659    2.7242 H   0  0  0  0  0  0  0  0  0  0  0  0
    1.6641    1.5564    0.9749 H   0  0  0  0  0  0  0  0  0  0  0  0
    4.0110    1.6715    0.3200 H   0  0  0  0  0  0  0  0  0  0  0  0
  1  2  1  0
  2  3  1  0
  3  4  2  0
  3  5  1  0
  5  6  2  0
  6  7  1  0
  7  8  2  0
  8  9  1  0
  9 10  2  3
 10 11  1  0
 11 12  3  0
 10 13  1  0
 13 14  2  0
 14 15  1  0
 15 16  2  0
 16 17  1  0
 17 18  2  0
 18 19  1  0
 19 20  2  0
 20 21  1  0
  8 22  1  0
 22 23  2  0
 23  5  1  0
 21 13  1  0
 20 15  1  0
  1 24  1  0
  1 25  1  0
  1 26  1  0
  6 27  1  0
  7 28  1  0
  9 29  1  0
 16 30  1  0
 17 31  1  0
 18 32  1  0
 19 33  1  0
 22 34  1  0
 23 35  1  0
M  END
$$$$
