
     RDKit          3D

 57 59  0  0  0  0  0  0  0  0999 V2000
   -9.9127    0.2708   -0.6540 C   0  0  0  0  0  0  0  0  0  0  0  0
   -8.9656    0.3185   -1.7140 O   0  0  0  0  0  0  0  0  0  0  0  0
   -7.6685    0.5878   -1.3749 C   0  0  0  0  0  0  0  0  0  0  0  0
   -6.7880    0.6645   -2.4601 C   0  0  0  0  0  0  0  0  0  0  0  0
   -5.4318    0.9312   -2.2631 C   0  0  0  0  0  0  0  0  0  0  0  0
   -4.9565    1.1142   -0.9644 C   0  0  0  0  0  0  0  0  0  0  0  0
   -3.2397    1.4555   -0.6811 S   0  0  0  0  0  6  0  0  0  0  0  0
   -2.5786    1.5901   -1.9610 O   0  0  0  0  0  0  0  0  0  0  0  0
   -3.1566    2.5001    0.3164 O   0  0  0  0  0  0  0  0  0  0  0  0
   -2.7024    0.0353    0.0251 N   0  0  0  0  0  0  0  0  0  0  0  0
   -2.6921   -1.1954   -0.7685 C   0  0  0  0  0  0  0  0  0  0  0  0
   -1.9378   -2.1326    0.1498 C   0  0  0  0  0  0  0  0  0  0  0  0
   -1.0248   -1.3179    0.8937 O   0  0  0  0  0  0  0  0  0  0  0  0
   -1.3948    0.0654    0.7079 C   0  0  0  0  0  0  0  0  0  0  0  0
   -0.2654    0.7955   -0.0686 C   0  0  0  0  0  0  0  0  0  0  0  0
    1.0397    0.6605    0.5555 N   0  0  0  0  0  0  0  0  0  0  0  0
    1.8769   -0.3942    0.2666 C   0  0  0  0  0  0  0  0  0  0  0  0
    1.7311   -1.2144   -0.6298 O   0  0  0  0  0  0  0  0  0  0  0  0
    3.1018   -0.4832    1.2059 C   0  0  0  0  0  0  0  0  0  0  0  0
    3.2422    0.3388    2.1006 O   0  0  0  0  0  0  0  0  0  0  0  0
    3.9364   -1.5325    0.9078 N   0  0  0  0  0  0  0  0  0  0  0  0
    5.2162   -1.7199    1.5471 C   0  0  0  0  0  0  0  0  0  0  0  0
    6.3327   -1.1168    0.7331 C   0  0  0  0  0  0  0  0  0  0  0  0
    6.6369   -1.6418   -0.5355 C   0  0  0  0  0  0  0  0  0  0  0  0
    7.6675   -1.0990   -1.3061 C   0  0  0  0  0  0  0  0  0  0  0  0
    8.4157   -0.0306   -0.8174 C   0  0  0  0  0  0  0  0  0  0  0  0
    8.1300    0.4999    0.4395 C   0  0  0  0  0  0  0  0  0  0  0  0
    7.0839   -0.0296    1.2005 C   0  0  0  0  0  0  0  0  0  0  0  0
    6.8329    0.4671    2.4528 O   0  0  0  0  0  0  0  0  0  0  0  0
    6.3063    1.7932    2.3830 C   0  0  0  0  0  0  0  0  0  0  0  0
   -5.8254    1.0497    0.1281 C   0  0  0  0  0  0  0  0  0  0  0  0
   -7.1824    0.7830   -0.0798 C   0  0  0  0  0  0  0  0  0  0  0  0
   -9.9756    1.2336   -0.1365 H   0  0  0  0  0  0  0  0  0  0  0  0
  -10.8938    0.0630   -1.0915 H   0  0  0  0  0  0  0  0  0  0  0  0
   -9.6813   -0.5399    0.0445 H   0  0  0  0  0  0  0  0  0  0  0  0
   -7.1673    0.5200   -3.4696 H   0  0  0  0  0  0  0  0  0  0  0  0
   -4.7661    0.9957   -3.1205 H   0  0  0  0  0  0  0  0  0  0  0  0
   -2.1399   -1.0531   -1.7033 H   0  0  0  0  0  0  0  0  0  0  0  0
   -3.6941   -1.5711   -0.9868 H   0  0  0  0  0  0  0  0  0  0  0  0
   -1.3926   -2.9103   -0.3919 H   0  0  0  0  0  0  0  0  0  0  0  0
   -2.6127   -2.6122    0.8670 H   0  0  0  0  0  0  0  0  0  0  0  0
   -1.5066    0.5013    1.7065 H   0  0  0  0  0  0  0  0  0  0  0  0
   -0.4667    1.8688   -0.1321 H   0  0  0  0  0  0  0  0  0  0  0  0
   -0.1919    0.3988   -1.0875 H   0  0  0  0  0  0  0  0  0  0  0  0
    1.2701    1.1978    1.3879 H   0  0  0  0  0  0  0  0  0  0  0  0
    3.7039   -2.0646    0.0752 H   0  0  0  0  0  0  0  0  0  0  0  0
    5.3812   -2.7993    1.6399 H   0  0  0  0  0  0  0  0  0  0  0  0
    5.1770   -1.3127    2.5622 H   0  0  0  0  0  0  0  0  0  0  0  0
    6.0713   -2.4830   -0.9301 H   0  0  0  0  0  0  0  0  0  0  0  0
    7.8911   -1.5159   -2.2849 H   0  0  0  0  0  0  0  0  0  0  0  0
    9.2269    0.3829   -1.4104 H   0  0  0  0  0  0  0  0  0  0  0  0
    8.7327    1.3153    0.8285 H   0  0  0  0  0  0  0  0  0  0  0  0
    7.1124    2.5172    2.2265 H   0  0  0  0  0  0  0  0  0  0  0  0
    5.8333    2.0163    3.3438 H   0  0  0  0  0  0  0  0  0  0  0  0
    5.5471    1.8940    1.5991 H   0  0  0  0  0  0  0  0  0  0  0  0
   -5.4531    1.2063    1.1386 H   0  0  0  0  0  0  0  0  0  0  0  0
   -7.8323    0.7374    0.7882 H   0  0  0  0  0  0  0  0  0  0  0  0
  1  2  1  0
  2  3  1  0
  3  4  2  0
  4  5  1  0
  5  6  2  0
  6  7  1  0
  7  8  2  0
  7  9  2  0
  7 10  1  0
 10 11  1  0
 11 12  1  0
 12 13  1  0
 13 14  1  0
 14 15  1  0
 15 16  1  0
 16 17  1  0
 17 18  2  0
 17 19  1  0
 19 20  2  0
 19 21  1  0
 21 22  1  0
 22 23  1  0
 23 24  2  0
 24 25  1  0
 25 26  2  0
 26 27  1  0
 27 28  2  0
 28 29  1  0
 29 30  1  0
  6 31  1  0
 31 32  2  0
 32  3  1  0
 14 10  1  0
 28 23  1  0
  1 33  1  0
  1 34  1  0
  1 35  1  0
  4 36  1  0
  5 37  1  0
 11 38  1  0
 11 39  1  0
 12 40  1  0
 12 41  1  0
 14 42  1  0
 15 43  1  0
 15 44  1  0
 16 45  1  0
 21 46  1  0
 22 47  1  0
 22 48  1  0
 24 49  1  0
 25 50  1  0
 26 51  1  0
 27 52  1  0
 30 53  1  0
 30 54  1  0
 30 55  1  0
 31 56  1  0
 32 57  1  0
M  END
$$$$
