
     RDKit          3D

 36 37  0  0  0  0  0  0  0  0999 V2000
   -0.6999    1.5287    2.5908 O   0  0  0  0  0  0  0  0  0  0  0  0
   -0.4212    0.8521    1.6099 C   0  0  0  0  0  0  0  0  0  0  0  0
   -1.4435    0.3779    0.6447 C   0  0  0  0  0  0  0  0  0  0  0  0
   -2.7417    0.6199    0.8799 C   0  0  0  0  0  0  0  0  0  0  0  0
   -3.8056    0.2013   -0.0422 C   0  0  0  0  0  0  0  0  0  0  0  0
   -4.5661    1.2176   -0.6418 C   0  0  0  0  0  0  0  0  0  0  0  0
   -5.5999    0.9089   -1.5293 C   0  0  0  0  0  0  0  0  0  0  0  0
   -5.8915   -0.4202   -1.8249 C   0  0  0  0  0  0  0  0  0  0  0  0
   -5.1520   -1.4422   -1.2299 C   0  0  0  0  0  0  0  0  0  0  0  0
   -4.1156   -1.1370   -0.3403 C   0  0  0  0  0  0  0  0  0  0  0  0
   -3.2671   -2.4636    0.3771 Cl  0  0  0  0  0  0  0  0  0  0  0  0
    0.8502    0.4620    1.2707 N   0  0  0  0  0  0  0  0  0  0  0  0
    2.0107    0.9615    1.9864 C   0  0  0  0  0  0  0  0  0  0  0  0
    3.1930   -0.0105    1.9406 C   0  0  0  0  0  0  0  0  0  0  0  0
    3.6984   -0.2724    0.5402 C   0  0  0  0  0  0  0  0  0  0  0  0
    4.4035    0.7161   -0.1597 C   0  0  0  0  0  0  0  0  0  0  0  0
    4.8517    0.4781   -1.4599 C   0  0  0  0  0  0  0  0  0  0  0  0
    4.6009   -0.7485   -2.0717 C   0  0  0  0  0  0  0  0  0  0  0  0
    3.9033   -1.7394   -1.3839 C   0  0  0  0  0  0  0  0  0  0  0  0
    3.4541   -1.5038   -0.0837 C   0  0  0  0  0  0  0  0  0  0  0  0
   -1.1132   -0.1592   -0.2350 H   0  0  0  0  0  0  0  0  0  0  0  0
   -3.0606    1.1723    1.7617 H   0  0  0  0  0  0  0  0  0  0  0  0
   -4.3538    2.2631   -0.4235 H   0  0  0  0  0  0  0  0  0  0  0  0
   -6.1776    1.7082   -1.9875 H   0  0  0  0  0  0  0  0  0  0  0  0
   -6.6974   -0.6613   -2.5137 H   0  0  0  0  0  0  0  0  0  0  0  0
   -5.3919   -2.4777   -1.4584 H   0  0  0  0  0  0  0  0  0  0  0  0
    1.0119    0.0530    0.3591 H   0  0  0  0  0  0  0  0  0  0  0  0
    2.2726    1.9262    1.5372 H   0  0  0  0  0  0  0  0  0  0  0  0
    1.7362    1.1498    3.0304 H   0  0  0  0  0  0  0  0  0  0  0  0
    4.0195    0.3907    2.5403 H   0  0  0  0  0  0  0  0  0  0  0  0
    2.9051   -0.9583    2.4129 H   0  0  0  0  0  0  0  0  0  0  0  0
    4.6103    1.6783    0.3038 H   0  0  0  0  0  0  0  0  0  0  0  0
    5.3993    1.2497   -1.9949 H   0  0  0  0  0  0  0  0  0  0  0  0
    4.9529   -0.9337   -3.0832 H   0  0  0  0  0  0  0  0  0  0  0  0
    3.7122   -2.6983   -1.8590 H   0  0  0  0  0  0  0  0  0  0  0  0
    2.9129   -2.2893    0.4399 H   0  0  0  0  0  0  0  0  0  0  0  0
  1  2  2  0
  2  3  1  0
  3  4  2  3
  4  5  1  0
  5  6  2  0
  6  7  1  0
  7  8  2  0
  8  9  1  0
  9 10  2  0
 10 11  1  0
  2 12  1  0
 12 13  1  0
 13 14  1  0
 14 15  1  0
 15 16  2  0
 16 17  1  0
 17 18  2  0
 18 19  1  0
 19 20  2  0
 10  5  1  0
 20 15  1  0
  3 21  1  0
  4 22  1  0
  6 23  1  0
  7 24  1  0
  8 25  1  0
  9 26  1  0
 12 27  1  0
 13 28  1  0
 13 29  1  0
 14 30  1  0
 14 31  1  0
 16 32  1  0
 17 33  1  0
 18 34  1  0
 19 35  1  0
 20 36  1  0
M  END
$$$$
