
     RDKit          3D

 60 65  0  0  0  0  0  0  0  0999 V2000
   -1.6147   -1.9549    4.2431 O   0  0  0  0  0  0  0  0  0  0  0  0
   -2.0039   -1.2085    3.3521 C   0  0  0  0  0  0  0  0  0  0  0  0
   -1.2987   -1.0490    2.1650 N   0  0  0  0  0  0  0  0  0  0  0  0
   -1.6899   -0.2085    1.1289 C   0  0  0  0  0  0  0  0  0  0  0  0
   -0.7845   -0.1618   -0.0916 C   0  0  0  0  0  0  0  0  0  0  0  0
    0.6124    0.3536    0.2692 C   0  0  0  0  0  0  0  0  0  0  0  0
    1.5224    0.3556   -0.9557 C   0  0  0  0  0  0  0  0  0  0  0  0
    1.5872   -1.0271   -1.5108 N   0  0  0  0  0  0  0  0  0  0  0  0
    2.8003   -1.2527   -2.7104 S   0  0  0  0  0  6  0  0  0  0  0  0
    2.6705   -0.1653   -3.6570 O   0  0  0  0  0  0  0  0  0  0  0  0
    2.7594   -2.6343   -3.1382 O   0  0  0  0  0  0  0  0  0  0  0  0
    4.3004   -1.0360   -1.7891 C   0  0  0  0  0  0  0  0  0  0  0  0
    4.6307   -1.9754   -0.8053 C   0  0  0  0  0  0  0  0  0  0  0  0
    5.8108   -1.8215   -0.0774 C   0  0  0  0  0  0  0  0  0  0  0  0
    6.6521   -0.7407   -0.3411 C   0  0  0  0  0  0  0  0  0  0  0  0
    6.3040    0.2050   -1.3142 C   0  0  0  0  0  0  0  0  0  0  0  0
    5.1357    0.0514   -2.0562 C   0  0  0  0  0  0  0  0  0  0  0  0
    7.0702    1.3064   -1.5982 O   0  0  0  0  0  0  0  0  0  0  0  0
    8.0524    1.5406   -0.5819 C   0  0  0  0  0  0  0  0  0  0  0  0
    8.7419    0.2443   -0.1901 C   0  0  0  0  0  0  0  0  0  0  0  0
    7.8050   -0.6659    0.3980 O   0  0  0  0  0  0  0  0  0  0  0  0
    0.2441   -1.4840   -1.9721 C   0  0  0  0  0  0  0  0  0  0  0  0
   -0.7024   -1.5295   -0.7761 C   0  0  0  0  0  0  0  0  0  0  0  0
   -2.7684    0.5249    1.1518 N   0  0  0  0  0  0  0  0  0  0  0  0
   -3.4821    0.3795    2.2942 C   0  0  0  0  0  0  0  0  0  0  0  0
   -3.1976   -0.4085    3.3828 C   0  0  0  0  0  0  0  0  0  0  0  0
   -4.1569   -0.2722    4.3378 N   0  0  0  0  0  0  0  0  0  0  0  0
   -5.0587    0.5926    3.8723 N   0  0  0  0  0  0  0  0  0  0  0  0
   -4.6645    0.9728    2.6303 N   0  0  0  0  0  0  0  0  0  0  0  0
   -5.4497    1.9137    1.8575 C   0  0  0  0  0  0  0  0  0  0  0  0
   -6.3706    1.2082    0.8993 C   0  0  0  0  0  0  0  0  0  0  0  0
   -7.4797    0.4813    1.3594 C   0  0  0  0  0  0  0  0  0  0  0  0
   -8.3196   -0.1756    0.4565 C   0  0  0  0  0  0  0  0  0  0  0  0
   -8.0632   -0.1135   -0.9131 C   0  0  0  0  0  0  0  0  0  0  0  0
   -6.9661    0.6067   -1.3809 C   0  0  0  0  0  0  0  0  0  0  0  0
   -6.1322    1.2581   -0.4764 C   0  0  0  0  0  0  0  0  0  0  0  0
   -5.0873    1.9514   -0.9498 F   0  0  0  0  0  0  0  0  0  0  0  0
   -0.4553   -1.6001    2.1033 H   0  0  0  0  0  0  0  0  0  0  0  0
   -1.2342    0.5465   -0.8021 H   0  0  0  0  0  0  0  0  0  0  0  0
    1.0645   -0.2705    1.0502 H   0  0  0  0  0  0  0  0  0  0  0  0
    0.5425    1.3675    0.6810 H   0  0  0  0  0  0  0  0  0  0  0  0
    1.1439    1.0532   -1.7117 H   0  0  0  0  0  0  0  0  0  0  0  0
    2.5149    0.6921   -0.6430 H   0  0  0  0  0  0  0  0  0  0  0  0
    3.9799   -2.8257   -0.6128 H   0  0  0  0  0  0  0  0  0  0  0  0
    6.0840   -2.5496    0.6819 H   0  0  0  0  0  0  0  0  0  0  0  0
    4.8836    0.7791   -2.8234 H   0  0  0  0  0  0  0  0  0  0  0  0
    7.5573    2.0074    0.2787 H   0  0  0  0  0  0  0  0  0  0  0  0
    8.7816    2.2513   -0.9833 H   0  0  0  0  0  0  0  0  0  0  0  0
    9.5236    0.4398    0.5505 H   0  0  0  0  0  0  0  0  0  0  0  0
    9.2057   -0.2428   -1.0569 H   0  0  0  0  0  0  0  0  0  0  0  0
   -0.1413   -0.8095   -2.7455 H   0  0  0  0  0  0  0  0  0  0  0  0
    0.3096   -2.4922   -2.3939 H   0  0  0  0  0  0  0  0  0  0  0  0
   -0.3507   -2.2925   -0.0704 H   0  0  0  0  0  0  0  0  0  0  0  0
   -1.7001   -1.8445   -1.1047 H   0  0  0  0  0  0  0  0  0  0  0  0
   -4.7518    2.5828    1.3418 H   0  0  0  0  0  0  0  0  0  0  0  0
   -6.0285    2.5316    2.5544 H   0  0  0  0  0  0  0  0  0  0  0  0
   -7.6921    0.4150    2.4261 H   0  0  0  0  0  0  0  0  0  0  0  0
   -9.1737   -0.7398    0.8243 H   0  0  0  0  0  0  0  0  0  0  0  0
   -8.7176   -0.6262   -1.6134 H   0  0  0  0  0  0  0  0  0  0  0  0
   -6.7546    0.6654   -2.4440 H   0  0  0  0  0  0  0  0  0  0  0  0
  1  2  2  0
  2  3  1  0
  3  4  1  0
  4  5  1  0
  5  6  1  0
  6  7  1  0
  7  8  1  0
  8  9  1  0
  9 10  2  0
  9 11  2  0
  9 12  1  0
 12 13  2  0
 13 14  1  0
 14 15  2  0
 15 16  1  0
 16 17  2  0
 16 18  1  0
 18 19  1  0
 19 20  1  0
 20 21  1  0
  8 22  1  0
 22 23  1  0
  4 24  2  0
 24 25  1  0
 25 26  2  0
 26 27  1  0
 27 28  2  0
 28 29  1  0
 29 30  1  0
 30 31  1  0
 31 32  2  0
 32 33  1  0
 33 34  2  0
 34 35  1  0
 35 36  2  0
 36 37  1  0
 26  2  1  0
 36 31  1  0
 23  5  1  0
 29 25  1  0
 17 12  1  0
 21 15  1  0
  3 38  1  0
  5 39  1  0
  6 40  1  0
  6 41  1  0
  7 42  1  0
  7 43  1  0
 13 44  1  0
 14 45  1  0
 17 46  1  0
 19 47  1  0
 19 48  1  0
 20 49  1  0
 20 50  1  0
 22 51  1  0
 22 52  1  0
 23 53  1  0
 23 54  1  0
 30 55  1  0
 30 56  1  0
 32 57  1  0
 33 58  1  0
 34 59  1  0
 35 60  1  0
M  END
$$$$
