
     RDKit          3D

 36 37  0  0  0  0  0  0  0  0999 V2000
    0.1507    2.1189   -0.6668 O   0  0  0  0  0  0  0  0  0  0  0  0
   -0.4265    1.1282   -0.2365 C   0  0  0  0  0  0  0  0  0  0  0  0
   -1.8654    0.9237   -0.5281 C   0  0  0  0  0  0  0  0  0  0  0  0
   -2.7120    0.3133    0.3153 C   0  0  0  0  0  0  0  0  0  0  0  0
   -4.1428    0.1318    0.0192 C   0  0  0  0  0  0  0  0  0  0  0  0
   -4.9184    1.2366   -0.3692 C   0  0  0  0  0  0  0  0  0  0  0  0
   -6.2838    1.0960   -0.6313 C   0  0  0  0  0  0  0  0  0  0  0  0
   -6.8957   -0.1481   -0.5018 C   0  0  0  0  0  0  0  0  0  0  0  0
   -6.1438   -1.2537   -0.1063 C   0  0  0  0  0  0  0  0  0  0  0  0
   -4.7767   -1.1163    0.1573 C   0  0  0  0  0  0  0  0  0  0  0  0
   -3.9071   -2.5357    0.6352 Cl  0  0  0  0  0  0  0  0  0  0  0  0
    0.1797    0.1167    0.4623 N   0  0  0  0  0  0  0  0  0  0  0  0
    1.6042    0.1355    0.7370 C   0  0  0  0  0  0  0  0  0  0  0  0
    2.4323   -0.3027   -0.4731 C   0  0  0  0  0  0  0  0  0  0  0  0
    3.9071   -0.3281   -0.1595 C   0  0  0  0  0  0  0  0  0  0  0  0
    4.6679    0.8454   -0.2506 C   0  0  0  0  0  0  0  0  0  0  0  0
    6.0287    0.8312    0.0579 C   0  0  0  0  0  0  0  0  0  0  0  0
    6.6401   -0.3537    0.4631 C   0  0  0  0  0  0  0  0  0  0  0  0
    5.8913   -1.5252    0.5611 C   0  0  0  0  0  0  0  0  0  0  0  0
    4.5298   -1.5134    0.2532 C   0  0  0  0  0  0  0  0  0  0  0  0
   -2.1936    1.3633   -1.4643 H   0  0  0  0  0  0  0  0  0  0  0  0
   -2.3771   -0.0829    1.2702 H   0  0  0  0  0  0  0  0  0  0  0  0
   -4.4681    2.2235   -0.4620 H   0  0  0  0  0  0  0  0  0  0  0  0
   -6.8695    1.9617   -0.9324 H   0  0  0  0  0  0  0  0  0  0  0  0
   -7.9583   -0.2567   -0.7053 H   0  0  0  0  0  0  0  0  0  0  0  0
   -6.6286   -2.2215   -0.0049 H   0  0  0  0  0  0  0  0  0  0  0  0
   -0.3256   -0.7437    0.6260 H   0  0  0  0  0  0  0  0  0  0  0  0
    1.7735   -0.5352    1.5868 H   0  0  0  0  0  0  0  0  0  0  0  0
    1.8855    1.1480    1.0501 H   0  0  0  0  0  0  0  0  0  0  0  0
    2.1078   -1.2966   -0.8079 H   0  0  0  0  0  0  0  0  0  0  0  0
    2.2538    0.3647   -1.3257 H   0  0  0  0  0  0  0  0  0  0  0  0
    4.2018    1.7780   -0.5637 H   0  0  0  0  0  0  0  0  0  0  0  0
    6.6110    1.7457   -0.0180 H   0  0  0  0  0  0  0  0  0  0  0  0
    7.7000   -0.3639    0.7025 H   0  0  0  0  0  0  0  0  0  0  0  0
    6.3684   -2.4491    0.8774 H   0  0  0  0  0  0  0  0  0  0  0  0
    3.9597   -2.4357    0.3358 H   0  0  0  0  0  0  0  0  0  0  0  0
  1  2  2  0
  2  3  1  0
  3  4  2  3
  4  5  1  0
  5  6  2  0
  6  7  1  0
  7  8  2  0
  8  9  1  0
  9 10  2  0
 10 11  1  0
  2 12  1  0
 12 13  1  0
 13 14  1  0
 14 15  1  0
 15 16  2  0
 16 17  1  0
 17 18  2  0
 18 19  1  0
 19 20  2  0
 10  5  1  0
 20 15  1  0
  3 21  1  0
  4 22  1  0
  6 23  1  0
  7 24  1  0
  8 25  1  0
  9 26  1  0
 12 27  1  0
 13 28  1  0
 13 29  1  0
 14 30  1  0
 14 31  1  0
 16 32  1  0
 17 33  1  0
 18 34  1  0
 19 35  1  0
 20 36  1  0
M  END
$$$$
