
     RDKit          3D

 52 56  0  0  0  0  0  0  0  0999 V2000
    1.1386    1.0681    3.1729 O   0  0  0  0  0  0  0  0  0  0  0  0
    1.1806    1.3854    1.9878 C   0  0  0  0  0  0  0  0  0  0  0  0
   -0.0946    1.6439    1.2025 C   0  0  0  0  0  0  0  0  0  0  0  0
   -0.4757    0.1877    0.1852 S   0  0  0  0  0  0  0  0  0  0  0  0
   -1.8952    0.7534   -0.6363 C   0  0  0  0  0  0  0  0  0  0  0  0
   -2.1961    2.0225   -0.7831 N   0  0  0  0  0  0  0  0  0  0  0  0
   -3.2988    2.1023   -1.5843 N   0  0  0  0  0  0  0  0  0  0  0  0
   -3.6696    0.8763   -1.9070 C   0  0  0  0  0  0  0  0  0  0  0  0
   -4.9412    0.5458   -2.6221 C   0  0  0  0  0  0  0  0  0  0  0  0
   -5.9640   -0.1148   -1.7375 C   0  0  0  0  0  0  0  0  0  0  0  0
   -6.3652   -1.4377   -1.7242 C   0  0  0  0  0  0  0  0  0  0  0  0
   -7.3619   -1.6948   -0.7385 C   0  0  0  0  0  0  0  0  0  0  0  0
   -7.7011   -0.5581   -0.0404 C   0  0  0  0  0  0  0  0  0  0  0  0
   -6.8221    0.8082   -0.5712 S   0  0  0  0  0  0  0  0  0  0  0  0
   -2.7689   -0.0358   -1.3653 N   0  0  0  0  0  0  0  0  0  0  0  0
   -2.7619   -1.4440   -1.5310 C   0  0  0  0  0  0  0  0  0  0  0  0
   -2.9006   -1.9969   -2.8108 C   0  0  0  0  0  0  0  0  0  0  0  0
   -2.9007   -3.3839   -2.9735 C   0  0  0  0  0  0  0  0  0  0  0  0
   -2.7643   -4.2182   -1.8652 C   0  0  0  0  0  0  0  0  0  0  0  0
   -2.6209   -3.6693   -0.5917 C   0  0  0  0  0  0  0  0  0  0  0  0
   -2.6156   -2.2836   -0.4203 C   0  0  0  0  0  0  0  0  0  0  0  0
    2.3242    1.5527    1.2196 N   0  0  0  0  0  0  0  0  0  0  0  0
    3.6663    1.4140    1.6288 C   0  0  0  0  0  0  0  0  0  0  0  0
    4.0580    1.1131    2.9362 C   0  0  0  0  0  0  0  0  0  0  0  0
    5.4137    0.9868    3.2612 C   0  0  0  0  0  0  0  0  0  0  0  0
    6.3854    1.1596    2.2808 C   0  0  0  0  0  0  0  0  0  0  0  0
    6.0048    1.4896    0.9788 C   0  0  0  0  0  0  0  0  0  0  0  0
    4.6528    1.6014    0.6512 C   0  0  0  0  0  0  0  0  0  0  0  0
    6.9040    1.7107   -0.0342 O   0  0  0  0  0  0  0  0  0  0  0  0
    8.2280    1.9055    0.4780 C   0  0  0  0  0  0  0  0  0  0  0  0
    8.5554    0.8614    1.5331 C   0  0  0  0  0  0  0  0  0  0  0  0
    7.6908    0.9994    2.6664 O   0  0  0  0  0  0  0  0  0  0  0  0
   -0.9096    1.8377    1.9070 H   0  0  0  0  0  0  0  0  0  0  0  0
    0.0405    2.5349    0.5806 H   0  0  0  0  0  0  0  0  0  0  0  0
   -4.7461   -0.0749   -3.5012 H   0  0  0  0  0  0  0  0  0  0  0  0
   -5.3682    1.4750   -3.0233 H   0  0  0  0  0  0  0  0  0  0  0  0
   -5.9607   -2.1945   -2.3859 H   0  0  0  0  0  0  0  0  0  0  0  0
   -7.8095   -2.6638   -0.5543 H   0  0  0  0  0  0  0  0  0  0  0  0
   -8.4260   -0.4606    0.7565 H   0  0  0  0  0  0  0  0  0  0  0  0
   -2.9600   -1.3733   -3.6989 H   0  0  0  0  0  0  0  0  0  0  0  0
   -2.9949   -3.8162   -3.9670 H   0  0  0  0  0  0  0  0  0  0  0  0
   -2.7630   -5.2982   -1.9934 H   0  0  0  0  0  0  0  0  0  0  0  0
   -2.5160   -4.3220    0.2721 H   0  0  0  0  0  0  0  0  0  0  0  0
   -2.5348   -1.8875    0.5897 H   0  0  0  0  0  0  0  0  0  0  0  0
    2.1801    1.7598    0.2377 H   0  0  0  0  0  0  0  0  0  0  0  0
    3.3337    0.9657    3.7314 H   0  0  0  0  0  0  0  0  0  0  0  0
    5.7044    0.7426    4.2794 H   0  0  0  0  0  0  0  0  0  0  0  0
    4.3864    1.8462   -0.3734 H   0  0  0  0  0  0  0  0  0  0  0  0
    8.2989    2.9229    0.8836 H   0  0  0  0  0  0  0  0  0  0  0  0
    8.9243    1.8242   -0.3634 H   0  0  0  0  0  0  0  0  0  0  0  0
    9.5846    0.9877    1.8837 H   0  0  0  0  0  0  0  0  0  0  0  0
    8.4517   -0.1566    1.1366 H   0  0  0  0  0  0  0  0  0  0  0  0
  1  2  2  0
  2  3  1  0
  3  4  1  0
  4  5  1  0
  5  6  2  0
  6  7  1  0
  7  8  2  0
  8  9  1  0
  9 10  1  0
 10 11  2  0
 11 12  1  0
 12 13  2  0
 13 14  1  0
  8 15  1  0
 15 16  1  0
 16 17  2  0
 17 18  1  0
 18 19  2  0
 19 20  1  0
 20 21  2  0
  2 22  1  0
 22 23  1  0
 23 24  2  0
 24 25  1  0
 25 26  2  0
 26 27  1  0
 27 28  2  0
 27 29  1  0
 29 30  1  0
 30 31  1  0
 31 32  1  0
 15  5  1  0
 21 16  1  0
 28 23  1  0
 14 10  1  0
 32 26  1  0
  3 33  1  0
  3 34  1  0
  9 35  1  0
  9 36  1  0
 11 37  1  0
 12 38  1  0
 13 39  1  0
 17 40  1  0
 18 41  1  0
 19 42  1  0
 20 43  1  0
 21 44  1  0
 22 45  1  0
 24 46  1  0
 25 47  1  0
 28 48  1  0
 30 49  1  0
 30 50  1  0
 31 51  1  0
 31 52  1  0
M  END
$$$$
