
     RDKit          3D

 32 32  0  0  0  0  0  0  0  0999 V2000
   -2.2999    3.4664   -2.8928 C   0  0  0  0  0  0  0  0  0  0  0  0
   -1.3526    2.8112   -3.2348 C   0  0  0  0  0  0  0  0  0  0  0  0
   -0.1929    2.0200   -3.6763 C   0  0  0  0  0  0  0  0  0  0  0  0
   -0.1578    0.6371   -3.1986 N   0  0  0  0  0  0  0  0  0  0  0  0
   -1.3410   -0.1396   -3.5418 C   0  0  0  0  0  0  0  0  0  0  0  0
    0.3024    0.4480   -1.8199 C   0  0  0  0  0  0  0  0  0  0  0  0
   -0.6416    0.8903   -0.6929 C   0  0  0  0  0  0  0  0  0  0  0  0
   -0.0544    0.5852    0.6863 C   0  0  0  0  0  0  0  0  0  0  0  0
    0.0599   -0.8282    0.8370 O   0  0  0  0  0  0  0  0  0  0  0  0
    0.6035   -1.3137    1.9972 C   0  0  0  0  0  0  0  0  0  0  0  0
    0.9927   -0.5219    3.0828 C   0  0  0  0  0  0  0  0  0  0  0  0
    1.5361   -1.1171    4.2247 C   0  0  0  0  0  0  0  0  0  0  0  0
    2.0114   -0.1306    5.5532 Cl  0  0  0  0  0  0  0  0  0  0  0  0
    1.6977   -2.4983    4.3027 C   0  0  0  0  0  0  0  0  0  0  0  0
    1.3110   -3.2966    3.2274 C   0  0  0  0  0  0  0  0  0  0  0  0
    0.7666   -2.7079    2.0818 C   0  0  0  0  0  0  0  0  0  0  0  0
    0.3064   -3.7491    0.7796 Cl  0  0  0  0  0  0  0  0  0  0  0  0
   -3.1424    4.0449   -2.5913 H   0  0  0  0  0  0  0  0  0  0  0  0
    0.7333    2.5338   -3.3907 H   0  0  0  0  0  0  0  0  0  0  0  0
   -0.1818    2.0035   -4.7737 H   0  0  0  0  0  0  0  0  0  0  0  0
   -2.2416    0.1958   -3.0175 H   0  0  0  0  0  0  0  0  0  0  0  0
   -1.1871   -1.1985   -3.3055 H   0  0  0  0  0  0  0  0  0  0  0  0
   -1.5356   -0.0888   -4.6190 H   0  0  0  0  0  0  0  0  0  0  0  0
    0.5362   -0.6172   -1.6937 H   0  0  0  0  0  0  0  0  0  0  0  0
    1.2659    0.9602   -1.6987 H   0  0  0  0  0  0  0  0  0  0  0  0
   -1.6028    0.3731   -0.7886 H   0  0  0  0  0  0  0  0  0  0  0  0
   -0.8247    1.9669   -0.7478 H   0  0  0  0  0  0  0  0  0  0  0  0
    0.9287    1.0620    0.7803 H   0  0  0  0  0  0  0  0  0  0  0  0
   -0.7334    0.9839    1.4493 H   0  0  0  0  0  0  0  0  0  0  0  0
    0.8821    0.5570    3.0686 H   0  0  0  0  0  0  0  0  0  0  0  0
    2.1207   -2.9569    5.1927 H   0  0  0  0  0  0  0  0  0  0  0  0
    1.4351   -4.3751    3.2851 H   0  0  0  0  0  0  0  0  0  0  0  0
  1  2  3  0
  2  3  1  0
  3  4  1  0
  4  5  1  0
  4  6  1  0
  6  7  1  0
  7  8  1  0
  8  9  1  0
  9 10  1  0
 10 11  2  0
 11 12  1  0
 12 13  1  0
 12 14  2  0
 14 15  1  0
 15 16  2  0
 16 17  1  0
 16 10  1  0
  1 18  1  0
  3 19  1  0
  3 20  1  0
  5 21  1  0
  5 22  1  0
  5 23  1  0
  6 24  1  0
  6 25  1  0
  7 26  1  0
  7 27  1  0
  8 28  1  0
  8 29  1  0
 11 30  1  0
 14 31  1  0
 15 32  1  0
M  END
$$$$
