
     RDKit          3D

 57 61  0  0  0  0  0  0  0  0999 V2000
    6.4700   -0.0419    1.1670 C   0  0  0  0  0  0  0  0  0  0  0  0
    5.2055    0.0875    0.3159 C   0  0  0  0  0  0  0  0  0  0  0  0
    5.4713    1.0050   -0.8764 C   0  0  0  0  0  0  0  0  0  0  0  0
    4.0520    0.6491    1.1513 C   0  0  0  0  0  0  0  0  0  0  0  0
    4.2771    1.4137    2.0918 O   0  0  0  0  0  0  0  0  0  0  0  0
    2.7515    0.3111    0.7815 N   0  0  0  0  0  0  0  0  0  0  0  0
    2.4125   -0.6215   -0.2901 C   0  0  0  0  0  0  0  0  0  0  0  0
    0.9441   -0.5198   -0.6920 C   0  0  0  0  0  0  0  0  0  0  0  0
    0.0133   -0.8558    0.5012 C   0  0  0  0  0  0  0  0  0  0  0  0
    0.5660   -0.2249    1.8156 C   0  0  0  0  0  0  0  0  0  0  0  0
    1.6460    0.8283    1.5834 C   0  0  0  0  0  0  0  0  0  0  0  0
    0.1117   -2.2899    0.7472 O   0  0  0  0  0  0  0  0  0  0  0  0
   -0.6493   -3.1269   -0.0151 C   0  0  0  0  0  0  0  0  0  0  0  0
   -0.3538   -4.4873    0.0860 C   0  0  0  0  0  0  0  0  0  0  0  0
   -1.0617   -5.4142   -0.6814 C   0  0  0  0  0  0  0  0  0  0  0  0
   -2.0615   -4.9740   -1.5436 C   0  0  0  0  0  0  0  0  0  0  0  0
   -2.7326   -5.8664   -2.2823 F   0  0  0  0  0  0  0  0  0  0  0  0
   -2.3750   -3.6255   -1.6473 C   0  0  0  0  0  0  0  0  0  0  0  0
   -1.6690   -2.7081   -0.8662 C   0  0  0  0  0  0  0  0  0  0  0  0
   -1.9826   -1.2751   -0.9278 C   0  0  0  0  0  0  0  0  0  0  0  0
   -2.6096   -0.8242   -1.8823 O   0  0  0  0  0  0  0  0  0  0  0  0
   -1.4611   -0.4385    0.2337 C   0  0  0  0  0  0  0  0  0  0  0  0
   -1.6872    1.0467   -0.0015 C   0  0  0  0  0  0  0  0  0  0  0  0
   -3.0034    1.1862    0.6870 C   0  0  0  0  0  0  0  0  0  0  0  0
   -3.8635    2.3805    0.5144 C   0  0  0  0  0  0  0  0  0  0  0  0
   -5.1268    2.3983    1.1217 C   0  0  0  0  0  0  0  0  0  0  0  0
   -5.9622    3.5100    0.9819 C   0  0  0  0  0  0  0  0  0  0  0  0
   -5.5349    4.6057    0.2361 C   0  0  0  0  0  0  0  0  0  0  0  0
   -6.5600    5.9758    0.0626 Cl  0  0  0  0  0  0  0  0  0  0  0  0
   -4.2794    4.5993   -0.3700 C   0  0  0  0  0  0  0  0  0  0  0  0
   -3.4413    3.4875   -0.2316 C   0  0  0  0  0  0  0  0  0  0  0  0
   -3.3110    0.2003    1.4686 N   0  0  0  0  0  0  0  0  0  0  0  0
   -2.2750   -0.7547    1.3767 O   0  0  0  0  0  0  0  0  0  0  0  0
    6.8205    0.9331    1.5235 H   0  0  0  0  0  0  0  0  0  0  0  0
    6.2823   -0.6682    2.0459 H   0  0  0  0  0  0  0  0  0  0  0  0
    7.2799   -0.5013    0.5905 H   0  0  0  0  0  0  0  0  0  0  0  0
    4.9519   -0.9170   -0.0365 H   0  0  0  0  0  0  0  0  0  0  0  0
    6.2612    0.5936   -1.5135 H   0  0  0  0  0  0  0  0  0  0  0  0
    4.5786    1.1439   -1.4931 H   0  0  0  0  0  0  0  0  0  0  0  0
    5.7880    2.0002   -0.5441 H   0  0  0  0  0  0  0  0  0  0  0  0
    2.6529   -1.6314    0.0618 H   0  0  0  0  0  0  0  0  0  0  0  0
    3.0368   -0.4217   -1.1642 H   0  0  0  0  0  0  0  0  0  0  0  0
    0.7746   -1.2045   -1.5306 H   0  0  0  0  0  0  0  0  0  0  0  0
    0.7486    0.4942   -1.0613 H   0  0  0  0  0  0  0  0  0  0  0  0
    0.9939   -1.0104    2.4541 H   0  0  0  0  0  0  0  0  0  0  0  0
   -0.2351    0.2278    2.4104 H   0  0  0  0  0  0  0  0  0  0  0  0
    1.2412    1.6941    1.0483 H   0  0  0  0  0  0  0  0  0  0  0  0
    2.0024    1.1944    2.5520 H   0  0  0  0  0  0  0  0  0  0  0  0
    0.4305   -4.8267    0.7585 H   0  0  0  0  0  0  0  0  0  0  0  0
   -0.8400   -6.4751   -0.6135 H   0  0  0  0  0  0  0  0  0  0  0  0
   -3.1659   -3.3047   -2.3188 H   0  0  0  0  0  0  0  0  0  0  0  0
   -1.7233    1.3331   -1.0547 H   0  0  0  0  0  0  0  0  0  0  0  0
   -0.9720    1.6827    0.5252 H   0  0  0  0  0  0  0  0  0  0  0  0
   -5.4709    1.5463    1.7058 H   0  0  0  0  0  0  0  0  0  0  0  0
   -6.9403    3.5113    1.4561 H   0  0  0  0  0  0  0  0  0  0  0  0
   -3.9476    5.4563   -0.9511 H   0  0  0  0  0  0  0  0  0  0  0  0
   -2.4682    3.5139   -0.7124 H   0  0  0  0  0  0  0  0  0  0  0  0
  1  2  1  0
  2  3  1  0
  2  4  1  0
  4  5  2  0
  4  6  1  0
  6  7  1  0
  7  8  1  0
  8  9  1  0
  9 10  1  0
 10 11  1  0
  9 12  1  0
 12 13  1  0
 13 14  2  0
 14 15  1  0
 15 16  2  0
 16 17  1  0
 16 18  1  0
 18 19  2  0
 19 20  1  0
 20 21  2  0
 20 22  1  0
 22 23  1  0
 23 24  1  0
 24 25  1  0
 25 26  2  0
 26 27  1  0
 27 28  2  0
 28 29  1  0
 28 30  1  0
 30 31  2  0
 24 32  2  0
 32 33  1  0
 11  6  1  0
 19 13  1  0
 33 22  1  0
 22  9  1  0
 31 25  1  0
  1 34  1  0
  1 35  1  0
  1 36  1  0
  2 37  1  0
  3 38  1  0
  3 39  1  0
  3 40  1  0
  7 41  1  0
  7 42  1  0
  8 43  1  0
  8 44  1  0
 10 45  1  0
 10 46  1  0
 11 47  1  0
 11 48  1  0
 14 49  1  0
 15 50  1  0
 18 51  1  0
 23 52  1  0
 23 53  1  0
 26 54  1  0
 27 55  1  0
 30 56  1  0
 31 57  1  0
M  END
$$$$
