
     RDKit          3D

 56 58  0  0  0  0  0  0  0  0999 V2000
    9.2589   -0.0575    2.2980 C   0  0  0  0  0  0  0  0  0  0  0  0
    8.4184    0.8406    1.5850 O   0  0  0  0  0  0  0  0  0  0  0  0
    7.6426    0.3059    0.5936 C   0  0  0  0  0  0  0  0  0  0  0  0
    6.8232    1.2240   -0.0662 C   0  0  0  0  0  0  0  0  0  0  0  0
    5.9790    0.8127   -1.1001 C   0  0  0  0  0  0  0  0  0  0  0  0
    5.9482   -0.5295   -1.4973 C   0  0  0  0  0  0  0  0  0  0  0  0
    5.0211   -0.9775   -2.5962 C   0  0  0  0  0  0  0  0  0  0  0  0
    3.7229   -1.3073   -2.0707 N   0  0  0  0  0  0  0  0  0  0  0  0
    2.6812   -0.4112   -2.0618 C   0  0  0  0  0  0  0  0  0  0  0  0
    2.6641    0.6895   -2.5946 O   0  0  0  0  0  0  0  0  0  0  0  0
    1.4456   -0.9158   -1.2809 C   0  0  0  0  0  0  0  0  0  0  0  0
    1.4407   -2.0426   -0.8065 O   0  0  0  0  0  0  0  0  0  0  0  0
    0.4249    0.0013   -1.2091 N   0  0  0  0  0  0  0  0  0  0  0  0
   -0.9027   -0.3538   -0.7314 C   0  0  0  0  0  0  0  0  0  0  0  0
   -1.7324    0.8925   -0.3535 C   0  0  0  0  0  0  0  0  0  0  0  0
   -1.7282    1.7735   -1.5090 O   0  0  0  0  0  0  0  0  0  0  0  0
   -3.0882    2.1031   -1.8089 C   0  0  0  0  0  0  0  0  0  0  0  0
   -3.9023    0.9600   -1.2479 C   0  0  0  0  0  0  0  0  0  0  0  0
   -3.1532    0.6553   -0.0284 N   0  0  0  0  0  0  0  0  0  0  0  0
   -3.5409   -0.7232    0.8411 S   0  0  0  0  0  6  0  0  0  0  0  0
   -2.7044   -0.7506    2.0204 O   0  0  0  0  0  0  0  0  0  0  0  0
   -3.5683   -1.8306   -0.0900 O   0  0  0  0  0  0  0  0  0  0  0  0
   -5.2014   -0.3890    1.3670 C   0  0  0  0  0  0  0  0  0  0  0  0
   -6.2678   -1.1101    0.8259 C   0  0  0  0  0  0  0  0  0  0  0  0
   -7.5679   -0.8342    1.2525 C   0  0  0  0  0  0  0  0  0  0  0  0
   -7.8062    0.1601    2.2120 C   0  0  0  0  0  0  0  0  0  0  0  0
   -9.2020    0.4259    2.6958 C   0  0  0  0  0  0  0  0  0  0  0  0
   -6.7224    0.8582    2.7630 C   0  0  0  0  0  0  0  0  0  0  0  0
   -5.4200    0.5879    2.3415 C   0  0  0  0  0  0  0  0  0  0  0  0
    6.7638   -1.4503   -0.8262 C   0  0  0  0  0  0  0  0  0  0  0  0
    7.6084   -1.0347    0.2102 C   0  0  0  0  0  0  0  0  0  0  0  0
    9.9990   -0.5165    1.6340 H   0  0  0  0  0  0  0  0  0  0  0  0
    9.8017    0.5202    3.0524 H   0  0  0  0  0  0  0  0  0  0  0  0
    8.6705   -0.8186    2.8216 H   0  0  0  0  0  0  0  0  0  0  0  0
    6.8385    2.2699    0.2305 H   0  0  0  0  0  0  0  0  0  0  0  0
    5.3412    1.5457   -1.5913 H   0  0  0  0  0  0  0  0  0  0  0  0
    4.9361   -0.1995   -3.3635 H   0  0  0  0  0  0  0  0  0  0  0  0
    5.4163   -1.8743   -3.0859 H   0  0  0  0  0  0  0  0  0  0  0  0
    3.6092   -2.1314   -1.4876 H   0  0  0  0  0  0  0  0  0  0  0  0
    0.5217    0.8279   -1.7977 H   0  0  0  0  0  0  0  0  0  0  0  0
   -1.3820   -0.8976   -1.5538 H   0  0  0  0  0  0  0  0  0  0  0  0
   -0.7949   -1.0414    0.1128 H   0  0  0  0  0  0  0  0  0  0  0  0
   -1.2544    1.4381    0.4674 H   0  0  0  0  0  0  0  0  0  0  0  0
   -3.2162    2.2297   -2.8871 H   0  0  0  0  0  0  0  0  0  0  0  0
   -3.3251    3.0487   -1.3086 H   0  0  0  0  0  0  0  0  0  0  0  0
   -4.9334    1.2617   -1.0521 H   0  0  0  0  0  0  0  0  0  0  0  0
   -3.8848    0.1072   -1.9347 H   0  0  0  0  0  0  0  0  0  0  0  0
   -6.0989   -1.8874    0.0842 H   0  0  0  0  0  0  0  0  0  0  0  0
   -8.3966   -1.4040    0.8364 H   0  0  0  0  0  0  0  0  0  0  0  0
   -9.4301   -0.2174    3.5512 H   0  0  0  0  0  0  0  0  0  0  0  0
   -9.9331    0.2343    1.9034 H   0  0  0  0  0  0  0  0  0  0  0  0
   -9.3178    1.4721    2.9978 H   0  0  0  0  0  0  0  0  0  0  0  0
   -6.8881    1.6134    3.5288 H   0  0  0  0  0  0  0  0  0  0  0  0
   -4.5844    1.1322    2.7764 H   0  0  0  0  0  0  0  0  0  0  0  0
    6.7480   -2.5019   -1.1044 H   0  0  0  0  0  0  0  0  0  0  0  0
    8.2230   -1.7841    0.6973 H   0  0  0  0  0  0  0  0  0  0  0  0
  1  2  1  0
  2  3  1  0
  3  4  2  0
  4  5  1  0
  5  6  2  0
  6  7  1  0
  7  8  1  0
  8  9  1  0
  9 10  2  0
  9 11  1  0
 11 12  2  0
 11 13  1  0
 13 14  1  0
 14 15  1  0
 15 16  1  0
 16 17  1  0
 17 18  1  0
 18 19  1  0
 19 20  1  0
 20 21  2  0
 20 22  2  0
 20 23  1  0
 23 24  2  0
 24 25  1  0
 25 26  2  0
 26 27  1  0
 26 28  1  0
 28 29  2  0
  6 30  1  0
 30 31  2  0
 31  3  1  0
 19 15  1  0
 29 23  1  0
  1 32  1  0
  1 33  1  0
  1 34  1  0
  4 35  1  0
  5 36  1  0
  7 37  1  0
  7 38  1  0
  8 39  1  0
 13 40  1  0
 14 41  1  0
 14 42  1  0
 15 43  1  0
 17 44  1  0
 17 45  1  0
 18 46  1  0
 18 47  1  0
 24 48  1  0
 25 49  1  0
 27 50  1  0
 27 51  1  0
 27 52  1  0
 28 53  1  0
 29 54  1  0
 30 55  1  0
 31 56  1  0
M  END
$$$$
