
     RDKit          3D

 60 65  0  0  0  0  0  0  0  0999 V2000
    1.0655   -1.7434    3.5932 O   0  0  0  0  0  0  0  0  0  0  0  0
    1.6305   -1.5599    2.5212 C   0  0  0  0  0  0  0  0  0  0  0  0
    1.0428   -0.8633    1.4723 N   0  0  0  0  0  0  0  0  0  0  0  0
    1.6427   -0.6627    0.2291 C   0  0  0  0  0  0  0  0  0  0  0  0
    0.8287    0.1199   -0.7933 C   0  0  0  0  0  0  0  0  0  0  0  0
   -0.4631   -0.6523   -1.1216 C   0  0  0  0  0  0  0  0  0  0  0  0
   -1.5914    0.2165   -1.6536 C   0  0  0  0  0  0  0  0  0  0  0  0
   -1.7458    1.4550   -0.8579 N   0  0  0  0  0  0  0  0  0  0  0  0
   -2.4347    1.3380    0.7025 S   0  0  0  0  0  6  0  0  0  0  0  0
   -1.6669    0.3472    1.4361 O   0  0  0  0  0  0  0  0  0  0  0  0
   -2.5993    2.6770    1.2225 O   0  0  0  0  0  0  0  0  0  0  0  0
   -4.0508    0.6891    0.3831 C   0  0  0  0  0  0  0  0  0  0  0  0
   -4.4306   -0.5486    0.9122 C   0  0  0  0  0  0  0  0  0  0  0  0
   -5.7086   -1.0428    0.6459 C   0  0  0  0  0  0  0  0  0  0  0  0
   -6.5926   -0.3021   -0.1403 C   0  0  0  0  0  0  0  0  0  0  0  0
   -6.2132    0.9500   -0.6397 C   0  0  0  0  0  0  0  0  0  0  0  0
   -4.9364    1.4452   -0.3912 C   0  0  0  0  0  0  0  0  0  0  0  0
   -7.0458    1.7417   -1.3885 O   0  0  0  0  0  0  0  0  0  0  0  0
   -8.4100    1.3255   -1.2577 C   0  0  0  0  0  0  0  0  0  0  0  0
   -8.5265   -0.1813   -1.4172 C   0  0  0  0  0  0  0  0  0  0  0  0
   -7.8234   -0.8613   -0.3715 O   0  0  0  0  0  0  0  0  0  0  0  0
   -0.5199    2.2842   -0.9424 C   0  0  0  0  0  0  0  0  0  0  0  0
    0.6476    1.5638   -0.2904 C   0  0  0  0  0  0  0  0  0  0  0  0
    2.8321   -1.0942   -0.0914 N   0  0  0  0  0  0  0  0  0  0  0  0
    3.4370   -1.7562    0.9258 C   0  0  0  0  0  0  0  0  0  0  0  0
    2.9488   -2.0264    2.1819 C   0  0  0  0  0  0  0  0  0  0  0  0
    3.8626   -2.7251    2.9107 N   0  0  0  0  0  0  0  0  0  0  0  0
    4.9371   -2.8975    2.1397 N   0  0  0  0  0  0  0  0  0  0  0  0
    4.6913   -2.2945    0.9499 N   0  0  0  0  0  0  0  0  0  0  0  0
    5.6810   -2.3024   -0.1070 C   0  0  0  0  0  0  0  0  0  0  0  0
    6.4670   -1.0147   -0.1333 C   0  0  0  0  0  0  0  0  0  0  0  0
    7.5482   -0.8184    0.7416 C   0  0  0  0  0  0  0  0  0  0  0  0
    8.2628    0.3828    0.7326 C   0  0  0  0  0  0  0  0  0  0  0  0
    7.9007    1.4018   -0.1463 C   0  0  0  0  0  0  0  0  0  0  0  0
    6.8258    1.2133   -1.0058 C   0  0  0  0  0  0  0  0  0  0  0  0
    6.4698    2.1963   -1.8436 F   0  0  0  0  0  0  0  0  0  0  0  0
    6.1077    0.0216   -1.0073 C   0  0  0  0  0  0  0  0  0  0  0  0
    0.1092   -0.5034    1.6671 H   0  0  0  0  0  0  0  0  0  0  0  0
    1.4132    0.1747   -1.7222 H   0  0  0  0  0  0  0  0  0  0  0  0
   -0.8273   -1.2167   -0.2572 H   0  0  0  0  0  0  0  0  0  0  0  0
   -0.2310   -1.4267   -1.8647 H   0  0  0  0  0  0  0  0  0  0  0  0
   -2.5298   -0.3459   -1.6840 H   0  0  0  0  0  0  0  0  0  0  0  0
   -1.3831    0.4981   -2.6936 H   0  0  0  0  0  0  0  0  0  0  0  0
   -3.7491   -1.1287    1.5306 H   0  0  0  0  0  0  0  0  0  0  0  0
   -6.0169   -2.0053    1.0470 H   0  0  0  0  0  0  0  0  0  0  0  0
   -4.6415    2.4154   -0.7837 H   0  0  0  0  0  0  0  0  0  0  0  0
   -8.9873    1.8343   -2.0350 H   0  0  0  0  0  0  0  0  0  0  0  0
   -8.7849    1.6569   -0.2822 H   0  0  0  0  0  0  0  0  0  0  0  0
   -8.1218   -0.5137   -2.3805 H   0  0  0  0  0  0  0  0  0  0  0  0
   -9.5758   -0.4878   -1.3637 H   0  0  0  0  0  0  0  0  0  0  0  0
   -0.6855    3.2620   -0.4778 H   0  0  0  0  0  0  0  0  0  0  0  0
   -0.2988    2.4863   -1.9975 H   0  0  0  0  0  0  0  0  0  0  0  0
    0.5256    1.5962    0.7974 H   0  0  0  0  0  0  0  0  0  0  0  0
    1.5701    2.1260   -0.4828 H   0  0  0  0  0  0  0  0  0  0  0  0
    6.3467   -3.1598    0.0480 H   0  0  0  0  0  0  0  0  0  0  0  0
    5.1598   -2.4697   -1.0571 H   0  0  0  0  0  0  0  0  0  0  0  0
    7.8337   -1.5989    1.4464 H   0  0  0  0  0  0  0  0  0  0  0  0
    9.0953    0.5246    1.4170 H   0  0  0  0  0  0  0  0  0  0  0  0
    8.4438    2.3415   -0.1608 H   0  0  0  0  0  0  0  0  0  0  0  0
    5.2647   -0.0813   -1.6852 H   0  0  0  0  0  0  0  0  0  0  0  0
  1  2  2  0
  2  3  1  0
  3  4  1  0
  4  5  1  0
  5  6  1  0
  6  7  1  0
  7  8  1  0
  8  9  1  0
  9 10  2  0
  9 11  2  0
  9 12  1  0
 12 13  2  0
 13 14  1  0
 14 15  2  0
 15 16  1  0
 16 17  2  0
 16 18  1  0
 18 19  1  0
 19 20  1  0
 20 21  1  0
  8 22  1  0
 22 23  1  0
  4 24  2  0
 24 25  1  0
 25 26  2  0
 26 27  1  0
 27 28  2  0
 28 29  1  0
 29 30  1  0
 30 31  1  0
 31 32  2  0
 32 33  1  0
 33 34  2  0
 34 35  1  0
 35 36  1  0
 35 37  2  0
 26  2  1  0
 37 31  1  0
 23  5  1  0
 29 25  1  0
 17 12  1  0
 21 15  1  0
  3 38  1  0
  5 39  1  0
  6 40  1  0
  6 41  1  0
  7 42  1  0
  7 43  1  0
 13 44  1  0
 14 45  1  0
 17 46  1  0
 19 47  1  0
 19 48  1  0
 20 49  1  0
 20 50  1  0
 22 51  1  0
 22 52  1  0
 23 53  1  0
 23 54  1  0
 30 55  1  0
 30 56  1  0
 32 57  1  0
 33 58  1  0
 34 59  1  0
 37 60  1  0
M  END
$$$$
