
     RDKit          3D

 56 60  0  0  0  0  0  0  0  0999 V2000
   -5.7367   -0.0468   -1.4585 C   0  0  0  0  0  0  0  0  0  0  0  0
   -4.3222    0.2374   -1.0333 C   0  0  0  0  0  0  0  0  0  0  0  0
   -3.6677    1.3492   -1.5892 C   0  0  0  0  0  0  0  0  0  0  0  0
   -2.3571    1.6737   -1.2235 C   0  0  0  0  0  0  0  0  0  0  0  0
   -1.6632    0.9061   -0.2786 C   0  0  0  0  0  0  0  0  0  0  0  0
   -0.2851    1.2346    0.1039 C   0  0  0  0  0  0  0  0  0  0  0  0
    0.6383    0.4101   -0.4340 N   0  0  0  0  0  0  0  0  0  0  0  0
    1.9651    0.6001   -0.1666 N   0  0  0  0  0  0  0  0  0  0  0  0
    2.3819    1.5978    0.6402 C   0  0  0  0  0  0  0  0  0  0  0  0
    3.7681    1.7834    0.8945 N   0  0  0  0  0  0  0  0  0  0  0  0
    4.8519    0.9240    0.5905 C   0  0  0  0  0  0  0  0  0  0  0  0
    4.7092   -0.4761    0.4659 C   0  0  0  0  0  0  0  0  0  0  0  0
    5.8097   -1.3088    0.2304 C   0  0  0  0  0  0  0  0  0  0  0  0
    7.0519   -0.7236    0.1542 C   0  0  0  0  0  0  0  0  0  0  0  0
    7.2159    0.6302    0.3105 C   0  0  0  0  0  0  0  0  0  0  0  0
    6.1461    1.4720    0.5389 C   0  0  0  0  0  0  0  0  0  0  0  0
    8.5207    1.0089    0.2172 O   0  0  0  0  0  0  0  0  0  0  0  0
    9.1576   -0.2661   -0.0082 C   0  0  0  0  0  0  0  0  0  0  0  0
    8.2290   -1.3699   -0.0613 O   0  0  0  0  0  0  0  0  0  0  0  0
    1.4457    2.4709    1.2450 C   0  0  0  0  0  0  0  0  0  0  0  0
    1.8122    3.5136    2.1349 C   0  0  0  0  0  0  0  0  0  0  0  0
    0.8641    4.3606    2.7094 C   0  0  0  0  0  0  0  0  0  0  0  0
   -0.4802    4.1876    2.4183 C   0  0  0  0  0  0  0  0  0  0  0  0
   -0.8733    3.1613    1.5607 C   0  0  0  0  0  0  0  0  0  0  0  0
    0.0714    2.2893    0.9612 C   0  0  0  0  0  0  0  0  0  0  0  0
   -2.3118   -0.2026    0.2847 C   0  0  0  0  0  0  0  0  0  0  0  0
   -3.6255   -0.5365   -0.0861 C   0  0  0  0  0  0  0  0  0  0  0  0
   -4.3581   -1.9663    0.6860 S   0  0  0  0  0  6  0  0  0  0  0  0
   -5.7325   -1.6677    1.0142 O   0  0  0  0  0  0  0  0  0  0  0  0
   -3.4389   -2.4868    1.6736 O   0  0  0  0  0  0  0  0  0  0  0  0
   -4.3272   -3.0805   -0.5956 N   0  0  0  0  0  0  0  0  0  0  0  0
   -5.1125   -4.3231   -0.3351 C   0  0  0  0  0  0  0  0  0  0  0  0
   -5.5944   -4.8877   -1.6697 C   0  0  0  0  0  0  0  0  0  0  0  0
   -4.4937   -5.0620   -2.5597 O   0  0  0  0  0  0  0  0  0  0  0  0
   -5.8738   -1.1015   -1.7126 H   0  0  0  0  0  0  0  0  0  0  0  0
   -6.0014    0.5225   -2.3565 H   0  0  0  0  0  0  0  0  0  0  0  0
   -6.4368    0.2425   -0.6686 H   0  0  0  0  0  0  0  0  0  0  0  0
   -4.1743    1.9747   -2.3235 H   0  0  0  0  0  0  0  0  0  0  0  0
   -1.8741    2.5330   -1.6888 H   0  0  0  0  0  0  0  0  0  0  0  0
    4.0077    2.7539    0.7239 H   0  0  0  0  0  0  0  0  0  0  0  0
    3.7309   -0.9417    0.5560 H   0  0  0  0  0  0  0  0  0  0  0  0
    5.6858   -2.3799    0.1172 H   0  0  0  0  0  0  0  0  0  0  0  0
    6.3202    2.5340    0.6730 H   0  0  0  0  0  0  0  0  0  0  0  0
    9.8718   -0.4477    0.8051 H   0  0  0  0  0  0  0  0  0  0  0  0
    9.7080   -0.2222   -0.9547 H   0  0  0  0  0  0  0  0  0  0  0  0
    2.8544    3.6648    2.4106 H   0  0  0  0  0  0  0  0  0  0  0  0
    1.1797    5.1430    3.3902 H   0  0  0  0  0  0  0  0  0  0  0  0
   -1.2260    4.8388    2.8649 H   0  0  0  0  0  0  0  0  0  0  0  0
   -1.9388    3.0420    1.3688 H   0  0  0  0  0  0  0  0  0  0  0  0
   -1.7757   -0.8091    1.0156 H   0  0  0  0  0  0  0  0  0  0  0  0
   -3.3479   -3.3327   -0.7654 H   0  0  0  0  0  0  0  0  0  0  0  0
   -5.9802   -4.1336    0.3045 H   0  0  0  0  0  0  0  0  0  0  0  0
   -4.4496   -5.0437    0.1611 H   0  0  0  0  0  0  0  0  0  0  0  0
   -6.0725   -5.8623   -1.5218 H   0  0  0  0  0  0  0  0  0  0  0  0
   -6.3154   -4.2149   -2.1445 H   0  0  0  0  0  0  0  0  0  0  0  0
   -4.1511   -4.1664   -2.7284 H   0  0  0  0  0  0  0  0  0  0  0  0
  1  2  1  0
  2  3  2  0
  3  4  1  0
  4  5  2  0
  5  6  1  0
  6  7  2  0
  7  8  1  0
  8  9  2  0
  9 10  1  0
 10 11  1  0
 11 12  2  0
 12 13  1  0
 13 14  2  0
 14 15  1  0
 15 16  2  0
 15 17  1  0
 17 18  1  0
 18 19  1  0
  9 20  1  0
 20 21  2  0
 21 22  1  0
 22 23  2  0
 23 24  1  0
 24 25  2  0
  5 26  1  0
 26 27  2  0
 27 28  1  0
 28 29  2  0
 28 30  2  0
 28 31  1  0
 31 32  1  0
 32 33  1  0
 33 34  1  0
 27  2  1  0
 25  6  1  0
 16 11  1  0
 25 20  1  0
 19 14  1  0
  1 35  1  0
  1 36  1  0
  1 37  1  0
  3 38  1  0
  4 39  1  0
 10 40  1  0
 12 41  1  0
 13 42  1  0
 16 43  1  0
 18 44  1  0
 18 45  1  0
 21 46  1  0
 22 47  1  0
 23 48  1  0
 24 49  1  0
 26 50  1  0
 31 51  1  0
 32 52  1  0
 32 53  1  0
 33 54  1  0
 33 55  1  0
 34 56  1  0
M  END
$$$$
