
     RDKit          3D

 40 42  0  0  0  0  0  0  0  0999 V2000
   -6.7021    1.8503   -0.2226 C   0  0  0  0  0  0  0  0  0  0  0  0
   -6.0742    0.6767    0.9567 S   0  0  0  0  0  6  0  0  0  0  0  0
   -4.9338    1.2605    1.6262 O   0  0  0  0  0  0  0  0  0  0  0  0
   -7.2021    0.1469    1.6927 O   0  0  0  0  0  0  0  0  0  0  0  0
   -5.5833   -0.5729   -0.0800 N   0  0  0  0  0  0  0  0  0  0  0  0
   -4.1845   -0.8417   -0.1538 C   0  0  0  0  0  0  0  0  0  0  0  0
   -3.6616   -1.9454    0.5213 C   0  0  0  0  0  0  0  0  0  0  0  0
   -2.2876   -2.1947    0.4856 C   0  0  0  0  0  0  0  0  0  0  0  0
   -1.4341   -1.3265   -0.2059 C   0  0  0  0  0  0  0  0  0  0  0  0
    0.0253   -1.6213   -0.2167 C   0  0  0  0  0  0  0  0  0  0  0  0
    0.3765   -2.7926   -0.2801 O   0  0  0  0  0  0  0  0  0  0  0  0
    0.8384   -0.5076   -0.1164 N   0  0  0  0  0  0  0  0  0  0  0  0
    2.2487   -0.4726   -0.1427 C   0  0  0  0  0  0  0  0  0  0  0  0
    3.0524   -1.5915   -0.3774 C   0  0  0  0  0  0  0  0  0  0  0  0
    4.4473   -1.4761   -0.3878 C   0  0  0  0  0  0  0  0  0  0  0  0
    5.0464   -0.2412   -0.1631 C   0  0  0  0  0  0  0  0  0  0  0  0
    4.2511    0.8879    0.0411 C   0  0  0  0  0  0  0  0  0  0  0  0
    2.8606    0.7707    0.0650 C   0  0  0  0  0  0  0  0  0  0  0  0
    4.7658    2.1454    0.2337 O   0  0  0  0  0  0  0  0  0  0  0  0
    6.1478    2.2058   -0.1396 C   0  0  0  0  0  0  0  0  0  0  0  0
    6.9068    1.0094    0.4104 C   0  0  0  0  0  0  0  0  0  0  0  0
    6.4166   -0.2067   -0.1653 O   0  0  0  0  0  0  0  0  0  0  0  0
   -1.9638   -0.2234   -0.8882 C   0  0  0  0  0  0  0  0  0  0  0  0
   -3.3397    0.0203   -0.8551 C   0  0  0  0  0  0  0  0  0  0  0  0
   -7.4919    1.3773   -0.8092 H   0  0  0  0  0  0  0  0  0  0  0  0
   -7.1102    2.6982    0.3319 H   0  0  0  0  0  0  0  0  0  0  0  0
   -5.8847    2.1863   -0.8626 H   0  0  0  0  0  0  0  0  0  0  0  0
   -6.1667   -1.3925    0.1043 H   0  0  0  0  0  0  0  0  0  0  0  0
   -4.3071   -2.6144    1.0836 H   0  0  0  0  0  0  0  0  0  0  0  0
   -1.8803   -3.0594    1.0066 H   0  0  0  0  0  0  0  0  0  0  0  0
    0.3828    0.3768    0.0702 H   0  0  0  0  0  0  0  0  0  0  0  0
    2.6251   -2.5736   -0.5557 H   0  0  0  0  0  0  0  0  0  0  0  0
    5.0607   -2.3561   -0.5613 H   0  0  0  0  0  0  0  0  0  0  0  0
    2.2679    1.6637    0.2408 H   0  0  0  0  0  0  0  0  0  0  0  0
    6.2109    2.2529   -1.2339 H   0  0  0  0  0  0  0  0  0  0  0  0
    6.5602    3.1348    0.2663 H   0  0  0  0  0  0  0  0  0  0  0  0
    6.8142    0.9416    1.5015 H   0  0  0  0  0  0  0  0  0  0  0  0
    7.9698    1.0889    0.1624 H   0  0  0  0  0  0  0  0  0  0  0  0
   -1.3243    0.4382   -1.4664 H   0  0  0  0  0  0  0  0  0  0  0  0
   -3.7433    0.8776   -1.3853 H   0  0  0  0  0  0  0  0  0  0  0  0
  1  2  1  0
  2  3  2  0
  2  4  2  0
  2  5  1  0
  5  6  1  0
  6  7  2  0
  7  8  1  0
  8  9  2  0
  9 10  1  0
 10 11  2  0
 10 12  1  0
 12 13  1  0
 13 14  2  0
 14 15  1  0
 15 16  2  0
 16 17  1  0
 17 18  2  0
 17 19  1  0
 19 20  1  0
 20 21  1  0
 21 22  1  0
  9 23  1  0
 23 24  2  0
 24  6  1  0
 18 13  1  0
 22 16  1  0
  1 25  1  0
  1 26  1  0
  1 27  1  0
  5 28  1  0
  7 29  1  0
  8 30  1  0
 12 31  1  0
 14 32  1  0
 15 33  1  0
 18 34  1  0
 20 35  1  0
 20 36  1  0
 21 37  1  0
 21 38  1  0
 23 39  1  0
 24 40  1  0
M  END
$$$$
