
     RDKit          3D

 51 53  0  0  0  0  0  0  0  0999 V2000
    4.5989   -3.3227   -1.8459 C   0  0  0  0  0  0  0  0  0  0  0  0
    5.9111   -2.7737   -1.8159 O   0  0  0  0  0  0  0  0  0  0  0  0
    6.0451   -1.5176   -1.2885 C   0  0  0  0  0  0  0  0  0  0  0  0
    7.3561   -1.0386   -1.2610 C   0  0  0  0  0  0  0  0  0  0  0  0
    7.6358    0.2257   -0.7475 C   0  0  0  0  0  0  0  0  0  0  0  0
    6.5990    1.0198   -0.2595 C   0  0  0  0  0  0  0  0  0  0  0  0
    5.2787    0.5554   -0.2816 C   0  0  0  0  0  0  0  0  0  0  0  0
    4.2919    1.4156    0.2297 N   0  0  0  0  0  0  0  0  0  0  0  0
    2.9326    1.1994    0.3148 C   0  0  0  0  0  0  0  0  0  0  0  0
    2.2781    0.2268   -0.0363 O   0  0  0  0  0  0  0  0  0  0  0  0
    2.1997    2.3943    0.9499 C   0  0  0  0  0  0  0  0  0  0  0  0
    2.8526    3.3565    1.3338 O   0  0  0  0  0  0  0  0  0  0  0  0
    0.8335    2.2059    0.9947 N   0  0  0  0  0  0  0  0  0  0  0  0
    0.0251    3.1125    1.6101 N   0  0  0  0  0  0  0  0  0  0  0  0
   -1.2636    2.9459    1.5773 C   0  0  0  0  0  0  0  0  0  0  0  0
   -1.9859    1.9407    0.8127 C   0  0  0  0  0  0  0  0  0  0  0  0
   -1.7419    1.5126   -0.5143 C   0  0  0  0  0  0  0  0  0  0  0  0
   -2.6778    0.5555   -0.8483 C   0  0  0  0  0  0  0  0  0  0  0  0
   -2.7281   -0.2424   -2.1080 C   0  0  0  0  0  0  0  0  0  0  0  0
   -3.5333    0.3925    0.2362 N   0  0  0  0  0  0  0  0  0  0  0  0
   -4.6298   -0.5166    0.3060 C   0  0  0  0  0  0  0  0  0  0  0  0
   -5.5249   -0.6243   -0.7642 C   0  0  0  0  0  0  0  0  0  0  0  0
   -6.5968   -1.5189   -0.6923 C   0  0  0  0  0  0  0  0  0  0  0  0
   -6.7795   -2.3109    0.4444 C   0  0  0  0  0  0  0  0  0  0  0  0
   -8.1232   -3.3956    0.4612 Cl  0  0  0  0  0  0  0  0  0  0  0  0
   -5.8851   -2.2057    1.5150 C   0  0  0  0  0  0  0  0  0  0  0  0
   -6.0399   -3.1602    2.9471 Cl  0  0  0  0  0  0  0  0  0  0  0  0
   -4.8121   -1.3095    1.4465 C   0  0  0  0  0  0  0  0  0  0  0  0
   -3.1270    1.2713    1.2439 C   0  0  0  0  0  0  0  0  0  0  0  0
   -3.8721    1.4601    2.5283 C   0  0  0  0  0  0  0  0  0  0  0  0
    5.0080   -0.7166   -0.7988 C   0  0  0  0  0  0  0  0  0  0  0  0
    4.1921   -3.4308   -0.8345 H   0  0  0  0  0  0  0  0  0  0  0  0
    4.6663   -4.3223   -2.2868 H   0  0  0  0  0  0  0  0  0  0  0  0
    3.9355   -2.7245   -2.4796 H   0  0  0  0  0  0  0  0  0  0  0  0
    8.1639   -1.6590   -1.6409 H   0  0  0  0  0  0  0  0  0  0  0  0
    8.6593    0.5898   -0.7282 H   0  0  0  0  0  0  0  0  0  0  0  0
    6.8382    2.0037    0.1362 H   0  0  0  0  0  0  0  0  0  0  0  0
    4.5923    2.3181    0.5959 H   0  0  0  0  0  0  0  0  0  0  0  0
    0.4669    1.3060    0.6875 H   0  0  0  0  0  0  0  0  0  0  0  0
   -1.8735    3.6390    2.1799 H   0  0  0  0  0  0  0  0  0  0  0  0
   -0.9513    1.8607   -1.1695 H   0  0  0  0  0  0  0  0  0  0  0  0
   -3.4670    0.1720   -2.7991 H   0  0  0  0  0  0  0  0  0  0  0  0
   -1.7568   -0.2176   -2.6143 H   0  0  0  0  0  0  0  0  0  0  0  0
   -2.9611   -1.2939   -1.9139 H   0  0  0  0  0  0  0  0  0  0  0  0
   -5.4334    0.0074   -1.6444 H   0  0  0  0  0  0  0  0  0  0  0  0
   -7.2922   -1.5872   -1.5261 H   0  0  0  0  0  0  0  0  0  0  0  0
   -4.1032   -1.2724    2.2698 H   0  0  0  0  0  0  0  0  0  0  0  0
   -4.9528    1.3575    2.3914 H   0  0  0  0  0  0  0  0  0  0  0  0
   -3.5317    0.7386    3.2769 H   0  0  0  0  0  0  0  0  0  0  0  0
   -3.7069    2.4612    2.9375 H   0  0  0  0  0  0  0  0  0  0  0  0
    3.9902   -1.0839   -0.8187 H   0  0  0  0  0  0  0  0  0  0  0  0
  1  2  1  0
  2  3  1  0
  3  4  2  0
  4  5  1  0
  5  6  2  0
  6  7  1  0
  7  8  1  0
  8  9  1  0
  9 10  2  0
  9 11  1  0
 11 12  2  0
 11 13  1  0
 13 14  1  0
 14 15  2  3
 15 16  1  0
 16 17  1  0
 17 18  2  0
 18 19  1  0
 18 20  1  0
 20 21  1  0
 21 22  2  0
 22 23  1  0
 23 24  2  0
 24 25  1  0
 24 26  1  0
 26 27  1  0
 26 28  2  0
 20 29  1  0
 29 30  1  0
  7 31  2  0
 31  3  1  0
 29 16  2  0
 28 21  1  0
  1 32  1  0
  1 33  1  0
  1 34  1  0
  4 35  1  0
  5 36  1  0
  6 37  1  0
  8 38  1  0
 13 39  1  0
 15 40  1  0
 17 41  1  0
 19 42  1  0
 19 43  1  0
 19 44  1  0
 22 45  1  0
 23 46  1  0
 28 47  1  0
 30 48  1  0
 30 49  1  0
 30 50  1  0
 31 51  1  0
M  END
$$$$
