
     RDKit          3D

 43 44  0  0  0  0  0  0  0  0999 V2000
   -2.5337   -2.2526    1.1352 C   0  0  0  0  0  0  0  0  0  0  0  0
   -2.8478   -1.9773   -0.3226 C   0  0  0  0  0  0  0  0  0  0  0  0
   -3.3294   -0.5778   -0.4754 N   0  0  0  0  0  4  0  0  0  0  0  0
   -4.6634   -0.3516   -0.3649 C   0  0  0  0  0  0  0  0  0  0  0  0
   -5.1983    0.9314   -0.4604 C   0  0  0  0  0  0  0  0  0  0  0  0
   -6.6800    1.1503   -0.3662 C   0  0  0  0  0  0  0  0  0  0  0  0
   -4.3375    1.9961   -0.6992 C   0  0  0  0  0  0  0  0  0  0  0  0
   -2.9736    1.7598   -0.8111 C   0  0  0  0  0  0  0  0  0  0  0  0
   -2.4716    0.4580   -0.6941 C   0  0  0  0  0  0  0  0  0  0  0  0
   -1.0328    0.2230   -0.8328 C   0  0  0  0  0  0  0  0  0  0  0  0
   -0.1417    0.6919    0.0551 C   0  0  0  0  0  0  0  0  0  0  0  0
    1.2999    0.4354   -0.0491 C   0  0  0  0  0  0  0  0  0  0  0  0
    1.9875    0.4887   -1.2605 C   0  0  0  0  0  0  0  0  0  0  0  0
    3.3695    0.2443   -1.3098 C   0  0  0  0  0  0  0  0  0  0  0  0
    4.1267   -0.0426   -0.1612 C   0  0  0  0  0  0  0  0  0  0  0  0
    5.4969   -0.3126   -0.2204 N   0  0  0  0  0  0  0  0  0  0  0  0
    6.2407    0.0149   -1.4371 C   0  0  0  0  0  0  0  0  0  0  0  0
    6.2819   -0.3014    1.0145 C   0  0  0  0  0  0  0  0  0  0  0  0
    3.4080   -0.0815    1.0457 C   0  0  0  0  0  0  0  0  0  0  0  0
    2.0268    0.1624    1.1082 C   0  0  0  0  0  0  0  0  0  0  0  0
   -1.7497   -1.5879    1.5095 H   0  0  0  0  0  0  0  0  0  0  0  0
   -3.4189   -2.1062    1.7626 H   0  0  0  0  0  0  0  0  0  0  0  0
   -2.1939   -3.2851    1.2611 H   0  0  0  0  0  0  0  0  0  0  0  0
   -3.6391   -2.6455   -0.6817 H   0  0  0  0  0  0  0  0  0  0  0  0
   -1.9819   -2.1414   -0.9684 H   0  0  0  0  0  0  0  0  0  0  0  0
   -5.2991   -1.2163   -0.1898 H   0  0  0  0  0  0  0  0  0  0  0  0
   -6.9041    2.1489    0.0235 H   0  0  0  0  0  0  0  0  0  0  0  0
   -7.1377    0.4254    0.3151 H   0  0  0  0  0  0  0  0  0  0  0  0
   -7.1371    1.0456   -1.3550 H   0  0  0  0  0  0  0  0  0  0  0  0
   -4.7193    3.0121   -0.7997 H   0  0  0  0  0  0  0  0  0  0  0  0
   -2.3012    2.5961   -0.9990 H   0  0  0  0  0  0  0  0  0  0  0  0
   -0.7204   -0.3663   -1.6911 H   0  0  0  0  0  0  0  0  0  0  0  0
   -0.4509    1.2633    0.9293 H   0  0  0  0  0  0  0  0  0  0  0  0
    1.4765    0.7291   -2.1890 H   0  0  0  0  0  0  0  0  0  0  0  0
    3.8395    0.2903   -2.2880 H   0  0  0  0  0  0  0  0  0  0  0  0
    5.8628   -0.5493   -2.2965 H   0  0  0  0  0  0  0  0  0  0  0  0
    7.2982   -0.2563   -1.3427 H   0  0  0  0  0  0  0  0  0  0  0  0
    6.1919    1.0884   -1.6502 H   0  0  0  0  0  0  0  0  0  0  0  0
    5.9387   -1.0758    1.7087 H   0  0  0  0  0  0  0  0  0  0  0  0
    6.2337    0.6787    1.5018 H   0  0  0  0  0  0  0  0  0  0  0  0
    7.3374   -0.5215    0.8184 H   0  0  0  0  0  0  0  0  0  0  0  0
    3.9075   -0.3070    1.9835 H   0  0  0  0  0  0  0  0  0  0  0  0
    1.5391    0.1216    2.0794 H   0  0  0  0  0  0  0  0  0  0  0  0
  1  2  1  0
  2  3  1  0
  3  4  2  0
  4  5  1  0
  5  6  1  0
  5  7  2  0
  7  8  1  0
  8  9  2  0
  9 10  1  0
 10 11  2  3
 11 12  1  0
 12 13  2  0
 13 14  1  0
 14 15  2  0
 15 16  1  0
 16 17  1  0
 16 18  1  0
 15 19  1  0
 19 20  2  0
  9  3  1  0
 20 12  1  0
  1 21  1  0
  1 22  1  0
  1 23  1  0
  2 24  1  0
  2 25  1  0
  4 26  1  0
  6 27  1  0
  6 28  1  0
  6 29  1  0
  7 30  1  0
  8 31  1  0
 10 32  1  0
 11 33  1  0
 13 34  1  0
 14 35  1  0
 17 36  1  0
 17 37  1  0
 17 38  1  0
 18 39  1  0
 18 40  1  0
 18 41  1  0
 19 42  1  0
 20 43  1  0
M  CHG  1   3   1
M  END
$$$$
