
     RDKit          3D

 29 30  0  0  0  0  0  0  0  0999 V2000
    4.1914    1.1979   -0.0236 C   0  0  0  0  0  0  0  0  0  0  0  0
    2.8282    0.5500   -0.1878 C   0  0  0  0  0  0  0  0  0  0  0  0
    2.8484   -0.7669    0.4462 N   0  0  0  0  0  0  0  0  0  0  0  0
    1.7473   -1.9389   -0.0326 S   0  0  0  0  0  6  0  0  0  0  0  0
    1.9048   -3.0441    0.8875 O   0  0  0  0  0  0  0  0  0  0  0  0
    1.8634   -2.1167   -1.4626 O   0  0  0  0  0  0  0  0  0  0  0  0
    0.1863   -1.1662    0.3098 C   0  0  0  0  0  0  0  0  0  0  0  0
   -0.3666   -1.2752    1.5998 C   0  0  0  0  0  0  0  0  0  0  0  0
   -1.6032   -0.6917    1.8801 C   0  0  0  0  0  0  0  0  0  0  0  0
   -2.2470   -0.0069    0.8620 C   0  0  0  0  0  0  0  0  0  0  0  0
   -1.6942    0.1009   -0.4127 C   0  0  0  0  0  0  0  0  0  0  0  0
   -0.4870   -0.4959   -0.7173 C   0  0  0  0  0  0  0  0  0  0  0  0
   -2.5106    0.8032   -1.3330 N   0  0  0  0  0  0  0  0  0  0  0  0
   -3.5901    1.3523   -0.4837 C   0  0  0  0  0  0  0  0  0  0  0  0
   -3.5926    0.6269    0.8727 C   0  0  0  0  0  0  0  0  0  0  0  0
    4.2013    2.1892   -0.4869 H   0  0  0  0  0  0  0  0  0  0  0  0
    4.9730    0.5914   -0.4935 H   0  0  0  0  0  0  0  0  0  0  0  0
    4.4481    1.3121    1.0350 H   0  0  0  0  0  0  0  0  0  0  0  0
    2.5963    0.4685   -1.2540 H   0  0  0  0  0  0  0  0  0  0  0  0
    2.0695    1.1754    0.2929 H   0  0  0  0  0  0  0  0  0  0  0  0
    3.1222   -0.8380    1.4242 H   0  0  0  0  0  0  0  0  0  0  0  0
    0.1562   -1.8265    2.3789 H   0  0  0  0  0  0  0  0  0  0  0  0
   -2.0517   -0.7881    2.8639 H   0  0  0  0  0  0  0  0  0  0  0  0
   -0.0743   -0.4285   -1.7189 H   0  0  0  0  0  0  0  0  0  0  0  0
   -2.8637    0.1406   -2.0237 H   0  0  0  0  0  0  0  0  0  0  0  0
   -4.5608    1.2667   -0.9842 H   0  0  0  0  0  0  0  0  0  0  0  0
   -3.3960    2.4218   -0.3328 H   0  0  0  0  0  0  0  0  0  0  0  0
   -3.7252    1.3268    1.7024 H   0  0  0  0  0  0  0  0  0  0  0  0
   -4.3733   -0.1402    0.9031 H   0  0  0  0  0  0  0  0  0  0  0  0
  1  2  1  0
  2  3  1  0
  3  4  1  0
  4  5  2  0
  4  6  2  0
  4  7  1  0
  7  8  2  0
  8  9  1  0
  9 10  2  0
 10 11  1  0
 11 12  2  0
 11 13  1  0
 13 14  1  0
 14 15  1  0
 12  7  1  0
 15 10  1  0
  1 16  1  0
  1 17  1  0
  1 18  1  0
  2 19  1  0
  2 20  1  0
  3 21  1  0
  8 22  1  0
  9 23  1  0
 12 24  1  0
 13 25  1  0
 14 26  1  0
 14 27  1  0
 15 28  1  0
 15 29  1  0
M  END
$$$$
