
     RDKit          3D

 65 66  0  0  0  0  0  0  0  0999 V2000
   -4.4286    5.7711    1.6443 C   0  0  0  0  0  0  0  0  0  0  0  0
   -4.4374    5.0274    0.4323 O   0  0  0  0  0  0  0  0  0  0  0  0
   -3.7472    3.8474    0.4253 C   0  0  0  0  0  0  0  0  0  0  0  0
   -3.0775    3.2810    1.5082 C   0  0  0  0  0  0  0  0  0  0  0  0
   -2.4099    2.0599    1.3612 C   0  0  0  0  0  0  0  0  0  0  0  0
   -2.4050    1.3801    0.1313 C   0  0  0  0  0  0  0  0  0  0  0  0
   -1.6534    0.0573    0.0219 C   0  0  0  0  0  0  0  0  0  0  0  0
   -2.2349   -0.9168   -1.0474 C   0  0  0  0  0  0  0  0  0  0  0  0
   -1.6246   -1.2344   -2.0666 O   0  0  0  0  0  0  0  0  0  0  0  0
   -3.5109   -1.3751   -0.7533 N   0  0  0  0  0  0  0  0  0  0  0  0
   -4.3165   -2.2439   -1.6239 C   0  0  0  0  0  0  0  0  0  0  0  0
   -5.6440   -2.5397   -0.9016 C   0  0  0  0  0  0  0  0  0  0  0  0
   -3.6059   -3.5813   -1.8867 C   0  0  0  0  0  0  0  0  0  0  0  0
   -4.6313   -1.5399   -2.9527 C   0  0  0  0  0  0  0  0  0  0  0  0
   -0.1959    0.2394   -0.1503 N   0  0  0  0  0  0  0  0  0  0  0  0
    0.2781    1.0784   -1.2628 C   0  0  0  0  0  0  0  0  0  0  0  0
    0.6983    2.4862   -0.8249 C   0  0  0  0  0  0  0  0  0  0  0  0
    1.4234    3.1390   -1.8628 O   0  0  0  0  0  0  0  0  0  0  0  0
    0.6366   -0.5889    0.5954 C   0  0  0  0  0  0  0  0  0  0  0  0
    0.1977   -1.3459    1.4632 O   0  0  0  0  0  0  0  0  0  0  0  0
    2.1266   -0.5247    0.3112 C   0  0  0  0  0  0  0  0  0  0  0  0
    2.9217   -1.3889    1.2857 C   0  0  0  0  0  0  0  0  0  0  0  0
    4.4137   -1.2636    1.0528 C   0  0  0  0  0  0  0  0  0  0  0  0
    4.8840   -0.5121    0.2047 O   0  0  0  0  0  0  0  0  0  0  0  0
    5.1325   -2.0732    1.9019 N   0  0  0  0  0  0  0  0  0  0  0  0
    6.5052   -2.1749    1.9337 C   0  0  0  0  0  0  0  0  0  0  0  0
    7.4747   -1.5161    1.1469 C   0  0  0  0  0  0  0  0  0  0  0  0
    8.6761   -1.9946    1.6067 C   0  0  0  0  0  0  0  0  0  0  0  0
   10.0848   -1.7512    1.2545 C   0  0  0  0  0  0  0  0  0  0  0  0
    8.4462   -2.8848    2.6070 O   0  0  0  0  0  0  0  0  0  0  0  0
    7.0840   -2.9996    2.8138 N   0  0  0  0  0  0  0  0  0  0  0  0
   -3.0721    1.9646   -0.9543 C   0  0  0  0  0  0  0  0  0  0  0  0
   -3.7389    3.1832   -0.8025 C   0  0  0  0  0  0  0  0  0  0  0  0
   -4.9192    5.2160    2.4506 H   0  0  0  0  0  0  0  0  0  0  0  0
   -3.4098    6.0589    1.9244 H   0  0  0  0  0  0  0  0  0  0  0  0
   -4.9999    6.6894    1.4772 H   0  0  0  0  0  0  0  0  0  0  0  0
   -3.0519    3.7625    2.4801 H   0  0  0  0  0  0  0  0  0  0  0  0
   -1.8851    1.6402    2.2187 H   0  0  0  0  0  0  0  0  0  0  0  0
   -1.8294   -0.4645    0.9729 H   0  0  0  0  0  0  0  0  0  0  0  0
   -3.9834   -0.9420    0.0321 H   0  0  0  0  0  0  0  0  0  0  0  0
   -6.1949   -1.6151   -0.6927 H   0  0  0  0  0  0  0  0  0  0  0  0
   -6.2919   -3.1878   -1.5022 H   0  0  0  0  0  0  0  0  0  0  0  0
   -5.4676   -3.0367    0.0597 H   0  0  0  0  0  0  0  0  0  0  0  0
   -2.6884   -3.4532   -2.4692 H   0  0  0  0  0  0  0  0  0  0  0  0
   -3.3304   -4.0713   -0.9459 H   0  0  0  0  0  0  0  0  0  0  0  0
   -4.2508   -4.2675   -2.4474 H   0  0  0  0  0  0  0  0  0  0  0  0
   -5.1189   -0.5736   -2.7793 H   0  0  0  0  0  0  0  0  0  0  0  0
   -5.2988   -2.1476   -3.5740 H   0  0  0  0  0  0  0  0  0  0  0  0
   -3.7262   -1.3467   -3.5376 H   0  0  0  0  0  0  0  0  0  0  0  0
    1.1220    0.5860   -1.7558 H   0  0  0  0  0  0  0  0  0  0  0  0
   -0.4912    1.1483   -2.0394 H   0  0  0  0  0  0  0  0  0  0  0  0
    1.3272    2.4657    0.0702 H   0  0  0  0  0  0  0  0  0  0  0  0
   -0.1759    3.1000   -0.5927 H   0  0  0  0  0  0  0  0  0  0  0  0
    2.2737    2.6769   -1.9659 H   0  0  0  0  0  0  0  0  0  0  0  0
    2.3075   -0.8816   -0.7086 H   0  0  0  0  0  0  0  0  0  0  0  0
    2.4625    0.5136    0.3878 H   0  0  0  0  0  0  0  0  0  0  0  0
    2.7102   -1.0870    2.3188 H   0  0  0  0  0  0  0  0  0  0  0  0
    2.6369   -2.4421    1.1741 H   0  0  0  0  0  0  0  0  0  0  0  0
    4.6618   -2.6622    2.5759 H   0  0  0  0  0  0  0  0  0  0  0  0
    7.3260   -0.7958    0.3566 H   0  0  0  0  0  0  0  0  0  0  0  0
   10.5694   -2.6817    0.9438 H   0  0  0  0  0  0  0  0  0  0  0  0
   10.1660   -1.0343    0.4316 H   0  0  0  0  0  0  0  0  0  0  0  0
   10.6304   -1.3474    2.1127 H   0  0  0  0  0  0  0  0  0  0  0  0
   -3.0776    1.4904   -1.9344 H   0  0  0  0  0  0  0  0  0  0  0  0
   -4.2518    3.6246   -1.6544 H   0  0  0  0  0  0  0  0  0  0  0  0
  1  2  1  0
  2  3  1  0
  3  4  2  0
  4  5  1  0
  5  6  2  0
  6  7  1  0
  7  8  1  0
  8  9  2  0
  8 10  1  0
 10 11  1  0
 11 12  1  0
 11 13  1  0
 11 14  1  0
  7 15  1  0
 15 16  1  0
 16 17  1  0
 17 18  1  0
 15 19  1  0
 19 20  2  0
 19 21  1  0
 21 22  1  0
 22 23  1  0
 23 24  2  0
 23 25  1  0
 25 26  1  0
 26 27  1  0
 27 28  2  0
 28 29  1  0
 28 30  1  0
 30 31  1  0
  6 32  1  0
 32 33  2  0
 33  3  1  0
 31 26  2  0
  1 34  1  0
  1 35  1  0
  1 36  1  0
  4 37  1  0
  5 38  1  0
  7 39  1  0
 10 40  1  0
 12 41  1  0
 12 42  1  0
 12 43  1  0
 13 44  1  0
 13 45  1  0
 13 46  1  0
 14 47  1  0
 14 48  1  0
 14 49  1  0
 16 50  1  0
 16 51  1  0
 17 52  1  0
 17 53  1  0
 18 54  1  0
 21 55  1  0
 21 56  1  0
 22 57  1  0
 22 58  1  0
 25 59  1  0
 27 60  1  0
 29 61  1  0
 29 62  1  0
 29 63  1  0
 32 64  1  0
 33 65  1  0
M  END
$$$$
