
     RDKit          3D

 39 41  0  0  0  0  0  0  0  0999 V2000
   -5.0577    3.1106   -0.8003 C   0  0  0  0  0  0  0  0  0  0  0  0
   -5.7499    1.8714   -0.8423 O   0  0  0  0  0  0  0  0  0  0  0  0
   -4.9981    0.7275   -0.9030 C   0  0  0  0  0  0  0  0  0  0  0  0
   -3.6030    0.6874   -0.9949 C   0  0  0  0  0  0  0  0  0  0  0  0
   -2.9274   -0.5409   -1.0491 C   0  0  0  0  0  0  0  0  0  0  0  0
   -1.4650   -0.5525   -1.1552 C   0  0  0  0  0  0  0  0  0  0  0  0
   -0.6155   -0.9332   -0.1918 C   0  0  0  0  0  0  0  0  0  0  0  0
   -0.9932   -1.4973    1.3949 S   0  0  0  0  0  0  0  0  0  0  0  0
    0.7011   -1.6757    1.8471 C   0  0  0  0  0  0  0  0  0  0  0  0
    1.2013   -2.2611    3.3266 S   0  0  0  0  0  0  0  0  0  0  0  0
    1.4817   -1.2963    0.7746 N   0  0  0  0  0  0  0  0  0  0  0  0
    2.8886   -1.2450    0.8417 N   0  0  0  0  0  0  0  0  0  0  0  0
    3.4316   -0.0278    1.2234 C   0  0  0  0  0  0  0  0  0  0  0  0
    2.7634    0.9047    1.6592 O   0  0  0  0  0  0  0  0  0  0  0  0
    4.8916    0.1269    1.0393 C   0  0  0  0  0  0  0  0  0  0  0  0
    5.4341    1.3985    0.8432 C   0  0  0  0  0  0  0  0  0  0  0  0
    6.8091    1.5374    0.6685 C   0  0  0  0  0  0  0  0  0  0  0  0
    7.5948    0.3960    0.7022 C   0  0  0  0  0  0  0  0  0  0  0  0
    7.1036   -0.8473    0.9040 N   0  0  0  0  0  0  0  0  0  0  0  0
    5.7642   -0.9526    1.0811 C   0  0  0  0  0  0  0  0  0  0  0  0
    0.8583   -0.8946   -0.3933 C   0  0  0  0  0  0  0  0  0  0  0  0
    1.4127   -0.5940   -1.4425 O   0  0  0  0  0  0  0  0  0  0  0  0
   -3.6540   -1.7360   -1.0227 C   0  0  0  0  0  0  0  0  0  0  0  0
   -5.0455   -1.7079   -0.9328 C   0  0  0  0  0  0  0  0  0  0  0  0
   -5.7074   -0.4817   -0.8737 C   0  0  0  0  0  0  0  0  0  0  0  0
   -7.0740   -0.4526   -0.7860 O   0  0  0  0  0  0  0  0  0  0  0  0
   -5.8030    3.9078   -0.7198 H   0  0  0  0  0  0  0  0  0  0  0  0
   -4.4918    3.2771   -1.7227 H   0  0  0  0  0  0  0  0  0  0  0  0
   -4.4086    3.1725    0.0795 H   0  0  0  0  0  0  0  0  0  0  0  0
   -3.0188    1.6016   -1.0229 H   0  0  0  0  0  0  0  0  0  0  0  0
   -1.0781   -0.1919   -2.1075 H   0  0  0  0  0  0  0  0  0  0  0  0
    3.3613   -1.7903    0.1266 H   0  0  0  0  0  0  0  0  0  0  0  0
    4.7913    2.2759    0.8243 H   0  0  0  0  0  0  0  0  0  0  0  0
    7.2563    2.5130    0.5112 H   0  0  0  0  0  0  0  0  0  0  0  0
    8.6719    0.4535    0.5691 H   0  0  0  0  0  0  0  0  0  0  0  0
    5.4240   -1.9645    1.2799 H   0  0  0  0  0  0  0  0  0  0  0  0
   -3.1448   -2.6956   -1.0732 H   0  0  0  0  0  0  0  0  0  0  0  0
   -5.5942   -2.6441   -0.9116 H   0  0  0  0  0  0  0  0  0  0  0  0
   -7.4109   -1.3607   -0.7510 H   0  0  0  0  0  0  0  0  0  0  0  0
  1  2  1  0
  2  3  1  0
  3  4  2  0
  4  5  1  0
  5  6  1  0
  6  7  2  3
  7  8  1  0
  8  9  1  0
  9 10  2  0
  9 11  1  0
 11 12  1  0
 12 13  1  0
 13 14  2  0
 13 15  1  0
 15 16  2  0
 16 17  1  0
 17 18  2  0
 18 19  1  0
 19 20  2  0
 11 21  1  0
 21 22  2  0
  5 23  2  0
 23 24  1  0
 24 25  2  0
 25 26  1  0
 25  3  1  0
 21  7  1  0
 20 15  1  0
  1 27  1  0
  1 28  1  0
  1 29  1  0
  4 30  1  0
  6 31  1  0
 12 32  1  0
 16 33  1  0
 17 34  1  0
 18 35  1  0
 20 36  1  0
 23 37  1  0
 24 38  1  0
 26 39  1  0
M  END
$$$$
