
     RDKit          3D

 39 40  0  0  0  0  0  0  0  0999 V2000
   -0.8933    1.6801    0.6639 O   0  0  0  0  0  0  0  0  0  0  0  0
   -1.0038    0.4637    0.7410 C   0  0  0  0  0  0  0  0  0  0  0  0
    0.2072   -0.4552    0.8273 C   0  0  0  0  0  0  0  0  0  0  0  0
    1.5466    0.2731    0.7542 C   0  0  0  0  0  0  0  0  0  0  0  0
    1.8469    0.8320   -0.6379 C   0  0  0  0  0  0  0  0  0  0  0  0
    3.1657    1.3807   -0.6791 O   0  0  0  0  0  0  0  0  0  0  0  0
    4.2114    0.5686   -1.0179 C   0  0  0  0  0  0  0  0  0  0  0  0
    4.1569   -0.8083   -1.2357 C   0  0  0  0  0  0  0  0  0  0  0  0
    5.3170   -1.5140   -1.5731 C   0  0  0  0  0  0  0  0  0  0  0  0
    6.5360   -0.8489   -1.6890 C   0  0  0  0  0  0  0  0  0  0  0  0
    6.5981    0.5241   -1.4678 C   0  0  0  0  0  0  0  0  0  0  0  0
    5.4392    1.2268   -1.1335 C   0  0  0  0  0  0  0  0  0  0  0  0
   -2.1863   -0.2623    0.7612 N   0  0  0  0  0  0  0  0  0  0  0  0
   -3.5165    0.2254    0.7091 C   0  0  0  0  0  0  0  0  0  0  0  0
   -3.8019    1.5969    0.6630 C   0  0  0  0  0  0  0  0  0  0  0  0
   -5.1190    2.0647    0.6158 C   0  0  0  0  0  0  0  0  0  0  0  0
   -6.1789    1.1695    0.6130 C   0  0  0  0  0  0  0  0  0  0  0  0
   -5.9192   -0.1964    0.6563 C   0  0  0  0  0  0  0  0  0  0  0  0
   -4.5953   -0.6860    0.7096 C   0  0  0  0  0  0  0  0  0  0  0  0
   -4.4182   -2.1829    0.7171 C   0  0  0  0  0  0  0  0  0  0  0  0
   -3.1659   -2.5900    1.0849 F   0  0  0  0  0  0  0  0  0  0  0  0
   -5.2708   -2.8173    1.5696 F   0  0  0  0  0  0  0  0  0  0  0  0
   -4.6335   -2.7377   -0.5081 F   0  0  0  0  0  0  0  0  0  0  0  0
    0.1438   -1.2028    0.0283 H   0  0  0  0  0  0  0  0  0  0  0  0
    0.1480   -0.9826    1.7875 H   0  0  0  0  0  0  0  0  0  0  0  0
    2.3397   -0.4242    1.0491 H   0  0  0  0  0  0  0  0  0  0  0  0
    1.5870    1.0886    1.4874 H   0  0  0  0  0  0  0  0  0  0  0  0
    1.6795    0.1005   -1.4365 H   0  0  0  0  0  0  0  0  0  0  0  0
    1.1682    1.6637   -0.8536 H   0  0  0  0  0  0  0  0  0  0  0  0
    3.2333   -1.3680   -1.1460 H   0  0  0  0  0  0  0  0  0  0  0  0
    5.2675   -2.5861   -1.7446 H   0  0  0  0  0  0  0  0  0  0  0  0
    7.4355   -1.3997   -1.9502 H   0  0  0  0  0  0  0  0  0  0  0  0
    7.5446    1.0504   -1.5560 H   0  0  0  0  0  0  0  0  0  0  0  0
    5.4908    2.2999   -0.9632 H   0  0  0  0  0  0  0  0  0  0  0  0
   -2.0760   -1.2695    0.8461 H   0  0  0  0  0  0  0  0  0  0  0  0
   -3.0156    2.3463    0.6660 H   0  0  0  0  0  0  0  0  0  0  0  0
   -5.3078    3.1356    0.5828 H   0  0  0  0  0  0  0  0  0  0  0  0
   -7.2025    1.5340    0.5748 H   0  0  0  0  0  0  0  0  0  0  0  0
   -6.7582   -0.8923    0.6478 H   0  0  0  0  0  0  0  0  0  0  0  0
  1  2  2  0
  2  3  1  0
  3  4  1  0
  4  5  1  0
  5  6  1  0
  6  7  1  0
  7  8  2  0
  8  9  1  0
  9 10  2  0
 10 11  1  0
 11 12  2  0
  2 13  1  0
 13 14  1  0
 14 15  2  0
 15 16  1  0
 16 17  2  0
 17 18  1  0
 18 19  2  0
 19 20  1  0
 20 21  1  0
 20 22  1  0
 20 23  1  0
 12  7  1  0
 19 14  1  0
  3 24  1  0
  3 25  1  0
  4 26  1  0
  4 27  1  0
  5 28  1  0
  5 29  1  0
  8 30  1  0
  9 31  1  0
 10 32  1  0
 11 33  1  0
 12 34  1  0
 13 35  1  0
 15 36  1  0
 16 37  1  0
 17 38  1  0
 18 39  1  0
M  END
$$$$
