
     RDKit          3D

 60 63  0  0  0  0  0  0  0  0999 V2000
   -2.3208    2.6993    5.9123 C   0  0  0  0  0  0  0  0  0  0  0  0
   -3.1570    3.1536    4.9694 C   0  0  0  0  0  0  0  0  0  0  0  0
   -2.7536    3.4953    3.5593 C   0  0  0  0  0  0  0  0  0  0  0  0
   -3.3601    2.5380    2.6422 N   0  0  0  0  0  0  0  0  0  0  0  0
   -4.6383    2.7751    2.1484 C   0  0  0  0  0  0  0  0  0  0  0  0
   -5.2940    3.7799    2.4243 O   0  0  0  0  0  0  0  0  0  0  0  0
   -5.2469    1.7388    1.2633 C   0  0  0  0  0  0  0  0  0  0  0  0
   -6.5627    1.9274    0.8137 C   0  0  0  0  0  0  0  0  0  0  0  0
   -7.1788    0.9630    0.0187 C   0  0  0  0  0  0  0  0  0  0  0  0
   -6.4901   -0.1994   -0.3171 C   0  0  0  0  0  0  0  0  0  0  0  0
   -5.1780   -0.3974    0.1254 C   0  0  0  0  0  0  0  0  0  0  0  0
   -4.5425    0.5806    0.8983 C   0  0  0  0  0  0  0  0  0  0  0  0
   -3.2196    0.4681    1.3760 N   0  0  0  0  0  0  0  0  0  0  0  0
   -2.1863   -0.4241    1.1695 C   0  0  0  0  0  0  0  0  0  0  0  0
   -2.1007   -1.6970    0.0001 S   0  0  0  0  0  0  0  0  0  0  0  0
   -1.8015   -0.7423   -1.5137 C   0  0  0  0  0  0  0  0  0  0  0  0
   -0.5457    0.1068   -1.4115 C   0  0  0  0  0  0  0  0  0  0  0  0
   -0.6451    1.3303   -1.3798 O   0  0  0  0  0  0  0  0  0  0  0  0
    0.6086   -0.6558   -1.4065 N   0  0  0  0  0  0  0  0  0  0  0  0
    1.9237   -0.2159   -1.3306 C   0  0  0  0  0  0  0  0  0  0  0  0
    2.2883    1.4279   -1.2082 S   0  0  0  0  0  0  0  0  0  0  0  0
    3.9649    1.1396   -1.1481 C   0  0  0  0  0  0  0  0  0  0  0  0
    4.8990    2.3007   -1.0233 C   0  0  0  0  0  0  0  0  0  0  0  0
    4.2710   -0.2134   -1.2294 C   0  0  0  0  0  0  0  0  0  0  0  0
    5.6878   -0.7346   -1.1891 C   0  0  0  0  0  0  0  0  0  0  0  0
    6.2833   -0.9146   -2.5776 C   0  0  0  0  0  0  0  0  0  0  0  0
    3.0583   -1.0220   -1.3468 C   0  0  0  0  0  0  0  0  0  0  0  0
    2.9368   -2.4828   -1.4712 C   0  0  0  0  0  0  0  0  0  0  0  0
    1.8483   -3.0556   -1.4836 O   0  0  0  0  0  0  0  0  0  0  0  0
    4.1304   -3.1276   -1.5940 O   0  0  0  0  0  0  0  0  0  0  0  0
    4.0817   -4.5595   -1.6789 C   0  0  0  0  0  0  0  0  0  0  0  0
    3.8341   -5.0010   -3.1104 C   0  0  0  0  0  0  0  0  0  0  0  0
   -1.1730   -0.1322    1.9528 N   0  0  0  0  0  0  0  0  0  0  0  0
   -1.4857    1.0136    2.6310 N   0  0  0  0  0  0  0  0  0  0  0  0
   -2.6860    1.3932    2.2527 C   0  0  0  0  0  0  0  0  0  0  0  0
   -1.2721    2.5212    5.7008 H   0  0  0  0  0  0  0  0  0  0  0  0
   -2.6757    2.4821    6.9170 H   0  0  0  0  0  0  0  0  0  0  0  0
   -4.2011    3.3190    5.2228 H   0  0  0  0  0  0  0  0  0  0  0  0
   -3.0999    4.5103    3.3231 H   0  0  0  0  0  0  0  0  0  0  0  0
   -1.6633    3.4890    3.4325 H   0  0  0  0  0  0  0  0  0  0  0  0
   -7.1166    2.8231    1.0929 H   0  0  0  0  0  0  0  0  0  0  0  0
   -8.2003    1.1120   -0.3243 H   0  0  0  0  0  0  0  0  0  0  0  0
   -6.9807   -0.9637   -0.9173 H   0  0  0  0  0  0  0  0  0  0  0  0
   -4.7156   -1.3414   -0.1357 H   0  0  0  0  0  0  0  0  0  0  0  0
   -2.6594   -0.0935   -1.7216 H   0  0  0  0  0  0  0  0  0  0  0  0
   -1.7024   -1.4307   -2.3585 H   0  0  0  0  0  0  0  0  0  0  0  0
    0.5032   -1.6720   -1.4109 H   0  0  0  0  0  0  0  0  0  0  0  0
    5.5146    2.1974   -0.1274 H   0  0  0  0  0  0  0  0  0  0  0  0
    4.3767    3.2567   -0.9517 H   0  0  0  0  0  0  0  0  0  0  0  0
    5.5640    2.3479   -1.8932 H   0  0  0  0  0  0  0  0  0  0  0  0
    6.3215   -0.0403   -0.6272 H   0  0  0  0  0  0  0  0  0  0  0  0
    5.7384   -1.6709   -0.6282 H   0  0  0  0  0  0  0  0  0  0  0  0
    6.3216    0.0382   -3.1149 H   0  0  0  0  0  0  0  0  0  0  0  0
    5.6978   -1.6140   -3.1815 H   0  0  0  0  0  0  0  0  0  0  0  0
    7.3057   -1.3003   -2.5042 H   0  0  0  0  0  0  0  0  0  0  0  0
    5.0583   -4.9284   -1.3463 H   0  0  0  0  0  0  0  0  0  0  0  0
    3.3307   -4.9738   -0.9947 H   0  0  0  0  0  0  0  0  0  0  0  0
    2.8260   -4.7207   -3.4375 H   0  0  0  0  0  0  0  0  0  0  0  0
    3.9391   -6.0867   -3.2016 H   0  0  0  0  0  0  0  0  0  0  0  0
    4.5397   -4.5165   -3.7952 H   0  0  0  0  0  0  0  0  0  0  0  0
  1  2  2  0
  2  3  1  0
  3  4  1  0
  4  5  1  0
  5  6  2  0
  5  7  1  0
  7  8  2  0
  8  9  1  0
  9 10  2  0
 10 11  1  0
 11 12  2  0
 12 13  1  0
 13 14  1  0
 14 15  1  0
 15 16  1  0
 16 17  1  0
 17 18  2  0
 17 19  1  0
 19 20  1  0
 20 21  1  0
 21 22  1  0
 22 23  1  0
 22 24  2  0
 24 25  1  0
 25 26  1  0
 24 27  1  0
 27 28  1  0
 28 29  2  0
 28 30  1  0
 30 31  1  0
 31 32  1  0
 14 33  2  0
 33 34  1  0
 34 35  2  0
 35  4  1  0
 12  7  1  0
 35 13  1  0
 27 20  2  0
  1 36  1  0
  1 37  1  0
  2 38  1  0
  3 39  1  0
  3 40  1  0
  8 41  1  0
  9 42  1  0
 10 43  1  0
 11 44  1  0
 16 45  1  0
 16 46  1  0
 19 47  1  0
 23 48  1  0
 23 49  1  0
 23 50  1  0
 25 51  1  0
 25 52  1  0
 26 53  1  0
 26 54  1  0
 26 55  1  0
 31 56  1  0
 31 57  1  0
 32 58  1  0
 32 59  1  0
 32 60  1  0
M  END
$$$$
