
     RDKit          3D

 55 60  0  0  0  0  0  0  0  0999 V2000
    3.2300    0.7435    3.1827 O   0  0  0  0  0  0  0  0  0  0  0  0
    3.3020    1.1003    2.0081 C   0  0  0  0  0  0  0  0  0  0  0  0
    3.9393    2.3669    1.6794 C   0  0  0  0  0  0  0  0  0  0  0  0
    4.8617    2.7190    0.6511 C   0  0  0  0  0  0  0  0  0  0  0  0
    5.1709    4.0465    0.8355 C   0  0  0  0  0  0  0  0  0  0  0  0
    4.5263    4.5347    1.9241 O   0  0  0  0  0  0  0  0  0  0  0  0
    3.8024    3.5108    2.4426 C   0  0  0  0  0  0  0  0  0  0  0  0
    2.7754    0.3226    0.9639 N   0  0  0  0  0  0  0  0  0  0  0  0
    2.1282   -0.9401    1.3172 C   0  0  0  0  0  0  0  0  0  0  0  0
    0.6567   -0.8936    0.9186 C   0  0  0  0  0  0  0  0  0  0  0  0
    0.4966   -0.8288   -0.6276 C   0  0  0  0  0  0  0  0  0  0  0  0
    1.7465   -0.1338   -1.2529 C   0  0  0  0  0  0  0  0  0  0  0  0
    2.3963    0.8942   -0.3295 C   0  0  0  0  0  0  0  0  0  0  0  0
    0.5004   -2.2240   -1.0396 O   0  0  0  0  0  0  0  0  0  0  0  0
    0.1332   -2.4761   -2.3300 C   0  0  0  0  0  0  0  0  0  0  0  0
    0.5049   -3.7187   -2.8427 C   0  0  0  0  0  0  0  0  0  0  0  0
    0.1850   -4.0558   -4.1599 C   0  0  0  0  0  0  0  0  0  0  0  0
   -0.5118   -3.1497   -4.9592 C   0  0  0  0  0  0  0  0  0  0  0  0
   -0.9016   -3.5687   -6.5806 Cl  0  0  0  0  0  0  0  0  0  0  0  0
   -0.9007   -1.9132   -4.4504 C   0  0  0  0  0  0  0  0  0  0  0  0
   -0.5822   -1.5868   -3.1279 C   0  0  0  0  0  0  0  0  0  0  0  0
   -1.0218   -0.3042   -2.5496 C   0  0  0  0  0  0  0  0  0  0  0  0
   -1.5364    0.5399   -3.2763 O   0  0  0  0  0  0  0  0  0  0  0  0
   -0.8426   -0.1561   -1.0414 C   0  0  0  0  0  0  0  0  0  0  0  0
   -2.0981   -0.7041   -0.3729 C   0  0  0  0  0  0  0  0  0  0  0  0
   -2.4020    0.4282    0.5446 C   0  0  0  0  0  0  0  0  0  0  0  0
   -3.4458    0.3318    1.5921 C   0  0  0  0  0  0  0  0  0  0  0  0
   -4.2797   -0.7880    1.6941 C   0  0  0  0  0  0  0  0  0  0  0  0
   -5.2511   -0.8482    2.6990 C   0  0  0  0  0  0  0  0  0  0  0  0
   -5.3896    0.2076    3.5988 C   0  0  0  0  0  0  0  0  0  0  0  0
   -6.5847    0.1263    4.8327 Cl  0  0  0  0  0  0  0  0  0  0  0  0
   -4.5667    1.3271    3.5025 C   0  0  0  0  0  0  0  0  0  0  0  0
   -3.5962    1.3902    2.4989 C   0  0  0  0  0  0  0  0  0  0  0  0
   -1.6865    1.4897    0.3576 N   0  0  0  0  0  0  0  0  0  0  0  0
   -0.8140    1.2395   -0.7233 O   0  0  0  0  0  0  0  0  0  0  0  0
    5.2711    2.0798   -0.1180 H   0  0  0  0  0  0  0  0  0  0  0  0
    5.8125    4.7471    0.3192 H   0  0  0  0  0  0  0  0  0  0  0  0
    3.2453    3.7387    3.3414 H   0  0  0  0  0  0  0  0  0  0  0  0
    2.2159   -1.1529    2.3869 H   0  0  0  0  0  0  0  0  0  0  0  0
    2.6545   -1.7443    0.7898 H   0  0  0  0  0  0  0  0  0  0  0  0
    0.2117   -0.0193    1.4046 H   0  0  0  0  0  0  0  0  0  0  0  0
    0.1559   -1.7838    1.3181 H   0  0  0  0  0  0  0  0  0  0  0  0
    1.4995    0.3535   -2.2029 H   0  0  0  0  0  0  0  0  0  0  0  0
    2.4981   -0.8950   -1.5056 H   0  0  0  0  0  0  0  0  0  0  0  0
    1.7230    1.7383   -0.1453 H   0  0  0  0  0  0  0  0  0  0  0  0
    3.2871    1.2821   -0.8257 H   0  0  0  0  0  0  0  0  0  0  0  0
    1.0543   -4.4234   -2.2225 H   0  0  0  0  0  0  0  0  0  0  0  0
    0.4842   -5.0231   -4.5569 H   0  0  0  0  0  0  0  0  0  0  0  0
   -1.4537   -1.2124   -5.0724 H   0  0  0  0  0  0  0  0  0  0  0  0
   -2.9373   -0.8318   -1.0655 H   0  0  0  0  0  0  0  0  0  0  0  0
   -1.9336   -1.6398    0.1665 H   0  0  0  0  0  0  0  0  0  0  0  0
   -4.2017   -1.6220    1.0031 H   0  0  0  0  0  0  0  0  0  0  0  0
   -5.8981   -1.7189    2.7736 H   0  0  0  0  0  0  0  0  0  0  0  0
   -4.6735    2.1537    4.2003 H   0  0  0  0  0  0  0  0  0  0  0  0
   -2.9597    2.2710    2.4314 H   0  0  0  0  0  0  0  0  0  0  0  0
  1  2  2  0
  2  3  1  0
  3  4  1  0
  4  5  2  0
  5  6  1  0
  6  7  1  0
  2  8  1  0
  8  9  1  0
  9 10  1  0
 10 11  1  0
 11 12  1  0
 12 13  1  0
 11 14  1  0
 14 15  1  0
 15 16  2  0
 16 17  1  0
 17 18  2  0
 18 19  1  0
 18 20  1  0
 20 21  2  0
 21 22  1  0
 22 23  2  0
 22 24  1  0
 24 25  1  0
 25 26  1  0
 26 27  1  0
 27 28  2  0
 28 29  1  0
 29 30  2  0
 30 31  1  0
 30 32  1  0
 32 33  2  0
 26 34  2  0
 34 35  1  0
  7  3  2  0
 13  8  1  0
 21 15  1  0
 35 24  1  0
 24 11  1  0
 33 27  1  0
  4 36  1  0
  5 37  1  0
  7 38  1  0
  9 39  1  0
  9 40  1  0
 10 41  1  0
 10 42  1  0
 12 43  1  0
 12 44  1  0
 13 45  1  0
 13 46  1  0
 16 47  1  0
 17 48  1  0
 20 49  1  0
 25 50  1  0
 25 51  1  0
 28 52  1  0
 29 53  1  0
 32 54  1  0
 33 55  1  0
M  END
$$$$
