
     RDKit          3D

 33 34  0  0  0  0  0  0  0  0999 V2000
   -1.7368    4.2138    0.3589 C   0  0  0  0  0  0  0  0  0  0  0  0
   -0.9733    3.0303    0.1253 O   0  0  0  0  0  0  0  0  0  0  0  0
   -0.4922    2.4679    1.2595 C   0  0  0  0  0  0  0  0  0  0  0  0
   -0.5382    2.9103    2.3934 O   0  0  0  0  0  0  0  0  0  0  0  0
    0.2610    1.2649    0.8872 C   0  0  0  0  0  0  0  0  0  0  0  0
    1.6263    1.2813    1.1654 C   0  0  0  0  0  0  0  0  0  0  0  0
    2.3681    0.1946    0.7656 C   0  0  0  0  0  0  0  0  0  0  0  0
    3.7178    0.2366    1.0395 O   0  0  0  0  0  0  0  0  0  0  0  0
    4.4174   -0.9293    0.6151 C   0  0  0  0  0  0  0  0  0  0  0  0
    1.8409   -0.8658    0.1213 N   0  0  0  0  0  0  0  0  0  0  0  0
    0.5055   -0.8749   -0.1260 C   0  0  0  0  0  0  0  0  0  0  0  0
   -0.3234    0.1616    0.2595 C   0  0  0  0  0  0  0  0  0  0  0  0
   -1.7667    0.0195    0.0353 C   0  0  0  0  0  0  0  0  0  0  0  0
   -2.5529    0.7677    0.6075 O   0  0  0  0  0  0  0  0  0  0  0  0
   -2.1685   -1.0179   -0.7922 N   0  0  0  0  0  0  0  0  0  0  0  0
   -3.5857   -1.1272   -1.0903 C   0  0  0  0  0  0  0  0  0  0  0  0
   -1.3596   -2.0880   -1.1500 C   0  0  0  0  0  0  0  0  0  0  0  0
   -1.8131   -3.0739   -1.7341 O   0  0  0  0  0  0  0  0  0  0  0  0
   -0.0271   -1.9933   -0.7986 N   0  0  0  0  0  0  0  0  0  0  0  0
    0.8926   -3.0665   -1.1488 C   0  0  0  0  0  0  0  0  0  0  0  0
   -2.1396    4.5519   -0.5999 H   0  0  0  0  0  0  0  0  0  0  0  0
   -1.0983    5.0042    0.7655 H   0  0  0  0  0  0  0  0  0  0  0  0
   -2.5746    4.0072    1.0325 H   0  0  0  0  0  0  0  0  0  0  0  0
    2.0954    2.1211    1.6677 H   0  0  0  0  0  0  0  0  0  0  0  0
    4.0453   -1.8236    1.1268 H   0  0  0  0  0  0  0  0  0  0  0  0
    4.3652   -1.0483   -0.4727 H   0  0  0  0  0  0  0  0  0  0  0  0
    5.4700   -0.8038    0.8864 H   0  0  0  0  0  0  0  0  0  0  0  0
   -4.0530   -1.7552   -0.3251 H   0  0  0  0  0  0  0  0  0  0  0  0
   -3.7385   -1.5896   -2.0703 H   0  0  0  0  0  0  0  0  0  0  0  0
   -4.0658   -0.1441   -1.0878 H   0  0  0  0  0  0  0  0  0  0  0  0
    1.3616   -3.4561   -0.2392 H   0  0  0  0  0  0  0  0  0  0  0  0
    0.3820   -3.8950   -1.6474 H   0  0  0  0  0  0  0  0  0  0  0  0
    1.6581   -2.6805   -1.8300 H   0  0  0  0  0  0  0  0  0  0  0  0
  1  2  1  0
  2  3  1  0
  3  4  2  0
  3  5  1  0
  5  6  2  0
  6  7  1  0
  7  8  1  0
  8  9  1  0
  7 10  2  0
 10 11  1  0
 11 12  2  0
 12 13  1  0
 13 14  2  0
 13 15  1  0
 15 16  1  0
 15 17  1  0
 17 18  2  0
 17 19  1  0
 19 20  1  0
 12  5  1  0
 19 11  1  0
  1 21  1  0
  1 22  1  0
  1 23  1  0
  6 24  1  0
  9 25  1  0
  9 26  1  0
  9 27  1  0
 16 28  1  0
 16 29  1  0
 16 30  1  0
 20 31  1  0
 20 32  1  0
 20 33  1  0
M  END
$$$$
