
     RDKit          3D

 53 56  0  0  0  0  0  0  0  0999 V2000
    6.7226    1.2747   -3.5832 C   0  0  0  0  0  0  0  0  0  0  0  0
    6.1731    0.8767   -2.3344 O   0  0  0  0  0  0  0  0  0  0  0  0
    4.9741    0.2169   -2.3620 C   0  0  0  0  0  0  0  0  0  0  0  0
    4.2466   -0.1024   -3.5079 C   0  0  0  0  0  0  0  0  0  0  0  0
    3.0331   -0.7814   -3.3949 C   0  0  0  0  0  0  0  0  0  0  0  0
    2.5467   -1.1430   -2.1377 C   0  0  0  0  0  0  0  0  0  0  0  0
    3.2662   -0.8302   -0.9784 C   0  0  0  0  0  0  0  0  0  0  0  0
    2.7040   -1.2323    0.2492 N   0  0  0  0  0  0  0  0  0  0  0  0
    3.1959   -1.0293    1.5267 C   0  0  0  0  0  0  0  0  0  0  0  0
    4.2720   -0.5026    1.8032 O   0  0  0  0  0  0  0  0  0  0  0  0
    2.3421   -1.6267    2.6426 C   0  0  0  0  0  0  0  0  0  0  0  0
    0.5829   -1.8392    2.2201 S   0  0  0  0  0  0  0  0  0  0  0  0
    0.0270   -0.1936    2.2478 C   0  0  0  0  0  0  0  0  0  0  0  0
    0.7654    0.8249    2.6184 N   0  0  0  0  0  0  0  0  0  0  0  0
   -0.0245    1.9378    2.6247 N   0  0  0  0  0  0  0  0  0  0  0  0
   -1.2388    1.5888    2.2423 C   0  0  0  0  0  0  0  0  0  0  0  0
   -2.3324    2.5628    1.9397 C   0  0  0  0  0  0  0  0  0  0  0  0
   -2.5994    2.6900    0.4644 C   0  0  0  0  0  0  0  0  0  0  0  0
   -1.7083    3.0153   -0.5421 C   0  0  0  0  0  0  0  0  0  0  0  0
   -2.3241    3.0391   -1.8261 C   0  0  0  0  0  0  0  0  0  0  0  0
   -3.6665    2.7424   -1.7585 C   0  0  0  0  0  0  0  0  0  0  0  0
   -4.1783    2.4426   -0.1556 S   0  0  0  0  0  0  0  0  0  0  0  0
   -1.2771    0.2156    2.0210 N   0  0  0  0  0  0  0  0  0  0  0  0
   -2.3963   -0.5624    1.6310 C   0  0  0  0  0  0  0  0  0  0  0  0
   -3.6169   -0.4103    2.2977 C   0  0  0  0  0  0  0  0  0  0  0  0
   -4.7243   -1.1667    1.9061 C   0  0  0  0  0  0  0  0  0  0  0  0
   -4.6289   -2.0699    0.8416 C   0  0  0  0  0  0  0  0  0  0  0  0
   -5.8127   -2.9002    0.4415 C   0  0  0  0  0  0  0  0  0  0  0  0
   -3.3998   -2.2296    0.1915 C   0  0  0  0  0  0  0  0  0  0  0  0
   -2.2872   -1.4791    0.5799 C   0  0  0  0  0  0  0  0  0  0  0  0
    4.4783   -0.1486   -1.1028 C   0  0  0  0  0  0  0  0  0  0  0  0
    6.0663    1.9873   -4.0940 H   0  0  0  0  0  0  0  0  0  0  0  0
    7.6727    1.7805   -3.3847 H   0  0  0  0  0  0  0  0  0  0  0  0
    6.9341    0.4066   -4.2165 H   0  0  0  0  0  0  0  0  0  0  0  0
    4.5950    0.1628   -4.5001 H   0  0  0  0  0  0  0  0  0  0  0  0
    2.4660   -1.0293   -4.2886 H   0  0  0  0  0  0  0  0  0  0  0  0
    1.5992   -1.6719   -2.0802 H   0  0  0  0  0  0  0  0  0  0  0  0
    1.8073   -1.7003    0.2006 H   0  0  0  0  0  0  0  0  0  0  0  0
    2.4363   -1.0070    3.5399 H   0  0  0  0  0  0  0  0  0  0  0  0
    2.7528   -2.6158    2.8705 H   0  0  0  0  0  0  0  0  0  0  0  0
   -2.0243    3.5514    2.3065 H   0  0  0  0  0  0  0  0  0  0  0  0
   -3.2385    2.3198    2.5017 H   0  0  0  0  0  0  0  0  0  0  0  0
   -0.6581    3.2218   -0.3642 H   0  0  0  0  0  0  0  0  0  0  0  0
   -1.8084    3.2664   -2.7510 H   0  0  0  0  0  0  0  0  0  0  0  0
   -4.3753    2.6921   -2.5736 H   0  0  0  0  0  0  0  0  0  0  0  0
   -3.7234    0.2534    3.1517 H   0  0  0  0  0  0  0  0  0  0  0  0
   -5.6646   -1.0496    2.4415 H   0  0  0  0  0  0  0  0  0  0  0  0
   -6.7486   -2.3664    0.6373 H   0  0  0  0  0  0  0  0  0  0  0  0
   -5.8172   -3.8398    1.0024 H   0  0  0  0  0  0  0  0  0  0  0  0
   -5.7864   -3.1265   -0.6296 H   0  0  0  0  0  0  0  0  0  0  0  0
   -3.3046   -2.9350   -0.6317 H   0  0  0  0  0  0  0  0  0  0  0  0
   -1.3643   -1.5986    0.0190 H   0  0  0  0  0  0  0  0  0  0  0  0
    5.0693    0.1184   -0.2318 H   0  0  0  0  0  0  0  0  0  0  0  0
  1  2  1  0
  2  3  1  0
  3  4  2  0
  4  5  1  0
  5  6  2  0
  6  7  1  0
  7  8  1  0
  8  9  1  0
  9 10  2  0
  9 11  1  0
 11 12  1  0
 12 13  1  0
 13 14  2  0
 14 15  1  0
 15 16  2  0
 16 17  1  0
 17 18  1  0
 18 19  2  0
 19 20  1  0
 20 21  2  0
 21 22  1  0
 16 23  1  0
 23 24  1  0
 24 25  2  0
 25 26  1  0
 26 27  2  0
 27 28  1  0
 27 29  1  0
 29 30  2  0
  7 31  2  0
 31  3  1  0
 23 13  1  0
 30 24  1  0
 22 18  1  0
  1 32  1  0
  1 33  1  0
  1 34  1  0
  4 35  1  0
  5 36  1  0
  6 37  1  0
  8 38  1  0
 11 39  1  0
 11 40  1  0
 17 41  1  0
 17 42  1  0
 19 43  1  0
 20 44  1  0
 21 45  1  0
 25 46  1  0
 26 47  1  0
 28 48  1  0
 28 49  1  0
 28 50  1  0
 29 51  1  0
 30 52  1  0
 31 53  1  0
M  END
$$$$
