
     RDKit          3D

 30 31  0  0  0  0  0  0  0  0999 V2000
    4.8003   -2.3822   -2.4230 C   0  0  0  0  0  0  0  0  0  0  0  0
    3.4290   -2.7554   -2.3679 O   0  0  0  0  0  0  0  0  0  0  0  0
    2.6168   -2.0078   -1.5613 C   0  0  0  0  0  0  0  0  0  0  0  0
    2.9976   -0.8873   -0.8238 C   0  0  0  0  0  0  0  0  0  0  0  0
    2.0589   -0.2099   -0.0354 C   0  0  0  0  0  0  0  0  0  0  0  0
    0.7268   -0.6428    0.0240 C   0  0  0  0  0  0  0  0  0  0  0  0
   -0.2589    0.0795    0.8589 C   0  0  0  0  0  0  0  0  0  0  0  0
   -0.0159    0.1496    2.2686 C   0  0  0  0  0  0  0  0  0  0  0  0
    0.2621    0.1757    3.3965 N   0  0  0  0  0  0  0  0  0  0  0  0
   -1.3047    0.6595    0.2327 C   0  0  0  0  0  0  0  0  0  0  0  0
   -2.4119    1.4318    0.8180 C   0  0  0  0  0  0  0  0  0  0  0  0
   -3.3389    2.0620   -0.0088 C   0  0  0  0  0  0  0  0  0  0  0  0
   -4.3829    2.7807    0.5709 C   0  0  0  0  0  0  0  0  0  0  0  0
   -4.4750    2.8495    1.9547 C   0  0  0  0  0  0  0  0  0  0  0  0
   -3.5150    2.1919    2.7020 C   0  0  0  0  0  0  0  0  0  0  0  0
   -2.4959    1.4885    2.1615 N   0  0  0  0  0  0  0  0  0  0  0  0
    0.3520   -1.7721   -0.7158 C   0  0  0  0  0  0  0  0  0  0  0  0
    1.2916   -2.4444   -1.5024 C   0  0  0  0  0  0  0  0  0  0  0  0
    4.9188   -1.3789   -2.8452 H   0  0  0  0  0  0  0  0  0  0  0  0
    5.2699   -2.4548   -1.4364 H   0  0  0  0  0  0  0  0  0  0  0  0
    5.3115   -3.0853   -3.0875 H   0  0  0  0  0  0  0  0  0  0  0  0
    4.0158   -0.5125   -0.8366 H   0  0  0  0  0  0  0  0  0  0  0  0
    2.3823    0.6620    0.5313 H   0  0  0  0  0  0  0  0  0  0  0  0
   -1.3678    0.5713   -0.8506 H   0  0  0  0  0  0  0  0  0  0  0  0
   -3.2611    2.0056   -1.0896 H   0  0  0  0  0  0  0  0  0  0  0  0
   -5.1168    3.2825   -0.0534 H   0  0  0  0  0  0  0  0  0  0  0  0
   -5.2732    3.4002    2.4393 H   0  0  0  0  0  0  0  0  0  0  0  0
   -3.5363    2.2108    3.7882 H   0  0  0  0  0  0  0  0  0  0  0  0
   -0.6689   -2.1465   -0.6802 H   0  0  0  0  0  0  0  0  0  0  0  0
    0.9895   -3.3215   -2.0701 H   0  0  0  0  0  0  0  0  0  0  0  0
  1  2  1  0
  2  3  1  0
  3  4  2  0
  4  5  1  0
  5  6  2  0
  6  7  1  0
  7  8  1  0
  8  9  3  0
  7 10  2  3
 10 11  1  0
 11 12  2  0
 12 13  1  0
 13 14  2  0
 14 15  1  0
 15 16  2  0
  6 17  1  0
 17 18  2  0
 18  3  1  0
 16 11  1  0
  1 19  1  0
  1 20  1  0
  1 21  1  0
  4 22  1  0
  5 23  1  0
 10 24  1  0
 12 25  1  0
 13 26  1  0
 14 27  1  0
 15 28  1  0
 17 29  1  0
 18 30  1  0
M  END
$$$$
