
     RDKit          3D

 35 37  0  0  0  0  0  0  0  0999 V2000
   -2.3181    3.6868    4.9046 C   0  0  0  0  0  0  0  0  0  0  0  0
   -2.1899    4.1312    3.5598 O   0  0  0  0  0  0  0  0  0  0  0  0
   -1.5640    3.2845    2.6874 C   0  0  0  0  0  0  0  0  0  0  0  0
   -1.5234    3.7334    1.3656 C   0  0  0  0  0  0  0  0  0  0  0  0
   -0.9151    2.9655    0.3690 C   0  0  0  0  0  0  0  0  0  0  0  0
   -0.3418    1.7311    0.6849 C   0  0  0  0  0  0  0  0  0  0  0  0
    0.3100    0.9510   -0.3746 C   0  0  0  0  0  0  0  0  0  0  0  0
   -0.0351   -0.2880   -0.7888 C   0  0  0  0  0  0  0  0  0  0  0  0
   -1.1437   -0.9809   -0.1986 C   0  0  0  0  0  0  0  0  0  0  0  0
   -2.0276   -1.5511    0.2949 N   0  0  0  0  0  0  0  0  0  0  0  0
    0.6700   -0.9591   -1.8505 C   0  0  0  0  0  0  0  0  0  0  0  0
    1.1148   -0.3442   -3.0055 C   0  0  0  0  0  0  0  0  0  0  0  0
    1.7278   -1.2899   -3.7830 N   0  0  0  0  0  0  0  0  0  0  0  0
    1.7023   -2.5133   -3.1553 C   0  0  0  0  0  0  0  0  0  0  0  0
    2.2123   -3.7470   -3.5789 C   0  0  0  0  0  0  0  0  0  0  0  0
    2.0480   -4.8443   -2.7305 C   0  0  0  0  0  0  0  0  0  0  0  0
    1.4007   -4.7102   -1.5063 C   0  0  0  0  0  0  0  0  0  0  0  0
    0.8969   -3.4696   -1.0968 C   0  0  0  0  0  0  0  0  0  0  0  0
    1.0419   -2.3419   -1.9355 C   0  0  0  0  0  0  0  0  0  0  0  0
   -0.3681    1.2882    2.0118 C   0  0  0  0  0  0  0  0  0  0  0  0
   -0.9808    2.0588    3.0076 C   0  0  0  0  0  0  0  0  0  0  0  0
   -2.8649    4.4551    5.4597 H   0  0  0  0  0  0  0  0  0  0  0  0
   -2.8972    2.7591    4.9618 H   0  0  0  0  0  0  0  0  0  0  0  0
   -1.3367    3.5709    5.3761 H   0  0  0  0  0  0  0  0  0  0  0  0
   -1.9734    4.6895    1.1092 H   0  0  0  0  0  0  0  0  0  0  0  0
   -0.9026    3.3399   -0.6518 H   0  0  0  0  0  0  0  0  0  0  0  0
    1.1433    1.4678   -0.8470 H   0  0  0  0  0  0  0  0  0  0  0  0
    1.0392    0.6784   -3.3516 H   0  0  0  0  0  0  0  0  0  0  0  0
    2.1417   -1.1221   -4.6899 H   0  0  0  0  0  0  0  0  0  0  0  0
    2.7187   -3.8553   -4.5326 H   0  0  0  0  0  0  0  0  0  0  0  0
    2.4313   -5.8166   -3.0316 H   0  0  0  0  0  0  0  0  0  0  0  0
    1.2816   -5.5760   -0.8592 H   0  0  0  0  0  0  0  0  0  0  0  0
    0.3968   -3.3928   -0.1352 H   0  0  0  0  0  0  0  0  0  0  0  0
    0.0871    0.3399    2.2898 H   0  0  0  0  0  0  0  0  0  0  0  0
   -0.9823    1.6714    4.0210 H   0  0  0  0  0  0  0  0  0  0  0  0
  1  2  1  0
  2  3  1  0
  3  4  2  0
  4  5  1  0
  5  6  2  0
  6  7  1  0
  7  8  2  3
  8  9  1  0
  9 10  3  0
  8 11  1  0
 11 12  2  0
 12 13  1  0
 13 14  1  0
 14 15  2  0
 15 16  1  0
 16 17  2  0
 17 18  1  0
 18 19  2  0
  6 20  1  0
 20 21  2  0
 21  3  1  0
 19 11  1  0
 19 14  1  0
  1 22  1  0
  1 23  1  0
  1 24  1  0
  4 25  1  0
  5 26  1  0
  7 27  1  0
 12 28  1  0
 13 29  1  0
 15 30  1  0
 16 31  1  0
 17 32  1  0
 18 33  1  0
 20 34  1  0
 21 35  1  0
M  END
$$$$
