
     RDKit          3D

 27 27  0  0  0  0  0  0  0  0999 V2000
   -2.4768   -0.2756   -1.5844 C   0  0  0  0  0  0  0  0  0  0  0  0
   -1.4656   -0.1126   -0.4350 C   0  0  0  0  0  0  0  0  0  0  0  0
   -1.9306   -0.9623    0.7568 C   0  0  0  0  0  0  0  0  0  0  0  0
   -1.4204    1.3609   -0.0237 C   0  0  0  0  0  0  0  0  0  0  0  0
    0.1517   -0.6881   -1.0416 S   0  0  0  0  0  6  0  0  0  0  0  0
    0.6685    0.1982   -2.0623 O   0  0  0  0  0  0  0  0  0  0  0  0
    0.0827   -2.1187   -1.2757 O   0  0  0  0  0  0  0  0  0  0  0  0
    1.2837   -0.5577    0.2760 C   0  0  0  0  0  0  0  0  0  0  0  0
    1.4732   -1.6149    1.2263 C   0  0  0  0  0  0  0  0  0  0  0  0
    2.4591   -1.3238    2.1401 C   0  0  0  0  0  0  0  0  0  0  0  0
    3.1682    0.2004    1.8471 S   0  0  0  0  0  0  0  0  0  0  0  0
    2.1576    0.4945    0.4874 C   0  0  0  0  0  0  0  0  0  0  0  0
    2.2830    1.7437   -0.2195 C   0  0  0  0  0  0  0  0  0  0  0  0
    1.3904    2.5200   -0.5228 O   0  0  0  0  0  0  0  0  0  0  0  0
    3.5670    2.0264   -0.5294 O   0  0  0  0  0  0  0  0  0  0  0  0
   -2.5535   -1.3216   -1.9020 H   0  0  0  0  0  0  0  0  0  0  0  0
   -3.4772    0.0559   -1.2843 H   0  0  0  0  0  0  0  0  0  0  0  0
   -2.1793    0.3110   -2.4609 H   0  0  0  0  0  0  0  0  0  0  0  0
   -1.9424   -2.0296    0.5112 H   0  0  0  0  0  0  0  0  0  0  0  0
   -2.9445   -0.6832    1.0662 H   0  0  0  0  0  0  0  0  0  0  0  0
   -1.2800   -0.8283    1.6265 H   0  0  0  0  0  0  0  0  0  0  0  0
   -1.1168    1.9986   -0.8600 H   0  0  0  0  0  0  0  0  0  0  0  0
   -0.7250    1.5273    0.8046 H   0  0  0  0  0  0  0  0  0  0  0  0
   -2.4064    1.7066    0.3078 H   0  0  0  0  0  0  0  0  0  0  0  0
    0.9252   -2.5512    1.2246 H   0  0  0  0  0  0  0  0  0  0  0  0
    2.8092   -1.9405    2.9575 H   0  0  0  0  0  0  0  0  0  0  0  0
    3.4993    2.8646   -1.0303 H   0  0  0  0  0  0  0  0  0  0  0  0
  1  2  1  0
  2  3  1  0
  2  4  1  0
  2  5  1  0
  5  6  2  0
  5  7  2  0
  5  8  1  0
  8  9  1  0
  9 10  2  0
 10 11  1  0
 11 12  1  0
 12 13  1  0
 13 14  2  0
 13 15  1  0
 12  8  2  0
  1 16  1  0
  1 17  1  0
  1 18  1  0
  3 19  1  0
  3 20  1  0
  3 21  1  0
  4 22  1  0
  4 23  1  0
  4 24  1  0
  9 25  1  0
 10 26  1  0
 15 27  1  0
M  END
$$$$
