
     RDKit          3D

 59 62  0  0  0  0  0  0  0  0999 V2000
    8.3978   -0.6119   -1.4947 C   0  0  0  0  0  0  0  0  0  0  0  0
    7.1426   -0.3123   -0.7301 C   0  0  0  0  0  0  0  0  0  0  0  0
    6.7714   -1.1081    0.3586 C   0  0  0  0  0  0  0  0  0  0  0  0
    5.5856   -0.8563    1.0600 C   0  0  0  0  0  0  0  0  0  0  0  0
    4.7520    0.2020    0.6829 C   0  0  0  0  0  0  0  0  0  0  0  0
    3.5274    0.4924    1.3609 N   0  0  0  0  0  0  0  0  0  0  0  0
    2.5934    1.2498    0.7210 N   0  0  0  0  0  0  0  0  0  0  0  0
    1.4992    1.1618    1.4789 C   0  0  0  0  0  0  0  0  0  0  0  0
    0.1942    1.7305    1.1783 C   0  0  0  0  0  0  0  0  0  0  0  0
   -0.0739    2.3369    0.1405 O   0  0  0  0  0  0  0  0  0  0  0  0
   -0.7533    1.4914    2.1907 N   0  0  0  0  0  0  0  0  0  0  0  0
   -2.1065    2.0093    2.0230 C   0  0  0  0  0  0  0  0  0  0  0  0
   -2.9328    1.0910    1.1240 C   0  0  0  0  0  0  0  0  0  0  0  0
   -3.8473    0.3921    1.5551 O   0  0  0  0  0  0  0  0  0  0  0  0
   -2.5861    1.1312   -0.2120 N   0  0  0  0  0  0  0  0  0  0  0  0
   -3.2206    0.2805   -1.1991 C   0  0  0  0  0  0  0  0  0  0  0  0
   -4.5976    0.8021   -1.6176 C   0  0  0  0  0  0  0  0  0  0  0  0
   -5.2568   -0.1079   -2.6311 C   0  0  0  0  0  0  0  0  0  0  0  0
   -5.0059    0.1133   -3.9968 C   0  0  0  0  0  0  0  0  0  0  0  0
   -5.5688   -0.7103   -4.9706 C   0  0  0  0  0  0  0  0  0  0  0  0
   -6.3884   -1.7683   -4.5938 C   0  0  0  0  0  0  0  0  0  0  0  0
   -6.6449   -2.0034   -3.2432 C   0  0  0  0  0  0  0  0  0  0  0  0
   -6.0832   -1.1857   -2.2489 C   0  0  0  0  0  0  0  0  0  0  0  0
   -6.3927   -1.4775   -0.8050 C   0  0  0  0  0  0  0  0  0  0  0  0
   -0.5036    0.7879    3.3743 N   0  0  0  0  0  0  0  0  0  0  0  0
    0.6706    0.2771    3.6210 C   0  0  0  0  0  0  0  0  0  0  0  0
    0.8656   -0.4776    4.9048 C   0  0  0  0  0  0  0  0  0  0  0  0
    1.7351    0.4573    2.6636 C   0  0  0  0  0  0  0  0  0  0  0  0
    3.0767    0.1147    2.6327 C   0  0  0  0  0  0  0  0  0  0  0  0
    3.9358   -0.4686    3.6958 C   0  0  0  0  0  0  0  0  0  0  0  0
    5.1071    0.9742   -0.4358 C   0  0  0  0  0  0  0  0  0  0  0  0
    6.2925    0.7207   -1.1325 C   0  0  0  0  0  0  0  0  0  0  0  0
    8.2166   -1.4199   -2.2100 H   0  0  0  0  0  0  0  0  0  0  0  0
    8.7461    0.2695   -2.0433 H   0  0  0  0  0  0  0  0  0  0  0  0
    9.2022   -0.9101   -0.8145 H   0  0  0  0  0  0  0  0  0  0  0  0
    7.4001   -1.9437    0.6607 H   0  0  0  0  0  0  0  0  0  0  0  0
    5.3288   -1.5429    1.8576 H   0  0  0  0  0  0  0  0  0  0  0  0
   -2.5932    2.0906    3.0007 H   0  0  0  0  0  0  0  0  0  0  0  0
   -2.0705    3.0096    1.5776 H   0  0  0  0  0  0  0  0  0  0  0  0
   -1.7738    1.6825   -0.4924 H   0  0  0  0  0  0  0  0  0  0  0  0
   -3.2924   -0.7316   -0.7849 H   0  0  0  0  0  0  0  0  0  0  0  0
   -2.5473    0.2363   -2.0629 H   0  0  0  0  0  0  0  0  0  0  0  0
   -4.4951    1.8092   -2.0441 H   0  0  0  0  0  0  0  0  0  0  0  0
   -5.2490    0.9354   -0.7463 H   0  0  0  0  0  0  0  0  0  0  0  0
   -4.3653    0.9354   -4.3099 H   0  0  0  0  0  0  0  0  0  0  0  0
   -5.3664   -0.5259   -6.0223 H   0  0  0  0  0  0  0  0  0  0  0  0
   -6.8294   -2.4121   -5.3500 H   0  0  0  0  0  0  0  0  0  0  0  0
   -7.2894   -2.8357   -2.9687 H   0  0  0  0  0  0  0  0  0  0  0  0
   -6.9977   -2.3844   -0.6992 H   0  0  0  0  0  0  0  0  0  0  0  0
   -5.4705   -1.6354   -0.2376 H   0  0  0  0  0  0  0  0  0  0  0  0
   -6.9586   -0.6521   -0.3637 H   0  0  0  0  0  0  0  0  0  0  0  0
    1.3681   -1.4292    4.7128 H   0  0  0  0  0  0  0  0  0  0  0  0
   -0.1008   -0.6836    5.3747 H   0  0  0  0  0  0  0  0  0  0  0  0
    1.4646    0.1240    5.5935 H   0  0  0  0  0  0  0  0  0  0  0  0
    3.9194   -1.5616    3.6519 H   0  0  0  0  0  0  0  0  0  0  0  0
    3.5872   -0.1679    4.6879 H   0  0  0  0  0  0  0  0  0  0  0  0
    4.9684   -0.1134    3.6294 H   0  0  0  0  0  0  0  0  0  0  0  0
    4.4718    1.7911   -0.7766 H   0  0  0  0  0  0  0  0  0  0  0  0
    6.5414    1.3374   -1.9934 H   0  0  0  0  0  0  0  0  0  0  0  0
  1  2  1  0
  2  3  2  0
  3  4  1  0
  4  5  2  0
  5  6  1  0
  6  7  1  0
  7  8  2  0
  8  9  1  0
  9 10  2  0
  9 11  1  0
 11 12  1  0
 12 13  1  0
 13 14  2  0
 13 15  1  0
 15 16  1  0
 16 17  1  0
 17 18  1  0
 18 19  2  0
 19 20  1  0
 20 21  2  0
 21 22  1  0
 22 23  2  0
 23 24  1  0
 11 25  1  0
 25 26  2  0
 26 27  1  0
 26 28  1  0
 28 29  2  0
 29 30  1  0
  5 31  1  0
 31 32  2  0
 32  2  1  0
 29  6  1  0
 28  8  1  0
 23 18  1  0
  1 33  1  0
  1 34  1  0
  1 35  1  0
  3 36  1  0
  4 37  1  0
 12 38  1  0
 12 39  1  0
 15 40  1  0
 16 41  1  0
 16 42  1  0
 17 43  1  0
 17 44  1  0
 19 45  1  0
 20 46  1  0
 21 47  1  0
 22 48  1  0
 24 49  1  0
 24 50  1  0
 24 51  1  0
 27 52  1  0
 27 53  1  0
 27 54  1  0
 30 55  1  0
 30 56  1  0
 30 57  1  0
 31 58  1  0
 32 59  1  0
M  END
$$$$
