
     RDKit          3D

 55 58  0  0  0  0  0  0  0  0999 V2000
    8.1521   -1.9697    0.5043 O   0  0  0  0  0  0  0  0  0  0  0  0
    6.8591   -1.4822    0.1510 C   0  0  0  0  0  0  0  0  0  0  0  0
    5.7922   -2.5014    0.5821 C   0  0  0  0  0  0  0  0  0  0  0  0
    4.3843   -2.1846    0.3063 N   0  0  0  0  0  0  0  0  0  0  0  0
    3.9116   -0.9833    1.0115 C   0  0  0  0  0  0  0  0  0  0  0  0
    2.4077   -0.7177    0.7566 C   0  0  0  0  0  0  0  0  0  0  0  0
    2.0894   -0.5999   -0.6839 N   0  0  0  0  0  0  0  0  0  0  0  0
    0.6431   -0.4408   -0.9207 C   0  0  0  0  0  0  0  0  0  0  0  0
    0.0912    0.9145   -0.4456 C   0  0  0  0  0  0  0  0  0  0  0  0
   -1.3643    1.0785   -0.8118 C   0  0  0  0  0  0  0  0  0  0  0  0
   -2.4489    1.1331   -0.0041 C   0  0  0  0  0  0  0  0  0  0  0  0
   -2.3606    1.0214    1.4762 C   0  0  0  0  0  0  0  0  0  0  0  0
   -1.6858   -0.0346    2.1073 C   0  0  0  0  0  0  0  0  0  0  0  0
   -1.6320   -0.1156    3.5003 C   0  0  0  0  0  0  0  0  0  0  0  0
   -2.2709    0.8450    4.2795 C   0  0  0  0  0  0  0  0  0  0  0  0
   -2.9837    1.8760    3.6671 C   0  0  0  0  0  0  0  0  0  0  0  0
   -3.0490    1.9597    2.2699 C   0  0  0  0  0  0  0  0  0  0  0  0
   -4.0490    3.2611    1.5461 S   0  0  0  0  0  0  0  0  0  0  0  0
   -4.5479    2.4813    0.0100 C   0  0  0  0  0  0  0  0  0  0  0  0
   -5.7703    2.8582   -0.5587 C   0  0  0  0  0  0  0  0  0  0  0  0
   -6.2126    2.2657   -1.7438 C   0  0  0  0  0  0  0  0  0  0  0  0
   -5.4385    1.2870   -2.3822 C   0  0  0  0  0  0  0  0  0  0  0  0
   -5.9290    0.6164   -3.6420 C   0  0  0  0  0  0  0  0  0  0  0  0
   -6.7632    1.4025   -4.3780 F   0  0  0  0  0  0  0  0  0  0  0  0
   -6.6214   -0.5265   -3.3836 F   0  0  0  0  0  0  0  0  0  0  0  0
   -4.9178    0.2601   -4.4827 F   0  0  0  0  0  0  0  0  0  0  0  0
   -4.2125    0.9100   -1.8085 C   0  0  0  0  0  0  0  0  0  0  0  0
   -3.7478    1.5144   -0.6282 C   0  0  0  0  0  0  0  0  0  0  0  0
    2.5831   -1.8101   -1.3806 C   0  0  0  0  0  0  0  0  0  0  0  0
    4.0869   -2.0676   -1.1296 C   0  0  0  0  0  0  0  0  0  0  0  0
    8.7952   -1.2995    0.2158 H   0  0  0  0  0  0  0  0  0  0  0  0
    6.8454   -1.3267   -0.9315 H   0  0  0  0  0  0  0  0  0  0  0  0
    6.7162   -0.5211    0.6530 H   0  0  0  0  0  0  0  0  0  0  0  0
    6.0313   -3.4695    0.1215 H   0  0  0  0  0  0  0  0  0  0  0  0
    5.9063   -2.6889    1.6583 H   0  0  0  0  0  0  0  0  0  0  0  0
    4.0585   -1.1078    2.0910 H   0  0  0  0  0  0  0  0  0  0  0  0
    4.4783   -0.0961    0.7022 H   0  0  0  0  0  0  0  0  0  0  0  0
    1.8191   -1.5238    1.2152 H   0  0  0  0  0  0  0  0  0  0  0  0
    2.1516    0.2117    1.2760 H   0  0  0  0  0  0  0  0  0  0  0  0
    0.4578   -0.5094   -2.0015 H   0  0  0  0  0  0  0  0  0  0  0  0
    0.0825   -1.2631   -0.4574 H   0  0  0  0  0  0  0  0  0  0  0  0
    0.2480    1.0558    0.6260 H   0  0  0  0  0  0  0  0  0  0  0  0
    0.6501    1.7231   -0.9347 H   0  0  0  0  0  0  0  0  0  0  0  0
   -1.4975    1.2485   -1.8809 H   0  0  0  0  0  0  0  0  0  0  0  0
   -1.2033   -0.8107    1.5203 H   0  0  0  0  0  0  0  0  0  0  0  0
   -1.0969   -0.9338    3.9761 H   0  0  0  0  0  0  0  0  0  0  0  0
   -2.2303    0.7826    5.3640 H   0  0  0  0  0  0  0  0  0  0  0  0
   -3.5003    2.6048    4.2873 H   0  0  0  0  0  0  0  0  0  0  0  0
   -6.3918    3.6106   -0.0773 H   0  0  0  0  0  0  0  0  0  0  0  0
   -7.1708    2.5689   -2.1643 H   0  0  0  0  0  0  0  0  0  0  0  0
   -3.6204    0.1305   -2.2872 H   0  0  0  0  0  0  0  0  0  0  0  0
    2.0111   -2.6940   -1.0663 H   0  0  0  0  0  0  0  0  0  0  0  0
    2.4363   -1.6931   -2.4612 H   0  0  0  0  0  0  0  0  0  0  0  0
    4.3656   -2.9966   -1.6412 H   0  0  0  0  0  0  0  0  0  0  0  0
    4.6622   -1.2533   -1.5876 H   0  0  0  0  0  0  0  0  0  0  0  0
  1  2  1  0
  2  3  1  0
  3  4  1  0
  4  5  1  0
  5  6  1  0
  6  7  1  0
  7  8  1  0
  8  9  1  0
  9 10  1  0
 10 11  2  3
 11 12  1  0
 12 13  2  0
 13 14  1  0
 14 15  2  0
 15 16  1  0
 16 17  2  0
 17 18  1  0
 18 19  1  0
 19 20  2  0
 20 21  1  0
 21 22  2  0
 22 23  1  0
 23 24  1  0
 23 25  1  0
 23 26  1  0
 22 27  1  0
 27 28  2  0
  7 29  1  0
 29 30  1  0
 30  4  1  0
 28 11  1  0
 17 12  1  0
 28 19  1  0
  1 31  1  0
  2 32  1  0
  2 33  1  0
  3 34  1  0
  3 35  1  0
  5 36  1  0
  5 37  1  0
  6 38  1  0
  6 39  1  0
  8 40  1  0
  8 41  1  0
  9 42  1  0
  9 43  1  0
 10 44  1  0
 13 45  1  0
 14 46  1  0
 15 47  1  0
 16 48  1  0
 20 49  1  0
 21 50  1  0
 27 51  1  0
 29 52  1  0
 29 53  1  0
 30 54  1  0
 30 55  1  0
M  END
$$$$
