
     RDKit          3D

 51 55  0  0  0  0  0  0  0  0999 V2000
    4.3441   -2.1320   -2.2230 C   0  0  0  0  0  0  0  0  0  0  0  0
    3.8438   -1.4575   -3.4890 C   0  0  0  0  0  0  0  0  0  0  0  0
    3.3449   -0.1507   -3.2079 O   0  0  0  0  0  0  0  0  0  0  0  0
    2.0457   -0.0067   -2.8107 C   0  0  0  0  0  0  0  0  0  0  0  0
    1.6569    1.3195   -2.5885 C   0  0  0  0  0  0  0  0  0  0  0  0
    0.3641    1.6246   -2.1605 C   0  0  0  0  0  0  0  0  0  0  0  0
   -0.5433    0.5879   -1.9409 C   0  0  0  0  0  0  0  0  0  0  0  0
   -2.1861    0.9658   -1.3653 S   0  0  0  0  0  6  0  0  0  0  0  0
   -3.0335   -0.1509   -1.7358 O   0  0  0  0  0  0  0  0  0  0  0  0
   -2.5083    2.2971   -1.8351 O   0  0  0  0  0  0  0  0  0  0  0  0
   -1.9714    0.9826    0.3185 N   0  0  0  0  0  0  0  0  0  0  0  0
   -2.7073    1.9193    1.0933 C   0  0  0  0  0  0  0  0  0  0  0  0
   -3.6094    1.5875    1.8560 O   0  0  0  0  0  0  0  0  0  0  0  0
   -2.2233    3.2833    0.9898 C   0  0  0  0  0  0  0  0  0  0  0  0
   -2.7650    4.4692    1.4530 C   0  0  0  0  0  0  0  0  0  0  0  0
   -1.8597    5.4990    1.1024 C   0  0  0  0  0  0  0  0  0  0  0  0
   -0.8119    4.8841    0.4607 C   0  0  0  0  0  0  0  0  0  0  0  0
   -1.0129    3.5432    0.3967 O   0  0  0  0  0  0  0  0  0  0  0  0
   -1.7599   -0.2995    0.9541 C   0  0  0  0  0  0  0  0  0  0  0  0
   -2.8196   -1.2139    1.0601 C   0  0  0  0  0  0  0  0  0  0  0  0
   -2.5906   -2.4366    1.6595 C   0  0  0  0  0  0  0  0  0  0  0  0
   -3.7309   -3.7443    1.9046 S   0  0  0  0  0  0  0  0  0  0  0  0
   -2.4364   -4.6696    2.6697 C   0  0  0  0  0  0  0  0  0  0  0  0
   -2.6164   -5.7993    3.1036 O   0  0  0  0  0  0  0  0  0  0  0  0
   -1.2022   -4.0295    2.7405 O   0  0  0  0  0  0  0  0  0  0  0  0
   -1.3351   -2.7634    2.1566 C   0  0  0  0  0  0  0  0  0  0  0  0
   -0.2536   -1.8753    2.0833 C   0  0  0  0  0  0  0  0  0  0  0  0
    1.0203   -2.2056    2.5881 C   0  0  0  0  0  0  0  0  0  0  0  0
    2.0810   -1.3059    2.5065 C   0  0  0  0  0  0  0  0  0  0  0  0
    1.8847   -0.0608    1.9258 C   0  0  0  0  0  0  0  0  0  0  0  0
    0.6284    0.2843    1.4238 C   0  0  0  0  0  0  0  0  0  0  0  0
   -0.4669   -0.6090    1.4787 C   0  0  0  0  0  0  0  0  0  0  0  0
   -0.1793   -0.7385   -2.1878 C   0  0  0  0  0  0  0  0  0  0  0  0
    1.1199   -1.0330   -2.6142 C   0  0  0  0  0  0  0  0  0  0  0  0
    5.0915   -1.5052   -1.7252 H   0  0  0  0  0  0  0  0  0  0  0  0
    3.5343   -2.2895   -1.5045 H   0  0  0  0  0  0  0  0  0  0  0  0
    4.7961   -3.1007   -2.4546 H   0  0  0  0  0  0  0  0  0  0  0  0
    3.1216   -2.0731   -4.0360 H   0  0  0  0  0  0  0  0  0  0  0  0
    4.6948   -1.3230   -4.1664 H   0  0  0  0  0  0  0  0  0  0  0  0
    2.3728    2.1222   -2.7519 H   0  0  0  0  0  0  0  0  0  0  0  0
    0.0812    2.6616   -1.9962 H   0  0  0  0  0  0  0  0  0  0  0  0
   -3.7069    4.5679    1.9765 H   0  0  0  0  0  0  0  0  0  0  0  0
   -1.9578    6.5586    1.2945 H   0  0  0  0  0  0  0  0  0  0  0  0
    0.1059    5.2427    0.0152 H   0  0  0  0  0  0  0  0  0  0  0  0
   -3.8086   -0.9701    0.6793 H   0  0  0  0  0  0  0  0  0  0  0  0
    1.1961   -3.1746    3.0529 H   0  0  0  0  0  0  0  0  0  0  0  0
    3.0576   -1.5774    2.8995 H   0  0  0  0  0  0  0  0  0  0  0  0
    2.7080    0.6467    1.8604 H   0  0  0  0  0  0  0  0  0  0  0  0
    0.5189    1.2722    0.9807 H   0  0  0  0  0  0  0  0  0  0  0  0
   -0.8903   -1.5487   -2.0409 H   0  0  0  0  0  0  0  0  0  0  0  0
    1.3742   -2.0750   -2.7762 H   0  0  0  0  0  0  0  0  0  0  0  0
  1  2  1  0
  2  3  1  0
  3  4  1  0
  4  5  2  0
  5  6  1  0
  6  7  2  0
  7  8  1  0
  8  9  2  0
  8 10  2  0
  8 11  1  0
 11 12  1  0
 12 13  2  0
 12 14  1  0
 14 15  2  0
 15 16  1  0
 16 17  2  0
 17 18  1  0
 11 19  1  0
 19 20  2  0
 20 21  1  0
 21 22  1  0
 22 23  1  0
 23 24  2  0
 23 25  1  0
 25 26  1  0
 26 27  1  0
 27 28  2  0
 28 29  1  0
 29 30  2  0
 30 31  1  0
 31 32  2  0
  7 33  1  0
 33 34  2  0
 34  4  1  0
 18 14  1  0
 32 19  1  0
 26 21  2  0
 32 27  1  0
  1 35  1  0
  1 36  1  0
  1 37  1  0
  2 38  1  0
  2 39  1  0
  5 40  1  0
  6 41  1  0
 15 42  1  0
 16 43  1  0
 17 44  1  0
 20 45  1  0
 28 46  1  0
 29 47  1  0
 30 48  1  0
 31 49  1  0
 33 50  1  0
 34 51  1  0
M  END
$$$$
