
     RDKit          3D

 39 41  0  0  0  0  0  0  0  0999 V2000
    4.6908    2.5034    0.2772 C   0  0  0  0  0  0  0  0  0  0  0  0
    4.3188    1.7325    1.5309 C   0  0  0  0  0  0  0  0  0  0  0  0
    3.8752    0.3840    1.2326 N   0  0  0  0  0  0  0  0  0  0  0  0
    4.6220   -0.7531    1.3116 C   0  0  0  0  0  0  0  0  0  0  0  0
    3.7869   -1.7798    0.9433 C   0  0  0  0  0  0  0  0  0  0  0  0
    2.5396   -1.1679    0.6560 C   0  0  0  0  0  0  0  0  0  0  0  0
    1.2990   -1.8366    0.2130 C   0  0  0  0  0  0  0  0  0  0  0  0
    1.2595   -3.0500    0.0528 O   0  0  0  0  0  0  0  0  0  0  0  0
    0.2837   -0.9197    0.0280 N   0  0  0  0  0  0  0  0  0  0  0  0
   -1.0200   -1.1359   -0.3780 C   0  0  0  0  0  0  0  0  0  0  0  0
   -1.5703   -2.7274   -0.7223 S   0  0  0  0  0  0  0  0  0  0  0  0
   -3.0887   -2.1596   -1.0981 C   0  0  0  0  0  0  0  0  0  0  0  0
   -3.2171   -0.8064   -0.9783 C   0  0  0  0  0  0  0  0  0  0  0  0
   -2.0140   -0.1681   -0.5580 C   0  0  0  0  0  0  0  0  0  0  0  0
   -1.8693    1.2736   -0.3577 C   0  0  0  0  0  0  0  0  0  0  0  0
   -2.7824    2.0703   -0.5456 O   0  0  0  0  0  0  0  0  0  0  0  0
   -0.6191    1.6399    0.0571 O   0  0  0  0  0  0  0  0  0  0  0  0
   -0.4545    3.0438    0.2563 C   0  0  0  0  0  0  0  0  0  0  0  0
   -4.5936   -0.3699   -1.3311 C   0  0  0  0  0  0  0  0  0  0  0  0
   -5.3761   -1.7209   -1.3509 C   0  0  0  0  0  0  0  0  0  0  0  0
   -4.3199   -2.8523   -1.5401 C   0  0  0  0  0  0  0  0  0  0  0  0
    2.6042    0.1699    0.8390 N   0  0  0  0  0  0  0  0  0  0  0  0
    3.8339    2.5973   -0.3983 H   0  0  0  0  0  0  0  0  0  0  0  0
    5.0319    3.5101    0.5372 H   0  0  0  0  0  0  0  0  0  0  0  0
    5.4943    2.0004   -0.2710 H   0  0  0  0  0  0  0  0  0  0  0  0
    5.1784    1.6604    2.2062 H   0  0  0  0  0  0  0  0  0  0  0  0
    3.5084    2.2347    2.0710 H   0  0  0  0  0  0  0  0  0  0  0  0
    5.6600   -0.7411    1.6135 H   0  0  0  0  0  0  0  0  0  0  0  0
    4.0247   -2.8332    0.8831 H   0  0  0  0  0  0  0  0  0  0  0  0
    0.5574    0.0444    0.2223 H   0  0  0  0  0  0  0  0  0  0  0  0
   -1.1473    3.4082    1.0212 H   0  0  0  0  0  0  0  0  0  0  0  0
   -0.5953    3.5826   -0.6857 H   0  0  0  0  0  0  0  0  0  0  0  0
    0.5672    3.2178    0.6048 H   0  0  0  0  0  0  0  0  0  0  0  0
   -4.6056    0.0947   -2.3226 H   0  0  0  0  0  0  0  0  0  0  0  0
   -5.0223    0.3204   -0.5994 H   0  0  0  0  0  0  0  0  0  0  0  0
   -6.1509   -1.7411   -2.1236 H   0  0  0  0  0  0  0  0  0  0  0  0
   -5.8744   -1.8569   -0.3819 H   0  0  0  0  0  0  0  0  0  0  0  0
   -4.2490   -3.1389   -2.5942 H   0  0  0  0  0  0  0  0  0  0  0  0
   -4.5661   -3.7294   -0.9356 H   0  0  0  0  0  0  0  0  0  0  0  0
  1  2  1  0
  2  3  1  0
  3  4  1  0
  4  5  2  0
  5  6  1  0
  6  7  1  0
  7  8  2  0
  7  9  1  0
  9 10  1  0
 10 11  1  0
 11 12  1  0
 12 13  2  0
 13 14  1  0
 14 15  1  0
 15 16  2  0
 15 17  1  0
 17 18  1  0
 13 19  1  0
 19 20  1  0
 20 21  1  0
  6 22  2  0
 22  3  1  0
 14 10  2  0
 21 12  1  0
  1 23  1  0
  1 24  1  0
  1 25  1  0
  2 26  1  0
  2 27  1  0
  4 28  1  0
  5 29  1  0
  9 30  1  0
 18 31  1  0
 18 32  1  0
 18 33  1  0
 19 34  1  0
 19 35  1  0
 20 36  1  0
 20 37  1  0
 21 38  1  0
 21 39  1  0
M  END
$$$$
