
     RDKit          3D

 54 57  0  0  0  0  0  0  0  0999 V2000
    7.1670    1.0796    3.0943 C   0  0  0  0  0  0  0  0  0  0  0  0
    7.5986    0.4467    1.7688 C   0  0  0  0  0  0  0  0  0  0  0  0
    8.4176   -0.8235    2.0116 C   0  0  0  0  0  0  0  0  0  0  0  0
    6.4071    0.1820    0.8663 C   0  0  0  0  0  0  0  0  0  0  0  0
    6.3009    0.8418   -0.3642 C   0  0  0  0  0  0  0  0  0  0  0  0
    5.2056    0.6143   -1.2046 C   0  0  0  0  0  0  0  0  0  0  0  0
    4.1913   -0.2771   -0.8358 C   0  0  0  0  0  0  0  0  0  0  0  0
    3.1256   -0.4513   -1.7436 N   0  0  0  0  0  0  0  0  0  0  0  0
    1.9901   -1.2278   -1.5720 C   0  0  0  0  0  0  0  0  0  0  0  0
    1.6993   -1.8875   -0.5772 O   0  0  0  0  0  0  0  0  0  0  0  0
    1.0740   -1.2192   -2.8035 C   0  0  0  0  0  0  0  0  0  0  0  0
   -0.3034   -1.3530   -2.4549 O   0  0  0  0  0  0  0  0  0  0  0  0
   -0.8430   -0.2238   -1.9352 C   0  0  0  0  0  0  0  0  0  0  0  0
   -0.2927    0.8637   -1.8721 O   0  0  0  0  0  0  0  0  0  0  0  0
   -2.2328   -0.4714   -1.4680 C   0  0  0  0  0  0  0  0  0  0  0  0
   -2.7743   -1.7583   -1.3746 C   0  0  0  0  0  0  0  0  0  0  0  0
   -4.0881   -1.9392   -0.9243 C   0  0  0  0  0  0  0  0  0  0  0  0
   -4.8839   -0.8417   -0.5568 C   0  0  0  0  0  0  0  0  0  0  0  0
   -4.3325    0.4279   -0.6509 C   0  0  0  0  0  0  0  0  0  0  0  0
   -3.0170    0.6263   -1.0984 C   0  0  0  0  0  0  0  0  0  0  0  0
   -5.2723    1.8366   -0.2155 S   0  0  0  0  0  6  0  0  0  0  0  0
   -5.5041    2.5646   -1.4468 O   0  0  0  0  0  0  0  0  0  0  0  0
   -4.6010    2.4403    0.9177 O   0  0  0  0  0  0  0  0  0  0  0  0
   -6.8401    1.3176    0.3566 C   0  0  0  0  0  0  0  0  0  0  0  0
   -7.7378    2.2987    0.8004 C   0  0  0  0  0  0  0  0  0  0  0  0
   -8.9976    1.9240    1.2604 C   0  0  0  0  0  0  0  0  0  0  0  0
   -9.3550    0.5781    1.2749 C   0  0  0  0  0  0  0  0  0  0  0  0
   -8.4513   -0.3918    0.8310 C   0  0  0  0  0  0  0  0  0  0  0  0
   -7.1767   -0.0286    0.3659 C   0  0  0  0  0  0  0  0  0  0  0  0
   -6.2658   -1.1044   -0.0900 C   0  0  0  0  0  0  0  0  0  0  0  0
   -6.6698   -2.2642   -0.0791 O   0  0  0  0  0  0  0  0  0  0  0  0
    4.2960   -0.9401    0.3853 C   0  0  0  0  0  0  0  0  0  0  0  0
    5.3912   -0.7120    1.2284 C   0  0  0  0  0  0  0  0  0  0  0  0
    6.5470    0.4001    3.6890 H   0  0  0  0  0  0  0  0  0  0  0  0
    6.5891    1.9943    2.9221 H   0  0  0  0  0  0  0  0  0  0  0  0
    8.0419    1.3451    3.6975 H   0  0  0  0  0  0  0  0  0  0  0  0
    8.2613    1.1662    1.2695 H   0  0  0  0  0  0  0  0  0  0  0  0
    9.3143   -0.5971    2.5986 H   0  0  0  0  0  0  0  0  0  0  0  0
    7.8468   -1.5818    2.5581 H   0  0  0  0  0  0  0  0  0  0  0  0
    8.7409   -1.2671    1.0637 H   0  0  0  0  0  0  0  0  0  0  0  0
    7.0711    1.5421   -0.6816 H   0  0  0  0  0  0  0  0  0  0  0  0
    5.1618    1.1494   -2.1496 H   0  0  0  0  0  0  0  0  0  0  0  0
    3.1741    0.1115   -2.5836 H   0  0  0  0  0  0  0  0  0  0  0  0
    1.2299   -0.3286   -3.4236 H   0  0  0  0  0  0  0  0  0  0  0  0
    1.3439   -2.0883   -3.4132 H   0  0  0  0  0  0  0  0  0  0  0  0
   -2.1849   -2.6346   -1.6377 H   0  0  0  0  0  0  0  0  0  0  0  0
   -4.4841   -2.9531   -0.8587 H   0  0  0  0  0  0  0  0  0  0  0  0
   -2.6077    1.6356   -1.1577 H   0  0  0  0  0  0  0  0  0  0  0  0
   -7.4577    3.3508    0.7875 H   0  0  0  0  0  0  0  0  0  0  0  0
   -9.7005    2.6790    1.6059 H   0  0  0  0  0  0  0  0  0  0  0  0
  -10.3382    0.2791    1.6321 H   0  0  0  0  0  0  0  0  0  0  0  0
   -8.7530   -1.4391    0.8509 H   0  0  0  0  0  0  0  0  0  0  0  0
    3.5424   -1.6455    0.7200 H   0  0  0  0  0  0  0  0  0  0  0  0
    5.4362   -1.2456    2.1750 H   0  0  0  0  0  0  0  0  0  0  0  0
  1  2  1  0
  2  3  1  0
  2  4  1  0
  4  5  2  0
  5  6  1  0
  6  7  2  0
  7  8  1  0
  8  9  1  0
  9 10  2  0
  9 11  1  0
 11 12  1  0
 12 13  1  0
 13 14  2  0
 13 15  1  0
 15 16  2  0
 16 17  1  0
 17 18  2  0
 18 19  1  0
 19 20  2  0
 19 21  1  0
 21 22  2  0
 21 23  2  0
 21 24  1  0
 24 25  2  0
 25 26  1  0
 26 27  2  0
 27 28  1  0
 28 29  2  0
 29 30  1  0
 30 31  2  0
  7 32  1  0
 32 33  2  0
 33  4  1  0
 20 15  1  0
 29 24  1  0
 30 18  1  0
  1 34  1  0
  1 35  1  0
  1 36  1  0
  2 37  1  0
  3 38  1  0
  3 39  1  0
  3 40  1  0
  5 41  1  0
  6 42  1  0
  8 43  1  0
 11 44  1  0
 11 45  1  0
 16 46  1  0
 17 47  1  0
 20 48  1  0
 25 49  1  0
 26 50  1  0
 27 51  1  0
 28 52  1  0
 32 53  1  0
 33 54  1  0
M  END
$$$$
