
     RDKit          3D

 55 58  0  0  0  0  0  0  0  0999 V2000
    2.4597   -0.8189   -2.5628 O   0  0  0  0  0  0  0  0  0  0  0  0
    1.8617   -1.4228   -1.6679 C   0  0  0  0  0  0  0  0  0  0  0  0
    0.4468   -1.9380   -1.8585 C   0  0  0  0  0  0  0  0  0  0  0  0
   -0.5248   -2.0486   -0.3279 S   0  0  0  0  0  0  0  0  0  0  0  0
   -0.7835   -0.3698   -0.0086 C   0  0  0  0  0  0  0  0  0  0  0  0
    0.1565    0.5403    0.0201 N   0  0  0  0  0  0  0  0  0  0  0  0
   -0.4287    1.7214    0.3959 N   0  0  0  0  0  0  0  0  0  0  0  0
   -1.7265    1.5225    0.5637 C   0  0  0  0  0  0  0  0  0  0  0  0
   -2.6603    2.5382    1.0543 C   0  0  0  0  0  0  0  0  0  0  0  0
   -2.3313    3.2283    2.2334 C   0  0  0  0  0  0  0  0  0  0  0  0
   -3.1760    4.2146    2.7480 C   0  0  0  0  0  0  0  0  0  0  0  0
   -4.3587    4.5324    2.0841 C   0  0  0  0  0  0  0  0  0  0  0  0
   -4.6930    3.8727    0.9007 C   0  0  0  0  0  0  0  0  0  0  0  0
   -3.8427    2.8887    0.3887 C   0  0  0  0  0  0  0  0  0  0  0  0
   -4.1691    2.2704   -0.7846 O   0  0  0  0  0  0  0  0  0  0  0  0
   -1.9956    0.1912    0.3006 N   0  0  0  0  0  0  0  0  0  0  0  0
   -3.2616   -0.5039    0.4762 C   0  0  0  0  0  0  0  0  0  0  0  0
   -3.8140   -1.1387   -0.7847 C   0  0  0  0  0  0  0  0  0  0  0  0
   -4.5860   -2.3070   -0.6703 C   0  0  0  0  0  0  0  0  0  0  0  0
   -5.1311   -2.9171   -1.8015 C   0  0  0  0  0  0  0  0  0  0  0  0
   -4.9225   -2.3629   -3.0625 C   0  0  0  0  0  0  0  0  0  0  0  0
   -4.1741   -1.1962   -3.1925 C   0  0  0  0  0  0  0  0  0  0  0  0
   -3.6297   -0.5838   -2.0616 C   0  0  0  0  0  0  0  0  0  0  0  0
    2.4847   -1.7756   -0.4865 N   0  0  0  0  0  0  0  0  0  0  0  0
    3.7137   -1.1632   -0.2096 N   0  0  0  0  0  0  0  0  0  0  0  0
    4.3548   -1.4705    0.9708 C   0  0  0  0  0  0  0  0  0  0  0  0
    3.8921   -2.2431    1.8113 O   0  0  0  0  0  0  0  0  0  0  0  0
    5.6907   -0.8569    1.1956 C   0  0  0  0  0  0  0  0  0  0  0  0
    6.0643    0.3400    0.5644 C   0  0  0  0  0  0  0  0  0  0  0  0
    7.3338    0.8858    0.7923 C   0  0  0  0  0  0  0  0  0  0  0  0
    8.2328    0.2441    1.6439 C   0  0  0  0  0  0  0  0  0  0  0  0
    7.8635   -0.9381    2.2844 C   0  0  0  0  0  0  0  0  0  0  0  0
    6.5966   -1.4775    2.0723 C   0  0  0  0  0  0  0  0  0  0  0  0
    6.3066   -2.6294    2.7558 O   0  0  0  0  0  0  0  0  0  0  0  0
   -0.0747   -1.2889   -2.5693 H   0  0  0  0  0  0  0  0  0  0  0  0
    0.5140   -2.9386   -2.2965 H   0  0  0  0  0  0  0  0  0  0  0  0
   -1.4009    3.0002    2.7539 H   0  0  0  0  0  0  0  0  0  0  0  0
   -2.9054    4.7383    3.6618 H   0  0  0  0  0  0  0  0  0  0  0  0
   -5.0144    5.3030    2.4837 H   0  0  0  0  0  0  0  0  0  0  0  0
   -5.6147    4.1421    0.3911 H   0  0  0  0  0  0  0  0  0  0  0  0
   -4.9474    2.7064   -1.1667 H   0  0  0  0  0  0  0  0  0  0  0  0
   -4.0058    0.1797    0.8918 H   0  0  0  0  0  0  0  0  0  0  0  0
   -3.0773   -1.2703    1.2397 H   0  0  0  0  0  0  0  0  0  0  0  0
   -4.7645   -2.7568    0.3053 H   0  0  0  0  0  0  0  0  0  0  0  0
   -5.7197   -3.8246   -1.6974 H   0  0  0  0  0  0  0  0  0  0  0  0
   -5.3469   -2.8378   -3.9434 H   0  0  0  0  0  0  0  0  0  0  0  0
   -4.0140   -0.7586   -4.1753 H   0  0  0  0  0  0  0  0  0  0  0  0
   -3.0574    0.3325   -2.1961 H   0  0  0  0  0  0  0  0  0  0  0  0
    1.9206   -2.0187    0.3275 H   0  0  0  0  0  0  0  0  0  0  0  0
    4.1405   -0.6587   -0.9844 H   0  0  0  0  0  0  0  0  0  0  0  0
    5.3802    0.8765   -0.0908 H   0  0  0  0  0  0  0  0  0  0  0  0
    7.6186    1.8161    0.3052 H   0  0  0  0  0  0  0  0  0  0  0  0
    9.2194    0.6688    1.8183 H   0  0  0  0  0  0  0  0  0  0  0  0
    8.5591   -1.4371    2.9564 H   0  0  0  0  0  0  0  0  0  0  0  0
    5.3418   -2.8021    2.6570 H   0  0  0  0  0  0  0  0  0  0  0  0
  1  2  2  0
  2  3  1  0
  3  4  1  0
  4  5  1  0
  5  6  2  0
  6  7  1  0
  7  8  2  0
  8  9  1  0
  9 10  2  0
 10 11  1  0
 11 12  2  0
 12 13  1  0
 13 14  2  0
 14 15  1  0
  8 16  1  0
 16 17  1  0
 17 18  1  0
 18 19  2  0
 19 20  1  0
 20 21  2  0
 21 22  1  0
 22 23  2  0
  2 24  1  0
 24 25  1  0
 25 26  1  0
 26 27  2  0
 26 28  1  0
 28 29  2  0
 29 30  1  0
 30 31  2  0
 31 32  1  0
 32 33  2  0
 33 34  1  0
 16  5  1  0
 23 18  1  0
 33 28  1  0
 14  9  1  0
  3 35  1  0
  3 36  1  0
 10 37  1  0
 11 38  1  0
 12 39  1  0
 13 40  1  0
 15 41  1  0
 17 42  1  0
 17 43  1  0
 19 44  1  0
 20 45  1  0
 21 46  1  0
 22 47  1  0
 23 48  1  0
 24 49  1  0
 25 50  1  0
 29 51  1  0
 30 52  1  0
 31 53  1  0
 32 54  1  0
 34 55  1  0
M  END
$$$$
