
     RDKit          3D

 57 60  0  0  0  0  0  0  0  0999 V2000
   -8.6110    0.7192    2.8720 C   0  0  0  0  0  0  0  0  0  0  0  0
   -8.1806    1.6096    1.7165 C   0  0  0  0  0  0  0  0  0  0  0  0
   -6.8652    1.1685    1.1291 C   0  0  0  0  0  0  0  0  0  0  0  0
   -5.6582    1.6585    1.6356 C   0  0  0  0  0  0  0  0  0  0  0  0
   -4.4354    1.2358    1.0988 C   0  0  0  0  0  0  0  0  0  0  0  0
   -4.3774    0.3047    0.0459 C   0  0  0  0  0  0  0  0  0  0  0  0
   -3.0974   -0.1586   -0.5337 C   0  0  0  0  0  0  0  0  0  0  0  0
   -1.9147   -0.2131    0.1825 C   0  0  0  0  0  0  0  0  0  0  0  0
   -0.7606   -0.6547   -0.4666 C   0  0  0  0  0  0  0  0  0  0  0  0
    0.4866   -0.6300    0.3318 C   0  0  0  0  0  0  0  0  0  0  0  0
    0.5139   -1.2651    1.3769 O   0  0  0  0  0  0  0  0  0  0  0  0
    1.4760    0.1756   -0.1983 N   0  0  0  0  0  0  0  0  0  0  0  0
    2.7666    0.4003    0.3214 C   0  0  0  0  0  0  0  0  0  0  0  0
    3.2449   -0.1807    1.4993 C   0  0  0  0  0  0  0  0  0  0  0  0
    4.5443    0.0839    1.9463 C   0  0  0  0  0  0  0  0  0  0  0  0
    5.3744    0.9244    1.2025 C   0  0  0  0  0  0  0  0  0  0  0  0
    7.0134    1.2762    1.7806 S   0  0  0  0  0  6  0  0  0  0  0  0
    6.9963    1.1699    3.2254 O   0  0  0  0  0  0  0  0  0  0  0  0
    7.5045    2.4714    1.1329 O   0  0  0  0  0  0  0  0  0  0  0  0
    7.8936   -0.0314    1.2574 N   0  0  0  0  0  0  0  0  0  0  0  0
    8.1142   -0.3727   -0.0810 C   0  0  0  0  0  0  0  0  0  0  0  0
    9.0096   -1.5650   -0.2665 C   0  0  0  0  0  0  0  0  0  0  0  0
    7.6077    0.2199   -1.0217 O   0  0  0  0  0  0  0  0  0  0  0  0
    4.9051    1.5259    0.0347 C   0  0  0  0  0  0  0  0  0  0  0  0
    3.6054    1.2582   -0.4039 C   0  0  0  0  0  0  0  0  0  0  0  0
   -0.7930   -1.0892   -1.8087 C   0  0  0  0  0  0  0  0  0  0  0  0
    0.3110   -1.6215   -2.5250 C   0  0  0  0  0  0  0  0  0  0  0  0
    0.1822   -2.0148   -3.8555 C   0  0  0  0  0  0  0  0  0  0  0  0
   -1.0470   -1.8924   -4.4862 C   0  0  0  0  0  0  0  0  0  0  0  0
   -2.1403   -1.3889   -3.7779 C   0  0  0  0  0  0  0  0  0  0  0  0
   -2.0394   -0.9931   -2.4507 C   0  0  0  0  0  0  0  0  0  0  0  0
   -3.1440   -0.5368   -1.8367 N   0  0  0  0  0  0  0  0  0  0  0  0
   -5.6037   -0.1749   -0.4504 C   0  0  0  0  0  0  0  0  0  0  0  0
   -6.8279    0.2438    0.0826 C   0  0  0  0  0  0  0  0  0  0  0  0
   -9.5685    1.0615    3.2772 H   0  0  0  0  0  0  0  0  0  0  0  0
   -7.8744    0.7358    3.6824 H   0  0  0  0  0  0  0  0  0  0  0  0
   -8.7315   -0.3204    2.5490 H   0  0  0  0  0  0  0  0  0  0  0  0
   -8.9530    1.6050    0.9378 H   0  0  0  0  0  0  0  0  0  0  0  0
   -8.1018    2.6488    2.0586 H   0  0  0  0  0  0  0  0  0  0  0  0
   -5.6586    2.3783    2.4513 H   0  0  0  0  0  0  0  0  0  0  0  0
   -3.5263    1.6643    1.5141 H   0  0  0  0  0  0  0  0  0  0  0  0
   -1.8706    0.0694    1.2295 H   0  0  0  0  0  0  0  0  0  0  0  0
    1.2500    0.6738   -1.0519 H   0  0  0  0  0  0  0  0  0  0  0  0
    2.6273   -0.8423    2.0995 H   0  0  0  0  0  0  0  0  0  0  0  0
    4.8908   -0.3666    2.8737 H   0  0  0  0  0  0  0  0  0  0  0  0
    8.2817   -0.5796    2.0179 H   0  0  0  0  0  0  0  0  0  0  0  0
    9.9729   -1.3840    0.2182 H   0  0  0  0  0  0  0  0  0  0  0  0
    9.1780   -1.7375   -1.3330 H   0  0  0  0  0  0  0  0  0  0  0  0
    8.5379   -2.4506    0.1677 H   0  0  0  0  0  0  0  0  0  0  0  0
    5.5457    2.1887   -0.5444 H   0  0  0  0  0  0  0  0  0  0  0  0
    3.2639    1.7294   -1.3224 H   0  0  0  0  0  0  0  0  0  0  0  0
    1.2789   -1.7540   -2.0449 H   0  0  0  0  0  0  0  0  0  0  0  0
    1.0354   -2.4226   -4.3921 H   0  0  0  0  0  0  0  0  0  0  0  0
   -1.1658   -2.1972   -5.5229 H   0  0  0  0  0  0  0  0  0  0  0  0
   -3.1046   -1.3082   -4.2758 H   0  0  0  0  0  0  0  0  0  0  0  0
   -5.6113   -0.8946   -1.2682 H   0  0  0  0  0  0  0  0  0  0  0  0
   -7.7499   -0.1600   -0.3298 H   0  0  0  0  0  0  0  0  0  0  0  0
  1  2  1  0
  2  3  1  0
  3  4  2  0
  4  5  1  0
  5  6  2  0
  6  7  1  0
  7  8  2  0
  8  9  1  0
  9 10  1  0
 10 11  2  0
 10 12  1  0
 12 13  1  0
 13 14  2  0
 14 15  1  0
 15 16  2  0
 16 17  1  0
 17 18  2  0
 17 19  2  0
 17 20  1  0
 20 21  1  0
 21 22  1  0
 21 23  2  0
 16 24  1  0
 24 25  2  0
  9 26  2  0
 26 27  1  0
 27 28  2  0
 28 29  1  0
 29 30  2  0
 30 31  1  0
 31 32  2  0
  6 33  1  0
 33 34  2  0
 34  3  1  0
 32  7  1  0
 25 13  1  0
 31 26  1  0
  1 35  1  0
  1 36  1  0
  1 37  1  0
  2 38  1  0
  2 39  1  0
  4 40  1  0
  5 41  1  0
  8 42  1  0
 12 43  1  0
 14 44  1  0
 15 45  1  0
 20 46  1  0
 22 47  1  0
 22 48  1  0
 22 49  1  0
 24 50  1  0
 25 51  1  0
 27 52  1  0
 28 53  1  0
 29 54  1  0
 30 55  1  0
 33 56  1  0
 34 57  1  0
M  END
$$$$
