
     RDKit          3D

 46 48  0  0  0  0  0  0  0  0999 V2000
   -3.5723    0.7820   -1.1971 O   0  0  0  0  0  0  0  0  0  0  0  0
   -3.1228    0.1478   -0.2513 C   0  0  0  0  0  0  0  0  0  0  0  0
   -3.8185   -0.2851    0.8635 N   0  0  0  0  0  0  0  0  0  0  0  0
   -5.1705   -0.0210    1.1767 C   0  0  0  0  0  0  0  0  0  0  0  0
   -5.9994    0.8139    0.4245 C   0  0  0  0  0  0  0  0  0  0  0  0
   -7.3228    1.0194    0.8159 C   0  0  0  0  0  0  0  0  0  0  0  0
   -8.1067    1.8232    0.0852 F   0  0  0  0  0  0  0  0  0  0  0  0
   -7.8444    0.4114    1.9471 C   0  0  0  0  0  0  0  0  0  0  0  0
   -7.0182   -0.4129    2.6927 C   0  0  0  0  0  0  0  0  0  0  0  0
   -7.4992   -1.0099    3.7910 F   0  0  0  0  0  0  0  0  0  0  0  0
   -5.6927   -0.6336    2.3225 C   0  0  0  0  0  0  0  0  0  0  0  0
   -1.6868   -0.2452   -0.2942 C   0  0  0  0  0  0  0  0  0  0  0  0
   -1.1115   -0.5471   -1.5297 C   0  0  0  0  0  0  0  0  0  0  0  0
    0.2371   -0.9231   -1.6180 C   0  0  0  0  0  0  0  0  0  0  0  0
    1.0720   -0.9734   -0.4898 C   0  0  0  0  0  0  0  0  0  0  0  0
    2.3871   -1.4382   -0.5700 N   0  0  0  0  0  0  0  0  0  0  0  0
    3.1432   -1.5128   -1.8242 C   0  0  0  0  0  0  0  0  0  0  0  0
    3.5696   -0.1360   -2.3522 C   0  0  0  0  0  0  0  0  0  0  0  0
    4.6018    0.5419   -1.4819 C   0  0  0  0  0  0  0  0  0  0  0  0
    4.2140    1.4870   -0.5231 C   0  0  0  0  0  0  0  0  0  0  0  0
    5.1658    2.0943    0.2969 C   0  0  0  0  0  0  0  0  0  0  0  0
    6.5133    1.7654    0.1649 C   0  0  0  0  0  0  0  0  0  0  0  0
    6.9104    0.8277   -0.7862 C   0  0  0  0  0  0  0  0  0  0  0  0
    5.9598    0.2167   -1.6052 C   0  0  0  0  0  0  0  0  0  0  0  0
    0.4546   -0.6741    0.7483 C   0  0  0  0  0  0  0  0  0  0  0  0
    1.2116   -0.7432    1.9983 N   0  0  0  0  0  4  0  0  0  0  0  0
    0.6033   -1.1381    3.0048 O   0  0  0  0  0  0  0  0  0  0  0  0
    2.3949   -0.3748    1.9836 O   0  0  0  0  0  1  0  0  0  0  0  0
   -0.8996   -0.2976    0.8540 C   0  0  0  0  0  0  0  0  0  0  0  0
   -3.3395   -0.9152    1.4952 H   0  0  0  0  0  0  0  0  0  0  0  0
   -5.6565    1.3256   -0.4680 H   0  0  0  0  0  0  0  0  0  0  0  0
   -8.8734    0.5791    2.2406 H   0  0  0  0  0  0  0  0  0  0  0  0
   -5.0900   -1.2889    2.9439 H   0  0  0  0  0  0  0  0  0  0  0  0
   -1.7143   -0.5046   -2.4366 H   0  0  0  0  0  0  0  0  0  0  0  0
    0.6116   -1.1768   -2.6060 H   0  0  0  0  0  0  0  0  0  0  0  0
    2.9791   -1.0909    0.1960 H   0  0  0  0  0  0  0  0  0  0  0  0
    4.0336   -2.1249   -1.6347 H   0  0  0  0  0  0  0  0  0  0  0  0
    2.5743   -2.0542   -2.5877 H   0  0  0  0  0  0  0  0  0  0  0  0
    2.7018    0.5233   -2.4742 H   0  0  0  0  0  0  0  0  0  0  0  0
    3.9925   -0.2571   -3.3579 H   0  0  0  0  0  0  0  0  0  0  0  0
    3.1659    1.7506   -0.4013 H   0  0  0  0  0  0  0  0  0  0  0  0
    4.8544    2.8206    1.0432 H   0  0  0  0  0  0  0  0  0  0  0  0
    7.2530    2.2379    0.8056 H   0  0  0  0  0  0  0  0  0  0  0  0
    7.9614    0.5703   -0.8876 H   0  0  0  0  0  0  0  0  0  0  0  0
    6.2877   -0.5152   -2.3398 H   0  0  0  0  0  0  0  0  0  0  0  0
   -1.3149   -0.0284    1.8225 H   0  0  0  0  0  0  0  0  0  0  0  0
  1  2  2  0
  2  3  1  0
  3  4  1  0
  4  5  2  0
  5  6  1  0
  6  7  1  0
  6  8  2  0
  8  9  1  0
  9 10  1  0
  9 11  2  0
  2 12  1  0
 12 13  2  0
 13 14  1  0
 14 15  2  0
 15 16  1  0
 16 17  1  0
 17 18  1  0
 18 19  1  0
 19 20  2  0
 20 21  1  0
 21 22  2  0
 22 23  1  0
 23 24  2  0
 15 25  1  0
 25 26  1  0
 26 27  2  0
 26 28  1  0
 25 29  2  0
 11  4  1  0
 29 12  1  0
 24 19  1  0
  3 30  1  0
  5 31  1  0
  8 32  1  0
 11 33  1  0
 13 34  1  0
 14 35  1  0
 16 36  1  0
 17 37  1  0
 17 38  1  0
 18 39  1  0
 18 40  1  0
 20 41  1  0
 21 42  1  0
 22 43  1  0
 23 44  1  0
 24 45  1  0
 29 46  1  0
M  CHG  2  26   1  28  -1
M  END
$$$$
