
     RDKit          3D

 41 43  0  0  0  0  0  0  0  0999 V2000
   -3.7110   -0.7126    3.2979 C   0  0  0  0  0  0  0  0  0  0  0  0
   -3.6163   -0.7619    1.8016 C   0  0  0  0  0  0  0  0  0  0  0  0
   -4.6343   -0.2319    1.0063 C   0  0  0  0  0  0  0  0  0  0  0  0
   -4.5601   -0.3079   -0.3873 C   0  0  0  0  0  0  0  0  0  0  0  0
   -3.4667   -0.9156   -1.0262 C   0  0  0  0  0  0  0  0  0  0  0  0
   -3.4618   -0.9770   -2.5276 C   0  0  0  0  0  0  0  0  0  0  0  0
   -2.4522   -1.4662   -0.2205 C   0  0  0  0  0  0  0  0  0  0  0  0
   -1.0293   -2.2898   -0.9156 S   0  0  0  0  0  6  0  0  0  0  0  0
   -1.4767   -3.0997   -2.0294 O   0  0  0  0  0  0  0  0  0  0  0  0
   -0.2548   -2.8844    0.1536 O   0  0  0  0  0  0  0  0  0  0  0  0
   -0.1385   -1.0129   -1.5854 N   0  0  0  0  0  0  0  0  0  0  0  0
    0.6522   -0.2241   -0.7047 C   0  0  0  0  0  0  0  0  0  0  0  0
    0.0774    0.8609   -0.0476 C   0  0  0  0  0  0  0  0  0  0  0  0
    0.8395    1.6072    0.8488 C   0  0  0  0  0  0  0  0  0  0  0  0
    2.1713    1.2667    1.0837 C   0  0  0  0  0  0  0  0  0  0  0  0
    2.8388    2.0644    1.9721 O   0  0  0  0  0  0  0  0  0  0  0  0
    2.7588    0.1665    0.4416 C   0  0  0  0  0  0  0  0  0  0  0  0
    4.4201   -0.4076    0.7624 S   0  0  0  0  0  0  0  0  0  0  0  0
    5.3847    0.9265    0.2042 C   0  0  0  0  0  0  0  0  0  0  0  0
    5.3057    2.1730    0.7719 N   0  0  0  0  0  0  0  0  0  0  0  0
    6.1953    2.8592    0.0921 C   0  0  0  0  0  0  0  0  0  0  0  0
    6.7822    2.0532   -0.8322 N   0  0  0  0  0  0  0  0  0  0  0  0
    6.2820    0.8091   -0.7773 N   0  0  0  0  0  0  0  0  0  0  0  0
    1.9785   -0.5813   -0.4529 C   0  0  0  0  0  0  0  0  0  0  0  0
   -2.5345   -1.3953    1.1811 C   0  0  0  0  0  0  0  0  0  0  0  0
   -2.7157   -0.6418    3.7491 H   0  0  0  0  0  0  0  0  0  0  0  0
   -4.2069   -1.6138    3.6713 H   0  0  0  0  0  0  0  0  0  0  0  0
   -4.2785    0.1649    3.6253 H   0  0  0  0  0  0  0  0  0  0  0  0
   -5.4991    0.2426    1.4661 H   0  0  0  0  0  0  0  0  0  0  0  0
   -5.3748    0.1126   -0.9749 H   0  0  0  0  0  0  0  0  0  0  0  0
   -2.4980   -0.6619   -2.9359 H   0  0  0  0  0  0  0  0  0  0  0  0
   -4.2123   -0.3015   -2.9534 H   0  0  0  0  0  0  0  0  0  0  0  0
   -3.6998   -1.9892   -2.8676 H   0  0  0  0  0  0  0  0  0  0  0  0
    0.2862   -1.3055   -2.4647 H   0  0  0  0  0  0  0  0  0  0  0  0
   -0.9566    1.1399   -0.2303 H   0  0  0  0  0  0  0  0  0  0  0  0
    0.3996    2.4570    1.3641 H   0  0  0  0  0  0  0  0  0  0  0  0
    3.7983    1.9956    1.7824 H   0  0  0  0  0  0  0  0  0  0  0  0
    6.4504    3.9018    0.2207 H   0  0  0  0  0  0  0  0  0  0  0  0
    7.5063    2.2709   -1.5082 H   0  0  0  0  0  0  0  0  0  0  0  0
    2.3993   -1.4592   -0.9378 H   0  0  0  0  0  0  0  0  0  0  0  0
   -1.7485   -1.8307    1.7974 H   0  0  0  0  0  0  0  0  0  0  0  0
  1  2  1  0
  2  3  2  0
  3  4  1  0
  4  5  2  0
  5  6  1  0
  5  7  1  0
  7  8  1  0
  8  9  2  0
  8 10  2  0
  8 11  1  0
 11 12  1  0
 12 13  2  0
 13 14  1  0
 14 15  2  0
 15 16  1  0
 15 17  1  0
 17 18  1  0
 18 19  1  0
 19 20  1  0
 20 21  2  0
 21 22  1  0
 22 23  1  0
 17 24  2  0
  7 25  2  0
 25  2  1  0
 24 12  1  0
 23 19  2  0
  1 26  1  0
  1 27  1  0
  1 28  1  0
  3 29  1  0
  4 30  1  0
  6 31  1  0
  6 32  1  0
  6 33  1  0
 11 34  1  0
 13 35  1  0
 14 36  1  0
 16 37  1  0
 21 38  1  0
 22 39  1  0
 24 40  1  0
 25 41  1  0
M  END
$$$$
