
     RDKit          3D

 52 53  0  0  0  0  0  0  0  0999 V2000
    6.2215   -0.6563   -1.3357 C   0  0  0  0  0  0  0  0  0  0  0  0
    5.8599   -2.0345   -0.8025 C   0  0  0  0  0  0  0  0  0  0  0  0
    4.6180   -2.6539   -1.4499 C   0  0  0  0  0  0  0  0  0  0  0  0
    3.4017   -1.8925   -1.1582 N   0  0  0  0  0  0  0  0  0  0  0  0
    2.9415   -1.1244   -2.3225 C   0  0  0  0  0  0  0  0  0  0  0  0
    1.6784   -0.2979   -2.0296 C   0  0  0  0  0  0  0  0  0  0  0  0
    1.2962    0.3903   -3.2330 O   0  0  0  0  0  0  0  0  0  0  0  0
    1.8938    0.7285   -0.9101 C   0  0  0  0  0  0  0  0  0  0  0  0
    0.6607    1.4647   -0.7571 O   0  0  0  0  0  0  0  0  0  0  0  0
    0.5665    1.9829    0.5068 C   0  0  0  0  0  0  0  0  0  0  0  0
    1.2766    3.1435    0.8190 C   0  0  0  0  0  0  0  0  0  0  0  0
    1.1352    3.7270    2.0788 C   0  0  0  0  0  0  0  0  0  0  0  0
    0.2757    3.1607    3.0209 C   0  0  0  0  0  0  0  0  0  0  0  0
   -0.4503    2.0103    2.7053 C   0  0  0  0  0  0  0  0  0  0  0  0
   -0.3092    1.4217    1.4425 C   0  0  0  0  0  0  0  0  0  0  0  0
   -1.0772    0.1971    1.1146 C   0  0  0  0  0  0  0  0  0  0  0  0
   -0.4981   -0.7852    0.6585 O   0  0  0  0  0  0  0  0  0  0  0  0
   -2.5635    0.2175    1.4056 C   0  0  0  0  0  0  0  0  0  0  0  0
   -3.3196   -0.6838    0.4325 C   0  0  0  0  0  0  0  0  0  0  0  0
   -4.8089   -0.6093    0.6608 C   0  0  0  0  0  0  0  0  0  0  0  0
   -5.5784    0.3661    0.0122 C   0  0  0  0  0  0  0  0  0  0  0  0
   -6.9527    0.4496    0.2410 C   0  0  0  0  0  0  0  0  0  0  0  0
   -7.5691   -0.4373    1.1217 C   0  0  0  0  0  0  0  0  0  0  0  0
   -6.8119   -1.4086    1.7746 C   0  0  0  0  0  0  0  0  0  0  0  0
   -5.4372   -1.4936    1.5475 C   0  0  0  0  0  0  0  0  0  0  0  0
    5.4646    0.0869   -1.0668 H   0  0  0  0  0  0  0  0  0  0  0  0
    7.1749   -0.3260   -0.9092 H   0  0  0  0  0  0  0  0  0  0  0  0
    6.3259   -0.6711   -2.4253 H   0  0  0  0  0  0  0  0  0  0  0  0
    5.7227   -1.9748    0.2839 H   0  0  0  0  0  0  0  0  0  0  0  0
    6.7088   -2.7079   -0.9730 H   0  0  0  0  0  0  0  0  0  0  0  0
    4.7738   -2.7962   -2.5268 H   0  0  0  0  0  0  0  0  0  0  0  0
    4.4937   -3.6598   -1.0293 H   0  0  0  0  0  0  0  0  0  0  0  0
    2.6569   -2.5414   -0.8932 H   0  0  0  0  0  0  0  0  0  0  0  0
    3.7283   -0.4486   -2.6790 H   0  0  0  0  0  0  0  0  0  0  0  0
    2.7232   -1.8032   -3.1575 H   0  0  0  0  0  0  0  0  0  0  0  0
    0.8442   -0.9614   -1.7744 H   0  0  0  0  0  0  0  0  0  0  0  0
    0.5703    0.9857   -2.9652 H   0  0  0  0  0  0  0  0  0  0  0  0
    2.1765    0.2258    0.0234 H   0  0  0  0  0  0  0  0  0  0  0  0
    2.6774    1.4409   -1.1964 H   0  0  0  0  0  0  0  0  0  0  0  0
    1.9294    3.6004    0.0804 H   0  0  0  0  0  0  0  0  0  0  0  0
    1.6926    4.6279    2.3241 H   0  0  0  0  0  0  0  0  0  0  0  0
    0.1708    3.6178    4.0025 H   0  0  0  0  0  0  0  0  0  0  0  0
   -1.1096    1.5776    3.4533 H   0  0  0  0  0  0  0  0  0  0  0  0
   -2.9339    1.2464    1.3213 H   0  0  0  0  0  0  0  0  0  0  0  0
   -2.7165   -0.1164    2.4384 H   0  0  0  0  0  0  0  0  0  0  0  0
   -2.9861   -1.7248    0.5333 H   0  0  0  0  0  0  0  0  0  0  0  0
   -3.0930   -0.4017   -0.6040 H   0  0  0  0  0  0  0  0  0  0  0  0
   -5.1110    1.0655   -0.6773 H   0  0  0  0  0  0  0  0  0  0  0  0
   -7.5427    1.2068   -0.2689 H   0  0  0  0  0  0  0  0  0  0  0  0
   -8.6398   -0.3729    1.2978 H   0  0  0  0  0  0  0  0  0  0  0  0
   -7.2925   -2.1012    2.4604 H   0  0  0  0  0  0  0  0  0  0  0  0
   -4.8588   -2.2567    2.0642 H   0  0  0  0  0  0  0  0  0  0  0  0
  1  2  1  0
  2  3  1  0
  3  4  1  0
  4  5  1  0
  5  6  1  0
  6  7  1  0
  6  8  1  0
  8  9  1  0
  9 10  1  0
 10 11  2  0
 11 12  1  0
 12 13  2  0
 13 14  1  0
 14 15  2  0
 15 16  1  0
 16 17  2  0
 16 18  1  0
 18 19  1  0
 19 20  1  0
 20 21  2  0
 21 22  1  0
 22 23  2  0
 23 24  1  0
 24 25  2  0
 15 10  1  0
 25 20  1  0
  1 26  1  0
  1 27  1  0
  1 28  1  0
  2 29  1  0
  2 30  1  0
  3 31  1  0
  3 32  1  0
  4 33  1  0
  5 34  1  0
  5 35  1  0
  6 36  1  0
  7 37  1  0
  8 38  1  0
  8 39  1  0
 11 40  1  0
 12 41  1  0
 13 42  1  0
 14 43  1  0
 18 44  1  0
 18 45  1  0
 19 46  1  0
 19 47  1  0
 21 48  1  0
 22 49  1  0
 23 50  1  0
 24 51  1  0
 25 52  1  0
M  END
$$$$
