
     RDKit          3D

 58 62  0  0  0  0  0  0  0  0999 V2000
    8.4961    2.5693   -0.4139 C   0  0  0  0  0  0  0  0  0  0  0  0
    7.9034    1.3347   -0.0261 O   0  0  0  0  0  0  0  0  0  0  0  0
    6.5378    1.3090    0.0688 C   0  0  0  0  0  0  0  0  0  0  0  0
    5.6750    2.3783   -0.1749 C   0  0  0  0  0  0  0  0  0  0  0  0
    4.2903    2.2151   -0.0340 C   0  0  0  0  0  0  0  0  0  0  0  0
    3.7536    0.9823    0.3575 C   0  0  0  0  0  0  0  0  0  0  0  0
    2.2625    0.7955    0.4927 C   0  0  0  0  0  0  0  0  0  0  0  0
    1.6515    0.2074   -0.7846 C   0  0  0  0  0  0  0  0  0  0  0  0
    0.1973    0.0157   -0.6280 N   0  0  0  0  0  0  0  0  0  0  0  0
   -0.7036    1.0391   -0.9627 C   0  0  0  0  0  0  0  0  0  0  0  0
   -0.3605    2.2579   -1.2594 N   0  0  0  0  0  0  0  0  0  0  0  0
   -2.1723    0.7475   -0.9533 C   0  0  0  0  0  0  0  0  0  0  0  0
   -3.2024    1.6749   -1.4673 C   0  0  0  0  0  0  0  0  0  0  0  0
   -3.3918    1.8274   -2.6695 O   0  0  0  0  0  0  0  0  0  0  0  0
   -3.9545    2.2603   -0.4753 N   0  0  0  0  0  0  0  0  0  0  0  0
   -5.1350    3.0332   -0.7825 C   0  0  0  0  0  0  0  0  0  0  0  0
   -6.3110    2.1284   -0.7063 C   0  0  0  0  0  0  0  0  0  0  0  0
   -6.9514    1.3354   -1.6399 C   0  0  0  0  0  0  0  0  0  0  0  0
   -7.9984    0.6754   -0.9511 C   0  0  0  0  0  0  0  0  0  0  0  0
   -7.9290    1.1017    0.3574 C   0  0  0  0  0  0  0  0  0  0  0  0
   -6.9065    1.9859    0.5167 O   0  0  0  0  0  0  0  0  0  0  0  0
   -2.5583   -0.4560   -0.5053 C   0  0  0  0  0  0  0  0  0  0  0  0
   -1.6008   -1.4426   -0.0307 C   0  0  0  0  0  0  0  0  0  0  0  0
   -2.0960   -2.7312    0.5319 C   0  0  0  0  0  0  0  0  0  0  0  0
   -3.3075   -2.9388    0.6147 O   0  0  0  0  0  0  0  0  0  0  0  0
   -1.1253   -3.6272    0.9446 N   0  0  0  0  0  0  0  0  0  0  0  0
   -1.5067   -4.8509    1.4899 C   0  0  0  0  0  0  0  0  0  0  0  0
   -0.6056   -5.7462    1.9130 C   0  0  0  0  0  0  0  0  0  0  0  0
    0.7984   -5.4531    1.8039 C   0  0  0  0  0  0  0  0  0  0  0  0
    1.2098   -4.2885    1.2847 C   0  0  0  0  0  0  0  0  0  0  0  0
    0.2082   -3.2866    0.8202 C   0  0  0  0  0  0  0  0  0  0  0  0
    0.6365   -2.1649    0.3345 N   0  0  0  0  0  0  0  0  0  0  0  0
   -0.2675   -1.2220   -0.1026 C   0  0  0  0  0  0  0  0  0  0  0  0
    4.6217   -0.0900    0.5924 C   0  0  0  0  0  0  0  0  0  0  0  0
    6.0021    0.0766    0.4500 C   0  0  0  0  0  0  0  0  0  0  0  0
    8.1757    2.8662   -1.4173 H   0  0  0  0  0  0  0  0  0  0  0  0
    8.2839    3.3554    0.3195 H   0  0  0  0  0  0  0  0  0  0  0  0
    9.5799    2.4254   -0.4415 H   0  0  0  0  0  0  0  0  0  0  0  0
    6.0452    3.3536   -0.4730 H   0  0  0  0  0  0  0  0  0  0  0  0
    3.6364    3.0631   -0.2270 H   0  0  0  0  0  0  0  0  0  0  0  0
    2.0585    0.1471    1.3538 H   0  0  0  0  0  0  0  0  0  0  0  0
    1.7921    1.7571    0.7370 H   0  0  0  0  0  0  0  0  0  0  0  0
    2.1399   -0.7426   -1.0389 H   0  0  0  0  0  0  0  0  0  0  0  0
    1.8639    0.8495   -1.6491 H   0  0  0  0  0  0  0  0  0  0  0  0
    0.6477    2.3895   -1.2345 H   0  0  0  0  0  0  0  0  0  0  0  0
   -3.8076    1.9974    0.4907 H   0  0  0  0  0  0  0  0  0  0  0  0
   -5.2063    3.8376   -0.0426 H   0  0  0  0  0  0  0  0  0  0  0  0
   -5.0517    3.4833   -1.7800 H   0  0  0  0  0  0  0  0  0  0  0  0
   -6.6735    1.2455   -2.6842 H   0  0  0  0  0  0  0  0  0  0  0  0
   -8.7107   -0.0331   -1.3497 H   0  0  0  0  0  0  0  0  0  0  0  0
   -8.5016    0.8825    1.2518 H   0  0  0  0  0  0  0  0  0  0  0  0
   -3.6106   -0.7322   -0.5071 H   0  0  0  0  0  0  0  0  0  0  0  0
   -2.5733   -5.0513    1.5613 H   0  0  0  0  0  0  0  0  0  0  0  0
   -0.9135   -6.6971    2.3416 H   0  0  0  0  0  0  0  0  0  0  0  0
    1.5109   -6.1950    2.1502 H   0  0  0  0  0  0  0  0  0  0  0  0
    2.2565   -4.0310    1.1831 H   0  0  0  0  0  0  0  0  0  0  0  0
    4.2306   -1.0618    0.8892 H   0  0  0  0  0  0  0  0  0  0  0  0
    6.6676   -0.7621    0.6404 H   0  0  0  0  0  0  0  0  0  0  0  0
  1  2  1  0
  2  3  1  0
  3  4  2  0
  4  5  1  0
  5  6  2  0
  6  7  1  0
  7  8  1  0
  8  9  1  0
  9 10  1  0
 10 11  2  3
 10 12  1  0
 12 13  1  0
 13 14  2  0
 13 15  1  0
 15 16  1  0
 16 17  1  0
 17 18  2  0
 18 19  1  0
 19 20  2  0
 20 21  1  0
 12 22  2  0
 22 23  1  0
 23 24  1  0
 24 25  2  0
 24 26  1  0
 26 27  1  0
 27 28  2  0
 28 29  1  0
 29 30  2  0
 30 31  1  0
 31 32  2  0
 32 33  1  0
  6 34  1  0
 34 35  2  0
 35  3  1  0
 33  9  1  0
 21 17  1  0
 33 23  2  0
 31 26  1  0
  1 36  1  0
  1 37  1  0
  1 38  1  0
  4 39  1  0
  5 40  1  0
  7 41  1  0
  7 42  1  0
  8 43  1  0
  8 44  1  0
 11 45  1  0
 15 46  1  0
 16 47  1  0
 16 48  1  0
 18 49  1  0
 19 50  1  0
 20 51  1  0
 22 52  1  0
 27 53  1  0
 28 54  1  0
 29 55  1  0
 30 56  1  0
 34 57  1  0
 35 58  1  0
M  END
$$$$
