
     RDKit          3D

 68 74  0  0  0  0  0  0  0  0999 V2000
   -4.6414   -4.1877   -2.2644 C   0  0  0  0  0  0  0  0  0  0  0  0
   -3.8310   -3.4736   -1.2246 C   0  0  0  0  0  0  0  0  0  0  0  0
   -3.8359   -3.8826    0.1232 C   0  0  0  0  0  0  0  0  0  0  0  0
   -4.7804   -5.2353    0.6459 Cl  0  0  0  0  0  0  0  0  0  0  0  0
   -3.0766   -3.2115    1.1025 C   0  0  0  0  0  0  0  0  0  0  0  0
   -2.2936   -2.1069    0.7680 C   0  0  0  0  0  0  0  0  0  0  0  0
   -2.2936   -1.6865   -0.5514 C   0  0  0  0  0  0  0  0  0  0  0  0
   -3.0468   -2.3658   -1.5216 C   0  0  0  0  0  0  0  0  0  0  0  0
   -2.8661   -1.7567   -2.7628 N   0  0  0  0  0  0  0  0  0  0  0  0
   -1.9865   -0.6735   -2.6904 C   0  0  0  0  0  0  0  0  0  0  0  0
   -1.6313   -0.0011   -3.6459 O   0  0  0  0  0  0  0  0  0  0  0  0
   -1.5698   -0.5455   -1.2041 C   0  0  1  0  0  0  0  0  0  0  0  0
   -1.9991    0.7351   -0.5789 C   0  0  0  0  0  0  0  0  0  0  0  0
   -0.8949    1.5926   -0.4483 C   0  0  0  0  0  0  0  0  0  0  0  0
   -1.3081    2.7660    0.1213 C   0  0  0  0  0  0  0  0  0  0  0  0
   -0.6005    3.8420    0.4535 O   0  0  0  0  0  0  0  0  0  0  0  0
   -2.6975    2.6500    0.3714 N   0  0  0  0  0  0  0  0  0  0  0  0
   -3.5420    3.6467    0.9783 C   0  0  0  0  0  0  0  0  0  0  0  0
   -4.7338    3.2834    1.6238 C   0  0  0  0  0  0  0  0  0  0  0  0
   -5.5538    4.2516    2.2141 C   0  0  0  0  0  0  0  0  0  0  0  0
   -5.1967    5.5951    2.1679 C   0  0  0  0  0  0  0  0  0  0  0  0
   -4.0185    5.9719    1.5314 C   0  0  0  0  0  0  0  0  0  0  0  0
   -3.1960    5.0055    0.9409 C   0  0  0  0  0  0  0  0  0  0  0  0
   -3.1080    1.3746   -0.0873 C   0  0  0  0  0  0  0  0  0  0  0  0
   -4.3751    0.9678   -0.0532 O   0  0  0  0  0  0  0  0  0  0  0  0
    0.3130    0.9445   -1.0055 C   0  0  1  0  0  0  0  0  0  0  0  0
    1.6410    1.0762   -0.2695 C   0  0  0  0  0  0  0  0  0  0  0  0
    2.6524    0.1784   -0.8547 N   0  0  0  0  0  0  0  0  0  0  0  0
    3.9853    0.4830   -0.6275 C   0  0  0  0  0  0  0  0  0  0  0  0
    4.3646    1.5486   -0.1547 O   0  0  0  0  0  0  0  0  0  0  0  0
    4.8136   -0.5287   -0.9939 O   0  0  0  0  0  0  0  0  0  0  0  0
    6.2072   -0.3206   -0.7421 C   0  0  0  0  0  0  0  0  0  0  0  0
    6.5847   -0.9796    0.5589 C   0  0  0  0  0  0  0  0  0  0  0  0
    6.7360   -2.3716    0.6355 C   0  0  0  0  0  0  0  0  0  0  0  0
    7.0679   -2.9818    1.8461 C   0  0  0  0  0  0  0  0  0  0  0  0
    7.2462   -2.2074    2.9917 C   0  0  0  0  0  0  0  0  0  0  0  0
    7.0859   -0.8241    2.9296 C   0  0  0  0  0  0  0  0  0  0  0  0
    6.7520   -0.2127    1.7202 C   0  0  0  0  0  0  0  0  0  0  0  0
    2.2233   -1.2034   -1.1464 C   0  0  0  0  0  0  0  0  0  0  0  0
    0.7964   -1.3120   -1.7427 C   0  0  0  0  0  0  0  0  0  0  0  0
   -0.1132   -0.4910   -0.9606 N   0  0  0  0  0  0  0  0  0  0  0  0
   -4.3930   -5.2538   -2.2781 H   0  0  0  0  0  0  0  0  0  0  0  0
   -5.7101   -4.0663   -2.0599 H   0  0  0  0  0  0  0  0  0  0  0  0
   -4.4552   -3.8091   -3.2726 H   0  0  0  0  0  0  0  0  0  0  0  0
   -3.0968   -3.5533    2.1357 H   0  0  0  0  0  0  0  0  0  0  0  0
   -1.7063   -1.5887    1.5211 H   0  0  0  0  0  0  0  0  0  0  0  0
   -3.2755   -2.0489   -3.6382 H   0  0  0  0  0  0  0  0  0  0  0  0
    0.3227    3.7046    0.1818 H   0  0  0  0  0  0  0  0  0  0  0  0
   -5.0403    2.2468    1.7186 H   0  0  0  0  0  0  0  0  0  0  0  0
   -6.4698    3.9492    2.7146 H   0  0  0  0  0  0  0  0  0  0  0  0
   -5.8341    6.3458    2.6267 H   0  0  0  0  0  0  0  0  0  0  0  0
   -3.7363    7.0208    1.4852 H   0  0  0  0  0  0  0  0  0  0  0  0
   -2.3070    5.3557    0.4260 H   0  0  0  0  0  0  0  0  0  0  0  0
   -4.4197    0.0660   -0.4148 H   0  0  0  0  0  0  0  0  0  0  0  0
    0.4335    1.2699   -2.0489 H   0  0  0  0  0  0  0  0  0  0  0  0
    1.5431    0.8127    0.7916 H   0  0  0  0  0  0  0  0  0  0  0  0
    1.9962    2.1119   -0.3120 H   0  0  0  0  0  0  0  0  0  0  0  0
    6.4884    0.7392   -0.7578 H   0  0  0  0  0  0  0  0  0  0  0  0
    6.7633   -0.7890   -1.5622 H   0  0  0  0  0  0  0  0  0  0  0  0
    6.5886   -2.9882   -0.2490 H   0  0  0  0  0  0  0  0  0  0  0  0
    7.1841   -4.0613    1.8973 H   0  0  0  0  0  0  0  0  0  0  0  0
    7.5032   -2.6825    3.9347 H   0  0  0  0  0  0  0  0  0  0  0  0
    7.2151   -0.2206    3.8244 H   0  0  0  0  0  0  0  0  0  0  0  0
    6.6142    0.8668    1.6889 H   0  0  0  0  0  0  0  0  0  0  0  0
    2.2714   -1.7514   -0.1974 H   0  0  0  0  0  0  0  0  0  0  0  0
    2.9323   -1.6748   -1.8346 H   0  0  0  0  0  0  0  0  0  0  0  0
    0.8185   -0.9908   -2.7908 H   0  0  0  0  0  0  0  0  0  0  0  0
    0.4902   -2.3638   -1.7242 H   0  0  0  0  0  0  0  0  0  0  0  0
  1  2  1  0
  2  3  2  0
  3  4  1  0
  3  5  1  0
  5  6  2  0
  6  7  1  0
  7  8  2  0
  8  9  1  0
  9 10  1  0
 10 11  2  0
 10 12  1  0
 12 13  1  0
 13 14  1  0
 14 15  2  0
 15 16  1  0
 15 17  1  0
 17 18  1  0
 18 19  2  0
 19 20  1  0
 20 21  2  0
 21 22  1  0
 22 23  2  0
 17 24  1  0
 24 25  1  0
 14 26  1  0
 26 27  1  0
 27 28  1  0
 28 29  1  0
 29 30  2  0
 29 31  1  0
 31 32  1  0
 32 33  1  0
 33 34  2  0
 34 35  1  0
 35 36  2  0
 36 37  1  0
 37 38  2  0
 28 39  1  0
 39 40  1  0
 40 41  1  0
  8  2  1  0
 12 41  1  6
 12  7  1  0
 24 13  2  0
 41 26  1  0
 23 18  1  0
 38 33  1  0
  1 42  1  0
  1 43  1  0
  1 44  1  0
  5 45  1  0
  6 46  1  0
  9 47  1  0
 16 48  1  0
 19 49  1  0
 20 50  1  0
 21 51  1  0
 22 52  1  0
 23 53  1  0
 25 54  1  0
 26 55  1  6
 27 56  1  0
 27 57  1  0
 32 58  1  0
 32 59  1  0
 34 60  1  0
 35 61  1  0
 36 62  1  0
 37 63  1  0
 38 64  1  0
 39 65  1  0
 39 66  1  0
 40 67  1  0
 40 68  1  0
M  END
$$$$
