
     RDKit          3D

 62 66  0  0  0  0  0  0  0  0999 V2000
   -4.2134    6.4370   -0.9850 C   0  0  0  0  0  0  0  0  0  0  0  0
   -3.3691    5.2932   -0.9625 O   0  0  0  0  0  0  0  0  0  0  0  0
   -3.9758    4.0771   -0.8045 C   0  0  0  0  0  0  0  0  0  0  0  0
   -5.3411    3.8544   -0.6903 C   0  0  0  0  0  0  0  0  0  0  0  0
   -5.8415    2.5571   -0.5305 C   0  0  0  0  0  0  0  0  0  0  0  0
   -4.9443    1.4726   -0.4883 C   0  0  0  0  0  0  0  0  0  0  0  0
   -5.3422   -0.1881   -0.3007 S   0  0  0  0  0  0  0  0  0  0  0  0
   -3.7054   -0.6763   -0.3646 C   0  0  0  0  0  0  0  0  0  0  0  0
   -3.4017   -2.1107   -0.2723 C   0  0  0  0  0  0  0  0  0  0  0  0
   -3.2082   -2.8332   -1.4614 C   0  0  0  0  0  0  0  0  0  0  0  0
   -2.9073   -4.1933   -1.4236 C   0  0  0  0  0  0  0  0  0  0  0  0
   -2.7954   -4.8419   -0.1976 C   0  0  0  0  0  0  0  0  0  0  0  0
   -2.9804   -4.1341    0.9940 C   0  0  0  0  0  0  0  0  0  0  0  0
   -3.2816   -2.7669    0.9704 C   0  0  0  0  0  0  0  0  0  0  0  0
   -3.4612   -1.9934    2.0902 O   0  0  0  0  0  0  0  0  0  0  0  0
   -3.3720   -2.6354    3.3542 C   0  0  0  0  0  0  0  0  0  0  0  0
   -2.8544    0.4036   -0.5321 C   0  0  0  0  0  0  0  0  0  0  0  0
   -1.4097    0.2310   -0.6297 C   0  0  0  0  0  0  0  0  0  0  0  0
   -0.7614    0.4322   -1.8509 C   0  0  0  0  0  0  0  0  0  0  0  0
    0.6237    0.2736   -1.9392 C   0  0  0  0  0  0  0  0  0  0  0  0
    1.3747   -0.0806   -0.8150 C   0  0  0  0  0  0  0  0  0  0  0  0
    2.7186   -0.1980   -1.0406 O   0  0  0  0  0  0  0  0  0  0  0  0
    3.5453   -0.4749    0.0950 C   0  0  0  0  0  0  0  0  0  0  0  0
    5.0080   -0.5009   -0.3786 C   0  0  0  0  0  0  0  0  0  0  0  0
    5.9634   -0.8131    0.7030 N   0  0  0  0  0  0  0  0  0  0  0  0
    7.3032   -1.0962    0.1611 C   0  0  0  0  0  0  0  0  0  0  0  0
    7.9682    0.2568   -0.0381 C   0  0  0  0  0  0  0  0  0  0  0  0
    7.2642    1.1867    0.9395 C   0  0  0  0  0  0  0  0  0  0  0  0
    6.1911    0.3318    1.6004 C   0  0  0  0  0  0  0  0  0  0  0  0
    0.7265   -0.2818    0.4041 C   0  0  0  0  0  0  0  0  0  0  0  0
   -0.6607   -0.1231    0.4970 C   0  0  0  0  0  0  0  0  0  0  0  0
   -3.5664    1.6602   -0.6039 C   0  0  0  0  0  0  0  0  0  0  0  0
   -3.0947    2.9900   -0.7613 C   0  0  0  0  0  0  0  0  0  0  0  0
   -3.5772    7.3196   -1.1032 H   0  0  0  0  0  0  0  0  0  0  0  0
   -4.8991    6.4043   -1.8380 H   0  0  0  0  0  0  0  0  0  0  0  0
   -4.7591    6.5438   -0.0417 H   0  0  0  0  0  0  0  0  0  0  0  0
   -6.0575    4.6690   -0.7201 H   0  0  0  0  0  0  0  0  0  0  0  0
   -6.9113    2.3901   -0.4395 H   0  0  0  0  0  0  0  0  0  0  0  0
   -3.2901   -2.3316   -2.4232 H   0  0  0  0  0  0  0  0  0  0  0  0
   -2.7585   -4.7435   -2.3490 H   0  0  0  0  0  0  0  0  0  0  0  0
   -2.5592   -5.9028   -0.1662 H   0  0  0  0  0  0  0  0  0  0  0  0
   -2.8775   -4.6812    1.9249 H   0  0  0  0  0  0  0  0  0  0  0  0
   -2.3695   -3.0436    3.5194 H   0  0  0  0  0  0  0  0  0  0  0  0
   -3.5536   -1.8808    4.1257 H   0  0  0  0  0  0  0  0  0  0  0  0
   -4.1388   -3.4094    3.4601 H   0  0  0  0  0  0  0  0  0  0  0  0
   -1.3263    0.7092   -2.7374 H   0  0  0  0  0  0  0  0  0  0  0  0
    1.1223    0.4294   -2.8926 H   0  0  0  0  0  0  0  0  0  0  0  0
    3.2834   -1.4529    0.5166 H   0  0  0  0  0  0  0  0  0  0  0  0
    3.4054    0.3076    0.8483 H   0  0  0  0  0  0  0  0  0  0  0  0
    5.2470    0.4421   -0.8875 H   0  0  0  0  0  0  0  0  0  0  0  0
    5.0734   -1.2762   -1.1544 H   0  0  0  0  0  0  0  0  0  0  0  0
    7.8643   -1.6731    0.9077 H   0  0  0  0  0  0  0  0  0  0  0  0
    7.2902   -1.6975   -0.7546 H   0  0  0  0  0  0  0  0  0  0  0  0
    9.0455    0.2094    0.1504 H   0  0  0  0  0  0  0  0  0  0  0  0
    7.8213    0.6144   -1.0640 H   0  0  0  0  0  0  0  0  0  0  0  0
    6.8172    2.0285    0.3988 H   0  0  0  0  0  0  0  0  0  0  0  0
    7.9598    1.5944    1.6802 H   0  0  0  0  0  0  0  0  0  0  0  0
    5.2913    0.9081    1.8356 H   0  0  0  0  0  0  0  0  0  0  0  0
    6.5713   -0.0515    2.5562 H   0  0  0  0  0  0  0  0  0  0  0  0
    1.2657   -0.5650    1.3017 H   0  0  0  0  0  0  0  0  0  0  0  0
   -1.1538   -0.2799    1.4541 H   0  0  0  0  0  0  0  0  0  0  0  0
   -2.0255    3.1719   -0.8465 H   0  0  0  0  0  0  0  0  0  0  0  0
  1  2  1  0
  2  3  1  0
  3  4  2  0
  4  5  1  0
  5  6  2  0
  6  7  1  0
  7  8  1  0
  8  9  1  0
  9 10  2  0
 10 11  1  0
 11 12  2  0
 12 13  1  0
 13 14  2  0
 14 15  1  0
 15 16  1  0
  8 17  2  0
 17 18  1  0
 18 19  2  0
 19 20  1  0
 20 21  2  0
 21 22  1  0
 22 23  1  0
 23 24  1  0
 24 25  1  0
 25 26  1  0
 26 27  1  0
 27 28  1  0
 28 29  1  0
 21 30  1  0
 30 31  2  0
 17 32  1  0
 32 33  2  0
 33  3  1  0
 32  6  1  0
 14  9  1  0
 31 18  1  0
 29 25  1  0
  1 34  1  0
  1 35  1  0
  1 36  1  0
  4 37  1  0
  5 38  1  0
 10 39  1  0
 11 40  1  0
 12 41  1  0
 13 42  1  0
 16 43  1  0
 16 44  1  0
 16 45  1  0
 19 46  1  0
 20 47  1  0
 23 48  1  0
 23 49  1  0
 24 50  1  0
 24 51  1  0
 26 52  1  0
 26 53  1  0
 27 54  1  0
 27 55  1  0
 28 56  1  0
 28 57  1  0
 29 58  1  0
 29 59  1  0
 30 60  1  0
 31 61  1  0
 33 62  1  0
M  END
$$$$
