
     RDKit          3D

 63 67  0  0  0  0  0  0  0  0999 V2000
    4.1021    6.0673   -1.4966 C   0  0  0  0  0  0  0  0  0  0  0  0
    3.4575    5.0625   -2.2709 O   0  0  0  0  0  0  0  0  0  0  0  0
    3.6066    3.7694   -1.8521 C   0  0  0  0  0  0  0  0  0  0  0  0
    4.3185    3.3450   -0.7307 C   0  0  0  0  0  0  0  0  0  0  0  0
    4.3889    1.9813   -0.4170 C   0  0  0  0  0  0  0  0  0  0  0  0
    3.7516    1.0243   -1.2193 C   0  0  0  0  0  0  0  0  0  0  0  0
    3.8138   -0.4054   -0.8845 C   0  0  0  0  0  0  0  0  0  0  0  0
    5.3488   -1.1639   -0.8306 S   0  0  0  0  0  0  0  0  0  0  0  0
    4.6823   -2.6985   -0.4503 C   0  0  0  0  0  0  0  0  0  0  0  0
    5.3884   -3.8994   -0.2435 C   0  0  0  0  0  0  0  0  0  0  0  0
    4.6799   -5.0676    0.0627 C   0  0  0  0  0  0  0  0  0  0  0  0
    3.2965   -5.0477    0.1682 C   0  0  0  0  0  0  0  0  0  0  0  0
    2.4950   -6.1163    0.4644 O   0  0  0  0  0  0  0  0  0  0  0  0
    3.1367   -7.3687    0.6703 C   0  0  0  0  0  0  0  0  0  0  0  0
    2.6082   -3.8460   -0.0365 C   0  0  0  0  0  0  0  0  0  0  0  0
    3.2919   -2.6439   -0.3588 C   0  0  0  0  0  0  0  0  0  0  0  0
    2.7952   -1.3087   -0.6165 C   0  0  0  0  0  0  0  0  0  0  0  0
    1.3911   -0.9089   -0.6046 C   0  0  0  0  0  0  0  0  0  0  0  0
    0.5188   -1.3913   -1.5839 C   0  0  0  0  0  0  0  0  0  0  0  0
   -0.8251   -1.0107   -1.5716 C   0  0  0  0  0  0  0  0  0  0  0  0
   -1.3138   -0.1548   -0.5820 C   0  0  0  0  0  0  0  0  0  0  0  0
   -2.6465    0.1348   -0.6863 O   0  0  0  0  0  0  0  0  0  0  0  0
   -3.2313    0.8816    0.3836 C   0  0  0  0  0  0  0  0  0  0  0  0
   -4.7320    1.0381    0.0862 C   0  0  0  0  0  0  0  0  0  0  0  0
   -5.4617    1.7520    1.1475 N   0  0  0  0  0  0  0  0  0  0  0  0
   -5.7014    0.9160    2.3471 C   0  0  0  0  0  0  0  0  0  0  0  0
   -7.1378    0.3777    2.4485 C   0  0  0  0  0  0  0  0  0  0  0  0
   -8.1260    1.4173    2.4838 O   0  0  0  0  0  0  0  0  0  0  0  0
   -7.7305    2.5916    1.7604 C   0  0  0  0  0  0  0  0  0  0  0  0
   -6.7394    2.2890    0.6277 C   0  0  0  0  0  0  0  0  0  0  0  0
   -0.4427    0.3277    0.3960 C   0  0  0  0  0  0  0  0  0  0  0  0
    0.9047   -0.0496    0.3859 C   0  0  0  0  0  0  0  0  0  0  0  0
    3.0390    1.4591   -2.3430 C   0  0  0  0  0  0  0  0  0  0  0  0
    2.9687    2.8200   -2.6539 C   0  0  0  0  0  0  0  0  0  0  0  0
    3.7072    6.0934   -0.4755 H   0  0  0  0  0  0  0  0  0  0  0  0
    3.8889    7.0353   -1.9601 H   0  0  0  0  0  0  0  0  0  0  0  0
    5.1883    5.9299   -1.4990 H   0  0  0  0  0  0  0  0  0  0  0  0
    4.8297    4.0443   -0.0778 H   0  0  0  0  0  0  0  0  0  0  0  0
    4.9445    1.6735    0.4660 H   0  0  0  0  0  0  0  0  0  0  0  0
    6.4722   -3.9216   -0.3213 H   0  0  0  0  0  0  0  0  0  0  0  0
    5.2508   -5.9777    0.2146 H   0  0  0  0  0  0  0  0  0  0  0  0
    2.3616   -8.1082    0.8963 H   0  0  0  0  0  0  0  0  0  0  0  0
    3.6582   -7.6985   -0.2347 H   0  0  0  0  0  0  0  0  0  0  0  0
    3.8169   -7.3279    1.5280 H   0  0  0  0  0  0  0  0  0  0  0  0
    1.5243   -3.8374    0.0553 H   0  0  0  0  0  0  0  0  0  0  0  0
    0.8770   -2.0596   -2.3624 H   0  0  0  0  0  0  0  0  0  0  0  0
   -1.4978   -1.3858   -2.3394 H   0  0  0  0  0  0  0  0  0  0  0  0
   -3.0797    0.3470    1.3268 H   0  0  0  0  0  0  0  0  0  0  0  0
   -2.7723    1.8752    0.4410 H   0  0  0  0  0  0  0  0  0  0  0  0
   -4.8082    1.5982   -0.8582 H   0  0  0  0  0  0  0  0  0  0  0  0
   -5.1848    0.0573   -0.1193 H   0  0  0  0  0  0  0  0  0  0  0  0
   -5.5158    1.5577    3.2174 H   0  0  0  0  0  0  0  0  0  0  0  0
   -4.9943    0.0834    2.4214 H   0  0  0  0  0  0  0  0  0  0  0  0
   -7.3658   -0.2842    1.6044 H   0  0  0  0  0  0  0  0  0  0  0  0
   -7.2523   -0.2129    3.3637 H   0  0  0  0  0  0  0  0  0  0  0  0
   -8.6394    3.0468    1.3539 H   0  0  0  0  0  0  0  0  0  0  0  0
   -7.3022    3.3035    2.4751 H   0  0  0  0  0  0  0  0  0  0  0  0
   -7.2077    1.5682   -0.0545 H   0  0  0  0  0  0  0  0  0  0  0  0
   -6.5365    3.2053    0.0627 H   0  0  0  0  0  0  0  0  0  0  0  0
   -0.7742    1.0027    1.1784 H   0  0  0  0  0  0  0  0  0  0  0  0
    1.5703    0.3333    1.1571 H   0  0  0  0  0  0  0  0  0  0  0  0
    2.5333    0.7445   -2.9884 H   0  0  0  0  0  0  0  0  0  0  0  0
    2.4116    3.1413   -3.5318 H   0  0  0  0  0  0  0  0  0  0  0  0
  1  2  1  0
  2  3  1  0
  3  4  2  0
  4  5  1  0
  5  6  2  0
  6  7  1  0
  7  8  1  0
  8  9  1  0
  9 10  2  0
 10 11  1  0
 11 12  2  0
 12 13  1  0
 13 14  1  0
 12 15  1  0
 15 16  2  0
 16 17  1  0
 17 18  1  0
 18 19  2  0
 19 20  1  0
 20 21  2  0
 21 22  1  0
 22 23  1  0
 23 24  1  0
 24 25  1  0
 25 26  1  0
 26 27  1  0
 27 28  1  0
 28 29  1  0
 29 30  1  0
 21 31  1  0
 31 32  2  0
  6 33  1  0
 33 34  2  0
 34  3  1  0
 17  7  2  0
 32 18  1  0
 16  9  1  0
 30 25  1  0
  1 35  1  0
  1 36  1  0
  1 37  1  0
  4 38  1  0
  5 39  1  0
 10 40  1  0
 11 41  1  0
 14 42  1  0
 14 43  1  0
 14 44  1  0
 15 45  1  0
 19 46  1  0
 20 47  1  0
 23 48  1  0
 23 49  1  0
 24 50  1  0
 24 51  1  0
 26 52  1  0
 26 53  1  0
 27 54  1  0
 27 55  1  0
 29 56  1  0
 29 57  1  0
 30 58  1  0
 30 59  1  0
 31 60  1  0
 32 61  1  0
 33 62  1  0
 34 63  1  0
M  END
$$$$
