
     RDKit          3D

 36 36  0  0  0  0  0  0  0  0999 V2000
    1.4739   -5.5705    3.0603 C   0  0  0  0  0  0  0  0  0  0  0  0
    0.0575   -5.1281    2.7395 C   0  0  0  0  0  0  0  0  0  0  0  0
    0.0410   -3.8748    2.0594 O   0  0  0  0  0  0  0  0  0  0  0  0
    0.3516   -3.9745    0.6732 C   0  0  0  0  0  0  0  0  0  0  0  0
    0.1913   -2.6068    0.0180 C   0  0  0  0  0  0  0  0  0  0  0  0
    1.0820   -1.5517    0.6701 C   0  0  0  0  0  0  0  0  0  0  0  0
    1.0990   -0.3157   -0.0971 N   0  0  0  0  0  0  0  0  0  0  0  0
    0.0966    0.6233    0.0193 C   0  0  0  0  0  0  0  0  0  0  0  0
   -0.8537    0.4795    0.7836 O   0  0  0  0  0  0  0  0  0  0  0  0
    0.2238    1.8454   -0.8457 C   0  0  0  0  0  0  0  0  0  0  0  0
    1.3575    1.9887   -1.6851 C   0  0  0  0  0  0  0  0  0  0  0  0
    2.3002    2.0723   -2.3570 N   0  0  0  0  0  0  0  0  0  0  0  0
   -0.7878    2.7326   -0.7803 C   0  0  0  0  0  0  0  0  0  0  0  0
   -0.8947    3.9550   -1.5071 C   0  0  0  0  0  0  0  0  0  0  0  0
    0.0559    4.8116   -2.0655 C   0  0  0  0  0  0  0  0  0  0  0  0
   -0.6200    5.9051   -2.6676 C   0  0  0  0  0  0  0  0  0  0  0  0
   -1.9481    5.6705   -2.4351 C   0  0  0  0  0  0  0  0  0  0  0  0
   -3.1213    6.4069   -2.7834 N   0  0  0  0  0  4  0  0  0  0  0  0
   -4.2178    5.9468   -2.4418 O   0  0  0  0  0  0  0  0  0  0  0  0
   -2.9393    7.4603   -3.4092 O   0  0  0  0  0  1  0  0  0  0  0  0
   -2.1348    4.5230   -1.7392 O   0  0  0  0  0  0  0  0  0  0  0  0
    1.4646   -6.4663    3.6881 H   0  0  0  0  0  0  0  0  0  0  0  0
    2.0171   -4.7767    3.5831 H   0  0  0  0  0  0  0  0  0  0  0  0
    2.0355   -5.7989    2.1497 H   0  0  0  0  0  0  0  0  0  0  0  0
   -0.4893   -4.9866    3.6777 H   0  0  0  0  0  0  0  0  0  0  0  0
   -0.4777   -5.8896    2.1613 H   0  0  0  0  0  0  0  0  0  0  0  0
    1.3798   -4.3277    0.5436 H   0  0  0  0  0  0  0  0  0  0  0  0
   -0.3281   -4.6869    0.1920 H   0  0  0  0  0  0  0  0  0  0  0  0
   -0.8548   -2.2857    0.0935 H   0  0  0  0  0  0  0  0  0  0  0  0
    0.4253   -2.6906   -1.0501 H   0  0  0  0  0  0  0  0  0  0  0  0
    0.7441   -1.3312    1.6886 H   0  0  0  0  0  0  0  0  0  0  0  0
    2.1184   -1.9019    0.7224 H   0  0  0  0  0  0  0  0  0  0  0  0
    1.8591   -0.2034   -0.7569 H   0  0  0  0  0  0  0  0  0  0  0  0
   -1.6454    2.5134   -0.1439 H   0  0  0  0  0  0  0  0  0  0  0  0
    1.1304    4.6835   -2.0394 H   0  0  0  0  0  0  0  0  0  0  0  0
   -0.1916    6.7497   -3.1902 H   0  0  0  0  0  0  0  0  0  0  0  0
  1  2  1  0
  2  3  1  0
  3  4  1  0
  4  5  1  0
  5  6  1  0
  6  7  1  0
  7  8  1  0
  8  9  2  0
  8 10  1  0
 10 11  1  0
 11 12  3  0
 10 13  2  3
 13 14  1  0
 14 15  2  0
 15 16  1  0
 16 17  2  0
 17 18  1  0
 18 19  2  0
 18 20  1  0
 17 21  1  0
 21 14  1  0
  1 22  1  0
  1 23  1  0
  1 24  1  0
  2 25  1  0
  2 26  1  0
  4 27  1  0
  4 28  1  0
  5 29  1  0
  5 30  1  0
  6 31  1  0
  6 32  1  0
  7 33  1  0
 13 34  1  0
 15 35  1  0
 16 36  1  0
M  CHG  2  18   1  20  -1
M  END
$$$$
