
     RDKit          3D

 57 59  0  0  0  0  0  0  0  0999 V2000
    4.9250   -1.7200    4.4830 C   0  0  0  0  0  0  0  0  0  0  0  0
    4.5424   -1.1493    3.1227 C   0  0  0  0  0  0  0  0  0  0  0  0
    4.8886   -2.4189    1.8419 S   0  0  0  0  0  0  0  0  0  0  0  0
    6.2884   -1.6240    0.9888 C   0  0  0  0  0  0  0  0  0  0  0  0
    5.8330   -0.5299    0.0519 C   0  0  0  0  0  0  0  0  0  0  0  0
    5.1832   -0.8494   -1.1523 C   0  0  0  0  0  0  0  0  0  0  0  0
    4.7577    0.1564   -2.0197 C   0  0  0  0  0  0  0  0  0  0  0  0
    4.9652    1.4941   -1.6901 C   0  0  0  0  0  0  0  0  0  0  0  0
    5.6073    1.8257   -0.4972 C   0  0  0  0  0  0  0  0  0  0  0  0
    6.0421    0.8198    0.3683 C   0  0  0  0  0  0  0  0  0  0  0  0
    3.0696   -0.7264    3.0712 C   0  0  0  0  0  0  0  0  0  0  0  0
    2.3350   -0.7663    4.0585 O   0  0  0  0  0  0  0  0  0  0  0  0
    2.6930   -0.2294    1.8258 N   0  0  0  0  0  0  0  0  0  0  0  0
    1.4317    0.2420    1.6339 N   0  0  0  0  0  0  0  0  0  0  0  0
    1.1310    0.5375    0.4124 C   0  0  0  0  0  0  0  0  0  0  0  0
   -0.2006    1.0632    0.0549 C   0  0  0  0  0  0  0  0  0  0  0  0
   -0.5170    1.2533   -1.2920 C   0  0  0  0  0  0  0  0  0  0  0  0
   -1.7793    1.7442   -1.6521 C   0  0  0  0  0  0  0  0  0  0  0  0
   -2.7212    2.0542   -0.6680 C   0  0  0  0  0  0  0  0  0  0  0  0
   -3.9807    2.5422   -0.8772 O   0  0  0  0  0  0  0  0  0  0  0  0
   -4.4518    2.6117   -2.2220 C   0  0  0  0  0  0  0  0  0  0  0  0
   -4.8050    1.2512   -2.8248 C   0  0  0  0  0  0  0  0  0  0  0  0
   -4.4998    0.9358   -3.9699 O   0  0  0  0  0  0  0  0  0  0  0  0
   -5.5243    0.4440   -1.9767 N   0  0  0  0  0  0  0  0  0  0  0  0
   -5.9404   -0.8780   -2.3698 C   0  0  0  0  0  0  0  0  0  0  0  0
   -6.6585   -1.5031   -1.2346 C   0  0  0  0  0  0  0  0  0  0  0  0
   -6.3201   -2.4738   -0.3128 C   0  0  0  0  0  0  0  0  0  0  0  0
   -7.4371   -2.6281    0.5387 C   0  0  0  0  0  0  0  0  0  0  0  0
   -8.3880   -1.7434    0.0863 C   0  0  0  0  0  0  0  0  0  0  0  0
   -7.9237   -1.0548   -0.9882 O   0  0  0  0  0  0  0  0  0  0  0  0
   -2.3907    1.8682    0.6779 C   0  0  0  0  0  0  0  0  0  0  0  0
   -1.1381    1.3680    1.0430 C   0  0  0  0  0  0  0  0  0  0  0  0
    5.9859   -1.9919    4.5173 H   0  0  0  0  0  0  0  0  0  0  0  0
    4.3294   -2.6054    4.7382 H   0  0  0  0  0  0  0  0  0  0  0  0
    4.7516   -0.9778    5.2733 H   0  0  0  0  0  0  0  0  0  0  0  0
    5.1395   -0.2509    2.9459 H   0  0  0  0  0  0  0  0  0  0  0  0
    7.0076   -1.2487    1.7258 H   0  0  0  0  0  0  0  0  0  0  0  0
    6.8192   -2.3882    0.4077 H   0  0  0  0  0  0  0  0  0  0  0  0
    5.0124   -1.8897   -1.4219 H   0  0  0  0  0  0  0  0  0  0  0  0
    4.2683   -0.1037   -2.9555 H   0  0  0  0  0  0  0  0  0  0  0  0
    4.6422    2.2782   -2.3665 H   0  0  0  0  0  0  0  0  0  0  0  0
    5.7787    2.8678   -0.2462 H   0  0  0  0  0  0  0  0  0  0  0  0
    6.5524    1.1003    1.2864 H   0  0  0  0  0  0  0  0  0  0  0  0
    3.3164   -0.3419    1.0325 H   0  0  0  0  0  0  0  0  0  0  0  0
    1.8507    0.4008   -0.4135 H   0  0  0  0  0  0  0  0  0  0  0  0
    0.2024    1.0224   -2.0740 H   0  0  0  0  0  0  0  0  0  0  0  0
   -1.9849    1.8711   -2.7117 H   0  0  0  0  0  0  0  0  0  0  0  0
   -3.7575    3.1614   -2.8682 H   0  0  0  0  0  0  0  0  0  0  0  0
   -5.3821    3.1958   -2.2023 H   0  0  0  0  0  0  0  0  0  0  0  0
   -5.5879    0.7063   -0.9998 H   0  0  0  0  0  0  0  0  0  0  0  0
   -6.5849   -0.7964   -3.2514 H   0  0  0  0  0  0  0  0  0  0  0  0
   -5.0561   -1.4590   -2.6481 H   0  0  0  0  0  0  0  0  0  0  0  0
   -5.3773   -3.0029   -0.2586 H   0  0  0  0  0  0  0  0  0  0  0  0
   -7.5375   -3.2999    1.3771 H   0  0  0  0  0  0  0  0  0  0  0  0
   -9.3910   -1.4974    0.3987 H   0  0  0  0  0  0  0  0  0  0  0  0
   -3.1144    2.1096    1.4524 H   0  0  0  0  0  0  0  0  0  0  0  0
   -0.8999    1.2234    2.0956 H   0  0  0  0  0  0  0  0  0  0  0  0
  1  2  1  0
  2  3  1  0
  3  4  1  0
  4  5  1  0
  5  6  2  0
  6  7  1  0
  7  8  2  0
  8  9  1  0
  9 10  2  0
  2 11  1  0
 11 12  2  0
 11 13  1  0
 13 14  1  0
 14 15  2  3
 15 16  1  0
 16 17  2  0
 17 18  1  0
 18 19  2  0
 19 20  1  0
 20 21  1  0
 21 22  1  0
 22 23  2  0
 22 24  1  0
 24 25  1  0
 25 26  1  0
 26 27  2  0
 27 28  1  0
 28 29  2  0
 29 30  1  0
 19 31  1  0
 31 32  2  0
 10  5  1  0
 32 16  1  0
 30 26  1  0
  1 33  1  0
  1 34  1  0
  1 35  1  0
  2 36  1  0
  4 37  1  0
  4 38  1  0
  6 39  1  0
  7 40  1  0
  8 41  1  0
  9 42  1  0
 10 43  1  0
 13 44  1  0
 15 45  1  0
 17 46  1  0
 18 47  1  0
 21 48  1  0
 21 49  1  0
 24 50  1  0
 25 51  1  0
 25 52  1  0
 27 53  1  0
 28 54  1  0
 29 55  1  0
 31 56  1  0
 32 57  1  0
M  END
$$$$
