
     RDKit          3D

 49 52  0  0  0  0  0  0  0  0999 V2000
    6.1223    0.7548    1.2889 C   0  0  0  0  0  0  0  0  0  0  0  0
    4.7471    1.2154    1.1284 N   0  0  0  0  0  0  0  0  0  0  0  0
    4.1467    0.6562   -0.0974 C   0  0  0  0  0  0  0  0  0  0  0  0
    2.6012    0.6948   -0.0859 C   0  0  0  0  0  0  0  0  0  0  0  0
    1.9733   -0.0331    1.0408 N   0  0  0  0  0  0  0  0  0  0  0  0
    1.3446   -1.2973    0.6443 C   0  0  0  0  0  0  0  0  0  0  0  0
    0.0420   -1.1061   -0.1418 C   0  0  0  0  0  0  0  0  0  0  0  0
   -1.0150   -0.3330    0.6624 C   0  0  0  0  0  0  0  0  0  0  0  0
   -2.2788   -0.1907   -0.1039 N   0  0  0  0  0  0  0  0  0  0  0  0
   -3.2778   -1.1894    0.0887 C   0  0  0  0  0  0  0  0  0  0  0  0
   -2.9990   -2.4261    0.7157 C   0  0  0  0  0  0  0  0  0  0  0  0
   -3.9711   -3.4176    0.9001 C   0  0  0  0  0  0  0  0  0  0  0  0
   -5.2654   -3.2082    0.4575 C   0  0  0  0  0  0  0  0  0  0  0  0
   -5.5780   -2.0086   -0.1701 C   0  0  0  0  0  0  0  0  0  0  0  0
   -4.6022   -1.0090   -0.3598 C   0  0  0  0  0  0  0  0  0  0  0  0
   -5.1780    0.4696   -1.1587 S   0  0  0  0  0  0  0  0  0  0  0  0
   -3.6675    1.3560   -1.4527 C   0  0  0  0  0  0  0  0  0  0  0  0
   -3.7932    2.5062   -2.2588 C   0  0  0  0  0  0  0  0  0  0  0  0
   -2.6914    3.3023   -2.5499 C   0  0  0  0  0  0  0  0  0  0  0  0
   -1.4582    2.9489   -2.0317 C   0  0  0  0  0  0  0  0  0  0  0  0
   -0.0751    3.9112   -2.3858 Cl  0  0  0  0  0  0  0  0  0  0  0  0
   -1.3247    1.8125   -1.2277 C   0  0  0  0  0  0  0  0  0  0  0  0
   -2.4216    0.9791   -0.9086 C   0  0  0  0  0  0  0  0  0  0  0  0
    2.9417   -0.2505    2.1370 C   0  0  0  0  0  0  0  0  0  0  0  0
    3.9215    0.9296    2.3174 C   0  0  0  0  0  0  0  0  0  0  0  0
    6.7187    1.0056    0.4046 H   0  0  0  0  0  0  0  0  0  0  0  0
    6.1792   -0.3279    1.4491 H   0  0  0  0  0  0  0  0  0  0  0  0
    6.5979    1.2549    2.1398 H   0  0  0  0  0  0  0  0  0  0  0  0
    4.5106    1.2276   -0.9594 H   0  0  0  0  0  0  0  0  0  0  0  0
    4.4600   -0.3862   -0.2472 H   0  0  0  0  0  0  0  0  0  0  0  0
    2.2813    1.7425   -0.0142 H   0  0  0  0  0  0  0  0  0  0  0  0
    2.2368    0.3406   -1.0566 H   0  0  0  0  0  0  0  0  0  0  0  0
    1.0965   -1.8800    1.5417 H   0  0  0  0  0  0  0  0  0  0  0  0
    2.0428   -1.9095    0.0592 H   0  0  0  0  0  0  0  0  0  0  0  0
   -0.3416   -2.0979   -0.4086 H   0  0  0  0  0  0  0  0  0  0  0  0
    0.2396   -0.6122   -1.0985 H   0  0  0  0  0  0  0  0  0  0  0  0
   -1.1916   -0.8226    1.6286 H   0  0  0  0  0  0  0  0  0  0  0  0
   -0.6383    0.6496    0.9717 H   0  0  0  0  0  0  0  0  0  0  0  0
   -2.0046   -2.6721    1.0722 H   0  0  0  0  0  0  0  0  0  0  0  0
   -3.7062   -4.3524    1.3875 H   0  0  0  0  0  0  0  0  0  0  0  0
   -6.0272   -3.9700    0.5958 H   0  0  0  0  0  0  0  0  0  0  0  0
   -6.5982   -1.8508   -0.5152 H   0  0  0  0  0  0  0  0  0  0  0  0
   -4.7631    2.7878   -2.6653 H   0  0  0  0  0  0  0  0  0  0  0  0
   -2.8048    4.1838   -3.1739 H   0  0  0  0  0  0  0  0  0  0  0  0
   -0.3255    1.5923   -0.8685 H   0  0  0  0  0  0  0  0  0  0  0  0
    3.5267   -1.1645    1.9649 H   0  0  0  0  0  0  0  0  0  0  0  0
    2.3862   -0.3942    3.0714 H   0  0  0  0  0  0  0  0  0  0  0  0
    4.5424    0.7555    3.2052 H   0  0  0  0  0  0  0  0  0  0  0  0
    3.3387    1.8333    2.5385 H   0  0  0  0  0  0  0  0  0  0  0  0
  1  2  1  0
  2  3  1  0
  3  4  1  0
  4  5  1  0
  5  6  1  0
  6  7  1  0
  7  8  1  0
  8  9  1  0
  9 10  1  0
 10 11  2  0
 11 12  1  0
 12 13  2  0
 13 14  1  0
 14 15  2  0
 15 16  1  0
 16 17  1  0
 17 18  2  0
 18 19  1  0
 19 20  2  0
 20 21  1  0
 20 22  1  0
 22 23  2  0
  5 24  1  0
 24 25  1  0
 25  2  1  0
 23  9  1  0
 15 10  1  0
 23 17  1  0
  1 26  1  0
  1 27  1  0
  1 28  1  0
  3 29  1  0
  3 30  1  0
  4 31  1  0
  4 32  1  0
  6 33  1  0
  6 34  1  0
  7 35  1  0
  7 36  1  0
  8 37  1  0
  8 38  1  0
 11 39  1  0
 12 40  1  0
 13 41  1  0
 14 42  1  0
 18 43  1  0
 19 44  1  0
 22 45  1  0
 24 46  1  0
 24 47  1  0
 25 48  1  0
 25 49  1  0
M  END
$$$$
