
     RDKit          3D

 34 35  0  0  0  0  0  0  0  0999 V2000
    2.1117    1.7683   -0.8926 C   0  0  0  0  0  0  0  0  0  0  0  0
    2.6047    0.5824   -0.0816 C   0  0  0  0  0  0  0  0  0  0  0  0
    2.1038   -0.6230   -0.1570 N   0  0  0  0  0  0  0  0  0  0  0  0
    0.9612   -0.8410   -0.8848 N   0  0  0  0  0  0  0  0  0  0  0  0
   -0.2546   -0.2690   -0.4781 C   0  0  0  0  0  0  0  0  0  0  0  0
   -0.3504    0.6353    0.3433 O   0  0  0  0  0  0  0  0  0  0  0  0
   -1.4199   -0.8749   -1.2329 C   0  0  0  0  0  0  0  0  0  0  0  0
   -2.8069   -0.4051   -0.7998 C   0  0  0  0  0  0  0  0  0  0  0  0
   -3.0298    1.1018   -0.9124 C   0  0  0  0  0  0  0  0  0  0  0  0
   -3.0839   -0.8563    0.5354 O   0  0  0  0  0  0  0  0  0  0  0  0
   -4.4080   -1.3807    0.4835 C   0  0  0  0  0  0  0  0  0  0  0  0
   -4.4818   -1.9631   -0.8992 C   0  0  0  0  0  0  0  0  0  0  0  0
   -3.7608   -1.0263   -1.7007 O   0  0  0  0  0  0  0  0  0  0  0  0
    3.7378    0.7629    0.8281 C   0  0  0  0  0  0  0  0  0  0  0  0
    4.3747   -0.2123    1.5794 C   0  0  0  0  0  0  0  0  0  0  0  0
    5.4420    0.3020    2.3703 C   0  0  0  0  0  0  0  0  0  0  0  0
    5.5897    1.6595    2.2072 C   0  0  0  0  0  0  0  0  0  0  0  0
    4.4468    2.2994    1.1114 S   0  0  0  0  0  0  0  0  0  0  0  0
    2.9564    2.2792   -1.3646 H   0  0  0  0  0  0  0  0  0  0  0  0
    1.5895    2.4708   -0.2367 H   0  0  0  0  0  0  0  0  0  0  0  0
    1.4408    1.4694   -1.7005 H   0  0  0  0  0  0  0  0  0  0  0  0
    0.8901   -1.8038   -1.2041 H   0  0  0  0  0  0  0  0  0  0  0  0
   -1.3630   -1.9649   -1.1107 H   0  0  0  0  0  0  0  0  0  0  0  0
   -1.2759   -0.6675   -2.3011 H   0  0  0  0  0  0  0  0  0  0  0  0
   -2.7410    1.4708   -1.9022 H   0  0  0  0  0  0  0  0  0  0  0  0
   -2.4924    1.6640   -0.1448 H   0  0  0  0  0  0  0  0  0  0  0  0
   -4.0920    1.3418   -0.7836 H   0  0  0  0  0  0  0  0  0  0  0  0
   -4.5641   -2.1190    1.2737 H   0  0  0  0  0  0  0  0  0  0  0  0
   -5.1142   -0.5540    0.6155 H   0  0  0  0  0  0  0  0  0  0  0  0
   -3.9621   -2.9254   -0.9577 H   0  0  0  0  0  0  0  0  0  0  0  0
   -5.5036   -2.0816   -1.2677 H   0  0  0  0  0  0  0  0  0  0  0  0
    4.0792   -1.2552    1.5606 H   0  0  0  0  0  0  0  0  0  0  0  0
    6.0641   -0.2936    3.0270 H   0  0  0  0  0  0  0  0  0  0  0  0
    6.3116    2.3093    2.6826 H   0  0  0  0  0  0  0  0  0  0  0  0
  1  2  1  0
  2  3  2  3
  3  4  1  0
  4  5  1  0
  5  6  2  0
  5  7  1  0
  7  8  1  0
  8  9  1  0
  8 10  1  0
 10 11  1  0
 11 12  1  0
 12 13  1  0
  2 14  1  0
 14 15  2  0
 15 16  1  0
 16 17  2  0
 17 18  1  0
 13  8  1  0
 18 14  1  0
  1 19  1  0
  1 20  1  0
  1 21  1  0
  4 22  1  0
  7 23  1  0
  7 24  1  0
  9 25  1  0
  9 26  1  0
  9 27  1  0
 11 28  1  0
 11 29  1  0
 12 30  1  0
 12 31  1  0
 15 32  1  0
 16 33  1  0
 17 34  1  0
M  END
$$$$
