
     RDKit          3D

 58 62  0  0  0  0  0  0  0  0999 V2000
    7.2686    1.0162   -1.5565 C   0  0  0  0  0  0  0  0  0  0  0  0
    6.2598    1.5072   -0.5548 C   0  0  0  0  0  0  0  0  0  0  0  0
    6.2681    2.9991   -0.3597 C   0  0  0  0  0  0  0  0  0  0  0  0
    5.4217    0.6881    0.1057 C   0  0  0  0  0  0  0  0  0  0  0  0
    5.2311   -0.8355    0.0418 C   0  0  0  0  0  0  0  0  0  0  0  0
    5.5422   -1.1096    1.5345 C   0  0  0  0  0  0  0  0  0  0  0  0
    4.9265    0.1262    2.2799 C   0  0  0  0  0  0  0  0  0  0  0  0
    4.3195    0.9823    1.1406 C   0  0  0  0  0  0  0  0  0  0  0  0
    3.1954    0.2074    0.5324 C   0  0  0  0  0  0  0  0  0  0  0  0
    3.7456   -0.8982   -0.1402 C   0  0  0  0  0  0  0  0  0  0  0  0
    2.7341   -1.6209   -0.7058 C   0  0  0  0  0  0  0  0  0  0  0  0
    2.7919   -2.7356   -1.4281 O   0  0  0  0  0  0  0  0  0  0  0  0
    1.5199   -0.9622   -0.3844 N   0  0  0  0  0  0  0  0  0  0  0  0
    0.1940   -1.2997   -0.7261 C   0  0  0  0  0  0  0  0  0  0  0  0
   -0.8283   -0.5708   -0.3174 N   0  0  0  0  0  0  0  0  0  0  0  0
   -2.0001   -1.1276   -0.7981 C   0  0  0  0  0  0  0  0  0  0  0  0
   -3.2829   -0.5371   -0.4748 C   0  0  0  0  0  0  0  0  0  0  0  0
   -3.8662   -0.7804    0.7714 C   0  0  0  0  0  0  0  0  0  0  0  0
   -5.1098   -0.2246    1.0848 C   0  0  0  0  0  0  0  0  0  0  0  0
   -5.7833    0.5916    0.1628 C   0  0  0  0  0  0  0  0  0  0  0  0
   -7.1375    1.2026    0.4790 C   0  0  0  0  0  0  0  0  0  0  0  0
   -7.0847    2.0962    1.7208 C   0  0  0  0  0  0  0  0  0  0  0  0
   -8.2114    0.1224    0.6299 C   0  0  0  0  0  0  0  0  0  0  0  0
   -5.1811    0.8391   -1.0808 C   0  0  0  0  0  0  0  0  0  0  0  0
   -3.9389    0.2812   -1.3976 C   0  0  0  0  0  0  0  0  0  0  0  0
   -1.8514   -2.2722   -1.5631 C   0  0  0  0  0  0  0  0  0  0  0  0
   -2.8701   -3.1421   -2.2114 C   0  0  0  0  0  0  0  0  0  0  0  0
   -0.1803   -2.6581   -1.6736 S   0  0  0  0  0  0  0  0  0  0  0  0
    1.8410    0.1798    0.3986 C   0  0  0  0  0  0  0  0  0  0  0  0
    0.9321    1.0297    0.8817 O   0  0  0  0  0  0  0  0  0  0  0  0
    7.2680   -0.0705   -1.6708 H   0  0  0  0  0  0  0  0  0  0  0  0
    8.2777    1.3109   -1.2501 H   0  0  0  0  0  0  0  0  0  0  0  0
    7.0650    1.4515   -2.5405 H   0  0  0  0  0  0  0  0  0  0  0  0
    6.0520    3.5042   -1.3073 H   0  0  0  0  0  0  0  0  0  0  0  0
    5.5313    3.3422    0.3706 H   0  0  0  0  0  0  0  0  0  0  0  0
    7.2528    3.3270   -0.0101 H   0  0  0  0  0  0  0  0  0  0  0  0
    5.8203   -1.3993   -0.6786 H   0  0  0  0  0  0  0  0  0  0  0  0
    5.0944   -2.0449    1.8894 H   0  0  0  0  0  0  0  0  0  0  0  0
    6.6231   -1.1534    1.7155 H   0  0  0  0  0  0  0  0  0  0  0  0
    5.7156    0.6715    2.8119 H   0  0  0  0  0  0  0  0  0  0  0  0
    4.1739   -0.1915    3.0109 H   0  0  0  0  0  0  0  0  0  0  0  0
    4.1057    2.0203    1.3856 H   0  0  0  0  0  0  0  0  0  0  0  0
    3.7318   -2.9697   -1.5269 H   0  0  0  0  0  0  0  0  0  0  0  0
   -3.3571   -1.4032    1.5036 H   0  0  0  0  0  0  0  0  0  0  0  0
   -5.5457   -0.4349    2.0589 H   0  0  0  0  0  0  0  0  0  0  0  0
   -7.4364    1.8424   -0.3624 H   0  0  0  0  0  0  0  0  0  0  0  0
   -6.8648    1.5250    2.6295 H   0  0  0  0  0  0  0  0  0  0  0  0
   -6.3139    2.8680    1.6163 H   0  0  0  0  0  0  0  0  0  0  0  0
   -8.0452    2.6014    1.8714 H   0  0  0  0  0  0  0  0  0  0  0  0
   -8.0111   -0.5371    1.4819 H   0  0  0  0  0  0  0  0  0  0  0  0
   -8.2672   -0.5016   -0.2694 H   0  0  0  0  0  0  0  0  0  0  0  0
   -9.1963    0.5768    0.7843 H   0  0  0  0  0  0  0  0  0  0  0  0
   -5.6741    1.4729   -1.8147 H   0  0  0  0  0  0  0  0  0  0  0  0
   -3.4870    0.4936   -2.3637 H   0  0  0  0  0  0  0  0  0  0  0  0
   -2.4671   -3.6494   -3.0942 H   0  0  0  0  0  0  0  0  0  0  0  0
   -3.2158   -3.9050   -1.5067 H   0  0  0  0  0  0  0  0  0  0  0  0
   -3.7380   -2.5627   -2.5395 H   0  0  0  0  0  0  0  0  0  0  0  0
    0.0428    0.7211    0.5939 H   0  0  0  0  0  0  0  0  0  0  0  0
  1  2  1  0
  2  3  1  0
  2  4  2  3
  4  5  1  0
  5  6  1  0
  6  7  1  0
  7  8  1  0
  8  9  1  0
  9 10  1  0
 10 11  2  0
 11 12  1  0
 11 13  1  0
 13 14  1  0
 14 15  2  0
 15 16  1  0
 16 17  1  0
 17 18  2  0
 18 19  1  0
 19 20  2  0
 20 21  1  0
 21 22  1  0
 21 23  1  0
 20 24  1  0
 24 25  2  0
 16 26  2  0
 26 27  1  0
 26 28  1  0
 13 29  1  0
 29 30  1  0
  8  4  1  0
 29  9  2  0
 10  5  1  0
 28 14  1  0
 25 17  1  0
  1 31  1  0
  1 32  1  0
  1 33  1  0
  3 34  1  0
  3 35  1  0
  3 36  1  0
  5 37  1  0
  6 38  1  0
  6 39  1  0
  7 40  1  0
  7 41  1  0
  8 42  1  0
 12 43  1  0
 18 44  1  0
 19 45  1  0
 21 46  1  0
 22 47  1  0
 22 48  1  0
 22 49  1  0
 23 50  1  0
 23 51  1  0
 23 52  1  0
 24 53  1  0
 25 54  1  0
 27 55  1  0
 27 56  1  0
 27 57  1  0
 30 58  1  0
M  END
$$$$
