
     RDKit          3D

 55 58  0  0  0  0  0  0  0  0999 V2000
    8.2849    0.1580    1.5199 C   0  0  0  0  0  0  0  0  0  0  0  0
    7.5802   -0.1317    0.3217 O   0  0  0  0  0  0  0  0  0  0  0  0
    6.2290    0.1074    0.2989 C   0  0  0  0  0  0  0  0  0  0  0  0
    5.4991    0.6195    1.3770 C   0  0  0  0  0  0  0  0  0  0  0  0
    4.1219    0.8342    1.2634 C   0  0  0  0  0  0  0  0  0  0  0  0
    3.4650    0.5469    0.0639 C   0  0  0  0  0  0  0  0  0  0  0  0
    1.9980    0.7594   -0.1026 C   0  0  0  0  0  0  0  0  0  0  0  0
    1.3989    1.9399    0.5994 C   0  0  0  0  0  0  0  0  0  0  0  0
    0.0723    2.1202    0.4447 C   0  0  0  0  0  0  0  0  0  0  0  0
   -0.6867    3.2310    1.0625 C   0  0  0  0  0  0  0  0  0  0  0  0
   -1.6658    2.7985    1.8961 F   0  0  0  0  0  0  0  0  0  0  0  0
    0.1241    4.0208    1.8232 F   0  0  0  0  0  0  0  0  0  0  0  0
   -1.2549    4.0556    0.1487 F   0  0  0  0  0  0  0  0  0  0  0  0
   -0.6552    1.2346   -0.3410 N   0  0  0  0  0  0  0  0  0  0  0  0
   -1.9816    1.2456   -0.6112 N   0  0  0  0  0  0  0  0  0  0  0  0
   -2.2054    0.1850   -1.4057 C   0  0  0  0  0  0  0  0  0  0  0  0
   -3.5181   -0.1684   -1.9884 C   0  0  0  0  0  0  0  0  0  0  0  0
   -3.5459   -0.8125   -3.0407 O   0  0  0  0  0  0  0  0  0  0  0  0
   -4.7110    0.2303   -1.3610 N   0  0  0  0  0  0  0  0  0  0  0  0
   -5.9439   -0.1137   -2.0503 C   0  0  0  0  0  0  0  0  0  0  0  0
   -4.8349    0.5348    0.0671 C   0  0  0  0  0  0  0  0  0  0  0  0
   -5.0417   -0.7013    0.9152 C   0  0  0  0  0  0  0  0  0  0  0  0
   -3.9454   -1.4426    1.3795 C   0  0  0  0  0  0  0  0  0  0  0  0
   -4.1392   -2.5922    2.1474 C   0  0  0  0  0  0  0  0  0  0  0  0
   -5.4297   -3.0135    2.4605 C   0  0  0  0  0  0  0  0  0  0  0  0
   -6.5279   -2.2856    2.0072 C   0  0  0  0  0  0  0  0  0  0  0  0
   -6.3359   -1.1361    1.2385 C   0  0  0  0  0  0  0  0  0  0  0  0
   -0.9934   -0.4993   -1.6718 C   0  0  0  0  0  0  0  0  0  0  0  0
   -0.0178    0.1676   -0.9745 C   0  0  0  0  0  0  0  0  0  0  0  0
    1.3212   -0.0627   -0.8539 N   0  0  0  0  0  0  0  0  0  0  0  0
    4.1875    0.0164   -1.0135 C   0  0  0  0  0  0  0  0  0  0  0  0
    5.5652   -0.2040   -0.9054 C   0  0  0  0  0  0  0  0  0  0  0  0
    6.3498   -0.7074   -1.9137 O   0  0  0  0  0  0  0  0  0  0  0  0
    5.6977   -1.1563   -3.0940 C   0  0  0  0  0  0  0  0  0  0  0  0
    9.3379   -0.0919    1.3576 H   0  0  0  0  0  0  0  0  0  0  0  0
    7.9219   -0.4565    2.3504 H   0  0  0  0  0  0  0  0  0  0  0  0
    8.2300    1.2244    1.7626 H   0  0  0  0  0  0  0  0  0  0  0  0
    5.9727    0.8540    2.3248 H   0  0  0  0  0  0  0  0  0  0  0  0
    3.5831    1.2013    2.1321 H   0  0  0  0  0  0  0  0  0  0  0  0
    2.0189    2.6173    1.1726 H   0  0  0  0  0  0  0  0  0  0  0  0
   -6.7435    0.5661   -1.7417 H   0  0  0  0  0  0  0  0  0  0  0  0
   -5.8208   -0.0264   -3.1342 H   0  0  0  0  0  0  0  0  0  0  0  0
   -6.2162   -1.1459   -1.8110 H   0  0  0  0  0  0  0  0  0  0  0  0
   -5.6851    1.2180    0.1915 H   0  0  0  0  0  0  0  0  0  0  0  0
   -3.9810    1.0870    0.4551 H   0  0  0  0  0  0  0  0  0  0  0  0
   -2.9306   -1.1276    1.1505 H   0  0  0  0  0  0  0  0  0  0  0  0
   -3.2819   -3.1598    2.5003 H   0  0  0  0  0  0  0  0  0  0  0  0
   -5.5793   -3.9099    3.0568 H   0  0  0  0  0  0  0  0  0  0  0  0
   -7.5348   -2.6147    2.2505 H   0  0  0  0  0  0  0  0  0  0  0  0
   -7.2050   -0.5821    0.8906 H   0  0  0  0  0  0  0  0  0  0  0  0
   -0.8579   -1.3720   -2.2953 H   0  0  0  0  0  0  0  0  0  0  0  0
    3.6533   -0.2101   -1.9312 H   0  0  0  0  0  0  0  0  0  0  0  0
    6.4586   -1.5835   -3.7543 H   0  0  0  0  0  0  0  0  0  0  0  0
    4.9707   -1.9445   -2.8713 H   0  0  0  0  0  0  0  0  0  0  0  0
    5.2285   -0.3216   -3.6249 H   0  0  0  0  0  0  0  0  0  0  0  0
  1  2  1  0
  2  3  1  0
  3  4  2  0
  4  5  1  0
  5  6  2  0
  6  7  1  0
  7  8  1  0
  8  9  2  0
  9 10  1  0
 10 11  1  0
 10 12  1  0
 10 13  1  0
  9 14  1  0
 14 15  1  0
 15 16  2  0
 16 17  1  0
 17 18  2  0
 17 19  1  0
 19 20  1  0
 19 21  1  0
 21 22  1  0
 22 23  2  0
 23 24  1  0
 24 25  2  0
 25 26  1  0
 26 27  2  0
 16 28  1  0
 28 29  2  0
 29 30  1  0
  6 31  1  0
 31 32  2  0
 32 33  1  0
 33 34  1  0
 32  3  1  0
 30  7  2  0
 29 14  1  0
 27 22  1  0
  1 35  1  0
  1 36  1  0
  1 37  1  0
  4 38  1  0
  5 39  1  0
  8 40  1  0
 20 41  1  0
 20 42  1  0
 20 43  1  0
 21 44  1  0
 21 45  1  0
 23 46  1  0
 24 47  1  0
 25 48  1  0
 26 49  1  0
 27 50  1  0
 28 51  1  0
 31 52  1  0
 34 53  1  0
 34 54  1  0
 34 55  1  0
M  END
$$$$
