
     RDKit          3D

 34 35  0  0  0  0  0  0  0  0999 V2000
    2.5992    3.2737    1.8855 C   0  0  0  0  0  0  0  0  0  0  0  0
    2.1373    1.9778    1.2521 C   0  0  0  0  0  0  0  0  0  0  0  0
    0.9064    1.9440    0.8307 N   0  0  0  0  0  0  0  0  0  0  0  0
    0.4400    0.8419    0.1815 N   0  0  0  0  0  0  0  0  0  0  0  0
   -0.8803    0.7954   -0.2585 C   0  0  0  0  0  0  0  0  0  0  0  0
   -1.6823    1.7147   -0.1452 O   0  0  0  0  0  0  0  0  0  0  0  0
   -1.1790   -0.5250   -0.9366 C   0  0  0  0  0  0  0  0  0  0  0  0
   -2.6390   -0.7668   -1.3149 C   0  0  0  0  0  0  0  0  0  0  0  0
   -3.2269    0.2681   -2.2713 C   0  0  0  0  0  0  0  0  0  0  0  0
   -2.6676   -2.0472   -2.0011 O   0  0  0  0  0  0  0  0  0  0  0  0
   -3.7666   -2.7486   -1.4199 C   0  0  0  0  0  0  0  0  0  0  0  0
   -3.7805   -2.2455   -0.0050 C   0  0  0  0  0  0  0  0  0  0  0  0
   -3.4625   -0.8631   -0.1413 O   0  0  0  0  0  0  0  0  0  0  0  0
    3.1369    0.9242    1.1370 C   0  0  0  0  0  0  0  0  0  0  0  0
    4.4612    1.0524    0.7585 C   0  0  0  0  0  0  0  0  0  0  0  0
    5.1626   -0.1881    0.7906 C   0  0  0  0  0  0  0  0  0  0  0  0
    4.3590   -1.2220    1.2133 C   0  0  0  0  0  0  0  0  0  0  0  0
    2.7744   -0.6944    1.5723 S   0  0  0  0  0  0  0  0  0  0  0  0
    1.7390    3.8645    2.2143 H   0  0  0  0  0  0  0  0  0  0  0  0
    3.2358    3.0697    2.7513 H   0  0  0  0  0  0  0  0  0  0  0  0
    3.1640    3.8551    1.1508 H   0  0  0  0  0  0  0  0  0  0  0  0
    1.0489    0.0363    0.0804 H   0  0  0  0  0  0  0  0  0  0  0  0
   -0.8520   -1.3258   -0.2594 H   0  0  0  0  0  0  0  0  0  0  0  0
   -0.5490   -0.5938   -1.8330 H   0  0  0  0  0  0  0  0  0  0  0  0
   -4.2066   -0.0622   -2.6365 H   0  0  0  0  0  0  0  0  0  0  0  0
   -3.3903    1.2370   -1.7934 H   0  0  0  0  0  0  0  0  0  0  0  0
   -2.5888    0.4001   -3.1513 H   0  0  0  0  0  0  0  0  0  0  0  0
   -3.6192   -3.8287   -1.4952 H   0  0  0  0  0  0  0  0  0  0  0  0
   -4.6777   -2.4687   -1.9594 H   0  0  0  0  0  0  0  0  0  0  0  0
   -2.9964   -2.7167    0.5975 H   0  0  0  0  0  0  0  0  0  0  0  0
   -4.7446   -2.3747    0.4928 H   0  0  0  0  0  0  0  0  0  0  0  0
    4.9103    1.9924    0.4586 H   0  0  0  0  0  0  0  0  0  0  0  0
    6.2051   -0.3138    0.5228 H   0  0  0  0  0  0  0  0  0  0  0  0
    4.6291   -2.2623    1.3377 H   0  0  0  0  0  0  0  0  0  0  0  0
  1  2  1  0
  2  3  2  3
  3  4  1  0
  4  5  1  0
  5  6  2  0
  5  7  1  0
  7  8  1  0
  8  9  1  0
  8 10  1  0
 10 11  1  0
 11 12  1  0
 12 13  1  0
  2 14  1  0
 14 15  2  0
 15 16  1  0
 16 17  2  0
 17 18  1  0
 13  8  1  0
 18 14  1  0
  1 19  1  0
  1 20  1  0
  1 21  1  0
  4 22  1  0
  7 23  1  0
  7 24  1  0
  9 25  1  0
  9 26  1  0
  9 27  1  0
 11 28  1  0
 11 29  1  0
 12 30  1  0
 12 31  1  0
 15 32  1  0
 16 33  1  0
 17 34  1  0
M  END
$$$$
