
     RDKit          3D

 60 63  0  0  0  0  0  0  0  0999 V2000
   10.5733   -1.8206    1.8592 C   0  0  0  0  0  0  0  0  0  0  0  0
    9.9949   -0.4997    1.3856 C   0  0  0  0  0  0  0  0  0  0  0  0
    9.1940   -0.6913    0.2208 O   0  0  0  0  0  0  0  0  0  0  0  0
    7.8550   -0.9185    0.3697 C   0  0  0  0  0  0  0  0  0  0  0  0
    7.1781   -1.1333    1.5695 C   0  0  0  0  0  0  0  0  0  0  0  0
    5.7927   -1.3406    1.5716 C   0  0  0  0  0  0  0  0  0  0  0  0
    5.0678   -1.3497    0.3738 C   0  0  0  0  0  0  0  0  0  0  0  0
    3.5735   -1.5275    0.3741 C   0  0  0  0  0  0  0  0  0  0  0  0
    2.9205   -0.2608    0.1395 N   0  0  0  0  0  0  0  0  0  0  0  0
    1.5598   -0.2068   -0.1078 C   0  0  0  0  0  0  0  0  0  0  0  0
    0.8691   -1.2162   -0.2159 O   0  0  0  0  0  0  0  0  0  0  0  0
    1.0314    1.2244   -0.2336 C   0  0  0  0  0  0  0  0  0  0  0  0
   -0.3756    1.2407   -0.5933 N   0  0  0  0  0  0  0  0  0  0  0  0
   -0.6635    1.2799   -1.9628 N   0  0  0  0  0  0  0  0  0  0  0  0
   -1.8938    1.2150   -2.3895 C   0  0  0  0  0  0  0  0  0  0  0  0
   -2.1352    1.2533   -3.8725 C   0  0  0  0  0  0  0  0  0  0  0  0
   -2.9720    1.1226   -1.4357 C   0  0  0  0  0  0  0  0  0  0  0  0
   -4.3530    1.1066   -1.5396 C   0  0  0  0  0  0  0  0  0  0  0  0
   -5.2229    1.3125   -2.7261 C   0  0  0  0  0  0  0  0  0  0  0  0
   -4.8189    0.9097   -0.2342 N   0  0  0  0  0  0  0  0  0  0  0  0
   -6.1277    0.5923    0.2456 C   0  0  0  0  0  0  0  0  0  0  0  0
   -6.4237    0.8054    1.6019 C   0  0  0  0  0  0  0  0  0  0  0  0
   -7.6889    0.5015    2.1133 C   0  0  0  0  0  0  0  0  0  0  0  0
   -8.6739   -0.0462    1.2871 C   0  0  0  0  0  0  0  0  0  0  0  0
  -10.0402   -0.3436    1.8321 C   0  0  0  0  0  0  0  0  0  0  0  0
   -8.3776   -0.2724   -0.0611 C   0  0  0  0  0  0  0  0  0  0  0  0
   -7.1118    0.0327   -0.5771 C   0  0  0  0  0  0  0  0  0  0  0  0
   -3.8095    1.0589    0.6677 N   0  0  0  0  0  0  0  0  0  0  0  0
   -2.6951    1.0917   -0.0646 C   0  0  0  0  0  0  0  0  0  0  0  0
   -1.3285    1.1456    0.4383 C   0  0  0  0  0  0  0  0  0  0  0  0
   -1.0337    1.1326    1.6324 O   0  0  0  0  0  0  0  0  0  0  0  0
    5.7537   -1.1441   -0.8288 C   0  0  0  0  0  0  0  0  0  0  0  0
    7.1346   -0.9344   -0.8270 C   0  0  0  0  0  0  0  0  0  0  0  0
   11.1628   -2.2850    1.0623 H   0  0  0  0  0  0  0  0  0  0  0  0
    9.7849   -2.5322    2.1250 H   0  0  0  0  0  0  0  0  0  0  0  0
   11.2184   -1.6703    2.7302 H   0  0  0  0  0  0  0  0  0  0  0  0
   10.8223    0.1553    1.0894 H   0  0  0  0  0  0  0  0  0  0  0  0
    9.4643    0.0326    2.1815 H   0  0  0  0  0  0  0  0  0  0  0  0
    7.6940   -1.1539    2.5242 H   0  0  0  0  0  0  0  0  0  0  0  0
    5.2848   -1.4952    2.5221 H   0  0  0  0  0  0  0  0  0  0  0  0
    3.2184   -1.9184    1.3351 H   0  0  0  0  0  0  0  0  0  0  0  0
    3.2722   -2.2450   -0.3966 H   0  0  0  0  0  0  0  0  0  0  0  0
    3.3821    0.5676    0.4892 H   0  0  0  0  0  0  0  0  0  0  0  0
    1.1767    1.7345    0.7236 H   0  0  0  0  0  0  0  0  0  0  0  0
    1.6023    1.7545   -1.0037 H   0  0  0  0  0  0  0  0  0  0  0  0
   -2.5711    2.2176   -4.1476 H   0  0  0  0  0  0  0  0  0  0  0  0
   -2.8103    0.4446   -4.1679 H   0  0  0  0  0  0  0  0  0  0  0  0
   -1.1921    1.1353   -4.4154 H   0  0  0  0  0  0  0  0  0  0  0  0
   -5.4092    0.3647   -3.2401 H   0  0  0  0  0  0  0  0  0  0  0  0
   -6.1760    1.7806   -2.4621 H   0  0  0  0  0  0  0  0  0  0  0  0
   -4.7524    1.9948   -3.4405 H   0  0  0  0  0  0  0  0  0  0  0  0
   -5.6783    1.2238    2.2775 H   0  0  0  0  0  0  0  0  0  0  0  0
   -7.8942    0.6921    3.1644 H   0  0  0  0  0  0  0  0  0  0  0  0
  -10.6681    0.5509    1.7759 H   0  0  0  0  0  0  0  0  0  0  0  0
   -9.9805   -0.6695    2.8768 H   0  0  0  0  0  0  0  0  0  0  0  0
  -10.5229   -1.1485    1.2662 H   0  0  0  0  0  0  0  0  0  0  0  0
   -9.1282   -0.7056   -0.7202 H   0  0  0  0  0  0  0  0  0  0  0  0
   -6.9220   -0.2283   -1.6113 H   0  0  0  0  0  0  0  0  0  0  0  0
    5.2150   -1.1405   -1.7744 H   0  0  0  0  0  0  0  0  0  0  0  0
    7.6541   -0.7763   -1.7704 H   0  0  0  0  0  0  0  0  0  0  0  0
  1  2  1  0
  2  3  1  0
  3  4  1  0
  4  5  2  0
  5  6  1  0
  6  7  2  0
  7  8  1  0
  8  9  1  0
  9 10  1  0
 10 11  2  0
 10 12  1  0
 12 13  1  0
 13 14  1  0
 14 15  2  0
 15 16  1  0
 15 17  1  0
 17 18  2  0
 18 19  1  0
 18 20  1  0
 20 21  1  0
 21 22  2  0
 22 23  1  0
 23 24  2  0
 24 25  1  0
 24 26  1  0
 26 27  2  0
 20 28  1  0
 28 29  2  0
 29 30  1  0
 30 31  2  0
  7 32  1  0
 32 33  2  0
 33  4  1  0
 30 13  1  0
 29 17  1  0
 27 21  1  0
  1 34  1  0
  1 35  1  0
  1 36  1  0
  2 37  1  0
  2 38  1  0
  5 39  1  0
  6 40  1  0
  8 41  1  0
  8 42  1  0
  9 43  1  0
 12 44  1  0
 12 45  1  0
 16 46  1  0
 16 47  1  0
 16 48  1  0
 19 49  1  0
 19 50  1  0
 19 51  1  0
 22 52  1  0
 23 53  1  0
 25 54  1  0
 25 55  1  0
 25 56  1  0
 26 57  1  0
 27 58  1  0
 32 59  1  0
 33 60  1  0
M  END
$$$$
