
     RDKit          3D

 48 51  0  0  0  0  0  0  0  0999 V2000
    2.6746   -2.0626   -2.5246 C   0  0  0  0  0  0  0  0  0  0  0  0
    2.8914   -2.3383   -1.0443 C   0  0  0  0  0  0  0  0  0  0  0  0
    2.7102   -1.1215   -0.2578 N   0  0  0  0  0  0  0  0  0  0  0  0
    1.5262   -0.6419    0.3092 C   0  0  0  0  0  0  0  0  0  0  0  0
    0.3060   -1.2035    0.2032 C   0  0  0  0  0  0  0  0  0  0  0  0
   -0.9278   -0.6869    0.8199 C   0  0  0  0  0  0  0  0  0  0  0  0
   -1.2031   -1.1465    2.1006 C   0  0  0  0  0  0  0  0  0  0  0  0
   -2.3392   -0.7260    2.7458 C   0  0  0  0  0  0  0  0  0  0  0  0
   -3.1934    0.1600    2.1108 C   0  0  0  0  0  0  0  0  0  0  0  0
   -4.3283    0.5432    2.8314 C   0  0  0  0  0  0  0  0  0  0  0  0
   -5.2401    1.4280    2.2913 C   0  0  0  0  0  0  0  0  0  0  0  0
   -5.0154    1.9394    1.0245 C   0  0  0  0  0  0  0  0  0  0  0  0
   -3.8806    1.5798    0.2506 C   0  0  0  0  0  0  0  0  0  0  0  0
   -3.8342    2.3018   -1.0737 C   0  0  0  0  0  0  0  0  0  0  0  0
   -2.9225    0.6587    0.7818 C   0  0  0  0  0  0  0  0  0  0  0  0
   -1.7655    0.1841    0.1641 N   0  0  0  0  0  4  0  0  0  0  0  0
   -1.3827    0.5607   -1.2262 C   0  0  0  0  0  0  0  0  0  0  0  0
   -2.0087   -0.4109   -2.2114 C   0  0  0  0  0  0  0  0  0  0  0  0
    1.7258    0.8931    1.2045 S   0  0  0  0  0  0  0  0  0  0  0  0
    3.4542    0.8863    0.7496 C   0  0  0  0  0  0  0  0  0  0  0  0
    4.3828    1.8610    1.0879 C   0  0  0  0  0  0  0  0  0  0  0  0
    5.6934    1.7095    0.6406 C   0  0  0  0  0  0  0  0  0  0  0  0
    6.0508    0.5982   -0.1321 C   0  0  0  0  0  0  0  0  0  0  0  0
    5.1044   -0.3795   -0.4667 C   0  0  0  0  0  0  0  0  0  0  0  0
    3.7923   -0.2465   -0.0249 C   0  0  0  0  0  0  0  0  0  0  0  0
    1.6682   -1.6732   -2.7110 H   0  0  0  0  0  0  0  0  0  0  0  0
    2.7948   -2.9840   -3.1028 H   0  0  0  0  0  0  0  0  0  0  0  0
    3.3921   -1.3278   -2.9034 H   0  0  0  0  0  0  0  0  0  0  0  0
    2.1834   -3.1086   -0.7163 H   0  0  0  0  0  0  0  0  0  0  0  0
    3.8802   -2.7819   -0.8818 H   0  0  0  0  0  0  0  0  0  0  0  0
    0.1738   -2.1300   -0.3468 H   0  0  0  0  0  0  0  0  0  0  0  0
   -0.5260   -1.8342    2.6060 H   0  0  0  0  0  0  0  0  0  0  0  0
   -2.5413   -1.0950    3.7514 H   0  0  0  0  0  0  0  0  0  0  0  0
   -4.5209    0.1584    3.8335 H   0  0  0  0  0  0  0  0  0  0  0  0
   -6.1208    1.7264    2.8572 H   0  0  0  0  0  0  0  0  0  0  0  0
   -5.7511    2.6472    0.6365 H   0  0  0  0  0  0  0  0  0  0  0  0
   -3.0251    3.0380   -1.0786 H   0  0  0  0  0  0  0  0  0  0  0  0
   -3.7574    1.6092   -1.9117 H   0  0  0  0  0  0  0  0  0  0  0  0
   -4.7538    2.8691   -1.2640 H   0  0  0  0  0  0  0  0  0  0  0  0
   -0.2965    0.5505   -1.3384 H   0  0  0  0  0  0  0  0  0  0  0  0
   -1.6268    1.5996   -1.4114 H   0  0  0  0  0  0  0  0  0  0  0  0
   -1.8220   -0.0814   -3.2379 H   0  0  0  0  0  0  0  0  0  0  0  0
   -1.5831   -1.4131   -2.0995 H   0  0  0  0  0  0  0  0  0  0  0  0
   -3.0887   -0.5049   -2.0677 H   0  0  0  0  0  0  0  0  0  0  0  0
    4.1026    2.7217    1.6866 H   0  0  0  0  0  0  0  0  0  0  0  0
    6.4435    2.4565    0.8919 H   0  0  0  0  0  0  0  0  0  0  0  0
    7.0784    0.4928   -0.4757 H   0  0  0  0  0  0  0  0  0  0  0  0
    5.4258   -1.2215   -1.0699 H   0  0  0  0  0  0  0  0  0  0  0  0
  1  2  1  0
  2  3  1  0
  3  4  1  0
  4  5  2  3
  5  6  1  0
  6  7  2  0
  7  8  1  0
  8  9  2  0
  9 10  1  0
 10 11  2  0
 11 12  1  0
 12 13  2  0
 13 14  1  0
 13 15  1  0
 15 16  2  0
 16 17  1  0
 17 18  1  0
  4 19  1  0
 19 20  1  0
 20 21  2  0
 21 22  1  0
 22 23  2  0
 23 24  1  0
 24 25  2  0
 25  3  1  0
 16  6  1  0
 25 20  1  0
 15  9  1  0
  1 26  1  0
  1 27  1  0
  1 28  1  0
  2 29  1  0
  2 30  1  0
  5 31  1  0
  7 32  1  0
  8 33  1  0
 10 34  1  0
 11 35  1  0
 12 36  1  0
 14 37  1  0
 14 38  1  0
 14 39  1  0
 17 40  1  0
 17 41  1  0
 18 42  1  0
 18 43  1  0
 18 44  1  0
 21 45  1  0
 22 46  1  0
 23 47  1  0
 24 48  1  0
M  CHG  1  16   1
M  END
$$$$
