
     RDKit          3D

 61 65  0  0  0  0  0  0  0  0999 V2000
    6.4352   -4.3063    1.9669 C   0  0  0  0  0  0  0  0  0  0  0  0
    5.2358   -3.4764    1.6137 C   0  0  0  0  0  0  0  0  0  0  0  0
    4.0657   -3.5598    2.3726 C   0  0  0  0  0  0  0  0  0  0  0  0
    2.9380   -2.8096    2.0237 C   0  0  0  0  0  0  0  0  0  0  0  0
    2.9476   -1.9647    0.9019 C   0  0  0  0  0  0  0  0  0  0  0  0
    1.7622   -1.1752    0.5366 C   0  0  0  0  0  0  0  0  0  0  0  0
    1.8440    0.1971    0.3133 C   0  0  0  0  0  0  0  0  0  0  0  0
    0.7103    0.9473   -0.0297 C   0  0  0  0  0  0  0  0  0  0  0  0
    0.8112    2.3964   -0.2286 C   0  0  0  0  0  0  0  0  0  0  0  0
    0.4735    3.2909    0.7995 C   0  0  0  0  0  0  0  0  0  0  0  0
    0.5714    4.6710    0.6055 C   0  0  0  0  0  0  0  0  0  0  0  0
    1.0109    5.1861   -0.6175 C   0  0  0  0  0  0  0  0  0  0  0  0
    1.1490    6.6689   -0.8105 C   0  0  0  0  0  0  0  0  0  0  0  0
    1.3831    4.3011   -1.6336 C   0  0  0  0  0  0  0  0  0  0  0  0
    1.2854    2.9205   -1.4420 C   0  0  0  0  0  0  0  0  0  0  0  0
   -0.5082    0.3380   -0.1589 N   0  0  0  0  0  4  0  0  0  0  0  0
   -1.6724    1.1141   -0.5134 C   0  0  0  0  0  0  0  0  0  0  0  0
   -2.5643    1.4887    0.4934 C   0  0  0  0  0  0  0  0  0  0  0  0
   -3.6861    2.2364    0.1431 C   0  0  0  0  0  0  0  0  0  0  0  0
   -3.8979    2.5964   -1.1912 C   0  0  0  0  0  0  0  0  0  0  0  0
   -2.9928    2.2126   -2.1853 C   0  0  0  0  0  0  0  0  0  0  0  0
   -1.8670    1.4636   -1.8510 C   0  0  0  0  0  0  0  0  0  0  0  0
   -0.6187   -1.0097    0.0506 C   0  0  0  0  0  0  0  0  0  0  0  0
   -1.9238   -1.6566   -0.1168 C   0  0  0  0  0  0  0  0  0  0  0  0
   -2.3969   -2.0094   -1.3909 C   0  0  0  0  0  0  0  0  0  0  0  0
   -3.6409   -2.6265   -1.5444 C   0  0  0  0  0  0  0  0  0  0  0  0
   -4.4271   -2.9256   -0.4276 C   0  0  0  0  0  0  0  0  0  0  0  0
   -5.7772   -3.5607   -0.5977 C   0  0  0  0  0  0  0  0  0  0  0  0
   -3.9599   -2.5837    0.8449 C   0  0  0  0  0  0  0  0  0  0  0  0
   -2.7165   -1.9659    1.0006 C   0  0  0  0  0  0  0  0  0  0  0  0
    0.5086   -1.7667    0.3999 C   0  0  0  0  0  0  0  0  0  0  0  0
    4.1245   -1.9010    0.1385 C   0  0  0  0  0  0  0  0  0  0  0  0
    5.2525   -2.6512    0.4862 C   0  0  0  0  0  0  0  0  0  0  0  0
    6.4758   -4.4970    3.0444 H   0  0  0  0  0  0  0  0  0  0  0  0
    7.3610   -3.7891    1.6937 H   0  0  0  0  0  0  0  0  0  0  0  0
    6.3952   -5.2646    1.4400 H   0  0  0  0  0  0  0  0  0  0  0  0
    4.0257   -4.2092    3.2456 H   0  0  0  0  0  0  0  0  0  0  0  0
    2.0536   -2.8917    2.6525 H   0  0  0  0  0  0  0  0  0  0  0  0
    2.8020    0.7073    0.4274 H   0  0  0  0  0  0  0  0  0  0  0  0
    0.1363    2.9296    1.7697 H   0  0  0  0  0  0  0  0  0  0  0  0
    0.3080    5.3467    1.4182 H   0  0  0  0  0  0  0  0  0  0  0  0
    1.0330    6.9383   -1.8654 H   0  0  0  0  0  0  0  0  0  0  0  0
    0.3774    7.2079   -0.2507 H   0  0  0  0  0  0  0  0  0  0  0  0
    2.1338    7.0004   -0.4675 H   0  0  0  0  0  0  0  0  0  0  0  0
    1.7572    4.6857   -2.5816 H   0  0  0  0  0  0  0  0  0  0  0  0
    1.5880    2.2642   -2.2563 H   0  0  0  0  0  0  0  0  0  0  0  0
   -2.4020    1.2164    1.5312 H   0  0  0  0  0  0  0  0  0  0  0  0
   -4.4018    2.5444    0.9036 H   0  0  0  0  0  0  0  0  0  0  0  0
   -4.7770    3.1821   -1.4590 H   0  0  0  0  0  0  0  0  0  0  0  0
   -3.1739    2.5028   -3.2190 H   0  0  0  0  0  0  0  0  0  0  0  0
   -1.1699    1.1646   -2.6271 H   0  0  0  0  0  0  0  0  0  0  0  0
   -1.8052   -1.8138   -2.2835 H   0  0  0  0  0  0  0  0  0  0  0  0
   -3.9928   -2.8827   -2.5428 H   0  0  0  0  0  0  0  0  0  0  0  0
   -6.0461   -4.1518    0.2839 H   0  0  0  0  0  0  0  0  0  0  0  0
   -5.7828   -4.2391   -1.4573 H   0  0  0  0  0  0  0  0  0  0  0  0
   -6.5367   -2.7878   -0.7503 H   0  0  0  0  0  0  0  0  0  0  0  0
   -4.5622   -2.8058    1.7252 H   0  0  0  0  0  0  0  0  0  0  0  0
   -2.3802   -1.7298    2.0092 H   0  0  0  0  0  0  0  0  0  0  0  0
    0.3992   -2.8426    0.5464 H   0  0  0  0  0  0  0  0  0  0  0  0
    4.1788   -1.2766   -0.7508 H   0  0  0  0  0  0  0  0  0  0  0  0
    6.1466   -2.5888   -0.1316 H   0  0  0  0  0  0  0  0  0  0  0  0
  1  2  1  0
  2  3  2  0
  3  4  1  0
  4  5  2  0
  5  6  1  0
  6  7  2  0
  7  8  1  0
  8  9  1  0
  9 10  2  0
 10 11  1  0
 11 12  2  0
 12 13  1  0
 12 14  1  0
 14 15  2  0
  8 16  2  0
 16 17  1  0
 17 18  2  0
 18 19  1  0
 19 20  2  0
 20 21  1  0
 21 22  2  0
 16 23  1  0
 23 24  1  0
 24 25  2  0
 25 26  1  0
 26 27  2  0
 27 28  1  0
 27 29  1  0
 29 30  2  0
 23 31  2  0
  5 32  1  0
 32 33  2  0
 33  2  1  0
 31  6  1  0
 15  9  1  0
 22 17  1  0
 30 24  1  0
  1 34  1  0
  1 35  1  0
  1 36  1  0
  3 37  1  0
  4 38  1  0
  7 39  1  0
 10 40  1  0
 11 41  1  0
 13 42  1  0
 13 43  1  0
 13 44  1  0
 14 45  1  0
 15 46  1  0
 18 47  1  0
 19 48  1  0
 20 49  1  0
 21 50  1  0
 22 51  1  0
 25 52  1  0
 26 53  1  0
 28 54  1  0
 28 55  1  0
 28 56  1  0
 29 57  1  0
 30 58  1  0
 31 59  1  0
 32 60  1  0
 33 61  1  0
M  CHG  1  16   1
M  END
$$$$
