
     RDKit          3D

 42 44  0  0  0  0  0  0  0  0999 V2000
   -3.6169    3.1849   -0.2924 C   0  0  0  0  0  0  0  0  0  0  0  0
   -4.0752    1.8654   -0.0216 O   0  0  0  0  0  0  0  0  0  0  0  0
   -3.1988    0.8431   -0.2643 C   0  0  0  0  0  0  0  0  0  0  0  0
   -3.7067   -0.4350   -0.0033 C   0  0  0  0  0  0  0  0  0  0  0  0
   -2.9213   -1.5727   -0.2067 C   0  0  0  0  0  0  0  0  0  0  0  0
   -1.6106   -1.4252   -0.6641 C   0  0  0  0  0  0  0  0  0  0  0  0
   -0.6011   -2.8655   -0.9407 S   0  0  0  0  0  6  0  0  0  0  0  0
    0.3005   -2.5731   -2.0344 O   0  0  0  0  0  0  0  0  0  0  0  0
   -1.4869   -4.0132   -0.9920 O   0  0  0  0  0  0  0  0  0  0  0  0
    0.2635   -3.0232    0.5024 N   0  0  0  0  0  0  0  0  0  0  0  0
    1.0371   -1.9327    0.9981 C   0  0  0  0  0  0  0  0  0  0  0  0
    2.1484   -1.4917    0.2707 C   0  0  0  0  0  0  0  0  0  0  0  0
    2.9019   -0.3923    0.7049 C   0  0  0  0  0  0  0  0  0  0  0  0
    4.3468    0.1132   -0.2140 S   0  0  0  0  0  0  0  0  0  0  0  0
    3.6928    0.8303   -1.6687 C   0  0  0  0  0  0  0  0  0  0  0  0
    4.5126    1.3622   -2.6350 N   0  0  0  0  0  0  0  0  0  0  0  0
    3.6749    1.7411   -3.5699 C   0  0  0  0  0  0  0  0  0  0  0  0
    2.4084    1.4411   -3.1852 N   0  0  0  0  0  0  0  0  0  0  0  0
    2.3869    0.8861   -1.9628 N   0  0  0  0  0  0  0  0  0  0  0  0
    2.5314    0.2487    1.8930 C   0  0  0  0  0  0  0  0  0  0  0  0
    3.2573    1.3184    2.3476 O   0  0  0  0  0  0  0  0  0  0  0  0
    1.4309   -0.1933    2.6319 C   0  0  0  0  0  0  0  0  0  0  0  0
    0.6740   -1.2931    2.1964 C   0  0  0  0  0  0  0  0  0  0  0  0
   -0.4989   -1.7447    3.0218 C   0  0  0  0  0  0  0  0  0  0  0  0
   -1.1004   -0.1551   -0.9503 C   0  0  0  0  0  0  0  0  0  0  0  0
   -1.8926    0.9786   -0.7406 C   0  0  0  0  0  0  0  0  0  0  0  0
   -2.7669    3.4464    0.3468 H   0  0  0  0  0  0  0  0  0  0  0  0
   -4.4331    3.8765   -0.0596 H   0  0  0  0  0  0  0  0  0  0  0  0
   -3.3676    3.3078   -1.3520 H   0  0  0  0  0  0  0  0  0  0  0  0
   -4.7292   -0.5446    0.3540 H   0  0  0  0  0  0  0  0  0  0  0  0
   -3.3398   -2.5578   -0.0095 H   0  0  0  0  0  0  0  0  0  0  0  0
   -0.2090   -3.6311    1.1692 H   0  0  0  0  0  0  0  0  0  0  0  0
    2.4343   -2.0079   -0.6443 H   0  0  0  0  0  0  0  0  0  0  0  0
    3.9211    2.2166   -4.5106 H   0  0  0  0  0  0  0  0  0  0  0  0
    1.5386    1.5792   -3.6868 H   0  0  0  0  0  0  0  0  0  0  0  0
    2.8801    1.6376    3.1834 H   0  0  0  0  0  0  0  0  0  0  0  0
    1.1568    0.3136    3.5544 H   0  0  0  0  0  0  0  0  0  0  0  0
   -0.3676   -2.7885    3.3320 H   0  0  0  0  0  0  0  0  0  0  0  0
   -0.6022   -1.1434    3.9350 H   0  0  0  0  0  0  0  0  0  0  0  0
   -1.4303   -1.6450    2.4539 H   0  0  0  0  0  0  0  0  0  0  0  0
   -0.0854   -0.0379   -1.3252 H   0  0  0  0  0  0  0  0  0  0  0  0
   -1.4579    1.9489   -0.9615 H   0  0  0  0  0  0  0  0  0  0  0  0
  1  2  1  0
  2  3  1  0
  3  4  2  0
  4  5  1  0
  5  6  2  0
  6  7  1  0
  7  8  2  0
  7  9  2  0
  7 10  1  0
 10 11  1  0
 11 12  2  0
 12 13  1  0
 13 14  1  0
 14 15  1  0
 15 16  1  0
 16 17  2  0
 17 18  1  0
 18 19  1  0
 13 20  2  0
 20 21  1  0
 20 22  1  0
 22 23  2  0
 23 24  1  0
  6 25  1  0
 25 26  2  0
 26  3  1  0
 23 11  1  0
 19 15  2  0
  1 27  1  0
  1 28  1  0
  1 29  1  0
  4 30  1  0
  5 31  1  0
 10 32  1  0
 12 33  1  0
 17 34  1  0
 18 35  1  0
 21 36  1  0
 22 37  1  0
 24 38  1  0
 24 39  1  0
 24 40  1  0
 25 41  1  0
 26 42  1  0
M  END
$$$$
